
     RDKit          3D

  4  3  0  0  0  0  0  0  0  0999 V2000
   -0.5890   -0.1193    0.0354 C   0  0  0  0  0  0  0  0  0  0  0  0
    0.5993    0.1292   -0.0339 C   0  0  0  0  0  0  0  0  0  0  0  0
   -1.6281   -0.3497    0.0894 H   0  0  0  0  0  0  0  0  0  0  0  0
    1.6179    0.3398   -0.0910 H   0  0  0  0  0  0  0  0  0  0  0  0
  1  2  3  0
  1  3  1  0
  2  4  1  0
M  END
