
     RDKit          3D

 15 15  0  0  0  0  0  0  0  0999 V2000
    2.3458    2.0225   -0.1448 C   0  0  0  0  0  0  0  0  0  0  0  0
    1.2902    1.3994    0.2564 C   0  0  0  0  0  0  0  0  0  0  0  0
    0.0889    0.7159    0.6969 C   0  0  0  0  0  0  0  0  0  0  0  0
   -1.0550    1.3177    0.1279 O   0  0  0  0  0  0  0  0  0  0  0  0
    0.1289   -0.7372    0.2448 C   0  0  0  0  0  0  0  0  0  0  0  0
   -1.1192   -1.4359    0.7032 C   0  0  0  0  0  0  0  0  0  0  0  0
   -1.7143   -0.9435   -0.5016 O   0  0  0  0  0  0  0  0  0  0  0  0
   -0.4627   -0.9666   -1.0863 C   0  0  0  0  0  0  0  0  0  0  0  0
   -0.0380   -1.1180   -2.2442 O   0  0  0  0  0  0  0  0  0  0  0  0
    3.1542    2.4806   -0.4539 H   0  0  0  0  0  0  0  0  0  0  0  0
    0.0247    0.7221    1.7888 H   0  0  0  0  0  0  0  0  0  0  0  0
   -1.0037    1.2498   -0.8740 H   0  0  0  0  0  0  0  0  0  0  0  0
    1.0803   -1.2405    0.4438 H   0  0  0  0  0  0  0  0  0  0  0  0
   -1.0596   -2.5175    0.7672 H   0  0  0  0  0  0  0  0  0  0  0  0
   -1.6604   -0.9490    1.5611 H   0  0  0  0  0  0  0  0  0  0  0  0
  1  2  3  0
  2  3  1  0
  3  4  1  0
  3  5  1  0
  5  6  1  0
  6  7  1  0
  7  8  1  0
  8  9  2  0
  8  5  1  0
  1 10  1  0
  3 11  1  0
  4 12  1  0
  5 13  1  0
  6 14  1  0
  6 15  1  0
M  END
