
     RDKit          3D

 21 21  0  0  0  0  0  0  0  0999 V2000
   -2.4622    2.1754   -1.0087 C   0  0  0  0  0  0  0  0  0  0  0  0
   -1.9190    1.0985   -1.0742 C   0  0  0  0  0  0  0  0  0  0  0  0
   -1.2415   -0.2019   -1.1370 C   0  0  0  0  0  0  0  0  0  0  0  0
    0.2376   -0.0674   -0.7295 C   0  0  0  0  0  0  0  0  0  0  0  0
   -0.2549   -0.1774    0.6887 C   0  0  0  0  0  0  0  0  0  0  0  0
    0.7478   -0.8248    1.5702 C   0  0  0  0  0  0  0  0  0  0  0  0
    2.0049    0.0180    1.5589 C   0  0  0  0  0  0  0  0  0  0  0  0
    2.4626    0.0763    0.2500 O   0  0  0  0  0  0  0  0  0  0  0  0
   -1.3919   -1.0090    0.1615 C   0  0  0  0  0  0  0  0  0  0  0  0
   -2.9370    3.1219   -0.9584 H   0  0  0  0  0  0  0  0  0  0  0  0
   -1.4028   -0.7833   -2.0461 H   0  0  0  0  0  0  0  0  0  0  0  0
    0.6320    0.8888   -1.0615 H   0  0  0  0  0  0  0  0  0  0  0  0
    0.8448   -0.9342   -1.0554 H   0  0  0  0  0  0  0  0  0  0  0  0
   -0.6259    0.7639    1.1346 H   0  0  0  0  0  0  0  0  0  0  0  0
    0.9782   -1.8450    1.1839 H   0  0  0  0  0  0  0  0  0  0  0  0
    0.3653   -0.9698    2.6019 H   0  0  0  0  0  0  0  0  0  0  0  0
    2.7562   -0.4344    2.2409 H   0  0  0  0  0  0  0  0  0  0  0  0
    1.7692    1.0704    1.8508 H   0  0  0  0  0  0  0  0  0  0  0  0
    3.0262    0.8656    0.0621 H   0  0  0  0  0  0  0  0  0  0  0  0
   -1.2223   -2.0774    0.0481 H   0  0  0  0  0  0  0  0  0  0  0  0
   -2.3675   -0.7542    0.6446 H   0  0  0  0  0  0  0  0  0  0  0  0
  1  2  3  0
  2  3  1  0
  3  4  1  0
  4  5  1  0
  5  6  1  0
  6  7  1  0
  7  8  1  0
  5  9  1  0
  9  3  1  0
  1 10  1  0
  3 11  1  0
  4 12  1  0
  4 13  1  0
  5 14  1  0
  6 15  1  0
  6 16  1  0
  7 17  1  0
  7 18  1  0
  8 19  1  0
  9 20  1  0
  9 21  1  0
M  END
