
     RDKit          3D

 17 16  0  0  0  0  0  0  0  0999 V2000
   -3.3378    1.7393   -0.3182 C   0  0  0  0  0  0  0  0  0  0  0  0
   -2.7612    0.8291    0.2186 C   0  0  0  0  0  0  0  0  0  0  0  0
   -2.0438   -0.2622    0.8599 C   0  0  0  0  0  0  0  0  0  0  0  0
   -0.6896   -0.2551    0.6065 O   0  0  0  0  0  0  0  0  0  0  0  0
   -0.3610   -0.3584   -0.7267 C   0  0  0  0  0  0  0  0  0  0  0  0
    1.1143   -0.3370   -0.8379 C   0  0  0  0  0  0  0  0  0  0  0  0
    1.7033   -0.4181   -1.9681 O   0  0  0  0  0  0  0  0  0  0  0  0
    1.9374   -0.2276    0.2797 O   0  0  0  0  0  0  0  0  0  0  0  0
    3.3579   -0.2116    0.1148 C   0  0  0  0  0  0  0  0  0  0  0  0
   -3.8484    2.5631   -0.7887 H   0  0  0  0  0  0  0  0  0  0  0  0
   -2.1929   -0.2551    1.9519 H   0  0  0  0  0  0  0  0  0  0  0  0
   -2.4822   -1.2101    0.4796 H   0  0  0  0  0  0  0  0  0  0  0  0
   -0.6844   -1.3829   -1.0659 H   0  0  0  0  0  0  0  0  0  0  0  0
   -0.8472    0.3892   -1.3735 H   0  0  0  0  0  0  0  0  0  0  0  0
    3.6048   -0.5120   -0.9146 H   0  0  0  0  0  0  0  0  0  0  0  0
    3.6902    0.8335    0.2360 H   0  0  0  0  0  0  0  0  0  0  0  0
    3.8405   -0.9242    0.7949 H   0  0  0  0  0  0  0  0  0  0  0  0
  1  2  3  0
  2  3  1  0
  3  4  1  0
  4  5  1  0
  5  6  1  0
  6  7  2  0
  6  8  1  0
  8  9  1  0
  1 10  1  0
  3 11  1  0
  3 12  1  0
  5 13  1  0
  5 14  1  0
  9 15  1  0
  9 16  1  0
  9 17  1  0
M  END
