
     RDKit          3D

 17 19  0  0  0  0  0  0  0  0999 V2000
   -1.9768   -2.2289   -0.1841 C   0  0  0  0  0  0  0  0  0  0  0  0
   -1.3902   -1.2211    0.0828 C   0  0  0  0  0  0  0  0  0  0  0  0
   -0.6720   -0.0104    0.3825 C   0  0  0  0  0  0  0  0  0  0  0  0
   -1.2285    1.2904    0.0079 C   0  0  0  0  0  0  0  0  0  0  0  0
   -0.1545    0.7392   -0.8954 C   0  0  0  0  0  0  0  0  0  0  0  0
    1.2868    0.8588   -0.4480 C   0  0  0  0  0  0  0  0  0  0  0  0
    1.6742   -0.4818    0.0791 C   0  0  0  0  0  0  0  0  0  0  0  0
    0.6440   -0.0501    1.1063 C   0  0  0  0  0  0  0  0  0  0  0  0
    1.1217    1.2550    0.9001 O   0  0  0  0  0  0  0  0  0  0  0  0
   -2.5205   -3.1308   -0.4155 H   0  0  0  0  0  0  0  0  0  0  0  0
   -0.8878    2.1637    0.6214 H   0  0  0  0  0  0  0  0  0  0  0  0
   -2.2231    1.4094   -0.4143 H   0  0  0  0  0  0  0  0  0  0  0  0
   -0.3978    0.3024   -1.8572 H   0  0  0  0  0  0  0  0  0  0  0  0
    1.9659    1.4261   -1.0440 H   0  0  0  0  0  0  0  0  0  0  0  0
    2.6746   -0.5001    0.5080 H   0  0  0  0  0  0  0  0  0  0  0  0
    1.3838   -1.3635   -0.5191 H   0  0  0  0  0  0  0  0  0  0  0  0
    0.7002   -0.4582    2.0896 H   0  0  0  0  0  0  0  0  0  0  0  0
  1  2  3  0
  2  3  1  0
  3  4  1  0
  4  5  1  0
  5  6  1  0
  6  7  1  0
  7  8  1  0
  8  9  1  0
  5  3  1  0
  9  6  1  0
  8  3  1  0
  1 10  1  0
  4 11  1  0
  4 12  1  0
  5 13  1  0
  6 14  1  0
  7 15  1  0
  7 16  1  0
  8 17  1  0
M  END
