
     RDKit          3D

 19 20  0  0  0  0  0  0  0  0999 V2000
    3.4583   -0.4956   -0.5208 C   0  0  0  0  0  0  0  0  0  0  0  0
    2.4365   -0.3676    0.1187 C   0  0  0  0  0  0  0  0  0  0  0  0
    1.1962   -0.2346    0.8827 C   0  0  0  0  0  0  0  0  0  0  0  0
    0.0760    0.2476   -0.0118 C   0  0  0  0  0  0  0  0  0  0  0  0
   -0.2396   -0.6470   -1.1633 C   0  0  0  0  0  0  0  0  0  0  0  0
   -1.5059   -0.1548   -1.5591 O   0  0  0  0  0  0  0  0  0  0  0  0
   -2.2164   -0.2334   -0.3792 C   0  0  0  0  0  0  0  0  0  0  0  0
   -1.3056    0.4118    0.6238 C   0  0  0  0  0  0  0  0  0  0  0  0
   -0.5126    1.5832    0.1172 C   0  0  0  0  0  0  0  0  0  0  0  0
    4.3672   -0.5979   -1.0716 H   0  0  0  0  0  0  0  0  0  0  0  0
    1.3247    0.4366    1.7615 H   0  0  0  0  0  0  0  0  0  0  0  0
    0.8976   -1.2391    1.2583 H   0  0  0  0  0  0  0  0  0  0  0  0
   -0.3587   -1.6876   -0.7399 H   0  0  0  0  0  0  0  0  0  0  0  0
    0.4841   -0.6475   -1.9744 H   0  0  0  0  0  0  0  0  0  0  0  0
   -2.4508   -1.2905   -0.1466 H   0  0  0  0  0  0  0  0  0  0  0  0
   -3.1922    0.3131   -0.4226 H   0  0  0  0  0  0  0  0  0  0  0  0
   -1.4237    0.2257    1.7005 H   0  0  0  0  0  0  0  0  0  0  0  0
   -0.8959    2.1317   -0.7577 H   0  0  0  0  0  0  0  0  0  0  0  0
   -0.1393    2.2457    0.9167 H   0  0  0  0  0  0  0  0  0  0  0  0
  1  2  3  0
  2  3  1  0
  3  4  1  0
  4  5  1  0
  5  6  1  0
  6  7  1  0
  7  8  1  0
  8  9  1  0
  8  4  1  0
  9  4  1  0
  1 10  1  0
  3 11  1  0
  3 12  1  0
  5 13  1  0
  5 14  1  0
  7 15  1  0
  7 16  1  0
  8 17  1  0
  9 18  1  0
  9 19  1  0
M  END
