
     RDKit          3D

 23 22  0  0  0  0  0  0  0  0999 V2000
    3.8618   -0.5478   -0.6900 C   0  0  0  0  0  0  0  0  0  0  0  0
    2.7836   -0.4261   -0.0478 C   0  0  0  0  0  0  0  0  0  0  0  0
    1.5790   -0.3014    0.6444 C   0  0  0  0  0  0  0  0  0  0  0  0
    1.5342   -1.1721    1.7472 O   0  0  0  0  0  0  0  0  0  0  0  0
    0.3761   -0.6563   -0.2398 C   0  0  0  0  0  0  0  0  0  0  0  0
   -0.9270   -0.5464    0.4975 C   0  0  0  0  0  0  0  0  0  0  0  0
   -2.0091   -0.9450   -0.5049 C   0  0  0  0  0  0  0  0  0  0  0  0
   -1.1960    0.8098    1.0779 C   0  0  0  0  0  0  0  0  0  0  0  0
   -1.2327    1.9073    0.0195 C   0  0  0  0  0  0  0  0  0  0  0  0
    4.8188   -0.6663   -1.2415 H   0  0  0  0  0  0  0  0  0  0  0  0
    1.3929    0.7570    1.0438 H   0  0  0  0  0  0  0  0  0  0  0  0
    2.1546   -0.7814    2.4462 H   0  0  0  0  0  0  0  0  0  0  0  0
    0.3343    0.1695   -1.0225 H   0  0  0  0  0  0  0  0  0  0  0  0
    0.4943   -1.5769   -0.7929 H   0  0  0  0  0  0  0  0  0  0  0  0
   -0.9567   -1.3143    1.3195 H   0  0  0  0  0  0  0  0  0  0  0  0
   -1.7565   -2.0120   -0.7674 H   0  0  0  0  0  0  0  0  0  0  0  0
   -3.0008   -0.8730   -0.0588 H   0  0  0  0  0  0  0  0  0  0  0  0
   -1.8711   -0.3662   -1.4394 H   0  0  0  0  0  0  0  0  0  0  0  0
   -2.1965    0.8644    1.5615 H   0  0  0  0  0  0  0  0  0  0  0  0
   -0.4407    1.1302    1.8140 H   0  0  0  0  0  0  0  0  0  0  0  0
   -1.6225    2.8302    0.4716 H   0  0  0  0  0  0  0  0  0  0  0  0
   -0.1994    2.0867   -0.3245 H   0  0  0  0  0  0  0  0  0  0  0  0
   -1.9206    1.6302   -0.8056 H   0  0  0  0  0  0  0  0  0  0  0  0
  1  2  3  0
  2  3  1  0
  3  4  1  0
  3  5  1  0
  5  6  1  0
  6  7  1  0
  6  8  1  0
  8  9  1  0
  1 10  1  0
  3 11  1  0
  4 12  1  0
  5 13  1  0
  5 14  1  0
  6 15  1  0
  7 16  1  0
  7 17  1  0
  7 18  1  0
  8 19  1  0
  8 20  1  0
  9 21  1  0
  9 22  1  0
  9 23  1  0
M  END
