
     RDKit          3D

 19 20  0  0  0  0  0  0  0  0999 V2000
    3.0269   -0.8716   -0.0269 C   0  0  0  0  0  0  0  0  0  0  0  0
    2.0181   -0.3008    0.2134 C   0  0  0  0  0  0  0  0  0  0  0  0
    0.7864    0.4108    0.4860 C   0  0  0  0  0  0  0  0  0  0  0  0
    0.7510    1.2272    1.5904 O   0  0  0  0  0  0  0  0  0  0  0  0
    0.4534    1.7193    0.3305 C   0  0  0  0  0  0  0  0  0  0  0  0
   -0.9670    1.3659   -0.1326 C   0  0  0  0  0  0  0  0  0  0  0  0
   -0.5292   -0.1020   -0.0211 C   0  0  0  0  0  0  0  0  0  0  0  0
   -0.4869   -0.7764   -1.3682 C   0  0  0  0  0  0  0  0  0  0  0  0
   -1.2635   -0.8936    1.0076 C   0  0  0  0  0  0  0  0  0  0  0  0
    3.9431   -1.4033   -0.2312 H   0  0  0  0  0  0  0  0  0  0  0  0
    0.9327    2.6139   -0.0553 H   0  0  0  0  0  0  0  0  0  0  0  0
   -1.0968    1.6770   -1.1732 H   0  0  0  0  0  0  0  0  0  0  0  0
   -1.7513    1.6305    0.5860 H   0  0  0  0  0  0  0  0  0  0  0  0
    0.1575   -1.6873   -1.2725 H   0  0  0  0  0  0  0  0  0  0  0  0
   -0.1512   -0.1233   -2.1769 H   0  0  0  0  0  0  0  0  0  0  0  0
   -1.5134   -1.1615   -1.5699 H   0  0  0  0  0  0  0  0  0  0  0  0
   -2.2170   -1.2866    0.5870 H   0  0  0  0  0  0  0  0  0  0  0  0
   -0.6153   -1.7494    1.3282 H   0  0  0  0  0  0  0  0  0  0  0  0
   -1.4776   -0.2889    1.8985 H   0  0  0  0  0  0  0  0  0  0  0  0
  1  2  3  0
  2  3  1  0
  3  4  1  0
  4  5  1  0
  5  6  1  0
  6  7  1  0
  7  8  1  0
  7  9  1  0
  5  3  1  0
  7  3  1  0
  1 10  1  0
  5 11  1  0
  6 12  1  0
  6 13  1  0
  8 14  1  0
  8 15  1  0
  8 16  1  0
  9 17  1  0
  9 18  1  0
  9 19  1  0
M  END
