
     RDKit          3D

 17 19  0  0  0  0  0  0  0  0999 V2000
    2.3884    0.7787   -0.6537 C   0  0  0  0  0  0  0  0  0  0  0  0
    1.5001   -0.0684   -0.5085 C   0  0  0  0  0  0  0  0  0  0  0  0
    0.4368   -1.1003   -0.3557 C   0  0  0  0  0  0  0  0  0  0  0  0
   -0.5598   -0.6053   -1.5398 C   0  0  0  0  0  0  0  0  0  0  0  0
   -0.5916    0.5569   -0.5525 C   0  0  0  0  0  0  0  0  0  0  0  0
   -0.5850    1.2880    0.4957 C   0  0  0  0  0  0  0  0  0  0  0  0
   -0.4069    0.4399    1.7464 C   0  0  0  0  0  0  0  0  0  0  0  0
    0.0239   -0.9014    1.1110 C   0  0  0  0  0  0  0  0  0  0  0  0
   -0.8837   -0.8635    0.1417 C   0  0  0  0  0  0  0  0  0  0  0  0
    3.1439    1.4989   -0.7766 H   0  0  0  0  0  0  0  0  0  0  0  0
   -1.4496   -1.1657   -1.6079 H   0  0  0  0  0  0  0  0  0  0  0  0
   -0.0253   -0.3356   -2.4218 H   0  0  0  0  0  0  0  0  0  0  0  0
   -0.6959    2.3764    0.4793 H   0  0  0  0  0  0  0  0  0  0  0  0
    0.3392    0.8495    2.4134 H   0  0  0  0  0  0  0  0  0  0  0  0
   -1.4030    0.2304    2.1898 H   0  0  0  0  0  0  0  0  0  0  0  0
    0.5198   -1.6369    1.7497 H   0  0  0  0  0  0  0  0  0  0  0  0
   -1.7513   -1.3415   -0.1605 H   0  0  0  0  0  0  0  0  0  0  0  0
  1  2  3  0
  2  3  1  0
  3  4  1  0
  4  5  1  0
  5  6  2  0
  6  7  1  0
  7  8  1  0
  8  9  1  0
  8  3  1  0
  9  3  1  0
  9  5  1  0
  1 10  1  0
  4 11  1  0
  4 12  1  0
  6 13  1  0
  7 14  1  0
  7 15  1  0
  8 16  1  0
  9 17  1  0
M  END
