
     RDKit          3D

 19 18  0  0  0  0  0  0  0  0999 V2000
    3.1092   -0.0414    0.5202 C   0  0  0  0  0  0  0  0  0  0  0  0
    2.1308   -0.7795    0.4683 C   0  0  0  0  0  0  0  0  0  0  0  0
    0.9699   -1.6823    0.4202 C   0  0  0  0  0  0  0  0  0  0  0  0
    1.1114   -2.4808   -0.6954 O   0  0  0  0  0  0  0  0  0  0  0  0
   -0.2757   -0.8416    0.4042 C   0  0  0  0  0  0  0  0  0  0  0  0
   -0.3417    0.0726   -0.7712 C   0  0  0  0  0  0  0  0  0  0  0  0
    0.4846    0.0901   -1.6409 O   0  0  0  0  0  0  0  0  0  0  0  0
   -1.5026    0.9957   -0.8323 C   0  0  0  0  0  0  0  0  0  0  0  0
   -1.3885    2.0413    0.2560 C   0  0  0  0  0  0  0  0  0  0  0  0
    3.9317    0.5964    0.5523 H   0  0  0  0  0  0  0  0  0  0  0  0
    0.9095   -2.3434    1.3150 H   0  0  0  0  0  0  0  0  0  0  0  0
    0.2930   -2.8594   -1.0592 H   0  0  0  0  0  0  0  0  0  0  0  0
   -0.2436   -0.1988    1.3256 H   0  0  0  0  0  0  0  0  0  0  0  0
   -1.2157   -1.4085    0.4418 H   0  0  0  0  0  0  0  0  0  0  0  0
   -1.5579    1.4924   -1.8269 H   0  0  0  0  0  0  0  0  0  0  0  0
   -2.4349    0.4278   -0.7358 H   0  0  0  0  0  0  0  0  0  0  0  0
   -0.3222    2.3110    0.4153 H   0  0  0  0  0  0  0  0  0  0  0  0
   -1.9094    2.9344   -0.1001 H   0  0  0  0  0  0  0  0  0  0  0  0
   -1.7479    1.6741    1.2397 H   0  0  0  0  0  0  0  0  0  0  0  0
  1  2  3  0
  2  3  1  0
  3  4  1  0
  3  5  1  0
  5  6  1  0
  6  7  2  0
  6  8  1  0
  8  9  1  0
  1 10  1  0
  3 11  1  0
  4 12  1  0
  5 13  1  0
  5 14  1  0
  8 15  1  0
  8 16  1  0
  9 17  1  0
  9 18  1  0
  9 19  1  0
M  END
