
     RDKit          3D

 18 17  0  0  0  0  0  0  0  0999 V2000
    0.7897   -2.1804   -2.0001 C   0  0  0  0  0  0  0  0  0  0  0  0
    0.7048   -1.4513   -1.0427 C   0  0  0  0  0  0  0  0  0  0  0  0
    0.5987   -0.5370    0.1161 C   0  0  0  0  0  0  0  0  0  0  0  0
    1.8340    0.2556    0.2497 C   0  0  0  0  0  0  0  0  0  0  0  0
    2.8350    0.9219    0.3550 C   0  0  0  0  0  0  0  0  0  0  0  0
   -0.5534    0.4171   -0.0878 C   0  0  0  0  0  0  0  0  0  0  0  0
   -0.6169    1.3271    1.1227 C   0  0  0  0  0  0  0  0  0  0  0  0
   -1.8640   -0.3348   -0.1249 C   0  0  0  0  0  0  0  0  0  0  0  0
    0.8789   -2.8125   -2.8493 H   0  0  0  0  0  0  0  0  0  0  0  0
    0.3794   -1.1224    1.0307 H   0  0  0  0  0  0  0  0  0  0  0  0
    3.7122    1.5085    0.4417 H   0  0  0  0  0  0  0  0  0  0  0  0
   -0.3565    0.9696   -1.0236 H   0  0  0  0  0  0  0  0  0  0  0  0
   -1.6599    1.4467    1.5009 H   0  0  0  0  0  0  0  0  0  0  0  0
    0.0106    0.9309    1.9482 H   0  0  0  0  0  0  0  0  0  0  0  0
   -0.2450    2.3274    0.8348 H   0  0  0  0  0  0  0  0  0  0  0  0
   -2.7044    0.3454   -0.2585 H   0  0  0  0  0  0  0  0  0  0  0  0
   -1.8093   -1.1122   -0.9336 H   0  0  0  0  0  0  0  0  0  0  0  0
   -1.9341   -0.8995    0.8314 H   0  0  0  0  0  0  0  0  0  0  0  0
  1  2  3  0
  2  3  1  0
  3  4  1  0
  4  5  3  0
  3  6  1  0
  6  7  1  0
  6  8  1  0
  1  9  1  0
  3 10  1  0
  5 11  1  0
  6 12  1  0
  7 13  1  0
  7 14  1  0
  7 15  1  0
  8 16  1  0
  8 17  1  0
  8 18  1  0
M  END
