
     RDKit          3D

 15 15  0  0  0  0  0  0  0  0999 V2000
    3.2437   -0.2827    1.0050 C   0  0  0  0  0  0  0  0  0  0  0  0
    2.3159    0.3978    0.5909 C   0  0  0  0  0  0  0  0  0  0  0  0
    1.2382    1.2126    0.1108 C   0  0  0  0  0  0  0  0  0  0  0  0
    1.4199    2.4523    0.1654 O   0  0  0  0  0  0  0  0  0  0  0  0
   -0.0050    0.6291   -0.4137 C   0  0  0  0  0  0  0  0  0  0  0  0
    0.0994   -0.7784   -0.3417 O   0  0  0  0  0  0  0  0  0  0  0  0
   -1.1600   -1.1535   -0.7825 C   0  0  0  0  0  0  0  0  0  0  0  0
   -2.0261   -0.0552   -0.1596 C   0  0  0  0  0  0  0  0  0  0  0  0
   -1.1139    0.8599    0.3726 O   0  0  0  0  0  0  0  0  0  0  0  0
    4.0472   -0.8723    1.3662 H   0  0  0  0  0  0  0  0  0  0  0  0
   -0.2264    0.9214   -1.4603 H   0  0  0  0  0  0  0  0  0  0  0  0
   -1.1599   -1.0823   -1.8948 H   0  0  0  0  0  0  0  0  0  0  0  0
   -1.4259   -2.1377   -0.3993 H   0  0  0  0  0  0  0  0  0  0  0  0
   -2.6025    0.4244   -0.9581 H   0  0  0  0  0  0  0  0  0  0  0  0
   -2.6446   -0.5356    0.6164 H   0  0  0  0  0  0  0  0  0  0  0  0
  1  2  3  0
  2  3  1  0
  3  4  2  0
  3  5  1  0
  5  6  1  0
  6  7  1  0
  7  8  1  0
  8  9  1  0
  9  5  1  0
  1 10  1  0
  5 11  1  0
  7 12  1  0
  7 13  1  0
  8 14  1  0
  8 15  1  0
M  END
