
     RDKit          3D

 19 19  0  0  0  0  0  0  0  0999 V2000
    0.7153    2.4698   -1.0318 C   0  0  0  0  0  0  0  0  0  0  0  0
    0.5593    1.2862   -0.7905 C   0  0  0  0  0  0  0  0  0  0  0  0
    0.3626   -0.1433   -0.5182 C   0  0  0  0  0  0  0  0  0  0  0  0
    1.4640   -1.0726   -0.9520 C   0  0  0  0  0  0  0  0  0  0  0  0
   -1.0314   -0.6458   -0.8290 C   0  0  0  0  0  0  0  0  0  0  0  0
   -0.5820   -0.5153    0.5661 C   0  0  0  0  0  0  0  0  0  0  0  0
   -0.2510   -1.6377    1.3108 O   0  0  0  0  0  0  0  0  0  0  0  0
   -1.1574    0.6231    1.3919 C   0  0  0  0  0  0  0  0  0  0  0  0
   -0.2465    1.0571    2.3694 O   0  0  0  0  0  0  0  0  0  0  0  0
    0.8566    3.4941   -1.2585 H   0  0  0  0  0  0  0  0  0  0  0  0
    1.1071   -1.9704   -1.4770 H   0  0  0  0  0  0  0  0  0  0  0  0
    1.9855   -1.4288   -0.0290 H   0  0  0  0  0  0  0  0  0  0  0  0
    2.2313   -0.5106   -1.5246 H   0  0  0  0  0  0  0  0  0  0  0  0
   -1.7788    0.0569   -1.2558 H   0  0  0  0  0  0  0  0  0  0  0  0
   -1.1501   -1.6754   -1.2457 H   0  0  0  0  0  0  0  0  0  0  0  0
   -0.1410   -2.3834    0.6379 H   0  0  0  0  0  0  0  0  0  0  0  0
   -2.0749    0.2833    1.9532 H   0  0  0  0  0  0  0  0  0  0  0  0
   -1.5068    1.4574    0.7491 H   0  0  0  0  0  0  0  0  0  0  0  0
    0.6382    1.2553    1.9336 H   0  0  0  0  0  0  0  0  0  0  0  0
  1  2  3  0
  2  3  1  0
  3  4  1  0
  3  5  1  0
  5  6  1  0
  6  7  1  0
  6  8  1  0
  8  9  1  0
  6  3  1  0
  1 10  1  0
  4 11  1  0
  4 12  1  0
  4 13  1  0
  5 14  1  0
  5 15  1  0
  7 16  1  0
  8 17  1  0
  8 18  1  0
  9 19  1  0
M  END
