
     RDKit          3D

 20 19  0  0  0  0  0  0  0  0999 V2000
   -1.7919    2.1707   -0.4108 C   0  0  0  0  0  0  0  0  0  0  0  0
   -1.3876    1.0388   -0.3080 C   0  0  0  0  0  0  0  0  0  0  0  0
   -0.9198   -0.3420   -0.1747 C   0  0  0  0  0  0  0  0  0  0  0  0
   -1.1212   -1.0971   -1.4571 C   0  0  0  0  0  0  0  0  0  0  0  0
    0.4436   -0.4355    0.4080 C   0  0  0  0  0  0  0  0  0  0  0  0
    0.3984    0.2014    1.7914 C   0  0  0  0  0  0  0  0  0  0  0  0
    1.5215    0.1709   -0.4470 C   0  0  0  0  0  0  0  0  0  0  0  0
    2.7759    0.0549    0.1485 O   0  0  0  0  0  0  0  0  0  0  0  0
   -2.1358    3.1874   -0.4990 H   0  0  0  0  0  0  0  0  0  0  0  0
   -1.6177   -0.8201    0.5758 H   0  0  0  0  0  0  0  0  0  0  0  0
   -0.1721   -1.2383   -2.0112 H   0  0  0  0  0  0  0  0  0  0  0  0
   -1.6654   -2.0544   -1.3086 H   0  0  0  0  0  0  0  0  0  0  0  0
   -1.7836   -0.4740   -2.1267 H   0  0  0  0  0  0  0  0  0  0  0  0
    0.6933   -1.5079    0.5433 H   0  0  0  0  0  0  0  0  0  0  0  0
   -0.3737   -0.3862    2.3603 H   0  0  0  0  0  0  0  0  0  0  0  0
    1.3567    0.0542    2.3354 H   0  0  0  0  0  0  0  0  0  0  0  0
    0.0507    1.2328    1.7591 H   0  0  0  0  0  0  0  0  0  0  0  0
    1.3622    1.2383   -0.6678 H   0  0  0  0  0  0  0  0  0  0  0  0
    1.5712   -0.3907   -1.3929 H   0  0  0  0  0  0  0  0  0  0  0  0
    2.7953   -0.6032    0.8822 H   0  0  0  0  0  0  0  0  0  0  0  0
  1  2  3  0
  2  3  1  0
  3  4  1  0
  3  5  1  0
  5  6  1  0
  5  7  1  0
  7  8  1  0
  1  9  1  0
  3 10  1  0
  4 11  1  0
  4 12  1  0
  4 13  1  0
  5 14  1  0
  6 15  1  0
  6 16  1  0
  6 17  1  0
  7 18  1  0
  7 19  1  0
  8 20  1  0
M  END
