
     RDKit          3D

 19 20  0  0  0  0  0  0  0  0999 V2000
    3.5570    0.2876   -1.7146 C   0  0  0  0  0  0  0  0  0  0  0  0
    2.4319    0.1970   -1.2477 C   0  0  0  0  0  0  0  0  0  0  0  0
    1.1589    0.0802   -0.7394 C   0  0  0  0  0  0  0  0  0  0  0  0
    0.0723   -0.5208   -0.8355 C   0  0  0  0  0  0  0  0  0  0  0  0
   -0.9858   -0.1370    0.1648 C   0  0  0  0  0  0  0  0  0  0  0  0
   -0.1891    0.6138    1.1719 C   0  0  0  0  0  0  0  0  0  0  0  0
    0.8043    1.2738    0.3067 C   0  0  0  0  0  0  0  0  0  0  0  0
   -2.3896   -0.3540   -0.0697 C   0  0  0  0  0  0  0  0  0  0  0  0
   -1.6997   -1.3412    0.8045 C   0  0  0  0  0  0  0  0  0  0  0  0
    4.6679    0.3681   -2.1551 H   0  0  0  0  0  0  0  0  0  0  0  0
   -0.0841   -1.2802   -1.6703 H   0  0  0  0  0  0  0  0  0  0  0  0
   -0.7366    1.2898    1.8232 H   0  0  0  0  0  0  0  0  0  0  0  0
    0.3896   -0.1161    1.8384 H   0  0  0  0  0  0  0  0  0  0  0  0
    0.4003    2.0657   -0.3252 H   0  0  0  0  0  0  0  0  0  0  0  0
    1.7073    1.4975    0.8616 H   0  0  0  0  0  0  0  0  0  0  0  0
   -2.7232   -0.6662   -1.1027 H   0  0  0  0  0  0  0  0  0  0  0  0
   -3.1472    0.3304    0.4296 H   0  0  0  0  0  0  0  0  0  0  0  0
   -1.9489   -1.2804    1.9067 H   0  0  0  0  0  0  0  0  0  0  0  0
   -1.2855   -2.3081    0.5528 H   0  0  0  0  0  0  0  0  0  0  0  0
  1  2  3  0
  2  3  1  0
  3  4  2  0
  4  5  1  0
  5  6  1  0
  6  7  1  0
  5  8  1  0
  8  9  1  0
  7  3  1  0
  9  5  1  0
  1 10  1  0
  4 11  1  0
  6 12  1  0
  6 13  1  0
  7 14  1  0
  7 15  1  0
  8 16  1  0
  8 17  1  0
  9 18  1  0
  9 19  1  0
M  END
