
     RDKit          3D

 18 19  0  0  0  0  0  0  0  0999 V2000
    2.8240    0.2720    1.1648 C   0  0  0  0  0  0  0  0  0  0  0  0
    1.6680    0.4581    0.8112 C   0  0  0  0  0  0  0  0  0  0  0  0
    0.2587    0.6752    0.3792 C   0  0  0  0  0  0  0  0  0  0  0  0
    0.1423    1.6498   -0.6413 C   0  0  0  0  0  0  0  0  0  0  0  0
   -0.0301    0.3257   -1.1374 C   0  0  0  0  0  0  0  0  0  0  0  0
    0.4114   -1.0075   -0.6146 C   0  0  0  0  0  0  0  0  0  0  0  0
   -0.5055   -0.6080    0.5603 C   0  0  0  0  0  0  0  0  0  0  0  0
   -1.9560   -0.6012    0.2667 C   0  0  0  0  0  0  0  0  0  0  0  0
    3.8261    0.1286    1.4741 H   0  0  0  0  0  0  0  0  0  0  0  0
    1.0361    2.2104   -1.0545 H   0  0  0  0  0  0  0  0  0  0  0  0
   -0.6791    2.4156   -0.4823 H   0  0  0  0  0  0  0  0  0  0  0  0
   -1.1280    0.1866   -1.4032 H   0  0  0  0  0  0  0  0  0  0  0  0
    1.4422   -1.1655   -0.3439 H   0  0  0  0  0  0  0  0  0  0  0  0
    0.0466   -1.8695   -1.1907 H   0  0  0  0  0  0  0  0  0  0  0  0
   -0.2067   -1.1958    1.4314 H   0  0  0  0  0  0  0  0  0  0  0  0
   -2.4840   -1.0259    1.1732 H   0  0  0  0  0  0  0  0  0  0  0  0
   -2.2678   -1.2745   -0.5618 H   0  0  0  0  0  0  0  0  0  0  0  0
   -2.3982    0.4261    0.1688 H   0  0  0  0  0  0  0  0  0  0  0  0
  1  2  3  0
  2  3  1  0
  3  4  1  0
  4  5  1  0
  5  6  1  0
  6  7  1  0
  7  8  1  0
  5  3  1  0
  7  3  1  0
  1  9  1  0
  4 10  1  0
  4 11  1  0
  5 12  1  0
  6 13  1  0
  6 14  1  0
  7 15  1  0
  8 16  1  0
  8 17  1  0
  8 18  1  0
M  END
