
     RDKit          3D

 16 16  0  0  0  0  0  0  0  0999 V2000
    2.9396   -0.0703    0.9513 C   0  0  0  0  0  0  0  0  0  0  0  0
    1.8111    0.2668    0.7682 C   0  0  0  0  0  0  0  0  0  0  0  0
    0.3968    0.6627    0.5339 C   0  0  0  0  0  0  0  0  0  0  0  0
    0.2927    1.0153   -0.8979 C   0  0  0  0  0  0  0  0  0  0  0  0
   -0.7625    0.4535   -1.4601 C   0  0  0  0  0  0  0  0  0  0  0  0
   -1.4954   -0.3615   -0.4164 C   0  0  0  0  0  0  0  0  0  0  0  0
   -0.4626   -0.5853    0.6808 C   0  0  0  0  0  0  0  0  0  0  0  0
   -1.0461   -0.6783    1.9368 O   0  0  0  0  0  0  0  0  0  0  0  0
    3.9708   -0.3844    1.1375 H   0  0  0  0  0  0  0  0  0  0  0  0
    0.0771    1.5063    1.1421 H   0  0  0  0  0  0  0  0  0  0  0  0
    1.0135    1.6522   -1.4009 H   0  0  0  0  0  0  0  0  0  0  0  0
   -1.0798    0.5400   -2.4893 H   0  0  0  0  0  0  0  0  0  0  0  0
   -2.2815    0.2732    0.0452 H   0  0  0  0  0  0  0  0  0  0  0  0
   -1.8865   -1.3063   -0.8271 H   0  0  0  0  0  0  0  0  0  0  0  0
    0.1490   -1.5023    0.5048 H   0  0  0  0  0  0  0  0  0  0  0  0
   -1.6362   -1.4816    1.9192 H   0  0  0  0  0  0  0  0  0  0  0  0
  1  2  3  0
  2  3  1  0
  3  4  1  0
  4  5  2  0
  5  6  1  0
  6  7  1  0
  7  8  1  0
  7  3  1  0
  1  9  1  0
  3 10  1  0
  4 11  1  0
  5 12  1  0
  6 13  1  0
  6 14  1  0
  7 15  1  0
  8 16  1  0
M  END
