
     RDKit          3D

 21 21  0  0  0  0  0  0  0  0999 V2000
    3.3817   -1.0994   -0.9913 C   0  0  0  0  0  0  0  0  0  0  0  0
    2.3308   -0.5830   -1.2437 C   0  0  0  0  0  0  0  0  0  0  0  0
    1.0306    0.0554   -1.5823 C   0  0  0  0  0  0  0  0  0  0  0  0
    0.7274   -0.3704   -3.0124 C   0  0  0  0  0  0  0  0  0  0  0  0
    0.0940   -0.4324   -0.6953 O   0  0  0  0  0  0  0  0  0  0  0  0
   -0.4338    0.5545    0.1331 C   0  0  0  0  0  0  0  0  0  0  0  0
   -1.4486   -0.1074    1.0472 C   0  0  0  0  0  0  0  0  0  0  0  0
   -2.1162    0.8955    2.0286 C   0  0  0  0  0  0  0  0  0  0  0  0
   -1.2367   -0.2206    2.4930 C   0  0  0  0  0  0  0  0  0  0  0  0
    4.3167   -1.5761   -0.7757 H   0  0  0  0  0  0  0  0  0  0  0  0
    1.2140    1.1357   -1.5052 H   0  0  0  0  0  0  0  0  0  0  0  0
    0.6604   -1.4944   -2.9681 H   0  0  0  0  0  0  0  0  0  0  0  0
   -0.2977    0.0147   -3.2255 H   0  0  0  0  0  0  0  0  0  0  0  0
    1.4888   -0.0164   -3.7028 H   0  0  0  0  0  0  0  0  0  0  0  0
    0.3554    1.0772    0.7099 H   0  0  0  0  0  0  0  0  0  0  0  0
   -0.8923    1.3249   -0.5188 H   0  0  0  0  0  0  0  0  0  0  0  0
   -2.1340   -0.8451    0.5599 H   0  0  0  0  0  0  0  0  0  0  0  0
   -1.7118    1.9198    2.0673 H   0  0  0  0  0  0  0  0  0  0  0  0
   -3.2278    0.8027    2.0582 H   0  0  0  0  0  0  0  0  0  0  0  0
   -1.8081   -1.0344    3.0150 H   0  0  0  0  0  0  0  0  0  0  0  0
   -0.2928   -0.0007    2.9945 H   0  0  0  0  0  0  0  0  0  0  0  0
  1  2  3  0
  2  3  1  0
  3  4  1  0
  3  5  1  0
  5  6  1  0
  6  7  1  0
  7  8  1  0
  8  9  1  0
  9  7  1  0
  1 10  1  0
  3 11  1  0
  4 12  1  0
  4 13  1  0
  4 14  1  0
  6 15  1  0
  6 16  1  0
  7 17  1  0
  8 18  1  0
  8 19  1  0
  9 20  1  0
  9 21  1  0
M  END
