
     RDKit          3D

 17 18  0  0  0  0  0  0  0  0999 V2000
    2.6228   -1.6697   -0.9964 C   0  0  0  0  0  0  0  0  0  0  0  0
    1.5783   -1.0652   -0.8333 C   0  0  0  0  0  0  0  0  0  0  0  0
    0.3486   -0.3564   -0.6657 C   0  0  0  0  0  0  0  0  0  0  0  0
    0.0490    0.8876   -0.9940 C   0  0  0  0  0  0  0  0  0  0  0  0
   -1.3170    1.1199   -0.6221 C   0  0  0  0  0  0  0  0  0  0  0  0
   -1.9964    1.3656    0.4589 O   0  0  0  0  0  0  0  0  0  0  0  0
   -1.2286    0.3609    0.7259 C   0  0  0  0  0  0  0  0  0  0  0  0
   -0.0050    0.7528    1.5840 C   0  0  0  0  0  0  0  0  0  0  0  0
   -0.8980   -0.9320    0.0005 C   0  0  0  0  0  0  0  0  0  0  0  0
    3.5347   -2.1921   -1.1205 H   0  0  0  0  0  0  0  0  0  0  0  0
    0.7684    1.5474   -1.4585 H   0  0  0  0  0  0  0  0  0  0  0  0
   -1.9950    0.6555   -1.4176 H   0  0  0  0  0  0  0  0  0  0  0  0
    0.1165   -0.0898    2.3091 H   0  0  0  0  0  0  0  0  0  0  0  0
    0.8691    0.8395    0.9384 H   0  0  0  0  0  0  0  0  0  0  0  0
   -0.1733    1.6840    2.1374 H   0  0  0  0  0  0  0  0  0  0  0  0
   -0.6202   -1.7066    0.7087 H   0  0  0  0  0  0  0  0  0  0  0  0
   -1.6539   -1.2014   -0.7548 H   0  0  0  0  0  0  0  0  0  0  0  0
  1  2  3  0
  2  3  1  0
  3  4  2  0
  4  5  1  0
  5  6  1  0
  6  7  1  0
  7  8  1  0
  7  9  1  0
  9  3  1  0
  7  5  1  0
  1 10  1  0
  4 11  1  0
  5 12  1  0
  8 13  1  0
  8 14  1  0
  8 15  1  0
  9 16  1  0
  9 17  1  0
M  END
