
     RDKit          3D

 17 18  0  0  0  0  0  0  0  0999 V2000
    3.1801   -0.5547    0.9524 C   0  0  0  0  0  0  0  0  0  0  0  0
    2.2817   -0.1806    0.2382 C   0  0  0  0  0  0  0  0  0  0  0  0
    1.1590    0.2860   -0.6218 C   0  0  0  0  0  0  0  0  0  0  0  0
    0.0964   -0.6387   -0.8065 C   0  0  0  0  0  0  0  0  0  0  0  0
   -1.1093   -0.9004    0.0616 C   0  0  0  0  0  0  0  0  0  0  0  0
   -1.4911    0.4718   -0.5382 C   0  0  0  0  0  0  0  0  0  0  0  0
   -2.4368    1.1590    0.1652 O   0  0  0  0  0  0  0  0  0  0  0  0
   -0.0717    0.7748   -0.1010 C   0  0  0  0  0  0  0  0  0  0  0  0
   -0.0741    0.7262    1.3206 O   0  0  0  0  0  0  0  0  0  0  0  0
    3.9593   -0.8800    1.5944 H   0  0  0  0  0  0  0  0  0  0  0  0
    1.5970    0.8865   -1.4773 H   0  0  0  0  0  0  0  0  0  0  0  0
   -0.2848   -0.6512   -1.8810 H   0  0  0  0  0  0  0  0  0  0  0  0
   -1.7314   -1.7300   -0.2930 H   0  0  0  0  0  0  0  0  0  0  0  0
   -0.9896   -0.9359    1.1309 H   0  0  0  0  0  0  0  0  0  0  0  0
   -1.5787    0.3955   -1.6175 H   0  0  0  0  0  0  0  0  0  0  0  0
   -3.2637    0.5947    0.2635 H   0  0  0  0  0  0  0  0  0  0  0  0
    0.7576    1.1771    1.6095 H   0  0  0  0  0  0  0  0  0  0  0  0
  1  2  3  0
  2  3  1  0
  3  4  1  0
  4  5  1  0
  5  6  1  0
  6  7  1  0
  6  8  1  0
  8  9  1  0
  8  3  1  0
  8  4  1  0
  1 10  1  0
  3 11  1  0
  4 12  1  0
  5 13  1  0
  5 14  1  0
  6 15  1  0
  7 16  1  0
  9 17  1  0
M  END
