
     RDKit          3D

 15 15  0  0  0  0  0  0  0  0999 V2000
    2.3364    1.3143   -0.8223 C   0  0  0  0  0  0  0  0  0  0  0  0
    1.4411    0.5280   -0.6367 C   0  0  0  0  0  0  0  0  0  0  0  0
    0.3405   -0.4256   -0.4155 C   0  0  0  0  0  0  0  0  0  0  0  0
    0.2637   -1.3566   -1.4486 O   0  0  0  0  0  0  0  0  0  0  0  0
    0.3699   -1.1044    0.9055 C   0  0  0  0  0  0  0  0  0  0  0  0
    1.0439   -1.9815    1.4047 O   0  0  0  0  0  0  0  0  0  0  0  0
   -0.7587   -0.2650    1.3458 C   0  0  0  0  0  0  0  0  0  0  0  0
   -0.9777    0.1988   -0.0740 C   0  0  0  0  0  0  0  0  0  0  0  0
   -0.9533    1.5876   -0.1643 O   0  0  0  0  0  0  0  0  0  0  0  0
    3.1505    2.0050   -0.9839 H   0  0  0  0  0  0  0  0  0  0  0  0
   -0.6271   -1.7496   -1.5642 H   0  0  0  0  0  0  0  0  0  0  0  0
   -1.5972   -0.9274    1.7039 H   0  0  0  0  0  0  0  0  0  0  0  0
   -0.5140    0.5469    2.0601 H   0  0  0  0  0  0  0  0  0  0  0  0
   -1.8703   -0.2815   -0.5323 H   0  0  0  0  0  0  0  0  0  0  0  0
   -1.6479    1.9110   -0.7780 H   0  0  0  0  0  0  0  0  0  0  0  0
  1  2  3  0
  2  3  1  0
  3  4  1  0
  3  5  1  0
  5  6  2  0
  5  7  1  0
  7  8  1  0
  8  9  1  0
  8  3  1  0
  1 10  1  0
  4 11  1  0
  7 12  1  0
  7 13  1  0
  8 14  1  0
  9 15  1  0
M  END
