
     RDKit          3D

 17 18  0  0  0  0  0  0  0  0999 V2000
    2.5970    1.2757    1.8124 C   0  0  0  0  0  0  0  0  0  0  0  0
    1.5722    0.8227    1.3255 C   0  0  0  0  0  0  0  0  0  0  0  0
    0.3532    0.2774    0.7505 C   0  0  0  0  0  0  0  0  0  0  0  0
   -0.8406    0.1130    1.2794 C   0  0  0  0  0  0  0  0  0  0  0  0
   -1.7629   -0.5065    0.2466 C   0  0  0  0  0  0  0  0  0  0  0  0
   -0.6911   -1.3404   -0.5006 C   0  0  0  0  0  0  0  0  0  0  0  0
    0.3120   -0.1759   -0.6397 C   0  0  0  0  0  0  0  0  0  0  0  0
    0.3255    0.5854   -1.8115 C   0  0  0  0  0  0  0  0  0  0  0  0
    1.3913   -0.2909   -1.4562 O   0  0  0  0  0  0  0  0  0  0  0  0
    3.4528    1.6631    2.2056 H   0  0  0  0  0  0  0  0  0  0  0  0
   -1.0831    0.3907    2.2921 H   0  0  0  0  0  0  0  0  0  0  0  0
   -2.2047    0.2241   -0.4212 H   0  0  0  0  0  0  0  0  0  0  0  0
   -2.4336   -1.1969    0.7500 H   0  0  0  0  0  0  0  0  0  0  0  0
   -0.2686   -2.0725    0.2052 H   0  0  0  0  0  0  0  0  0  0  0  0
   -0.9953   -1.6872   -1.4630 H   0  0  0  0  0  0  0  0  0  0  0  0
   -0.3310    0.2670   -2.6690 H   0  0  0  0  0  0  0  0  0  0  0  0
    0.6072    1.6512   -1.9061 H   0  0  0  0  0  0  0  0  0  0  0  0
  1  2  3  0
  2  3  1  0
  3  4  2  0
  4  5  1  0
  5  6  1  0
  6  7  1  0
  7  8  1  0
  8  9  1  0
  7  3  1  0
  9  7  1  0
  1 10  1  0
  4 11  1  0
  5 12  1  0
  5 13  1  0
  6 14  1  0
  6 15  1  0
  8 16  1  0
  8 17  1  0
M  END
