
     RDKit          3D

 15 15  0  0  0  0  0  0  0  0999 V2000
    2.3701   -2.0985    0.0350 C   0  0  0  0  0  0  0  0  0  0  0  0
    1.2101   -1.2603   -0.4541 C   0  0  0  0  0  0  0  0  0  0  0  0
   -0.0791   -0.3379   -1.0076 C   0  0  0  0  0  0  0  0  0  0  0  0
    0.6188    0.9988   -0.3126 C   0  0  0  0  0  0  0  0  0  0  0  0
   -0.6146    0.3578    0.1015 C   0  0  0  0  0  0  0  0  0  0  0  0
   -0.7380   -0.5461    1.3468 C   0  0  0  0  0  0  0  0  0  0  0  0
   -1.9248   -0.6951    1.6617 O   0  0  0  0  0  0  0  0  0  0  0  0
   -1.7972    1.2815   -0.1295 C   0  0  0  0  0  0  0  0  0  0  0  0
   -1.6659    2.1502   -1.0317 O   0  0  0  0  0  0  0  0  0  0  0  0
    3.0912   -2.6223    0.3232 H   0  0  0  0  0  0  0  0  0  0  0  0
    0.0450   -0.2127   -2.0548 H   0  0  0  0  0  0  0  0  0  0  0  0
    1.4880    0.8808    0.2934 H   0  0  0  0  0  0  0  0  0  0  0  0
    0.5225    1.8721   -1.0474 H   0  0  0  0  0  0  0  0  0  0  0  0
    0.0882   -0.9323    1.8414 H   0  0  0  0  0  0  0  0  0  0  0  0
   -2.6143    1.1641    0.4347 H   0  0  0  0  0  0  0  0  0  0  0  0
  1  2  3  0
  2  3  1  0
  3  4  1  0
  4  5  1  0
  5  6  1  0
  6  7  2  0
  5  8  1  0
  8  9  2  0
  5  3  1  0
  1 10  1  0
  3 11  1  0
  4 12  1  0
  4 13  1  0
  6 14  1  0
  8 15  1  0
M  END
