
     RDKit          3D

 18 19  0  0  0  0  0  0  0  0999 V2000
    1.9844   -2.2955    1.0997 C   0  0  0  0  0  0  0  0  0  0  0  0
    1.3177   -1.2895    1.0792 C   0  0  0  0  0  0  0  0  0  0  0  0
    0.5135   -0.0680    1.0353 C   0  0  0  0  0  0  0  0  0  0  0  0
    0.7270    0.7467   -0.2007 C   0  0  0  0  0  0  0  0  0  0  0  0
   -0.0294    2.0481   -0.2369 C   0  0  0  0  0  0  0  0  0  0  0  0
   -1.3143    1.2356   -0.2643 C   0  0  0  0  0  0  0  0  0  0  0  0
   -0.5328   -0.0123   -0.0060 C   0  0  0  0  0  0  0  0  0  0  0  0
   -0.8256   -1.2747   -0.7525 C   0  0  0  0  0  0  0  0  0  0  0  0
    2.5727   -3.1563    1.1074 H   0  0  0  0  0  0  0  0  0  0  0  0
    0.2870    0.4669    1.9732 H   0  0  0  0  0  0  0  0  0  0  0  0
    1.4653    0.4926   -0.9535 H   0  0  0  0  0  0  0  0  0  0  0  0
    0.1939    2.6238   -1.1336 H   0  0  0  0  0  0  0  0  0  0  0  0
    0.0496    2.6498    0.7101 H   0  0  0  0  0  0  0  0  0  0  0  0
   -2.0211    1.4478    0.5390 H   0  0  0  0  0  0  0  0  0  0  0  0
   -1.7398    1.3078   -1.3036 H   0  0  0  0  0  0  0  0  0  0  0  0
   -1.4645   -1.1424   -1.6372 H   0  0  0  0  0  0  0  0  0  0  0  0
   -1.3078   -1.9801   -0.0128 H   0  0  0  0  0  0  0  0  0  0  0  0
    0.1242   -1.8003   -1.0426 H   0  0  0  0  0  0  0  0  0  0  0  0
  1  2  3  0
  2  3  1  0
  3  4  1  0
  4  5  1  0
  5  6  1  0
  6  7  1  0
  7  8  1  0
  7  3  1  0
  7  4  1  0
  1  9  1  0
  3 10  1  0
  4 11  1  0
  5 12  1  0
  5 13  1  0
  6 14  1  0
  6 15  1  0
  8 16  1  0
  8 17  1  0
  8 18  1  0
M  END
