
     RDKit          3D

 19 21  0  0  0  0  0  0  0  0999 V2000
    3.1104   -0.0066   -0.3902 C   0  0  0  0  0  0  0  0  0  0  0  0
    1.9240   -0.1013   -0.2280 C   0  0  0  0  0  0  0  0  0  0  0  0
    0.5285   -0.2157   -0.0307 C   0  0  0  0  0  0  0  0  0  0  0  0
   -0.0409   -1.5068    0.4578 C   0  0  0  0  0  0  0  0  0  0  0  0
   -1.5339   -1.1254    0.4793 C   0  0  0  0  0  0  0  0  0  0  0  0
   -1.4173    0.3185    0.0685 C   0  0  0  0  0  0  0  0  0  0  0  0
   -0.4026    0.3734   -1.0363 C   0  0  0  0  0  0  0  0  0  0  0  0
   -0.0067    1.7145   -0.4717 C   0  0  0  0  0  0  0  0  0  0  0  0
   -0.1866    0.8513    0.7415 C   0  0  0  0  0  0  0  0  0  0  0  0
    4.1639    0.0695   -0.5179 H   0  0  0  0  0  0  0  0  0  0  0  0
    0.1303   -2.3619   -0.2236 H   0  0  0  0  0  0  0  0  0  0  0  0
    0.2673   -1.6789    1.4888 H   0  0  0  0  0  0  0  0  0  0  0  0
   -2.0462   -1.7603   -0.2494 H   0  0  0  0  0  0  0  0  0  0  0  0
   -1.9492   -1.2072    1.5007 H   0  0  0  0  0  0  0  0  0  0  0  0
   -2.2956    0.9234    0.0123 H   0  0  0  0  0  0  0  0  0  0  0  0
   -0.5261    0.1335   -1.9967 H   0  0  0  0  0  0  0  0  0  0  0  0
    1.0611    1.9417   -0.6885 H   0  0  0  0  0  0  0  0  0  0  0  0
   -0.7105    2.5361   -0.6174 H   0  0  0  0  0  0  0  0  0  0  0  0
   -0.0699    1.1022    1.7013 H   0  0  0  0  0  0  0  0  0  0  0  0
  1  2  3  0
  2  3  1  0
  3  4  1  0
  4  5  1  0
  5  6  1  0
  6  7  1  0
  7  8  1  0
  8  9  1  0
  7  3  1  0
  9  3  1  0
  9  6  1  0
  1 10  1  0
  4 11  1  0
  4 12  1  0
  5 13  1  0
  5 14  1  0
  6 15  1  0
  7 16  1  0
  8 17  1  0
  8 18  1  0
  9 19  1  0
M  END
