
     RDKit          3D

 23 22  0  0  0  0  0  0  0  0999 V2000
    1.7721    1.3238   -1.9105 C   0  0  0  0  0  0  0  0  0  0  0  0
    1.5134    0.6532   -1.0144 C   0  0  0  0  0  0  0  0  0  0  0  0
    1.1522   -0.2218    0.1895 C   0  0  0  0  0  0  0  0  0  0  0  0
    0.1366   -1.1872   -0.3239 C   0  0  0  0  0  0  0  0  0  0  0  0
   -1.0978   -0.5300   -0.8652 C   0  0  0  0  0  0  0  0  0  0  0  0
   -1.8090    0.2460    0.2239 C   0  0  0  0  0  0  0  0  0  0  0  0
   -3.0313    0.9162   -0.3769 C   0  0  0  0  0  0  0  0  0  0  0  0
    2.3160   -0.8604    0.5926 O   0  0  0  0  0  0  0  0  0  0  0  0
    2.7713   -0.4577    1.8351 C   0  0  0  0  0  0  0  0  0  0  0  0
    2.0084    1.9668   -2.7598 H   0  0  0  0  0  0  0  0  0  0  0  0
    0.8253    0.4773    0.9524 H   0  0  0  0  0  0  0  0  0  0  0  0
    0.6211   -1.8539   -1.0976 H   0  0  0  0  0  0  0  0  0  0  0  0
   -0.1492   -1.8592    0.5056 H   0  0  0  0  0  0  0  0  0  0  0  0
   -1.7749   -1.3504   -1.1796 H   0  0  0  0  0  0  0  0  0  0  0  0
   -0.8840    0.1372   -1.7293 H   0  0  0  0  0  0  0  0  0  0  0  0
   -1.1662    0.9757    0.7484 H   0  0  0  0  0  0  0  0  0  0  0  0
   -2.1810   -0.4696    0.9970 H   0  0  0  0  0  0  0  0  0  0  0  0
   -3.8599    0.8737    0.3458 H   0  0  0  0  0  0  0  0  0  0  0  0
   -3.2699    0.3907   -1.3254 H   0  0  0  0  0  0  0  0  0  0  0  0
   -2.7317    1.9540   -0.6508 H   0  0  0  0  0  0  0  0  0  0  0  0
    2.9635    0.6506    1.8996 H   0  0  0  0  0  0  0  0  0  0  0  0
    3.7845   -0.9725    1.9391 H   0  0  0  0  0  0  0  0  0  0  0  0
    2.0905   -0.8026    2.6215 H   0  0  0  0  0  0  0  0  0  0  0  0
  1  2  3  0
  2  3  1  0
  3  4  1  0
  4  5  1  0
  5  6  1  0
  6  7  1  0
  3  8  1  0
  8  9  1  0
  1 10  1  0
  3 11  1  0
  4 12  1  0
  4 13  1  0
  5 14  1  0
  5 15  1  0
  6 16  1  0
  6 17  1  0
  7 18  1  0
  7 19  1  0
  7 20  1  0
  9 21  1  0
  9 22  1  0
  9 23  1  0
M  END
