
     RDKit          3D

 20 20  0  0  0  0  0  0  0  0999 V2000
    1.2175   -1.8008    2.2085 C   0  0  0  0  0  0  0  0  0  0  0  0
    0.4768   -0.9423    1.8426 C   0  0  0  0  0  0  0  0  0  0  0  0
   -0.4306    0.1139    1.3693 C   0  0  0  0  0  0  0  0  0  0  0  0
    0.2823    1.4243    1.0998 C   0  0  0  0  0  0  0  0  0  0  0  0
   -0.5608    1.5282   -0.1703 C   0  0  0  0  0  0  0  0  0  0  0  0
   -0.7131    0.0083   -0.0910 C   0  0  0  0  0  0  0  0  0  0  0  0
    0.3057   -0.7165   -0.9209 C   0  0  0  0  0  0  0  0  0  0  0  0
   -0.1699   -0.7106   -2.3656 C   0  0  0  0  0  0  0  0  0  0  0  0
    1.8778   -2.5867    2.5411 H   0  0  0  0  0  0  0  0  0  0  0  0
   -1.3203    0.2786    1.9688 H   0  0  0  0  0  0  0  0  0  0  0  0
    0.1028    2.2035    1.8393 H   0  0  0  0  0  0  0  0  0  0  0  0
    1.3504    1.3177    0.8356 H   0  0  0  0  0  0  0  0  0  0  0  0
   -0.0391    1.8872   -1.0544 H   0  0  0  0  0  0  0  0  0  0  0  0
   -1.5052    2.0749    0.1010 H   0  0  0  0  0  0  0  0  0  0  0  0
   -1.7641   -0.2412   -0.3776 H   0  0  0  0  0  0  0  0  0  0  0  0
    0.4921   -1.7446   -0.5710 H   0  0  0  0  0  0  0  0  0  0  0  0
    1.2404   -0.0899   -0.9156 H   0  0  0  0  0  0  0  0  0  0  0  0
   -1.0271   -1.3879   -2.5054 H   0  0  0  0  0  0  0  0  0  0  0  0
   -0.4853    0.3276   -2.6220 H   0  0  0  0  0  0  0  0  0  0  0  0
    0.6697   -0.9437   -3.0567 H   0  0  0  0  0  0  0  0  0  0  0  0
  1  2  3  0
  2  3  1  0
  3  4  1  0
  4  5  1  0
  5  6  1  0
  6  7  1  0
  7  8  1  0
  6  3  1  0
  1  9  1  0
  3 10  1  0
  4 11  1  0
  4 12  1  0
  5 13  1  0
  5 14  1  0
  6 15  1  0
  7 16  1  0
  7 17  1  0
  8 18  1  0
  8 19  1  0
  8 20  1  0
M  END
