
     RDKit          3D

 11 11  0  0  0  0  0  0  0  0999 V2000
    2.5147    1.2309    0.6542 C   0  0  0  0  0  0  0  0  0  0  0  0
    1.3617    0.9771    0.4133 C   0  0  0  0  0  0  0  0  0  0  0  0
   -0.0247    0.6561    0.1140 C   0  0  0  0  0  0  0  0  0  0  0  0
   -0.3252    0.0560   -1.1150 O   0  0  0  0  0  0  0  0  0  0  0  0
   -0.4180   -0.7413    0.0278 C   0  0  0  0  0  0  0  0  0  0  0  0
   -1.7439   -1.1145    0.5469 C   0  0  0  0  0  0  0  0  0  0  0  0
   -2.6324   -0.2980    0.5247 O   0  0  0  0  0  0  0  0  0  0  0  0
    3.5370    1.4745    0.8645 H   0  0  0  0  0  0  0  0  0  0  0  0
   -0.7610    1.3841    0.4677 H   0  0  0  0  0  0  0  0  0  0  0  0
    0.3910   -1.5246    0.0618 H   0  0  0  0  0  0  0  0  0  0  0  0
   -1.8992   -2.1003    0.9344 H   0  0  0  0  0  0  0  0  0  0  0  0
  1  2  3  0
  2  3  1  0
  3  4  1  0
  4  5  1  0
  5  6  1  0
  6  7  2  0
  5  3  1  0
  1  8  1  0
  3  9  1  0
  5 10  1  0
  6 11  1  0
M  END
