
     RDKit          3D

 17 17  0  0  0  0  0  0  0  0999 V2000
   -2.1801    1.2198    0.5667 C   0  0  0  0  0  0  0  0  0  0  0  0
   -1.5451    0.1695    0.5335 C   0  0  0  0  0  0  0  0  0  0  0  0
   -0.8041   -1.0908    0.4923 C   0  0  0  0  0  0  0  0  0  0  0  0
   -1.6290   -2.3690    0.4987 C   0  0  0  0  0  0  0  0  0  0  0  0
    0.2747   -1.1760    1.4182 O   0  0  0  0  0  0  0  0  0  0  0  0
    0.5090   -1.1006   -0.0688 C   0  0  0  0  0  0  0  0  0  0  0  0
    1.1551    0.1507   -0.4392 C   0  0  0  0  0  0  0  0  0  0  0  0
    1.6858    1.2209   -0.7438 C   0  0  0  0  0  0  0  0  0  0  0  0
    2.3013    2.5017   -1.0872 C   0  0  0  0  0  0  0  0  0  0  0  0
   -2.7247    2.1161    0.6133 H   0  0  0  0  0  0  0  0  0  0  0  0
   -2.2908   -2.3648    1.3923 H   0  0  0  0  0  0  0  0  0  0  0  0
   -2.2285   -2.4702   -0.4348 H   0  0  0  0  0  0  0  0  0  0  0  0
   -0.9697   -3.2567    0.5420 H   0  0  0  0  0  0  0  0  0  0  0  0
    0.9635   -2.0556   -0.4162 H   0  0  0  0  0  0  0  0  0  0  0  0
    2.0556    3.2883   -0.3264 H   0  0  0  0  0  0  0  0  0  0  0  0
    3.4170    2.4271   -1.0842 H   0  0  0  0  0  0  0  0  0  0  0  0
    2.0101    2.7897   -2.1085 H   0  0  0  0  0  0  0  0  0  0  0  0
  1  2  3  0
  2  3  1  0
  3  4  1  0
  3  5  1  0
  5  6  1  0
  6  7  1  0
  7  8  3  0
  8  9  1  0
  6  3  1  0
  1 10  1  0
  4 11  1  0
  4 12  1  0
  4 13  1  0
  6 14  1  0
  9 15  1  0
  9 16  1  0
  9 17  1  0
M  END
