
     RDKit          3D

 16 17  0  0  0  0  0  0  0  0999 V2000
    1.7797   -0.9869    1.7743 C   0  0  0  0  0  0  0  0  0  0  0  0
    0.9916   -1.0461    0.8406 C   0  0  0  0  0  0  0  0  0  0  0  0
    0.0377   -1.1269   -0.2537 C   0  0  0  0  0  0  0  0  0  0  0  0
    0.5605   -0.3776   -1.4844 C   0  0  0  0  0  0  0  0  0  0  0  0
    0.3942    0.9129   -1.2482 C   0  0  0  0  0  0  0  0  0  0  0  0
   -0.1940    1.0382    0.0534 C   0  0  0  0  0  0  0  0  0  0  0  0
   -1.4447    0.9244    0.6755 C   0  0  0  0  0  0  0  0  0  0  0  0
   -1.1268   -0.2141   -0.0584 C   0  0  0  0  0  0  0  0  0  0  0  0
    2.4596   -0.9180    2.5890 H   0  0  0  0  0  0  0  0  0  0  0  0
   -0.2537   -2.1393   -0.5208 H   0  0  0  0  0  0  0  0  0  0  0  0
    0.9703   -0.8969   -2.3362 H   0  0  0  0  0  0  0  0  0  0  0  0
    0.6633    1.6927   -1.9317 H   0  0  0  0  0  0  0  0  0  0  0  0
    0.6705    0.9486    0.8026 H   0  0  0  0  0  0  0  0  0  0  0  0
   -1.5290    0.8406    1.7899 H   0  0  0  0  0  0  0  0  0  0  0  0
   -2.2442    1.6457    0.3300 H   0  0  0  0  0  0  0  0  0  0  0  0
   -1.7351   -0.2973   -1.0218 H   0  0  0  0  0  0  0  0  0  0  0  0
  1  2  3  0
  2  3  1  0
  3  4  1  0
  4  5  2  0
  5  6  1  0
  6  7  1  0
  7  8  1  0
  8  3  1  0
  8  6  1  0
  1  9  1  0
  3 10  1  0
  4 11  1  0
  5 12  1  0
  6 13  1  0
  7 14  1  0
  7 15  1  0
  8 16  1  0
M  END
