
     RDKit          3D

 19 20  0  0  0  0  0  0  0  0999 V2000
    2.7112    1.6357   -0.1383 C   0  0  0  0  0  0  0  0  0  0  0  0
    1.7731    0.8844   -0.1513 C   0  0  0  0  0  0  0  0  0  0  0  0
    0.6814    0.0334   -0.1505 C   0  0  0  0  0  0  0  0  0  0  0  0
    0.5911   -1.1016    0.7918 C   0  0  0  0  0  0  0  0  0  0  0  0
   -0.5689   -1.6919    0.4267 C   0  0  0  0  0  0  0  0  0  0  0  0
   -1.0397   -0.8262   -0.6725 C   0  0  0  0  0  0  0  0  0  0  0  0
    0.2716   -0.6529   -1.4620 C   0  0  0  0  0  0  0  0  0  0  0  0
   -0.7293    0.5831   -0.1734 C   0  0  0  0  0  0  0  0  0  0  0  0
   -1.3004    0.9154    1.1794 C   0  0  0  0  0  0  0  0  0  0  0  0
    3.5591    2.3044   -0.1108 H   0  0  0  0  0  0  0  0  0  0  0  0
    1.2951   -1.3537    1.5577 H   0  0  0  0  0  0  0  0  0  0  0  0
   -1.0496   -2.5745    0.8242 H   0  0  0  0  0  0  0  0  0  0  0  0
   -1.9232   -1.0125   -1.1991 H   0  0  0  0  0  0  0  0  0  0  0  0
    0.7328   -1.6272   -1.6240 H   0  0  0  0  0  0  0  0  0  0  0  0
    0.1842    0.0290   -2.3116 H   0  0  0  0  0  0  0  0  0  0  0  0
   -0.9042    1.3439   -0.9452 H   0  0  0  0  0  0  0  0  0  0  0  0
   -2.2352    1.5040    1.1113 H   0  0  0  0  0  0  0  0  0  0  0  0
   -1.4840    0.0056    1.7806 H   0  0  0  0  0  0  0  0  0  0  0  0
   -0.5651    1.6014    1.6947 H   0  0  0  0  0  0  0  0  0  0  0  0
  1  2  3  0
  2  3  1  0
  3  4  1  0
  4  5  2  0
  5  6  1  0
  6  7  1  0
  6  8  1  0
  8  9  1  0
  7  3  1  0
  8  3  1  0
  1 10  1  0
  4 11  1  0
  5 12  1  0
  6 13  1  0
  7 14  1  0
  7 15  1  0
  8 16  1  0
  9 17  1  0
  9 18  1  0
  9 19  1  0
M  END
