
     RDKit          3D

 19 20  0  0  0  0  0  0  0  0999 V2000
    3.3188   -0.9671   -1.2622 C   0  0  0  0  0  0  0  0  0  0  0  0
    2.2498   -0.3987   -1.2289 C   0  0  0  0  0  0  0  0  0  0  0  0
    0.9301    0.2773   -1.1788 C   0  0  0  0  0  0  0  0  0  0  0  0
    0.6735    0.6985    0.2323 C   0  0  0  0  0  0  0  0  0  0  0  0
   -0.7113    0.2192    0.5340 C   0  0  0  0  0  0  0  0  0  0  0  0
   -1.0395   -0.5013    1.8051 C   0  0  0  0  0  0  0  0  0  0  0  0
   -1.8302    0.7915   -0.2758 C   0  0  0  0  0  0  0  0  0  0  0  0
   -1.1736   -0.4277   -0.7459 C   0  0  0  0  0  0  0  0  0  0  0  0
   -0.0775   -0.5357   -1.5458 O   0  0  0  0  0  0  0  0  0  0  0  0
    4.2653   -1.4881   -1.2912 H   0  0  0  0  0  0  0  0  0  0  0  0
    0.9599    1.1867   -1.8361 H   0  0  0  0  0  0  0  0  0  0  0  0
    0.6736    1.8264    0.2800 H   0  0  0  0  0  0  0  0  0  0  0  0
    1.4243    0.2889    0.9351 H   0  0  0  0  0  0  0  0  0  0  0  0
   -2.0906   -0.3032    2.0688 H   0  0  0  0  0  0  0  0  0  0  0  0
   -0.4024   -0.1958    2.6573 H   0  0  0  0  0  0  0  0  0  0  0  0
   -0.9716   -1.6083    1.6153 H   0  0  0  0  0  0  0  0  0  0  0  0
   -2.8267    0.7001    0.1749 H   0  0  0  0  0  0  0  0  0  0  0  0
   -1.6065    1.8203   -0.6381 H   0  0  0  0  0  0  0  0  0  0  0  0
   -1.7653   -1.3831   -0.6942 H   0  0  0  0  0  0  0  0  0  0  0  0
  1  2  3  0
  2  3  1  0
  3  4  1  0
  4  5  1  0
  5  6  1  0
  5  7  1  0
  7  8  1  0
  8  9  1  0
  9  3  1  0
  8  5  1  0
  1 10  1  0
  3 11  1  0
  4 12  1  0
  4 13  1  0
  6 14  1  0
  6 15  1  0
  6 16  1  0
  7 17  1  0
  7 18  1  0
  8 19  1  0
M  END
