
     RDKit          3D

 11 11  0  0  0  0  0  0  0  0999 V2000
    2.0270    0.9690   -1.0078 C   0  0  0  0  0  0  0  0  0  0  0  0
    0.9608   -0.3322   -0.6419 C   0  0  0  0  0  0  0  0  0  0  0  0
    0.2126   -1.2554   -0.3820 C   0  0  0  0  0  0  0  0  0  0  0  0
   -0.9396   -1.9867   -0.1662 O   0  0  0  0  0  0  0  0  0  0  0  0
   -0.9159   -0.7890    0.6825 C   0  0  0  0  0  0  0  0  0  0  0  0
   -1.1657    0.2214    0.4944 C   0  0  0  0  0  0  0  0  0  0  0  0
   -1.5138    1.6615    0.2013 C   0  0  0  0  0  0  0  0  0  0  0  0
    2.3861    1.4050   -1.1408 H   0  0  0  0  0  0  0  0  0  0  0  0
    1.0297   -1.9426    0.3805 H   0  0  0  0  0  0  0  0  0  0  0  0
   -0.2562   -0.8996    1.7441 H   0  0  0  0  0  0  0  0  0  0  0  0
   -1.8249    2.9486   -0.0387 H   0  0  0  0  0  0  0  0  0  0  0  0
  1  2  3  0
  2  3  1  0
  3  4  1  0
  4  5  1  0
  5  6  1  0
  6  7  3  0
  5  3  1  0
  1  8  1  0
  3  9  1  0
  5 10  1  0
  7 11  1  0
M  END
