
     RDKit          3D

 21 22  0  0  0  0  0  0  0  0999 V2000
    4.2838    0.6752    0.2637 C   0  0  0  0  0  0  0  0  0  0  0  0
    3.1320    0.2670    0.2612 C   0  0  0  0  0  0  0  0  0  0  0  0
    1.7464   -0.2120    0.2804 C   0  0  0  0  0  0  0  0  0  0  0  0
    1.0813   -0.3514   -1.0245 C   0  0  0  0  0  0  0  0  0  0  0  0
   -0.3629   -0.8491   -0.9590 C   0  0  0  0  0  0  0  0  0  0  0  0
   -0.7136    0.4443   -0.2757 C   0  0  0  0  0  0  0  0  0  0  0  0
   -1.5798    0.2648    0.9676 C   0  0  0  0  0  0  0  0  0  0  0  0
   -2.8707   -0.4153    0.5294 C   0  0  0  0  0  0  0  0  0  0  0  0
    0.7138    0.7818   -0.0205 C   0  0  0  0  0  0  0  0  0  0  0  0
    5.2801    1.0347    0.2782 H   0  0  0  0  0  0  0  0  0  0  0  0
    1.5780   -1.0457    0.9979 H   0  0  0  0  0  0  0  0  0  0  0  0
    1.4818    0.0082   -1.9668 H   0  0  0  0  0  0  0  0  0  0  0  0
   -0.3986   -1.6813   -0.2173 H   0  0  0  0  0  0  0  0  0  0  0  0
   -0.8311   -1.0455   -1.9233 H   0  0  0  0  0  0  0  0  0  0  0  0
   -1.1935    1.1357   -1.0199 H   0  0  0  0  0  0  0  0  0  0  0  0
   -1.0615   -0.3800    1.6777 H   0  0  0  0  0  0  0  0  0  0  0  0
   -1.8284    1.2158    1.4312 H   0  0  0  0  0  0  0  0  0  0  0  0
   -3.4292    0.3512   -0.0595 H   0  0  0  0  0  0  0  0  0  0  0  0
   -2.5960   -1.2104   -0.1977 H   0  0  0  0  0  0  0  0  0  0  0  0
   -3.4501   -0.7923    1.3792 H   0  0  0  0  0  0  0  0  0  0  0  0
    1.0180    1.8044   -0.3109 H   0  0  0  0  0  0  0  0  0  0  0  0
  1  2  3  0
  2  3  1  0
  3  4  1  0
  4  5  1  0
  5  6  1  0
  6  7  1  0
  7  8  1  0
  6  9  1  0
  9  3  1  0
  9  4  1  0
  1 10  1  0
  3 11  1  0
  4 12  1  0
  5 13  1  0
  5 14  1  0
  6 15  1  0
  7 16  1  0
  7 17  1  0
  8 18  1  0
  8 19  1  0
  8 20  1  0
  9 21  1  0
M  END
