
     RDKit          3D

 19 19  0  0  0  0  0  0  0  0999 V2000
    2.9846   -0.4628   -1.3539 C   0  0  0  0  0  0  0  0  0  0  0  0
    1.9439   -0.3569   -0.7727 C   0  0  0  0  0  0  0  0  0  0  0  0
    0.6648   -0.2256   -0.0300 C   0  0  0  0  0  0  0  0  0  0  0  0
    0.8533    0.8130    1.0392 C   0  0  0  0  0  0  0  0  0  0  0  0
   -0.4747    0.1261   -0.9660 C   0  0  0  0  0  0  0  0  0  0  0  0
   -1.6665   -0.5053   -0.2402 C   0  0  0  0  0  0  0  0  0  0  0  0
   -2.3799    0.5376    0.3594 O   0  0  0  0  0  0  0  0  0  0  0  0
   -0.9992   -1.3802    0.7965 C   0  0  0  0  0  0  0  0  0  0  0  0
    0.3464   -1.4736    0.4622 O   0  0  0  0  0  0  0  0  0  0  0  0
    3.9373   -0.5755   -1.8749 H   0  0  0  0  0  0  0  0  0  0  0  0
   -0.0856    1.0700    1.5640 H   0  0  0  0  0  0  0  0  0  0  0  0
    1.2489    1.7246    0.5453 H   0  0  0  0  0  0  0  0  0  0  0  0
    1.5669    0.4269    1.7911 H   0  0  0  0  0  0  0  0  0  0  0  0
   -0.5948    1.2055   -1.0918 H   0  0  0  0  0  0  0  0  0  0  0  0
   -0.3431   -0.4140   -1.9426 H   0  0  0  0  0  0  0  0  0  0  0  0
   -2.2961   -1.1081   -0.9252 H   0  0  0  0  0  0  0  0  0  0  0  0
   -2.0420    1.4155    0.0597 H   0  0  0  0  0  0  0  0  0  0  0  0
   -1.5262   -2.3564    0.7836 H   0  0  0  0  0  0  0  0  0  0  0  0
   -1.1381   -0.8866    1.7963 H   0  0  0  0  0  0  0  0  0  0  0  0
  1  2  3  0
  2  3  1  0
  3  4  1  0
  3  5  1  0
  5  6  1  0
  6  7  1  0
  6  8  1  0
  8  9  1  0
  9  3  1  0
  1 10  1  0
  4 11  1  0
  4 12  1  0
  4 13  1  0
  5 14  1  0
  5 15  1  0
  6 16  1  0
  7 17  1  0
  8 18  1  0
  8 19  1  0
M  END
