
     RDKit          3D

 15 17  0  0  0  0  0  0  0  0999 V2000
    2.5446    1.0756   -0.1241 C   0  0  0  0  0  0  0  0  0  0  0  0
    1.5357    0.4941   -0.4881 C   0  0  0  0  0  0  0  0  0  0  0  0
    0.3458   -0.1800   -0.9397 C   0  0  0  0  0  0  0  0  0  0  0  0
    0.3972   -1.2098   -1.8459 O   0  0  0  0  0  0  0  0  0  0  0  0
    0.3179   -1.6696   -0.5589 C   0  0  0  0  0  0  0  0  0  0  0  0
   -0.8575   -1.3210    0.3226 C   0  0  0  0  0  0  0  0  0  0  0  0
   -1.9747   -0.8732   -0.3498 O   0  0  0  0  0  0  0  0  0  0  0  0
   -0.9156   -0.0306   -0.1110 C   0  0  0  0  0  0  0  0  0  0  0  0
   -1.2310    1.2483    0.5702 C   0  0  0  0  0  0  0  0  0  0  0  0
    3.4309    1.5688    0.1990 H   0  0  0  0  0  0  0  0  0  0  0  0
    1.2114   -2.1182   -0.1152 H   0  0  0  0  0  0  0  0  0  0  0  0
   -0.9117   -1.8238    1.2839 H   0  0  0  0  0  0  0  0  0  0  0  0
   -2.1071    1.7414    0.0588 H   0  0  0  0  0  0  0  0  0  0  0  0
   -1.4269    1.1508    1.6679 H   0  0  0  0  0  0  0  0  0  0  0  0
   -0.3589    1.9473    0.4302 H   0  0  0  0  0  0  0  0  0  0  0  0
  1  2  3  0
  2  3  1  0
  3  4  1  0
  4  5  1  0
  5  6  1  0
  6  7  1  0
  7  8  1  0
  8  9  1  0
  5  3  1  0
  8  6  1  0
  8  3  1  0
  1 10  1  0
  5 11  1  0
  6 12  1  0
  9 13  1  0
  9 14  1  0
  9 15  1  0
M  END
