
     RDKit          3D

 17 17  0  0  0  0  0  0  0  0999 V2000
   -2.6660    0.7299    1.9877 C   0  0  0  0  0  0  0  0  0  0  0  0
   -1.9488   -0.1503    1.2325 C   0  0  0  0  0  0  0  0  0  0  0  0
   -1.1960   -1.0461    0.4486 C   0  0  0  0  0  0  0  0  0  0  0  0
    0.2379   -0.6989    0.2382 C   0  0  0  0  0  0  0  0  0  0  0  0
    1.0082   -0.4956    1.3749 O   0  0  0  0  0  0  0  0  0  0  0  0
    0.8976   -1.1878   -1.0233 C   0  0  0  0  0  0  0  0  0  0  0  0
    0.4078    0.2443   -0.9662 C   0  0  0  0  0  0  0  0  0  0  0  0
    1.2385    1.3208   -0.9455 C   0  0  0  0  0  0  0  0  0  0  0  0
    2.0530    2.3421   -0.9345 C   0  0  0  0  0  0  0  0  0  0  0  0
   -3.2577    1.4528    2.5996 H   0  0  0  0  0  0  0  0  0  0  0  0
   -1.6762   -0.9746   -0.6460 H   0  0  0  0  0  0  0  0  0  0  0  0
   -1.3219   -2.0756    0.7711 H   0  0  0  0  0  0  0  0  0  0  0  0
    1.6609    0.2865    1.0904 H   0  0  0  0  0  0  0  0  0  0  0  0
    1.9744   -1.3144   -1.0089 H   0  0  0  0  0  0  0  0  0  0  0  0
    0.3366   -1.9601   -1.5862 H   0  0  0  0  0  0  0  0  0  0  0  0
   -0.5092    0.3158   -1.6936 H   0  0  0  0  0  0  0  0  0  0  0  0
    2.7610    3.2112   -0.9388 H   0  0  0  0  0  0  0  0  0  0  0  0
  1  2  3  0
  2  3  1  0
  3  4  1  0
  4  5  1  0
  4  6  1  0
  6  7  1  0
  7  8  1  0
  8  9  3  0
  7  4  1  0
  1 10  1  0
  3 11  1  0
  3 12  1  0
  5 13  1  0
  6 14  1  0
  6 15  1  0
  7 16  1  0
  9 17  1  0
M  END
