
     RDKit          3D

 19 20  0  0  0  0  0  0  0  0999 V2000
    1.0937   -2.5126   -1.0208 C   0  0  0  0  0  0  0  0  0  0  0  0
    1.1586   -1.3079   -0.9122 C   0  0  0  0  0  0  0  0  0  0  0  0
    1.2273    0.1466   -0.7994 C   0  0  0  0  0  0  0  0  0  0  0  0
    0.1208    0.8905   -1.4964 C   0  0  0  0  0  0  0  0  0  0  0  0
   -0.4887    1.3363   -0.1969 C   0  0  0  0  0  0  0  0  0  0  0  0
    0.7110    0.6349    0.5023 C   0  0  0  0  0  0  0  0  0  0  0  0
   -0.6722    0.4586    0.9539 C   0  0  0  0  0  0  0  0  0  0  0  0
   -1.3778   -0.8685    0.8832 C   0  0  0  0  0  0  0  0  0  0  0  0
   -0.9836    1.1396    2.1588 O   0  0  0  0  0  0  0  0  0  0  0  0
    1.0482   -3.5611   -1.1007 H   0  0  0  0  0  0  0  0  0  0  0  0
    2.2401    0.4930   -1.0445 H   0  0  0  0  0  0  0  0  0  0  0  0
    0.5495    1.7234   -2.1023 H   0  0  0  0  0  0  0  0  0  0  0  0
   -0.5348    0.2010   -2.0548 H   0  0  0  0  0  0  0  0  0  0  0  0
   -0.5584    2.4379   -0.0810 H   0  0  0  0  0  0  0  0  0  0  0  0
    1.3761    1.3543    1.0387 H   0  0  0  0  0  0  0  0  0  0  0  0
   -2.4301   -0.6810    1.2225 H   0  0  0  0  0  0  0  0  0  0  0  0
   -0.9003   -1.5201    1.6582 H   0  0  0  0  0  0  0  0  0  0  0  0
   -1.3878   -1.3203   -0.1095 H   0  0  0  0  0  0  0  0  0  0  0  0
   -0.1915    0.9555    2.7455 H   0  0  0  0  0  0  0  0  0  0  0  0
  1  2  3  0
  2  3  1  0
  3  4  1  0
  4  5  1  0
  5  6  1  0
  6  7  1  0
  7  8  1  0
  7  9  1  0
  6  3  1  0
  7  5  1  0
  1 10  1  0
  3 11  1  0
  4 12  1  0
  4 13  1  0
  5 14  1  0
  6 15  1  0
  8 16  1  0
  8 17  1  0
  8 18  1  0
  9 19  1  0
M  END
