
     RDKit          3D

 17 17  0  0  0  0  0  0  0  0999 V2000
    2.4753    2.0266    0.2416 C   0  0  0  0  0  0  0  0  0  0  0  0
    1.5900    1.3410    0.6872 C   0  0  0  0  0  0  0  0  0  0  0  0
    0.4884    0.5169    1.2223 C   0  0  0  0  0  0  0  0  0  0  0  0
    0.7620   -0.9591    0.9842 C   0  0  0  0  0  0  0  0  0  0  0  0
    0.4328   -1.2026   -0.3259 O   0  0  0  0  0  0  0  0  0  0  0  0
   -0.5365   -0.3072   -0.7168 C   0  0  0  0  0  0  0  0  0  0  0  0
   -1.8454   -0.9892   -1.0485 C   0  0  0  0  0  0  0  0  0  0  0  0
   -0.6688    0.7145    0.3347 C   0  0  0  0  0  0  0  0  0  0  0  0
   -1.5353    1.5314    0.4419 O   0  0  0  0  0  0  0  0  0  0  0  0
    3.2528    2.6432   -0.1691 H   0  0  0  0  0  0  0  0  0  0  0  0
    0.2981    0.7447    2.2778 H   0  0  0  0  0  0  0  0  0  0  0  0
    0.0592   -1.5237    1.6253 H   0  0  0  0  0  0  0  0  0  0  0  0
    1.7739   -1.2488    1.2695 H   0  0  0  0  0  0  0  0  0  0  0  0
   -0.1536    0.1837   -1.6597 H   0  0  0  0  0  0  0  0  0  0  0  0
   -2.2097   -1.4988   -0.1287 H   0  0  0  0  0  0  0  0  0  0  0  0
   -1.6342   -1.7609   -1.7987 H   0  0  0  0  0  0  0  0  0  0  0  0
   -2.5491   -0.2117   -1.3982 H   0  0  0  0  0  0  0  0  0  0  0  0
  1  2  3  0
  2  3  1  0
  3  4  1  0
  4  5  1  0
  5  6  1  0
  6  7  1  0
  6  8  1  0
  8  9  2  0
  8  3  1  0
  1 10  1  0
  3 11  1  0
  4 12  1  0
  4 13  1  0
  6 14  1  0
  7 15  1  0
  7 16  1  0
  7 17  1  0
M  END
