
     RDKit          3D

 19 18  0  0  0  0  0  0  0  0999 V2000
   -2.6063    2.6508    0.4469 C   0  0  0  0  0  0  0  0  0  0  0  0
   -2.0578    1.7883    0.9937 C   0  0  0  0  0  0  0  0  0  0  0  0
   -1.3454    0.6798    1.6931 C   0  0  0  0  0  0  0  0  0  0  0  0
   -2.3587   -0.4137    2.1176 C   0  0  0  0  0  0  0  0  0  0  0  0
   -0.3445    0.1204    0.8927 C   0  0  0  0  0  0  0  0  0  0  0  0
    0.6061   -0.4125    0.1193 C   0  0  0  0  0  0  0  0  0  0  0  0
    1.5771   -0.9613   -0.6837 C   0  0  0  0  0  0  0  0  0  0  0  0
    2.0476    0.0438   -1.6067 O   0  0  0  0  0  0  0  0  0  0  0  0
    2.9707   -0.5734   -2.4430 C   0  0  0  0  0  0  0  0  0  0  0  0
   -3.1574    3.4812   -0.0902 H   0  0  0  0  0  0  0  0  0  0  0  0
   -1.0157    1.1149    2.6624 H   0  0  0  0  0  0  0  0  0  0  0  0
   -3.1145   -0.0468    2.8052 H   0  0  0  0  0  0  0  0  0  0  0  0
   -2.8121   -0.7682    1.1369 H   0  0  0  0  0  0  0  0  0  0  0  0
   -1.7923   -1.3132    2.5093 H   0  0  0  0  0  0  0  0  0  0  0  0
    1.3020   -1.8688   -1.2387 H   0  0  0  0  0  0  0  0  0  0  0  0
    2.5189   -1.2853   -0.1230 H   0  0  0  0  0  0  0  0  0  0  0  0
    2.4705   -1.4545   -2.9452 H   0  0  0  0  0  0  0  0  0  0  0  0
    3.2297    0.1636   -3.2670 H   0  0  0  0  0  0  0  0  0  0  0  0
    3.8823   -0.9450   -1.9545 H   0  0  0  0  0  0  0  0  0  0  0  0
  1  2  3  0
  2  3  1  0
  3  4  1  0
  3  5  1  0
  5  6  3  0
  6  7  1  0
  7  8  1  0
  8  9  1  0
  1 10  1  0
  3 11  1  0
  4 12  1  0
  4 13  1  0
  4 14  1  0
  7 15  1  0
  7 16  1  0
  9 17  1  0
  9 18  1  0
  9 19  1  0
M  END
