
     RDKit          3D

 19 19  0  0  0  0  0  0  0  0999 V2000
    2.6622    1.3370    0.2156 C   0  0  0  0  0  0  0  0  0  0  0  0
    1.6920    0.7611   -0.2085 C   0  0  0  0  0  0  0  0  0  0  0  0
    0.5399    0.0747   -0.7292 C   0  0  0  0  0  0  0  0  0  0  0  0
    0.7801   -1.4335   -0.8849 C   0  0  0  0  0  0  0  0  0  0  0  0
   -0.4982   -1.9255   -0.9636 O   0  0  0  0  0  0  0  0  0  0  0  0
   -1.3181   -1.2041   -0.1420 C   0  0  0  0  0  0  0  0  0  0  0  0
   -0.5591    0.0070    0.3425 C   0  0  0  0  0  0  0  0  0  0  0  0
   -1.3789    1.2485    0.3805 C   0  0  0  0  0  0  0  0  0  0  0  0
    0.0401   -0.3112    1.5574 O   0  0  0  0  0  0  0  0  0  0  0  0
    3.5226    1.8571    0.5756 H   0  0  0  0  0  0  0  0  0  0  0  0
    0.1236    0.4916   -1.6506 H   0  0  0  0  0  0  0  0  0  0  0  0
    1.2102   -1.7789    0.0873 H   0  0  0  0  0  0  0  0  0  0  0  0
    1.3929   -1.6593   -1.7509 H   0  0  0  0  0  0  0  0  0  0  0  0
   -2.2125   -0.8125   -0.6938 H   0  0  0  0  0  0  0  0  0  0  0  0
   -1.7296   -1.7772    0.7194 H   0  0  0  0  0  0  0  0  0  0  0  0
   -0.7299    2.1286    0.1039 H   0  0  0  0  0  0  0  0  0  0  0  0
   -2.2428    1.1794   -0.3306 H   0  0  0  0  0  0  0  0  0  0  0  0
   -1.8127    1.3866    1.4060 H   0  0  0  0  0  0  0  0  0  0  0  0
    0.5184    0.4307    1.9661 H   0  0  0  0  0  0  0  0  0  0  0  0
  1  2  3  0
  2  3  1  0
  3  4  1  0
  4  5  1  0
  5  6  1  0
  6  7  1  0
  7  8  1  0
  7  9  1  0
  7  3  1  0
  1 10  1  0
  3 11  1  0
  4 12  1  0
  4 13  1  0
  6 14  1  0
  6 15  1  0
  8 16  1  0
  8 17  1  0
  8 18  1  0
  9 19  1  0
M  END
