
     RDKit          3D

 15 15  0  0  0  0  0  0  0  0999 V2000
   -0.0500    3.0243    0.6287 C   0  0  0  0  0  0  0  0  0  0  0  0
    0.0450    1.8450    0.1323 C   0  0  0  0  0  0  0  0  0  0  0  0
    0.1502    0.5432   -0.4427 C   0  0  0  0  0  0  0  0  0  0  0  0
   -0.0637   -0.6211    0.1618 C   0  0  0  0  0  0  0  0  0  0  0  0
   -0.4653   -0.7179    1.6011 C   0  0  0  0  0  0  0  0  0  0  0  0
    0.1678   -1.6747   -0.8224 C   0  0  0  0  0  0  0  0  0  0  0  0
    0.4990   -1.0315   -2.0114 O   0  0  0  0  0  0  0  0  0  0  0  0
    0.5158    0.3287   -1.8457 C   0  0  0  0  0  0  0  0  0  0  0  0
    0.7858    1.2123   -2.7037 O   0  0  0  0  0  0  0  0  0  0  0  0
   -0.1345    3.9469    1.0051 H   0  0  0  0  0  0  0  0  0  0  0  0
   -0.2759   -1.7399    1.9688 H   0  0  0  0  0  0  0  0  0  0  0  0
    0.0259    0.0631    2.2250 H   0  0  0  0  0  0  0  0  0  0  0  0
   -1.5702   -0.5453    1.7047 H   0  0  0  0  0  0  0  0  0  0  0  0
    1.0812   -2.2863   -0.5390 H   0  0  0  0  0  0  0  0  0  0  0  0
   -0.7113   -2.3469   -0.9546 H   0  0  0  0  0  0  0  0  0  0  0  0
  1  2  3  0
  2  3  1  0
  3  4  2  0
  4  5  1  0
  4  6  1  0
  6  7  1  0
  7  8  1  0
  8  9  2  0
  8  3  1  0
  1 10  1  0
  5 11  1  0
  5 12  1  0
  5 13  1  0
  6 14  1  0
  6 15  1  0
M  END
