
     RDKit          3D

 19 20  0  0  0  0  0  0  0  0999 V2000
    3.4402   -1.2144    0.7387 C   0  0  0  0  0  0  0  0  0  0  0  0
    2.3597   -0.5130    0.7577 C   0  0  0  0  0  0  0  0  0  0  0  0
    1.1380    0.2608    0.7642 C   0  0  0  0  0  0  0  0  0  0  0  0
    1.2718    1.3384   -0.2686 O   0  0  0  0  0  0  0  0  0  0  0  0
    0.2713    0.2938   -0.3847 C   0  0  0  0  0  0  0  0  0  0  0  0
    0.5410   -0.6543   -1.5459 C   0  0  0  0  0  0  0  0  0  0  0  0
   -1.0906    0.9708   -0.3712 C   0  0  0  0  0  0  0  0  0  0  0  0
   -1.9851    0.6870    0.8103 C   0  0  0  0  0  0  0  0  0  0  0  0
   -2.2617    0.0080   -0.4723 C   0  0  0  0  0  0  0  0  0  0  0  0
    4.3154   -1.7806    0.7360 H   0  0  0  0  0  0  0  0  0  0  0  0
    0.8938    0.7728    1.7483 H   0  0  0  0  0  0  0  0  0  0  0  0
   -0.4512   -1.0814   -1.9127 H   0  0  0  0  0  0  0  0  0  0  0  0
    1.0463   -0.2442   -2.4082 H   0  0  0  0  0  0  0  0  0  0  0  0
    1.1106   -1.4858   -1.1144 H   0  0  0  0  0  0  0  0  0  0  0  0
   -1.2622    1.9129   -0.9073 H   0  0  0  0  0  0  0  0  0  0  0  0
   -2.6579    1.4930    1.2030 H   0  0  0  0  0  0  0  0  0  0  0  0
   -1.5916    0.0837    1.6596 H   0  0  0  0  0  0  0  0  0  0  0  0
   -3.1306    0.2382   -1.0850 H   0  0  0  0  0  0  0  0  0  0  0  0
   -1.9573   -1.0856   -0.5356 H   0  0  0  0  0  0  0  0  0  0  0  0
  1  2  3  0
  2  3  1  0
  3  4  1  0
  4  5  1  0
  5  6  1  0
  5  7  1  0
  7  8  1  0
  8  9  1  0
  5  3  1  0
  9  7  1  0
  1 10  1  0
  3 11  1  0
  6 12  1  0
  6 13  1  0
  6 14  1  0
  7 15  1  0
  8 16  1  0
  8 17  1  0
  9 18  1  0
  9 19  1  0
M  END
