
     RDKit          3D

 19 18  0  0  0  0  0  0  0  0999 V2000
    2.8193   -1.7855    0.4839 C   0  0  0  0  0  0  0  0  0  0  0  0
    2.3609   -0.6917    0.2275 C   0  0  0  0  0  0  0  0  0  0  0  0
    1.7854    0.6154   -0.0803 C   0  0  0  0  0  0  0  0  0  0  0  0
    0.4359    0.7245    0.6389 C   0  0  0  0  0  0  0  0  0  0  0  0
   -0.1714    2.0259    0.3519 C   0  0  0  0  0  0  0  0  0  0  0  0
   -0.6929    3.1020    0.1252 C   0  0  0  0  0  0  0  0  0  0  0  0
   -0.4558   -0.3337    0.0473 C   0  0  0  0  0  0  0  0  0  0  0  0
   -1.7144   -0.2908    0.6624 O   0  0  0  0  0  0  0  0  0  0  0  0
   -2.4755   -1.2942    0.0629 C   0  0  0  0  0  0  0  0  0  0  0  0
    3.2336   -2.7429    0.7242 H   0  0  0  0  0  0  0  0  0  0  0  0
    2.4469    1.4172    0.2955 H   0  0  0  0  0  0  0  0  0  0  0  0
    1.6183    0.6983   -1.1750 H   0  0  0  0  0  0  0  0  0  0  0  0
    0.5868    0.6386    1.7123 H   0  0  0  0  0  0  0  0  0  0  0  0
   -1.1606    4.0410   -0.0685 H   0  0  0  0  0  0  0  0  0  0  0  0
   -0.5809   -0.0598   -1.0420 H   0  0  0  0  0  0  0  0  0  0  0  0
   -0.0215   -1.3397    0.0495 H   0  0  0  0  0  0  0  0  0  0  0  0
   -3.4776   -1.2659    0.5472 H   0  0  0  0  0  0  0  0  0  0  0  0
   -2.5121   -1.1512   -1.0238 H   0  0  0  0  0  0  0  0  0  0  0  0
   -2.0246   -2.3076    0.2422 H   0  0  0  0  0  0  0  0  0  0  0  0
  1  2  3  0
  2  3  1  0
  3  4  1  0
  4  5  1  0
  5  6  3  0
  4  7  1  0
  7  8  1  0
  8  9  1  0
  1 10  1  0
  3 11  1  0
  3 12  1  0
  4 13  1  0
  6 14  1  0
  7 15  1  0
  7 16  1  0
  9 17  1  0
  9 18  1  0
  9 19  1  0
M  END
