
     RDKit          3D

 23 23  0  0  0  0  0  0  0  0999 V2000
    2.1980    2.5386   -0.5417 C   0  0  0  0  0  0  0  0  0  0  0  0
    1.9982    1.3894   -0.2501 C   0  0  0  0  0  0  0  0  0  0  0  0
    1.7350    0.0056    0.0917 C   0  0  0  0  0  0  0  0  0  0  0  0
    1.3134   -0.9033   -1.0035 C   0  0  0  0  0  0  0  0  0  0  0  0
    0.3941   -0.5217    0.1792 C   0  0  0  0  0  0  0  0  0  0  0  0
    0.1432   -1.6833    1.1522 C   0  0  0  0  0  0  0  0  0  0  0  0
   -0.8515    0.1975   -0.2159 C   0  0  0  0  0  0  0  0  0  0  0  0
   -2.0774   -0.6837    0.0216 C   0  0  0  0  0  0  0  0  0  0  0  0
   -1.0819    1.4891    0.4854 C   0  0  0  0  0  0  0  0  0  0  0  0
    2.3643    3.5532   -0.7828 H   0  0  0  0  0  0  0  0  0  0  0  0
    2.5015   -0.4420    0.7874 H   0  0  0  0  0  0  0  0  0  0  0  0
    1.6820   -1.9352   -1.0468 H   0  0  0  0  0  0  0  0  0  0  0  0
    1.0372   -0.4973   -2.0007 H   0  0  0  0  0  0  0  0  0  0  0  0
    1.1330   -2.1188    1.4250 H   0  0  0  0  0  0  0  0  0  0  0  0
   -0.4957   -2.4406    0.6622 H   0  0  0  0  0  0  0  0  0  0  0  0
   -0.3274   -1.2473    2.0622 H   0  0  0  0  0  0  0  0  0  0  0  0
   -0.8664    0.4139   -1.3230 H   0  0  0  0  0  0  0  0  0  0  0  0
   -3.0038   -0.1028   -0.1670 H   0  0  0  0  0  0  0  0  0  0  0  0
   -2.0584   -1.5991   -0.5818 H   0  0  0  0  0  0  0  0  0  0  0  0
   -2.1091   -0.9342    1.1167 H   0  0  0  0  0  0  0  0  0  0  0  0
   -2.1938    1.6850    0.5001 H   0  0  0  0  0  0  0  0  0  0  0  0
   -0.7727    1.4992    1.5426 H   0  0  0  0  0  0  0  0  0  0  0  0
   -0.6617    2.3378   -0.1044 H   0  0  0  0  0  0  0  0  0  0  0  0
  1  2  3  0
  2  3  1  0
  3  4  1  0
  4  5  1  0
  5  6  1  0
  5  7  1  0
  7  8  1  0
  7  9  1  0
  5  3  1  0
  1 10  1  0
  3 11  1  0
  4 12  1  0
  4 13  1  0
  6 14  1  0
  6 15  1  0
  6 16  1  0
  7 17  1  0
  8 18  1  0
  8 19  1  0
  8 20  1  0
  9 21  1  0
  9 22  1  0
  9 23  1  0
M  END
