
     RDKit          3D

 17 16  0  0  0  0  0  0  0  0999 V2000
    1.7274   -1.4086    1.5221 C   0  0  0  0  0  0  0  0  0  0  0  0
    1.1972   -0.7036    1.1123 C   0  0  0  0  0  0  0  0  0  0  0  0
    0.3567    0.4372    0.4635 C   0  0  0  0  0  0  0  0  0  0  0  0
    1.2043    0.9874   -0.6447 C   0  0  0  0  0  0  0  0  0  0  0  0
   -0.0714    1.2888    1.3637 O   0  0  0  0  0  0  0  0  0  0  0  0
   -0.7410   -0.4526   -0.1941 C   0  0  0  0  0  0  0  0  0  0  0  0
   -1.5307   -1.0559    0.7889 O   0  0  0  0  0  0  0  0  0  0  0  0
   -1.4932    0.0040   -1.3300 C   0  0  0  0  0  0  0  0  0  0  0  0
   -1.1095    0.6053   -2.2842 O   0  0  0  0  0  0  0  0  0  0  0  0
    2.4326   -2.3613    2.0954 H   0  0  0  0  0  0  0  0  0  0  0  0
    0.6310    1.6741   -1.3330 H   0  0  0  0  0  0  0  0  0  0  0  0
    2.1028    1.5110   -0.2185 H   0  0  0  0  0  0  0  0  0  0  0  0
    1.5269    0.1081   -1.2754 H   0  0  0  0  0  0  0  0  0  0  0  0
   -0.9988    1.6592    1.3038 H   0  0  0  0  0  0  0  0  0  0  0  0
   -0.1425   -1.3946   -0.5907 H   0  0  0  0  0  0  0  0  0  0  0  0
   -2.4723   -0.6765    0.5590 H   0  0  0  0  0  0  0  0  0  0  0  0
   -2.6195   -0.2220   -1.3381 H   0  0  0  0  0  0  0  0  0  0  0  0
  1  2  3  0
  2  3  1  0
  3  4  1  0
  3  5  1  0
  3  6  1  0
  6  7  1  0
  6  8  1  0
  8  9  2  0
  1 10  1  0
  4 11  1  0
  4 12  1  0
  4 13  1  0
  5 14  1  0
  6 15  1  0
  7 16  1  0
  8 17  1  0
M  END
