
     RDKit          3D

 14 14  0  0  0  0  0  0  0  0999 V2000
    1.7600    0.1458   -1.9316 C   0  0  0  0  0  0  0  0  0  0  0  0
    1.1899   -0.3572   -1.0196 C   0  0  0  0  0  0  0  0  0  0  0  0
    0.5129   -0.9552    0.1029 C   0  0  0  0  0  0  0  0  0  0  0  0
   -0.9501   -1.2120   -0.0922 C   0  0  0  0  0  0  0  0  0  0  0  0
   -1.6735   -1.5233   -1.0526 O   0  0  0  0  0  0  0  0  0  0  0  0
   -1.0799   -0.9391    1.2760 O   0  0  0  0  0  0  0  0  0  0  0  0
   -0.0883    0.0645    1.0778 C   0  0  0  0  0  0  0  0  0  0  0  0
   -0.7180    1.2339    0.3761 C   0  0  0  0  0  0  0  0  0  0  0  0
    2.2796    0.6036   -2.7333 H   0  0  0  0  0  0  0  0  0  0  0  0
    0.9692   -1.8083    0.5949 H   0  0  0  0  0  0  0  0  0  0  0  0
    0.5146    0.2751    1.9574 H   0  0  0  0  0  0  0  0  0  0  0  0
   -1.2456    0.8436   -0.5279 H   0  0  0  0  0  0  0  0  0  0  0  0
    0.0152    1.9681    0.0072 H   0  0  0  0  0  0  0  0  0  0  0  0
   -1.4862    1.6606    1.0473 H   0  0  0  0  0  0  0  0  0  0  0  0
  1  2  3  0
  2  3  1  0
  3  4  1  0
  4  5  2  0
  4  6  1  0
  6  7  1  0
  7  8  1  0
  7  3  1  0
  1  9  1  0
  3 10  1  0
  7 11  1  0
  8 12  1  0
  8 13  1  0
  8 14  1  0
M  END
