
     RDKit          3D

 21 21  0  0  0  0  0  0  0  0999 V2000
    3.7072    0.0402   -0.6083 C   0  0  0  0  0  0  0  0  0  0  0  0
    2.8363   -0.3608    0.1011 C   0  0  0  0  0  0  0  0  0  0  0  0
    1.7499   -0.8650    0.9635 C   0  0  0  0  0  0  0  0  0  0  0  0
    0.4346   -0.3969    0.4402 C   0  0  0  0  0  0  0  0  0  0  0  0
   -0.4468   -1.3276    0.0887 C   0  0  0  0  0  0  0  0  0  0  0  0
   -1.7693   -0.9398   -0.4376 C   0  0  0  0  0  0  0  0  0  0  0  0
   -2.1920    0.3335    0.2293 C   0  0  0  0  0  0  0  0  0  0  0  0
   -1.2072    1.4376    0.0652 C   0  0  0  0  0  0  0  0  0  0  0  0
    0.2116    1.0503    0.3521 C   0  0  0  0  0  0  0  0  0  0  0  0
    4.4801    0.4101   -1.2590 H   0  0  0  0  0  0  0  0  0  0  0  0
    1.8474   -1.9531    0.9921 H   0  0  0  0  0  0  0  0  0  0  0  0
    1.8488   -0.4757    1.9939 H   0  0  0  0  0  0  0  0  0  0  0  0
   -0.1975   -2.3808    0.1873 H   0  0  0  0  0  0  0  0  0  0  0  0
   -1.7559   -0.8216   -1.5463 H   0  0  0  0  0  0  0  0  0  0  0  0
   -2.5518   -1.7102   -0.2134 H   0  0  0  0  0  0  0  0  0  0  0  0
   -3.1512    0.6697   -0.2577 H   0  0  0  0  0  0  0  0  0  0  0  0
   -2.4621    0.1213    1.2813 H   0  0  0  0  0  0  0  0  0  0  0  0
   -1.3322    1.8960   -0.9485 H   0  0  0  0  0  0  0  0  0  0  0  0
   -1.4930    2.2527    0.7917 H   0  0  0  0  0  0  0  0  0  0  0  0
    0.6089    1.5789    1.2551 H   0  0  0  0  0  0  0  0  0  0  0  0
    0.8341    1.4411   -0.5024 H   0  0  0  0  0  0  0  0  0  0  0  0
  1  2  3  0
  2  3  1  0
  3  4  1  0
  4  5  2  0
  5  6  1  0
  6  7  1  0
  7  8  1  0
  8  9  1  0
  9  4  1  0
  1 10  1  0
  3 11  1  0
  3 12  1  0
  5 13  1  0
  6 14  1  0
  6 15  1  0
  7 16  1  0
  7 17  1  0
  8 18  1  0
  8 19  1  0
  9 20  1  0
  9 21  1  0
M  END
