
     RDKit          3D

 21 20  0  0  0  0  0  0  0  0999 V2000
    1.5229    1.2698    3.8169 C   0  0  0  0  0  0  0  0  0  0  0  0
    1.3604    0.9277    2.5809 C   0  0  0  0  0  0  0  0  0  0  0  0
    1.1824    0.5541    1.2440 C   0  0  0  0  0  0  0  0  0  0  0  0
    0.1182   -0.6064    1.1378 C   0  0  0  0  0  0  0  0  0  0  0  0
    0.0066   -0.7792   -0.4114 C   0  0  0  0  0  0  0  0  0  0  0  0
   -0.8727   -1.8999   -0.7463 C   0  0  0  0  0  0  0  0  0  0  0  0
   -1.2802   -2.6943    0.1510 O   0  0  0  0  0  0  0  0  0  0  0  0
   -0.6813    0.4814   -0.8979 C   0  0  0  0  0  0  0  0  0  0  0  0
   -0.8287    0.6881   -2.3393 C   0  0  0  0  0  0  0  0  0  0  0  0
    1.6331    1.5348    4.7806 H   0  0  0  0  0  0  0  0  0  0  0  0
    1.0781    1.3121    0.5029 H   0  0  0  0  0  0  0  0  0  0  0  0
    2.1220   -0.0284    0.8085 H   0  0  0  0  0  0  0  0  0  0  0  0
   -0.8308   -0.2804    1.5216 H   0  0  0  0  0  0  0  0  0  0  0  0
    0.5820   -1.4988    1.5048 H   0  0  0  0  0  0  0  0  0  0  0  0
    0.9926   -0.9375   -0.8092 H   0  0  0  0  0  0  0  0  0  0  0  0
   -1.2136   -2.1041   -1.7436 H   0  0  0  0  0  0  0  0  0  0  0  0
   -0.5120    1.3782   -0.3223 H   0  0  0  0  0  0  0  0  0  0  0  0
   -1.8398    0.2186   -0.5909 H   0  0  0  0  0  0  0  0  0  0  0  0
   -1.7358    1.3734   -2.4782 H   0  0  0  0  0  0  0  0  0  0  0  0
    0.0692    1.3003   -2.7088 H   0  0  0  0  0  0  0  0  0  0  0  0
   -0.8726   -0.2095   -2.9555 H   0  0  0  0  0  0  0  0  0  0  0  0
  1  2  3  0
  2  3  1  0
  3  4  1  0
  4  5  1  0
  5  6  1  0
  6  7  2  0
  5  8  1  0
  8  9  1  0
  1 10  1  0
  3 11  1  0
  3 12  1  0
  4 13  1  0
  4 14  1  0
  5 15  1  0
  6 16  1  0
  8 17  1  0
  8 18  1  0
  9 19  1  0
  9 20  1  0
  9 21  1  0
M  END
