
     RDKit          3D

 23 22  0  0  0  0  0  0  0  0999 V2000
    3.8401    0.5464   -1.4781 C   0  0  0  0  0  0  0  0  0  0  0  0
    2.8500    0.7174   -0.8121 C   0  0  0  0  0  0  0  0  0  0  0  0
    1.6398    0.9371   -0.0060 C   0  0  0  0  0  0  0  0  0  0  0  0
    0.6912   -0.2533   -0.1863 C   0  0  0  0  0  0  0  0  0  0  0  0
    1.4821   -1.4729    0.2997 C   0  0  0  0  0  0  0  0  0  0  0  0
   -0.3640   -0.0509    0.6681 O   0  0  0  0  0  0  0  0  0  0  0  0
   -1.5991   -0.0136    0.0712 C   0  0  0  0  0  0  0  0  0  0  0  0
   -2.5814   -0.9776    0.6899 C   0  0  0  0  0  0  0  0  0  0  0  0
   -2.1662    1.3925    0.3087 C   0  0  0  0  0  0  0  0  0  0  0  0
    4.7152    0.3914   -2.0890 H   0  0  0  0  0  0  0  0  0  0  0  0
    1.9482    1.0477    1.0407 H   0  0  0  0  0  0  0  0  0  0  0  0
    1.1747    1.8760   -0.3702 H   0  0  0  0  0  0  0  0  0  0  0  0
    0.4342   -0.3614   -1.2380 H   0  0  0  0  0  0  0  0  0  0  0  0
    2.0084   -1.1924    1.2335 H   0  0  0  0  0  0  0  0  0  0  0  0
    0.8343   -2.3518    0.4056 H   0  0  0  0  0  0  0  0  0  0  0  0
    2.2439   -1.7308   -0.4882 H   0  0  0  0  0  0  0  0  0  0  0  0
   -1.5858   -0.1517   -1.0221 H   0  0  0  0  0  0  0  0  0  0  0  0
   -2.0479   -1.8310    1.1403 H   0  0  0  0  0  0  0  0  0  0  0  0
   -3.1134   -0.4670    1.5420 H   0  0  0  0  0  0  0  0  0  0  0  0
   -3.3820   -1.2774   -0.0162 H   0  0  0  0  0  0  0  0  0  0  0  0
   -3.2655    1.3426    0.5112 H   0  0  0  0  0  0  0  0  0  0  0  0
   -1.7026    1.8591    1.1958 H   0  0  0  0  0  0  0  0  0  0  0  0
   -2.0542    2.0216   -0.5958 H   0  0  0  0  0  0  0  0  0  0  0  0
  1  2  3  0
  2  3  1  0
  3  4  1  0
  4  5  1  0
  4  6  1  0
  6  7  1  0
  7  8  1  0
  7  9  1  0
  1 10  1  0
  3 11  1  0
  3 12  1  0
  4 13  1  0
  5 14  1  0
  5 15  1  0
  5 16  1  0
  7 17  1  0
  8 18  1  0
  8 19  1  0
  8 20  1  0
  9 21  1  0
  9 22  1  0
  9 23  1  0
M  END
