
     RDKit          3D

 20 19  0  0  0  0  0  0  0  0999 V2000
   -1.9823    2.4799   -0.6550 C   0  0  0  0  0  0  0  0  0  0  0  0
   -1.6726    1.3777   -1.0435 C   0  0  0  0  0  0  0  0  0  0  0  0
   -1.2788    0.0417   -1.5130 C   0  0  0  0  0  0  0  0  0  0  0  0
   -0.5090    0.1624   -2.6692 O   0  0  0  0  0  0  0  0  0  0  0  0
   -0.4938   -0.6937   -0.4286 C   0  0  0  0  0  0  0  0  0  0  0  0
    0.7252    0.1203   -0.1213 C   0  0  0  0  0  0  0  0  0  0  0  0
    1.5984   -0.4788    0.9310 C   0  0  0  0  0  0  0  0  0  0  0  0
    0.9450   -0.6699    2.2509 C   0  0  0  0  0  0  0  0  0  0  0  0
   -2.2621    3.4324   -0.3211 H   0  0  0  0  0  0  0  0  0  0  0  0
   -2.2154   -0.5115   -1.7653 H   0  0  0  0  0  0  0  0  0  0  0  0
   -0.1234   -0.6957   -2.9233 H   0  0  0  0  0  0  0  0  0  0  0  0
   -1.1727   -0.8211    0.4223 H   0  0  0  0  0  0  0  0  0  0  0  0
   -0.2208   -1.6786   -0.8113 H   0  0  0  0  0  0  0  0  0  0  0  0
    1.3277    0.1862   -1.0582 H   0  0  0  0  0  0  0  0  0  0  0  0
    0.4648    1.1618    0.1429 H   0  0  0  0  0  0  0  0  0  0  0  0
    1.9927   -1.4718    0.5742 H   0  0  0  0  0  0  0  0  0  0  0  0
    2.4862    0.1837    1.0477 H   0  0  0  0  0  0  0  0  0  0  0  0
    1.0025    0.2450    2.9089 H   0  0  0  0  0  0  0  0  0  0  0  0
   -0.1292   -0.9198    2.1981 H   0  0  0  0  0  0  0  0  0  0  0  0
    1.5176   -1.4501    2.8337 H   0  0  0  0  0  0  0  0  0  0  0  0
  1  2  3  0
  2  3  1  0
  3  4  1  0
  3  5  1  0
  5  6  1  0
  6  7  1  0
  7  8  1  0
  1  9  1  0
  3 10  1  0
  4 11  1  0
  5 12  1  0
  5 13  1  0
  6 14  1  0
  6 15  1  0
  7 16  1  0
  7 17  1  0
  8 18  1  0
  8 19  1  0
  8 20  1  0
M  END
