
     RDKit          3D

 21 21  0  0  0  0  0  0  0  0999 V2000
    1.7304    2.1393   -1.1092 C   0  0  0  0  0  0  0  0  0  0  0  0
    1.4908    1.1744   -0.2449 C   0  0  0  0  0  0  0  0  0  0  0  0
    1.2537    0.1713    0.6755 C   0  0  0  0  0  0  0  0  0  0  0  0
    1.5911   -1.2160    0.0902 C   0  0  0  0  0  0  0  0  0  0  0  0
    0.4028   -1.4550   -0.7815 C   0  0  0  0  0  0  0  0  0  0  0  0
   -0.6537   -0.8016   -0.3285 C   0  0  0  0  0  0  0  0  0  0  0  0
   -2.0039   -0.7801   -0.8987 C   0  0  0  0  0  0  0  0  0  0  0  0
   -0.2448   -0.0535    0.9180 C   0  0  0  0  0  0  0  0  0  0  0  0
   -0.9541    1.2516    1.0728 C   0  0  0  0  0  0  0  0  0  0  0  0
    1.9314    2.9041   -1.7810 H   0  0  0  0  0  0  0  0  0  0  0  0
    1.7879    0.2794    1.6486 H   0  0  0  0  0  0  0  0  0  0  0  0
    2.5340   -1.1859   -0.4691 H   0  0  0  0  0  0  0  0  0  0  0  0
    1.6245   -1.9176    0.9605 H   0  0  0  0  0  0  0  0  0  0  0  0
    0.4893   -2.1054   -1.6640 H   0  0  0  0  0  0  0  0  0  0  0  0
   -2.1189   -1.4887   -1.7577 H   0  0  0  0  0  0  0  0  0  0  0  0
   -2.3157    0.2092   -1.2795 H   0  0  0  0  0  0  0  0  0  0  0  0
   -2.8109   -1.0896   -0.1760 H   0  0  0  0  0  0  0  0  0  0  0  0
   -0.3740   -0.7578    1.7431 H   0  0  0  0  0  0  0  0  0  0  0  0
   -2.0464    1.0994    1.1590 H   0  0  0  0  0  0  0  0  0  0  0  0
   -0.5811    1.7144    2.0182 H   0  0  0  0  0  0  0  0  0  0  0  0
   -0.7326    1.9082    0.2040 H   0  0  0  0  0  0  0  0  0  0  0  0
  1  2  3  0
  2  3  1  0
  3  4  1  0
  4  5  1  0
  5  6  2  0
  6  7  1  0
  6  8  1  0
  8  9  1  0
  8  3  1  0
  1 10  1  0
  3 11  1  0
  4 12  1  0
  4 13  1  0
  5 14  1  0
  7 15  1  0
  7 16  1  0
  7 17  1  0
  8 18  1  0
  9 19  1  0
  9 20  1  0
  9 21  1  0
M  END
