
     RDKit          3D

 23 22  0  0  0  0  0  0  0  0999 V2000
   -2.5131    2.2207   -0.0832 C   0  0  0  0  0  0  0  0  0  0  0  0
   -2.1217    1.1174   -0.1338 C   0  0  0  0  0  0  0  0  0  0  0  0
   -1.6505   -0.2496   -0.1971 C   0  0  0  0  0  0  0  0  0  0  0  0
   -1.9586   -0.8742   -1.5674 C   0  0  0  0  0  0  0  0  0  0  0  0
   -0.1429   -0.3749    0.0159 C   0  0  0  0  0  0  0  0  0  0  0  0
    0.1421    0.0795    1.2325 O   0  0  0  0  0  0  0  0  0  0  0  0
    1.2845    0.1728    1.7604 C   0  0  0  0  0  0  0  0  0  0  0  0
    1.8980    1.2266    0.5324 C   0  0  0  0  0  0  0  0  0  0  0  0
    1.9031   -1.3041    1.0291 C   0  0  0  0  0  0  0  0  0  0  0  0
   -2.8903    3.2495   -0.0209 H   0  0  0  0  0  0  0  0  0  0  0  0
   -2.1851   -0.8317    0.5991 H   0  0  0  0  0  0  0  0  0  0  0  0
   -1.0692   -1.3774   -1.9481 H   0  0  0  0  0  0  0  0  0  0  0  0
   -2.1819   -0.0419   -2.2451 H   0  0  0  0  0  0  0  0  0  0  0  0
   -2.8050   -1.6083   -1.4423 H   0  0  0  0  0  0  0  0  0  0  0  0
    0.3313    0.1183   -0.8643 H   0  0  0  0  0  0  0  0  0  0  0  0
    0.0640   -1.4977   -0.0927 H   0  0  0  0  0  0  0  0  0  0  0  0
    2.1967    0.2465    2.1796 H   0  0  0  0  0  0  0  0  0  0  0  0
    2.4475    0.5448   -0.0489 H   0  0  0  0  0  0  0  0  0  0  0  0
    1.0033    1.6265    0.0844 H   0  0  0  0  0  0  0  0  0  0  0  0
    2.3668    1.9671    1.1732 H   0  0  0  0  0  0  0  0  0  0  0  0
    2.7988   -1.4272    1.5895 H   0  0  0  0  0  0  0  0  0  0  0  0
    1.9571   -1.0339    0.0213 H   0  0  0  0  0  0  0  0  0  0  0  0
    1.1251   -1.9487    1.3588 H   0  0  0  0  0  0  0  0  0  0  0  0
  1  2  3  0
  2  3  1  0
  3  4  1  0
  3  5  1  0
  5  6  1  0
  6  7  1  0
  7  8  1  0
  7  9  1  0
  1 10  1  0
  3 11  1  0
  4 12  1  0
  4 13  1  0
  4 14  1  0
  5 15  1  0
  5 16  1  0
  7 17  1  0
  8 18  1  0
  8 19  1  0
  8 20  1  0
  9 21  1  0
  9 22  1  0
  9 23  1  0
M  END
