
     RDKit          3D

 19 19  0  0  0  0  0  0  0  0999 V2000
   -2.6444    1.0782    0.1692 C   0  0  0  0  0  0  0  0  0  0  0  0
   -1.9730    0.0730    0.2337 C   0  0  0  0  0  0  0  0  0  0  0  0
   -1.1870   -1.1457    0.3007 C   0  0  0  0  0  0  0  0  0  0  0  0
   -1.8323   -2.1817   -0.3744 O   0  0  0  0  0  0  0  0  0  0  0  0
    0.1592   -0.9033   -0.3265 C   0  0  0  0  0  0  0  0  0  0  0  0
    0.9599    0.1615    0.3184 C   0  0  0  0  0  0  0  0  0  0  0  0
    1.2542   -0.0736    1.6715 O   0  0  0  0  0  0  0  0  0  0  0  0
    0.9911    1.5636   -0.1388 C   0  0  0  0  0  0  0  0  0  0  0  0
    2.1263    0.6736   -0.5070 C   0  0  0  0  0  0  0  0  0  0  0  0
   -3.2417    1.9589    0.1142 H   0  0  0  0  0  0  0  0  0  0  0  0
   -1.0961   -1.4742    1.3571 H   0  0  0  0  0  0  0  0  0  0  0  0
   -1.5322   -2.1799   -1.3200 H   0  0  0  0  0  0  0  0  0  0  0  0
    0.0516   -0.7776   -1.4244 H   0  0  0  0  0  0  0  0  0  0  0  0
    0.7337   -1.8701   -0.2080 H   0  0  0  0  0  0  0  0  0  0  0  0
    0.4555   -0.3799    2.1404 H   0  0  0  0  0  0  0  0  0  0  0  0
    1.1244    2.3373    0.6448 H   0  0  0  0  0  0  0  0  0  0  0  0
    0.3507    1.9092   -0.9778 H   0  0  0  0  0  0  0  0  0  0  0  0
    2.2253    0.3489   -1.5557 H   0  0  0  0  0  0  0  0  0  0  0  0
    3.0751    0.8818    0.0081 H   0  0  0  0  0  0  0  0  0  0  0  0
  1  2  3  0
  2  3  1  0
  3  4  1  0
  3  5  1  0
  5  6  1  0
  6  7  1  0
  6  8  1  0
  8  9  1  0
  9  6  1  0
  1 10  1  0
  3 11  1  0
  4 12  1  0
  5 13  1  0
  5 14  1  0
  7 15  1  0
  8 16  1  0
  8 17  1  0
  9 18  1  0
  9 19  1  0
M  END
