
     RDKit          3D

 23 23  0  0  0  0  0  0  0  0999 V2000
    2.2836    2.0056    1.0612 C   0  0  0  0  0  0  0  0  0  0  0  0
    1.7552    1.1249    0.4297 C   0  0  0  0  0  0  0  0  0  0  0  0
    1.1232    0.0249   -0.3394 C   0  0  0  0  0  0  0  0  0  0  0  0
    0.0058   -0.7162    0.3902 C   0  0  0  0  0  0  0  0  0  0  0  0
   -0.0308   -2.2021    0.1768 C   0  0  0  0  0  0  0  0  0  0  0  0
   -0.3108   -0.2585    1.8058 C   0  0  0  0  0  0  0  0  0  0  0  0
   -0.2926    0.2494   -0.6842 C   0  0  0  0  0  0  0  0  0  0  0  0
   -0.9881    1.5365   -0.2887 C   0  0  0  0  0  0  0  0  0  0  0  0
   -0.7019   -0.2284   -2.0737 C   0  0  0  0  0  0  0  0  0  0  0  0
    2.7389    2.7852    1.6244 H   0  0  0  0  0  0  0  0  0  0  0  0
    1.7751   -0.5823   -0.9994 H   0  0  0  0  0  0  0  0  0  0  0  0
   -0.9818   -2.6516    0.4980 H   0  0  0  0  0  0  0  0  0  0  0  0
    0.1201   -2.3996   -0.9015 H   0  0  0  0  0  0  0  0  0  0  0  0
    0.8386   -2.7044    0.6880 H   0  0  0  0  0  0  0  0  0  0  0  0
    0.6289   -0.1316    2.3797 H   0  0  0  0  0  0  0  0  0  0  0  0
   -0.8846   -1.0628    2.3101 H   0  0  0  0  0  0  0  0  0  0  0  0
   -0.9056    0.6937    1.7731 H   0  0  0  0  0  0  0  0  0  0  0  0
   -0.3807    2.1294    0.4227 H   0  0  0  0  0  0  0  0  0  0  0  0
   -1.9797    1.2413    0.1279 H   0  0  0  0  0  0  0  0  0  0  0  0
   -1.2326    2.1552   -1.1934 H   0  0  0  0  0  0  0  0  0  0  0  0
   -0.1068   -1.0711   -2.4299 H   0  0  0  0  0  0  0  0  0  0  0  0
   -0.7127    0.6343   -2.7705 H   0  0  0  0  0  0  0  0  0  0  0  0
   -1.7608   -0.5719   -2.0068 H   0  0  0  0  0  0  0  0  0  0  0  0
  1  2  3  0
  2  3  1  0
  3  4  1  0
  4  5  1  0
  4  6  1  0
  4  7  1  0
  7  8  1  0
  7  9  1  0
  7  3  1  0
  1 10  1  0
  3 11  1  0
  5 12  1  0
  5 13  1  0
  5 14  1  0
  6 15  1  0
  6 16  1  0
  6 17  1  0
  8 18  1  0
  8 19  1  0
  8 20  1  0
  9 21  1  0
  9 22  1  0
  9 23  1  0
M  END
