
     RDKit          3D

 19 19  0  0  0  0  0  0  0  0999 V2000
    1.7126    2.5056    0.1682 C   0  0  0  0  0  0  0  0  0  0  0  0
    1.1602    1.4912   -0.2744 C   0  0  0  0  0  0  0  0  0  0  0  0
    0.5115    0.3203   -0.7971 C   0  0  0  0  0  0  0  0  0  0  0  0
    0.2337   -0.9895   -0.3254 C   0  0  0  0  0  0  0  0  0  0  0  0
    1.1503   -1.7701    0.5583 C   0  0  0  0  0  0  0  0  0  0  0  0
    0.5248   -3.0192    0.8684 O   0  0  0  0  0  0  0  0  0  0  0  0
   -0.6888   -0.0312    0.2553 C   0  0  0  0  0  0  0  0  0  0  0  0
   -1.9492    0.5286   -0.2610 C   0  0  0  0  0  0  0  0  0  0  0  0
   -1.6941    1.9321   -0.3630 O   0  0  0  0  0  0  0  0  0  0  0  0
    2.1956    3.3988    0.5380 H   0  0  0  0  0  0  0  0  0  0  0  0
    0.0229    0.5432   -1.8408 H   0  0  0  0  0  0  0  0  0  0  0  0
   -0.3138   -1.6990   -1.0465 H   0  0  0  0  0  0  0  0  0  0  0  0
    2.0740   -2.0593    0.0466 H   0  0  0  0  0  0  0  0  0  0  0  0
    1.4334   -1.2469    1.4818 H   0  0  0  0  0  0  0  0  0  0  0  0
    0.3778   -2.9732    1.8661 H   0  0  0  0  0  0  0  0  0  0  0  0
   -0.4267    0.3720    1.2936 H   0  0  0  0  0  0  0  0  0  0  0  0
   -2.1277    0.1292   -1.2720 H   0  0  0  0  0  0  0  0  0  0  0  0
   -2.8330    0.4467    0.3820 H   0  0  0  0  0  0  0  0  0  0  0  0
   -1.3634    2.1206   -1.2779 H   0  0  0  0  0  0  0  0  0  0  0  0
  1  2  3  0
  2  3  1  0
  3  4  1  0
  4  5  1  0
  5  6  1  0
  4  7  1  0
  7  8  1  0
  8  9  1  0
  7  3  1  0
  1 10  1  0
  3 11  1  0
  4 12  1  0
  5 13  1  0
  5 14  1  0
  6 15  1  0
  7 16  1  0
  8 17  1  0
  8 18  1  0
  9 19  1  0
M  END
