
     RDKit          3D

 19 19  0  0  0  0  0  0  0  0999 V2000
    3.2433    0.2954   -1.1097 C   0  0  0  0  0  0  0  0  0  0  0  0
    2.1353    0.2949   -0.6798 C   0  0  0  0  0  0  0  0  0  0  0  0
    0.7753    0.3111   -0.1712 C   0  0  0  0  0  0  0  0  0  0  0  0
    0.7060   -0.2436    1.2507 C   0  0  0  0  0  0  0  0  0  0  0  0
   -0.6797    0.0107    1.7296 C   0  0  0  0  0  0  0  0  0  0  0  0
   -1.6852   -0.0213    0.8914 C   0  0  0  0  0  0  0  0  0  0  0  0
   -1.5594   -0.3024   -0.5650 C   0  0  0  0  0  0  0  0  0  0  0  0
   -2.1255    0.7400   -1.2850 O   0  0  0  0  0  0  0  0  0  0  0  0
   -0.1532   -0.5081   -1.0107 C   0  0  0  0  0  0  0  0  0  0  0  0
    4.2354    0.3145   -1.4959 H   0  0  0  0  0  0  0  0  0  0  0  0
    0.3719    1.3562   -0.1010 H   0  0  0  0  0  0  0  0  0  0  0  0
    0.8314   -1.3593    1.2410 H   0  0  0  0  0  0  0  0  0  0  0  0
    1.4770    0.1804    1.9011 H   0  0  0  0  0  0  0  0  0  0  0  0
   -0.8596    0.2236    2.7774 H   0  0  0  0  0  0  0  0  0  0  0  0
   -2.6898    0.1668    1.2591 H   0  0  0  0  0  0  0  0  0  0  0  0
   -2.1402   -1.2251   -0.8215 H   0  0  0  0  0  0  0  0  0  0  0  0
   -1.9648    1.6285   -0.8349 H   0  0  0  0  0  0  0  0  0  0  0  0
   -0.0696   -0.2780   -2.0934 H   0  0  0  0  0  0  0  0  0  0  0  0
    0.1513   -1.5844   -0.8823 H   0  0  0  0  0  0  0  0  0  0  0  0
  1  2  3  0
  2  3  1  0
  3  4  1  0
  4  5  1  0
  5  6  2  0
  6  7  1  0
  7  8  1  0
  7  9  1  0
  9  3  1  0
  1 10  1  0
  3 11  1  0
  4 12  1  0
  4 13  1  0
  5 14  1  0
  6 15  1  0
  7 16  1  0
  8 17  1  0
  9 18  1  0
  9 19  1  0
M  END
