
     RDKit          3D

 23 23  0  0  0  0  0  0  0  0999 V2000
   -0.8715    3.3601   -0.2502 C   0  0  0  0  0  0  0  0  0  0  0  0
   -0.4820    2.2200   -0.1426 C   0  0  0  0  0  0  0  0  0  0  0  0
    0.0226    0.8065   -0.0250 C   0  0  0  0  0  0  0  0  0  0  0  0
    1.5310    0.8302   -0.0324 C   0  0  0  0  0  0  0  0  0  0  0  0
    2.2153   -0.4703    0.0719 C   0  0  0  0  0  0  0  0  0  0  0  0
   -0.6537    0.1307    1.1120 C   0  0  0  0  0  0  0  0  0  0  0  0
   -1.3789   -0.7684    0.1343 C   0  0  0  0  0  0  0  0  0  0  0  0
   -1.1184   -2.2183    0.3414 C   0  0  0  0  0  0  0  0  0  0  0  0
   -0.6535   -0.0803   -1.0007 C   0  0  0  0  0  0  0  0  0  0  0  0
   -1.1878    4.3401   -0.3378 H   0  0  0  0  0  0  0  0  0  0  0  0
    1.8376    1.3886   -0.9454 H   0  0  0  0  0  0  0  0  0  0  0  0
    1.8335    1.4590    0.8510 H   0  0  0  0  0  0  0  0  0  0  0  0
    1.5679   -1.2091    0.5625 H   0  0  0  0  0  0  0  0  0  0  0  0
    3.1430   -0.3590    0.6828 H   0  0  0  0  0  0  0  0  0  0  0  0
    2.4525   -0.8785   -0.9422 H   0  0  0  0  0  0  0  0  0  0  0  0
    0.0213   -0.4550    1.7698 H   0  0  0  0  0  0  0  0  0  0  0  0
   -1.3725    0.7544    1.6813 H   0  0  0  0  0  0  0  0  0  0  0  0
   -2.4886   -0.5525    0.1053 H   0  0  0  0  0  0  0  0  0  0  0  0
   -0.7311   -2.7243   -0.5780 H   0  0  0  0  0  0  0  0  0  0  0  0
   -2.0789   -2.7128    0.6358 H   0  0  0  0  0  0  0  0  0  0  0  0
   -0.4011   -2.4561    1.1536 H   0  0  0  0  0  0  0  0  0  0  0  0
    0.1073   -0.7781   -1.4581 H   0  0  0  0  0  0  0  0  0  0  0  0
   -1.3141    0.3729   -1.7634 H   0  0  0  0  0  0  0  0  0  0  0  0
  1  2  3  0
  2  3  1  0
  3  4  1  0
  4  5  1  0
  3  6  1  0
  6  7  1  0
  7  8  1  0
  7  9  1  0
  9  3  1  0
  1 10  1  0
  4 11  1  0
  4 12  1  0
  5 13  1  0
  5 14  1  0
  5 15  1  0
  6 16  1  0
  6 17  1  0
  7 18  1  0
  8 19  1  0
  8 20  1  0
  8 21  1  0
  9 22  1  0
  9 23  1  0
M  END
