
     RDKit          3D

 17 17  0  0  0  0  0  0  0  0999 V2000
    2.8250   -0.3314    0.1131 C   0  0  0  0  0  0  0  0  0  0  0  0
    1.6982   -0.7545    0.0300 C   0  0  0  0  0  0  0  0  0  0  0  0
    0.3387   -1.2860   -0.0545 C   0  0  0  0  0  0  0  0  0  0  0  0
   -0.6093   -0.1147   -0.0248 C   0  0  0  0  0  0  0  0  0  0  0  0
   -2.0280   -0.4805   -0.1020 C   0  0  0  0  0  0  0  0  0  0  0  0
   -2.5907   -0.8281    0.9216 O   0  0  0  0  0  0  0  0  0  0  0  0
   -0.2697    0.9369    1.0002 C   0  0  0  0  0  0  0  0  0  0  0  0
   -0.7441    1.8914    0.0748 O   0  0  0  0  0  0  0  0  0  0  0  0
   -0.2384    1.0340   -0.9280 C   0  0  0  0  0  0  0  0  0  0  0  0
    3.8190    0.0239    0.1937 H   0  0  0  0  0  0  0  0  0  0  0  0
    0.2618   -1.8665   -0.9723 H   0  0  0  0  0  0  0  0  0  0  0  0
    0.0833   -1.9511    0.7927 H   0  0  0  0  0  0  0  0  0  0  0  0
   -2.5406   -0.4355   -1.0526 H   0  0  0  0  0  0  0  0  0  0  0  0
   -0.8615    0.8722    1.9253 H   0  0  0  0  0  0  0  0  0  0  0  0
    0.8235    0.9684    1.1506 H   0  0  0  0  0  0  0  0  0  0  0  0
    0.8369    1.2085   -1.0396 H   0  0  0  0  0  0  0  0  0  0  0  0
   -0.8043    1.1132   -1.8678 H   0  0  0  0  0  0  0  0  0  0  0  0
  1  2  3  0
  2  3  1  0
  3  4  1  0
  4  5  1  0
  5  6  2  0
  4  7  1  0
  7  8  1  0
  8  9  1  0
  9  4  1  0
  1 10  1  0
  3 11  1  0
  3 12  1  0
  5 13  1  0
  7 14  1  0
  7 15  1  0
  9 16  1  0
  9 17  1  0
M  END
