
     RDKit          3D

 16 15  0  0  0  0  0  0  0  0999 V2000
    1.4263    0.7262   -2.8732 C   0  0  0  0  0  0  0  0  0  0  0  0
    1.0673   -0.2936   -1.8253 C   0  0  0  0  0  0  0  0  0  0  0  0
    0.7633   -1.2059   -0.8696 C   0  0  0  0  0  0  0  0  0  0  0  0
    0.5251   -0.6388    0.2151 O   0  0  0  0  0  0  0  0  0  0  0  0
    0.2786   -0.1373    1.3143 C   0  0  0  0  0  0  0  0  0  0  0  0
   -1.5186   -0.6544    0.9946 C   0  0  0  0  0  0  0  0  0  0  0  0
   -0.1024    1.1110    1.3619 C   0  0  0  0  0  0  0  0  0  0  0  0
   -0.5164    2.5592    1.4166 C   0  0  0  0  0  0  0  0  0  0  0  0
    1.6292    1.2929   -3.4511 H   0  0  0  0  0  0  0  0  0  0  0  0
    0.1730   -2.0422   -1.1665 H   0  0  0  0  0  0  0  0  0  0  0  0
    1.8451   -1.8677   -0.6638 H   0  0  0  0  0  0  0  0  0  0  0  0
    0.0522   -0.6204    2.3098 H   0  0  0  0  0  0  0  0  0  0  0  0
   -1.3920   -1.6329    1.2977 H   0  0  0  0  0  0  0  0  0  0  0  0
   -1.4285   -0.3226   -0.0471 H   0  0  0  0  0  0  0  0  0  0  0  0
   -1.9768    0.0648    1.5970 H   0  0  0  0  0  0  0  0  0  0  0  0
   -0.8254    3.6618    1.4699 H   0  0  0  0  0  0  0  0  0  0  0  0
  1  2  3  0
  2  3  1  0
  3  4  1  0
  4  5  1  0
  5  6  1  0
  5  7  1  0
  7  8  3  0
  1  9  1  0
  3 10  1  0
  3 11  1  0
  5 12  1  0
  6 13  1  0
  6 14  1  0
  6 15  1  0
  8 16  1  0
M  END
