
     RDKit          3D

 14 14  0  0  0  0  0  0  0  0999 V2000
   -1.8426    1.7396   -1.7190 C   0  0  0  0  0  0  0  0  0  0  0  0
   -1.5380    0.2588   -1.4965 C   0  0  0  0  0  0  0  0  0  0  0  0
   -1.2334   -1.1093   -1.2974 C   0  0  0  0  0  0  0  0  0  0  0  0
   -1.9506   -1.3510    0.0819 O   0  0  0  0  0  0  0  0  0  0  0  0
   -0.5864   -1.6418   -0.1708 C   0  0  0  0  0  0  0  0  0  0  0  0
    0.3958   -0.7149    0.4727 C   0  0  0  0  0  0  0  0  0  0  0  0
    1.2560    0.0926    1.0292 C   0  0  0  0  0  0  0  0  0  0  0  0
    2.2435    1.0399    1.6517 C   0  0  0  0  0  0  0  0  0  0  0  0
   -2.0096    2.5913   -1.8571 H   0  0  0  0  0  0  0  0  0  0  0  0
   -1.9420   -1.7711   -1.9219 H   0  0  0  0  0  0  0  0  0  0  0  0
   -0.3555   -2.6924    0.0017 H   0  0  0  0  0  0  0  0  0  0  0  0
    2.8051    0.4471    2.4081 H   0  0  0  0  0  0  0  0  0  0  0  0
    1.7492    1.9077    1.9398 H   0  0  0  0  0  0  0  0  0  0  0  0
    3.0086    1.2034    0.7690 H   0  0  0  0  0  0  0  0  0  0  0  0
  1  2  3  0
  2  3  1  0
  3  4  1  0
  4  5  1  0
  5  6  1  0
  6  7  3  0
  7  8  1  0
  5  3  1  0
  1  9  1  0
  3 10  1  0
  5 11  1  0
  8 12  1  0
  8 13  1  0
  8 14  1  0
M  END
