
     RDKit          3D

 23 23  0  0  0  0  0  0  0  0999 V2000
    3.5136   -0.9560    1.4338 C   0  0  0  0  0  0  0  0  0  0  0  0
    2.4934   -0.4105    1.1507 C   0  0  0  0  0  0  0  0  0  0  0  0
    1.2770    0.2664    0.8107 C   0  0  0  0  0  0  0  0  0  0  0  0
    0.8979    0.0276   -0.6959 C   0  0  0  0  0  0  0  0  0  0  0  0
   -0.5179    0.2571   -0.1809 C   0  0  0  0  0  0  0  0  0  0  0  0
   -0.7094    1.7246    0.1233 C   0  0  0  0  0  0  0  0  0  0  0  0
   -1.6228   -0.3857   -0.9243 C   0  0  0  0  0  0  0  0  0  0  0  0
   -1.6046   -1.8613   -0.9934 C   0  0  0  0  0  0  0  0  0  0  0  0
   -0.0136   -0.4681    1.0757 C   0  0  0  0  0  0  0  0  0  0  0  0
    4.4848   -1.4582    1.6934 H   0  0  0  0  0  0  0  0  0  0  0  0
    1.2358    1.3369    1.0129 H   0  0  0  0  0  0  0  0  0  0  0  0
    1.0829   -1.0117   -1.0026 H   0  0  0  0  0  0  0  0  0  0  0  0
    1.2586    0.8437   -1.3447 H   0  0  0  0  0  0  0  0  0  0  0  0
    0.1517    2.3037   -0.3364 H   0  0  0  0  0  0  0  0  0  0  0  0
   -0.6800    1.9184    1.2064 H   0  0  0  0  0  0  0  0  0  0  0  0
   -1.6167    2.1707   -0.2940 H   0  0  0  0  0  0  0  0  0  0  0  0
   -2.6067    0.0329   -0.6117 H   0  0  0  0  0  0  0  0  0  0  0  0
   -1.5211   -0.0211   -2.0001 H   0  0  0  0  0  0  0  0  0  0  0  0
   -1.4066   -2.3950   -0.0373 H   0  0  0  0  0  0  0  0  0  0  0  0
   -0.9551   -2.2806   -1.7713 H   0  0  0  0  0  0  0  0  0  0  0  0
   -2.6775   -2.1846   -1.2270 H   0  0  0  0  0  0  0  0  0  0  0  0
   -0.5335   -0.1556    1.9729 H   0  0  0  0  0  0  0  0  0  0  0  0
    0.0697   -1.5759    0.9397 H   0  0  0  0  0  0  0  0  0  0  0  0
  1  2  3  0
  2  3  1  0
  3  4  1  0
  4  5  1  0
  5  6  1  0
  5  7  1  0
  7  8  1  0
  5  9  1  0
  9  3  1  0
  1 10  1  0
  3 11  1  0
  4 12  1  0
  4 13  1  0
  6 14  1  0
  6 15  1  0
  6 16  1  0
  7 17  1  0
  7 18  1  0
  8 19  1  0
  8 20  1  0
  8 21  1  0
  9 22  1  0
  9 23  1  0
M  END
