
     RDKit          3D

 19 19  0  0  0  0  0  0  0  0999 V2000
    2.9225    2.7308   -0.7746 C   0  0  0  0  0  0  0  0  0  0  0  0
    2.1469    1.8591   -0.9152 C   0  0  0  0  0  0  0  0  0  0  0  0
    1.1676    0.7224   -1.0934 C   0  0  0  0  0  0  0  0  0  0  0  0
    0.1379    0.6702   -0.4701 O   0  0  0  0  0  0  0  0  0  0  0  0
   -0.9569    0.6356    0.1773 C   0  0  0  0  0  0  0  0  0  0  0  0
   -0.9237   -0.7569    0.8931 C   0  0  0  0  0  0  0  0  0  0  0  0
   -1.1526   -1.8961   -0.0494 C   0  0  0  0  0  0  0  0  0  0  0  0
   -0.9761   -0.7994    2.2940 C   0  0  0  0  0  0  0  0  0  0  0  0
    0.2459   -0.9719    1.6936 O   0  0  0  0  0  0  0  0  0  0  0  0
    3.6738    3.5983   -0.6496 H   0  0  0  0  0  0  0  0  0  0  0  0
    1.8835   -0.2260   -0.8767 H   0  0  0  0  0  0  0  0  0  0  0  0
    1.0622    0.6349   -2.2533 H   0  0  0  0  0  0  0  0  0  0  0  0
   -1.0662    1.4014    1.0057 H   0  0  0  0  0  0  0  0  0  0  0  0
   -1.9548    0.6566   -0.3193 H   0  0  0  0  0  0  0  0  0  0  0  0
   -0.5588   -1.8604   -0.9825 H   0  0  0  0  0  0  0  0  0  0  0  0
   -2.2410   -2.0083   -0.2775 H   0  0  0  0  0  0  0  0  0  0  0  0
   -0.8892   -2.8555    0.4919 H   0  0  0  0  0  0  0  0  0  0  0  0
   -1.4633   -1.6838    2.8051 H   0  0  0  0  0  0  0  0  0  0  0  0
   -1.0578    0.1489    2.8792 H   0  0  0  0  0  0  0  0  0  0  0  0
  1  2  3  0
  2  3  1  0
  3  4  1  0
  4  5  1  0
  5  6  1  0
  6  7  1  0
  6  8  1  0
  8  9  1  0
  9  6  1  0
  1 10  1  0
  3 11  1  0
  3 12  1  0
  5 13  1  0
  5 14  1  0
  7 15  1  0
  7 16  1  0
  7 17  1  0
  8 18  1  0
  8 19  1  0
M  END
