
     RDKit          3D

 15 16  0  0  0  0  0  0  0  0999 V2000
    2.4739    0.3616   -1.5520 C   0  0  0  0  0  0  0  0  0  0  0  0
    1.6820    0.2508   -0.6517 C   0  0  0  0  0  0  0  0  0  0  0  0
    0.7458    0.0998    0.4289 C   0  0  0  0  0  0  0  0  0  0  0  0
    0.0463   -1.2406    0.2762 C   0  0  0  0  0  0  0  0  0  0  0  0
    0.5670   -2.3201    0.3039 O   0  0  0  0  0  0  0  0  0  0  0  0
   -1.3501   -0.7720    0.1016 C   0  0  0  0  0  0  0  0  0  0  0  0
   -1.2400    0.3273   -0.9203 C   0  0  0  0  0  0  0  0  0  0  0  0
   -0.5044    0.9376    0.2632 C   0  0  0  0  0  0  0  0  0  0  0  0
   -1.4085    0.2488    1.0714 O   0  0  0  0  0  0  0  0  0  0  0  0
    3.1958    0.4668   -2.3473 H   0  0  0  0  0  0  0  0  0  0  0  0
    1.1628    0.1184    1.4313 H   0  0  0  0  0  0  0  0  0  0  0  0
   -2.1438   -1.4689    0.0525 H   0  0  0  0  0  0  0  0  0  0  0  0
   -2.1679    0.8936   -1.0892 H   0  0  0  0  0  0  0  0  0  0  0  0
   -0.6208    0.1024   -1.7965 H   0  0  0  0  0  0  0  0  0  0  0  0
   -0.4380    1.9947    0.3331 H   0  0  0  0  0  0  0  0  0  0  0  0
  1  2  3  0
  2  3  1  0
  3  4  1  0
  4  5  2  0
  4  6  1  0
  6  7  1  0
  7  8  1  0
  8  9  1  0
  8  3  1  0
  9  6  1  0
  1 10  1  0
  3 11  1  0
  6 12  1  0
  7 13  1  0
  7 14  1  0
  8 15  1  0
M  END
