
     RDKit          3D

 12 11  0  0  0  0  0  0  0  0999 V2000
    0.7252    2.4726   -0.7037 C   0  0  0  0  0  0  0  0  0  0  0  0
    0.3392    1.3380   -0.5171 C   0  0  0  0  0  0  0  0  0  0  0  0
   -0.1273   -0.0264   -0.2674 C   0  0  0  0  0  0  0  0  0  0  0  0
   -1.5619   -0.1784   -0.6082 C   0  0  0  0  0  0  0  0  0  0  0  0
   -2.3618   -0.5980    0.2098 O   0  0  0  0  0  0  0  0  0  0  0  0
    0.0637   -0.4293    1.0521 O   0  0  0  0  0  0  0  0  0  0  0  0
    0.8604   -1.5089    1.4092 C   0  0  0  0  0  0  0  0  0  0  0  0
    1.4201   -2.1252    0.4433 O   0  0  0  0  0  0  0  0  0  0  0  0
    1.0772    3.4672   -0.8630 H   0  0  0  0  0  0  0  0  0  0  0  0
    0.4379   -0.6784   -0.9890 H   0  0  0  0  0  0  0  0  0  0  0  0
   -1.8842    0.0929   -1.6045 H   0  0  0  0  0  0  0  0  0  0  0  0
    1.0115   -1.8259    2.4384 H   0  0  0  0  0  0  0  0  0  0  0  0
  1  2  3  0
  2  3  1  0
  3  4  1  0
  4  5  2  0
  3  6  1  0
  6  7  1  0
  7  8  2  0
  1  9  1  0
  3 10  1  0
  4 11  1  0
  7 12  1  0
M  END
