
     RDKit          3D

 19 19  0  0  0  0  0  0  0  0999 V2000
    0.5465    2.6502    1.1477 C   0  0  0  0  0  0  0  0  0  0  0  0
    0.0602    1.6632    0.7241 C   0  0  0  0  0  0  0  0  0  0  0  0
   -0.5422    0.4422    0.1724 C   0  0  0  0  0  0  0  0  0  0  0  0
   -1.6612    0.0479    0.8897 O   0  0  0  0  0  0  0  0  0  0  0  0
   -0.8949    0.6368   -1.2811 C   0  0  0  0  0  0  0  0  0  0  0  0
   -0.9201   -0.8244   -1.7604 C   0  0  0  0  0  0  0  0  0  0  0  0
    0.2251   -1.3761   -0.9697 C   0  0  0  0  0  0  0  0  0  0  0  0
    0.4414   -0.6683    0.1166 C   0  0  0  0  0  0  0  0  0  0  0  0
    1.5187   -0.9441    1.1461 C   0  0  0  0  0  0  0  0  0  0  0  0
    0.9907    3.5702    1.5596 H   0  0  0  0  0  0  0  0  0  0  0  0
   -1.3938   -0.2019    1.8135 H   0  0  0  0  0  0  0  0  0  0  0  0
   -1.8849    1.1089   -1.4282 H   0  0  0  0  0  0  0  0  0  0  0  0
   -0.0639    1.1214   -1.8036 H   0  0  0  0  0  0  0  0  0  0  0  0
   -1.8847   -1.2630   -1.4700 H   0  0  0  0  0  0  0  0  0  0  0  0
   -0.7223   -0.8733   -2.8485 H   0  0  0  0  0  0  0  0  0  0  0  0
    0.8038   -2.2648   -1.2726 H   0  0  0  0  0  0  0  0  0  0  0  0
    1.0910   -1.2961    2.0901 H   0  0  0  0  0  0  0  0  0  0  0  0
    2.0044    0.0535    1.3300 H   0  0  0  0  0  0  0  0  0  0  0  0
    2.2862   -1.5824    0.7142 H   0  0  0  0  0  0  0  0  0  0  0  0
  1  2  3  0
  2  3  1  0
  3  4  1  0
  3  5  1  0
  5  6  1  0
  6  7  1  0
  7  8  2  0
  8  9  1  0
  8  3  1  0
  1 10  1  0
  4 11  1  0
  5 12  1  0
  5 13  1  0
  6 14  1  0
  6 15  1  0
  7 16  1  0
  9 17  1  0
  9 18  1  0
  9 19  1  0
M  END
