
     RDKit          3D

 17 18  0  0  0  0  0  0  0  0999 V2000
    3.0329   -0.6179   -0.7690 C   0  0  0  0  0  0  0  0  0  0  0  0
    1.8676   -0.6240   -0.5842 C   0  0  0  0  0  0  0  0  0  0  0  0
    0.4033   -0.6566   -0.3564 C   0  0  0  0  0  0  0  0  0  0  0  0
   -0.0339    0.0872    0.8749 C   0  0  0  0  0  0  0  0  0  0  0  0
    0.4109    1.3300    0.1544 C   0  0  0  0  0  0  0  0  0  0  0  0
   -0.3275    0.5324   -0.9000 C   0  0  0  0  0  0  0  0  0  0  0  0
   -1.3441    0.3023    0.1777 C   0  0  0  0  0  0  0  0  0  0  0  0
   -2.2366   -0.8362    0.0328 C   0  0  0  0  0  0  0  0  0  0  0  0
   -1.9552   -1.7817    0.8661 O   0  0  0  0  0  0  0  0  0  0  0  0
    4.1107   -0.6078   -0.9588 H   0  0  0  0  0  0  0  0  0  0  0  0
   -0.0008   -1.6517   -0.5324 H   0  0  0  0  0  0  0  0  0  0  0  0
    0.1120   -0.1517    1.8328 H   0  0  0  0  0  0  0  0  0  0  0  0
   -0.2086    2.1877    0.4825 H   0  0  0  0  0  0  0  0  0  0  0  0
    1.4811    1.4864    0.0078 H   0  0  0  0  0  0  0  0  0  0  0  0
   -0.4727    0.7916   -1.8544 H   0  0  0  0  0  0  0  0  0  0  0  0
   -1.8024    1.2720    0.4680 H   0  0  0  0  0  0  0  0  0  0  0  0
   -3.0368   -1.0620   -0.5753 H   0  0  0  0  0  0  0  0  0  0  0  0
  1  2  3  0
  2  3  1  0
  3  4  1  0
  4  5  1  0
  5  6  1  0
  6  7  1  0
  7  8  1  0
  8  9  2  0
  6  3  1  0
  7  4  1  0
  1 10  1  0
  3 11  1  0
  4 12  1  0
  5 13  1  0
  5 14  1  0
  6 15  1  0
  7 16  1  0
  8 17  1  0
M  END
