
     RDKit          3D

 19 19  0  0  0  0  0  0  0  0999 V2000
    3.4078    0.5374   -0.9603 C   0  0  0  0  0  0  0  0  0  0  0  0
    2.2752    0.4978   -0.6072 C   0  0  0  0  0  0  0  0  0  0  0  0
    0.8996    0.4621   -0.1933 C   0  0  0  0  0  0  0  0  0  0  0  0
    0.6316   -0.6077    0.8759 C   0  0  0  0  0  0  0  0  0  0  0  0
   -0.7213   -0.1868    1.4644 C   0  0  0  0  0  0  0  0  0  0  0  0
   -1.8199   -0.2789    0.4699 C   0  0  0  0  0  0  0  0  0  0  0  0
   -1.4898    0.0586   -0.9350 C   0  0  0  0  0  0  0  0  0  0  0  0
   -0.0691    0.1746   -1.2767 C   0  0  0  0  0  0  0  0  0  0  0  0
    0.3086    0.0392   -2.4169 O   0  0  0  0  0  0  0  0  0  0  0  0
    4.4349    0.5573   -1.2902 H   0  0  0  0  0  0  0  0  0  0  0  0
    0.5914    1.4551    0.2353 H   0  0  0  0  0  0  0  0  0  0  0  0
    0.5445   -1.5590    0.3040 H   0  0  0  0  0  0  0  0  0  0  0  0
    1.3905   -0.6189    1.6505 H   0  0  0  0  0  0  0  0  0  0  0  0
   -0.5541    0.8578    1.8446 H   0  0  0  0  0  0  0  0  0  0  0  0
   -0.9274   -0.8577    2.3156 H   0  0  0  0  0  0  0  0  0  0  0  0
   -2.6232    0.4466    0.8013 H   0  0  0  0  0  0  0  0  0  0  0  0
   -2.3067   -1.2794    0.5802 H   0  0  0  0  0  0  0  0  0  0  0  0
   -1.9769    1.0201   -1.2785 H   0  0  0  0  0  0  0  0  0  0  0  0
   -1.9958   -0.7182   -1.5836 H   0  0  0  0  0  0  0  0  0  0  0  0
  1  2  3  0
  2  3  1  0
  3  4  1  0
  4  5  1  0
  5  6  1  0
  6  7  1  0
  7  8  1  0
  8  9  2  0
  8  3  1  0
  1 10  1  0
  3 11  1  0
  4 12  1  0
  4 13  1  0
  5 14  1  0
  5 15  1  0
  6 16  1  0
  6 17  1  0
  7 18  1  0
  7 19  1  0
M  END
