
     RDKit          3D

 15 14  0  0  0  0  0  0  0  0999 V2000
   -1.4598   -0.8059    2.3669 C   0  0  0  0  0  0  0  0  0  0  0  0
   -1.1513   -1.0503    1.2335 C   0  0  0  0  0  0  0  0  0  0  0  0
   -0.7678   -1.3737   -0.1475 C   0  0  0  0  0  0  0  0  0  0  0  0
    0.6734   -1.0806   -0.3777 C   0  0  0  0  0  0  0  0  0  0  0  0
    1.0751    0.2337   -0.1867 O   0  0  0  0  0  0  0  0  0  0  0  0
    0.5457    1.2714   -0.9311 C   0  0  0  0  0  0  0  0  0  0  0  0
   -0.3241    0.9288   -1.7917 O   0  0  0  0  0  0  0  0  0  0  0  0
    0.9392    2.6645   -0.7607 C   0  0  0  0  0  0  0  0  0  0  0  0
    1.8034    2.8984    0.1133 O   0  0  0  0  0  0  0  0  0  0  0  0
   -1.7254   -0.5773    3.3837 H   0  0  0  0  0  0  0  0  0  0  0  0
   -0.9358   -2.4838   -0.2700 H   0  0  0  0  0  0  0  0  0  0  0  0
   -1.4223   -0.9058   -0.8975 H   0  0  0  0  0  0  0  0  0  0  0  0
    1.2544   -1.7086    0.3620 H   0  0  0  0  0  0  0  0  0  0  0  0
    0.9471   -1.4988   -1.3729 H   0  0  0  0  0  0  0  0  0  0  0  0
    0.5482    3.4879   -1.3205 H   0  0  0  0  0  0  0  0  0  0  0  0
  1  2  3  0
  2  3  1  0
  3  4  1  0
  4  5  1  0
  5  6  1  0
  6  7  2  0
  6  8  1  0
  8  9  2  0
  1 10  1  0
  3 11  1  0
  3 12  1  0
  4 13  1  0
  4 14  1  0
  8 15  1  0
M  END
