
     RDKit          3D

 19 20  0  0  0  0  0  0  0  0999 V2000
    4.0281    0.8820    0.7477 C   0  0  0  0  0  0  0  0  0  0  0  0
    2.9296    1.0223    0.4270 C   0  0  0  0  0  0  0  0  0  0  0  0
    1.6033    1.1961    0.0241 C   0  0  0  0  0  0  0  0  0  0  0  0
    0.8153   -0.0637   -0.0154 C   0  0  0  0  0  0  0  0  0  0  0  0
   -0.5849    0.0385   -0.4350 C   0  0  0  0  0  0  0  0  0  0  0  0
   -1.4663    0.8653    0.2728 O   0  0  0  0  0  0  0  0  0  0  0  0
   -2.3667   -0.0501   -0.2898 C   0  0  0  0  0  0  0  0  0  0  0  0
   -2.8707   -1.2326    0.2642 C   0  0  0  0  0  0  0  0  0  0  0  0
   -1.4179   -1.0471    0.3877 C   0  0  0  0  0  0  0  0  0  0  0  0
    5.2211    0.7134    1.1118 H   0  0  0  0  0  0  0  0  0  0  0  0
    1.6300    1.6022   -1.0743 H   0  0  0  0  0  0  0  0  0  0  0  0
    1.0817    2.0046    0.5758 H   0  0  0  0  0  0  0  0  0  0  0  0
    0.8882   -0.6578    0.9176 H   0  0  0  0  0  0  0  0  0  0  0  0
    1.3216   -0.7296   -0.8157 H   0  0  0  0  0  0  0  0  0  0  0  0
   -0.7328   -0.1010   -1.5036 H   0  0  0  0  0  0  0  0  0  0  0  0
   -2.3536    0.0845   -1.3805 H   0  0  0  0  0  0  0  0  0  0  0  0
   -3.5618   -1.1687    1.1544 H   0  0  0  0  0  0  0  0  0  0  0  0
   -3.2185   -2.0556   -0.3987 H   0  0  0  0  0  0  0  0  0  0  0  0
   -0.9458   -1.9531    0.0299 H   0  0  0  0  0  0  0  0  0  0  0  0
  1  2  3  0
  2  3  1  0
  3  4  1  0
  4  5  1  0
  5  6  1  0
  6  7  1  0
  7  8  1  0
  8  9  1  0
  9  5  1  0
  9  7  1  0
  1 10  1  0
  3 11  1  0
  3 12  1  0
  4 13  1  0
  4 14  1  0
  5 15  1  0
  7 16  1  0
  8 17  1  0
  8 18  1  0
  9 19  1  0
M  END
