
     RDKit          3D

 19 20  0  0  0  0  0  0  0  0999 V2000
    3.0123   -1.3317    0.1407 C   0  0  0  0  0  0  0  0  0  0  0  0
    1.8591   -0.8168    0.1839 C   0  0  0  0  0  0  0  0  0  0  0  0
    0.6398   -0.2562    0.2117 C   0  0  0  0  0  0  0  0  0  0  0  0
    0.5774    1.0771    0.9539 C   0  0  0  0  0  0  0  0  0  0  0  0
   -0.6046    1.5840    0.6275 C   0  0  0  0  0  0  0  0  0  0  0  0
   -1.0711    0.9394   -0.6146 C   0  0  0  0  0  0  0  0  0  0  0  0
   -1.7229   -0.3843   -0.2470 C   0  0  0  0  0  0  0  0  0  0  0  0
   -0.5808   -1.0723    0.5082 C   0  0  0  0  0  0  0  0  0  0  0  0
    0.2121    0.3554   -1.1655 C   0  0  0  0  0  0  0  0  0  0  0  0
    4.0031   -1.7940    0.0991 H   0  0  0  0  0  0  0  0  0  0  0  0
    1.3538    1.4844    1.5834 H   0  0  0  0  0  0  0  0  0  0  0  0
   -1.1287    2.3593    1.2210 H   0  0  0  0  0  0  0  0  0  0  0  0
   -1.6034    1.5698   -1.3002 H   0  0  0  0  0  0  0  0  0  0  0  0
   -2.6010   -0.2393    0.4183 H   0  0  0  0  0  0  0  0  0  0  0  0
   -2.0419   -0.9643   -1.0958 H   0  0  0  0  0  0  0  0  0  0  0  0
   -0.7934   -0.9555    1.6119 H   0  0  0  0  0  0  0  0  0  0  0  0
   -0.4439   -2.1226    0.2423 H   0  0  0  0  0  0  0  0  0  0  0  0
    0.9333    1.0715   -1.5321 H   0  0  0  0  0  0  0  0  0  0  0  0
    0.0008   -0.5038   -1.8468 H   0  0  0  0  0  0  0  0  0  0  0  0
  1  2  3  0
  2  3  1  0
  3  4  1  0
  4  5  2  0
  5  6  1  0
  6  7  1  0
  7  8  1  0
  6  9  1  0
  8  3  1  0
  9  3  1  0
  1 10  1  0
  4 11  1  0
  5 12  1  0
  6 13  1  0
  7 14  1  0
  7 15  1  0
  8 16  1  0
  8 17  1  0
  9 18  1  0
  9 19  1  0
M  END
