
     RDKit          3D

 21 21  0  0  0  0  0  0  0  0999 V2000
    2.8421   -1.6351    1.0673 C   0  0  0  0  0  0  0  0  0  0  0  0
    2.0288   -1.0787    0.3166 C   0  0  0  0  0  0  0  0  0  0  0  0
    1.0906   -0.4325   -0.5209 C   0  0  0  0  0  0  0  0  0  0  0  0
    1.8269    0.3939   -1.5479 C   0  0  0  0  0  0  0  0  0  0  0  0
    0.1944    0.5326    0.2312 C   0  0  0  0  0  0  0  0  0  0  0  0
   -0.7022    1.1133   -0.8367 O   0  0  0  0  0  0  0  0  0  0  0  0
   -1.2331    0.4086    0.2303 C   0  0  0  0  0  0  0  0  0  0  0  0
   -1.8067   -0.9787   -0.0487 C   0  0  0  0  0  0  0  0  0  0  0  0
   -2.0840    1.2521    1.1466 C   0  0  0  0  0  0  0  0  0  0  0  0
    3.5190   -2.1110    1.7165 H   0  0  0  0  0  0  0  0  0  0  0  0
    0.4687   -1.1641   -1.1070 H   0  0  0  0  0  0  0  0  0  0  0  0
    2.9105    0.4822   -1.2190 H   0  0  0  0  0  0  0  0  0  0  0  0
    1.4143    1.4509   -1.5427 H   0  0  0  0  0  0  0  0  0  0  0  0
    1.7058   -0.0570   -2.5312 H   0  0  0  0  0  0  0  0  0  0  0  0
    0.7380    1.3151    0.7546 H   0  0  0  0  0  0  0  0  0  0  0  0
   -2.9312   -0.8991   -0.0805 H   0  0  0  0  0  0  0  0  0  0  0  0
   -1.5294   -1.2845   -1.0796 H   0  0  0  0  0  0  0  0  0  0  0  0
   -1.5554   -1.7179    0.7273 H   0  0  0  0  0  0  0  0  0  0  0  0
   -2.4660    0.6163    1.9728 H   0  0  0  0  0  0  0  0  0  0  0  0
   -1.4897    2.0521    1.6767 H   0  0  0  0  0  0  0  0  0  0  0  0
   -2.9411    1.7415    0.6741 H   0  0  0  0  0  0  0  0  0  0  0  0
  1  2  3  0
  2  3  1  0
  3  4  1  0
  3  5  1  0
  5  6  1  0
  6  7  1  0
  7  8  1  0
  7  9  1  0
  7  5  1  0
  1 10  1  0
  3 11  1  0
  4 12  1  0
  4 13  1  0
  4 14  1  0
  5 15  1  0
  8 16  1  0
  8 17  1  0
  8 18  1  0
  9 19  1  0
  9 20  1  0
  9 21  1  0
M  END
