
     RDKit          3D

 17 17  0  0  0  0  0  0  0  0999 V2000
    2.9139    0.9942    0.5228 C   0  0  0  0  0  0  0  0  0  0  0  0
    1.7846    0.5545    0.6229 C   0  0  0  0  0  0  0  0  0  0  0  0
    0.4239    0.0212    0.7690 C   0  0  0  0  0  0  0  0  0  0  0  0
   -0.4532    1.0917    1.2812 C   0  0  0  0  0  0  0  0  0  0  0  0
   -0.2775    1.6675    2.3751 O   0  0  0  0  0  0  0  0  0  0  0  0
   -1.4741    1.3619    0.3997 O   0  0  0  0  0  0  0  0  0  0  0  0
   -1.2470    0.6803   -0.8354 C   0  0  0  0  0  0  0  0  0  0  0  0
   -0.1644   -0.3128   -0.5834 C   0  0  0  0  0  0  0  0  0  0  0  0
   -0.7293   -1.7164   -0.6057 C   0  0  0  0  0  0  0  0  0  0  0  0
    3.9044    1.3619    0.4281 H   0  0  0  0  0  0  0  0  0  0  0  0
    0.4690   -0.8575    1.4396 H   0  0  0  0  0  0  0  0  0  0  0  0
   -0.9282    1.3914   -1.6245 H   0  0  0  0  0  0  0  0  0  0  0  0
   -2.2018    0.2241   -1.1707 H   0  0  0  0  0  0  0  0  0  0  0  0
    0.6569   -0.2854   -1.3117 H   0  0  0  0  0  0  0  0  0  0  0  0
    0.0681   -2.4877   -0.5807 H   0  0  0  0  0  0  0  0  0  0  0  0
   -1.3138   -1.8443    0.3217 H   0  0  0  0  0  0  0  0  0  0  0  0
   -1.4315   -1.8447   -1.4479 H   0  0  0  0  0  0  0  0  0  0  0  0
  1  2  3  0
  2  3  1  0
  3  4  1  0
  4  5  2  0
  4  6  1  0
  6  7  1  0
  7  8  1  0
  8  9  1  0
  8  3  1  0
  1 10  1  0
  3 11  1  0
  7 12  1  0
  7 13  1  0
  8 14  1  0
  9 15  1  0
  9 16  1  0
  9 17  1  0
M  END
