
     RDKit          3D

 21 20  0  0  0  0  0  0  0  0999 V2000
    0.3714    2.8900   -0.5880 C   0  0  0  0  0  0  0  0  0  0  0  0
    0.0401    1.7486   -0.4097 C   0  0  0  0  0  0  0  0  0  0  0  0
   -0.3676    0.3442   -0.1641 C   0  0  0  0  0  0  0  0  0  0  0  0
   -1.7415    0.2431   -0.3488 C   0  0  0  0  0  0  0  0  0  0  0  0
   -3.0510    0.1458   -0.5478 C   0  0  0  0  0  0  0  0  0  0  0  0
   -0.0417    0.0136    1.2845 C   0  0  0  0  0  0  0  0  0  0  0  0
    1.4092    0.1476    1.6075 C   0  0  0  0  0  0  0  0  0  0  0  0
    0.4349   -0.4992   -1.1117 C   0  0  0  0  0  0  0  0  0  0  0  0
    0.1531   -1.9563   -1.0263 C   0  0  0  0  0  0  0  0  0  0  0  0
    0.6827    3.9366   -0.7339 H   0  0  0  0  0  0  0  0  0  0  0  0
   -4.0423    0.0862   -0.6925 H   0  0  0  0  0  0  0  0  0  0  0  0
   -0.5014   -0.9361    1.5677 H   0  0  0  0  0  0  0  0  0  0  0  0
   -0.5711    0.8051    1.8963 H   0  0  0  0  0  0  0  0  0  0  0  0
    2.0584   -0.6421    1.1905 H   0  0  0  0  0  0  0  0  0  0  0  0
    1.7268    1.1742    1.3357 H   0  0  0  0  0  0  0  0  0  0  0  0
    1.4909    0.0056    2.7261 H   0  0  0  0  0  0  0  0  0  0  0  0
    1.5156   -0.3778   -0.7782 H   0  0  0  0  0  0  0  0  0  0  0  0
    0.3986   -0.0860   -2.1225 H   0  0  0  0  0  0  0  0  0  0  0  0
    0.4344   -2.4334   -0.0911 H   0  0  0  0  0  0  0  0  0  0  0  0
    0.5675   -2.5176   -1.8896 H   0  0  0  0  0  0  0  0  0  0  0  0
   -0.9671   -2.0920   -1.1040 H   0  0  0  0  0  0  0  0  0  0  0  0
  1  2  3  0
  2  3  1  0
  3  4  1  0
  4  5  3  0
  3  6  1  0
  6  7  1  0
  3  8  1  0
  8  9  1  0
  1 10  1  0
  5 11  1  0
  6 12  1  0
  6 13  1  0
  7 14  1  0
  7 15  1  0
  7 16  1  0
  8 17  1  0
  8 18  1  0
  9 19  1  0
  9 20  1  0
  9 21  1  0
M  END
