
     RDKit          3D

 16 17  0  0  0  0  0  0  0  0999 V2000
    2.5219    0.8744    1.0192 C   0  0  0  0  0  0  0  0  0  0  0  0
    1.7097    0.3814    0.2732 C   0  0  0  0  0  0  0  0  0  0  0  0
    0.7503   -0.2293   -0.6111 C   0  0  0  0  0  0  0  0  0  0  0  0
   -0.5016    0.6246   -0.8422 C   0  0  0  0  0  0  0  0  0  0  0  0
   -0.8753    0.9718    0.5348 C   0  0  0  0  0  0  0  0  0  0  0  0
   -0.7164   -0.2041    1.1943 C   0  0  0  0  0  0  0  0  0  0  0  0
   -0.2297   -1.1034    0.1295 C   0  0  0  0  0  0  0  0  0  0  0  0
   -1.1947   -0.7336   -1.0084 C   0  0  0  0  0  0  0  0  0  0  0  0
    3.2308    1.3234    1.6902 H   0  0  0  0  0  0  0  0  0  0  0  0
    1.1649   -0.6894   -1.5153 H   0  0  0  0  0  0  0  0  0  0  0  0
   -0.5175    1.3073   -1.6322 H   0  0  0  0  0  0  0  0  0  0  0  0
   -1.1891    1.9246    0.8906 H   0  0  0  0  0  0  0  0  0  0  0  0
   -0.9170   -0.3704    2.2464 H   0  0  0  0  0  0  0  0  0  0  0  0
   -0.0273   -2.1187    0.3054 H   0  0  0  0  0  0  0  0  0  0  0  0
   -2.2465   -0.7366   -0.7070 H   0  0  0  0  0  0  0  0  0  0  0  0
   -0.9626   -1.2220   -1.9673 H   0  0  0  0  0  0  0  0  0  0  0  0
  1  2  3  0
  2  3  1  0
  3  4  1  0
  4  5  1  0
  5  6  2  0
  6  7  1  0
  7  8  1  0
  7  3  1  0
  8  4  1  0
  1  9  1  0
  3 10  1  0
  4 11  1  0
  5 12  1  0
  6 13  1  0
  7 14  1  0
  8 15  1  0
  8 16  1  0
M  END
