
     RDKit          3D

 16 15  0  0  0  0  0  0  0  0999 V2000
    3.4336    2.1626    0.3599 C   0  0  0  0  0  0  0  0  0  0  0  0
    2.6221    1.2911    0.1703 C   0  0  0  0  0  0  0  0  0  0  0  0
    1.6487    0.2520   -0.0313 C   0  0  0  0  0  0  0  0  0  0  0  0
    1.9874   -0.9156   -0.3802 O   0  0  0  0  0  0  0  0  0  0  0  0
    0.2805    0.4596    0.1425 O   0  0  0  0  0  0  0  0  0  0  0  0
   -0.6560   -0.5976   -0.0672 C   0  0  0  0  0  0  0  0  0  0  0  0
   -1.5567   -0.1321   -1.2045 C   0  0  0  0  0  0  0  0  0  0  0  0
   -1.4526   -0.9004    1.1755 C   0  0  0  0  0  0  0  0  0  0  0  0
    4.1585    2.9452    0.5181 H   0  0  0  0  0  0  0  0  0  0  0  0
   -0.1451   -1.5366   -0.3682 H   0  0  0  0  0  0  0  0  0  0  0  0
   -1.1549   -0.4419   -2.1974 H   0  0  0  0  0  0  0  0  0  0  0  0
   -2.5681   -0.5776   -1.0958 H   0  0  0  0  0  0  0  0  0  0  0  0
   -1.6735    0.9648   -1.2191 H   0  0  0  0  0  0  0  0  0  0  0  0
   -1.5657    0.0094    1.7937 H   0  0  0  0  0  0  0  0  0  0  0  0
   -2.4313   -1.3098    0.8437 H   0  0  0  0  0  0  0  0  0  0  0  0
   -0.9270   -1.6731    1.7419 H   0  0  0  0  0  0  0  0  0  0  0  0
  1  2  3  0
  2  3  1  0
  3  4  2  0
  3  5  1  0
  5  6  1  0
  6  7  1  0
  6  8  1  0
  1  9  1  0
  6 10  1  0
  7 11  1  0
  7 12  1  0
  7 13  1  0
  8 14  1  0
  8 15  1  0
  8 16  1  0
M  END
