
     RDKit          3D

 17 18  0  0  0  0  0  0  0  0999 V2000
   -3.4918   -1.1840    0.2043 C   0  0  0  0  0  0  0  0  0  0  0  0
   -2.5779   -0.4197   -0.0121 C   0  0  0  0  0  0  0  0  0  0  0  0
   -1.4476    0.4975   -0.2620 C   0  0  0  0  0  0  0  0  0  0  0  0
   -0.1707   -0.0720   -0.7469 C   0  0  0  0  0  0  0  0  0  0  0  0
    0.7566    0.8080   -1.2866 O   0  0  0  0  0  0  0  0  0  0  0  0
    1.5833    1.0102   -0.1558 C   0  0  0  0  0  0  0  0  0  0  0  0
    2.1880   -0.3285    0.1652 C   0  0  0  0  0  0  0  0  0  0  0  0
    0.6288    1.4031    0.7823 O   0  0  0  0  0  0  0  0  0  0  0  0
   -0.3522    0.4426    0.7158 C   0  0  0  0  0  0  0  0  0  0  0  0
   -4.2894   -1.8596    0.3767 H   0  0  0  0  0  0  0  0  0  0  0  0
   -1.7718    1.4350   -0.7440 H   0  0  0  0  0  0  0  0  0  0  0  0
    0.0169   -1.1547   -0.8015 H   0  0  0  0  0  0  0  0  0  0  0  0
    2.3042    1.7808   -0.4060 H   0  0  0  0  0  0  0  0  0  0  0  0
    1.6321   -0.8122    0.9990 H   0  0  0  0  0  0  0  0  0  0  0  0
    3.2532   -0.1886    0.3620 H   0  0  0  0  0  0  0  0  0  0  0  0
    2.1093   -1.0444   -0.6967 H   0  0  0  0  0  0  0  0  0  0  0  0
   -0.3709   -0.3135    1.5062 H   0  0  0  0  0  0  0  0  0  0  0  0
  1  2  3  0
  2  3  1  0
  3  4  1  0
  4  5  1  0
  5  6  1  0
  6  7  1  0
  6  8  1  0
  8  9  1  0
  9  3  1  0
  9  4  1  0
  1 10  1  0
  3 11  1  0
  4 12  1  0
  6 13  1  0
  7 14  1  0
  7 15  1  0
  7 16  1  0
  9 17  1  0
M  END
