
     RDKit          3D

 19 19  0  0  0  0  0  0  0  0999 V2000
    3.4094    1.4762   -0.3669 C   0  0  0  0  0  0  0  0  0  0  0  0
    2.3512    0.9963   -0.0408 C   0  0  0  0  0  0  0  0  0  0  0  0
    1.0483    0.4285    0.3427 C   0  0  0  0  0  0  0  0  0  0  0  0
    0.7106   -0.7348   -0.5111 C   0  0  0  0  0  0  0  0  0  0  0  0
   -0.7270   -1.0359   -0.6733 C   0  0  0  0  0  0  0  0  0  0  0  0
   -1.6744   -0.0423   -0.1071 C   0  0  0  0  0  0  0  0  0  0  0  0
   -2.8167   -0.6682    0.4068 O   0  0  0  0  0  0  0  0  0  0  0  0
   -1.0455    0.7922    0.9819 C   0  0  0  0  0  0  0  0  0  0  0  0
    0.0643    1.4204    0.3675 O   0  0  0  0  0  0  0  0  0  0  0  0
    4.3583    1.8880   -0.6656 H   0  0  0  0  0  0  0  0  0  0  0  0
    1.1737    0.1107    1.4158 H   0  0  0  0  0  0  0  0  0  0  0  0
    1.2586   -1.6283   -0.0872 H   0  0  0  0  0  0  0  0  0  0  0  0
    1.1793   -0.5996   -1.5277 H   0  0  0  0  0  0  0  0  0  0  0  0
   -0.9585   -2.0313   -0.1962 H   0  0  0  0  0  0  0  0  0  0  0  0
   -0.9945   -1.1647   -1.7637 H   0  0  0  0  0  0  0  0  0  0  0  0
   -2.0293    0.6516   -0.9110 H   0  0  0  0  0  0  0  0  0  0  0  0
   -2.9507   -1.5660   -0.0037 H   0  0  0  0  0  0  0  0  0  0  0  0
   -0.6528    0.1271    1.7839 H   0  0  0  0  0  0  0  0  0  0  0  0
   -1.7046    1.5800    1.3392 H   0  0  0  0  0  0  0  0  0  0  0  0
  1  2  3  0
  2  3  1  0
  3  4  1  0
  4  5  1  0
  5  6  1  0
  6  7  1  0
  6  8  1  0
  8  9  1  0
  9  3  1  0
  1 10  1  0
  3 11  1  0
  4 12  1  0
  4 13  1  0
  5 14  1  0
  5 15  1  0
  6 16  1  0
  7 17  1  0
  8 18  1  0
  8 19  1  0
M  END
