
     RDKit          3D

 15 16  0  0  0  0  0  0  0  0999 V2000
    2.0593    2.0288   -0.5005 C   0  0  0  0  0  0  0  0  0  0  0  0
    1.3366    1.0815   -0.5672 C   0  0  0  0  0  0  0  0  0  0  0  0
    0.4815   -0.0744   -0.6470 C   0  0  0  0  0  0  0  0  0  0  0  0
    0.9561   -1.4023   -0.0684 C   0  0  0  0  0  0  0  0  0  0  0  0
   -0.4302   -1.6007    0.4258 C   0  0  0  0  0  0  0  0  0  0  0  0
   -1.0632   -2.4422    1.0365 O   0  0  0  0  0  0  0  0  0  0  0  0
   -0.7652   -0.2727   -0.1604 C   0  0  0  0  0  0  0  0  0  0  0  0
   -1.7376    0.6196    0.5342 C   0  0  0  0  0  0  0  0  0  0  0  0
   -0.5842   -0.0628   -1.5118 O   0  0  0  0  0  0  0  0  0  0  0  0
    2.7202    2.8655   -0.4457 H   0  0  0  0  0  0  0  0  0  0  0  0
    1.7191   -1.2121    0.6992 H   0  0  0  0  0  0  0  0  0  0  0  0
    1.2575   -2.0586   -0.9110 H   0  0  0  0  0  0  0  0  0  0  0  0
   -2.7702    0.2502    0.2946 H   0  0  0  0  0  0  0  0  0  0  0  0
   -1.5706    0.6229    1.6353 H   0  0  0  0  0  0  0  0  0  0  0  0
   -1.6089    1.6574    0.1864 H   0  0  0  0  0  0  0  0  0  0  0  0
  1  2  3  0
  2  3  1  0
  3  4  1  0
  4  5  1  0
  5  6  2  0
  5  7  1  0
  7  8  1  0
  7  9  1  0
  7  3  1  0
  9  3  1  0
  1 10  1  0
  4 11  1  0
  4 12  1  0
  8 13  1  0
  8 14  1  0
  8 15  1  0
M  END
