
     RDKit          3D

 18 18  0  0  0  0  0  0  0  0999 V2000
    2.1464   -1.8855   -0.9333 C   0  0  0  0  0  0  0  0  0  0  0  0
    1.4436   -1.1051   -0.3623 C   0  0  0  0  0  0  0  0  0  0  0  0
    0.5920   -0.1563    0.3026 C   0  0  0  0  0  0  0  0  0  0  0  0
    0.3622   -0.3800    1.6565 O   0  0  0  0  0  0  0  0  0  0  0  0
    0.9499    1.3105    0.1004 C   0  0  0  0  0  0  0  0  0  0  0  0
   -0.5659    1.5574    0.2077 C   0  0  0  0  0  0  0  0  0  0  0  0
   -0.6836    0.2034   -0.4709 C   0  0  0  0  0  0  0  0  0  0  0  0
   -1.8596   -0.6193   -0.1189 C   0  0  0  0  0  0  0  0  0  0  0  0
    2.7839   -2.5771   -1.4622 H   0  0  0  0  0  0  0  0  0  0  0  0
    0.6180   -1.2693    1.9631 H   0  0  0  0  0  0  0  0  0  0  0  0
    1.2529    1.5610   -0.9484 H   0  0  0  0  0  0  0  0  0  0  0  0
    1.5398    1.7707    0.8921 H   0  0  0  0  0  0  0  0  0  0  0  0
   -0.8692    1.5095    1.2770 H   0  0  0  0  0  0  0  0  0  0  0  0
   -0.9199    2.4081   -0.3733 H   0  0  0  0  0  0  0  0  0  0  0  0
   -0.4159    0.3030   -1.5381 H   0  0  0  0  0  0  0  0  0  0  0  0
   -2.5394   -0.0969    0.5504 H   0  0  0  0  0  0  0  0  0  0  0  0
   -2.3500   -0.9518   -1.0790 H   0  0  0  0  0  0  0  0  0  0  0  0
   -1.4853   -1.5822    0.3363 H   0  0  0  0  0  0  0  0  0  0  0  0
  1  2  3  0
  2  3  1  0
  3  4  1  0
  3  5  1  0
  5  6  1  0
  6  7  1  0
  7  8  1  0
  7  3  1  0
  1  9  1  0
  4 10  1  0
  5 11  1  0
  5 12  1  0
  6 13  1  0
  6 14  1  0
  7 15  1  0
  8 16  1  0
  8 17  1  0
  8 18  1  0
M  END
