
     RDKit          3D

 17 17  0  0  0  0  0  0  0  0999 V2000
    1.6390    2.6077   -0.2517 C   0  0  0  0  0  0  0  0  0  0  0  0
    1.0260    1.8197   -0.9491 C   0  0  0  0  0  0  0  0  0  0  0  0
    0.2684    0.8541   -1.7842 C   0  0  0  0  0  0  0  0  0  0  0  0
    0.3257   -0.4954   -1.1908 C   0  0  0  0  0  0  0  0  0  0  0  0
    0.4565   -1.4623   -1.8884 O   0  0  0  0  0  0  0  0  0  0  0  0
    0.2201   -0.6434    0.2727 C   0  0  0  0  0  0  0  0  0  0  0  0
   -1.1713   -0.4518    0.8374 C   0  0  0  0  0  0  0  0  0  0  0  0
   -0.7706   -1.6443    1.6478 C   0  0  0  0  0  0  0  0  0  0  0  0
    0.2579   -1.9251    0.7833 O   0  0  0  0  0  0  0  0  0  0  0  0
    2.1787    3.2943    0.3467 H   0  0  0  0  0  0  0  0  0  0  0  0
    0.6835    0.9207   -2.7873 H   0  0  0  0  0  0  0  0  0  0  0  0
   -0.8112    1.1846   -1.8030 H   0  0  0  0  0  0  0  0  0  0  0  0
    0.9318   -0.0137    0.8600 H   0  0  0  0  0  0  0  0  0  0  0  0
   -1.2797    0.4822    1.4295 H   0  0  0  0  0  0  0  0  0  0  0  0
   -1.9961   -0.6212    0.1120 H   0  0  0  0  0  0  0  0  0  0  0  0
   -0.4364   -1.4475    2.6880 H   0  0  0  0  0  0  0  0  0  0  0  0
   -1.5224   -2.4585    1.6772 H   0  0  0  0  0  0  0  0  0  0  0  0
  1  2  3  0
  2  3  1  0
  3  4  1  0
  4  5  2  0
  4  6  1  0
  6  7  1  0
  7  8  1  0
  8  9  1  0
  9  6  1  0
  1 10  1  0
  3 11  1  0
  3 12  1  0
  6 13  1  0
  7 14  1  0
  7 15  1  0
  8 16  1  0
  8 17  1  0
M  END
