
     RDKit          3D

 17 18  0  0  0  0  0  0  0  0999 V2000
    2.4420   -1.2094   -1.0744 C   0  0  0  0  0  0  0  0  0  0  0  0
    1.4584   -0.5356   -0.8900 C   0  0  0  0  0  0  0  0  0  0  0  0
    0.2716    0.2958   -0.6764 C   0  0  0  0  0  0  0  0  0  0  0  0
   -0.1004    0.8565   -1.8888 O   0  0  0  0  0  0  0  0  0  0  0  0
    0.5180    1.3155    0.4003 C   0  0  0  0  0  0  0  0  0  0  0  0
    0.4438    0.5844    1.5518 O   0  0  0  0  0  0  0  0  0  0  0  0
   -0.5008   -0.3963    1.4222 C   0  0  0  0  0  0  0  0  0  0  0  0
   -1.8136   -0.0437    0.8492 C   0  0  0  0  0  0  0  0  0  0  0  0
   -0.7849   -0.5695   -0.0628 C   0  0  0  0  0  0  0  0  0  0  0  0
    3.3030   -1.8173   -1.2487 H   0  0  0  0  0  0  0  0  0  0  0  0
   -0.6048    0.2486   -2.4543 H   0  0  0  0  0  0  0  0  0  0  0  0
   -0.1965    2.1510    0.3554 H   0  0  0  0  0  0  0  0  0  0  0  0
    1.5317    1.7508    0.2775 H   0  0  0  0  0  0  0  0  0  0  0  0
   -0.3677   -1.3226    2.0424 H   0  0  0  0  0  0  0  0  0  0  0  0
   -2.0981    1.0187    0.8118 H   0  0  0  0  0  0  0  0  0  0  0  0
   -2.6999   -0.7139    0.9998 H   0  0  0  0  0  0  0  0  0  0  0  0
   -0.8016   -1.6128   -0.4149 H   0  0  0  0  0  0  0  0  0  0  0  0
  1  2  3  0
  2  3  1  0
  3  4  1  0
  3  5  1  0
  5  6  1  0
  6  7  1  0
  7  8  1  0
  8  9  1  0
  9  3  1  0
  9  7  1  0
  1 10  1  0
  4 11  1  0
  5 12  1  0
  5 13  1  0
  7 14  1  0
  8 15  1  0
  8 16  1  0
  9 17  1  0
M  END
