
     RDKit          3D

 21 20  0  0  0  0  0  0  0  0999 V2000
   -2.7940    0.4573   -1.6822 C   0  0  0  0  0  0  0  0  0  0  0  0
   -1.7819    0.8742   -1.2219 C   0  0  0  0  0  0  0  0  0  0  0  0
   -0.5661    1.4005   -0.6559 C   0  0  0  0  0  0  0  0  0  0  0  0
   -0.1584    2.5643   -0.8760 O   0  0  0  0  0  0  0  0  0  0  0  0
    0.2447    0.5402    0.2239 C   0  0  0  0  0  0  0  0  0  0  0  0
   -0.6675    0.0947    1.3468 C   0  0  0  0  0  0  0  0  0  0  0  0
    0.1160   -0.7790    2.2838 C   0  0  0  0  0  0  0  0  0  0  0  0
    0.8027   -0.6645   -0.4688 C   0  0  0  0  0  0  0  0  0  0  0  0
    1.6977   -0.2715   -1.6282 C   0  0  0  0  0  0  0  0  0  0  0  0
   -3.6990    0.0912   -2.1037 H   0  0  0  0  0  0  0  0  0  0  0  0
    1.1049    1.1290    0.5988 H   0  0  0  0  0  0  0  0  0  0  0  0
   -1.0813    0.9744    1.9058 H   0  0  0  0  0  0  0  0  0  0  0  0
   -1.5458   -0.4501    0.9075 H   0  0  0  0  0  0  0  0  0  0  0  0
    0.3798   -1.7188    1.8099 H   0  0  0  0  0  0  0  0  0  0  0  0
   -0.4243   -0.8983    3.2494 H   0  0  0  0  0  0  0  0  0  0  0  0
    1.0647   -0.2461    2.5691 H   0  0  0  0  0  0  0  0  0  0  0  0
    0.0366   -1.3989   -0.7607 H   0  0  0  0  0  0  0  0  0  0  0  0
    1.4801   -1.1849    0.2454 H   0  0  0  0  0  0  0  0  0  0  0  0
    1.5195    0.7918   -1.8657 H   0  0  0  0  0  0  0  0  0  0  0  0
    1.5022   -0.9226   -2.4848 H   0  0  0  0  0  0  0  0  0  0  0  0
    2.7696   -0.3831   -1.3922 H   0  0  0  0  0  0  0  0  0  0  0  0
  1  2  3  0
  2  3  1  0
  3  4  2  0
  3  5  1  0
  5  6  1  0
  6  7  1  0
  5  8  1  0
  8  9  1  0
  1 10  1  0
  5 11  1  0
  6 12  1  0
  6 13  1  0
  7 14  1  0
  7 15  1  0
  7 16  1  0
  8 17  1  0
  8 18  1  0
  9 19  1  0
  9 20  1  0
  9 21  1  0
M  END
