
     RDKit          3D

 17 18  0  0  0  0  0  0  0  0999 V2000
    2.6248    1.8605    0.5078 C   0  0  0  0  0  0  0  0  0  0  0  0
    1.7661    1.0539    0.1785 C   0  0  0  0  0  0  0  0  0  0  0  0
    0.7252    0.1061   -0.2284 C   0  0  0  0  0  0  0  0  0  0  0  0
    1.1311   -1.3457   -0.4304 C   0  0  0  0  0  0  0  0  0  0  0  0
    0.2862   -0.9142    0.7205 C   0  0  0  0  0  0  0  0  0  0  0  0
   -1.0176   -1.2190    0.8033 O   0  0  0  0  0  0  0  0  0  0  0  0
   -1.9335   -0.3997    0.2510 C   0  0  0  0  0  0  0  0  0  0  0  0
   -1.4790    0.6626   -0.6523 C   0  0  0  0  0  0  0  0  0  0  0  0
   -0.1954    0.5622   -1.1237 O   0  0  0  0  0  0  0  0  0  0  0  0
    3.3639    2.5555    0.8106 H   0  0  0  0  0  0  0  0  0  0  0  0
    2.2003   -1.5214   -0.3412 H   0  0  0  0  0  0  0  0  0  0  0  0
    0.6345   -1.9259   -1.2460 H   0  0  0  0  0  0  0  0  0  0  0  0
    0.8402   -0.9280    1.7051 H   0  0  0  0  0  0  0  0  0  0  0  0
   -2.6949   -1.0396   -0.2858 H   0  0  0  0  0  0  0  0  0  0  0  0
   -2.5338    0.0717    1.0847 H   0  0  0  0  0  0  0  0  0  0  0  0
   -1.5751    1.6883   -0.1882 H   0  0  0  0  0  0  0  0  0  0  0  0
   -2.1431    0.7328   -1.5656 H   0  0  0  0  0  0  0  0  0  0  0  0
  1  2  3  0
  2  3  1  0
  3  4  1  0
  4  5  1  0
  5  6  1  0
  6  7  1  0
  7  8  1  0
  8  9  1  0
  5  3  1  0
  9  3  1  0
  1 10  1  0
  4 11  1  0
  4 12  1  0
  5 13  1  0
  7 14  1  0
  7 15  1  0
  8 16  1  0
  8 17  1  0
M  END
