
     RDKit          3D

 21 20  0  0  0  0  0  0  0  0999 V2000
   -3.1287   -0.6429    0.7247 C   0  0  0  0  0  0  0  0  0  0  0  0
   -2.0095   -0.1979    0.6246 C   0  0  0  0  0  0  0  0  0  0  0  0
   -0.6392    0.3273    0.5204 C   0  0  0  0  0  0  0  0  0  0  0  0
   -0.7035    1.8095    0.4225 C   0  0  0  0  0  0  0  0  0  0  0  0
    0.1068   -0.3356   -0.6011 C   0  0  0  0  0  0  0  0  0  0  0  0
    0.2004   -1.8289   -0.3895 C   0  0  0  0  0  0  0  0  0  0  0  0
    1.4448    0.2783   -0.8714 C   0  0  0  0  0  0  0  0  0  0  0  0
    2.3605    0.2321    0.2738 C   0  0  0  0  0  0  0  0  0  0  0  0
    3.4817    0.7008    0.1934 O   0  0  0  0  0  0  0  0  0  0  0  0
   -4.1140   -1.0243    0.7976 H   0  0  0  0  0  0  0  0  0  0  0  0
   -0.1285    0.0657    1.4851 H   0  0  0  0  0  0  0  0  0  0  0  0
    0.2921    2.2982    0.4220 H   0  0  0  0  0  0  0  0  0  0  0  0
   -1.1377    2.0520   -0.5934 H   0  0  0  0  0  0  0  0  0  0  0  0
   -1.3987    2.2568    1.1517 H   0  0  0  0  0  0  0  0  0  0  0  0
   -0.5026   -0.1864   -1.5206 H   0  0  0  0  0  0  0  0  0  0  0  0
    1.2072   -2.2340   -0.6434 H   0  0  0  0  0  0  0  0  0  0  0  0
   -0.0202   -2.0275    0.6947 H   0  0  0  0  0  0  0  0  0  0  0  0
   -0.5815   -2.3450   -0.9525 H   0  0  0  0  0  0  0  0  0  0  0  0
    1.9057   -0.2911   -1.7076 H   0  0  0  0  0  0  0  0  0  0  0  0
    1.2866    1.3064   -1.2508 H   0  0  0  0  0  0  0  0  0  0  0  0
    2.0783   -0.2135    1.2198 H   0  0  0  0  0  0  0  0  0  0  0  0
  1  2  3  0
  2  3  1  0
  3  4  1  0
  3  5  1  0
  5  6  1  0
  5  7  1  0
  7  8  1  0
  8  9  2  0
  1 10  1  0
  3 11  1  0
  4 12  1  0
  4 13  1  0
  4 14  1  0
  5 15  1  0
  6 16  1  0
  6 17  1  0
  6 18  1  0
  7 19  1  0
  7 20  1  0
  8 21  1  0
M  END
