
     RDKit          3D

 19 18  0  0  0  0  0  0  0  0999 V2000
    3.0088   -1.0334    0.4639 C   0  0  0  0  0  0  0  0  0  0  0  0
    2.0716   -0.4659    0.0264 C   0  0  0  0  0  0  0  0  0  0  0  0
    0.8689    0.2334   -0.5272 C   0  0  0  0  0  0  0  0  0  0  0  0
    0.9587    1.7015   -0.2347 C   0  0  0  0  0  0  0  0  0  0  0  0
   -0.3385   -0.3814    0.2054 C   0  0  0  0  0  0  0  0  0  0  0  0
   -0.3504   -0.1751    1.5457 O   0  0  0  0  0  0  0  0  0  0  0  0
   -1.6018   -0.1363   -0.5632 C   0  0  0  0  0  0  0  0  0  0  0  0
   -2.8315   -0.6266    0.0968 C   0  0  0  0  0  0  0  0  0  0  0  0
   -3.0967   -1.8347    0.0186 O   0  0  0  0  0  0  0  0  0  0  0  0
    3.8893   -1.5763    0.8586 H   0  0  0  0  0  0  0  0  0  0  0  0
    0.7994    0.0777   -1.6011 H   0  0  0  0  0  0  0  0  0  0  0  0
    1.9699    1.8914    0.2320 H   0  0  0  0  0  0  0  0  0  0  0  0
    0.9427    2.3077   -1.1916 H   0  0  0  0  0  0  0  0  0  0  0  0
    0.2242    2.1179    0.4537 H   0  0  0  0  0  0  0  0  0  0  0  0
   -0.1923   -1.5488    0.0680 H   0  0  0  0  0  0  0  0  0  0  0  0
    0.3238   -0.7285    1.9944 H   0  0  0  0  0  0  0  0  0  0  0  0
   -1.4946   -0.7124   -1.5707 H   0  0  0  0  0  0  0  0  0  0  0  0
   -1.6387    0.9046   -0.9155 H   0  0  0  0  0  0  0  0  0  0  0  0
   -3.5129   -0.0146    0.6407 H   0  0  0  0  0  0  0  0  0  0  0  0
  1  2  3  0
  2  3  1  0
  3  4  1  0
  3  5  1  0
  5  6  1  0
  5  7  1  0
  7  8  1  0
  8  9  2  0
  1 10  1  0
  3 11  1  0
  4 12  1  0
  4 13  1  0
  4 14  1  0
  5 15  1  0
  6 16  1  0
  7 17  1  0
  7 18  1  0
  8 19  1  0
M  END
