
     RDKit          3D

 17 19  0  0  0  0  0  0  0  0999 V2000
    3.6809   -0.0460    0.2953 C   0  0  0  0  0  0  0  0  0  0  0  0
    2.4737   -0.0851    0.4539 C   0  0  0  0  0  0  0  0  0  0  0  0
    0.9892   -0.1274    0.6232 C   0  0  0  0  0  0  0  0  0  0  0  0
    0.3267    1.0469    0.0865 C   0  0  0  0  0  0  0  0  0  0  0  0
   -1.0026    1.3989    0.4263 O   0  0  0  0  0  0  0  0  0  0  0  0
   -1.6320    0.2169    0.6006 C   0  0  0  0  0  0  0  0  0  0  0  0
   -2.4273   -0.6426   -0.1966 C   0  0  0  0  0  0  0  0  0  0  0  0
   -1.2288   -0.2857   -0.8427 C   0  0  0  0  0  0  0  0  0  0  0  0
    0.1925   -0.3820   -0.5588 C   0  0  0  0  0  0  0  0  0  0  0  0
    4.7178   -0.0060    0.1426 H   0  0  0  0  0  0  0  0  0  0  0  0
    0.7980   -0.5677    1.6386 H   0  0  0  0  0  0  0  0  0  0  0  0
    0.8595    1.7935   -0.5095 H   0  0  0  0  0  0  0  0  0  0  0  0
   -1.1664   -0.3006    1.4668 H   0  0  0  0  0  0  0  0  0  0  0  0
   -2.5681   -1.7231    0.0737 H   0  0  0  0  0  0  0  0  0  0  0  0
   -3.4286   -0.2430   -0.5308 H   0  0  0  0  0  0  0  0  0  0  0  0
   -1.3970    0.4901   -1.6670 H   0  0  0  0  0  0  0  0  0  0  0  0
    0.8125   -0.5371   -1.5022 H   0  0  0  0  0  0  0  0  0  0  0  0
  1  2  3  0
  2  3  1  0
  3  4  1  0
  4  5  1  0
  5  6  1  0
  6  7  1  0
  7  8  1  0
  8  9  1  0
  9  3  1  0
  9  4  1  0
  8  6  1  0
  1 10  1  0
  3 11  1  0
  4 12  1  0
  6 13  1  0
  7 14  1  0
  7 15  1  0
  8 16  1  0
  9 17  1  0
M  END
