
     RDKit          3D

 19 19  0  0  0  0  0  0  0  0999 V2000
    3.8438   -0.3291    0.3431 C   0  0  0  0  0  0  0  0  0  0  0  0
    2.6883   -0.5614    0.5877 C   0  0  0  0  0  0  0  0  0  0  0  0
    1.2850   -0.8262    0.9007 C   0  0  0  0  0  0  0  0  0  0  0  0
    0.4511   -0.0259   -0.1015 C   0  0  0  0  0  0  0  0  0  0  0  0
    0.7056    1.3182   -0.0042 O   0  0  0  0  0  0  0  0  0  0  0  0
   -1.0099   -0.3693    0.0561 C   0  0  0  0  0  0  0  0  0  0  0  0
   -1.7075    0.3040    1.1942 C   0  0  0  0  0  0  0  0  0  0  0  0
   -2.6966    0.6147    0.0925 C   0  0  0  0  0  0  0  0  0  0  0  0
   -1.7910    0.2333   -0.8978 O   0  0  0  0  0  0  0  0  0  0  0  0
    4.8734   -0.1324    0.1323 H   0  0  0  0  0  0  0  0  0  0  0  0
    1.0421   -1.8995    0.8217 H   0  0  0  0  0  0  0  0  0  0  0  0
    1.0201   -0.5108    1.9261 H   0  0  0  0  0  0  0  0  0  0  0  0
    0.7640   -0.3710   -1.1084 H   0  0  0  0  0  0  0  0  0  0  0  0
    1.5776    1.4889   -0.4597 H   0  0  0  0  0  0  0  0  0  0  0  0
   -1.1498   -1.4706    0.0386 H   0  0  0  0  0  0  0  0  0  0  0  0
   -2.1259   -0.3802    1.9733 H   0  0  0  0  0  0  0  0  0  0  0  0
   -1.2057    1.2033    1.6004 H   0  0  0  0  0  0  0  0  0  0  0  0
   -3.6231    0.0060    0.1454 H   0  0  0  0  0  0  0  0  0  0  0  0
   -2.9414    1.7080    0.0238 H   0  0  0  0  0  0  0  0  0  0  0  0
  1  2  3  0
  2  3  1  0
  3  4  1  0
  4  5  1  0
  4  6  1  0
  6  7  1  0
  7  8  1  0
  8  9  1  0
  9  6  1  0
  1 10  1  0
  3 11  1  0
  3 12  1  0
  4 13  1  0
  5 14  1  0
  6 15  1  0
  7 16  1  0
  7 17  1  0
  8 18  1  0
  8 19  1  0
M  END
