
     RDKit          3D

 17 18  0  0  0  0  0  0  0  0999 V2000
    3.0958    0.0923   -0.4491 C   0  0  0  0  0  0  0  0  0  0  0  0
    1.9052   -0.0444   -0.5826 C   0  0  0  0  0  0  0  0  0  0  0  0
    0.4740   -0.2253   -0.7626 C   0  0  0  0  0  0  0  0  0  0  0  0
   -0.0943   -1.5034   -0.2338 C   0  0  0  0  0  0  0  0  0  0  0  0
    0.2497   -1.0549    1.0304 O   0  0  0  0  0  0  0  0  0  0  0  0
   -0.3165    0.1077    0.4631 C   0  0  0  0  0  0  0  0  0  0  0  0
   -0.4419    1.3227    1.0838 C   0  0  0  0  0  0  0  0  0  0  0  0
   -1.3943   -0.7857   -0.0530 C   0  0  0  0  0  0  0  0  0  0  0  0
   -2.0208   -0.3731   -1.2319 O   0  0  0  0  0  0  0  0  0  0  0  0
    4.1576    0.2248   -0.3156 H   0  0  0  0  0  0  0  0  0  0  0  0
    0.0788    0.0837   -1.7221 H   0  0  0  0  0  0  0  0  0  0  0  0
    0.0421   -2.4316   -0.6062 H   0  0  0  0  0  0  0  0  0  0  0  0
   -0.1083    1.3484    2.1629 H   0  0  0  0  0  0  0  0  0  0  0  0
   -1.4943    1.7331    1.1287 H   0  0  0  0  0  0  0  0  0  0  0  0
    0.1439    2.1665    0.6117 H   0  0  0  0  0  0  0  0  0  0  0  0
   -2.0385   -1.2607    0.6837 H   0  0  0  0  0  0  0  0  0  0  0  0
   -2.2382    0.6000   -1.2073 H   0  0  0  0  0  0  0  0  0  0  0  0
  1  2  3  0
  2  3  1  0
  3  4  1  0
  4  5  1  0
  5  6  1  0
  6  7  1  0
  6  8  1  0
  8  9  1  0
  6  3  1  0
  8  4  1  0
  1 10  1  0
  3 11  1  0
  4 12  1  0
  7 13  1  0
  7 14  1  0
  7 15  1  0
  8 16  1  0
  9 17  1  0
M  END
