
     RDKit          3D

 19 19  0  0  0  0  0  0  0  0999 V2000
    3.2699    0.4931   -0.0535 C   0  0  0  0  0  0  0  0  0  0  0  0
    2.0660    0.6517    0.0279 C   0  0  0  0  0  0  0  0  0  0  0  0
    0.6149    0.8478    0.1097 C   0  0  0  0  0  0  0  0  0  0  0  0
    0.2527    1.4843    1.3133 O   0  0  0  0  0  0  0  0  0  0  0  0
   -0.1106   -0.4514   -0.0449 C   0  0  0  0  0  0  0  0  0  0  0  0
   -1.3723   -0.4984   -0.8791 C   0  0  0  0  0  0  0  0  0  0  0  0
   -2.4493    0.4050   -0.3630 C   0  0  0  0  0  0  0  0  0  0  0  0
    0.7803   -1.6679   -0.2510 C   0  0  0  0  0  0  0  0  0  0  0  0
    0.0582   -1.4341    0.8994 O   0  0  0  0  0  0  0  0  0  0  0  0
    4.3276    0.3657   -0.1106 H   0  0  0  0  0  0  0  0  0  0  0  0
    0.3519    1.5166   -0.7516 H   0  0  0  0  0  0  0  0  0  0  0  0
    0.9825    2.1672    1.4625 H   0  0  0  0  0  0  0  0  0  0  0  0
   -1.7634   -1.5338   -0.8827 H   0  0  0  0  0  0  0  0  0  0  0  0
   -1.0777   -0.1943   -1.9127 H   0  0  0  0  0  0  0  0  0  0  0  0
   -2.0741    1.4220   -0.1487 H   0  0  0  0  0  0  0  0  0  0  0  0
   -2.9677   -0.0540    0.5035 H   0  0  0  0  0  0  0  0  0  0  0  0
   -3.2196    0.4870   -1.1771 H   0  0  0  0  0  0  0  0  0  0  0  0
    1.8739   -1.5378   -0.1340 H   0  0  0  0  0  0  0  0  0  0  0  0
    0.4568   -2.4687   -0.9281 H   0  0  0  0  0  0  0  0  0  0  0  0
  1  2  3  0
  2  3  1  0
  3  4  1  0
  3  5  1  0
  5  6  1  0
  6  7  1  0
  5  8  1  0
  8  9  1  0
  9  5  1  0
  1 10  1  0
  3 11  1  0
  4 12  1  0
  6 13  1  0
  6 14  1  0
  7 15  1  0
  7 16  1  0
  7 17  1  0
  8 18  1  0
  8 19  1  0
M  END
