
     RDKit          3D

 19 20  0  0  0  0  0  0  0  0999 V2000
    2.9116    1.6917    1.6132 C   0  0  0  0  0  0  0  0  0  0  0  0
    2.2143    0.7039    1.4644 C   0  0  0  0  0  0  0  0  0  0  0  0
    1.3673   -0.4801    1.3092 C   0  0  0  0  0  0  0  0  0  0  0  0
    1.4838   -1.1704   -0.0849 C   0  0  0  0  0  0  0  0  0  0  0  0
    0.2740   -0.5103    0.3533 C   0  0  0  0  0  0  0  0  0  0  0  0
   -0.3594    0.6640   -0.2820 C   0  0  0  0  0  0  0  0  0  0  0  0
   -1.3948   -0.3996   -0.5832 C   0  0  0  0  0  0  0  0  0  0  0  0
   -2.8247    0.0670   -0.5181 C   0  0  0  0  0  0  0  0  0  0  0  0
   -0.9408   -1.0889    0.5430 O   0  0  0  0  0  0  0  0  0  0  0  0
    3.5322    2.5405    1.7369 H   0  0  0  0  0  0  0  0  0  0  0  0
    1.3409   -1.1397    2.1821 H   0  0  0  0  0  0  0  0  0  0  0  0
    2.1601   -0.6733   -0.8119 H   0  0  0  0  0  0  0  0  0  0  0  0
    1.5109   -2.2965   -0.0350 H   0  0  0  0  0  0  0  0  0  0  0  0
    0.1263    1.1067   -1.1703 H   0  0  0  0  0  0  0  0  0  0  0  0
   -0.7169    1.4407    0.4537 H   0  0  0  0  0  0  0  0  0  0  0  0
   -1.1236   -0.9280   -1.5166 H   0  0  0  0  0  0  0  0  0  0  0  0
   -3.1144    0.2898    0.5157 H   0  0  0  0  0  0  0  0  0  0  0  0
   -2.9987    0.9433   -1.1562 H   0  0  0  0  0  0  0  0  0  0  0  0
   -3.4478   -0.7608   -0.9410 H   0  0  0  0  0  0  0  0  0  0  0  0
  1  2  3  0
  2  3  1  0
  3  4  1  0
  4  5  1  0
  5  6  1  0
  6  7  1  0
  7  8  1  0
  7  9  1  0
  5  3  1  0
  9  5  1  0
  1 10  1  0
  3 11  1  0
  4 12  1  0
  4 13  1  0
  6 14  1  0
  6 15  1  0
  7 16  1  0
  8 17  1  0
  8 18  1  0
  8 19  1  0
M  END
