
     RDKit          3D

 19 19  0  0  0  0  0  0  0  0999 V2000
   -2.6967    2.8065   -0.8918 C   0  0  0  0  0  0  0  0  0  0  0  0
   -1.9176    1.1891   -0.8398 C   0  0  0  0  0  0  0  0  0  0  0  0
   -1.2606   -0.1452   -0.8020 C   0  0  0  0  0  0  0  0  0  0  0  0
   -2.1016   -1.0367    0.1680 C   0  0  0  0  0  0  0  0  0  0  0  0
   -0.7492   -1.5874    0.5612 C   0  0  0  0  0  0  0  0  0  0  0  0
   -0.0568    0.0208    0.1413 C   0  0  0  0  0  0  0  0  0  0  0  0
    1.2258    0.0161    0.0310 C   0  0  0  0  0  0  0  0  0  0  0  0
    2.2609    0.0081   -0.0408 C   0  0  0  0  0  0  0  0  0  0  0  0
    3.7484   -0.0059   -0.1193 C   0  0  0  0  0  0  0  0  0  0  0  0
   -3.1010    3.6775   -0.9268 H   0  0  0  0  0  0  0  0  0  0  0  0
   -1.0230   -0.4661   -1.8534 H   0  0  0  0  0  0  0  0  0  0  0  0
   -2.5818   -0.3471    0.9128 H   0  0  0  0  0  0  0  0  0  0  0  0
   -2.7680   -1.6347   -0.4222 H   0  0  0  0  0  0  0  0  0  0  0  0
   -0.3211   -2.1164   -0.3923 H   0  0  0  0  0  0  0  0  0  0  0  0
   -0.5609   -1.8453    1.5340 H   0  0  0  0  0  0  0  0  0  0  0  0
   -0.5110    0.5502    1.1551 H   0  0  0  0  0  0  0  0  0  0  0  0
    4.1926   -0.0283   -1.1182 H   0  0  0  0  0  0  0  0  0  0  0  0
    3.9304    1.2947    0.0126 H   0  0  0  0  0  0  0  0  0  0  0  0
    4.2913   -0.3500    0.7177 H   0  0  0  0  0  0  0  0  0  0  0  0
  1  2  3  0
  2  3  1  0
  3  4  1  0
  4  5  1  0
  5  6  1  0
  6  7  1  0
  7  8  3  0
  8  9  1  0
  6  3  1  0
  1 10  1  0
  3 11  1  0
  4 12  1  0
  4 13  1  0
  5 14  1  0
  5 15  1  0
  6 16  1  0
  9 17  1  0
  9 18  1  0
  9 19  1  0
M  END
