
     RDKit          3D

 25 24  0  0  0  0  0  0  0  0999 V2000
    2.2911    1.6933   -1.2888 C   0  0  0  0  0  0  0  0  0  0  0  0
    1.9349    0.4792   -1.1686 C   0  0  0  0  0  0  0  0  0  0  0  0
    1.5273   -0.8747   -1.0114 C   0  0  0  0  0  0  0  0  0  0  0  0
    0.0361   -1.0909   -0.8015 C   0  0  0  0  0  0  0  0  0  0  0  0
   -0.0959   -2.6333   -0.7173 C   0  0  0  0  0  0  0  0  0  0  0  0
   -0.5003   -0.5735    0.4783 C   0  0  0  0  0  0  0  0  0  0  0  0
   -0.3993    0.8828    0.7497 C   0  0  0  0  0  0  0  0  0  0  0  0
   -1.0084    1.2080    2.1278 C   0  0  0  0  0  0  0  0  0  0  0  0
   -1.0591    1.7654   -0.2265 C   0  0  0  0  0  0  0  0  0  0  0  0
    2.6002    2.6860   -1.3824 H   0  0  0  0  0  0  0  0  0  0  0  0
    1.8685   -1.4346   -1.9263 H   0  0  0  0  0  0  0  0  0  0  0  0
    2.0902   -1.4048   -0.1702 H   0  0  0  0  0  0  0  0  0  0  0  0
   -0.5237   -0.7524   -1.6902 H   0  0  0  0  0  0  0  0  0  0  0  0
    0.5305   -2.9909    0.1097 H   0  0  0  0  0  0  0  0  0  0  0  0
    0.2498   -3.0877   -1.6509 H   0  0  0  0  0  0  0  0  0  0  0  0
   -1.1444   -2.8829   -0.5111 H   0  0  0  0  0  0  0  0  0  0  0  0
   -0.0012   -1.1848    1.2955 H   0  0  0  0  0  0  0  0  0  0  0  0
   -1.5687   -0.8637    0.5517 H   0  0  0  0  0  0  0  0  0  0  0  0
    0.6749    1.1295    0.8493 H   0  0  0  0  0  0  0  0  0  0  0  0
   -1.1120    0.3191    2.7524 H   0  0  0  0  0  0  0  0  0  0  0  0
   -0.4154    2.0006    2.6005 H   0  0  0  0  0  0  0  0  0  0  0  0
   -2.0403    1.6377    1.9780 H   0  0  0  0  0  0  0  0  0  0  0  0
   -0.5093    2.6483   -0.5323 H   0  0  0  0  0  0  0  0  0  0  0  0
   -2.0209    2.1468    0.2087 H   0  0  0  0  0  0  0  0  0  0  0  0
   -1.4045    1.1776   -1.1285 H   0  0  0  0  0  0  0  0  0  0  0  0
  1  2  3  0
  2  3  1  0
  3  4  1  0
  4  5  1  0
  4  6  1  0
  6  7  1  0
  7  8  1  0
  7  9  1  0
  1 10  1  0
  3 11  1  0
  3 12  1  0
  4 13  1  0
  5 14  1  0
  5 15  1  0
  5 16  1  0
  6 17  1  0
  6 18  1  0
  7 19  1  0
  8 20  1  0
  8 21  1  0
  8 22  1  0
  9 23  1  0
  9 24  1  0
  9 25  1  0
M  END
