
     RDKit          3D

 17 18  0  0  0  0  0  0  0  0999 V2000
    3.3044    0.8139    0.8103 C   0  0  0  0  0  0  0  0  0  0  0  0
    2.1659    0.4241    0.5663 C   0  0  0  0  0  0  0  0  0  0  0  0
    0.8278   -0.0394    0.2539 C   0  0  0  0  0  0  0  0  0  0  0  0
    0.2836   -1.1923    0.5946 C   0  0  0  0  0  0  0  0  0  0  0  0
   -1.0880   -1.3125    0.1018 C   0  0  0  0  0  0  0  0  0  0  0  0
   -2.1559   -0.3545    0.4144 C   0  0  0  0  0  0  0  0  0  0  0  0
   -1.2464   -0.1497   -0.8042 C   0  0  0  0  0  0  0  0  0  0  0  0
   -0.1222    0.7885   -0.5275 C   0  0  0  0  0  0  0  0  0  0  0  0
    0.4740    1.3057   -1.6522 O   0  0  0  0  0  0  0  0  0  0  0  0
    4.2867    1.1433    1.0062 H   0  0  0  0  0  0  0  0  0  0  0  0
    0.8159   -1.9329    1.1673 H   0  0  0  0  0  0  0  0  0  0  0  0
   -1.4182   -2.3293   -0.1915 H   0  0  0  0  0  0  0  0  0  0  0  0
   -3.1859   -0.6210    0.1369 H   0  0  0  0  0  0  0  0  0  0  0  0
   -2.0324    0.2943    1.2897 H   0  0  0  0  0  0  0  0  0  0  0  0
   -1.6359   -0.3329   -1.8104 H   0  0  0  0  0  0  0  0  0  0  0  0
   -0.5230    1.6142    0.1071 H   0  0  0  0  0  0  0  0  0  0  0  0
    1.2499    1.8804   -1.4626 H   0  0  0  0  0  0  0  0  0  0  0  0
  1  2  3  0
  2  3  1  0
  3  4  2  0
  4  5  1  0
  5  6  1  0
  6  7  1  0
  7  8  1  0
  8  9  1  0
  8  3  1  0
  7  5  1  0
  1 10  1  0
  4 11  1  0
  5 12  1  0
  6 13  1  0
  6 14  1  0
  7 15  1  0
  8 16  1  0
  9 17  1  0
M  END
