
     RDKit          3D

 17 17  0  0  0  0  0  0  0  0999 V2000
    3.7100    2.9156   -2.0843 C   0  0  0  0  0  0  0  0  0  0  0  0
    2.8142    2.2364   -1.6230 C   0  0  0  0  0  0  0  0  0  0  0  0
    1.7828    1.4241   -1.0871 C   0  0  0  0  0  0  0  0  0  0  0  0
    0.9053    0.7411   -0.6175 C   0  0  0  0  0  0  0  0  0  0  0  0
   -0.1259   -0.0698   -0.0383 C   0  0  0  0  0  0  0  0  0  0  0  0
   -1.3944   -0.1579   -0.3869 C   0  0  0  0  0  0  0  0  0  0  0  0
   -2.1241   -1.1068    0.4597 C   0  0  0  0  0  0  0  0  0  0  0  0
   -1.2918   -1.1469    1.7227 C   0  0  0  0  0  0  0  0  0  0  0  0
    0.1020   -0.9931    1.1274 C   0  0  0  0  0  0  0  0  0  0  0  0
    4.5076    3.5009   -2.4794 H   0  0  0  0  0  0  0  0  0  0  0  0
   -1.8864    0.3936   -1.2050 H   0  0  0  0  0  0  0  0  0  0  0  0
   -2.1448   -2.0917   -0.0514 H   0  0  0  0  0  0  0  0  0  0  0  0
   -3.1582   -0.7701    0.6863 H   0  0  0  0  0  0  0  0  0  0  0  0
   -1.4171   -2.0888    2.2655 H   0  0  0  0  0  0  0  0  0  0  0  0
   -1.5337   -0.2701    2.3391 H   0  0  0  0  0  0  0  0  0  0  0  0
    0.7674   -0.5598    1.8767 H   0  0  0  0  0  0  0  0  0  0  0  0
    0.4873   -1.9568    0.7951 H   0  0  0  0  0  0  0  0  0  0  0  0
  1  2  3  0
  2  3  1  0
  3  4  3  0
  4  5  1  0
  5  6  2  0
  6  7  1  0
  7  8  1  0
  8  9  1  0
  9  5  1  0
  1 10  1  0
  6 11  1  0
  7 12  1  0
  7 13  1  0
  8 14  1  0
  8 15  1  0
  9 16  1  0
  9 17  1  0
M  END
