
     RDKit          3D

 14 15  0  0  0  0  0  0  0  0999 V2000
    2.4258    0.4068    0.6775 C   0  0  0  0  0  0  0  0  0  0  0  0
    1.2308    0.1404    0.5824 C   0  0  0  0  0  0  0  0  0  0  0  0
   -0.2254   -0.1644    0.4845 C   0  0  0  0  0  0  0  0  0  0  0  0
   -0.3499   -1.6287    0.0341 C   0  0  0  0  0  0  0  0  0  0  0  0
    0.2707   -1.0576   -1.1141 O   0  0  0  0  0  0  0  0  0  0  0  0
   -0.7854   -0.1560   -0.9969 C   0  0  0  0  0  0  0  0  0  0  0  0
   -0.9591    0.9382   -0.1073 C   0  0  0  0  0  0  0  0  0  0  0  0
   -0.3365    2.1619   -0.4576 O   0  0  0  0  0  0  0  0  0  0  0  0
    3.4580    0.6191    0.7640 H   0  0  0  0  0  0  0  0  0  0  0  0
    0.3157   -2.2731    0.6248 H   0  0  0  0  0  0  0  0  0  0  0  0
   -1.3502   -2.0085   -0.1037 H   0  0  0  0  0  0  0  0  0  0  0  0
   -1.7325   -0.7657   -1.1438 H   0  0  0  0  0  0  0  0  0  0  0  0
   -1.9516    1.1584    0.3867 H   0  0  0  0  0  0  0  0  0  0  0  0
   -0.0105    2.6293    0.3694 H   0  0  0  0  0  0  0  0  0  0  0  0
  1  2  3  0
  2  3  1  0
  3  4  1  0
  4  5  1  0
  5  6  1  0
  6  7  1  0
  7  8  1  0
  6  3  1  0
  7  3  1  0
  1  9  1  0
  4 10  1  0
  4 11  1  0
  6 12  1  0
  7 13  1  0
  8 14  1  0
M  END
