
     RDKit          3D

 23 22  0  0  0  0  0  0  0  0999 V2000
    2.0713    1.8410    0.5561 C   0  0  0  0  0  0  0  0  0  0  0  0
    1.5736    0.8093    0.1809 C   0  0  0  0  0  0  0  0  0  0  0  0
    0.9853   -0.4537   -0.2677 C   0  0  0  0  0  0  0  0  0  0  0  0
    1.9749   -1.5472    0.0795 C   0  0  0  0  0  0  0  0  0  0  0  0
    0.7575   -0.3951   -1.7690 C   0  0  0  0  0  0  0  0  0  0  0  0
   -0.1953   -0.6905    0.4314 O   0  0  0  0  0  0  0  0  0  0  0  0
   -1.1325    0.3065    0.2408 C   0  0  0  0  0  0  0  0  0  0  0  0
   -1.4022    0.9446    1.5941 C   0  0  0  0  0  0  0  0  0  0  0  0
   -2.4443   -0.2918   -0.2819 C   0  0  0  0  0  0  0  0  0  0  0  0
    2.4999    2.7692    0.8844 H   0  0  0  0  0  0  0  0  0  0  0  0
    2.9974   -1.1166    0.1323 H   0  0  0  0  0  0  0  0  0  0  0  0
    1.7314   -1.9140    1.0895 H   0  0  0  0  0  0  0  0  0  0  0  0
    1.9107   -2.3988   -0.6255 H   0  0  0  0  0  0  0  0  0  0  0  0
    1.7657   -0.4430   -2.2360 H   0  0  0  0  0  0  0  0  0  0  0  0
    0.0823   -1.1785   -2.1246 H   0  0  0  0  0  0  0  0  0  0  0  0
    0.3237    0.5862   -2.0463 H   0  0  0  0  0  0  0  0  0  0  0  0
   -0.7962    1.1191   -0.4269 H   0  0  0  0  0  0  0  0  0  0  0  0
   -1.6170    2.0353    1.4838 H   0  0  0  0  0  0  0  0  0  0  0  0
   -2.2923    0.5130    2.0889 H   0  0  0  0  0  0  0  0  0  0  0  0
   -0.5455    0.7747    2.2550 H   0  0  0  0  0  0  0  0  0  0  0  0
   -3.2760    0.0695    0.3375 H   0  0  0  0  0  0  0  0  0  0  0  0
   -2.5951    0.0683   -1.3120 H   0  0  0  0  0  0  0  0  0  0  0  0
   -2.3772   -1.4074   -0.2643 H   0  0  0  0  0  0  0  0  0  0  0  0
  1  2  3  0
  2  3  1  0
  3  4  1  0
  3  5  1  0
  3  6  1  0
  6  7  1  0
  7  8  1  0
  7  9  1  0
  1 10  1  0
  4 11  1  0
  4 12  1  0
  4 13  1  0
  5 14  1  0
  5 15  1  0
  5 16  1  0
  7 17  1  0
  8 18  1  0
  8 19  1  0
  8 20  1  0
  9 21  1  0
  9 22  1  0
  9 23  1  0
M  END
