
     RDKit          3D

 19 20  0  0  0  0  0  0  0  0999 V2000
    2.9815    0.1687    1.3603 C   0  0  0  0  0  0  0  0  0  0  0  0
    1.8935    0.5962    1.1235 C   0  0  0  0  0  0  0  0  0  0  0  0
    0.5581    1.1421    0.8146 C   0  0  0  0  0  0  0  0  0  0  0  0
   -0.0998    0.3054   -0.2336 C   0  0  0  0  0  0  0  0  0  0  0  0
    0.5465    0.1624   -1.5453 C   0  0  0  0  0  0  0  0  0  0  0  0
    0.5559   -1.0150   -0.6473 C   0  0  0  0  0  0  0  0  0  0  0  0
   -0.6552   -1.6950   -0.5279 O   0  0  0  0  0  0  0  0  0  0  0  0
   -1.1114   -0.6781    0.2740 C   0  0  0  0  0  0  0  0  0  0  0  0
   -2.5209   -0.2103    0.0093 C   0  0  0  0  0  0  0  0  0  0  0  0
    3.9482   -0.2273    1.5824 H   0  0  0  0  0  0  0  0  0  0  0  0
   -0.0058    1.0831    1.7895 H   0  0  0  0  0  0  0  0  0  0  0  0
    0.5703    2.1863    0.5228 H   0  0  0  0  0  0  0  0  0  0  0  0
    1.5222    0.6345   -1.7161 H   0  0  0  0  0  0  0  0  0  0  0  0
   -0.0606    0.0059   -2.4851 H   0  0  0  0  0  0  0  0  0  0  0  0
    1.4159   -1.3024   -0.0462 H   0  0  0  0  0  0  0  0  0  0  0  0
   -0.9858   -0.9121    1.3354 H   0  0  0  0  0  0  0  0  0  0  0  0
   -2.4920    0.9074   -0.0635 H   0  0  0  0  0  0  0  0  0  0  0  0
   -2.8121   -0.5838   -1.0067 H   0  0  0  0  0  0  0  0  0  0  0  0
   -3.2487   -0.5680    0.7517 H   0  0  0  0  0  0  0  0  0  0  0  0
  1  2  3  0
  2  3  1  0
  3  4  1  0
  4  5  1  0
  5  6  1  0
  6  7  1  0
  7  8  1  0
  8  9  1  0
  6  4  1  0
  8  4  1  0
  1 10  1  0
  3 11  1  0
  3 12  1  0
  5 13  1  0
  5 14  1  0
  6 15  1  0
  8 16  1  0
  9 17  1  0
  9 18  1  0
  9 19  1  0
M  END
