
     RDKit          3D

 15 16  0  0  0  0  0  0  0  0999 V2000
    2.8553    0.8606    0.1757 C   0  0  0  0  0  0  0  0  0  0  0  0
    1.8824    0.3216   -0.3132 C   0  0  0  0  0  0  0  0  0  0  0  0
    0.7282   -0.3184   -0.9065 C   0  0  0  0  0  0  0  0  0  0  0  0
    0.7296   -1.7440   -0.6939 O   0  0  0  0  0  0  0  0  0  0  0  0
   -0.4024   -1.7636    0.1032 C   0  0  0  0  0  0  0  0  0  0  0  0
   -1.0395   -2.6571    0.6900 O   0  0  0  0  0  0  0  0  0  0  0  0
   -0.4973   -0.3298   -0.0548 C   0  0  0  0  0  0  0  0  0  0  0  0
   -1.6886    0.4455   -0.2985 C   0  0  0  0  0  0  0  0  0  0  0  0
   -0.8330    0.6361    0.9604 C   0  0  0  0  0  0  0  0  0  0  0  0
    3.7083    1.3419    0.5902 H   0  0  0  0  0  0  0  0  0  0  0  0
    0.4877   -0.0186   -1.9359 H   0  0  0  0  0  0  0  0  0  0  0  0
   -1.6028    1.2844   -1.0496 H   0  0  0  0  0  0  0  0  0  0  0  0
   -2.6968    0.0488   -0.2053 H   0  0  0  0  0  0  0  0  0  0  0  0
   -0.2505    1.5708    1.0516 H   0  0  0  0  0  0  0  0  0  0  0  0
   -1.3807    0.3218    1.8866 H   0  0  0  0  0  0  0  0  0  0  0  0
  1  2  3  0
  2  3  1  0
  3  4  1  0
  4  5  1  0
  5  6  2  0
  5  7  1  0
  7  8  1  0
  8  9  1  0
  7  3  1  0
  9  7  1  0
  1 10  1  0
  3 11  1  0
  8 12  1  0
  8 13  1  0
  9 14  1  0
  9 15  1  0
M  END
