
     RDKit          3D

 17 18  0  0  0  0  0  0  0  0999 V2000
    2.8954    1.1792   -1.1364 C   0  0  0  0  0  0  0  0  0  0  0  0
    2.0796    0.3920   -0.7255 C   0  0  0  0  0  0  0  0  0  0  0  0
    1.0950   -0.5332   -0.2202 C   0  0  0  0  0  0  0  0  0  0  0  0
    0.8352   -0.6451    1.2316 C   0  0  0  0  0  0  0  0  0  0  0  0
   -0.4764   -0.6812    1.4214 C   0  0  0  0  0  0  0  0  0  0  0  0
   -1.2161   -0.5986    0.1389 C   0  0  0  0  0  0  0  0  0  0  0  0
   -1.8384    0.7910    0.0792 C   0  0  0  0  0  0  0  0  0  0  0  0
   -0.1778   -0.6454   -0.9528 C   0  0  0  0  0  0  0  0  0  0  0  0
    0.7720   -1.6284   -0.9849 O   0  0  0  0  0  0  0  0  0  0  0  0
    3.6018    1.8844   -1.5003 H   0  0  0  0  0  0  0  0  0  0  0  0
    1.6178   -0.6866    1.9685 H   0  0  0  0  0  0  0  0  0  0  0  0
   -0.9464   -0.7609    2.3894 H   0  0  0  0  0  0  0  0  0  0  0  0
   -1.9926   -1.3826    0.0354 H   0  0  0  0  0  0  0  0  0  0  0  0
   -2.7790    0.8546    0.6524 H   0  0  0  0  0  0  0  0  0  0  0  0
   -1.0599    1.5147    0.4572 H   0  0  0  0  0  0  0  0  0  0  0  0
   -1.9977    1.0252   -0.9994 H   0  0  0  0  0  0  0  0  0  0  0  0
   -0.4126   -0.0791   -1.8547 H   0  0  0  0  0  0  0  0  0  0  0  0
  1  2  3  0
  2  3  1  0
  3  4  1  0
  4  5  2  0
  5  6  1  0
  6  7  1  0
  6  8  1  0
  8  9  1  0
  8  3  1  0
  9  3  1  0
  1 10  1  0
  4 11  1  0
  5 12  1  0
  6 13  1  0
  7 14  1  0
  7 15  1  0
  7 16  1  0
  8 17  1  0
M  END
