
     RDKit          3D

 18 17  0  0  0  0  0  0  0  0999 V2000
   -1.8933   -1.9603    0.0251 C   0  0  0  0  0  0  0  0  0  0  0  0
   -1.3381   -0.9036    0.2166 C   0  0  0  0  0  0  0  0  0  0  0  0
   -0.6462    0.3696    0.4335 C   0  0  0  0  0  0  0  0  0  0  0  0
   -1.0525    1.3722   -0.6153 C   0  0  0  0  0  0  0  0  0  0  0  0
   -1.0088    0.9002    1.6867 O   0  0  0  0  0  0  0  0  0  0  0  0
    0.8271    0.1131    0.4741 C   0  0  0  0  0  0  0  0  0  0  0  0
    1.3756   -0.4902   -0.7769 C   0  0  0  0  0  0  0  0  0  0  0  0
    2.7561   -0.6687   -0.5851 O   0  0  0  0  0  0  0  0  0  0  0  0
   -2.3724   -2.9047   -0.1560 H   0  0  0  0  0  0  0  0  0  0  0  0
   -0.9948    2.3971   -0.1780 H   0  0  0  0  0  0  0  0  0  0  0  0
   -0.4842    1.3149   -1.5395 H   0  0  0  0  0  0  0  0  0  0  0  0
   -2.1277    1.1845   -0.8427 H   0  0  0  0  0  0  0  0  0  0  0  0
   -0.7200    0.1954    2.3480 H   0  0  0  0  0  0  0  0  0  0  0  0
    1.0528   -0.5036    1.3437 H   0  0  0  0  0  0  0  0  0  0  0  0
    1.3467    1.0931    0.6252 H   0  0  0  0  0  0  0  0  0  0  0  0
    1.2666    0.1757   -1.6429 H   0  0  0  0  0  0  0  0  0  0  0  0
    0.9376   -1.4615   -1.0383 H   0  0  0  0  0  0  0  0  0  0  0  0
    3.0754   -0.2232    0.2217 H   0  0  0  0  0  0  0  0  0  0  0  0
  1  2  3  0
  2  3  1  0
  3  4  1  0
  3  5  1  0
  3  6  1  0
  6  7  1  0
  7  8  1  0
  1  9  1  0
  4 10  1  0
  4 11  1  0
  4 12  1  0
  5 13  1  0
  6 14  1  0
  6 15  1  0
  7 16  1  0
  7 17  1  0
  8 18  1  0
M  END
