
     RDKit          3D

 14 14  0  0  0  0  0  0  0  0999 V2000
    2.0084   -0.2724   -2.8360 C   0  0  0  0  0  0  0  0  0  0  0  0
    0.7220   -0.2935   -1.1690 C   0  0  0  0  0  0  0  0  0  0  0  0
    0.4370   -0.2914   -0.7989 C   0  0  0  0  0  0  0  0  0  0  0  0
    0.3057   -0.2896   -0.6300 C   0  0  0  0  0  0  0  0  0  0  0  0
   -0.1407   -0.2771   -0.0691 C   0  0  0  0  0  0  0  0  0  0  0  0
    0.9045   -0.0146    1.4799 O   0  0  0  0  0  0  0  0  0  0  0  0
   -1.1696    1.0764    0.4767 C   0  0  0  0  0  0  0  0  0  0  0  0
   -1.4097   -0.2228    0.9787 C   0  0  0  0  0  0  0  0  0  0  0  0
    2.1736   -0.2678   -3.0565 H   0  0  0  0  0  0  0  0  0  0  0  0
    1.1757   -1.0365    1.2779 H   0  0  0  0  0  0  0  0  0  0  0  0
   -0.3894    1.9003    0.7334 H   0  0  0  0  0  0  0  0  0  0  0  0
   -1.4107    1.3691   -0.6289 H   0  0  0  0  0  0  0  0  0  0  0  0
   -0.9835   -0.5769    2.0262 H   0  0  0  0  0  0  0  0  0  0  0  0
   -2.2232   -0.8032    0.7696 H   0  0  0  0  0  0  0  0  0  0  0  0
  1  2  3  0
  2  3  1  0
  3  4  3  0
  4  5  1  0
  5  6  1  0
  5  7  1  0
  7  8  1  0
  8  5  1  0
  1  9  1  0
  6 10  1  0
  7 11  1  0
  7 12  1  0
  8 13  1  0
  8 14  1  0
M  END
