
     RDKit          3D

 19 20  0  0  0  0  0  0  0  0999 V2000
    2.6751   -1.1640   -2.6678 C   0  0  0  0  0  0  0  0  0  0  0  0
    1.7284   -0.9197   -1.8565 C   0  0  0  0  0  0  0  0  0  0  0  0
    0.6473   -0.6608   -0.9542 C   0  0  0  0  0  0  0  0  0  0  0  0
   -0.6018   -1.1131   -0.9774 C   0  0  0  0  0  0  0  0  0  0  0  0
   -1.1823   -0.5216    0.2628 C   0  0  0  0  0  0  0  0  0  0  0  0
   -0.0167   -0.7605    1.2332 C   0  0  0  0  0  0  0  0  0  0  0  0
    0.6818    0.1874    0.2665 C   0  0  0  0  0  0  0  0  0  0  0  0
   -0.6569    0.8830    0.1620 C   0  0  0  0  0  0  0  0  0  0  0  0
   -1.0109    1.8394    1.2449 C   0  0  0  0  0  0  0  0  0  0  0  0
    3.4311   -1.3424   -3.3033 H   0  0  0  0  0  0  0  0  0  0  0  0
   -1.1176   -1.7484   -1.6831 H   0  0  0  0  0  0  0  0  0  0  0  0
   -2.1607   -0.7195    0.5702 H   0  0  0  0  0  0  0  0  0  0  0  0
    0.3160   -1.8131    1.1004 H   0  0  0  0  0  0  0  0  0  0  0  0
   -0.1652   -0.4116    2.2537 H   0  0  0  0  0  0  0  0  0  0  0  0
    1.5477    0.6886    0.5625 H   0  0  0  0  0  0  0  0  0  0  0  0
   -0.7340    1.3273   -0.8746 H   0  0  0  0  0  0  0  0  0  0  0  0
   -0.4188    1.5992    2.1521 H   0  0  0  0  0  0  0  0  0  0  0  0
   -2.0858    1.7470    1.5549 H   0  0  0  0  0  0  0  0  0  0  0  0
   -0.8766    2.9029    0.9538 H   0  0  0  0  0  0  0  0  0  0  0  0
  1  2  3  0
  2  3  1  0
  3  4  2  0
  4  5  1  0
  5  6  1  0
  6  7  1  0
  7  8  1  0
  8  9  1  0
  7  3  1  0
  8  5  1  0
  1 10  1  0
  4 11  1  0
  5 12  1  0
  6 13  1  0
  6 14  1  0
  7 15  1  0
  8 16  1  0
  9 17  1  0
  9 18  1  0
  9 19  1  0
M  END
