
     RDKit          3D

 16 15  0  0  0  0  0  0  0  0999 V2000
    1.7549   -1.7899   -0.8488 C   0  0  0  0  0  0  0  0  0  0  0  0
    1.5106   -0.8926   -0.2328 C   0  0  0  0  0  0  0  0  0  0  0  0
    1.3442   -0.2350    0.2211 C   0  0  0  0  0  0  0  0  0  0  0  0
   -0.1623    0.6680   -0.0050 C   0  0  0  0  0  0  0  0  0  0  0  0
    0.0083    1.7689    0.4721 C   0  0  0  0  0  0  0  0  0  0  0  0
    0.1677    2.7926    0.9095 C   0  0  0  0  0  0  0  0  0  0  0  0
   -1.0408   -0.2131    0.7336 O   0  0  0  0  0  0  0  0  0  0  0  0
   -2.0006   -0.9061   -0.0134 C   0  0  0  0  0  0  0  0  0  0  0  0
    2.0984   -3.0785   -1.7054 H   0  0  0  0  0  0  0  0  0  0  0  0
    1.1784   -0.0840    1.5910 H   0  0  0  0  0  0  0  0  0  0  0  0
    1.9487    0.8855    0.2703 H   0  0  0  0  0  0  0  0  0  0  0  0
   -0.1966    0.3226   -1.0961 H   0  0  0  0  0  0  0  0  0  0  0  0
    0.3805    4.1251    1.4550 H   0  0  0  0  0  0  0  0  0  0  0  0
   -2.7167   -1.5036    0.6782 H   0  0  0  0  0  0  0  0  0  0  0  0
   -2.6379   -0.2175   -0.5577 H   0  0  0  0  0  0  0  0  0  0  0  0
   -1.6367   -1.6423   -0.7878 H   0  0  0  0  0  0  0  0  0  0  0  0
  1  2  3  0
  2  3  1  0
  3  4  1  0
  4  5  1  0
  5  6  3  0
  4  7  1  0
  7  8  1  0
  1  9  1  0
  3 10  1  0
  3 11  1  0
  4 12  1  0
  6 13  1  0
  8 14  1  0
  8 15  1  0
  8 16  1  0
M  END
