
     RDKit          3D

 19 20  0  0  0  0  0  0  0  0999 V2000
    0.4751    3.0903    0.0464 C   0  0  0  0  0  0  0  0  0  0  0  0
    0.2560    1.9316    0.3027 C   0  0  0  0  0  0  0  0  0  0  0  0
    0.0091    0.4966    0.6098 C   0  0  0  0  0  0  0  0  0  0  0  0
   -0.8347   -0.0946   -0.4177 C   0  0  0  0  0  0  0  0  0  0  0  0
   -2.2557    0.2689   -0.7780 C   0  0  0  0  0  0  0  0  0  0  0  0
   -0.1981   -1.0521   -1.0573 C   0  0  0  0  0  0  0  0  0  0  0  0
    1.1682   -1.2465   -0.5544 C   0  0  0  0  0  0  0  0  0  0  0  0
    1.2883   -1.7107    0.8467 C   0  0  0  0  0  0  0  0  0  0  0  0
    1.3070   -0.2599    0.5383 C   0  0  0  0  0  0  0  0  0  0  0  0
    0.6727    4.1131   -0.1615 H   0  0  0  0  0  0  0  0  0  0  0  0
   -0.4228    0.4384    1.6345 H   0  0  0  0  0  0  0  0  0  0  0  0
   -2.7991   -0.6152   -1.1579 H   0  0  0  0  0  0  0  0  0  0  0  0
   -2.7933    0.6301    0.1203 H   0  0  0  0  0  0  0  0  0  0  0  0
   -2.2178    1.0141   -1.5966 H   0  0  0  0  0  0  0  0  0  0  0  0
   -0.5864   -1.6789   -1.8878 H   0  0  0  0  0  0  0  0  0  0  0  0
    2.0188   -1.3240   -1.2565 H   0  0  0  0  0  0  0  0  0  0  0  0
    2.2573   -2.1943    1.1078 H   0  0  0  0  0  0  0  0  0  0  0  0
    0.3905   -2.0908    1.3514 H   0  0  0  0  0  0  0  0  0  0  0  0
    2.2647    0.2838    0.6633 H   0  0  0  0  0  0  0  0  0  0  0  0
  1  2  3  0
  2  3  1  0
  3  4  1  0
  4  5  1  0
  4  6  2  0
  6  7  1  0
  7  8  1  0
  8  9  1  0
  9  3  1  0
  9  7  1  0
  1 10  1  0
  3 11  1  0
  5 12  1  0
  5 13  1  0
  5 14  1  0
  6 15  1  0
  7 16  1  0
  8 17  1  0
  8 18  1  0
  9 19  1  0
M  END
