
     RDKit          3D

 17 18  0  0  0  0  0  0  0  0999 V2000
    2.3285   -1.5393   -0.0510 C   0  0  0  0  0  0  0  0  0  0  0  0
    1.5369   -0.7112    0.2762 C   0  0  0  0  0  0  0  0  0  0  0  0
    0.5797    0.2992    0.6990 C   0  0  0  0  0  0  0  0  0  0  0  0
    1.0170    1.5546    1.0324 O   0  0  0  0  0  0  0  0  0  0  0  0
    0.1269    2.1986    0.1481 C   0  0  0  0  0  0  0  0  0  0  0  0
   -0.3574    0.8416   -0.2699 C   0  0  0  0  0  0  0  0  0  0  0  0
   -0.4154    0.4785   -1.5917 O   0  0  0  0  0  0  0  0  0  0  0  0
   -0.8598   -0.0291    0.8205 C   0  0  0  0  0  0  0  0  0  0  0  0
   -1.3147   -1.4042    0.3859 C   0  0  0  0  0  0  0  0  0  0  0  0
    3.0409   -2.2722   -0.3269 H   0  0  0  0  0  0  0  0  0  0  0  0
    0.6212    2.7852   -0.6491 H   0  0  0  0  0  0  0  0  0  0  0  0
   -0.5952    2.7769    0.7746 H   0  0  0  0  0  0  0  0  0  0  0  0
    0.1047   -0.3310   -1.8122 H   0  0  0  0  0  0  0  0  0  0  0  0
   -1.4852    0.4859    1.5800 H   0  0  0  0  0  0  0  0  0  0  0  0
   -0.6879   -1.7099   -0.4718 H   0  0  0  0  0  0  0  0  0  0  0  0
   -2.3494   -1.2799   -0.0217 H   0  0  0  0  0  0  0  0  0  0  0  0
   -1.2907   -2.1436    1.2218 H   0  0  0  0  0  0  0  0  0  0  0  0
  1  2  3  0
  2  3  1  0
  3  4  1  0
  4  5  1  0
  5  6  1  0
  6  7  1  0
  6  8  1  0
  8  9  1  0
  6  3  1  0
  8  3  1  0
  1 10  1  0
  5 11  1  0
  5 12  1  0
  7 13  1  0
  8 14  1  0
  9 15  1  0
  9 16  1  0
  9 17  1  0
M  END
