
     RDKit          3D

 21 21  0  0  0  0  0  0  0  0999 V2000
    2.2784    2.6894    0.1696 C   0  0  0  0  0  0  0  0  0  0  0  0
    1.9019    1.5446    0.2256 C   0  0  0  0  0  0  0  0  0  0  0  0
    1.4284    0.1426    0.3175 C   0  0  0  0  0  0  0  0  0  0  0  0
    0.0971    0.1695    1.0788 C   0  0  0  0  0  0  0  0  0  0  0  0
   -0.9361    0.1303   -0.0331 C   0  0  0  0  0  0  0  0  0  0  0  0
   -2.2419   -0.3267    0.5399 C   0  0  0  0  0  0  0  0  0  0  0  0
   -0.3178   -0.9195   -0.9543 C   0  0  0  0  0  0  0  0  0  0  0  0
   -0.3165   -2.1630   -0.3504 O   0  0  0  0  0  0  0  0  0  0  0  0
    1.1054   -0.3612   -1.0607 C   0  0  0  0  0  0  0  0  0  0  0  0
    2.5945    3.7040    0.1282 H   0  0  0  0  0  0  0  0  0  0  0  0
    2.1703   -0.4633    0.8508 H   0  0  0  0  0  0  0  0  0  0  0  0
   -0.0115   -0.7115    1.7079 H   0  0  0  0  0  0  0  0  0  0  0  0
    0.0022    1.1304    1.6258 H   0  0  0  0  0  0  0  0  0  0  0  0
   -0.9862    1.0653   -0.6022 H   0  0  0  0  0  0  0  0  0  0  0  0
   -2.3945    0.2286    1.4949 H   0  0  0  0  0  0  0  0  0  0  0  0
   -2.1583   -1.4310    0.7127 H   0  0  0  0  0  0  0  0  0  0  0  0
   -3.1041   -0.1646   -0.1185 H   0  0  0  0  0  0  0  0  0  0  0  0
   -0.8140   -0.9307   -1.9394 H   0  0  0  0  0  0  0  0  0  0  0  0
   -1.1294   -2.6644   -0.6181 H   0  0  0  0  0  0  0  0  0  0  0  0
    1.7911   -1.1573   -1.4085 H   0  0  0  0  0  0  0  0  0  0  0  0
    1.0410    0.4885   -1.7666 H   0  0  0  0  0  0  0  0  0  0  0  0
  1  2  3  0
  2  3  1  0
  3  4  1  0
  4  5  1  0
  5  6  1  0
  5  7  1  0
  7  8  1  0
  7  9  1  0
  9  3  1  0
  1 10  1  0
  3 11  1  0
  4 12  1  0
  4 13  1  0
  5 14  1  0
  6 15  1  0
  6 16  1  0
  6 17  1  0
  7 18  1  0
  8 19  1  0
  9 20  1  0
  9 21  1  0
M  END
