
     RDKit          3D

 19 19  0  0  0  0  0  0  0  0999 V2000
    2.8875    2.2910   -1.7416 C   0  0  0  0  0  0  0  0  0  0  0  0
    2.0216    1.5756   -0.9226 C   0  0  0  0  0  0  0  0  0  0  0  0
    1.1925    0.8622   -0.1368 C   0  0  0  0  0  0  0  0  0  0  0  0
   -0.1302    1.2218    0.3149 C   0  0  0  0  0  0  0  0  0  0  0  0
   -0.8155    0.0466    0.3961 C   0  0  0  0  0  0  0  0  0  0  0  0
   -2.2067    0.0421    0.8323 C   0  0  0  0  0  0  0  0  0  0  0  0
    0.0881   -0.9391   -0.2225 C   0  0  0  0  0  0  0  0  0  0  0  0
   -0.2000   -2.3760    0.1202 C   0  0  0  0  0  0  0  0  0  0  0  0
    1.3785   -0.4844    0.0409 O   0  0  0  0  0  0  0  0  0  0  0  0
    3.5095    2.8178   -2.3543 H   0  0  0  0  0  0  0  0  0  0  0  0
    1.7753    1.2806    1.0148 H   0  0  0  0  0  0  0  0  0  0  0  0
   -0.5176    2.2317    0.5335 H   0  0  0  0  0  0  0  0  0  0  0  0
   -2.2664    0.5912    1.8331 H   0  0  0  0  0  0  0  0  0  0  0  0
   -2.7686   -0.9006    0.8098 H   0  0  0  0  0  0  0  0  0  0  0  0
   -2.7945    0.7699    0.1598 H   0  0  0  0  0  0  0  0  0  0  0  0
   -0.0867   -0.8565   -1.3725 H   0  0  0  0  0  0  0  0  0  0  0  0
    0.5704   -2.8735    0.7375 H   0  0  0  0  0  0  0  0  0  0  0  0
   -1.1328   -2.4034    0.7794 H   0  0  0  0  0  0  0  0  0  0  0  0
   -0.5043   -2.8971   -0.7964 H   0  0  0  0  0  0  0  0  0  0  0  0
  1  2  3  0
  2  3  1  0
  3  4  1  0
  4  5  2  0
  5  6  1  0
  5  7  1  0
  7  8  1  0
  7  9  1  0
  9  3  1  0
  1 10  1  0
  3 11  1  0
  4 12  1  0
  6 13  1  0
  6 14  1  0
  6 15  1  0
  7 16  1  0
  8 17  1  0
  8 18  1  0
  8 19  1  0
M  END
