
     RDKit          3D

 19 19  0  0  0  0  0  0  0  0999 V2000
    1.9525   -1.1481    2.9245 C   0  0  0  0  0  0  0  0  0  0  0  0
    2.0743   -0.6804    1.7575 C   0  0  0  0  0  0  0  0  0  0  0  0
    2.1952   -0.1548    0.4093 C   0  0  0  0  0  0  0  0  0  0  0  0
    1.7231    1.3348    0.3646 O   0  0  0  0  0  0  0  0  0  0  0  0
    1.0323    0.2789   -0.2913 C   0  0  0  0  0  0  0  0  0  0  0  0
   -0.3533    0.1065    0.3320 C   0  0  0  0  0  0  0  0  0  0  0  0
   -1.4337    0.5011   -0.6500 C   0  0  0  0  0  0  0  0  0  0  0  0
   -1.4671   -0.3943   -1.8341 C   0  0  0  0  0  0  0  0  0  0  0  0
   -2.6789    0.6517   -0.1007 O   0  0  0  0  0  0  0  0  0  0  0  0
    1.8637   -1.5182    3.8549 H   0  0  0  0  0  0  0  0  0  0  0  0
    3.1940   -0.1747   -0.0558 H   0  0  0  0  0  0  0  0  0  0  0  0
    1.0282    0.4111   -1.3743 H   0  0  0  0  0  0  0  0  0  0  0  0
   -0.4747   -0.9981    0.5217 H   0  0  0  0  0  0  0  0  0  0  0  0
   -0.4335    0.6336    1.3027 H   0  0  0  0  0  0  0  0  0  0  0  0
   -1.0947    1.5233   -1.0506 H   0  0  0  0  0  0  0  0  0  0  0  0
   -0.5041   -0.9672   -1.8855 H   0  0  0  0  0  0  0  0  0  0  0  0
   -2.2778   -1.1558   -1.7302 H   0  0  0  0  0  0  0  0  0  0  0  0
   -1.6125    0.1753   -2.7780 H   0  0  0  0  0  0  0  0  0  0  0  0
   -2.7331    1.5755    0.2832 H   0  0  0  0  0  0  0  0  0  0  0  0
  1  2  3  0
  2  3  1  0
  3  4  1  0
  4  5  1  0
  5  6  1  0
  6  7  1  0
  7  8  1  0
  7  9  1  0
  5  3  1  0
  1 10  1  0
  3 11  1  0
  5 12  1  0
  6 13  1  0
  6 14  1  0
  7 15  1  0
  8 16  1  0
  8 17  1  0
  8 18  1  0
  9 19  1  0
M  END
