
     RDKit          3D

 19 20  0  0  0  0  0  0  0  0999 V2000
   -0.5506    2.1496   -1.4960 C   0  0  0  0  0  0  0  0  0  0  0  0
   -0.4285    1.0667   -0.9839 C   0  0  0  0  0  0  0  0  0  0  0  0
   -0.3013   -0.2543   -0.3752 C   0  0  0  0  0  0  0  0  0  0  0  0
    0.6711   -0.3691    0.7447 C   0  0  0  0  0  0  0  0  0  0  0  0
    0.5449    0.4309    1.9864 C   0  0  0  0  0  0  0  0  0  0  0  0
    1.5269    0.8665    0.9750 C   0  0  0  0  0  0  0  0  0  0  0  0
   -0.0840   -1.3395   -1.4094 C   0  0  0  0  0  0  0  0  0  0  0  0
   -0.8516   -2.1865   -0.5771 O   0  0  0  0  0  0  0  0  0  0  0  0
   -1.5792   -1.0262   -0.2283 C   0  0  0  0  0  0  0  0  0  0  0  0
   -0.6523    3.1164   -1.9345 H   0  0  0  0  0  0  0  0  0  0  0  0
    1.1552   -1.3662    0.8425 H   0  0  0  0  0  0  0  0  0  0  0  0
   -0.3372    1.0763    2.1644 H   0  0  0  0  0  0  0  0  0  0  0  0
    0.9435   -0.0178    2.9196 H   0  0  0  0  0  0  0  0  0  0  0  0
    1.2695    1.7876    0.3939 H   0  0  0  0  0  0  0  0  0  0  0  0
    2.6110    0.6512    1.0787 H   0  0  0  0  0  0  0  0  0  0  0  0
   -0.5928   -1.1504   -2.3900 H   0  0  0  0  0  0  0  0  0  0  0  0
    0.9728   -1.6631   -1.5222 H   0  0  0  0  0  0  0  0  0  0  0  0
   -2.3142   -0.7053   -0.9865 H   0  0  0  0  0  0  0  0  0  0  0  0
   -2.0030   -1.0669    0.7978 H   0  0  0  0  0  0  0  0  0  0  0  0
  1  2  3  0
  2  3  1  0
  3  4  1  0
  4  5  1  0
  5  6  1  0
  3  7  1  0
  7  8  1  0
  8  9  1  0
  9  3  1  0
  6  4  1  0
  1 10  1  0
  4 11  1  0
  5 12  1  0
  5 13  1  0
  6 14  1  0
  6 15  1  0
  7 16  1  0
  7 17  1  0
  9 18  1  0
  9 19  1  0
M  END
