
     RDKit          3D

 21 20  0  0  0  0  0  0  0  0999 V2000
    3.7518    0.5088   -2.2254 C   0  0  0  0  0  0  0  0  0  0  0  0
    2.9303   -0.3103   -2.2565 C   0  0  0  0  0  0  0  0  0  0  0  0
    2.0683   -1.1911   -2.3070 C   0  0  0  0  0  0  0  0  0  0  0  0
    1.2919   -1.2317   -0.7900 C   0  0  0  0  0  0  0  0  0  0  0  0
    0.6230   -0.7046   -0.0633 C   0  0  0  0  0  0  0  0  0  0  0  0
   -0.1883   -0.0933    0.7936 C   0  0  0  0  0  0  0  0  0  0  0  0
   -0.9999    0.5338    1.6321 C   0  0  0  0  0  0  0  0  0  0  0  0
   -2.4810    0.2951    1.7861 C   0  0  0  0  0  0  0  0  0  0  0  0
   -3.1728    1.0529    0.6818 C   0  0  0  0  0  0  0  0  0  0  0  0
    5.0741    1.7892   -2.1654 H   0  0  0  0  0  0  0  0  0  0  0  0
    1.2750   -0.9062   -2.8869 H   0  0  0  0  0  0  0  0  0  0  0  0
    2.4883   -2.2422   -2.3816 H   0  0  0  0  0  0  0  0  0  0  0  0
    1.9103   -2.1795   -0.2715 H   0  0  0  0  0  0  0  0  0  0  0  0
    2.4166   -0.3611   -0.4133 H   0  0  0  0  0  0  0  0  0  0  0  0
   -0.6915    0.0737    2.8494 H   0  0  0  0  0  0  0  0  0  0  0  0
   -0.7032    1.6681    1.8964 H   0  0  0  0  0  0  0  0  0  0  0  0
   -2.5312   -0.9011    1.7254 H   0  0  0  0  0  0  0  0  0  0  0  0
   -2.8276    0.5269    2.8415 H   0  0  0  0  0  0  0  0  0  0  0  0
   -3.0621    0.4937   -0.3116 H   0  0  0  0  0  0  0  0  0  0  0  0
   -4.2947    1.0610    0.8982 H   0  0  0  0  0  0  0  0  0  0  0  0
   -2.8774    2.1179    0.5330 H   0  0  0  0  0  0  0  0  0  0  0  0
  1  2  3  0
  2  3  1  0
  3  4  1  0
  4  5  1  0
  5  6  3  0
  6  7  1  0
  7  8  1  0
  8  9  1  0
  1 10  1  0
  3 11  1  0
  3 12  1  0
  4 13  1  0
  4 14  1  0
  7 15  1  0
  7 16  1  0
  8 17  1  0
  8 18  1  0
  9 19  1  0
  9 20  1  0
  9 21  1  0
M  END
