
     RDKit          3D

 17 18  0  0  0  0  0  0  0  0999 V2000
    3.0137    1.4462    0.6361 C   0  0  0  0  0  0  0  0  0  0  0  0
    2.2924    0.5932    0.1766 C   0  0  0  0  0  0  0  0  0  0  0  0
    1.4129   -0.4520   -0.3578 C   0  0  0  0  0  0  0  0  0  0  0  0
    0.6789   -1.2575    0.6984 C   0  0  0  0  0  0  0  0  0  0  0  0
   -0.0268   -0.2480   -0.1501 C   0  0  0  0  0  0  0  0  0  0  0  0
   -1.0446   -0.6676   -1.1217 C   0  0  0  0  0  0  0  0  0  0  0  0
   -2.1498    0.0140   -0.8394 C   0  0  0  0  0  0  0  0  0  0  0  0
   -1.8722    0.9020    0.3349 C   0  0  0  0  0  0  0  0  0  0  0  0
   -0.4900    0.8775    0.4758 O   0  0  0  0  0  0  0  0  0  0  0  0
    3.6420    2.2080    1.0420 H   0  0  0  0  0  0  0  0  0  0  0  0
    1.8021   -1.0339   -1.2316 H   0  0  0  0  0  0  0  0  0  0  0  0
    0.5176   -2.3436    0.5023 H   0  0  0  0  0  0  0  0  0  0  0  0
    0.8464   -1.0357    1.7646 H   0  0  0  0  0  0  0  0  0  0  0  0
   -0.9964   -1.3821   -1.9396 H   0  0  0  0  0  0  0  0  0  0  0  0
   -3.0942   -0.0418   -1.3486 H   0  0  0  0  0  0  0  0  0  0  0  0
   -2.2301    1.9177    0.0940 H   0  0  0  0  0  0  0  0  0  0  0  0
   -2.3018    0.5035    1.2641 H   0  0  0  0  0  0  0  0  0  0  0  0
  1  2  3  0
  2  3  1  0
  3  4  1  0
  4  5  1  0
  5  6  1  0
  6  7  2  0
  7  8  1  0
  8  9  1  0
  5  3  1  0
  9  5  1  0
  1 10  1  0
  3 11  1  0
  4 12  1  0
  4 13  1  0
  6 14  1  0
  7 15  1  0
  8 16  1  0
  8 17  1  0
M  END
