
     RDKit          3D

 16 15  0  0  0  0  0  0  0  0999 V2000
   -0.4893    2.5701   -0.4866 C   0  0  0  0  0  0  0  0  0  0  0  0
    0.2628    1.4648   -0.2239 C   0  0  0  0  0  0  0  0  0  0  0  0
    0.8976    0.5138   -0.0027 C   0  0  0  0  0  0  0  0  0  0  0  0
    1.4607    0.0358    0.6109 C   0  0  0  0  0  0  0  0  0  0  0  0
    2.4341   -0.8111    1.6768 C   0  0  0  0  0  0  0  0  0  0  0  0
   -0.1818   -0.8121   -0.6109 C   0  0  0  0  0  0  0  0  0  0  0  0
   -1.1418   -1.0016    0.4807 C   0  0  0  0  0  0  0  0  0  0  0  0
   -0.9217    0.0596   -1.5243 O   0  0  0  0  0  0  0  0  0  0  0  0
   -1.2716    3.7201   -0.7346 H   0  0  0  0  0  0  0  0  0  0  0  0
    1.4386    0.4083   -1.2787 H   0  0  0  0  0  0  0  0  0  0  0  0
    2.9848   -1.2715    2.2721 H   0  0  0  0  0  0  0  0  0  0  0  0
    0.4332   -1.4193   -1.0507 H   0  0  0  0  0  0  0  0  0  0  0  0
   -0.9862   -1.9357    1.0579 H   0  0  0  0  0  0  0  0  0  0  0  0
   -0.9704   -0.0462    1.2614 H   0  0  0  0  0  0  0  0  0  0  0  0
   -2.1672   -0.9780    0.1600 H   0  0  0  0  0  0  0  0  0  0  0  0
   -1.7819   -0.4972   -1.6075 H   0  0  0  0  0  0  0  0  0  0  0  0
  1  2  3  0
  2  3  1  0
  3  4  1  0
  4  5  3  0
  3  6  1  0
  6  7  1  0
  6  8  1  0
  1  9  1  0
  3 10  1  0
  5 11  1  0
  6 12  1  0
  7 13  1  0
  7 14  1  0
  7 15  1  0
  8 16  1  0
M  END
