
     RDKit          3D

 19 19  0  0  0  0  0  0  0  0999 V2000
   -0.7526    3.1002    0.0931 C   0  0  0  0  0  0  0  0  0  0  0  0
   -0.3248    1.9406    0.3777 C   0  0  0  0  0  0  0  0  0  0  0  0
    0.1542    0.6705    0.7136 C   0  0  0  0  0  0  0  0  0  0  0  0
    1.0835    0.0105   -0.2020 C   0  0  0  0  0  0  0  0  0  0  0  0
    0.5488   -0.2850   -1.5489 C   0  0  0  0  0  0  0  0  0  0  0  0
    1.6763   -0.8585   -2.3142 O   0  0  0  0  0  0  0  0  0  0  0  0
    0.1902    0.3364    2.0915 O   0  0  0  0  0  0  0  0  0  0  0  0
   -0.9102   -0.1992    1.2935 C   0  0  0  0  0  0  0  0  0  0  0  0
   -0.9834   -1.6722    1.3903 C   0  0  0  0  0  0  0  0  0  0  0  0
   -1.1145    4.1294   -0.1632 H   0  0  0  0  0  0  0  0  0  0  0  0
    1.5106   -0.9414    0.2909 H   0  0  0  0  0  0  0  0  0  0  0  0
    1.9960    0.6429   -0.3884 H   0  0  0  0  0  0  0  0  0  0  0  0
   -0.1671   -1.1754   -1.5793 H   0  0  0  0  0  0  0  0  0  0  0  0
    0.1462    0.4877   -2.1740 H   0  0  0  0  0  0  0  0  0  0  0  0
    1.7606   -0.2738   -3.1527 H   0  0  0  0  0  0  0  0  0  0  0  0
   -1.8993    0.3424    1.1910 H   0  0  0  0  0  0  0  0  0  0  0  0
   -1.7690   -2.0098    2.0971 H   0  0  0  0  0  0  0  0  0  0  0  0
   -1.1578   -2.1071    0.3362 H   0  0  0  0  0  0  0  0  0  0  0  0
    0.0124   -2.1383    1.6477 H   0  0  0  0  0  0  0  0  0  0  0  0
  1  2  3  0
  2  3  1  0
  3  4  1  0
  4  5  1  0
  5  6  1  0
  3  7  1  0
  7  8  1  0
  8  9  1  0
  8  3  1  0
  1 10  1  0
  4 11  1  0
  4 12  1  0
  5 13  1  0
  5 14  1  0
  6 15  1  0
  8 16  1  0
  9 17  1  0
  9 18  1  0
  9 19  1  0
M  END
