
     RDKit          3D

 17 18  0  0  0  0  0  0  0  0999 V2000
    2.7217    1.7649    1.4102 C   0  0  0  0  0  0  0  0  0  0  0  0
    1.7516    1.2862    0.5744 C   0  0  0  0  0  0  0  0  0  0  0  0
    0.7594    0.8034   -0.2534 C   0  0  0  0  0  0  0  0  0  0  0  0
   -0.6559    0.5645    0.3809 C   0  0  0  0  0  0  0  0  0  0  0  0
   -1.6468    0.5201   -0.7441 C   0  0  0  0  0  0  0  0  0  0  0  0
   -1.5756   -0.6629   -1.2985 C   0  0  0  0  0  0  0  0  0  0  0  0
   -0.5259   -1.5309   -0.6249 C   0  0  0  0  0  0  0  0  0  0  0  0
    0.2848   -0.5749    0.1189 C   0  0  0  0  0  0  0  0  0  0  0  0
    0.9146   -1.1208    1.2773 O   0  0  0  0  0  0  0  0  0  0  0  0
    3.4728    2.1181    2.0631 H   0  0  0  0  0  0  0  0  0  0  0  0
    0.6328    1.2648   -1.2863 H   0  0  0  0  0  0  0  0  0  0  0  0
   -0.8366    0.8311    1.3995 H   0  0  0  0  0  0  0  0  0  0  0  0
   -2.2549    1.3652   -1.0420 H   0  0  0  0  0  0  0  0  0  0  0  0
   -2.1168   -1.0797   -2.1406 H   0  0  0  0  0  0  0  0  0  0  0  0
   -1.0987   -2.2117   -0.0109 H   0  0  0  0  0  0  0  0  0  0  0  0
    0.0496   -2.0956   -1.4001 H   0  0  0  0  0  0  0  0  0  0  0  0
    0.1239   -1.2418    1.9150 H   0  0  0  0  0  0  0  0  0  0  0  0
  1  2  3  0
  2  3  1  0
  3  4  1  0
  4  5  1  0
  5  6  2  0
  6  7  1  0
  7  8  1  0
  8  9  1  0
  8  3  1  0
  8  4  1  0
  1 10  1  0
  3 11  1  0
  4 12  1  0
  5 13  1  0
  6 14  1  0
  7 15  1  0
  7 16  1  0
  9 17  1  0
M  END
