
     RDKit          3D

 23 23  0  0  0  0  0  0  0  0999 V2000
    2.9844   -2.1545    1.0382 C   0  0  0  0  0  0  0  0  0  0  0  0
    1.9699   -1.2217    0.4387 C   0  0  0  0  0  0  0  0  0  0  0  0
    1.3034   -0.6287    0.0553 C   0  0  0  0  0  0  0  0  0  0  0  0
    1.7227   -0.2571   -1.5642 C   0  0  0  0  0  0  0  0  0  0  0  0
   -0.1934   -1.2614   -0.0968 C   0  0  0  0  0  0  0  0  0  0  0  0
   -0.6754    0.1037   -0.3812 C   0  0  0  0  0  0  0  0  0  0  0  0
   -1.9927    0.3140    0.4442 C   0  0  0  0  0  0  0  0  0  0  0  0
   -2.6413    1.6146    0.1511 C   0  0  0  0  0  0  0  0  0  0  0  0
    0.5235    0.6100    0.4881 C   0  0  0  0  0  0  0  0  0  0  0  0
    4.1303   -3.1706    1.6942 H   0  0  0  0  0  0  0  0  0  0  0  0
    2.8082   -0.0060   -1.4053 H   0  0  0  0  0  0  0  0  0  0  0  0
    1.6117   -1.1772   -2.1099 H   0  0  0  0  0  0  0  0  0  0  0  0
    1.1823    0.5610   -1.8217 H   0  0  0  0  0  0  0  0  0  0  0  0
   -0.2843   -2.0698   -0.6956 H   0  0  0  0  0  0  0  0  0  0  0  0
   -0.3738   -1.4826    1.0599 H   0  0  0  0  0  0  0  0  0  0  0  0
   -0.6903    0.4475   -1.3641 H   0  0  0  0  0  0  0  0  0  0  0  0
   -2.6083   -0.5692    0.5675 H   0  0  0  0  0  0  0  0  0  0  0  0
   -1.5376    0.5252    1.5227 H   0  0  0  0  0  0  0  0  0  0  0  0
   -1.9672    2.3151   -0.3310 H   0  0  0  0  0  0  0  0  0  0  0  0
   -3.5975    1.5299   -0.4595 H   0  0  0  0  0  0  0  0  0  0  0  0
   -3.0371    2.0502    1.1604 H   0  0  0  0  0  0  0  0  0  0  0  0
    1.0556    1.5082    0.0857 H   0  0  0  0  0  0  0  0  0  0  0  0
    0.3070    0.6541    1.5235 H   0  0  0  0  0  0  0  0  0  0  0  0
  1  2  3  0
  2  3  1  0
  3  4  1  0
  3  5  1  0
  5  6  1  0
  6  7  1  0
  7  8  1  0
  6  9  1  0
  9  3  1  0
  1 10  1  0
  4 11  1  0
  4 12  1  0
  4 13  1  0
  5 14  1  0
  5 15  1  0
  6 16  1  0
  7 17  1  0
  7 18  1  0
  8 19  1  0
  8 20  1  0
  8 21  1  0
  9 22  1  0
  9 23  1  0
M  END
