
     RDKit          3D

 19 18  0  0  0  0  0  0  0  0999 V2000
    1.3077    2.4620   -0.0652 C   0  0  0  0  0  0  0  0  0  0  0  0
    1.0270    1.3317    0.0471 C   0  0  0  0  0  0  0  0  0  0  0  0
    0.6944   -0.0003    0.1772 C   0  0  0  0  0  0  0  0  0  0  0  0
    0.3681   -0.4035   -1.2601 O   0  0  0  0  0  0  0  0  0  0  0  0
    1.2753   -1.3851   -1.5672 C   0  0  0  0  0  0  0  0  0  0  0  0
   -0.6842   -0.3306    0.7533 C   0  0  0  0  0  0  0  0  0  0  0  0
   -1.7766    0.2218   -0.1736 C   0  0  0  0  0  0  0  0  0  0  0  0
   -0.8831    0.2553    2.1134 C   0  0  0  0  0  0  0  0  0  0  0  0
   -1.6757   -0.5223    2.8247 O   0  0  0  0  0  0  0  0  0  0  0  0
    1.6213    3.6570   -0.1989 H   0  0  0  0  0  0  0  0  0  0  0  0
    1.4226   -0.7355    0.4251 H   0  0  0  0  0  0  0  0  0  0  0  0
    1.0530   -1.9117   -2.5041 H   0  0  0  0  0  0  0  0  0  0  0  0
    1.3326   -2.1161   -0.7305 H   0  0  0  0  0  0  0  0  0  0  0  0
    2.3341   -0.9397   -1.6223 H   0  0  0  0  0  0  0  0  0  0  0  0
   -0.7597   -1.4256    0.7787 H   0  0  0  0  0  0  0  0  0  0  0  0
   -1.9189   -0.6346   -1.0070 H   0  0  0  0  0  0  0  0  0  0  0  0
   -1.4119    1.0620   -0.8091 H   0  0  0  0  0  0  0  0  0  0  0  0
   -2.7569    0.3324    0.2375 H   0  0  0  0  0  0  0  0  0  0  0  0
   -0.5692    1.0827    2.5809 H   0  0  0  0  0  0  0  0  0  0  0  0
  1  2  3  0
  2  3  1  0
  3  4  1  0
  4  5  1  0
  3  6  1  0
  6  7  1  0
  6  8  1  0
  8  9  2  0
  1 10  1  0
  3 11  1  0
  5 12  1  0
  5 13  1  0
  5 14  1  0
  6 15  1  0
  7 16  1  0
  7 17  1  0
  7 18  1  0
  8 19  1  0
M  END
