
     RDKit          3D

 19 19  0  0  0  0  0  0  0  0999 V2000
   -2.8123   -0.2856   -2.1696 C   0  0  0  0  0  0  0  0  0  0  0  0
   -2.0563    0.2859   -1.4064 C   0  0  0  0  0  0  0  0  0  0  0  0
   -1.1504    0.9437   -0.5064 C   0  0  0  0  0  0  0  0  0  0  0  0
   -0.7352    0.1229    0.6584 C   0  0  0  0  0  0  0  0  0  0  0  0
    0.2330    0.8547    1.6004 C   0  0  0  0  0  0  0  0  0  0  0  0
   -0.1200    0.8210    2.9417 O   0  0  0  0  0  0  0  0  0  0  0  0
    0.6243   -0.3794    0.8738 C   0  0  0  0  0  0  0  0  0  0  0  0
    1.6127   -0.2673   -0.0932 O   0  0  0  0  0  0  0  0  0  0  0  0
    2.5403   -1.3144    0.0046 C   0  0  0  0  0  0  0  0  0  0  0  0
   -3.4725   -0.7826   -2.8430 H   0  0  0  0  0  0  0  0  0  0  0  0
   -1.6908    1.8519   -0.1047 H   0  0  0  0  0  0  0  0  0  0  0  0
   -0.2882    1.3653   -1.0686 H   0  0  0  0  0  0  0  0  0  0  0  0
   -1.5758   -0.4309    1.1496 H   0  0  0  0  0  0  0  0  0  0  0  0
    0.6928    1.7847    1.2709 H   0  0  0  0  0  0  0  0  0  0  0  0
   -0.8911    1.4685    3.0292 H   0  0  0  0  0  0  0  0  0  0  0  0
    0.7466   -1.2713    1.5418 H   0  0  0  0  0  0  0  0  0  0  0  0
    2.0106   -2.2720   -0.1334 H   0  0  0  0  0  0  0  0  0  0  0  0
    2.9880   -1.3223    1.0207 H   0  0  0  0  0  0  0  0  0  0  0  0
    3.3443   -1.1728   -0.7207 H   0  0  0  0  0  0  0  0  0  0  0  0
  1  2  3  0
  2  3  1  0
  3  4  1  0
  4  5  1  0
  5  6  1  0
  5  7  1  0
  7  8  1  0
  8  9  1  0
  7  4  1  0
  1 10  1  0
  3 11  1  0
  3 12  1  0
  4 13  1  0
  5 14  1  0
  6 15  1  0
  7 16  1  0
  9 17  1  0
  9 18  1  0
  9 19  1  0
M  END
