
     RDKit          3D

 19 20  0  0  0  0  0  0  0  0999 V2000
    2.6526   -1.5097   -2.4253 C   0  0  0  0  0  0  0  0  0  0  0  0
    1.8011   -1.4409   -1.5419 C   0  0  0  0  0  0  0  0  0  0  0  0
    0.7873   -1.3369   -0.4910 C   0  0  0  0  0  0  0  0  0  0  0  0
    1.3551   -0.9625    0.7188 O   0  0  0  0  0  0  0  0  0  0  0  0
    0.8081    0.3317    0.7909 C   0  0  0  0  0  0  0  0  0  0  0  0
    0.0599   -0.0136   -0.5062 C   0  0  0  0  0  0  0  0  0  0  0  0
   -0.6602    0.5046    0.6591 C   0  0  0  0  0  0  0  0  0  0  0  0
   -1.1393    1.9311    0.5674 C   0  0  0  0  0  0  0  0  0  0  0  0
   -1.5874   -0.4340    1.4061 C   0  0  0  0  0  0  0  0  0  0  0  0
    3.3957   -1.5576   -3.1753 H   0  0  0  0  0  0  0  0  0  0  0  0
    0.1100   -2.2148   -0.4317 H   0  0  0  0  0  0  0  0  0  0  0  0
    1.4999    1.1960    0.7553 H   0  0  0  0  0  0  0  0  0  0  0  0
    0.3101    0.6771   -1.3649 H   0  0  0  0  0  0  0  0  0  0  0  0
   -0.3778    2.6704    0.8832 H   0  0  0  0  0  0  0  0  0  0  0  0
   -1.3760    2.1188   -0.5021 H   0  0  0  0  0  0  0  0  0  0  0  0
   -2.1007    2.0660    1.1327 H   0  0  0  0  0  0  0  0  0  0  0  0
   -2.6011    0.0146    1.5229 H   0  0  0  0  0  0  0  0  0  0  0  0
   -1.2343   -0.6916    2.4096 H   0  0  0  0  0  0  0  0  0  0  0  0
   -1.7031   -1.3487    0.8145 H   0  0  0  0  0  0  0  0  0  0  0  0
  1  2  3  0
  2  3  1  0
  3  4  1  0
  4  5  1  0
  5  6  1  0
  6  7  1  0
  7  8  1  0
  7  9  1  0
  6  3  1  0
  7  5  1  0
  1 10  1  0
  3 11  1  0
  5 12  1  0
  6 13  1  0
  8 14  1  0
  8 15  1  0
  8 16  1  0
  9 17  1  0
  9 18  1  0
  9 19  1  0
M  END
