
     RDKit          3D

 19 19  0  0  0  0  0  0  0  0999 V2000
   -2.3827    1.7174   -0.0741 C   0  0  0  0  0  0  0  0  0  0  0  0
   -1.5692    0.8102   -0.0586 C   0  0  0  0  0  0  0  0  0  0  0  0
   -0.6038   -0.2805   -0.0455 C   0  0  0  0  0  0  0  0  0  0  0  0
   -1.3034   -1.6161   -0.0842 C   0  0  0  0  0  0  0  0  0  0  0  0
   -1.9605   -1.7651    1.1551 O   0  0  0  0  0  0  0  0  0  0  0  0
    0.4872   -0.0789   -1.0414 C   0  0  0  0  0  0  0  0  0  0  0  0
    1.0255    0.7280    0.1123 C   0  0  0  0  0  0  0  0  0  0  0  0
    2.5177    0.6382    0.3165 C   0  0  0  0  0  0  0  0  0  0  0  0
    0.3367   -0.1379    0.9619 O   0  0  0  0  0  0  0  0  0  0  0  0
   -3.0923    2.5039   -0.0758 H   0  0  0  0  0  0  0  0  0  0  0  0
   -0.6154   -2.4638   -0.2661 H   0  0  0  0  0  0  0  0  0  0  0  0
   -2.1080   -1.5322   -0.8436 H   0  0  0  0  0  0  0  0  0  0  0  0
   -1.2466   -1.7326    1.8647 H   0  0  0  0  0  0  0  0  0  0  0  0
    1.1430   -0.9518   -1.2273 H   0  0  0  0  0  0  0  0  0  0  0  0
    0.2413    0.5236   -1.9363 H   0  0  0  0  0  0  0  0  0  0  0  0
    0.6218    1.7569    0.1488 H   0  0  0  0  0  0  0  0  0  0  0  0
    2.7859    1.4703    1.0180 H   0  0  0  0  0  0  0  0  0  0  0  0
    2.7370   -0.3551    0.7557 H   0  0  0  0  0  0  0  0  0  0  0  0
    2.9858    0.7654   -0.6802 H   0  0  0  0  0  0  0  0  0  0  0  0
  1  2  3  0
  2  3  1  0
  3  4  1  0
  4  5  1  0
  3  6  1  0
  6  7  1  0
  7  8  1  0
  7  9  1  0
  9  3  1  0
  1 10  1  0
  4 11  1  0
  4 12  1  0
  5 13  1  0
  6 14  1  0
  6 15  1  0
  7 16  1  0
  8 17  1  0
  8 18  1  0
  8 19  1  0
M  END
