
     RDKit          3D

 21 22  0  0  0  0  0  0  0  0999 V2000
   -2.4735    2.2029   -0.7699 C   0  0  0  0  0  0  0  0  0  0  0  0
   -1.7844    1.2110   -0.6479 C   0  0  0  0  0  0  0  0  0  0  0  0
   -0.9474   -0.0097   -0.5227 C   0  0  0  0  0  0  0  0  0  0  0  0
   -1.6433   -1.1956   -1.2076 C   0  0  0  0  0  0  0  0  0  0  0  0
   -0.2735   -0.2716    0.6749 C   0  0  0  0  0  0  0  0  0  0  0  0
    0.8613   -1.1345    1.0837 C   0  0  0  0  0  0  0  0  0  0  0  0
    1.9804   -0.0718    1.0235 C   0  0  0  0  0  0  0  0  0  0  0  0
    1.4743    0.9667   -0.0006 C   0  0  0  0  0  0  0  0  0  0  0  0
    0.4358    0.1535   -0.6757 C   0  0  0  0  0  0  0  0  0  0  0  0
   -3.0662    3.0754   -0.8637 H   0  0  0  0  0  0  0  0  0  0  0  0
   -0.9491   -2.0694   -1.2538 H   0  0  0  0  0  0  0  0  0  0  0  0
   -2.5869   -1.4086   -0.7010 H   0  0  0  0  0  0  0  0  0  0  0  0
   -1.8938   -0.8330   -2.2270 H   0  0  0  0  0  0  0  0  0  0  0  0
   -0.3556    0.5555    1.4520 H   0  0  0  0  0  0  0  0  0  0  0  0
    1.1169   -1.9059    0.3074 H   0  0  0  0  0  0  0  0  0  0  0  0
    0.7740   -1.5673    2.0845 H   0  0  0  0  0  0  0  0  0  0  0  0
    2.0040    0.4448    1.9864 H   0  0  0  0  0  0  0  0  0  0  0  0
    2.9311   -0.5084    0.7128 H   0  0  0  0  0  0  0  0  0  0  0  0
    2.3215    1.1805   -0.7005 H   0  0  0  0  0  0  0  0  0  0  0  0
    1.1168    1.8735    0.4851 H   0  0  0  0  0  0  0  0  0  0  0  0
    0.9576   -0.6881   -1.2303 H   0  0  0  0  0  0  0  0  0  0  0  0
  1  2  3  0
  2  3  1  0
  3  4  1  0
  3  5  1  0
  5  6  1  0
  6  7  1  0
  7  8  1  0
  8  9  1  0
  9  3  1  0
  9  5  1  0
  1 10  1  0
  4 11  1  0
  4 12  1  0
  4 13  1  0
  5 14  1  0
  6 15  1  0
  6 16  1  0
  7 17  1  0
  7 18  1  0
  8 19  1  0
  8 20  1  0
  9 21  1  0
M  END
