
     RDKit          3D

 17 17  0  0  0  0  0  0  0  0999 V2000
    2.0748   -1.9557    1.2542 C   0  0  0  0  0  0  0  0  0  0  0  0
    1.1419   -1.2338    1.0042 C   0  0  0  0  0  0  0  0  0  0  0  0
    0.0374   -0.3504    0.6937 C   0  0  0  0  0  0  0  0  0  0  0  0
    0.5379    1.0881    0.7308 C   0  0  0  0  0  0  0  0  0  0  0  0
   -0.5412    1.7831   -0.0191 C   0  0  0  0  0  0  0  0  0  0  0  0
   -0.8630    2.9494    0.0672 O   0  0  0  0  0  0  0  0  0  0  0  0
   -1.2029    0.8122   -0.9306 C   0  0  0  0  0  0  0  0  0  0  0  0
   -0.4019   -0.4636   -0.7555 C   0  0  0  0  0  0  0  0  0  0  0  0
   -1.1377   -1.5992   -0.9940 O   0  0  0  0  0  0  0  0  0  0  0  0
    2.9183   -2.5856    1.4825 H   0  0  0  0  0  0  0  0  0  0  0  0
   -0.8103   -0.5043    1.3879 H   0  0  0  0  0  0  0  0  0  0  0  0
    1.4766    1.1066    0.1657 H   0  0  0  0  0  0  0  0  0  0  0  0
    0.6380    1.4658    1.7667 H   0  0  0  0  0  0  0  0  0  0  0  0
   -1.1830    1.1872   -1.9545 H   0  0  0  0  0  0  0  0  0  0  0  0
   -2.2574    0.6034   -0.6033 H   0  0  0  0  0  0  0  0  0  0  0  0
    0.5150   -0.3750   -1.3683 H   0  0  0  0  0  0  0  0  0  0  0  0
   -0.9424   -1.9282   -1.9276 H   0  0  0  0  0  0  0  0  0  0  0  0
  1  2  3  0
  2  3  1  0
  3  4  1  0
  4  5  1  0
  5  6  2  0
  5  7  1  0
  7  8  1  0
  8  9  1  0
  8  3  1  0
  1 10  1  0
  3 11  1  0
  4 12  1  0
  4 13  1  0
  7 14  1  0
  7 15  1  0
  8 16  1  0
  9 17  1  0
M  END
