
     RDKit          3D

 17 19  0  0  0  0  0  0  0  0999 V2000
    3.2966   -0.1905    0.0338 C   0  0  0  0  0  0  0  0  0  0  0  0
    2.2098    0.0849    0.2512 C   0  0  0  0  0  0  0  0  0  0  0  0
    0.7651    0.4410    0.5650 C   0  0  0  0  0  0  0  0  0  0  0  0
   -0.1484   -0.6844    0.7627 C   0  0  0  0  0  0  0  0  0  0  0  0
   -1.5465   -0.9178    0.3628 C   0  0  0  0  0  0  0  0  0  0  0  0
   -2.0143   -1.5896   -0.7001 O   0  0  0  0  0  0  0  0  0  0  0  0
   -0.8238   -1.0518   -0.9734 C   0  0  0  0  0  0  0  0  0  0  0  0
   -0.1901    0.2001   -0.5144 C   0  0  0  0  0  0  0  0  0  0  0  0
   -1.0564    1.3742   -0.7191 C   0  0  0  0  0  0  0  0  0  0  0  0
    4.3733   -0.4825   -0.1753 H   0  0  0  0  0  0  0  0  0  0  0  0
    0.7275    1.2431    1.3027 H   0  0  0  0  0  0  0  0  0  0  0  0
    0.3930   -1.6777    0.6100 H   0  0  0  0  0  0  0  0  0  0  0  0
   -2.2191   -0.1317    0.6418 H   0  0  0  0  0  0  0  0  0  0  0  0
   -0.0430   -1.8817   -1.0079 H   0  0  0  0  0  0  0  0  0  0  0  0
   -0.8744    1.6748   -1.8102 H   0  0  0  0  0  0  0  0  0  0  0  0
   -0.7152    2.3292   -0.2027 H   0  0  0  0  0  0  0  0  0  0  0  0
   -2.1341    1.2603   -0.6717 H   0  0  0  0  0  0  0  0  0  0  0  0
  1  2  3  0
  2  3  1  0
  3  4  1  0
  4  5  1  0
  5  6  1  0
  6  7  1  0
  7  8  1  0
  8  9  1  0
  8  3  1  0
  8  4  1  0
  7  5  1  0
  1 10  1  0
  3 11  1  0
  4 12  1  0
  5 13  1  0
  7 14  1  0
  9 15  1  0
  9 16  1  0
  9 17  1  0
M  END
