
     RDKit          3D

 15 14  0  0  0  0  0  0  0  0999 V2000
    2.9662    0.4190    0.2593 C   0  0  0  0  0  0  0  0  0  0  0  0
    1.8217   -0.0781    0.0615 C   0  0  0  0  0  0  0  0  0  0  0  0
    0.5054   -0.6486   -0.1483 C   0  0  0  0  0  0  0  0  0  0  0  0
    0.3205   -1.7085    0.7802 O   0  0  0  0  0  0  0  0  0  0  0  0
   -0.5840    0.3665    0.2053 C   0  0  0  0  0  0  0  0  0  0  0  0
   -1.9025   -0.2316   -0.0120 C   0  0  0  0  0  0  0  0  0  0  0  0
   -3.0105   -0.7496   -0.1791 C   0  0  0  0  0  0  0  0  0  0  0  0
   -0.4447    1.5948   -0.6018 C   0  0  0  0  0  0  0  0  0  0  0  0
    0.5826    1.8177   -1.2583 O   0  0  0  0  0  0  0  0  0  0  0  0
    3.8678    0.7956    0.4189 H   0  0  0  0  0  0  0  0  0  0  0  0
    0.3841   -1.0506   -1.1595 H   0  0  0  0  0  0  0  0  0  0  0  0
    1.1788   -2.2413    0.7355 H   0  0  0  0  0  0  0  0  0  0  0  0
   -0.5121    0.5954    1.2850 H   0  0  0  0  0  0  0  0  0  0  0  0
   -3.9599   -1.2019   -0.3133 H   0  0  0  0  0  0  0  0  0  0  0  0
   -1.2131    2.3212   -0.6427 H   0  0  0  0  0  0  0  0  0  0  0  0
  1  2  3  0
  2  3  1  0
  3  4  1  0
  3  5  1  0
  5  6  1  0
  6  7  3  0
  5  8  1  0
  8  9  2  0
  1 10  1  0
  3 11  1  0
  4 12  1  0
  5 13  1  0
  7 14  1  0
  8 15  1  0
M  END
