
     RDKit          3D

 19 20  0  0  0  0  0  0  0  0999 V2000
    2.8587    1.7314    1.1349 C   0  0  0  0  0  0  0  0  0  0  0  0
    2.0022    1.0946    1.0424 C   0  0  0  0  0  0  0  0  0  0  0  0
    0.7899    0.1784    0.8874 C   0  0  0  0  0  0  0  0  0  0  0  0
    0.9408   -1.2520    0.8024 C   0  0  0  0  0  0  0  0  0  0  0  0
    0.4785   -0.4629   -0.3897 C   0  0  0  0  0  0  0  0  0  0  0  0
   -1.0029   -0.5489   -0.7934 C   0  0  0  0  0  0  0  0  0  0  0  0
   -1.6688   -1.6693   -0.3529 O   0  0  0  0  0  0  0  0  0  0  0  0
   -1.4963    0.4278   -1.7992 C   0  0  0  0  0  0  0  0  0  0  0  0
   -1.7593    0.7244   -0.3882 C   0  0  0  0  0  0  0  0  0  0  0  0
    3.8376    2.4724    1.2287 H   0  0  0  0  0  0  0  0  0  0  0  0
   -0.0471    0.5247    1.5898 H   0  0  0  0  0  0  0  0  0  0  0  0
    0.1551   -1.8981    1.2996 H   0  0  0  0  0  0  0  0  0  0  0  0
    1.9067   -1.7778    0.7866 H   0  0  0  0  0  0  0  0  0  0  0  0
    1.1782   -0.4902   -1.2130 H   0  0  0  0  0  0  0  0  0  0  0  0
   -1.0650   -2.4350   -0.4560 H   0  0  0  0  0  0  0  0  0  0  0  0
   -0.7509    1.1023   -2.3575 H   0  0  0  0  0  0  0  0  0  0  0  0
   -2.3739    0.2232   -2.4874 H   0  0  0  0  0  0  0  0  0  0  0  0
   -1.2185    1.5141    0.1537 H   0  0  0  0  0  0  0  0  0  0  0  0
   -2.7652    0.5411    0.0136 H   0  0  0  0  0  0  0  0  0  0  0  0
  1  2  3  0
  2  3  1  0
  3  4  1  0
  4  5  1  0
  5  6  1  0
  6  7  1  0
  6  8  1  0
  8  9  1  0
  5  3  1  0
  9  6  1  0
  1 10  1  0
  3 11  1  0
  4 12  1  0
  4 13  1  0
  5 14  1  0
  7 15  1  0
  8 16  1  0
  8 17  1  0
  9 18  1  0
  9 19  1  0
M  END
