
     RDKit          3D

 21 21  0  0  0  0  0  0  0  0999 V2000
    3.1676    0.8623    0.6225 C   0  0  0  0  0  0  0  0  0  0  0  0
    2.2001    0.6835   -0.1108 C   0  0  0  0  0  0  0  0  0  0  0  0
    1.0456    0.4479   -0.9750 C   0  0  0  0  0  0  0  0  0  0  0  0
    0.0759   -0.4373   -0.2335 C   0  0  0  0  0  0  0  0  0  0  0  0
   -1.1640   -0.7283   -1.0927 C   0  0  0  0  0  0  0  0  0  0  0  0
   -2.1886   -0.9937   -0.0212 C   0  0  0  0  0  0  0  0  0  0  0  0
   -1.6772   -0.5630    1.1712 O   0  0  0  0  0  0  0  0  0  0  0  0
   -0.6007    0.2819    0.9142 C   0  0  0  0  0  0  0  0  0  0  0  0
    0.2889    0.4507    2.1105 C   0  0  0  0  0  0  0  0  0  0  0  0
    3.9918    1.0240    1.2677 H   0  0  0  0  0  0  0  0  0  0  0  0
    1.3544   -0.0218   -1.9235 H   0  0  0  0  0  0  0  0  0  0  0  0
    0.5613    1.4268   -1.2160 H   0  0  0  0  0  0  0  0  0  0  0  0
    0.5173   -1.3964    0.0372 H   0  0  0  0  0  0  0  0  0  0  0  0
   -1.4184    0.2199   -1.5909 H   0  0  0  0  0  0  0  0  0  0  0  0
   -1.0058   -1.5739   -1.7661 H   0  0  0  0  0  0  0  0  0  0  0  0
   -2.4345   -2.0853    0.0077 H   0  0  0  0  0  0  0  0  0  0  0  0
   -3.1394   -0.4151   -0.2058 H   0  0  0  0  0  0  0  0  0  0  0  0
   -0.9950    1.2233    0.5182 H   0  0  0  0  0  0  0  0  0  0  0  0
    0.7363    1.4631    2.0695 H   0  0  0  0  0  0  0  0  0  0  0  0
   -0.3776    0.4683    3.0182 H   0  0  0  0  0  0  0  0  0  0  0  0
    1.0620   -0.3369    2.1994 H   0  0  0  0  0  0  0  0  0  0  0  0
  1  2  3  0
  2  3  1  0
  3  4  1  0
  4  5  1  0
  5  6  1  0
  6  7  1  0
  7  8  1  0
  8  9  1  0
  8  4  1  0
  1 10  1  0
  3 11  1  0
  3 12  1  0
  4 13  1  0
  5 14  1  0
  5 15  1  0
  6 16  1  0
  6 17  1  0
  8 18  1  0
  9 19  1  0
  9 20  1  0
  9 21  1  0
M  END
