
     RDKit          3D

 20 20  0  0  0  0  0  0  0  0999 V2000
   -2.6996    0.8008   -2.0724 C   0  0  0  0  0  0  0  0  0  0  0  0
   -1.9330    0.4336   -1.2111 C   0  0  0  0  0  0  0  0  0  0  0  0
   -0.9929   -0.0099   -0.1748 C   0  0  0  0  0  0  0  0  0  0  0  0
    0.4383    0.2637   -0.5054 C   0  0  0  0  0  0  0  0  0  0  0  0
    1.4193   -0.1725    0.5227 C   0  0  0  0  0  0  0  0  0  0  0  0
    2.8100    0.1831    0.0208 C   0  0  0  0  0  0  0  0  0  0  0  0
   -1.4212   -1.1860    0.6025 C   0  0  0  0  0  0  0  0  0  0  0  0
   -1.4550    0.1452    1.2703 C   0  0  0  0  0  0  0  0  0  0  0  0
   -3.3591    1.1181   -2.8370 H   0  0  0  0  0  0  0  0  0  0  0  0
    0.6738   -0.2753   -1.4538 H   0  0  0  0  0  0  0  0  0  0  0  0
    0.5419    1.3469   -0.7212 H   0  0  0  0  0  0  0  0  0  0  0  0
    1.3950   -1.2763    0.6113 H   0  0  0  0  0  0  0  0  0  0  0  0
    1.2838    0.2478    1.5149 H   0  0  0  0  0  0  0  0  0  0  0  0
    3.6052   -0.3621    0.5564 H   0  0  0  0  0  0  0  0  0  0  0  0
    2.9946    1.2644    0.0573 H   0  0  0  0  0  0  0  0  0  0  0  0
    2.9177   -0.1038   -1.0658 H   0  0  0  0  0  0  0  0  0  0  0  0
   -2.4196   -1.6262    0.4006 H   0  0  0  0  0  0  0  0  0  0  0  0
   -0.7057   -1.8983    1.0427 H   0  0  0  0  0  0  0  0  0  0  0  0
   -2.4090    0.6796    1.4233 H   0  0  0  0  0  0  0  0  0  0  0  0
   -0.6846    0.4273    2.0189 H   0  0  0  0  0  0  0  0  0  0  0  0
  1  2  3  0
  2  3  1  0
  3  4  1  0
  4  5  1  0
  5  6  1  0
  3  7  1  0
  7  8  1  0
  8  3  1  0
  1  9  1  0
  4 10  1  0
  4 11  1  0
  5 12  1  0
  5 13  1  0
  6 14  1  0
  6 15  1  0
  6 16  1  0
  7 17  1  0
  7 18  1  0
  8 19  1  0
  8 20  1  0
M  END
