
     RDKit          3D

 19 19  0  0  0  0  0  0  0  0999 V2000
    1.2985    2.5099   -0.4804 C   0  0  0  0  0  0  0  0  0  0  0  0
    0.2627    2.0077   -0.0115 C   0  0  0  0  0  0  0  0  0  0  0  0
   -0.8715    1.4395    0.5246 C   0  0  0  0  0  0  0  0  0  0  0  0
   -0.7313   -0.0909    0.3739 C   0  0  0  0  0  0  0  0  0  0  0  0
    0.4920   -0.6152    1.1202 C   0  0  0  0  0  0  0  0  0  0  0  0
    0.6404   -1.9352    0.3638 C   0  0  0  0  0  0  0  0  0  0  0  0
    0.2393   -1.7597   -0.8772 C   0  0  0  0  0  0  0  0  0  0  0  0
   -0.2027   -0.3382   -1.0496 C   0  0  0  0  0  0  0  0  0  0  0  0
   -1.1931   -0.1420   -1.9598 O   0  0  0  0  0  0  0  0  0  0  0  0
    2.2747    2.9773   -0.8996 H   0  0  0  0  0  0  0  0  0  0  0  0
   -1.8120    1.6918   -0.0080 H   0  0  0  0  0  0  0  0  0  0  0  0
   -1.0572    1.6165    1.6097 H   0  0  0  0  0  0  0  0  0  0  0  0
   -1.5811   -0.6585    0.6379 H   0  0  0  0  0  0  0  0  0  0  0  0
    1.3917   -0.0164    0.8746 H   0  0  0  0  0  0  0  0  0  0  0  0
    0.3202   -0.7840    2.1950 H   0  0  0  0  0  0  0  0  0  0  0  0
    1.0259   -2.7999    0.8426 H   0  0  0  0  0  0  0  0  0  0  0  0
    0.1900   -2.4765   -1.6810 H   0  0  0  0  0  0  0  0  0  0  0  0
    0.6924    0.2850   -1.2031 H   0  0  0  0  0  0  0  0  0  0  0  0
   -1.3790   -0.9111   -2.5137 H   0  0  0  0  0  0  0  0  0  0  0  0
  1  2  3  0
  2  3  1  0
  3  4  1  0
  4  5  1  0
  5  6  1  0
  6  7  2  0
  7  8  1  0
  8  9  1  0
  8  4  1  0
  1 10  1  0
  3 11  1  0
  3 12  1  0
  4 13  1  0
  5 14  1  0
  5 15  1  0
  6 16  1  0
  7 17  1  0
  8 18  1  0
  9 19  1  0
M  END
