
     RDKit          3D

 19 19  0  0  0  0  0  0  0  0999 V2000
   -2.5508   -0.9639    1.5539 C   0  0  0  0  0  0  0  0  0  0  0  0
   -1.8117   -0.4722    0.6890 C   0  0  0  0  0  0  0  0  0  0  0  0
   -1.0343    0.0501   -0.1924 C   0  0  0  0  0  0  0  0  0  0  0  0
    0.3607    0.4653    0.4812 C   0  0  0  0  0  0  0  0  0  0  0  0
    0.8291    1.8636    0.2736 C   0  0  0  0  0  0  0  0  0  0  0  0
    0.2892   -0.4490   -0.8084 C   0  0  0  0  0  0  0  0  0  0  0  0
    0.4936   -1.9336   -0.5568 C   0  0  0  0  0  0  0  0  0  0  0  0
    0.7327    0.2502   -1.9550 C   0  0  0  0  0  0  0  0  0  0  0  0
    1.1269    0.8771   -3.0191 C   0  0  0  0  0  0  0  0  0  0  0  0
   -3.2988   -1.4441    2.4428 H   0  0  0  0  0  0  0  0  0  0  0  0
   -1.3979    0.9332   -0.9134 H   0  0  0  0  0  0  0  0  0  0  0  0
    0.5222   -0.1068    1.4290 H   0  0  0  0  0  0  0  0  0  0  0  0
    1.3237    2.1433    1.2765 H   0  0  0  0  0  0  0  0  0  0  0  0
    1.7042    1.9482   -0.4259 H   0  0  0  0  0  0  0  0  0  0  0  0
   -0.0181    2.5324    0.1050 H   0  0  0  0  0  0  0  0  0  0  0  0
    1.2376   -2.1659    0.2070 H   0  0  0  0  0  0  0  0  0  0  0  0
    0.6112   -2.6105   -1.4047 H   0  0  0  0  0  0  0  0  0  0  0  0
   -0.5580   -2.2738   -0.1365 H   0  0  0  0  0  0  0  0  0  0  0  0
    1.4382    1.3564   -3.8426 H   0  0  0  0  0  0  0  0  0  0  0  0
  1  2  3  0
  2  3  1  0
  3  4  1  0
  4  5  1  0
  4  6  1  0
  6  7  1  0
  6  8  1  0
  8  9  3  0
  6  3  1  0
  1 10  1  0
  3 11  1  0
  4 12  1  0
  5 13  1  0
  5 14  1  0
  5 15  1  0
  7 16  1  0
  7 17  1  0
  7 18  1  0
  9 19  1  0
M  END
