
     RDKit          3D

 17 18  0  0  0  0  0  0  0  0999 V2000
    3.4080    1.1020    0.5973 C   0  0  0  0  0  0  0  0  0  0  0  0
    2.4083    0.4223    0.5430 C   0  0  0  0  0  0  0  0  0  0  0  0
    1.1854   -0.3786    0.4735 C   0  0  0  0  0  0  0  0  0  0  0  0
    1.0458   -1.0004   -0.7684 O   0  0  0  0  0  0  0  0  0  0  0  0
   -0.3350   -1.2787   -0.8619 C   0  0  0  0  0  0  0  0  0  0  0  0
   -0.9137    0.0797   -0.4387 C   0  0  0  0  0  0  0  0  0  0  0  0
   -2.4026    0.2235   -0.4961 C   0  0  0  0  0  0  0  0  0  0  0  0
   -0.1316    1.2040   -0.8213 O   0  0  0  0  0  0  0  0  0  0  0  0
   -0.0217    0.5620    0.5134 C   0  0  0  0  0  0  0  0  0  0  0  0
    4.2731    1.7124    0.6467 H   0  0  0  0  0  0  0  0  0  0  0  0
    1.1600   -1.1214    1.2665 H   0  0  0  0  0  0  0  0  0  0  0  0
   -0.6372   -2.0226   -0.0795 H   0  0  0  0  0  0  0  0  0  0  0  0
   -0.6273   -1.5556   -1.8716 H   0  0  0  0  0  0  0  0  0  0  0  0
   -2.8146   -0.3905   -1.3407 H   0  0  0  0  0  0  0  0  0  0  0  0
   -2.8090   -0.1787    0.4718 H   0  0  0  0  0  0  0  0  0  0  0  0
   -2.6999    1.2917   -0.5954 H   0  0  0  0  0  0  0  0  0  0  0  0
   -0.0879    1.3289    1.2756 H   0  0  0  0  0  0  0  0  0  0  0  0
  1  2  3  0
  2  3  1  0
  3  4  1  0
  4  5  1  0
  5  6  1  0
  6  7  1  0
  6  8  1  0
  8  9  1  0
  9  3  1  0
  9  6  1  0
  1 10  1  0
  3 11  1  0
  5 12  1  0
  5 13  1  0
  7 14  1  0
  7 15  1  0
  7 16  1  0
  9 17  1  0
M  END
