
     RDKit          3D

 19 18  0  0  0  0  0  0  0  0999 V2000
    3.0507   -0.8418   -0.6826 C   0  0  0  0  0  0  0  0  0  0  0  0
    2.0806   -0.5110   -0.0242 C   0  0  0  0  0  0  0  0  0  0  0  0
    0.9767   -0.1150    0.7481 C   0  0  0  0  0  0  0  0  0  0  0  0
    1.1905    0.2730    1.9462 O   0  0  0  0  0  0  0  0  0  0  0  0
   -0.4313   -0.0969    0.3263 C   0  0  0  0  0  0  0  0  0  0  0  0
   -1.1526   -1.1043    1.2360 C   0  0  0  0  0  0  0  0  0  0  0  0
   -0.9731    1.2720    0.7156 C   0  0  0  0  0  0  0  0  0  0  0  0
   -0.7102   -0.4443   -0.9494 O   0  0  0  0  0  0  0  0  0  0  0  0
   -0.1966    0.3177   -1.9617 C   0  0  0  0  0  0  0  0  0  0  0  0
    3.8859   -1.1179   -1.2673 H   0  0  0  0  0  0  0  0  0  0  0  0
   -1.0726   -0.7701    2.2802 H   0  0  0  0  0  0  0  0  0  0  0  0
   -0.7283   -2.1221    1.1184 H   0  0  0  0  0  0  0  0  0  0  0  0
   -2.1946   -1.1470    0.9189 H   0  0  0  0  0  0  0  0  0  0  0  0
   -2.0714    1.2475    0.8927 H   0  0  0  0  0  0  0  0  0  0  0  0
   -0.7675    2.0545   -0.0141 H   0  0  0  0  0  0  0  0  0  0  0  0
   -0.5272    1.5562    1.7128 H   0  0  0  0  0  0  0  0  0  0  0  0
   -0.5273    1.3868   -1.9230 H   0  0  0  0  0  0  0  0  0  0  0  0
    0.8680    0.2175   -2.1642 H   0  0  0  0  0  0  0  0  0  0  0  0
   -0.6996   -0.0548   -2.9087 H   0  0  0  0  0  0  0  0  0  0  0  0
  1  2  3  0
  2  3  1  0
  3  4  2  0
  3  5  1  0
  5  6  1  0
  5  7  1  0
  5  8  1  0
  8  9  1  0
  1 10  1  0
  6 11  1  0
  6 12  1  0
  6 13  1  0
  7 14  1  0
  7 15  1  0
  7 16  1  0
  9 17  1  0
  9 18  1  0
  9 19  1  0
M  END
