
     RDKit          3D

 13 12  0  0  0  0  0  0  0  0999 V2000
    3.8643    0.4927   -1.2089 C   0  0  0  0  0  0  0  0  0  0  0  0
    2.8052    0.9024   -1.6998 C   0  0  0  0  0  0  0  0  0  0  0  0
    1.6919    1.3479   -2.2254 C   0  0  0  0  0  0  0  0  0  0  0  0
    1.4932    1.9904   -3.2510 O   0  0  0  0  0  0  0  0  0  0  0  0
    0.6058    0.8400   -1.2562 C   0  0  0  0  0  0  0  0  0  0  0  0
   -0.2693    0.4413   -0.4603 C   0  0  0  0  0  0  0  0  0  0  0  0
   -1.2486    0.0065    0.4436 C   0  0  0  0  0  0  0  0  0  0  0  0
   -1.8772   -0.2761    1.0059 C   0  0  0  0  0  0  0  0  0  0  0  0
   -2.9988   -0.7562    2.0221 C   0  0  0  0  0  0  0  0  0  0  0  0
    5.4045   -0.0802   -0.4808 H   0  0  0  0  0  0  0  0  0  0  0  0
   -3.0230   -1.7904    2.1312 H   0  0  0  0  0  0  0  0  0  0  0  0
   -2.5834   -0.3804    3.0745 H   0  0  0  0  0  0  0  0  0  0  0  0
   -3.8646   -0.1043    1.9052 H   0  0  0  0  0  0  0  0  0  0  0  0
  1  2  3  0
  2  3  1  0
  3  4  2  0
  3  5  1  0
  5  6  3  0
  6  7  1  0
  7  8  3  0
  8  9  1  0
  1 10  1  0
  9 11  1  0
  9 12  1  0
  9 13  1  0
M  END
