
     RDKit          3D

 20 19  0  0  0  0  0  0  0  0999 V2000
    2.0994    1.7720   -0.0824 C   0  0  0  0  0  0  0  0  0  0  0  0
    1.3084    0.8769   -0.2542 C   0  0  0  0  0  0  0  0  0  0  0  0
    0.3329   -0.2188   -0.4397 C   0  0  0  0  0  0  0  0  0  0  0  0
   -0.2536   -0.1151   -1.6798 O   0  0  0  0  0  0  0  0  0  0  0  0
    0.0018   -1.2660   -2.4636 C   0  0  0  0  0  0  0  0  0  0  0  0
   -0.6564   -0.1932    0.6943 C   0  0  0  0  0  0  0  0  0  0  0  0
   -1.4167    1.1120    0.7631 C   0  0  0  0  0  0  0  0  0  0  0  0
    0.0845   -0.4280    1.9740 C   0  0  0  0  0  0  0  0  0  0  0  0
    2.8140    2.5544    0.0772 H   0  0  0  0  0  0  0  0  0  0  0  0
    0.8571   -1.1964   -0.3886 H   0  0  0  0  0  0  0  0  0  0  0  0
   -0.4661   -1.1781   -3.4473 H   0  0  0  0  0  0  0  0  0  0  0  0
   -0.3549   -2.1443   -1.8933 H   0  0  0  0  0  0  0  0  0  0  0  0
    1.1187   -1.3015   -2.5505 H   0  0  0  0  0  0  0  0  0  0  0  0
   -1.4024   -0.9959    0.5206 H   0  0  0  0  0  0  0  0  0  0  0  0
   -2.1214    1.1480   -0.0963 H   0  0  0  0  0  0  0  0  0  0  0  0
   -2.0125    1.0829    1.6998 H   0  0  0  0  0  0  0  0  0  0  0  0
   -0.7557    1.9790    0.6783 H   0  0  0  0  0  0  0  0  0  0  0  0
    0.9718    0.2571    2.0164 H   0  0  0  0  0  0  0  0  0  0  0  0
    0.4006   -1.4944    1.9946 H   0  0  0  0  0  0  0  0  0  0  0  0
   -0.5495   -0.2504    2.8775 H   0  0  0  0  0  0  0  0  0  0  0  0
  1  2  3  0
  2  3  1  0
  3  4  1  0
  4  5  1  0
  3  6  1  0
  6  7  1  0
  6  8  1  0
  1  9  1  0
  3 10  1  0
  5 11  1  0
  5 12  1  0
  5 13  1  0
  6 14  1  0
  7 15  1  0
  7 16  1  0
  7 17  1  0
  8 18  1  0
  8 19  1  0
  8 20  1  0
M  END
