
     RDKit          3D

 19 20  0  0  0  0  0  0  0  0999 V2000
    2.5724   -1.8983    0.5509 C   0  0  0  0  0  0  0  0  0  0  0  0
    1.3723   -1.8967    0.2972 C   0  0  0  0  0  0  0  0  0  0  0  0
   -0.0368   -1.8975   -0.0264 C   0  0  0  0  0  0  0  0  0  0  0  0
   -0.7391   -1.0573    1.0519 C   0  0  0  0  0  0  0  0  0  0  0  0
   -0.2098    0.3129    0.6997 C   0  0  0  0  0  0  0  0  0  0  0  0
   -0.9769    1.1156   -0.2518 C   0  0  0  0  0  0  0  0  0  0  0  0
   -0.5984    2.5966   -0.3974 C   0  0  0  0  0  0  0  0  0  0  0  0
    0.0004    0.1832   -0.8253 C   0  0  0  0  0  0  0  0  0  0  0  0
   -0.3231   -1.1227   -1.1505 O   0  0  0  0  0  0  0  0  0  0  0  0
    3.6103   -1.9003    0.7557 H   0  0  0  0  0  0  0  0  0  0  0  0
   -0.4847   -2.8853   -0.1079 H   0  0  0  0  0  0  0  0  0  0  0  0
   -1.8322   -1.1311    0.8398 H   0  0  0  0  0  0  0  0  0  0  0  0
   -0.4683   -1.3885    2.0546 H   0  0  0  0  0  0  0  0  0  0  0  0
    0.6879    0.6939    1.2236 H   0  0  0  0  0  0  0  0  0  0  0  0
   -2.0636    0.9437   -0.3530 H   0  0  0  0  0  0  0  0  0  0  0  0
   -0.1178    2.6841   -1.3978 H   0  0  0  0  0  0  0  0  0  0  0  0
   -1.4980    3.2446   -0.3919 H   0  0  0  0  0  0  0  0  0  0  0  0
    0.1359    2.8923    0.3844 H   0  0  0  0  0  0  0  0  0  0  0  0
    0.9693    0.5109   -1.2383 H   0  0  0  0  0  0  0  0  0  0  0  0
  1  2  3  0
  2  3  1  0
  3  4  1  0
  4  5  1  0
  5  6  1  0
  6  7  1  0
  6  8  1  0
  8  9  1  0
  9  3  1  0
  8  5  1  0
  1 10  1  0
  3 11  1  0
  4 12  1  0
  4 13  1  0
  5 14  1  0
  6 15  1  0
  7 16  1  0
  7 17  1  0
  7 18  1  0
  8 19  1  0
M  END
