
     RDKit          3D

 19 19  0  0  0  0  0  0  0  0999 V2000
    3.2192    0.7431    0.1119 C   0  0  0  0  0  0  0  0  0  0  0  0
    2.2610    0.0621    0.3991 C   0  0  0  0  0  0  0  0  0  0  0  0
    1.0878   -0.7664    0.7498 C   0  0  0  0  0  0  0  0  0  0  0  0
    0.0322   -0.5525   -0.3387 C   0  0  0  0  0  0  0  0  0  0  0  0
    0.4850   -0.9175   -1.5800 O   0  0  0  0  0  0  0  0  0  0  0  0
   -0.3681    0.9223   -0.3249 C   0  0  0  0  0  0  0  0  0  0  0  0
   -1.5927    0.5122    0.4605 C   0  0  0  0  0  0  0  0  0  0  0  0
   -2.7859    1.0208   -0.0349 O   0  0  0  0  0  0  0  0  0  0  0  0
   -1.3545   -0.9308    0.0354 C   0  0  0  0  0  0  0  0  0  0  0  0
    4.0628    1.3390   -0.1274 H   0  0  0  0  0  0  0  0  0  0  0  0
    0.6620   -0.4100    1.7104 H   0  0  0  0  0  0  0  0  0  0  0  0
    1.3831   -1.8220    0.8271 H   0  0  0  0  0  0  0  0  0  0  0  0
    1.2278   -1.5683   -1.5106 H   0  0  0  0  0  0  0  0  0  0  0  0
   -0.6485    1.3290   -1.3123 H   0  0  0  0  0  0  0  0  0  0  0  0
    0.3425    1.5845    0.2059 H   0  0  0  0  0  0  0  0  0  0  0  0
   -1.4547    0.6001    1.5576 H   0  0  0  0  0  0  0  0  0  0  0  0
   -3.1950    1.6845    0.5793 H   0  0  0  0  0  0  0  0  0  0  0  0
   -1.3853   -1.6632    0.8603 H   0  0  0  0  0  0  0  0  0  0  0  0
   -1.9787   -1.1668   -0.8422 H   0  0  0  0  0  0  0  0  0  0  0  0
  1  2  3  0
  2  3  1  0
  3  4  1  0
  4  5  1  0
  4  6  1  0
  6  7  1  0
  7  8  1  0
  7  9  1  0
  9  4  1  0
  1 10  1  0
  3 11  1  0
  3 12  1  0
  5 13  1  0
  6 14  1  0
  6 15  1  0
  7 16  1  0
  8 17  1  0
  9 18  1  0
  9 19  1  0
M  END
