
     RDKit          3D

 15 16  0  0  0  0  0  0  0  0999 V2000
    2.7048    1.3375    0.1348 C   0  0  0  0  0  0  0  0  0  0  0  0
    1.8320    0.5437    0.0042 C   0  0  0  0  0  0  0  0  0  0  0  0
    0.7852   -0.4382   -0.1632 C   0  0  0  0  0  0  0  0  0  0  0  0
    0.5229   -1.4470    0.8737 C   0  0  0  0  0  0  0  0  0  0  0  0
   -0.4486   -0.3526    0.6795 C   0  0  0  0  0  0  0  0  0  0  0  0
   -1.2192   -0.3583   -0.6001 C   0  0  0  0  0  0  0  0  0  0  0  0
   -1.9835    0.8990   -0.8752 C   0  0  0  0  0  0  0  0  0  0  0  0
   -1.5417    1.7346   -1.6442 O   0  0  0  0  0  0  0  0  0  0  0  0
   -0.0176   -0.4215   -1.3042 O   0  0  0  0  0  0  0  0  0  0  0  0
    3.4817    2.0485    0.2472 H   0  0  0  0  0  0  0  0  0  0  0  0
    0.1421   -2.4637    0.6046 H   0  0  0  0  0  0  0  0  0  0  0  0
    1.1318   -1.4034    1.7900 H   0  0  0  0  0  0  0  0  0  0  0  0
   -0.5676    0.4689    1.4116 H   0  0  0  0  0  0  0  0  0  0  0  0
   -1.8976   -1.2290   -0.7560 H   0  0  0  0  0  0  0  0  0  0  0  0
   -2.9247    1.0817   -0.4028 H   0  0  0  0  0  0  0  0  0  0  0  0
  1  2  3  0
  2  3  1  0
  3  4  1  0
  4  5  1  0
  5  6  1  0
  6  7  1  0
  7  8  2  0
  6  9  1  0
  5  3  1  0
  9  3  1  0
  1 10  1  0
  4 11  1  0
  4 12  1  0
  5 13  1  0
  6 14  1  0
  7 15  1  0
M  END
