
     RDKit          3D

 17 17  0  0  0  0  0  0  0  0999 V2000
   -3.9086    0.8387    0.5646 C   0  0  0  0  0  0  0  0  0  0  0  0
   -2.8282    0.5981    0.0887 C   0  0  0  0  0  0  0  0  0  0  0  0
   -1.5204    0.3174   -0.4612 C   0  0  0  0  0  0  0  0  0  0  0  0
   -1.2206   -0.9176   -1.1902 C   0  0  0  0  0  0  0  0  0  0  0  0
   -0.7106   -0.8262    0.2093 C   0  0  0  0  0  0  0  0  0  0  0  0
    0.7058   -0.5408    0.4542 C   0  0  0  0  0  0  0  0  0  0  0  0
    1.8685   -0.2925    0.6692 C   0  0  0  0  0  0  0  0  0  0  0  0
    3.2844    0.0038    0.9563 C   0  0  0  0  0  0  0  0  0  0  0  0
    3.5884    1.3072    0.4984 O   0  0  0  0  0  0  0  0  0  0  0  0
   -4.8775    1.0389    0.9782 H   0  0  0  0  0  0  0  0  0  0  0  0
   -0.9195    1.2381   -0.6742 H   0  0  0  0  0  0  0  0  0  0  0  0
   -2.0660   -1.6015   -1.3952 H   0  0  0  0  0  0  0  0  0  0  0  0
   -0.4535   -0.9376   -1.9890 H   0  0  0  0  0  0  0  0  0  0  0  0
   -1.2538   -1.4438    0.9527 H   0  0  0  0  0  0  0  0  0  0  0  0
    3.9687   -0.6750    0.4081 H   0  0  0  0  0  0  0  0  0  0  0  0
    3.3915   -0.0398    2.0493 H   0  0  0  0  0  0  0  0  0  0  0  0
    2.9514    1.9325    0.9461 H   0  0  0  0  0  0  0  0  0  0  0  0
  1  2  3  0
  2  3  1  0
  3  4  1  0
  4  5  1  0
  5  6  1  0
  6  7  3  0
  7  8  1  0
  8  9  1  0
  5  3  1  0
  1 10  1  0
  3 11  1  0
  4 12  1  0
  4 13  1  0
  5 14  1  0
  8 15  1  0
  8 16  1  0
  9 17  1  0
M  END
