
     RDKit          3D

 19 19  0  0  0  0  0  0  0  0999 V2000
   -2.1620    1.5082   -0.4123 C   0  0  0  0  0  0  0  0  0  0  0  0
   -1.4533    0.4610   -0.2304 C   0  0  0  0  0  0  0  0  0  0  0  0
   -0.7079   -0.6697   -0.0430 C   0  0  0  0  0  0  0  0  0  0  0  0
   -1.5713   -1.7225    0.5454 C   0  0  0  0  0  0  0  0  0  0  0  0
   -0.5018   -2.8797    0.2067 O   0  0  0  0  0  0  0  0  0  0  0  0
    0.5256   -0.8765   -0.6813 C   0  0  0  0  0  0  0  0  0  0  0  0
    1.2145    0.1609    0.1941 C   0  0  0  0  0  0  0  0  0  0  0  0
    1.3162    1.5644   -0.2857 C   0  0  0  0  0  0  0  0  0  0  0  0
    0.2468   -0.2105    1.2592 C   0  0  0  0  0  0  0  0  0  0  0  0
   -2.9519    2.6710   -0.5957 H   0  0  0  0  0  0  0  0  0  0  0  0
   -2.0958   -2.4404    0.9147 H   0  0  0  0  0  0  0  0  0  0  0  0
    1.0524   -1.8557   -0.3535 H   0  0  0  0  0  0  0  0  0  0  0  0
    0.6744   -0.7178   -1.7467 H   0  0  0  0  0  0  0  0  0  0  0  0
    2.2392   -0.2204    0.5635 H   0  0  0  0  0  0  0  0  0  0  0  0
    0.5075    2.1756    0.1515 H   0  0  0  0  0  0  0  0  0  0  0  0
    2.3360    1.9934   -0.1373 H   0  0  0  0  0  0  0  0  0  0  0  0
    1.1691    1.5467   -1.4335 H   0  0  0  0  0  0  0  0  0  0  0  0
   -0.2725    0.6157    1.7524 H   0  0  0  0  0  0  0  0  0  0  0  0
    0.4348   -1.1038    1.8030 H   0  0  0  0  0  0  0  0  0  0  0  0
  1  2  3  0
  2  3  1  0
  3  4  1  0
  4  5  2  0
  3  6  1  0
  6  7  1  0
  7  8  1  0
  7  9  1  0
  9  3  1  0
  1 10  1  0
  4 11  1  0
  6 12  1  0
  6 13  1  0
  7 14  1  0
  8 15  1  0
  8 16  1  0
  8 17  1  0
  9 18  1  0
  9 19  1  0
M  END
