
     RDKit          3D

 17 17  0  0  0  0  0  0  0  0999 V2000
    2.9996    1.0081    1.0895 C   0  0  0  0  0  0  0  0  0  0  0  0
    2.1042    0.4653    0.4885 C   0  0  0  0  0  0  0  0  0  0  0  0
    1.0028   -0.1745   -0.2354 C   0  0  0  0  0  0  0  0  0  0  0  0
   -0.0392   -0.5703    0.7730 C   0  0  0  0  0  0  0  0  0  0  0  0
   -1.2644    0.1853    0.3026 C   0  0  0  0  0  0  0  0  0  0  0  0
   -1.9661   -0.6361   -0.7663 C   0  0  0  0  0  0  0  0  0  0  0  0
   -0.7129    1.3120   -0.3525 O   0  0  0  0  0  0  0  0  0  0  0  0
    0.3381    0.8259   -1.1071 C   0  0  0  0  0  0  0  0  0  0  0  0
    0.6848    1.1407   -2.2797 O   0  0  0  0  0  0  0  0  0  0  0  0
    3.8064    1.4840    1.6202 H   0  0  0  0  0  0  0  0  0  0  0  0
    1.3577   -1.0533   -0.8221 H   0  0  0  0  0  0  0  0  0  0  0  0
   -0.1852   -1.6640    0.7533 H   0  0  0  0  0  0  0  0  0  0  0  0
    0.2260   -0.2980    1.8100 H   0  0  0  0  0  0  0  0  0  0  0  0
   -1.9252    0.4477    1.1421 H   0  0  0  0  0  0  0  0  0  0  0  0
   -2.3837    0.0310   -1.5746 H   0  0  0  0  0  0  0  0  0  0  0  0
   -2.8065   -1.2088   -0.3146 H   0  0  0  0  0  0  0  0  0  0  0  0
   -1.2364   -1.2951   -1.2820 H   0  0  0  0  0  0  0  0  0  0  0  0
  1  2  3  0
  2  3  1  0
  3  4  1  0
  4  5  1  0
  5  6  1  0
  5  7  1  0
  7  8  1  0
  8  9  2  0
  8  3  1  0
  1 10  1  0
  3 11  1  0
  4 12  1  0
  4 13  1  0
  5 14  1  0
  6 15  1  0
  6 16  1  0
  6 17  1  0
M  END
