
     RDKit          3D

 21 22  0  0  0  0  0  0  0  0999 V2000
   -2.1203    1.1436    1.7498 C   0  0  0  0  0  0  0  0  0  0  0  0
   -1.5561    0.5207    1.2485 C   0  0  0  0  0  0  0  0  0  0  0  0
   -0.7327   -0.3525    0.5357 C   0  0  0  0  0  0  0  0  0  0  0  0
   -1.0830   -1.8542    0.8605 C   0  0  0  0  0  0  0  0  0  0  0  0
    0.7747   -0.1894    0.7718 C   0  0  0  0  0  0  0  0  0  0  0  0
    0.8357    0.2449   -0.6344 C   0  0  0  0  0  0  0  0  0  0  0  0
    1.9146    0.1927   -1.5808 C   0  0  0  0  0  0  0  0  0  0  0  0
    1.4067    1.5312   -0.9979 C   0  0  0  0  0  0  0  0  0  0  0  0
   -0.5941   -0.1259   -0.9344 C   0  0  0  0  0  0  0  0  0  0  0  0
   -2.9519    2.0793    2.4704 H   0  0  0  0  0  0  0  0  0  0  0  0
   -0.5455   -2.5759    0.2424 H   0  0  0  0  0  0  0  0  0  0  0  0
   -2.1792   -1.9433    0.5311 H   0  0  0  0  0  0  0  0  0  0  0  0
   -1.0558   -2.0126    1.9297 H   0  0  0  0  0  0  0  0  0  0  0  0
    0.9806    0.6243    1.5157 H   0  0  0  0  0  0  0  0  0  0  0  0
    1.3285   -1.0779    1.1340 H   0  0  0  0  0  0  0  0  0  0  0  0
    1.6062   -0.0582   -2.6463 H   0  0  0  0  0  0  0  0  0  0  0  0
    2.9648   -0.0535   -1.4252 H   0  0  0  0  0  0  0  0  0  0  0  0
    0.8587    2.1961   -1.6900 H   0  0  0  0  0  0  0  0  0  0  0  0
    2.1033    2.0063   -0.2391 H   0  0  0  0  0  0  0  0  0  0  0  0
   -1.2393    0.7375   -1.2887 H   0  0  0  0  0  0  0  0  0  0  0  0
   -0.7162   -1.0331   -1.5529 H   0  0  0  0  0  0  0  0  0  0  0  0
  1  2  3  0
  2  3  1  0
  3  4  1  0
  3  5  1  0
  5  6  1  0
  6  7  1  0
  7  8  1  0
  6  9  1  0
  9  3  1  0
  8  6  1  0
  1 10  1  0
  4 11  1  0
  4 12  1  0
  4 13  1  0
  5 14  1  0
  5 15  1  0
  7 16  1  0
  7 17  1  0
  8 18  1  0
  8 19  1  0
  9 20  1  0
  9 21  1  0
M  END
