
     RDKit          3D

 19 19  0  0  0  0  0  0  0  0999 V2000
    2.2591    1.4231   -1.4582 C   0  0  0  0  0  0  0  0  0  0  0  0
    1.5157    0.4571   -1.4149 C   0  0  0  0  0  0  0  0  0  0  0  0
    0.6216   -0.6918   -1.3477 C   0  0  0  0  0  0  0  0  0  0  0  0
   -0.2962   -0.5713   -0.1402 C   0  0  0  0  0  0  0  0  0  0  0  0
   -1.2224   -1.7188   -0.0330 C   0  0  0  0  0  0  0  0  0  0  0  0
   -0.8604   -2.7117    0.5561 O   0  0  0  0  0  0  0  0  0  0  0  0
   -1.0796    0.7282   -0.1555 C   0  0  0  0  0  0  0  0  0  0  0  0
   -0.6310    0.9554    1.2639 C   0  0  0  0  0  0  0  0  0  0  0  0
    0.4084   -0.1471    1.0962 C   0  0  0  0  0  0  0  0  0  0  0  0
    2.9215    2.2539   -1.4942 H   0  0  0  0  0  0  0  0  0  0  0  0
    1.1865   -1.6512   -1.2462 H   0  0  0  0  0  0  0  0  0  0  0  0
    0.0277   -0.8055   -2.2857 H   0  0  0  0  0  0  0  0  0  0  0  0
   -2.2083   -1.7073   -0.4587 H   0  0  0  0  0  0  0  0  0  0  0  0
   -0.7394    1.4640   -0.9014 H   0  0  0  0  0  0  0  0  0  0  0  0
   -2.1821    0.6068   -0.2292 H   0  0  0  0  0  0  0  0  0  0  0  0
   -1.3852    0.6819    2.0307 H   0  0  0  0  0  0  0  0  0  0  0  0
   -0.2139    1.9506    1.4875 H   0  0  0  0  0  0  0  0  0  0  0  0
    1.3933    0.3362    0.9015 H   0  0  0  0  0  0  0  0  0  0  0  0
    0.4847   -0.8523    1.9232 H   0  0  0  0  0  0  0  0  0  0  0  0
  1  2  3  0
  2  3  1  0
  3  4  1  0
  4  5  1  0
  5  6  2  0
  4  7  1  0
  7  8  1  0
  8  9  1  0
  9  4  1  0
  1 10  1  0
  3 11  1  0
  3 12  1  0
  5 13  1  0
  7 14  1  0
  7 15  1  0
  8 16  1  0
  8 17  1  0
  9 18  1  0
  9 19  1  0
M  END
