
     RDKit          3D

 17 17  0  0  0  0  0  0  0  0999 V2000
    2.3421   -1.4614   -0.7318 C   0  0  0  0  0  0  0  0  0  0  0  0
    1.6103   -0.5398   -0.4115 C   0  0  0  0  0  0  0  0  0  0  0  0
    0.7399    0.5780   -0.0314 C   0  0  0  0  0  0  0  0  0  0  0  0
    1.4618    1.7496   -0.0879 O   0  0  0  0  0  0  0  0  0  0  0  0
    0.1377    0.3344    1.3035 C   0  0  0  0  0  0  0  0  0  0  0  0
   -1.0984   -0.0911    1.2198 C   0  0  0  0  0  0  0  0  0  0  0  0
   -1.4712   -0.1822   -0.2148 C   0  0  0  0  0  0  0  0  0  0  0  0
   -1.4140   -1.5298   -0.5732 O   0  0  0  0  0  0  0  0  0  0  0  0
   -0.4642    0.6477   -0.9719 C   0  0  0  0  0  0  0  0  0  0  0  0
    2.9856   -2.2615   -0.9957 H   0  0  0  0  0  0  0  0  0  0  0  0
    1.0083    2.5073    0.3190 H   0  0  0  0  0  0  0  0  0  0  0  0
    0.6992    0.5042    2.2288 H   0  0  0  0  0  0  0  0  0  0  0  0
   -1.7810   -0.3483    2.0167 H   0  0  0  0  0  0  0  0  0  0  0  0
   -2.4850    0.2467   -0.3140 H   0  0  0  0  0  0  0  0  0  0  0  0
   -1.2516   -2.1233    0.2035 H   0  0  0  0  0  0  0  0  0  0  0  0
   -0.2280    0.2589   -1.9666 H   0  0  0  0  0  0  0  0  0  0  0  0
   -0.7915    1.7107   -0.9927 H   0  0  0  0  0  0  0  0  0  0  0  0
  1  2  3  0
  2  3  1  0
  3  4  1  0
  3  5  1  0
  5  6  2  0
  6  7  1  0
  7  8  1  0
  7  9  1  0
  9  3  1  0
  1 10  1  0
  4 11  1  0
  5 12  1  0
  6 13  1  0
  7 14  1  0
  8 15  1  0
  9 16  1  0
  9 17  1  0
M  END
