
     RDKit          3D

 17 18  0  0  0  0  0  0  0  0999 V2000
    1.7340    1.3152    2.1957 C   0  0  0  0  0  0  0  0  0  0  0  0
    1.0290    0.9447    1.4420 C   0  0  0  0  0  0  0  0  0  0  0  0
    0.1790    0.5199    0.5251 C   0  0  0  0  0  0  0  0  0  0  0  0
   -0.6806   -0.6167    0.9846 C   0  0  0  0  0  0  0  0  0  0  0  0
   -1.0173   -1.5386    0.0117 O   0  0  0  0  0  0  0  0  0  0  0  0
   -1.2844   -0.7953   -1.1783 C   0  0  0  0  0  0  0  0  0  0  0  0
    0.0936   -0.4505   -1.7709 C   0  0  0  0  0  0  0  0  0  0  0  0
    1.2075   -1.0415   -1.1155 O   0  0  0  0  0  0  0  0  0  0  0  0
    0.8489    0.2914   -0.8346 C   0  0  0  0  0  0  0  0  0  0  0  0
    2.5935    1.7424    3.1147 H   0  0  0  0  0  0  0  0  0  0  0  0
   -0.6509    1.3652    0.2607 H   0  0  0  0  0  0  0  0  0  0  0  0
   -0.3523   -1.0934    1.9207 H   0  0  0  0  0  0  0  0  0  0  0  0
   -1.7367   -0.1228    1.1777 H   0  0  0  0  0  0  0  0  0  0  0  0
   -1.9051   -1.4284   -1.8259 H   0  0  0  0  0  0  0  0  0  0  0  0
   -1.7534    0.1581   -0.9059 H   0  0  0  0  0  0  0  0  0  0  0  0
    0.1188   -0.3741   -2.8694 H   0  0  0  0  0  0  0  0  0  0  0  0
    1.5764    1.1245   -1.1324 H   0  0  0  0  0  0  0  0  0  0  0  0
  1  2  3  0
  2  3  1  0
  3  4  1  0
  4  5  1  0
  5  6  1  0
  6  7  1  0
  7  8  1  0
  8  9  1  0
  9  3  1  0
  9  7  1  0
  1 10  1  0
  3 11  1  0
  4 12  1  0
  4 13  1  0
  6 14  1  0
  6 15  1  0
  7 16  1  0
  9 17  1  0
M  END
