
     RDKit          3D

 21 21  0  0  0  0  0  0  0  0999 V2000
    1.7478    2.9043    0.4414 C   0  0  0  0  0  0  0  0  0  0  0  0
    1.7702    1.7108    0.7195 C   0  0  0  0  0  0  0  0  0  0  0  0
    1.7976    0.2798    1.0267 C   0  0  0  0  0  0  0  0  0  0  0  0
    0.6457   -0.2123    1.8253 C   0  0  0  0  0  0  0  0  0  0  0  0
    0.8263   -0.6122    0.3568 C   0  0  0  0  0  0  0  0  0  0  0  0
   -0.2341   -0.0564   -0.5634 C   0  0  0  0  0  0  0  0  0  0  0  0
    0.4508    0.5970   -1.6030 O   0  0  0  0  0  0  0  0  0  0  0  0
   -1.0353   -1.2281   -1.0375 C   0  0  0  0  0  0  0  0  0  0  0  0
   -2.1526   -0.8530   -1.9779 C   0  0  0  0  0  0  0  0  0  0  0  0
    1.7464    3.9357    0.2040 H   0  0  0  0  0  0  0  0  0  0  0  0
    2.8020   -0.1837    1.2034 H   0  0  0  0  0  0  0  0  0  0  0  0
   -0.1794    0.4711    2.0814 H   0  0  0  0  0  0  0  0  0  0  0  0
    0.8161   -1.0134    2.5729 H   0  0  0  0  0  0  0  0  0  0  0  0
    1.1066   -1.6706    0.1324 H   0  0  0  0  0  0  0  0  0  0  0  0
   -0.8614    0.6942   -0.0146 H   0  0  0  0  0  0  0  0  0  0  0  0
   -0.1016    1.3308   -1.9931 H   0  0  0  0  0  0  0  0  0  0  0  0
   -1.4649   -1.7263   -0.1704 H   0  0  0  0  0  0  0  0  0  0  0  0
   -0.3270   -1.9421   -1.5113 H   0  0  0  0  0  0  0  0  0  0  0  0
   -1.8242   -0.8310   -3.0391 H   0  0  0  0  0  0  0  0  0  0  0  0
   -2.6321    0.0830   -1.6455 H   0  0  0  0  0  0  0  0  0  0  0  0
   -2.8968   -1.6774   -1.9109 H   0  0  0  0  0  0  0  0  0  0  0  0
  1  2  3  0
  2  3  1  0
  3  4  1  0
  4  5  1  0
  5  6  1  0
  6  7  1  0
  6  8  1  0
  8  9  1  0
  5  3  1  0
  1 10  1  0
  3 11  1  0
  4 12  1  0
  4 13  1  0
  5 14  1  0
  6 15  1  0
  7 16  1  0
  8 17  1  0
  8 18  1  0
  9 19  1  0
  9 20  1  0
  9 21  1  0
M  END
