
     RDKit          3D

 19 18  0  0  0  0  0  0  0  0999 V2000
    3.4734    0.0655   -0.1917 C   0  0  0  0  0  0  0  0  0  0  0  0
    2.2997    0.3616   -0.1754 C   0  0  0  0  0  0  0  0  0  0  0  0
    0.8720    0.7405   -0.1407 C   0  0  0  0  0  0  0  0  0  0  0  0
    0.1582   -0.3187    0.6455 C   0  0  0  0  0  0  0  0  0  0  0  0
    0.2977   -1.6519    0.0350 C   0  0  0  0  0  0  0  0  0  0  0  0
    1.0899   -1.7775   -0.8653 O   0  0  0  0  0  0  0  0  0  0  0  0
   -1.2850    0.0235    0.9119 C   0  0  0  0  0  0  0  0  0  0  0  0
   -2.0704    0.2060   -0.3665 C   0  0  0  0  0  0  0  0  0  0  0  0
   -1.3447    1.1050    1.7552 O   0  0  0  0  0  0  0  0  0  0  0  0
    4.5035   -0.2019   -0.2231 H   0  0  0  0  0  0  0  0  0  0  0  0
    0.5354    0.7944   -1.1960 H   0  0  0  0  0  0  0  0  0  0  0  0
    0.7268    1.7017    0.3866 H   0  0  0  0  0  0  0  0  0  0  0  0
    0.6589   -0.3674    1.6474 H   0  0  0  0  0  0  0  0  0  0  0  0
   -0.2680   -2.5001    0.3546 H   0  0  0  0  0  0  0  0  0  0  0  0
   -1.7322   -0.8567    1.4340 H   0  0  0  0  0  0  0  0  0  0  0  0
   -1.8709    1.2064   -0.7983 H   0  0  0  0  0  0  0  0  0  0  0  0
   -1.7638   -0.6264   -1.0428 H   0  0  0  0  0  0  0  0  0  0  0  0
   -3.1557    0.1531   -0.1537 H   0  0  0  0  0  0  0  0  0  0  0  0
   -1.1248    1.9429    1.2769 H   0  0  0  0  0  0  0  0  0  0  0  0
  1  2  3  0
  2  3  1  0
  3  4  1  0
  4  5  1  0
  5  6  2  0
  4  7  1  0
  7  8  1  0
  7  9  1  0
  1 10  1  0
  3 11  1  0
  3 12  1  0
  4 13  1  0
  5 14  1  0
  7 15  1  0
  8 16  1  0
  8 17  1  0
  8 18  1  0
  9 19  1  0
M  END
