
     RDKit          3D

 17 16  0  0  0  0  0  0  0  0999 V2000
   -2.7750   -1.3421   -0.3264 C   0  0  0  0  0  0  0  0  0  0  0  0
   -1.9250   -0.9737    0.4474 C   0  0  0  0  0  0  0  0  0  0  0  0
   -0.8998   -0.5096    1.4113 C   0  0  0  0  0  0  0  0  0  0  0  0
   -0.6585   -1.4977    2.3730 O   0  0  0  0  0  0  0  0  0  0  0  0
    0.3260   -0.2526    0.6424 C   0  0  0  0  0  0  0  0  0  0  0  0
    1.3468   -0.8625    0.8845 O   0  0  0  0  0  0  0  0  0  0  0  0
    0.2923    0.7706   -0.4400 C   0  0  0  0  0  0  0  0  0  0  0  0
    1.6413    0.8982   -1.1200 C   0  0  0  0  0  0  0  0  0  0  0  0
    2.6088    1.2764   -0.1906 O   0  0  0  0  0  0  0  0  0  0  0  0
   -3.5386   -1.6717   -0.9975 H   0  0  0  0  0  0  0  0  0  0  0  0
   -1.2767    0.3817    1.9210 H   0  0  0  0  0  0  0  0  0  0  0  0
   -1.1993   -2.2700    2.1465 H   0  0  0  0  0  0  0  0  0  0  0  0
   -0.4867    0.4642   -1.1668 H   0  0  0  0  0  0  0  0  0  0  0  0
   -0.0072    1.7669   -0.0555 H   0  0  0  0  0  0  0  0  0  0  0  0
    1.5339    1.7517   -1.8454 H   0  0  0  0  0  0  0  0  0  0  0  0
    1.9122   -0.0101   -1.6764 H   0  0  0  0  0  0  0  0  0  0  0  0
    3.1054    2.0803   -0.4579 H   0  0  0  0  0  0  0  0  0  0  0  0
  1  2  3  0
  2  3  1  0
  3  4  1  0
  3  5  1  0
  5  6  2  0
  5  7  1  0
  7  8  1  0
  8  9  1  0
  1 10  1  0
  3 11  1  0
  4 12  1  0
  7 13  1  0
  7 14  1  0
  8 15  1  0
  8 16  1  0
  9 17  1  0
M  END
