
     RDKit          3D

 19 19  0  0  0  0  0  0  0  0999 V2000
    2.2263    1.2822   -1.5847 C   0  0  0  0  0  0  0  0  0  0  0  0
    2.0238    0.6540   -0.5869 C   0  0  0  0  0  0  0  0  0  0  0  0
    1.7772   -0.0976    0.6549 C   0  0  0  0  0  0  0  0  0  0  0  0
    0.5809   -1.0010    0.4926 C   0  0  0  0  0  0  0  0  0  0  0  0
   -0.6779   -0.2260    0.1672 C   0  0  0  0  0  0  0  0  0  0  0  0
   -1.1281    0.7738    1.1372 C   0  0  0  0  0  0  0  0  0  0  0  0
   -1.5170    1.5916    1.9516 C   0  0  0  0  0  0  0  0  0  0  0  0
   -1.7916   -1.0944   -0.4643 C   0  0  0  0  0  0  0  0  0  0  0  0
   -1.1206   -0.0641   -1.2477 C   0  0  0  0  0  0  0  0  0  0  0  0
    2.4261    1.8455   -2.4828 H   0  0  0  0  0  0  0  0  0  0  0  0
    2.6603   -0.7527    0.8006 H   0  0  0  0  0  0  0  0  0  0  0  0
    1.7056    0.5491    1.5313 H   0  0  0  0  0  0  0  0  0  0  0  0
    0.7540   -1.7189   -0.3113 H   0  0  0  0  0  0  0  0  0  0  0  0
    0.4393   -1.5676    1.4295 H   0  0  0  0  0  0  0  0  0  0  0  0
   -1.8572    2.3175    2.6510 H   0  0  0  0  0  0  0  0  0  0  0  0
   -1.6087   -2.1687   -0.5484 H   0  0  0  0  0  0  0  0  0  0  0  0
   -2.8345   -0.8730   -0.0906 H   0  0  0  0  0  0  0  0  0  0  0  0
   -0.3921   -0.3327   -2.0329 H   0  0  0  0  0  0  0  0  0  0  0  0
   -1.6656    0.8832   -1.4663 H   0  0  0  0  0  0  0  0  0  0  0  0
  1  2  3  0
  2  3  1  0
  3  4  1  0
  4  5  1  0
  5  6  1  0
  6  7  3  0
  5  8  1  0
  8  9  1  0
  9  5  1  0
  1 10  1  0
  3 11  1  0
  3 12  1  0
  4 13  1  0
  4 14  1  0
  7 15  1  0
  8 16  1  0
  8 17  1  0
  9 18  1  0
  9 19  1  0
M  END
