
     RDKit          3D

 19 19  0  0  0  0  0  0  0  0999 V2000
    4.1073    1.8096    1.9728 C   0  0  0  0  0  0  0  0  0  0  0  0
    2.9468    1.2612    1.5843 C   0  0  0  0  0  0  0  0  0  0  0  0
    1.7416    0.7136    1.1732 C   0  0  0  0  0  0  0  0  0  0  0  0
    2.0587    0.2126   -0.3331 C   0  0  0  0  0  0  0  0  0  0  0  0
    0.7743    0.9113    0.1359 C   0  0  0  0  0  0  0  0  0  0  0  0
   -0.2561    0.0197   -0.2023 C   0  0  0  0  0  0  0  0  0  0  0  0
   -1.2215   -0.8298   -0.5171 C   0  0  0  0  0  0  0  0  0  0  0  0
   -2.2074   -1.7236   -0.8580 C   0  0  0  0  0  0  0  0  0  0  0  0
   -3.6025   -1.2287   -0.7330 C   0  0  0  0  0  0  0  0  0  0  0  0
    4.8450    2.1421    2.2180 H   0  0  0  0  0  0  0  0  0  0  0  0
    1.4638   -0.2858    1.8136 H   0  0  0  0  0  0  0  0  0  0  0  0
    2.1218   -0.8417   -0.4504 H   0  0  0  0  0  0  0  0  0  0  0  0
    2.7544    0.8004   -0.8986 H   0  0  0  0  0  0  0  0  0  0  0  0
    0.6740    1.9931   -0.2937 H   0  0  0  0  0  0  0  0  0  0  0  0
   -2.0913   -2.7459   -0.4432 H   0  0  0  0  0  0  0  0  0  0  0  0
   -2.0973   -1.9467   -2.0163 H   0  0  0  0  0  0  0  0  0  0  0  0
   -4.3409   -2.0316   -0.4150 H   0  0  0  0  0  0  0  0  0  0  0  0
   -3.6669   -0.3846   -0.0223 H   0  0  0  0  0  0  0  0  0  0  0  0
   -4.0037   -0.8508   -1.7151 H   0  0  0  0  0  0  0  0  0  0  0  0
  1  2  3  0
  2  3  1  0
  3  4  1  0
  4  5  1  0
  5  6  1  0
  6  7  3  0
  7  8  1  0
  8  9  1  0
  5  3  1  0
  1 10  1  0
  3 11  1  0
  4 12  1  0
  4 13  1  0
  5 14  1  0
  8 15  1  0
  8 16  1  0
  9 17  1  0
  9 18  1  0
  9 19  1  0
M  END
