
     RDKit          3D

 17 17  0  0  0  0  0  0  0  0999 V2000
    2.7095   -1.2456    0.6431 C   0  0  0  0  0  0  0  0  0  0  0  0
    1.7652   -0.5088    0.4641 C   0  0  0  0  0  0  0  0  0  0  0  0
    0.6285    0.4075    0.2345 C   0  0  0  0  0  0  0  0  0  0  0  0
    1.0260    1.4822   -0.6850 C   0  0  0  0  0  0  0  0  0  0  0  0
    1.3530    2.3612   -1.4609 C   0  0  0  0  0  0  0  0  0  0  0  0
   -0.5157   -0.3271   -0.4281 C   0  0  0  0  0  0  0  0  0  0  0  0
   -1.1128   -1.5026    0.3111 C   0  0  0  0  0  0  0  0  0  0  0  0
   -1.8928   -0.2453    0.1697 C   0  0  0  0  0  0  0  0  0  0  0  0
   -1.9787    0.6265    1.2547 O   0  0  0  0  0  0  0  0  0  0  0  0
    3.5438   -1.8852    0.8076 H   0  0  0  0  0  0  0  0  0  0  0  0
    0.3590    0.8453    1.2085 H   0  0  0  0  0  0  0  0  0  0  0  0
    1.6449    3.1158   -2.1502 H   0  0  0  0  0  0  0  0  0  0  0  0
   -0.4398   -0.3824   -1.5330 H   0  0  0  0  0  0  0  0  0  0  0  0
   -0.6950   -1.6759    1.3362 H   0  0  0  0  0  0  0  0  0  0  0  0
   -1.4090   -2.3947   -0.2950 H   0  0  0  0  0  0  0  0  0  0  0  0
   -2.7234   -0.1943   -0.5573 H   0  0  0  0  0  0  0  0  0  0  0  0
   -2.2627    1.5235    1.0109 H   0  0  0  0  0  0  0  0  0  0  0  0
  1  2  3  0
  2  3  1  0
  3  4  1  0
  4  5  3  0
  3  6  1  0
  6  7  1  0
  7  8  1  0
  8  9  1  0
  8  6  1  0
  1 10  1  0
  3 11  1  0
  5 12  1  0
  6 13  1  0
  7 14  1  0
  7 15  1  0
  8 16  1  0
  9 17  1  0
M  END
