
     RDKit          3D

 23 22  0  0  0  0  0  0  0  0999 V2000
   -0.6997   -2.5879    0.4938 C   0  0  0  0  0  0  0  0  0  0  0  0
    0.4545   -1.6497    0.4138 C   0  0  0  0  0  0  0  0  0  0  0  0
    1.3354   -0.9288    0.3627 C   0  0  0  0  0  0  0  0  0  0  0  0
    2.2335    0.1406    0.7531 C   0  0  0  0  0  0  0  0  0  0  0  0
    2.0768   -1.5244   -1.0003 O   0  0  0  0  0  0  0  0  0  0  0  0
    0.3294    0.1568   -0.7507 C   0  0  0  0  0  0  0  0  0  0  0  0
   -1.0102    0.1868   -0.1631 C   0  0  0  0  0  0  0  0  0  0  0  0
   -1.2519    0.7297    1.2093 C   0  0  0  0  0  0  0  0  0  0  0  0
   -1.7629    1.2528   -1.1155 C   0  0  0  0  0  0  0  0  0  0  0  0
   -1.5901   -3.3116    0.5751 H   0  0  0  0  0  0  0  0  0  0  0  0
    1.7179    1.1017    1.0868 H   0  0  0  0  0  0  0  0  0  0  0  0
    2.6982    0.5386   -0.2947 H   0  0  0  0  0  0  0  0  0  0  0  0
    3.1255   -0.1309    1.3029 H   0  0  0  0  0  0  0  0  0  0  0  0
    2.5397   -0.7336   -1.3001 H   0  0  0  0  0  0  0  0  0  0  0  0
    0.5674   -0.2008   -1.6589 H   0  0  0  0  0  0  0  0  0  0  0  0
    0.8639    1.1550   -0.5265 H   0  0  0  0  0  0  0  0  0  0  0  0
   -1.5539   -0.7713   -0.2235 H   0  0  0  0  0  0  0  0  0  0  0  0
   -0.4839    1.3317    1.6408 H   0  0  0  0  0  0  0  0  0  0  0  0
   -2.2986    1.2624    1.2004 H   0  0  0  0  0  0  0  0  0  0  0  0
   -1.4112   -0.2323    1.8810 H   0  0  0  0  0  0  0  0  0  0  0  0
   -2.5355    0.5589   -1.6355 H   0  0  0  0  0  0  0  0  0  0  0  0
   -2.2486    1.9928   -0.4324 H   0  0  0  0  0  0  0  0  0  0  0  0
   -1.0960    1.6633   -1.8184 H   0  0  0  0  0  0  0  0  0  0  0  0
  1  2  3  0
  2  3  1  0
  3  4  1  0
  3  5  1  0
  3  6  1  0
  6  7  1  0
  7  8  1  0
  7  9  1  0
  1 10  1  0
  4 11  1  0
  4 12  1  0
  4 13  1  0
  5 14  1  0
  6 15  1  0
  6 16  1  0
  7 17  1  0
  8 18  1  0
  8 19  1  0
  8 20  1  0
  9 21  1  0
  9 22  1  0
  9 23  1  0
M  END
