
     RDKit          3D

 21 21  0  0  0  0  0  0  0  0999 V2000
    4.0401   -0.6088   -2.7002 C   0  0  0  0  0  0  0  0  0  0  0  0
    3.1054   -0.5256   -1.9149 C   0  0  0  0  0  0  0  0  0  0  0  0
    2.0067   -0.4364   -0.9881 C   0  0  0  0  0  0  0  0  0  0  0  0
    0.6983   -0.1409   -1.4449 C   0  0  0  0  0  0  0  0  0  0  0  0
   -0.2943   -0.2848   -0.3590 C   0  0  0  0  0  0  0  0  0  0  0  0
   -1.6934   -0.0454   -0.8023 O   0  0  0  0  0  0  0  0  0  0  0  0
   -1.1053    0.5770    0.3704 C   0  0  0  0  0  0  0  0  0  0  0  0
   -1.6833   -0.0310    1.6347 C   0  0  0  0  0  0  0  0  0  0  0  0
   -2.6174    0.6580    2.4763 C   0  0  0  0  0  0  0  0  0  0  0  0
    4.9661   -0.6927   -3.4512 H   0  0  0  0  0  0  0  0  0  0  0  0
    2.4533    0.8122   -0.6487 H   0  0  0  0  0  0  0  0  0  0  0  0
    2.3285   -0.8614   -0.0432 H   0  0  0  0  0  0  0  0  0  0  0  0
    0.3718   -0.6954   -2.3636 H   0  0  0  0  0  0  0  0  0  0  0  0
    0.6352    0.9429   -1.8802 H   0  0  0  0  0  0  0  0  0  0  0  0
   -0.3175   -1.4518   -0.1121 H   0  0  0  0  0  0  0  0  0  0  0  0
   -1.1554    1.6535    0.2455 H   0  0  0  0  0  0  0  0  0  0  0  0
   -2.1211   -1.0428    1.3235 H   0  0  0  0  0  0  0  0  0  0  0  0
   -0.7378   -0.2870    2.2509 H   0  0  0  0  0  0  0  0  0  0  0  0
   -3.5224   -0.0634    2.7530 H   0  0  0  0  0  0  0  0  0  0  0  0
   -2.2100    1.0008    3.4867 H   0  0  0  0  0  0  0  0  0  0  0  0
   -3.1474    1.5231    2.0524 H   0  0  0  0  0  0  0  0  0  0  0  0
  1  2  3  0
  2  3  1  0
  3  4  1  0
  4  5  1  0
  5  6  1  0
  6  7  1  0
  7  8  1  0
  8  9  1  0
  7  5  1  0
  1 10  1  0
  3 11  1  0
  3 12  1  0
  4 13  1  0
  4 14  1  0
  5 15  1  0
  7 16  1  0
  8 17  1  0
  8 18  1  0
  9 19  1  0
  9 20  1  0
  9 21  1  0
M  END
