
     RDKit          3D

 15 14  0  0  0  0  0  0  0  0999 V2000
   -0.8487   -2.8481    1.4921 C   0  0  0  0  0  0  0  0  0  0  0  0
   -0.7055   -1.7204    1.0680 C   0  0  0  0  0  0  0  0  0  0  0  0
   -0.5576   -0.3619    0.5525 C   0  0  0  0  0  0  0  0  0  0  0  0
   -0.7732   -0.3284   -0.9280 C   0  0  0  0  0  0  0  0  0  0  0  0
    0.1390   -0.0989   -1.6750 O   0  0  0  0  0  0  0  0  0  0  0  0
    0.7938    0.1514    0.8804 C   0  0  0  0  0  0  0  0  0  0  0  0
    1.5422   -0.5878    1.4953 O   0  0  0  0  0  0  0  0  0  0  0  0
    1.2013    1.5198    0.4654 C   0  0  0  0  0  0  0  0  0  0  0  0
    0.1304    2.0900   -0.2081 O   0  0  0  0  0  0  0  0  0  0  0  0
   -0.9575   -3.8409    1.8722 H   0  0  0  0  0  0  0  0  0  0  0  0
   -1.2815    0.3162    1.0571 H   0  0  0  0  0  0  0  0  0  0  0  0
   -1.7494   -0.5089   -1.3535 H   0  0  0  0  0  0  0  0  0  0  0  0
    1.4402    2.0689    1.4218 H   0  0  0  0  0  0  0  0  0  0  0  0
    2.0733    1.5058   -0.2211 H   0  0  0  0  0  0  0  0  0  0  0  0
   -0.4467    2.6433    0.3785 H   0  0  0  0  0  0  0  0  0  0  0  0
  1  2  3  0
  2  3  1  0
  3  4  1  0
  4  5  2  0
  3  6  1  0
  6  7  2  0
  6  8  1  0
  8  9  1  0
  1 10  1  0
  3 11  1  0
  4 12  1  0
  8 13  1  0
  8 14  1  0
  9 15  1  0
M  END
