
     RDKit          3D

 16 17  0  0  0  0  0  0  0  0999 V2000
    2.7690   -0.7443   -1.7008 C   0  0  0  0  0  0  0  0  0  0  0  0
    1.9035   -0.1285   -1.1228 C   0  0  0  0  0  0  0  0  0  0  0  0
    0.8260    0.6353   -0.4335 C   0  0  0  0  0  0  0  0  0  0  0  0
    0.4815    0.1657    0.8672 C   0  0  0  0  0  0  0  0  0  0  0  0
   -0.5404   -0.8780    1.2711 C   0  0  0  0  0  0  0  0  0  0  0  0
   -1.5026    0.2124    0.7617 C   0  0  0  0  0  0  0  0  0  0  0  0
   -1.5415    1.3749    1.4605 O   0  0  0  0  0  0  0  0  0  0  0  0
   -0.5070    0.1582   -0.3751 C   0  0  0  0  0  0  0  0  0  0  0  0
    3.5359   -1.2838   -2.1909 H   0  0  0  0  0  0  0  0  0  0  0  0
    0.9467    1.7335   -0.6912 H   0  0  0  0  0  0  0  0  0  0  0  0
    0.3289    1.0314    1.5857 H   0  0  0  0  0  0  0  0  0  0  0  0
   -0.5725   -1.0685    2.3346 H   0  0  0  0  0  0  0  0  0  0  0  0
   -0.6088   -1.7385    0.5900 H   0  0  0  0  0  0  0  0  0  0  0  0
   -2.4830   -0.2110    0.5092 H   0  0  0  0  0  0  0  0  0  0  0  0
   -2.4190    1.6153    1.8227 H   0  0  0  0  0  0  0  0  0  0  0  0
   -0.6167   -0.8740   -0.8474 H   0  0  0  0  0  0  0  0  0  0  0  0
  1  2  3  0
  2  3  1  0
  3  4  1  0
  4  5  1  0
  5  6  1  0
  6  7  1  0
  6  8  1  0
  8  3  1  0
  8  4  1  0
  1  9  1  0
  3 10  1  0
  4 11  1  0
  5 12  1  0
  5 13  1  0
  6 14  1  0
  7 15  1  0
  8 16  1  0
M  END
