
     RDKit          3D

 18 17  0  0  0  0  0  0  0  0999 V2000
    1.3479   -1.6188   -2.7154 C   0  0  0  0  0  0  0  0  0  0  0  0
    1.5659   -1.1552   -1.5918 C   0  0  0  0  0  0  0  0  0  0  0  0
    1.7990   -0.6043   -0.2647 C   0  0  0  0  0  0  0  0  0  0  0  0
    1.6422    0.7702   -0.2183 O   0  0  0  0  0  0  0  0  0  0  0  0
    0.3690    1.1167   -0.5941 C   0  0  0  0  0  0  0  0  0  0  0  0
   -0.7366    0.5663    0.2287 C   0  0  0  0  0  0  0  0  0  0  0  0
   -0.7129    0.9222    1.5550 O   0  0  0  0  0  0  0  0  0  0  0  0
   -1.8389    0.3052    2.1464 C   0  0  0  0  0  0  0  0  0  0  0  0
    1.1804   -2.0124   -3.6747 H   0  0  0  0  0  0  0  0  0  0  0  0
    1.0626   -1.0428    0.4436 H   0  0  0  0  0  0  0  0  0  0  0  0
    2.8428   -0.8241    0.0331 H   0  0  0  0  0  0  0  0  0  0  0  0
    0.2098    0.7411   -1.6465 H   0  0  0  0  0  0  0  0  0  0  0  0
    0.2686    2.2351   -0.5878 H   0  0  0  0  0  0  0  0  0  0  0  0
   -0.8814   -0.5242    0.1627 H   0  0  0  0  0  0  0  0  0  0  0  0
   -1.6900    1.0018   -0.1968 H   0  0  0  0  0  0  0  0  0  0  0  0
   -1.8797    0.5536    3.2257 H   0  0  0  0  0  0  0  0  0  0  0  0
   -1.7735   -0.8048    2.0895 H   0  0  0  0  0  0  0  0  0  0  0  0
   -2.7751    0.5914    1.6054 H   0  0  0  0  0  0  0  0  0  0  0  0
  1  2  3  0
  2  3  1  0
  3  4  1  0
  4  5  1  0
  5  6  1  0
  6  7  1  0
  7  8  1  0
  1  9  1  0
  3 10  1  0
  3 11  1  0
  5 12  1  0
  5 13  1  0
  6 14  1  0
  6 15  1  0
  8 16  1  0
  8 17  1  0
  8 18  1  0
M  END
