
     RDKit          3D

 17 17  0  0  0  0  0  0  0  0999 V2000
   -3.1084   -0.6323   -0.6313 C   0  0  0  0  0  0  0  0  0  0  0  0
   -1.8183   -0.8103   -0.3416 C   0  0  0  0  0  0  0  0  0  0  0  0
   -0.4554   -0.9926   -0.0108 C   0  0  0  0  0  0  0  0  0  0  0  0
    0.5841   -0.2833   -0.8060 C   0  0  0  0  0  0  0  0  0  0  0  0
    2.0004   -0.6360   -0.6588 C   0  0  0  0  0  0  0  0  0  0  0  0
    3.1359   -0.8999   -0.5465 C   0  0  0  0  0  0  0  0  0  0  0  0
    0.0772    0.2697    0.5934 C   0  0  0  0  0  0  0  0  0  0  0  0
   -0.7159    1.5533    0.4486 C   0  0  0  0  0  0  0  0  0  0  0  0
    0.9355    0.2688    1.6298 O   0  0  0  0  0  0  0  0  0  0  0  0
   -4.0770   -0.5065   -0.8387 H   0  0  0  0  0  0  0  0  0  0  0  0
   -0.1202   -1.9290    0.5593 H   0  0  0  0  0  0  0  0  0  0  0  0
    0.3160    0.3096   -1.6762 H   0  0  0  0  0  0  0  0  0  0  0  0
    4.3370   -1.1988   -0.4319 H   0  0  0  0  0  0  0  0  0  0  0  0
   -1.3697    1.5979   -0.4549 H   0  0  0  0  0  0  0  0  0  0  0  0
   -1.4582    1.6229    1.3249 H   0  0  0  0  0  0  0  0  0  0  0  0
   -0.0645    2.4513    0.5576 H   0  0  0  0  0  0  0  0  0  0  0  0
    1.8014   -0.1850    1.2832 H   0  0  0  0  0  0  0  0  0  0  0  0
  1  2  3  0
  2  3  1  0
  3  4  1  0
  4  5  1  0
  5  6  3  0
  4  7  1  0
  7  8  1  0
  7  9  1  0
  7  3  1  0
  1 10  1  0
  3 11  1  0
  4 12  1  0
  6 13  1  0
  8 14  1  0
  8 15  1  0
  8 16  1  0
  9 17  1  0
M  END
