
     RDKit          3D

 17 17  0  0  0  0  0  0  0  0999 V2000
    3.7006   -0.2687   -0.1213 C   0  0  0  0  0  0  0  0  0  0  0  0
    2.1450   -0.8974   -0.2934 C   0  0  0  0  0  0  0  0  0  0  0  0
    1.2384   -1.2610   -0.3925 C   0  0  0  0  0  0  0  0  0  0  0  0
    0.6600   -2.2834   -0.4316 O   0  0  0  0  0  0  0  0  0  0  0  0
   -0.0361   -0.1981   -0.6375 C   0  0  0  0  0  0  0  0  0  0  0  0
   -0.0763    0.3930   -1.7720 O   0  0  0  0  0  0  0  0  0  0  0  0
   -1.2695   -1.2123   -0.0951 C   0  0  0  0  0  0  0  0  0  0  0  0
   -0.6016   -0.0263    0.7387 C   0  0  0  0  0  0  0  0  0  0  0  0
   -1.7942    0.9450    0.9870 C   0  0  0  0  0  0  0  0  0  0  0  0
    5.1569    0.3345    0.0648 H   0  0  0  0  0  0  0  0  0  0  0  0
   -0.2320   -0.1966   -2.6108 H   0  0  0  0  0  0  0  0  0  0  0  0
   -0.8757   -2.2566    0.3513 H   0  0  0  0  0  0  0  0  0  0  0  0
   -2.1496   -1.1350   -0.4987 H   0  0  0  0  0  0  0  0  0  0  0  0
    0.0705   -0.3187    1.6984 H   0  0  0  0  0  0  0  0  0  0  0  0
   -1.8702    1.0587    2.0964 H   0  0  0  0  0  0  0  0  0  0  0  0
   -2.6974    0.5768    0.5097 H   0  0  0  0  0  0  0  0  0  0  0  0
   -1.3689    1.8635    0.4065 H   0  0  0  0  0  0  0  0  0  0  0  0
  1  2  3  0
  2  3  1  0
  3  4  2  0
  3  5  1  0
  5  6  1  0
  5  7  1  0
  7  8  1  0
  8  9  1  0
  8  5  1  0
  1 10  1  0
  6 11  1  0
  7 12  1  0
  7 13  1  0
  8 14  1  0
  9 15  1  0
  9 16  1  0
  9 17  1  0
M  END
