
     RDKit          3D

 16 17  0  0  0  0  0  0  0  0999 V2000
    3.0366   -0.5503    0.2856 C   0  0  0  0  0  0  0  0  0  0  0  0
    1.9011   -0.6330   -0.1455 C   0  0  0  0  0  0  0  0  0  0  0  0
    0.5242   -0.7109   -0.6544 C   0  0  0  0  0  0  0  0  0  0  0  0
   -0.2590   -1.4929    0.1536 O   0  0  0  0  0  0  0  0  0  0  0  0
   -0.9063   -0.6753    1.0773 C   0  0  0  0  0  0  0  0  0  0  0  0
   -0.8823    0.7235    0.5482 C   0  0  0  0  0  0  0  0  0  0  0  0
   -1.5025    0.9008   -0.8183 C   0  0  0  0  0  0  0  0  0  0  0  0
   -0.0446    0.6696   -0.6946 C   0  0  0  0  0  0  0  0  0  0  0  0
    4.0342   -0.4812    0.6447 H   0  0  0  0  0  0  0  0  0  0  0  0
    0.5457   -1.1571   -1.6701 H   0  0  0  0  0  0  0  0  0  0  0  0
   -0.4128   -0.7493    2.0750 H   0  0  0  0  0  0  0  0  0  0  0  0
   -1.9623   -1.0027    1.1265 H   0  0  0  0  0  0  0  0  0  0  0  0
   -0.8140    1.5797    1.2328 H   0  0  0  0  0  0  0  0  0  0  0  0
   -2.1601    0.1349   -1.2389 H   0  0  0  0  0  0  0  0  0  0  0  0
   -1.7855    1.9642   -1.0261 H   0  0  0  0  0  0  0  0  0  0  0  0
    0.6877    1.4800   -0.8956 H   0  0  0  0  0  0  0  0  0  0  0  0
  1  2  3  0
  2  3  1  0
  3  4  1  0
  4  5  1  0
  5  6  1  0
  6  7  1  0
  7  8  1  0
  8  3  1  0
  8  6  1  0
  1  9  1  0
  3 10  1  0
  5 11  1  0
  5 12  1  0
  6 13  1  0
  7 14  1  0
  7 15  1  0
  8 16  1  0
M  END
