
     RDKit          3D

 21 21  0  0  0  0  0  0  0  0999 V2000
    3.2012    1.5627    0.0650 C   0  0  0  0  0  0  0  0  0  0  0  0
    2.1341    1.0184    0.1996 C   0  0  0  0  0  0  0  0  0  0  0  0
    0.8459    0.3328    0.3604 C   0  0  0  0  0  0  0  0  0  0  0  0
    0.4724   -0.7783   -0.1963 C   0  0  0  0  0  0  0  0  0  0  0  0
    1.3723   -1.5453   -1.1324 C   0  0  0  0  0  0  0  0  0  0  0  0
   -0.8863   -1.2106    0.1648 C   0  0  0  0  0  0  0  0  0  0  0  0
   -1.5001    0.0808    0.7103 C   0  0  0  0  0  0  0  0  0  0  0  0
   -2.1990    0.8407   -0.3841 C   0  0  0  0  0  0  0  0  0  0  0  0
   -0.2599    0.8275    1.2142 C   0  0  0  0  0  0  0  0  0  0  0  0
    4.1461    2.0241   -0.0513 H   0  0  0  0  0  0  0  0  0  0  0  0
    2.3627   -1.7181   -0.6297 H   0  0  0  0  0  0  0  0  0  0  0  0
    1.5287   -0.9245   -2.0451 H   0  0  0  0  0  0  0  0  0  0  0  0
    0.9396   -2.5290   -1.3775 H   0  0  0  0  0  0  0  0  0  0  0  0
   -0.9177   -2.0202    0.8978 H   0  0  0  0  0  0  0  0  0  0  0  0
   -1.4217   -1.4500   -0.7801 H   0  0  0  0  0  0  0  0  0  0  0  0
   -2.1632   -0.1416    1.5553 H   0  0  0  0  0  0  0  0  0  0  0  0
   -3.3153    0.7627   -0.2750 H   0  0  0  0  0  0  0  0  0  0  0  0
   -1.8945    1.9247   -0.3447 H   0  0  0  0  0  0  0  0  0  0  0  0
   -1.9712    0.4097   -1.3888 H   0  0  0  0  0  0  0  0  0  0  0  0
   -0.3909    1.9252    1.1411 H   0  0  0  0  0  0  0  0  0  0  0  0
   -0.0831    0.6080    2.2965 H   0  0  0  0  0  0  0  0  0  0  0  0
  1  2  3  0
  2  3  1  0
  3  4  2  0
  4  5  1  0
  4  6  1  0
  6  7  1  0
  7  8  1  0
  7  9  1  0
  9  3  1  0
  1 10  1  0
  5 11  1  0
  5 12  1  0
  5 13  1  0
  6 14  1  0
  6 15  1  0
  7 16  1  0
  8 17  1  0
  8 18  1  0
  8 19  1  0
  9 20  1  0
  9 21  1  0
M  END
