
     RDKit          3D

 15 15  0  0  0  0  0  0  0  0999 V2000
    3.5891   -2.4262   -1.1161 C   0  0  0  0  0  0  0  0  0  0  0  0
    2.3550   -1.7227   -0.8484 C   0  0  0  0  0  0  0  0  0  0  0  0
    1.6816   -1.3468   -0.6923 C   0  0  0  0  0  0  0  0  0  0  0  0
    0.4538   -0.6673   -0.4318 C   0  0  0  0  0  0  0  0  0  0  0  0
   -0.8017    0.0270   -0.1803 C   0  0  0  0  0  0  0  0  0  0  0  0
   -1.0314    0.0665    1.2883 C   0  0  0  0  0  0  0  0  0  0  0  0
   -1.5680    1.3572    1.5490 O   0  0  0  0  0  0  0  0  0  0  0  0
   -1.5401    2.0476    0.3862 C   0  0  0  0  0  0  0  0  0  0  0  0
   -0.6109    1.4183   -0.4513 O   0  0  0  0  0  0  0  0  0  0  0  0
    4.5031   -2.9638   -1.3280 H   0  0  0  0  0  0  0  0  0  0  0  0
   -1.5788   -0.3679   -0.8281 H   0  0  0  0  0  0  0  0  0  0  0  0
   -0.0258    0.0740    1.8239 H   0  0  0  0  0  0  0  0  0  0  0  0
   -1.6574   -0.7129    1.7230 H   0  0  0  0  0  0  0  0  0  0  0  0
   -2.5658    2.0941   -0.0881 H   0  0  0  0  0  0  0  0  0  0  0  0
   -1.2028    3.1229    0.5358 H   0  0  0  0  0  0  0  0  0  0  0  0
  1  2  3  0
  2  3  1  0
  3  4  3  0
  4  5  1  0
  5  6  1  0
  6  7  1  0
  7  8  1  0
  8  9  1  0
  9  5  1  0
  1 10  1  0
  5 11  1  0
  6 12  1  0
  6 13  1  0
  8 14  1  0
  8 15  1  0
M  END
