
     RDKit          3D

 19 19  0  0  0  0  0  0  0  0999 V2000
   -2.7670   -0.3961   -1.1008 C   0  0  0  0  0  0  0  0  0  0  0  0
   -1.7114   -0.3282   -0.5371 C   0  0  0  0  0  0  0  0  0  0  0  0
   -0.6647   -0.2465    0.0400 C   0  0  0  0  0  0  0  0  0  0  0  0
   -0.1989   -1.4637    0.8865 C   0  0  0  0  0  0  0  0  0  0  0  0
    0.5841    0.2921   -0.8031 C   0  0  0  0  0  0  0  0  0  0  0  0
    1.0553    0.9889    0.4249 C   0  0  0  0  0  0  0  0  0  0  0  0
    2.0559    0.3703    1.2178 C   0  0  0  0  0  0  0  0  0  0  0  0
    2.5920   -0.6507    1.3059 O   0  0  0  0  0  0  0  0  0  0  0  0
   -0.3553    1.0243    0.9751 C   0  0  0  0  0  0  0  0  0  0  0  0
   -3.9578   -0.4607   -1.7352 H   0  0  0  0  0  0  0  0  0  0  0  0
   -1.1146   -2.0877    1.0646 H   0  0  0  0  0  0  0  0  0  0  0  0
    0.2025   -1.1996    1.8503 H   0  0  0  0  0  0  0  0  0  0  0  0
    0.4464   -2.0934    0.2660 H   0  0  0  0  0  0  0  0  0  0  0  0
    1.1976   -0.5205   -1.1709 H   0  0  0  0  0  0  0  0  0  0  0  0
    0.1848    0.9842   -1.5953 H   0  0  0  0  0  0  0  0  0  0  0  0
    1.3714    2.0736    0.0958 H   0  0  0  0  0  0  0  0  0  0  0  0
    2.5334    1.1019    2.0810 H   0  0  0  0  0  0  0  0  0  0  0  0
   -1.0013    1.8076    0.4981 H   0  0  0  0  0  0  0  0  0  0  0  0
   -0.4525    0.8041    2.0265 H   0  0  0  0  0  0  0  0  0  0  0  0
  1  2  3  0
  2  3  1  0
  3  4  1  0
  3  5  1  0
  5  6  1  0
  6  7  1  0
  7  8  2  0
  6  9  1  0
  9  3  1  0
  1 10  1  0
  4 11  1  0
  4 12  1  0
  4 13  1  0
  5 14  1  0
  5 15  1  0
  6 16  1  0
  7 17  1  0
  9 18  1  0
  9 19  1  0
M  END
