
     RDKit          3D

 19 20  0  0  0  0  0  0  0  0999 V2000
    3.1125    1.2490    0.2207 C   0  0  0  0  0  0  0  0  0  0  0  0
    2.3482    0.3372   -0.0142 C   0  0  0  0  0  0  0  0  0  0  0  0
    1.3921   -0.7637   -0.2975 C   0  0  0  0  0  0  0  0  0  0  0  0
    0.2792   -0.9846    0.5122 C   0  0  0  0  0  0  0  0  0  0  0  0
   -1.0032   -1.6243    0.4829 C   0  0  0  0  0  0  0  0  0  0  0  0
   -1.8400   -0.8566   -0.1878 C   0  0  0  0  0  0  0  0  0  0  0  0
   -1.0271    0.3599   -0.6246 C   0  0  0  0  0  0  0  0  0  0  0  0
   -0.9175    1.4036    0.4019 C   0  0  0  0  0  0  0  0  0  0  0  0
    0.2067   -0.4193   -0.9468 C   0  0  0  0  0  0  0  0  0  0  0  0
    3.7831    2.0384    0.4423 H   0  0  0  0  0  0  0  0  0  0  0  0
    1.9873   -1.6713   -0.6105 H   0  0  0  0  0  0  0  0  0  0  0  0
    0.2063   -0.1995    1.3474 H   0  0  0  0  0  0  0  0  0  0  0  0
   -1.2620   -2.5731    0.9278 H   0  0  0  0  0  0  0  0  0  0  0  0
   -2.8762   -1.0474   -0.3853 H   0  0  0  0  0  0  0  0  0  0  0  0
   -1.5019    0.7613   -1.5379 H   0  0  0  0  0  0  0  0  0  0  0  0
    0.1097    1.7758    0.5973 H   0  0  0  0  0  0  0  0  0  0  0  0
   -1.4883    2.3260    0.0849 H   0  0  0  0  0  0  0  0  0  0  0  0
   -1.4082    1.0587    1.3365 H   0  0  0  0  0  0  0  0  0  0  0  0
   -0.1010   -1.1701   -1.7491 H   0  0  0  0  0  0  0  0  0  0  0  0
  1  2  3  0
  2  3  1  0
  3  4  1  0
  4  5  1  0
  5  6  2  0
  6  7  1  0
  7  8  1  0
  7  9  1  0
  9  3  1  0
  9  4  1  0
  1 10  1  0
  3 11  1  0
  4 12  1  0
  5 13  1  0
  6 14  1  0
  7 15  1  0
  8 16  1  0
  8 17  1  0
  8 18  1  0
  9 19  1  0
M  END
