
     RDKit          3D

 19 18  0  0  0  0  0  0  0  0999 V2000
    2.1565    0.6951    2.4529 C   0  0  0  0  0  0  0  0  0  0  0  0
    2.0609   -0.2637    1.6955 C   0  0  0  0  0  0  0  0  0  0  0  0
    1.9437   -1.4238    0.8108 C   0  0  0  0  0  0  0  0  0  0  0  0
    0.6348   -1.4739    0.3481 O   0  0  0  0  0  0  0  0  0  0  0  0
    0.3214   -0.3135   -0.3507 C   0  0  0  0  0  0  0  0  0  0  0  0
   -1.0992   -0.3351   -0.8697 C   0  0  0  0  0  0  0  0  0  0  0  0
   -2.0164   -0.4520    0.1752 O   0  0  0  0  0  0  0  0  0  0  0  0
   -1.3109    0.9434   -1.6527 C   0  0  0  0  0  0  0  0  0  0  0  0
   -2.5816    1.0053   -2.2145 O   0  0  0  0  0  0  0  0  0  0  0  0
    2.2541    1.5225    3.1022 H   0  0  0  0  0  0  0  0  0  0  0  0
    2.2334   -2.3026    1.3892 H   0  0  0  0  0  0  0  0  0  0  0  0
    2.6395   -1.3440   -0.0576 H   0  0  0  0  0  0  0  0  0  0  0  0
    0.9936   -0.2626   -1.2311 H   0  0  0  0  0  0  0  0  0  0  0  0
    0.5003    0.6019    0.2418 H   0  0  0  0  0  0  0  0  0  0  0  0
   -1.1958   -1.1698   -1.6026 H   0  0  0  0  0  0  0  0  0  0  0  0
   -2.7523    0.1852    0.1174 H   0  0  0  0  0  0  0  0  0  0  0  0
   -0.5861    0.8890   -2.5151 H   0  0  0  0  0  0  0  0  0  0  0  0
   -1.0968    1.8511   -1.0787 H   0  0  0  0  0  0  0  0  0  0  0  0
   -3.0992    1.6476   -1.6961 H   0  0  0  0  0  0  0  0  0  0  0  0
  1  2  3  0
  2  3  1  0
  3  4  1  0
  4  5  1  0
  5  6  1  0
  6  7  1  0
  6  8  1  0
  8  9  1  0
  1 10  1  0
  3 11  1  0
  3 12  1  0
  5 13  1  0
  5 14  1  0
  6 15  1  0
  7 16  1  0
  8 17  1  0
  8 18  1  0
  9 19  1  0
M  END
