
     RDKit          3D

 19 18  0  0  0  0  0  0  0  0999 V2000
   -0.9775    2.3813   -0.9536 C   0  0  0  0  0  0  0  0  0  0  0  0
   -0.9419    1.3795   -0.4349 C   0  0  0  0  0  0  0  0  0  0  0  0
   -0.8577   -0.1069    0.3335 C   0  0  0  0  0  0  0  0  0  0  0  0
   -1.7889   -0.7811   -0.5203 C   0  0  0  0  0  0  0  0  0  0  0  0
   -0.9604    0.3408    1.7061 C   0  0  0  0  0  0  0  0  0  0  0  0
    0.6155   -0.2653   -0.1516 C   0  0  0  0  0  0  0  0  0  0  0  0
    1.1666    0.4218   -0.9848 O   0  0  0  0  0  0  0  0  0  0  0  0
    1.5034   -1.2816    0.3214 O   0  0  0  0  0  0  0  0  0  0  0  0
    2.8537   -1.1921   -0.2048 C   0  0  0  0  0  0  0  0  0  0  0  0
   -1.0186    3.6147   -1.5727 H   0  0  0  0  0  0  0  0  0  0  0  0
   -1.4382   -1.6248   -1.1693 H   0  0  0  0  0  0  0  0  0  0  0  0
   -2.2003   -0.1050   -1.3966 H   0  0  0  0  0  0  0  0  0  0  0  0
   -2.6822   -1.1477    0.0645 H   0  0  0  0  0  0  0  0  0  0  0  0
   -0.0700    0.0438    2.3501 H   0  0  0  0  0  0  0  0  0  0  0  0
   -0.8961    1.5144    1.6473 H   0  0  0  0  0  0  0  0  0  0  0  0
   -1.9616    0.1312    2.0528 H   0  0  0  0  0  0  0  0  0  0  0  0
    3.6441   -1.1123    0.6232 H   0  0  0  0  0  0  0  0  0  0  0  0
    2.9162   -0.2220   -0.7935 H   0  0  0  0  0  0  0  0  0  0  0  0
    3.0940   -1.9887   -0.9171 H   0  0  0  0  0  0  0  0  0  0  0  0
  1  2  3  0
  2  3  1  0
  3  4  1  0
  3  5  1  0
  3  6  1  0
  6  7  2  0
  6  8  1  0
  8  9  1  0
  1 10  1  0
  4 11  1  0
  4 12  1  0
  4 13  1  0
  5 14  1  0
  5 15  1  0
  5 16  1  0
  9 17  1  0
  9 18  1  0
  9 19  1  0
M  END
