
     RDKit          3D

 17 17  0  0  0  0  0  0  0  0999 V2000
    2.9608   -1.9577   -0.8567 C   0  0  0  0  0  0  0  0  0  0  0  0
    2.0383   -1.1452   -0.4253 C   0  0  0  0  0  0  0  0  0  0  0  0
    1.0935   -0.2855    0.0309 C   0  0  0  0  0  0  0  0  0  0  0  0
   -0.2713   -0.2546   -0.2707 C   0  0  0  0  0  0  0  0  0  0  0  0
   -1.3562   -1.0039   -0.0194 C   0  0  0  0  0  0  0  0  0  0  0  0
   -2.3056   -1.6444    0.2151 C   0  0  0  0  0  0  0  0  0  0  0  0
   -0.7975    1.2498   -0.3141 C   0  0  0  0  0  0  0  0  0  0  0  0
   -0.7668    1.8828    1.0383 C   0  0  0  0  0  0  0  0  0  0  0  0
   -1.9481    1.5330    0.3455 O   0  0  0  0  0  0  0  0  0  0  0  0
    3.6385   -2.5711   -1.1656 H   0  0  0  0  0  0  0  0  0  0  0  0
    1.2375    0.0362    1.1933 H   0  0  0  0  0  0  0  0  0  0  0  0
    1.4614    0.8739   -0.4410 H   0  0  0  0  0  0  0  0  0  0  0  0
   -0.2140   -0.3546   -1.5549 H   0  0  0  0  0  0  0  0  0  0  0  0
   -3.1643   -2.2435    0.4330 H   0  0  0  0  0  0  0  0  0  0  0  0
   -0.6123    1.8215   -1.2294 H   0  0  0  0  0  0  0  0  0  0  0  0
   -0.3624    2.8621    1.0823 H   0  0  0  0  0  0  0  0  0  0  0  0
   -0.6313    1.2013    1.9386 H   0  0  0  0  0  0  0  0  0  0  0  0
  1  2  3  0
  2  3  1  0
  3  4  1  0
  4  5  1  0
  5  6  3  0
  4  7  1  0
  7  8  1  0
  8  9  1  0
  9  7  1  0
  1 10  1  0
  3 11  1  0
  3 12  1  0
  4 13  1  0
  6 14  1  0
  7 15  1  0
  8 16  1  0
  8 17  1  0
M  END
