
     RDKit          3D

 13 12  0  0  0  0  0  0  0  0999 V2000
    2.4955    0.3320    0.0335 C   0  0  0  0  0  0  0  0  0  0  0  0
    1.2838    0.1413    0.1624 C   0  0  0  0  0  0  0  0  0  0  0  0
   -0.1380   -0.1082    0.3121 C   0  0  0  0  0  0  0  0  0  0  0  0
   -0.5807   -0.9751   -0.8841 C   0  0  0  0  0  0  0  0  0  0  0  0
   -0.4515   -0.7048    1.4990 O   0  0  0  0  0  0  0  0  0  0  0  0
   -0.8921    1.1940    0.1282 C   0  0  0  0  0  0  0  0  0  0  0  0
   -1.7637    1.4907    0.8971 O   0  0  0  0  0  0  0  0  0  0  0  0
    3.5576    0.5177   -0.0749 H   0  0  0  0  0  0  0  0  0  0  0  0
   -1.1523   -0.3831   -1.6287 H   0  0  0  0  0  0  0  0  0  0  0  0
   -1.3194   -1.7618   -0.5438 H   0  0  0  0  0  0  0  0  0  0  0  0
    0.2822   -1.4311   -1.3727 H   0  0  0  0  0  0  0  0  0  0  0  0
   -0.7472   -0.0968    2.1935 H   0  0  0  0  0  0  0  0  0  0  0  0
   -0.5744    1.7851   -0.7216 H   0  0  0  0  0  0  0  0  0  0  0  0
  1  2  3  0
  2  3  1  0
  3  4  1  0
  3  5  1  0
  3  6  1  0
  6  7  2  0
  1  8  1  0
  4  9  1  0
  4 10  1  0
  4 11  1  0
  5 12  1  0
  6 13  1  0
M  END
