
     RDKit          3D

 21 21  0  0  0  0  0  0  0  0999 V2000
   -2.4000    2.3382    1.9417 C   0  0  0  0  0  0  0  0  0  0  0  0
   -1.6270    1.4246    1.7535 C   0  0  0  0  0  0  0  0  0  0  0  0
   -0.6471    0.2876    1.4991 C   0  0  0  0  0  0  0  0  0  0  0  0
   -0.1398    0.5225    0.1241 C   0  0  0  0  0  0  0  0  0  0  0  0
   -1.1412    0.4595   -1.0001 C   0  0  0  0  0  0  0  0  0  0  0  0
    0.1189    0.1521   -1.8492 C   0  0  0  0  0  0  0  0  0  0  0  0
    0.5995   -0.5751   -0.5921 C   0  0  0  0  0  0  0  0  0  0  0  0
    1.9853   -0.5325   -0.4511 O   0  0  0  0  0  0  0  0  0  0  0  0
    2.3689   -1.8490   -0.0808 C   0  0  0  0  0  0  0  0  0  0  0  0
   -3.0631    3.1327    2.0925 H   0  0  0  0  0  0  0  0  0  0  0  0
   -1.2347   -0.6421    1.5309 H   0  0  0  0  0  0  0  0  0  0  0  0
    0.0971    0.3415    2.2896 H   0  0  0  0  0  0  0  0  0  0  0  0
    0.4052    1.5300    0.0173 H   0  0  0  0  0  0  0  0  0  0  0  0
   -1.7659   -0.4989   -0.9705 H   0  0  0  0  0  0  0  0  0  0  0  0
   -1.6550    1.3372   -1.3332 H   0  0  0  0  0  0  0  0  0  0  0  0
   -0.0120   -0.4634   -2.7144 H   0  0  0  0  0  0  0  0  0  0  0  0
    0.6423    1.1303   -1.9408 H   0  0  0  0  0  0  0  0  0  0  0  0
    0.1376   -1.5503   -0.4519 H   0  0  0  0  0  0  0  0  0  0  0  0
    1.8496   -2.1307    0.8755 H   0  0  0  0  0  0  0  0  0  0  0  0
    3.4698   -1.8955    0.1235 H   0  0  0  0  0  0  0  0  0  0  0  0
    2.0117   -2.5186   -0.8634 H   0  0  0  0  0  0  0  0  0  0  0  0
  1  2  3  0
  2  3  1  0
  3  4  1  0
  4  5  1  0
  5  6  1  0
  6  7  1  0
  7  8  1  0
  8  9  1  0
  7  4  1  0
  1 10  1  0
  3 11  1  0
  3 12  1  0
  4 13  1  0
  5 14  1  0
  5 15  1  0
  6 16  1  0
  6 17  1  0
  7 18  1  0
  9 19  1  0
  9 20  1  0
  9 21  1  0
M  END
