
     RDKit          3D

 15 15  0  0  0  0  0  0  0  0999 V2000
    2.4706   -1.3437    0.5903 C   0  0  0  0  0  0  0  0  0  0  0  0
    1.5793   -0.5558    0.5451 C   0  0  0  0  0  0  0  0  0  0  0  0
    0.5112    0.4158    0.4990 C   0  0  0  0  0  0  0  0  0  0  0  0
   -0.0911    0.6151   -0.9069 C   0  0  0  0  0  0  0  0  0  0  0  0
   -0.2693    1.9517   -1.2745 O   0  0  0  0  0  0  0  0  0  0  0  0
   -0.8826    0.0555    0.2425 C   0  0  0  0  0  0  0  0  0  0  0  0
   -1.8800    0.9180    0.7076 O   0  0  0  0  0  0  0  0  0  0  0  0
   -1.3039   -1.3846    0.1897 C   0  0  0  0  0  0  0  0  0  0  0  0
   -0.5544   -2.2618   -0.1914 O   0  0  0  0  0  0  0  0  0  0  0  0
    3.2655   -2.0708    0.6268 H   0  0  0  0  0  0  0  0  0  0  0  0
    0.7045    1.3381    1.0841 H   0  0  0  0  0  0  0  0  0  0  0  0
    0.2563   -0.0442   -1.7087 H   0  0  0  0  0  0  0  0  0  0  0  0
    0.5659    2.4232   -0.9608 H   0  0  0  0  0  0  0  0  0  0  0  0
   -2.0727    1.6438    0.0662 H   0  0  0  0  0  0  0  0  0  0  0  0
   -2.2994   -1.7003    0.4912 H   0  0  0  0  0  0  0  0  0  0  0  0
  1  2  3  0
  2  3  1  0
  3  4  1  0
  4  5  1  0
  4  6  1  0
  6  7  1  0
  6  8  1  0
  8  9  2  0
  6  3  1  0
  1 10  1  0
  3 11  1  0
  4 12  1  0
  5 13  1  0
  7 14  1  0
  8 15  1  0
M  END
