
     RDKit          3D

 19 20  0  0  0  0  0  0  0  0999 V2000
    3.5587    0.7451    1.7040 C   0  0  0  0  0  0  0  0  0  0  0  0
    2.4111    0.6439    1.3645 C   0  0  0  0  0  0  0  0  0  0  0  0
    0.9937    0.5276    0.9635 C   0  0  0  0  0  0  0  0  0  0  0  0
    0.7845   -0.7680    0.1775 C   0  0  0  0  0  0  0  0  0  0  0  0
   -0.6791   -0.8149   -0.1949 C   0  0  0  0  0  0  0  0  0  0  0  0
   -1.0794    0.3674   -1.0417 C   0  0  0  0  0  0  0  0  0  0  0  0
   -2.5451    0.4550   -1.3465 C   0  0  0  0  0  0  0  0  0  0  0  0
   -2.4723   -0.8602   -1.8267 O   0  0  0  0  0  0  0  0  0  0  0  0
   -1.1207   -1.0595   -1.5757 C   0  0  0  0  0  0  0  0  0  0  0  0
    4.5810    0.8287    2.0245 H   0  0  0  0  0  0  0  0  0  0  0  0
    0.6546    1.3984    0.3857 H   0  0  0  0  0  0  0  0  0  0  0  0
    0.4149    0.5236    1.9110 H   0  0  0  0  0  0  0  0  0  0  0  0
    1.4437   -0.7077   -0.7101 H   0  0  0  0  0  0  0  0  0  0  0  0
    1.1071   -1.6186    0.7741 H   0  0  0  0  0  0  0  0  0  0  0  0
   -1.3574   -1.0037    0.6520 H   0  0  0  0  0  0  0  0  0  0  0  0
   -0.3433    0.9881   -1.5396 H   0  0  0  0  0  0  0  0  0  0  0  0
   -3.1170    0.4974   -0.3859 H   0  0  0  0  0  0  0  0  0  0  0  0
   -2.7986    1.2119   -2.0911 H   0  0  0  0  0  0  0  0  0  0  0  0
   -0.4363   -1.3546   -2.3673 H   0  0  0  0  0  0  0  0  0  0  0  0
  1  2  3  0
  2  3  1  0
  3  4  1  0
  4  5  1  0
  5  6  1  0
  6  7  1  0
  7  8  1  0
  8  9  1  0
  9  5  1  0
  9  6  1  0
  1 10  1  0
  3 11  1  0
  3 12  1  0
  4 13  1  0
  4 14  1  0
  5 15  1  0
  6 16  1  0
  7 17  1  0
  7 18  1  0
  9 19  1  0
M  END
