
     RDKit          3D

 14 13  0  0  0  0  0  0  0  0999 V2000
    2.5067    0.2572   -0.4801 C   0  0  0  0  0  0  0  0  0  0  0  0
    1.3752    0.1191   -0.1081 C   0  0  0  0  0  0  0  0  0  0  0  0
   -0.0052   -0.0651    0.3378 C   0  0  0  0  0  0  0  0  0  0  0  0
   -0.5682   -1.3897   -0.1278 C   0  0  0  0  0  0  0  0  0  0  0  0
   -0.8179    1.0501   -0.3138 C   0  0  0  0  0  0  0  0  0  0  0  0
   -0.0796    0.1101    1.6957 O   0  0  0  0  0  0  0  0  0  0  0  0
    3.5289    0.3740   -0.7997 H   0  0  0  0  0  0  0  0  0  0  0  0
   -0.9089   -1.2506   -1.1748 H   0  0  0  0  0  0  0  0  0  0  0  0
   -1.4457   -1.6783    0.4827 H   0  0  0  0  0  0  0  0  0  0  0  0
    0.2106   -2.1858   -0.1338 H   0  0  0  0  0  0  0  0  0  0  0  0
   -1.6568    1.2713    0.3697 H   0  0  0  0  0  0  0  0  0  0  0  0
   -0.1631    1.9266   -0.4860 H   0  0  0  0  0  0  0  0  0  0  0  0
   -1.2670    0.6521   -1.2461 H   0  0  0  0  0  0  0  0  0  0  0  0
   -0.7088    0.8091    1.9844 H   0  0  0  0  0  0  0  0  0  0  0  0
  1  2  3  0
  2  3  1  0
  3  4  1  0
  3  5  1  0
  3  6  1  0
  1  7  1  0
  4  8  1  0
  4  9  1  0
  4 10  1  0
  5 11  1  0
  5 12  1  0
  5 13  1  0
  6 14  1  0
M  END
