
     RDKit          3D

 15 16  0  0  0  0  0  0  0  0999 V2000
    3.2262    0.4866    0.4727 C   0  0  0  0  0  0  0  0  0  0  0  0
    2.1603    0.2278   -0.0251 C   0  0  0  0  0  0  0  0  0  0  0  0
    0.8658   -0.1054   -0.6514 C   0  0  0  0  0  0  0  0  0  0  0  0
   -0.2461    0.8412   -0.3494 C   0  0  0  0  0  0  0  0  0  0  0  0
   -0.0895    0.4799    0.9809 O   0  0  0  0  0  0  0  0  0  0  0  0
   -0.0268   -0.7598    0.3433 C   0  0  0  0  0  0  0  0  0  0  0  0
   -1.1970   -0.3097   -0.4621 C   0  0  0  0  0  0  0  0  0  0  0  0
   -2.4153   -0.2059    0.3521 C   0  0  0  0  0  0  0  0  0  0  0  0
   -2.4663    0.5491    1.3214 O   0  0  0  0  0  0  0  0  0  0  0  0
    4.1855    0.7218    0.9009 H   0  0  0  0  0  0  0  0  0  0  0  0
    0.9165   -0.5129   -1.6579 H   0  0  0  0  0  0  0  0  0  0  0  0
   -0.3761    1.7735   -0.7089 H   0  0  0  0  0  0  0  0  0  0  0  0
    0.1016   -1.6496    0.8007 H   0  0  0  0  0  0  0  0  0  0  0  0
   -1.3321   -0.7527   -1.4501 H   0  0  0  0  0  0  0  0  0  0  0  0
   -3.3067   -0.7838    0.1330 H   0  0  0  0  0  0  0  0  0  0  0  0
  1  2  3  0
  2  3  1  0
  3  4  1  0
  4  5  1  0
  5  6  1  0
  6  7  1  0
  7  8  1  0
  8  9  2  0
  6  3  1  0
  7  4  1  0
  1 10  1  0
  3 11  1  0
  4 12  1  0
  6 13  1  0
  7 14  1  0
  8 15  1  0
M  END
