
     RDKit          3D

 17 17  0  0  0  0  0  0  0  0999 V2000
    3.0519    0.4344    0.9843 C   0  0  0  0  0  0  0  0  0  0  0  0
    1.9023    0.1054    1.0858 C   0  0  0  0  0  0  0  0  0  0  0  0
    0.4890   -0.2759    1.1974 C   0  0  0  0  0  0  0  0  0  0  0  0
   -0.0177   -0.5584   -0.2032 C   0  0  0  0  0  0  0  0  0  0  0  0
    0.0838    0.6224   -1.1395 C   0  0  0  0  0  0  0  0  0  0  0  0
   -1.2425    1.0721   -0.6304 C   0  0  0  0  0  0  0  0  0  0  0  0
   -1.8728    2.0965   -0.5428 O   0  0  0  0  0  0  0  0  0  0  0  0
   -1.5139   -0.3305   -0.2417 C   0  0  0  0  0  0  0  0  0  0  0  0
   -2.1919   -1.0307   -1.2179 O   0  0  0  0  0  0  0  0  0  0  0  0
    4.0828    0.7264    0.8755 H   0  0  0  0  0  0  0  0  0  0  0  0
   -0.1263    0.5397    1.6160 H   0  0  0  0  0  0  0  0  0  0  0  0
    0.3508   -1.1541    1.8440 H   0  0  0  0  0  0  0  0  0  0  0  0
    0.3382   -1.4744   -0.6670 H   0  0  0  0  0  0  0  0  0  0  0  0
    0.0942    0.3328   -2.2035 H   0  0  0  0  0  0  0  0  0  0  0  0
    0.8645    1.3273   -0.8419 H   0  0  0  0  0  0  0  0  0  0  0  0
   -2.0316   -0.4508    0.7321 H   0  0  0  0  0  0  0  0  0  0  0  0
   -2.2606   -1.9821   -1.0476 H   0  0  0  0  0  0  0  0  0  0  0  0
  1  2  3  0
  2  3  1  0
  3  4  1  0
  4  5  1  0
  5  6  1  0
  6  7  2  0
  6  8  1  0
  8  9  1  0
  8  4  1  0
  1 10  1  0
  3 11  1  0
  3 12  1  0
  4 13  1  0
  5 14  1  0
  5 15  1  0
  8 16  1  0
  9 17  1  0
M  END
