
     RDKit          3D

 19 19  0  0  0  0  0  0  0  0999 V2000
    1.7173   -2.8413    2.1345 C   0  0  0  0  0  0  0  0  0  0  0  0
    1.4062   -2.1498    1.2300 C   0  0  0  0  0  0  0  0  0  0  0  0
    1.0436   -1.3095    0.1055 C   0  0  0  0  0  0  0  0  0  0  0  0
    0.2983   -0.2049    0.4156 O   0  0  0  0  0  0  0  0  0  0  0  0
    0.0107    0.5942   -0.6766 C   0  0  0  0  0  0  0  0  0  0  0  0
    0.7561    1.9136   -0.5389 C   0  0  0  0  0  0  0  0  0  0  0  0
   -1.4379    0.8904   -0.8776 C   0  0  0  0  0  0  0  0  0  0  0  0
   -2.3632    0.3353    0.1889 C   0  0  0  0  0  0  0  0  0  0  0  0
   -2.3461   -0.1277   -1.1237 O   0  0  0  0  0  0  0  0  0  0  0  0
    1.9952   -3.5022    2.9779 H   0  0  0  0  0  0  0  0  0  0  0  0
    1.9841   -0.9504   -0.4004 H   0  0  0  0  0  0  0  0  0  0  0  0
    0.4781   -1.9645   -0.6273 H   0  0  0  0  0  0  0  0  0  0  0  0
    0.4762    0.0800   -1.5566 H   0  0  0  0  0  0  0  0  0  0  0  0
    1.0036    2.0512    0.5397 H   0  0  0  0  0  0  0  0  0  0  0  0
    1.7117    1.9004   -1.1000 H   0  0  0  0  0  0  0  0  0  0  0  0
    0.0897    2.7206   -0.8308 H   0  0  0  0  0  0  0  0  0  0  0  0
   -1.6640    1.8965   -1.2956 H   0  0  0  0  0  0  0  0  0  0  0  0
   -3.1815    1.0276    0.4944 H   0  0  0  0  0  0  0  0  0  0  0  0
   -1.9781   -0.3595    0.9409 H   0  0  0  0  0  0  0  0  0  0  0  0
  1  2  3  0
  2  3  1  0
  3  4  1  0
  4  5  1  0
  5  6  1  0
  5  7  1  0
  7  8  1  0
  8  9  1  0
  9  7  1  0
  1 10  1  0
  3 11  1  0
  3 12  1  0
  5 13  1  0
  6 14  1  0
  6 15  1  0
  6 16  1  0
  7 17  1  0
  8 18  1  0
  8 19  1  0
M  END
