
     RDKit          3D

 18 17  0  0  0  0  0  0  0  0999 V2000
   -2.1264   -0.0144    1.5781 C   0  0  0  0  0  0  0  0  0  0  0  0
   -1.1389   -0.1284    0.8722 C   0  0  0  0  0  0  0  0  0  0  0  0
    0.0390   -0.2547    0.0096 C   0  0  0  0  0  0  0  0  0  0  0  0
    0.5892   -1.6794    0.1051 C   0  0  0  0  0  0  0  0  0  0  0  0
    1.1303    0.6878    0.4425 C   0  0  0  0  0  0  0  0  0  0  0  0
    0.6737    2.0092    0.3770 O   0  0  0  0  0  0  0  0  0  0  0  0
   -0.3634   -0.0430   -1.4240 C   0  0  0  0  0  0  0  0  0  0  0  0
   -0.9189    1.1976   -1.6655 O   0  0  0  0  0  0  0  0  0  0  0  0
   -2.9935    0.0700    2.1847 H   0  0  0  0  0  0  0  0  0  0  0  0
    1.3314   -1.7755   -0.7020 H   0  0  0  0  0  0  0  0  0  0  0  0
    1.0817   -1.8781    1.0557 H   0  0  0  0  0  0  0  0  0  0  0  0
   -0.2765   -2.3632   -0.0527 H   0  0  0  0  0  0  0  0  0  0  0  0
    1.9897    0.5710   -0.2399 H   0  0  0  0  0  0  0  0  0  0  0  0
    1.3984    0.4643    1.4858 H   0  0  0  0  0  0  0  0  0  0  0  0
    1.4654    2.5753    0.6276 H   0  0  0  0  0  0  0  0  0  0  0  0
   -1.0785   -0.8461   -1.6994 H   0  0  0  0  0  0  0  0  0  0  0  0
    0.5303   -0.2100   -2.0803 H   0  0  0  0  0  0  0  0  0  0  0  0
   -1.3330    1.6175   -0.8745 H   0  0  0  0  0  0  0  0  0  0  0  0
  1  2  3  0
  2  3  1  0
  3  4  1  0
  3  5  1  0
  5  6  1  0
  3  7  1  0
  7  8  1  0
  1  9  1  0
  4 10  1  0
  4 11  1  0
  4 12  1  0
  5 13  1  0
  5 14  1  0
  6 15  1  0
  7 16  1  0
  7 17  1  0
  8 18  1  0
M  END
