
     RDKit          3D

 19 20  0  0  0  0  0  0  0  0999 V2000
    2.8318   -1.0558    1.5690 C   0  0  0  0  0  0  0  0  0  0  0  0
    1.5374   -1.0081    1.2009 C   0  0  0  0  0  0  0  0  0  0  0  0
    0.2425   -0.9508    0.8499 C   0  0  0  0  0  0  0  0  0  0  0  0
   -0.1063    0.6051    0.8434 C   0  0  0  0  0  0  0  0  0  0  0  0
    0.9399    1.3767    0.0765 C   0  0  0  0  0  0  0  0  0  0  0  0
    0.3354    0.6998   -1.1515 C   0  0  0  0  0  0  0  0  0  0  0  0
   -0.3554   -0.3395   -0.3168 C   0  0  0  0  0  0  0  0  0  0  0  0
   -1.7999   -0.6301   -0.6226 C   0  0  0  0  0  0  0  0  0  0  0  0
   -2.2443   -0.0407   -1.7940 O   0  0  0  0  0  0  0  0  0  0  0  0
    3.9566   -1.0845    1.9005 H   0  0  0  0  0  0  0  0  0  0  0  0
   -0.4761   -1.3357    1.6781 H   0  0  0  0  0  0  0  0  0  0  0  0
   -0.8960    0.9943    1.3909 H   0  0  0  0  0  0  0  0  0  0  0  0
    1.9648    1.0156    0.2562 H   0  0  0  0  0  0  0  0  0  0  0  0
    0.8612    2.4857    0.0839 H   0  0  0  0  0  0  0  0  0  0  0  0
   -0.3500    1.4149   -1.6181 H   0  0  0  0  0  0  0  0  0  0  0  0
    1.0629    0.3784   -1.9098 H   0  0  0  0  0  0  0  0  0  0  0  0
   -2.4531   -0.3124    0.2537 H   0  0  0  0  0  0  0  0  0  0  0  0
   -1.9534   -1.7122   -0.6741 H   0  0  0  0  0  0  0  0  0  0  0  0
   -3.0982   -0.5005   -2.0161 H   0  0  0  0  0  0  0  0  0  0  0  0
  1  2  3  0
  2  3  1  0
  3  4  1  0
  4  5  1  0
  5  6  1  0
  6  7  1  0
  7  8  1  0
  8  9  1  0
  7  3  1  0
  7  4  1  0
  1 10  1  0
  3 11  1  0
  4 12  1  0
  5 13  1  0
  5 14  1  0
  6 15  1  0
  6 16  1  0
  8 17  1  0
  8 18  1  0
  9 19  1  0
M  END
