
     RDKit          3D

 21 20  0  0  0  0  0  0  0  0999 V2000
    4.1823   -0.0431   -1.1619 C   0  0  0  0  0  0  0  0  0  0  0  0
    3.0888    0.4076   -0.9288 C   0  0  0  0  0  0  0  0  0  0  0  0
    1.7394    0.9524   -0.6634 C   0  0  0  0  0  0  0  0  0  0  0  0
    1.2338    1.4200   -1.8949 O   0  0  0  0  0  0  0  0  0  0  0  0
    0.8449   -0.1533   -0.1183 C   0  0  0  0  0  0  0  0  0  0  0  0
   -0.4144    0.3920    0.0529 O   0  0  0  0  0  0  0  0  0  0  0  0
   -1.3455   -0.4784    0.5406 C   0  0  0  0  0  0  0  0  0  0  0  0
   -2.4878   -0.7502   -0.4038 C   0  0  0  0  0  0  0  0  0  0  0  0
   -1.9159   -0.0964    1.8779 C   0  0  0  0  0  0  0  0  0  0  0  0
    5.1617   -0.4309   -1.3576 H   0  0  0  0  0  0  0  0  0  0  0  0
    1.8031    1.8167    0.0199 H   0  0  0  0  0  0  0  0  0  0  0  0
    1.4308    2.4005   -1.9863 H   0  0  0  0  0  0  0  0  0  0  0  0
    1.2426   -0.4473    0.8615 H   0  0  0  0  0  0  0  0  0  0  0  0
    0.8665   -0.9783   -0.8533 H   0  0  0  0  0  0  0  0  0  0  0  0
   -0.8259   -1.4711    0.6877 H   0  0  0  0  0  0  0  0  0  0  0  0
   -2.2421   -1.5701   -1.1098 H   0  0  0  0  0  0  0  0  0  0  0  0
   -2.7903    0.1667   -0.9485 H   0  0  0  0  0  0  0  0  0  0  0  0
   -3.3399   -1.1143    0.2071 H   0  0  0  0  0  0  0  0  0  0  0  0
   -1.0877    0.0856    2.5922 H   0  0  0  0  0  0  0  0  0  0  0  0
   -2.5612    0.8134    1.7763 H   0  0  0  0  0  0  0  0  0  0  0  0
   -2.5832   -0.9217    2.1980 H   0  0  0  0  0  0  0  0  0  0  0  0
  1  2  3  0
  2  3  1  0
  3  4  1  0
  3  5  1  0
  5  6  1  0
  6  7  1  0
  7  8  1  0
  7  9  1  0
  1 10  1  0
  3 11  1  0
  4 12  1  0
  5 13  1  0
  5 14  1  0
  7 15  1  0
  8 16  1  0
  8 17  1  0
  8 18  1  0
  9 19  1  0
  9 20  1  0
  9 21  1  0
M  END
