
     RDKit          3D

 16 16  0  0  0  0  0  0  0  0999 V2000
    2.7912   -0.6423    0.7089 C   0  0  0  0  0  0  0  0  0  0  0  0
    1.6971   -0.3537    0.2777 C   0  0  0  0  0  0  0  0  0  0  0  0
    0.3675   -0.0273   -0.2340 C   0  0  0  0  0  0  0  0  0  0  0  0
    0.2760    1.4014   -0.6628 C   0  0  0  0  0  0  0  0  0  0  0  0
   -0.1100   -0.8753   -1.2276 O   0  0  0  0  0  0  0  0  0  0  0  0
   -1.3307   -0.9927   -0.5271 C   0  0  0  0  0  0  0  0  0  0  0  0
   -0.6820   -0.4926    0.7404 C   0  0  0  0  0  0  0  0  0  0  0  0
   -1.3538    0.4728    1.4359 O   0  0  0  0  0  0  0  0  0  0  0  0
    3.7435   -0.9115    1.0843 H   0  0  0  0  0  0  0  0  0  0  0  0
   -0.7599    1.7658   -0.7425 H   0  0  0  0  0  0  0  0  0  0  0  0
    0.7053    1.4543   -1.7053 H   0  0  0  0  0  0  0  0  0  0  0  0
    0.9261    2.0712   -0.0572 H   0  0  0  0  0  0  0  0  0  0  0  0
   -2.1310   -0.3649   -0.9311 H   0  0  0  0  0  0  0  0  0  0  0  0
   -1.6573   -2.0510   -0.4961 H   0  0  0  0  0  0  0  0  0  0  0  0
   -0.3961   -1.3404    1.3823 H   0  0  0  0  0  0  0  0  0  0  0  0
   -2.0860    0.8865    0.9541 H   0  0  0  0  0  0  0  0  0  0  0  0
  1  2  3  0
  2  3  1  0
  3  4  1  0
  3  5  1  0
  5  6  1  0
  6  7  1  0
  7  8  1  0
  7  3  1  0
  1  9  1  0
  4 10  1  0
  4 11  1  0
  4 12  1  0
  6 13  1  0
  6 14  1  0
  7 15  1  0
  8 16  1  0
M  END
