
     RDKit          3D

 17 17  0  0  0  0  0  0  0  0999 V2000
    3.3711    0.3021    1.5141 C   0  0  0  0  0  0  0  0  0  0  0  0
    2.3433    0.2353    0.8864 C   0  0  0  0  0  0  0  0  0  0  0  0
    1.0974    0.1651    0.1511 C   0  0  0  0  0  0  0  0  0  0  0  0
    0.9350   -0.0130   -1.1516 C   0  0  0  0  0  0  0  0  0  0  0  0
   -0.5100   -0.0240   -1.5019 C   0  0  0  0  0  0  0  0  0  0  0  0
   -1.1001   -0.5190   -0.1738 C   0  0  0  0  0  0  0  0  0  0  0  0
   -2.5188   -0.2272   -0.0556 C   0  0  0  0  0  0  0  0  0  0  0  0
   -3.3081   -1.0672    0.3178 O   0  0  0  0  0  0  0  0  0  0  0  0
   -0.2418    0.2912    0.8014 C   0  0  0  0  0  0  0  0  0  0  0  0
    4.2813    0.3474    2.0818 H   0  0  0  0  0  0  0  0  0  0  0  0
    1.7467   -0.1335   -1.8590 H   0  0  0  0  0  0  0  0  0  0  0  0
   -0.8776    1.0174   -1.6709 H   0  0  0  0  0  0  0  0  0  0  0  0
   -0.7622   -0.7141   -2.3061 H   0  0  0  0  0  0  0  0  0  0  0  0
   -0.8159   -1.5614   -0.0625 H   0  0  0  0  0  0  0  0  0  0  0  0
   -2.9002    0.7498   -0.2997 H   0  0  0  0  0  0  0  0  0  0  0  0
   -0.2170   -0.1960    1.7970 H   0  0  0  0  0  0  0  0  0  0  0  0
   -0.5230    1.3470    0.8284 H   0  0  0  0  0  0  0  0  0  0  0  0
  1  2  3  0
  2  3  1  0
  3  4  2  0
  4  5  1  0
  5  6  1  0
  6  7  1  0
  7  8  2  0
  6  9  1  0
  9  3  1  0
  1 10  1  0
  4 11  1  0
  5 12  1  0
  5 13  1  0
  6 14  1  0
  7 15  1  0
  9 16  1  0
  9 17  1  0
M  END
