
     RDKit          3D

 16 17  0  0  0  0  0  0  0  0999 V2000
    2.2752    1.2120   -1.2627 C   0  0  0  0  0  0  0  0  0  0  0  0
    1.4454    0.6731   -0.4721 C   0  0  0  0  0  0  0  0  0  0  0  0
    0.4857    0.0420    0.4141 C   0  0  0  0  0  0  0  0  0  0  0  0
    1.0797   -1.3671    0.8024 C   0  0  0  0  0  0  0  0  0  0  0  0
   -0.2643    0.6440    1.3496 O   0  0  0  0  0  0  0  0  0  0  0  0
   -1.5153    0.4955    0.7576 C   0  0  0  0  0  0  0  0  0  0  0  0
   -1.7778    0.8203   -0.6430 C   0  0  0  0  0  0  0  0  0  0  0  0
   -0.8604   -0.2895   -0.3324 C   0  0  0  0  0  0  0  0  0  0  0  0
    2.9054    1.6392   -1.8609 H   0  0  0  0  0  0  0  0  0  0  0  0
    0.8869   -1.6191    1.8114 H   0  0  0  0  0  0  0  0  0  0  0  0
    2.2169   -1.2205    0.6373 H   0  0  0  0  0  0  0  0  0  0  0  0
    0.7601   -2.0413    0.0301 H   0  0  0  0  0  0  0  0  0  0  0  0
   -2.2964    0.0654    1.3658 H   0  0  0  0  0  0  0  0  0  0  0  0
   -2.7909    0.4962   -1.0026 H   0  0  0  0  0  0  0  0  0  0  0  0
   -1.4877    1.7760   -1.0593 H   0  0  0  0  0  0  0  0  0  0  0  0
   -1.0624   -1.3263   -0.5350 H   0  0  0  0  0  0  0  0  0  0  0  0
  1  2  3  0
  2  3  1  0
  3  4  1  0
  3  5  1  0
  5  6  1  0
  6  7  1  0
  7  8  1  0
  8  3  1  0
  8  6  1  0
  1  9  1  0
  4 10  1  0
  4 11  1  0
  4 12  1  0
  6 13  1  0
  7 14  1  0
  7 15  1  0
  8 16  1  0
M  END
