
     RDKit          3D

 17 18  0  0  0  0  0  0  0  0999 V2000
    3.1161    0.8083    0.0124 C   0  0  0  0  0  0  0  0  0  0  0  0
    1.9832    0.5322   -0.3502 C   0  0  0  0  0  0  0  0  0  0  0  0
    0.6207    0.1919   -0.7687 C   0  0  0  0  0  0  0  0  0  0  0  0
    0.4525   -1.1450   -1.0091 O   0  0  0  0  0  0  0  0  0  0  0  0
   -0.2611   -1.7102    0.0086 C   0  0  0  0  0  0  0  0  0  0  0  0
   -0.9531   -0.6463    0.7847 C   0  0  0  0  0  0  0  0  0  0  0  0
   -2.1856   -0.2241    0.3109 O   0  0  0  0  0  0  0  0  0  0  0  0
   -1.7247    0.9882   -0.1955 C   0  0  0  0  0  0  0  0  0  0  0  0
   -0.3417    0.6237    0.2853 C   0  0  0  0  0  0  0  0  0  0  0  0
    4.0915    1.0587    0.3394 H   0  0  0  0  0  0  0  0  0  0  0  0
    0.4273    0.7954   -1.6957 H   0  0  0  0  0  0  0  0  0  0  0  0
   -1.0313   -2.4325   -0.3642 H   0  0  0  0  0  0  0  0  0  0  0  0
    0.4253   -2.2960    0.6407 H   0  0  0  0  0  0  0  0  0  0  0  0
   -0.8735   -0.7666    1.8826 H   0  0  0  0  0  0  0  0  0  0  0  0
   -1.7585    1.0818   -1.3009 H   0  0  0  0  0  0  0  0  0  0  0  0
   -2.0714    1.8937    0.3471 H   0  0  0  0  0  0  0  0  0  0  0  0
    0.0844    1.2468    1.0726 H   0  0  0  0  0  0  0  0  0  0  0  0
  1  2  3  0
  2  3  1  0
  3  4  1  0
  4  5  1  0
  5  6  1  0
  6  7  1  0
  7  8  1  0
  8  9  1  0
  9  3  1  0
  9  6  1  0
  1 10  1  0
  3 11  1  0
  5 12  1  0
  5 13  1  0
  6 14  1  0
  8 15  1  0
  8 16  1  0
  9 17  1  0
M  END
