
     RDKit          3D

 14 14  0  0  0  0  0  0  0  0999 V2000
    3.3474    0.5860    0.8026 C   0  0  0  0  0  0  0  0  0  0  0  0
    2.2373    0.6734    0.3451 C   0  0  0  0  0  0  0  0  0  0  0  0
    0.9156    0.7558   -0.1854 C   0  0  0  0  0  0  0  0  0  0  0  0
    0.5054    1.8684   -0.5874 O   0  0  0  0  0  0  0  0  0  0  0  0
   -0.0366   -0.3829   -0.3056 C   0  0  0  0  0  0  0  0  0  0  0  0
   -0.9080   -0.4520   -1.3427 C   0  0  0  0  0  0  0  0  0  0  0  0
   -1.4463   -0.2815   -0.0326 C   0  0  0  0  0  0  0  0  0  0  0  0
   -2.7171   -0.0331   -0.3290 O   0  0  0  0  0  0  0  0  0  0  0  0
    4.3224    0.4910    1.2046 H   0  0  0  0  0  0  0  0  0  0  0  0
    0.4520   -1.3342    0.0869 H   0  0  0  0  0  0  0  0  0  0  0  0
   -0.8990    0.3317   -2.1625 H   0  0  0  0  0  0  0  0  0  0  0  0
   -1.1349   -1.4525   -1.8316 H   0  0  0  0  0  0  0  0  0  0  0  0
   -1.3639    0.0652    0.9867 H   0  0  0  0  0  0  0  0  0  0  0  0
   -3.2742   -0.8353   -0.4225 H   0  0  0  0  0  0  0  0  0  0  0  0
  1  2  3  0
  2  3  1  0
  3  4  2  0
  3  5  1  0
  5  6  1  0
  6  7  1  0
  7  8  1  0
  7  5  1  0
  1  9  1  0
  5 10  1  0
  6 11  1  0
  6 12  1  0
  7 13  1  0
  8 14  1  0
M  END
