
     RDKit          3D

 18 17  0  0  0  0  0  0  0  0999 V2000
   -1.0923    2.5330    1.1148 C   0  0  0  0  0  0  0  0  0  0  0  0
   -0.9465    1.5525    0.4261 C   0  0  0  0  0  0  0  0  0  0  0  0
   -0.7447    0.3627   -0.4040 C   0  0  0  0  0  0  0  0  0  0  0  0
   -1.8368   -0.6745   -0.0936 C   0  0  0  0  0  0  0  0  0  0  0  0
   -1.6260   -1.7966   -0.8931 O   0  0  0  0  0  0  0  0  0  0  0  0
    0.5642   -0.2803   -0.0433 C   0  0  0  0  0  0  0  0  0  0  0  0
    1.6517    0.5480   -0.2322 O   0  0  0  0  0  0  0  0  0  0  0  0
    2.7909   -0.1854    0.1442 C   0  0  0  0  0  0  0  0  0  0  0  0
   -1.2031    3.3928    1.7263 H   0  0  0  0  0  0  0  0  0  0  0  0
   -0.7883    0.6835   -1.4457 H   0  0  0  0  0  0  0  0  0  0  0  0
   -2.8316   -0.2056   -0.3302 H   0  0  0  0  0  0  0  0  0  0  0  0
   -1.8520   -0.9276    0.9682 H   0  0  0  0  0  0  0  0  0  0  0  0
   -2.5144   -2.0813   -1.2297 H   0  0  0  0  0  0  0  0  0  0  0  0
    0.6756   -1.2126   -0.6639 H   0  0  0  0  0  0  0  0  0  0  0  0
    0.5023   -0.6097    1.0135 H   0  0  0  0  0  0  0  0  0  0  0  0
    3.6728    0.4705   -0.0034 H   0  0  0  0  0  0  0  0  0  0  0  0
    2.7145   -0.4461    1.2398 H   0  0  0  0  0  0  0  0  0  0  0  0
    2.8637   -1.1231   -0.4493 H   0  0  0  0  0  0  0  0  0  0  0  0
  1  2  3  0
  2  3  1  0
  3  4  1  0
  4  5  1  0
  3  6  1  0
  6  7  1  0
  7  8  1  0
  1  9  1  0
  3 10  1  0
  4 11  1  0
  4 12  1  0
  5 13  1  0
  6 14  1  0
  6 15  1  0
  8 16  1  0
  8 17  1  0
  8 18  1  0
M  END
