
     RDKit          3D

 19 20  0  0  0  0  0  0  0  0999 V2000
    1.5866   -3.2199   -1.2146 C   0  0  0  0  0  0  0  0  0  0  0  0
    1.1749   -2.0760   -0.9475 C   0  0  0  0  0  0  0  0  0  0  0  0
    0.6947   -0.7364   -0.6602 C   0  0  0  0  0  0  0  0  0  0  0  0
    0.5308   -0.3283    0.7530 C   0  0  0  0  0  0  0  0  0  0  0  0
    0.7248    1.0561    1.2369 C   0  0  0  0  0  0  0  0  0  0  0  0
   -0.1785    2.0661    0.6792 C   0  0  0  0  0  0  0  0  0  0  0  0
   -1.2069    1.7609   -0.0918 C   0  0  0  0  0  0  0  0  0  0  0  0
   -1.5678    0.3751   -0.4813 C   0  0  0  0  0  0  0  0  0  0  0  0
   -0.6741   -0.6734    0.0448 C   0  0  0  0  0  0  0  0  0  0  0  0
    1.9190   -4.1903   -1.4317 H   0  0  0  0  0  0  0  0  0  0  0  0
    0.8932    0.0224   -1.4675 H   0  0  0  0  0  0  0  0  0  0  0  0
    0.9072   -1.1006    1.4927 H   0  0  0  0  0  0  0  0  0  0  0  0
    1.7865    1.4007    1.0612 H   0  0  0  0  0  0  0  0  0  0  0  0
    0.5355    1.0623    2.3515 H   0  0  0  0  0  0  0  0  0  0  0  0
    0.0077    3.1048    0.9115 H   0  0  0  0  0  0  0  0  0  0  0  0
   -1.8381    2.5554   -0.4724 H   0  0  0  0  0  0  0  0  0  0  0  0
   -2.6336    0.2236   -0.2930 H   0  0  0  0  0  0  0  0  0  0  0  0
   -1.4701    0.3552   -1.6097 H   0  0  0  0  0  0  0  0  0  0  0  0
   -1.1916   -1.6577    0.2166 H   0  0  0  0  0  0  0  0  0  0  0  0
  1  2  3  0
  2  3  1  0
  3  4  1  0
  4  5  1  0
  5  6  1  0
  6  7  2  0
  7  8  1  0
  8  9  1  0
  9  3  1  0
  9  4  1  0
  1 10  1  0
  3 11  1  0
  4 12  1  0
  5 13  1  0
  5 14  1  0
  6 15  1  0
  7 16  1  0
  8 17  1  0
  8 18  1  0
  9 19  1  0
M  END
