
     RDKit          3D

 15 16  0  0  0  0  0  0  0  0999 V2000
    0.3458    2.8001    0.0212 C   0  0  0  0  0  0  0  0  0  0  0  0
   -0.0247    1.5878   -0.3535 C   0  0  0  0  0  0  0  0  0  0  0  0
   -0.4007    0.3367   -0.7639 C   0  0  0  0  0  0  0  0  0  0  0  0
   -0.7151   -0.7226    0.2121 C   0  0  0  0  0  0  0  0  0  0  0  0
   -0.5274   -0.3861    1.6520 C   0  0  0  0  0  0  0  0  0  0  0  0
   -0.8976    0.7594    1.9745 O   0  0  0  0  0  0  0  0  0  0  0  0
    0.3659   -1.5790   -0.3555 C   0  0  0  0  0  0  0  0  0  0  0  0
    0.6165   -1.6643   -1.7049 O   0  0  0  0  0  0  0  0  0  0  0  0
    0.8985   -0.5227   -1.0227 C   0  0  0  0  0  0  0  0  0  0  0  0
    0.6438    3.7453    0.3191 H   0  0  0  0  0  0  0  0  0  0  0  0
   -1.0554    0.3007   -1.7079 H   0  0  0  0  0  0  0  0  0  0  0  0
   -1.7172   -1.2246    0.0512 H   0  0  0  0  0  0  0  0  0  0  0  0
   -0.1173   -1.0270    2.3787 H   0  0  0  0  0  0  0  0  0  0  0  0
    0.7529   -2.3956    0.3070 H   0  0  0  0  0  0  0  0  0  0  0  0
    1.8320   -0.0080   -1.0074 H   0  0  0  0  0  0  0  0  0  0  0  0
  1  2  3  0
  2  3  1  0
  3  4  1  0
  4  5  1  0
  5  6  2  0
  4  7  1  0
  7  8  1  0
  8  9  1  0
  9  3  1  0
  9  7  1  0
  1 10  1  0
  3 11  1  0
  4 12  1  0
  5 13  1  0
  7 14  1  0
  9 15  1  0
M  END
