
     RDKit          3D

 18 17  0  0  0  0  0  0  0  0999 V2000
   -0.2805    0.9193    2.3884 C   0  0  0  0  0  0  0  0  0  0  0  0
   -0.0714    0.4336    1.2964 C   0  0  0  0  0  0  0  0  0  0  0  0
    0.1624   -0.1483   -0.0412 C   0  0  0  0  0  0  0  0  0  0  0  0
   -1.1517   -0.3958   -0.7309 C   0  0  0  0  0  0  0  0  0  0  0  0
    0.8118   -1.5203    0.1398 C   0  0  0  0  0  0  0  0  0  0  0  0
   -0.0091   -2.3822    0.8581 O   0  0  0  0  0  0  0  0  0  0  0  0
    1.0325    0.6252   -0.7516 O   0  0  0  0  0  0  0  0  0  0  0  0
    0.5984    1.9255   -0.9580 C   0  0  0  0  0  0  0  0  0  0  0  0
   -0.4727    1.3459    3.3173 H   0  0  0  0  0  0  0  0  0  0  0  0
   -1.8446    0.4100   -0.4070 H   0  0  0  0  0  0  0  0  0  0  0  0
   -1.0891   -0.3636   -1.8268 H   0  0  0  0  0  0  0  0  0  0  0  0
   -1.5682   -1.3671   -0.4089 H   0  0  0  0  0  0  0  0  0  0  0  0
    1.0965   -1.9213   -0.8307 H   0  0  0  0  0  0  0  0  0  0  0  0
    1.7517   -1.3556    0.7303 H   0  0  0  0  0  0  0  0  0  0  0  0
   -0.3993   -3.0782    0.2417 H   0  0  0  0  0  0  0  0  0  0  0  0
   -0.3695    1.9681   -1.5249 H   0  0  0  0  0  0  0  0  0  0  0  0
    1.3272    2.5141   -1.5344 H   0  0  0  0  0  0  0  0  0  0  0  0
    0.4756    2.3908    0.0425 H   0  0  0  0  0  0  0  0  0  0  0  0
  1  2  3  0
  2  3  1  0
  3  4  1  0
  3  5  1  0
  5  6  1  0
  3  7  1  0
  7  8  1  0
  1  9  1  0
  4 10  1  0
  4 11  1  0
  4 12  1  0
  5 13  1  0
  5 14  1  0
  6 15  1  0
  8 16  1  0
  8 17  1  0
  8 18  1  0
M  END
