
     RDKit          3D

 17 18  0  0  0  0  0  0  0  0999 V2000
    2.9771   -0.5076    0.6728 C   0  0  0  0  0  0  0  0  0  0  0  0
    1.8593   -0.1982    0.3526 C   0  0  0  0  0  0  0  0  0  0  0  0
    0.5732    0.1395   -0.0311 C   0  0  0  0  0  0  0  0  0  0  0  0
    0.2387    1.4683   -0.5515 C   0  0  0  0  0  0  0  0  0  0  0  0
   -1.0955    1.3741   -0.7814 C   0  0  0  0  0  0  0  0  0  0  0  0
   -1.3939   -0.0064   -0.3593 C   0  0  0  0  0  0  0  0  0  0  0  0
   -0.2083   -0.7681   -0.9705 C   0  0  0  0  0  0  0  0  0  0  0  0
   -0.5854   -0.1030    0.9423 C   0  0  0  0  0  0  0  0  0  0  0  0
   -0.6065   -1.3683    1.4887 O   0  0  0  0  0  0  0  0  0  0  0  0
    3.9732   -0.8021    0.9650 H   0  0  0  0  0  0  0  0  0  0  0  0
    0.9025    2.3069   -0.7080 H   0  0  0  0  0  0  0  0  0  0  0  0
   -1.6973    2.1743   -1.1787 H   0  0  0  0  0  0  0  0  0  0  0  0
   -2.3489   -0.4235   -0.4033 H   0  0  0  0  0  0  0  0  0  0  0  0
   -0.1774   -1.8303   -0.7040 H   0  0  0  0  0  0  0  0  0  0  0  0
   -0.0530   -0.5740   -2.0358 H   0  0  0  0  0  0  0  0  0  0  0  0
   -0.7979    0.7303    1.6216 H   0  0  0  0  0  0  0  0  0  0  0  0
   -1.5597   -1.6119    1.6804 H   0  0  0  0  0  0  0  0  0  0  0  0
  1  2  3  0
  2  3  1  0
  3  4  1  0
  4  5  2  0
  5  6  1  0
  6  7  1  0
  6  8  1  0
  8  9  1  0
  7  3  1  0
  8  3  1  0
  1 10  1  0
  4 11  1  0
  5 12  1  0
  6 13  1  0
  7 14  1  0
  7 15  1  0
  8 16  1  0
  9 17  1  0
M  END
