
     RDKit          3D

 13 13  0  0  0  0  0  0  0  0999 V2000
    2.8213    0.2814   -1.6481 C   0  0  0  0  0  0  0  0  0  0  0  0
    1.7559    0.2239   -1.0898 C   0  0  0  0  0  0  0  0  0  0  0  0
    0.4884    0.1572   -0.3998 C   0  0  0  0  0  0  0  0  0  0  0  0
    0.5992    0.3860    0.9910 O   0  0  0  0  0  0  0  0  0  0  0  0
   -0.5241   -0.4678    1.1106 C   0  0  0  0  0  0  0  0  0  0  0  0
   -1.7265    0.3393    0.8103 C   0  0  0  0  0  0  0  0  0  0  0  0
   -2.7156    0.9781    0.5660 C   0  0  0  0  0  0  0  0  0  0  0  0
    0.0081   -1.1981   -0.0595 C   0  0  0  0  0  0  0  0  0  0  0  0
    0.0260   -2.3198   -0.4888 O   0  0  0  0  0  0  0  0  0  0  0  0
    3.7720    0.3515   -2.1494 H   0  0  0  0  0  0  0  0  0  0  0  0
   -0.3353    0.7348   -0.8718 H   0  0  0  0  0  0  0  0  0  0  0  0
   -0.5650   -1.0163    2.0614 H   0  0  0  0  0  0  0  0  0  0  0  0
   -3.6043    1.5497    0.3655 H   0  0  0  0  0  0  0  0  0  0  0  0
  1  2  3  0
  2  3  1  0
  3  4  1  0
  4  5  1  0
  5  6  1  0
  6  7  3  0
  5  8  1  0
  8  9  2  0
  8  3  1  0
  1 10  1  0
  3 11  1  0
  5 12  1  0
  7 13  1  0
M  END
