
     RDKit          3D

 21 21  0  0  0  0  0  0  0  0999 V2000
    2.7625   -0.5886    0.9083 C   0  0  0  0  0  0  0  0  0  0  0  0
    1.7027   -0.6661    0.3057 C   0  0  0  0  0  0  0  0  0  0  0  0
    0.4201   -0.7717   -0.3981 C   0  0  0  0  0  0  0  0  0  0  0  0
    0.6087   -1.5379   -1.5632 O   0  0  0  0  0  0  0  0  0  0  0  0
   -0.6020   -1.4312    0.4682 C   0  0  0  0  0  0  0  0  0  0  0  0
   -1.6808   -0.4095    0.7553 C   0  0  0  0  0  0  0  0  0  0  0  0
   -1.5034    0.6857   -0.2675 C   0  0  0  0  0  0  0  0  0  0  0  0
   -0.0725    0.6031   -0.7433 C   0  0  0  0  0  0  0  0  0  0  0  0
    0.7020    1.6906   -0.0207 C   0  0  0  0  0  0  0  0  0  0  0  0
    3.6850   -0.5051    1.4229 H   0  0  0  0  0  0  0  0  0  0  0  0
    0.7744   -0.9632   -2.3405 H   0  0  0  0  0  0  0  0  0  0  0  0
   -1.0868   -2.3055   -0.0364 H   0  0  0  0  0  0  0  0  0  0  0  0
   -0.1393   -1.8309    1.3946 H   0  0  0  0  0  0  0  0  0  0  0  0
   -2.6942   -0.8253    0.7010 H   0  0  0  0  0  0  0  0  0  0  0  0
   -1.5253    0.0081    1.7703 H   0  0  0  0  0  0  0  0  0  0  0  0
   -2.1972    0.5088   -1.1154 H   0  0  0  0  0  0  0  0  0  0  0  0
   -1.7537    1.6740    0.1502 H   0  0  0  0  0  0  0  0  0  0  0  0
    0.0382    0.7833   -1.8257 H   0  0  0  0  0  0  0  0  0  0  0  0
    1.5798    1.9442   -0.6445 H   0  0  0  0  0  0  0  0  0  0  0  0
   -0.0091    2.5568    0.0823 H   0  0  0  0  0  0  0  0  0  0  0  0
    0.9908    1.3802    0.9965 H   0  0  0  0  0  0  0  0  0  0  0  0
  1  2  3  0
  2  3  1  0
  3  4  1  0
  3  5  1  0
  5  6  1  0
  6  7  1  0
  7  8  1  0
  8  9  1  0
  8  3  1  0
  1 10  1  0
  4 11  1  0
  5 12  1  0
  5 13  1  0
  6 14  1  0
  6 15  1  0
  7 16  1  0
  7 17  1  0
  8 18  1  0
  9 19  1  0
  9 20  1  0
  9 21  1  0
M  END
