
     RDKit          3D

 14 14  0  0  0  0  0  0  0  0999 V2000
   -0.4798    1.8705   -1.7854 C   0  0  0  0  0  0  0  0  0  0  0  0
   -0.3392    1.0640   -0.9463 C   0  0  0  0  0  0  0  0  0  0  0  0
   -0.1813    0.0550    0.1279 C   0  0  0  0  0  0  0  0  0  0  0  0
    0.8453    0.4410    0.7450 C   0  0  0  0  0  0  0  0  0  0  0  0
    2.0885    0.9168    1.5235 C   0  0  0  0  0  0  0  0  0  0  0  0
   -0.0027   -1.3548   -0.6323 C   0  0  0  0  0  0  0  0  0  0  0  0
   -1.3871   -1.4820   -0.4422 O   0  0  0  0  0  0  0  0  0  0  0  0
   -1.2379   -0.7339    0.7515 C   0  0  0  0  0  0  0  0  0  0  0  0
   -0.6417    2.7488   -2.6874 H   0  0  0  0  0  0  0  0  0  0  0  0
    3.1503    1.3071    2.1755 H   0  0  0  0  0  0  0  0  0  0  0  0
    0.3996   -1.3186   -1.6116 H   0  0  0  0  0  0  0  0  0  0  0  0
    0.5514   -1.9795    0.1038 H   0  0  0  0  0  0  0  0  0  0  0  0
   -2.0421   -0.1245    1.1459 H   0  0  0  0  0  0  0  0  0  0  0  0
   -0.7233   -1.4100    1.5320 H   0  0  0  0  0  0  0  0  0  0  0  0
  1  2  3  0
  2  3  1  0
  3  4  1  0
  4  5  3  0
  3  6  1  0
  6  7  1  0
  7  8  1  0
  8  3  1  0
  1  9  1  0
  5 10  1  0
  6 11  1  0
  6 12  1  0
  8 13  1  0
  8 14  1  0
M  END
