
     RDKit          3D

 19 19  0  0  0  0  0  0  0  0999 V2000
   -1.7178    1.1752    1.9439 C   0  0  0  0  0  0  0  0  0  0  0  0
   -1.2158    0.6275    0.9058 C   0  0  0  0  0  0  0  0  0  0  0  0
   -0.7174    0.0603   -0.1619 C   0  0  0  0  0  0  0  0  0  0  0  0
   -1.5342   -1.2604   -0.6370 C   0  0  0  0  0  0  0  0  0  0  0  0
    0.0116    0.6355   -1.2885 C   0  0  0  0  0  0  0  0  0  0  0  0
    0.8040   -0.0345   -0.2325 C   0  0  0  0  0  0  0  0  0  0  0  0
    1.6894    1.0113    0.5375 C   0  0  0  0  0  0  0  0  0  0  0  0
    1.3415   -1.3867   -0.1177 C   0  0  0  0  0  0  0  0  0  0  0  0
    0.5874   -2.2171    0.5523 O   0  0  0  0  0  0  0  0  0  0  0  0
   -2.2191    1.7358    2.9840 H   0  0  0  0  0  0  0  0  0  0  0  0
   -2.2274   -0.8096   -1.4108 H   0  0  0  0  0  0  0  0  0  0  0  0
   -2.1027   -1.4975    0.2203 H   0  0  0  0  0  0  0  0  0  0  0  0
   -0.8763   -1.9786   -1.0305 H   0  0  0  0  0  0  0  0  0  0  0  0
    0.0991    1.7594   -1.3827 H   0  0  0  0  0  0  0  0  0  0  0  0
   -0.0519    0.2382   -2.2879 H   0  0  0  0  0  0  0  0  0  0  0  0
    1.8474    0.7381    1.5521 H   0  0  0  0  0  0  0  0  0  0  0  0
    2.7129    0.9098   -0.0050 H   0  0  0  0  0  0  0  0  0  0  0  0
    1.3278    1.9955    0.3774 H   0  0  0  0  0  0  0  0  0  0  0  0
    2.2417   -1.7023   -0.5188 H   0  0  0  0  0  0  0  0  0  0  0  0
  1  2  3  0
  2  3  1  0
  3  4  1  0
  3  5  1  0
  5  6  1  0
  6  7  1  0
  6  8  1  0
  8  9  2  0
  6  3  1  0
  1 10  1  0
  4 11  1  0
  4 12  1  0
  4 13  1  0
  5 14  1  0
  5 15  1  0
  7 16  1  0
  7 17  1  0
  7 18  1  0
  8 19  1  0
M  END
