
     RDKit          3D

 15 16  0  0  0  0  0  0  0  0999 V2000
    2.9422   -1.1020    0.4863 C   0  0  0  0  0  0  0  0  0  0  0  0
    1.7304   -1.0621    0.4632 C   0  0  0  0  0  0  0  0  0  0  0  0
    0.2532   -0.9882    0.4306 C   0  0  0  0  0  0  0  0  0  0  0  0
   -0.4007    0.1681    0.8908 C   0  0  0  0  0  0  0  0  0  0  0  0
   -1.6619    0.6668    0.7965 O   0  0  0  0  0  0  0  0  0  0  0  0
   -1.5150    1.6334   -0.2329 C   0  0  0  0  0  0  0  0  0  0  0  0
   -0.3693    1.0988   -1.0752 C   0  0  0  0  0  0  0  0  0  0  0  0
    0.2888    1.7044   -1.8661 O   0  0  0  0  0  0  0  0  0  0  0  0
   -0.3493   -0.2963   -0.6238 C   0  0  0  0  0  0  0  0  0  0  0  0
    4.0085   -1.1557    0.5073 H   0  0  0  0  0  0  0  0  0  0  0  0
   -0.1658   -1.9812    0.7722 H   0  0  0  0  0  0  0  0  0  0  0  0
    0.2966    1.0190    1.1636 H   0  0  0  0  0  0  0  0  0  0  0  0
   -1.3108    2.6260    0.1530 H   0  0  0  0  0  0  0  0  0  0  0  0
   -2.4304    1.5731   -0.8587 H   0  0  0  0  0  0  0  0  0  0  0  0
   -1.3164   -0.7618   -1.0069 H   0  0  0  0  0  0  0  0  0  0  0  0
  1  2  3  0
  2  3  1  0
  3  4  1  0
  4  5  1  0
  5  6  1  0
  6  7  1  0
  7  8  2  0
  7  9  1  0
  9  3  1  0
  9  4  1  0
  1 10  1  0
  3 11  1  0
  4 12  1  0
  6 13  1  0
  6 14  1  0
  9 15  1  0
M  END
