
     RDKit          3D

 19 20  0  0  0  0  0  0  0  0999 V2000
    2.8967   -0.5453   -0.2629 C   0  0  0  0  0  0  0  0  0  0  0  0
    1.7238   -0.3758   -0.5400 C   0  0  0  0  0  0  0  0  0  0  0  0
    0.3389   -0.1793   -0.8915 C   0  0  0  0  0  0  0  0  0  0  0  0
   -0.6188   -1.2521   -0.3538 C   0  0  0  0  0  0  0  0  0  0  0  0
   -1.9364   -0.6268   -0.6995 C   0  0  0  0  0  0  0  0  0  0  0  0
   -1.7163    0.6857   -0.2050 O   0  0  0  0  0  0  0  0  0  0  0  0
   -0.3968    0.6639    0.1639 C   0  0  0  0  0  0  0  0  0  0  0  0
    0.2703    1.8360    0.6788 C   0  0  0  0  0  0  0  0  0  0  0  0
   -0.3271   -0.6280    0.9950 C   0  0  0  0  0  0  0  0  0  0  0  0
    3.9149   -0.7021   -0.0058 H   0  0  0  0  0  0  0  0  0  0  0  0
    0.1232    0.1077   -1.9212 H   0  0  0  0  0  0  0  0  0  0  0  0
   -0.4070   -2.2600   -0.5372 H   0  0  0  0  0  0  0  0  0  0  0  0
   -2.7992   -1.0998   -0.2400 H   0  0  0  0  0  0  0  0  0  0  0  0
   -2.0053   -0.5170   -1.7987 H   0  0  0  0  0  0  0  0  0  0  0  0
    1.3642    1.8208    0.4661 H   0  0  0  0  0  0  0  0  0  0  0  0
   -0.2061    2.7655    0.3002 H   0  0  0  0  0  0  0  0  0  0  0  0
    0.1912    1.8938    1.8002 H   0  0  0  0  0  0  0  0  0  0  0  0
   -1.1154   -0.7203    1.7434 H   0  0  0  0  0  0  0  0  0  0  0  0
    0.7052   -0.8671    1.3078 H   0  0  0  0  0  0  0  0  0  0  0  0
  1  2  3  0
  2  3  1  0
  3  4  1  0
  4  5  1  0
  5  6  1  0
  6  7  1  0
  7  8  1  0
  7  9  1  0
  7  3  1  0
  9  4  1  0
  1 10  1  0
  3 11  1  0
  4 12  1  0
  5 13  1  0
  5 14  1  0
  8 15  1  0
  8 16  1  0
  8 17  1  0
  9 18  1  0
  9 19  1  0
M  END
