
     RDKit          3D

 17 16  0  0  0  0  0  0  0  0999 V2000
   -4.1489    0.2877   -0.4478 C   0  0  0  0  0  0  0  0  0  0  0  0
   -3.3257   -0.0965   -0.2037 C   0  0  0  0  0  0  0  0  0  0  0  0
   -2.0257   -0.7020    0.1634 C   0  0  0  0  0  0  0  0  0  0  0  0
   -0.9737    0.0824   -0.4854 C   0  0  0  0  0  0  0  0  0  0  0  0
    0.1354    0.2637    0.2637 C   0  0  0  0  0  0  0  0  0  0  0  0
   -0.2597    0.6422    1.5747 O   0  0  0  0  0  0  0  0  0  0  0  0
    1.4677    0.1942    0.2561 C   0  0  0  0  0  0  0  0  0  0  0  0
    2.7761    0.1408    0.2639 C   0  0  0  0  0  0  0  0  0  0  0  0
    4.1886    0.0584    0.2721 C   0  0  0  0  0  0  0  0  0  0  0  0
   -5.4316    0.8829   -0.8197 H   0  0  0  0  0  0  0  0  0  0  0  0
   -1.8383   -0.4718    1.2495 H   0  0  0  0  0  0  0  0  0  0  0  0
   -1.9622   -1.8003    0.0029 H   0  0  0  0  0  0  0  0  0  0  0  0
   -1.5477    0.9883   -0.9123 H   0  0  0  0  0  0  0  0  0  0  0  0
   -0.7222   -0.4331   -1.5086 H   0  0  0  0  0  0  0  0  0  0  0  0
    4.5591    1.0423    0.1017 H   0  0  0  0  0  0  0  0  0  0  0  0
    4.5341   -0.4582    1.2341 H   0  0  0  0  0  0  0  0  0  0  0  0
    4.5747   -0.6207   -0.5495 H   0  0  0  0  0  0  0  0  0  0  0  0
  1  2  3  0
  2  3  1  0
  3  4  1  0
  4  5  1  0
  5  6  2  0
  5  7  1  0
  7  8  3  0
  8  9  1  0
  1 10  1  0
  3 11  1  0
  3 12  1  0
  4 13  1  0
  4 14  1  0
  9 15  1  0
  9 16  1  0
  9 17  1  0
M  END
