
     RDKit          3D

 15 14  0  0  0  0  0  0  0  0999 V2000
    3.5748   -0.8486    0.7470 C   0  0  0  0  0  0  0  0  0  0  0  0
    2.5373   -0.5831    0.1195 C   0  0  0  0  0  0  0  0  0  0  0  0
    1.3494   -0.2631   -0.6005 C   0  0  0  0  0  0  0  0  0  0  0  0
    1.2979   -0.5027   -1.8194 O   0  0  0  0  0  0  0  0  0  0  0  0
    0.2402    0.3263    0.1052 C   0  0  0  0  0  0  0  0  0  0  0  0
    0.4062    0.5818    1.3615 O   0  0  0  0  0  0  0  0  0  0  0  0
   -1.0850    0.6829   -0.4152 C   0  0  0  0  0  0  0  0  0  0  0  0
   -2.1615    0.0524    0.4887 C   0  0  0  0  0  0  0  0  0  0  0  0
   -1.3355    0.4425   -1.7263 O   0  0  0  0  0  0  0  0  0  0  0  0
    4.4663   -1.0614    1.2724 H   0  0  0  0  0  0  0  0  0  0  0  0
   -1.1956    1.8011   -0.2507 H   0  0  0  0  0  0  0  0  0  0  0  0
   -1.6578   -0.2381    1.4653 H   0  0  0  0  0  0  0  0  0  0  0  0
   -2.5343   -0.8305   -0.0564 H   0  0  0  0  0  0  0  0  0  0  0  0
   -2.9788    0.7656    0.6633 H   0  0  0  0  0  0  0  0  0  0  0  0
   -0.9238   -0.3252   -2.1303 H   0  0  0  0  0  0  0  0  0  0  0  0
  1  2  3  0
  2  3  1  0
  3  4  2  0
  3  5  1  0
  5  6  2  0
  5  7  1  0
  7  8  1  0
  7  9  1  0
  1 10  1  0
  7 11  1  0
  8 12  1  0
  8 13  1  0
  8 14  1  0
  9 15  1  0
M  END
