
     RDKit          3D

 21 20  0  0  0  0  0  0  0  0999 V2000
   -3.4315    0.0843    1.4407 C   0  0  0  0  0  0  0  0  0  0  0  0
   -2.5518    0.1619    0.5566 C   0  0  0  0  0  0  0  0  0  0  0  0
   -1.4732    0.2837   -0.5377 C   0  0  0  0  0  0  0  0  0  0  0  0
   -0.3026    0.6701    0.1263 C   0  0  0  0  0  0  0  0  0  0  0  0
    0.7546    1.0405    0.7355 C   0  0  0  0  0  0  0  0  0  0  0  0
    1.9848    1.4986    1.4549 C   0  0  0  0  0  0  0  0  0  0  0  0
    3.1591    0.9012    0.7857 C   0  0  0  0  0  0  0  0  0  0  0  0
   -1.4220   -1.2103   -0.9435 C   0  0  0  0  0  0  0  0  0  0  0  0
   -0.6081   -1.5665   -2.1018 C   0  0  0  0  0  0  0  0  0  0  0  0
   -4.1688    0.0348    2.1935 H   0  0  0  0  0  0  0  0  0  0  0  0
   -1.8315    0.8985   -1.3334 H   0  0  0  0  0  0  0  0  0  0  0  0
    1.9848    2.5766    1.6233 H   0  0  0  0  0  0  0  0  0  0  0  0
    1.9504    0.9955    2.4989 H   0  0  0  0  0  0  0  0  0  0  0  0
    4.0317    1.6403    0.8184 H   0  0  0  0  0  0  0  0  0  0  0  0
    3.5248   -0.0645    1.2656 H   0  0  0  0  0  0  0  0  0  0  0  0
    2.9660    0.5990   -0.2672 H   0  0  0  0  0  0  0  0  0  0  0  0
   -2.4095   -1.7019   -0.8412 H   0  0  0  0  0  0  0  0  0  0  0  0
   -0.8676   -1.6910   -0.0256 H   0  0  0  0  0  0  0  0  0  0  0  0
   -0.0560   -2.5558   -1.9918 H   0  0  0  0  0  0  0  0  0  0  0  0
   -1.3197   -1.7911   -2.9932 H   0  0  0  0  0  0  0  0  0  0  0  0
    0.0864   -0.8040   -2.4639 H   0  0  0  0  0  0  0  0  0  0  0  0
  1  2  3  0
  2  3  1  0
  3  4  1  0
  4  5  3  0
  5  6  1  0
  6  7  1  0
  3  8  1  0
  8  9  1  0
  1 10  1  0
  3 11  1  0
  6 12  1  0
  6 13  1  0
  7 14  1  0
  7 15  1  0
  7 16  1  0
  8 17  1  0
  8 18  1  0
  9 19  1  0
  9 20  1  0
  9 21  1  0
M  END
