
     RDKit          3D

 19 20  0  0  0  0  0  0  0  0999 V2000
   -1.0694    2.7570    0.4161 C   0  0  0  0  0  0  0  0  0  0  0  0
   -0.6522    1.6423    0.2229 C   0  0  0  0  0  0  0  0  0  0  0  0
   -0.1717    0.2993   -0.0196 C   0  0  0  0  0  0  0  0  0  0  0  0
   -1.2788   -0.6882   -0.0749 C   0  0  0  0  0  0  0  0  0  0  0  0
   -0.8242   -2.1007   -0.3256 C   0  0  0  0  0  0  0  0  0  0  0  0
    0.9059    0.2095   -1.0341 C   0  0  0  0  0  0  0  0  0  0  0  0
    1.7928    0.9583   -0.0759 C   0  0  0  0  0  0  0  0  0  0  0  0
    1.0808   -0.1008    0.6888 C   0  0  0  0  0  0  0  0  0  0  0  0
    1.3269   -0.9431   -0.3894 O   0  0  0  0  0  0  0  0  0  0  0  0
   -1.4437    3.7498    0.6072 H   0  0  0  0  0  0  0  0  0  0  0  0
   -1.8243   -0.6865    0.8922 H   0  0  0  0  0  0  0  0  0  0  0  0
   -1.9585   -0.4143   -0.9196 H   0  0  0  0  0  0  0  0  0  0  0  0
   -0.3868   -2.2436   -1.3365 H   0  0  0  0  0  0  0  0  0  0  0  0
   -0.1846   -2.5043    0.4742 H   0  0  0  0  0  0  0  0  0  0  0  0
   -1.7536   -2.7386   -0.3172 H   0  0  0  0  0  0  0  0  0  0  0  0
    0.8478    0.3576   -2.0289 H   0  0  0  0  0  0  0  0  0  0  0  0
    2.8795    0.7856   -0.1928 H   0  0  0  0  0  0  0  0  0  0  0  0
    1.5319    1.9971    0.1192 H   0  0  0  0  0  0  0  0  0  0  0  0
    1.1823   -0.3363    1.6648 H   0  0  0  0  0  0  0  0  0  0  0  0
  1  2  3  0
  2  3  1  0
  3  4  1  0
  4  5  1  0
  3  6  1  0
  6  7  1  0
  7  8  1  0
  8  9  1  0
  8  3  1  0
  9  6  1  0
  1 10  1  0
  4 11  1  0
  4 12  1  0
  5 13  1  0
  5 14  1  0
  5 15  1  0
  6 16  1  0
  7 17  1  0
  7 18  1  0
  8 19  1  0
M  END
