
     RDKit          3D

 19 19  0  0  0  0  0  0  0  0999 V2000
    2.6667   -0.8771    1.4353 C   0  0  0  0  0  0  0  0  0  0  0  0
    1.6382   -0.3404    1.1096 C   0  0  0  0  0  0  0  0  0  0  0  0
    0.3667    0.3273    0.7312 C   0  0  0  0  0  0  0  0  0  0  0  0
   -0.7922   -0.4655    1.2760 C   0  0  0  0  0  0  0  0  0  0  0  0
   -1.8466   -0.2071    0.2088 C   0  0  0  0  0  0  0  0  0  0  0  0
   -2.5169    0.9512    0.5396 O   0  0  0  0  0  0  0  0  0  0  0  0
   -1.0263   -0.0750   -1.0195 C   0  0  0  0  0  0  0  0  0  0  0  0
    0.2199    0.2250   -0.7307 C   0  0  0  0  0  0  0  0  0  0  0  0
    1.2854    0.4216   -1.7646 C   0  0  0  0  0  0  0  0  0  0  0  0
    3.5763   -1.3325    1.7281 H   0  0  0  0  0  0  0  0  0  0  0  0
    0.3693    1.3764    1.0939 H   0  0  0  0  0  0  0  0  0  0  0  0
   -1.1341   -0.0605    2.2595 H   0  0  0  0  0  0  0  0  0  0  0  0
   -0.5389   -1.5220    1.3764 H   0  0  0  0  0  0  0  0  0  0  0  0
   -2.5413   -1.0441    0.1127 H   0  0  0  0  0  0  0  0  0  0  0  0
   -3.0125    1.3435   -0.2301 H   0  0  0  0  0  0  0  0  0  0  0  0
   -1.4525   -0.2192   -2.0214 H   0  0  0  0  0  0  0  0  0  0  0  0
    1.7778    1.4142   -1.6505 H   0  0  0  0  0  0  0  0  0  0  0  0
    0.8617    0.4128   -2.7885 H   0  0  0  0  0  0  0  0  0  0  0  0
    2.0993   -0.3286   -1.6659 H   0  0  0  0  0  0  0  0  0  0  0  0
  1  2  3  0
  2  3  1  0
  3  4  1  0
  4  5  1  0
  5  6  1  0
  5  7  1  0
  7  8  2  0
  8  9  1  0
  8  3  1  0
  1 10  1  0
  3 11  1  0
  4 12  1  0
  4 13  1  0
  5 14  1  0
  6 15  1  0
  7 16  1  0
  9 17  1  0
  9 18  1  0
  9 19  1  0
M  END
