
     RDKit          3D

 20 19  0  0  0  0  0  0  0  0999 V2000
    3.7225    1.2602    0.2740 C   0  0  0  0  0  0  0  0  0  0  0  0
    2.6295    1.0191   -0.1755 C   0  0  0  0  0  0  0  0  0  0  0  0
    1.2710    0.7195   -0.7108 C   0  0  0  0  0  0  0  0  0  0  0  0
    0.6017   -0.2987    0.1677 C   0  0  0  0  0  0  0  0  0  0  0  0
   -0.7583   -0.7217   -0.2324 C   0  0  0  0  0  0  0  0  0  0  0  0
   -1.2193   -1.7614    0.8049 C   0  0  0  0  0  0  0  0  0  0  0  0
   -1.7599    0.3971   -0.1320 C   0  0  0  0  0  0  0  0  0  0  0  0
   -1.4843    1.4928   -0.9269 O   0  0  0  0  0  0  0  0  0  0  0  0
    4.6804    1.4662    0.6773 H   0  0  0  0  0  0  0  0  0  0  0  0
    1.3732    0.3380   -1.7609 H   0  0  0  0  0  0  0  0  0  0  0  0
    0.7751    1.6919   -0.7693 H   0  0  0  0  0  0  0  0  0  0  0  0
    1.3233   -1.1630    0.2394 H   0  0  0  0  0  0  0  0  0  0  0  0
    0.5649    0.1754    1.1942 H   0  0  0  0  0  0  0  0  0  0  0  0
   -0.7893   -1.1981   -1.2306 H   0  0  0  0  0  0  0  0  0  0  0  0
   -1.6990   -1.2369    1.6573 H   0  0  0  0  0  0  0  0  0  0  0  0
   -1.9441   -2.4592    0.3145 H   0  0  0  0  0  0  0  0  0  0  0  0
   -0.3432   -2.2897    1.2189 H   0  0  0  0  0  0  0  0  0  0  0  0
   -1.8166    0.6864    0.9519 H   0  0  0  0  0  0  0  0  0  0  0  0
   -2.7563   -0.0296   -0.3996 H   0  0  0  0  0  0  0  0  0  0  0  0
   -2.3715    1.9116   -1.1620 H   0  0  0  0  0  0  0  0  0  0  0  0
  1  2  3  0
  2  3  1  0
  3  4  1  0
  4  5  1  0
  5  6  1  0
  5  7  1  0
  7  8  1  0
  1  9  1  0
  3 10  1  0
  3 11  1  0
  4 12  1  0
  4 13  1  0
  5 14  1  0
  6 15  1  0
  6 16  1  0
  6 17  1  0
  7 18  1  0
  7 19  1  0
  8 20  1  0
M  END
