
     RDKit          3D

 17 17  0  0  0  0  0  0  0  0999 V2000
    2.9327   -0.2496   -0.7214 C   0  0  0  0  0  0  0  0  0  0  0  0
    1.7213   -0.3259   -0.7699 C   0  0  0  0  0  0  0  0  0  0  0  0
    0.2535   -0.4363   -0.8462 C   0  0  0  0  0  0  0  0  0  0  0  0
   -0.3473    0.8724   -1.1406 C   0  0  0  0  0  0  0  0  0  0  0  0
   -0.6394    1.5199   -0.0175 C   0  0  0  0  0  0  0  0  0  0  0  0
   -0.2538    0.6893    1.1557 C   0  0  0  0  0  0  0  0  0  0  0  0
   -0.2485   -0.7015    0.5558 C   0  0  0  0  0  0  0  0  0  0  0  0
   -1.6331   -1.2481    0.5425 C   0  0  0  0  0  0  0  0  0  0  0  0
   -2.5640   -0.6487    0.0719 O   0  0  0  0  0  0  0  0  0  0  0  0
    3.9905   -0.1950   -0.6933 H   0  0  0  0  0  0  0  0  0  0  0  0
   -0.0293   -1.1916   -1.5730 H   0  0  0  0  0  0  0  0  0  0  0  0
   -0.5314    1.2651   -2.1321 H   0  0  0  0  0  0  0  0  0  0  0  0
   -1.0873    2.4975    0.0238 H   0  0  0  0  0  0  0  0  0  0  0  0
   -0.9633    0.7906    1.9941 H   0  0  0  0  0  0  0  0  0  0  0  0
    0.7903    0.9483    1.4649 H   0  0  0  0  0  0  0  0  0  0  0  0
    0.4239   -1.3620    1.1126 H   0  0  0  0  0  0  0  0  0  0  0  0
   -1.8148   -2.2245    0.9728 H   0  0  0  0  0  0  0  0  0  0  0  0
  1  2  3  0
  2  3  1  0
  3  4  1  0
  4  5  2  0
  5  6  1  0
  6  7  1  0
  7  8  1  0
  8  9  2  0
  7  3  1  0
  1 10  1  0
  3 11  1  0
  4 12  1  0
  5 13  1  0
  6 14  1  0
  6 15  1  0
  7 16  1  0
  8 17  1  0
M  END
