
     RDKit          3D

 21 21  0  0  0  0  0  0  0  0999 V2000
    3.7053   -0.6184   -1.2482 C   0  0  0  0  0  0  0  0  0  0  0  0
    2.5436   -0.3460   -1.1866 C   0  0  0  0  0  0  0  0  0  0  0  0
    1.1151   -0.0101   -1.1188 C   0  0  0  0  0  0  0  0  0  0  0  0
    0.9393    1.3386   -0.4514 C   0  0  0  0  0  0  0  0  0  0  0  0
   -0.5445    1.3230   -0.1505 C   0  0  0  0  0  0  0  0  0  0  0  0
   -0.7525   -0.0878    0.3593 C   0  0  0  0  0  0  0  0  0  0  0  0
   -1.9946   -0.5022   -0.0985 O   0  0  0  0  0  0  0  0  0  0  0  0
   -2.8065   -0.7449    0.9970 C   0  0  0  0  0  0  0  0  0  0  0  0
    0.3714   -0.9288   -0.2071 C   0  0  0  0  0  0  0  0  0  0  0  0
    4.7529   -0.8606   -1.3126 H   0  0  0  0  0  0  0  0  0  0  0  0
    0.6968    0.0109   -2.1299 H   0  0  0  0  0  0  0  0  0  0  0  0
    1.5180    1.3689    0.4886 H   0  0  0  0  0  0  0  0  0  0  0  0
    1.2125    2.1691   -1.1335 H   0  0  0  0  0  0  0  0  0  0  0  0
   -0.8232    2.0611    0.6278 H   0  0  0  0  0  0  0  0  0  0  0  0
   -1.0822    1.5076   -1.0959 H   0  0  0  0  0  0  0  0  0  0  0  0
   -0.7523   -0.0654    1.4566 H   0  0  0  0  0  0  0  0  0  0  0  0
   -2.2897   -1.5531    1.5904 H   0  0  0  0  0  0  0  0  0  0  0  0
   -2.8617    0.1205    1.6888 H   0  0  0  0  0  0  0  0  0  0  0  0
   -3.8410   -1.0102    0.7363 H   0  0  0  0  0  0  0  0  0  0  0  0
   -0.1059   -1.7805   -0.7677 H   0  0  0  0  0  0  0  0  0  0  0  0
    0.9993   -1.3917    0.5628 H   0  0  0  0  0  0  0  0  0  0  0  0
  1  2  3  0
  2  3  1  0
  3  4  1  0
  4  5  1  0
  5  6  1  0
  6  7  1  0
  7  8  1  0
  6  9  1  0
  9  3  1  0
  1 10  1  0
  3 11  1  0
  4 12  1  0
  4 13  1  0
  5 14  1  0
  5 15  1  0
  6 16  1  0
  8 17  1  0
  8 18  1  0
  8 19  1  0
  9 20  1  0
  9 21  1  0
M  END
