
     RDKit          3D

 15 15  0  0  0  0  0  0  0  0999 V2000
    3.8644   -0.9112    0.8116 C   0  0  0  0  0  0  0  0  0  0  0  0
    2.7127   -0.9942    0.4671 C   0  0  0  0  0  0  0  0  0  0  0  0
    1.3463   -1.0724    0.0626 C   0  0  0  0  0  0  0  0  0  0  0  0
    0.8524   -2.1638   -0.3006 O   0  0  0  0  0  0  0  0  0  0  0  0
    0.4858    0.0088    0.0386 O   0  0  0  0  0  0  0  0  0  0  0  0
   -0.8221    0.0035   -0.3343 C   0  0  0  0  0  0  0  0  0  0  0  0
   -1.3789    1.0572   -1.2239 C   0  0  0  0  0  0  0  0  0  0  0  0
   -2.5995    0.8901   -0.5506 O   0  0  0  0  0  0  0  0  0  0  0  0
   -1.8361    0.6338    0.5949 C   0  0  0  0  0  0  0  0  0  0  0  0
    4.8722   -0.8247    1.1251 H   0  0  0  0  0  0  0  0  0  0  0  0
   -1.1991   -1.0015   -0.6466 H   0  0  0  0  0  0  0  0  0  0  0  0
   -1.4149    0.7598   -2.2972 H   0  0  0  0  0  0  0  0  0  0  0  0
   -1.0551    2.0873   -1.0695 H   0  0  0  0  0  0  0  0  0  0  0  0
   -2.3049   -0.0755    1.3054 H   0  0  0  0  0  0  0  0  0  0  0  0
   -1.5232    1.6028    1.0358 H   0  0  0  0  0  0  0  0  0  0  0  0
  1  2  3  0
  2  3  1  0
  3  4  2  0
  3  5  1  0
  5  6  1  0
  6  7  1  0
  7  8  1  0
  8  9  1  0
  9  6  1  0
  1 10  1  0
  6 11  1  0
  7 12  1  0
  7 13  1  0
  9 14  1  0
  9 15  1  0
M  END
