
     RDKit          3D

 19 18  0  0  0  0  0  0  0  0999 V2000
   -1.0623    1.4176    2.6387 C   0  0  0  0  0  0  0  0  0  0  0  0
   -0.9121    0.2973    1.8238 C   0  0  0  0  0  0  0  0  0  0  0  0
   -0.7544   -0.7980    1.0088 C   0  0  0  0  0  0  0  0  0  0  0  0
   -2.0766   -1.3635    0.6539 C   0  0  0  0  0  0  0  0  0  0  0  0
    0.0252   -1.8036    1.7094 O   0  0  0  0  0  0  0  0  0  0  0  0
    0.0675   -0.4676   -0.1995 C   0  0  0  0  0  0  0  0  0  0  0  0
    0.7810   -0.2005   -1.2575 C   0  0  0  0  0  0  0  0  0  0  0  0
    1.5141    0.0775   -2.3743 C   0  0  0  0  0  0  0  0  0  0  0  0
    1.9171    1.6542   -2.1733 C   0  0  0  0  0  0  0  0  0  0  0  0
   -1.2059    2.3760    3.3533 H   0  0  0  0  0  0  0  0  0  0  0  0
   -2.6918   -1.7548    1.5216 H   0  0  0  0  0  0  0  0  0  0  0  0
   -2.6486   -0.4238    0.3363 H   0  0  0  0  0  0  0  0  0  0  0  0
   -2.0521   -2.1065   -0.1261 H   0  0  0  0  0  0  0  0  0  0  0  0
   -0.5852   -2.5372    1.9215 H   0  0  0  0  0  0  0  0  0  0  0  0
    1.1154    0.0268   -3.3278 H   0  0  0  0  0  0  0  0  0  0  0  0
    2.5874   -0.3128   -2.1788 H   0  0  0  0  0  0  0  0  0  0  0  0
    1.6063    2.0137   -1.2131 H   0  0  0  0  0  0  0  0  0  0  0  0
    1.3817    2.1111   -3.0293 H   0  0  0  0  0  0  0  0  0  0  0  0
    2.9934    1.7941   -2.2407 H   0  0  0  0  0  0  0  0  0  0  0  0
  1  2  3  0
  2  3  1  0
  3  4  1  0
  3  5  1  0
  3  6  1  0
  6  7  3  0
  7  8  1  0
  8  9  1  0
  1 10  1  0
  4 11  1  0
  4 12  1  0
  4 13  1  0
  5 14  1  0
  8 15  1  0
  8 16  1  0
  9 17  1  0
  9 18  1  0
  9 19  1  0
M  END
