
     RDKit          3D

 20 20  0  0  0  0  0  0  0  0999 V2000
   -1.3897    2.2988   -0.6509 C   0  0  0  0  0  0  0  0  0  0  0  0
   -0.9682    1.1099   -0.4929 C   0  0  0  0  0  0  0  0  0  0  0  0
   -0.5358   -0.0479   -0.3452 C   0  0  0  0  0  0  0  0  0  0  0  0
   -0.8251   -0.9585   -1.6028 C   0  0  0  0  0  0  0  0  0  0  0  0
    1.0893    0.2990   -0.9764 C   0  0  0  0  0  0  0  0  0  0  0  0
   -0.0752   -0.8093    0.8208 C   0  0  0  0  0  0  0  0  0  0  0  0
    1.2303   -0.3884    1.5200 C   0  0  0  0  0  0  0  0  0  0  0  0
   -0.0447   -0.0904    2.1458 C   0  0  0  0  0  0  0  0  0  0  0  0
   -1.8195    3.4476   -0.7999 H   0  0  0  0  0  0  0  0  0  0  0  0
    0.0885   -1.3600   -2.0214 H   0  0  0  0  0  0  0  0  0  0  0  0
   -1.4295   -1.7870   -1.1878 H   0  0  0  0  0  0  0  0  0  0  0  0
   -1.4165   -0.3122   -2.3152 H   0  0  0  0  0  0  0  0  0  0  0  0
    0.7471    0.6685   -1.9462 H   0  0  0  0  0  0  0  0  0  0  0  0
    1.3215    1.0073   -0.2403 H   0  0  0  0  0  0  0  0  0  0  0  0
    1.4564   -0.7041   -1.0311 H   0  0  0  0  0  0  0  0  0  0  0  0
   -0.3839   -1.8660    0.9311 H   0  0  0  0  0  0  0  0  0  0  0  0
    1.8471    0.4336    1.2313 H   0  0  0  0  0  0  0  0  0  0  0  0
    1.8449   -1.2857    1.8013 H   0  0  0  0  0  0  0  0  0  0  0  0
   -0.3881    0.9986    2.1299 H   0  0  0  0  0  0  0  0  0  0  0  0
   -0.3488   -0.6539    3.0300 H   0  0  0  0  0  0  0  0  0  0  0  0
  1  2  3  0
  2  3  1  0
  3  4  1  0
  3  5  1  0
  3  6  1  0
  6  7  1  0
  7  8  1  0
  8  6  1  0
  1  9  1  0
  4 10  1  0
  4 11  1  0
  4 12  1  0
  5 13  1  0
  5 14  1  0
  5 15  1  0
  6 16  1  0
  7 17  1  0
  7 18  1  0
  8 19  1  0
  8 20  1  0
M  END
