
     RDKit          3D

 19 19  0  0  0  0  0  0  0  0999 V2000
   -2.7642   -1.0908    1.5821 C   0  0  0  0  0  0  0  0  0  0  0  0
   -1.7883   -0.8592    0.8233 C   0  0  0  0  0  0  0  0  0  0  0  0
   -0.6946   -0.6225   -0.0113 C   0  0  0  0  0  0  0  0  0  0  0  0
   -0.2424   -1.7557   -0.8588 C   0  0  0  0  0  0  0  0  0  0  0  0
    0.3917    0.1860    0.6441 C   0  0  0  0  0  0  0  0  0  0  0  0
   -0.1318    1.4747    0.9804 O   0  0  0  0  0  0  0  0  0  0  0  0
    0.4745    1.9550   -0.2001 C   0  0  0  0  0  0  0  0  0  0  0  0
    1.4752    0.8292   -0.0880 C   0  0  0  0  0  0  0  0  0  0  0  0
    1.9022    0.2988   -1.2725 O   0  0  0  0  0  0  0  0  0  0  0  0
   -3.6089   -1.2929    2.2474 H   0  0  0  0  0  0  0  0  0  0  0  0
   -1.1143    0.1333   -0.8369 H   0  0  0  0  0  0  0  0  0  0  0  0
    0.3406   -1.2785   -1.7321 H   0  0  0  0  0  0  0  0  0  0  0  0
   -1.0785   -2.2935   -1.3488 H   0  0  0  0  0  0  0  0  0  0  0  0
    0.4846   -2.3762   -0.3314 H   0  0  0  0  0  0  0  0  0  0  0  0
    0.7694   -0.2982    1.5873 H   0  0  0  0  0  0  0  0  0  0  0  0
    0.9021    2.9753   -0.0814 H   0  0  0  0  0  0  0  0  0  0  0  0
   -0.1568    1.8902   -1.0786 H   0  0  0  0  0  0  0  0  0  0  0  0
    2.2947    1.1817    0.5847 H   0  0  0  0  0  0  0  0  0  0  0  0
    2.5448    0.9433   -1.7049 H   0  0  0  0  0  0  0  0  0  0  0  0
  1  2  3  0
  2  3  1  0
  3  4  1  0
  3  5  1  0
  5  6  1  0
  6  7  1  0
  7  8  1  0
  8  9  1  0
  8  5  1  0
  1 10  1  0
  3 11  1  0
  4 12  1  0
  4 13  1  0
  4 14  1  0
  5 15  1  0
  7 16  1  0
  7 17  1  0
  8 18  1  0
  9 19  1  0
M  END
