
     RDKit          3D

 15 16  0  0  0  0  0  0  0  0999 V2000
    2.7274    1.4691   -0.6308 C   0  0  0  0  0  0  0  0  0  0  0  0
    1.9067    0.6367   -0.3222 C   0  0  0  0  0  0  0  0  0  0  0  0
    0.9052   -0.3816    0.0815 C   0  0  0  0  0  0  0  0  0  0  0  0
    1.5610   -1.5935    0.4077 O   0  0  0  0  0  0  0  0  0  0  0  0
   -0.1843    0.0536    0.8494 C   0  0  0  0  0  0  0  0  0  0  0  0
   -1.2226    0.9196    0.6624 O   0  0  0  0  0  0  0  0  0  0  0  0
   -2.2161    0.0298    0.1783 C   0  0  0  0  0  0  0  0  0  0  0  0
   -1.5165   -1.0580   -0.4005 O   0  0  0  0  0  0  0  0  0  0  0  0
   -0.3035   -0.4961   -0.6332 C   0  0  0  0  0  0  0  0  0  0  0  0
    3.4426    2.2203   -0.9097 H   0  0  0  0  0  0  0  0  0  0  0  0
    1.4748   -1.6429    1.4107 H   0  0  0  0  0  0  0  0  0  0  0  0
   -0.5143   -0.6812    1.6529 H   0  0  0  0  0  0  0  0  0  0  0  0
   -2.8353   -0.3634    0.9929 H   0  0  0  0  0  0  0  0  0  0  0  0
   -2.7794    0.5858   -0.5904 H   0  0  0  0  0  0  0  0  0  0  0  0
   -0.4457    0.3019   -1.4301 H   0  0  0  0  0  0  0  0  0  0  0  0
  1  2  3  0
  2  3  1  0
  3  4  1  0
  3  5  1  0
  5  6  1  0
  6  7  1  0
  7  8  1  0
  8  9  1  0
  9  3  1  0
  9  5  1  0
  1 10  1  0
  4 11  1  0
  5 12  1  0
  7 13  1  0
  7 14  1  0
  9 15  1  0
M  END
