
     RDKit          3D

 14 14  0  0  0  0  0  0  0  0999 V2000
    2.7116    1.1550   -2.1986 C   0  0  0  0  0  0  0  0  0  0  0  0
    1.8802    0.5777   -1.5560 C   0  0  0  0  0  0  0  0  0  0  0  0
    1.0449   -0.0171   -0.8838 C   0  0  0  0  0  0  0  0  0  0  0  0
    1.3946   -1.1754   -0.2439 O   0  0  0  0  0  0  0  0  0  0  0  0
   -0.4740    0.3171   -0.5127 C   0  0  0  0  0  0  0  0  0  0  0  0
   -0.7857   -0.5487    0.6605 C   0  0  0  0  0  0  0  0  0  0  0  0
   -1.9716   -0.7436    1.4278 C   0  0  0  0  0  0  0  0  0  0  0  0
   -1.2356    0.3479    1.8045 O   0  0  0  0  0  0  0  0  0  0  0  0
    3.6168    1.8113   -2.9034 H   0  0  0  0  0  0  0  0  0  0  0  0
   -1.0026    0.0858   -1.3675 H   0  0  0  0  0  0  0  0  0  0  0  0
   -0.3390    1.3830   -0.1566 H   0  0  0  0  0  0  0  0  0  0  0  0
    0.1412   -1.1073    1.0826 H   0  0  0  0  0  0  0  0  0  0  0  0
   -1.9815   -1.6407    2.1348 H   0  0  0  0  0  0  0  0  0  0  0  0
   -2.9993   -0.4450    1.1018 H   0  0  0  0  0  0  0  0  0  0  0  0
  1  2  3  0
  2  3  1  0
  3  4  2  0
  3  5  1  0
  5  6  1  0
  6  7  1  0
  7  8  1  0
  8  6  1  0
  1  9  1  0
  5 10  1  0
  5 11  1  0
  6 12  1  0
  7 13  1  0
  7 14  1  0
M  END
