
     RDKit          3D

 23 23  0  0  0  0  0  0  0  0999 V2000
   -1.4784    2.7312   -0.0340 C   0  0  0  0  0  0  0  0  0  0  0  0
   -1.4457    1.6017   -0.1984 C   0  0  0  0  0  0  0  0  0  0  0  0
   -1.3865    0.1483   -0.4008 C   0  0  0  0  0  0  0  0  0  0  0  0
   -2.1303   -0.4956    0.7747 C   0  0  0  0  0  0  0  0  0  0  0  0
    0.0871   -0.2537   -0.3653 C   0  0  0  0  0  0  0  0  0  0  0  0
    0.7388    0.0440    0.9323 C   0  0  0  0  0  0  0  0  0  0  0  0
    2.2249   -0.2605    0.9788 C   0  0  0  0  0  0  0  0  0  0  0  0
    0.9032   -0.0499   -1.6247 C   0  0  0  0  0  0  0  0  0  0  0  0
    0.4871   -1.4071   -1.2228 C   0  0  0  0  0  0  0  0  0  0  0  0
   -1.5272    3.9009    0.1463 H   0  0  0  0  0  0  0  0  0  0  0  0
   -1.9155   -0.1014   -1.2918 H   0  0  0  0  0  0  0  0  0  0  0  0
   -3.2052   -0.5885    0.5676 H   0  0  0  0  0  0  0  0  0  0  0  0
   -1.7533   -1.5692    0.7951 H   0  0  0  0  0  0  0  0  0  0  0  0
   -1.8477   -0.0634    1.7341 H   0  0  0  0  0  0  0  0  0  0  0  0
    0.2943   -0.6317    1.7440 H   0  0  0  0  0  0  0  0  0  0  0  0
    0.5743    1.0899    1.2264 H   0  0  0  0  0  0  0  0  0  0  0  0
    2.7175    0.7101    0.6269 H   0  0  0  0  0  0  0  0  0  0  0  0
    2.5594   -1.0259    0.2788 H   0  0  0  0  0  0  0  0  0  0  0  0
    2.5464   -0.3461    2.0249 H   0  0  0  0  0  0  0  0  0  0  0  0
    0.5204    0.3775   -2.5350 H   0  0  0  0  0  0  0  0  0  0  0  0
    1.9889    0.2195   -1.4772 H   0  0  0  0  0  0  0  0  0  0  0  0
   -0.1810   -1.9533   -1.9167 H   0  0  0  0  0  0  0  0  0  0  0  0
    1.2283   -2.0770   -0.7634 H   0  0  0  0  0  0  0  0  0  0  0  0
  1  2  3  0
  2  3  1  0
  3  4  1  0
  3  5  1  0
  5  6  1  0
  6  7  1  0
  5  8  1  0
  8  9  1  0
  9  5  1  0
  1 10  1  0
  3 11  1  0
  4 12  1  0
  4 13  1  0
  4 14  1  0
  6 15  1  0
  6 16  1  0
  7 17  1  0
  7 18  1  0
  7 19  1  0
  8 20  1  0
  8 21  1  0
  9 22  1  0
  9 23  1  0
M  END
