
     RDKit          3D

 21 21  0  0  0  0  0  0  0  0999 V2000
   -0.3139    3.2838    0.6703 C   0  0  0  0  0  0  0  0  0  0  0  0
   -0.2976    1.7457    0.7387 C   0  0  0  0  0  0  0  0  0  0  0  0
   -0.2793    0.5202    0.8122 C   0  0  0  0  0  0  0  0  0  0  0  0
    0.2086   -0.2223   -0.4881 C   0  0  0  0  0  0  0  0  0  0  0  0
   -0.8871    0.1012   -1.6066 C   0  0  0  0  0  0  0  0  0  0  0  0
    0.5980   -1.4753   -0.4523 O   0  0  0  0  0  0  0  0  0  0  0  0
    1.8588   -1.6257   -1.1891 C   0  0  0  0  0  0  0  0  0  0  0  0
   -0.0372   -0.2555    2.0810 C   0  0  0  0  0  0  0  0  0  0  0  0
   -1.3954   -0.4240    1.4570 C   0  0  0  0  0  0  0  0  0  0  0  0
   -0.3137    4.1538    0.6195 H   0  0  0  0  0  0  0  0  0  0  0  0
    1.0357    0.4116   -0.9550 H   0  0  0  0  0  0  0  0  0  0  0  0
   -1.7320   -0.5408   -1.3856 H   0  0  0  0  0  0  0  0  0  0  0  0
   -0.9880    1.1685   -1.5091 H   0  0  0  0  0  0  0  0  0  0  0  0
   -0.4249   -0.1794   -2.5652 H   0  0  0  0  0  0  0  0  0  0  0  0
    1.5904   -1.1971   -2.2254 H   0  0  0  0  0  0  0  0  0  0  0  0
    2.5749   -0.9451   -0.7529 H   0  0  0  0  0  0  0  0  0  0  0  0
    2.0718   -2.6912   -1.2334 H   0  0  0  0  0  0  0  0  0  0  0  0
    0.6487   -1.1462    2.0644 H   0  0  0  0  0  0  0  0  0  0  0  0
    0.0474    0.3619    3.0285 H   0  0  0  0  0  0  0  0  0  0  0  0
   -2.2337    0.2432    1.9163 H   0  0  0  0  0  0  0  0  0  0  0  0
   -1.7315   -1.2872    0.9748 H   0  0  0  0  0  0  0  0  0  0  0  0
  1  2  3  0
  2  3  1  0
  3  4  1  0
  4  5  1  0
  4  6  1  0
  6  7  1  0
  3  8  1  0
  8  9  1  0
  9  3  1  0
  1 10  1  0
  4 11  1  0
  5 12  1  0
  5 13  1  0
  5 14  1  0
  7 15  1  0
  7 16  1  0
  7 17  1  0
  8 18  1  0
  8 19  1  0
  9 20  1  0
  9 21  1  0
M  END
