
     RDKit          3D

 15 14  0  0  0  0  0  0  0  0999 V2000
    2.5775   -1.2037    1.2997 C   0  0  0  0  0  0  0  0  0  0  0  0
    1.7252   -0.5207    1.3269 C   0  0  0  0  0  0  0  0  0  0  0  0
    0.3493    0.6203    1.3628 C   0  0  0  0  0  0  0  0  0  0  0  0
    1.0858    1.5821    0.2266 C   0  0  0  0  0  0  0  0  0  0  0  0
   -0.2978    1.9921   -0.2972 O   0  0  0  0  0  0  0  0  0  0  0  0
   -0.3485   -0.0326    0.6313 O   0  0  0  0  0  0  0  0  0  0  0  0
   -1.1076   -0.7679   -0.1611 C   0  0  0  0  0  0  0  0  0  0  0  0
   -2.0453   -0.3077   -1.2625 C   0  0  0  0  0  0  0  0  0  0  0  0
   -1.0211   -2.0082    0.0563 O   0  0  0  0  0  0  0  0  0  0  0  0
    3.5017   -1.9652    1.2570 H   0  0  0  0  0  0  0  0  0  0  0  0
    0.9609    1.1107    2.0366 H   0  0  0  0  0  0  0  0  0  0  0  0
    1.4619    2.0834   -0.3658 H   0  0  0  0  0  0  0  0  0  0  0  0
   -2.5389    0.6900   -1.0124 H   0  0  0  0  0  0  0  0  0  0  0  0
   -1.4591   -0.1975   -2.1607 H   0  0  0  0  0  0  0  0  0  0  0  0
   -2.8441   -1.0752   -1.3811 H   0  0  0  0  0  0  0  0  0  0  0  0
  1  2  3  0
  2  3  1  0
  3  4  1  0
  4  5  2  0
  3  6  1  0
  6  7  1  0
  7  8  1  0
  7  9  2  0
  1 10  1  0
  3 11  1  0
  4 12  1  0
  8 13  1  0
  8 14  1  0
  8 15  1  0
M  END
