
     RDKit          3D

 13 12  0  0  0  0  0  0  0  0999 V2000
   -1.5384   -1.7364   -0.4801 C   0  0  0  0  0  0  0  0  0  0  0  0
   -0.9409   -0.6363   -0.3330 C   0  0  0  0  0  0  0  0  0  0  0  0
   -0.2859    0.5773   -0.1892 C   0  0  0  0  0  0  0  0  0  0  0  0
   -0.7535    1.5310    0.7255 C   0  0  0  0  0  0  0  0  0  0  0  0
   -0.2961    0.8382    2.0087 O   0  0  0  0  0  0  0  0  0  0  0  0
    1.2329    0.2024    0.1583 C   0  0  0  0  0  0  0  0  0  0  0  0
    1.7563   -0.4772   -0.8840 O   0  0  0  0  0  0  0  0  0  0  0  0
   -2.0802   -2.7068   -0.5998 H   0  0  0  0  0  0  0  0  0  0  0  0
   -0.1912    1.0708   -1.2442 H   0  0  0  0  0  0  0  0  0  0  0  0
   -1.1330    2.2896    1.3319 H   0  0  0  0  0  0  0  0  0  0  0  0
    1.0503   -0.5320    1.0341 H   0  0  0  0  0  0  0  0  0  0  0  0
    1.7852    0.9914    0.5902 H   0  0  0  0  0  0  0  0  0  0  0  0
    1.3945   -1.4121   -0.9459 H   0  0  0  0  0  0  0  0  0  0  0  0
  1  2  3  0
  2  3  1  0
  3  4  1  0
  4  5  2  0
  3  6  1  0
  6  7  1  0
  1  8  1  0
  3  9  1  0
  4 10  1  0
  6 11  1  0
  6 12  1  0
  7 13  1  0
M  END
