
     RDKit          3D

 21 20  0  0  0  0  0  0  0  0999 V2000
    3.1942    0.8574    2.9878 C   0  0  0  0  0  0  0  0  0  0  0  0
    2.5651   -0.2250    2.7119 C   0  0  0  0  0  0  0  0  0  0  0  0
    1.8073   -1.5490    2.3991 C   0  0  0  0  0  0  0  0  0  0  0  0
    0.8519   -0.9195    1.3583 C   0  0  0  0  0  0  0  0  0  0  0  0
    0.0077   -0.3658    0.4557 C   0  0  0  0  0  0  0  0  0  0  0  0
   -0.7973    0.1830   -0.4188 C   0  0  0  0  0  0  0  0  0  0  0  0
   -0.2643    1.4678   -1.0891 C   0  0  0  0  0  0  0  0  0  0  0  0
   -2.2319    0.3446    0.0973 C   0  0  0  0  0  0  0  0  0  0  0  0
   -1.0122   -0.7764   -1.6801 C   0  0  0  0  0  0  0  0  0  0  0  0
    3.6787    1.7130    3.2072 H   0  0  0  0  0  0  0  0  0  0  0  0
    1.2342   -1.7901    3.2246 H   0  0  0  0  0  0  0  0  0  0  0  0
    2.4599   -2.2026    1.8747 H   0  0  0  0  0  0  0  0  0  0  0  0
    0.3234    2.0617   -0.4137 H   0  0  0  0  0  0  0  0  0  0  0  0
    0.2856    1.1303   -1.9941 H   0  0  0  0  0  0  0  0  0  0  0  0
   -1.1627    2.0034   -1.4768 H   0  0  0  0  0  0  0  0  0  0  0  0
   -2.9152   -0.0755   -0.6585 H   0  0  0  0  0  0  0  0  0  0  0  0
   -2.5089    1.3965    0.3503 H   0  0  0  0  0  0  0  0  0  0  0  0
   -2.3553   -0.2660    1.0164 H   0  0  0  0  0  0  0  0  0  0  0  0
   -0.4236   -0.4587   -2.5491 H   0  0  0  0  0  0  0  0  0  0  0  0
   -0.6840   -1.7650   -1.3469 H   0  0  0  0  0  0  0  0  0  0  0  0
   -2.0527   -0.7640   -2.0087 H   0  0  0  0  0  0  0  0  0  0  0  0
  1  2  3  0
  2  3  1  0
  3  4  1  0
  4  5  3  0
  5  6  1  0
  6  7  1  0
  6  8  1  0
  6  9  1  0
  1 10  1  0
  3 11  1  0
  3 12  1  0
  7 13  1  0
  7 14  1  0
  7 15  1  0
  8 16  1  0
  8 17  1  0
  8 18  1  0
  9 19  1  0
  9 20  1  0
  9 21  1  0
M  END
