
     RDKit          3D

 19 19  0  0  0  0  0  0  0  0999 V2000
    2.9956    0.2629    0.6411 C   0  0  0  0  0  0  0  0  0  0  0  0
    1.8575   -0.1278    0.5975 C   0  0  0  0  0  0  0  0  0  0  0  0
    0.4578   -0.5978    0.5203 C   0  0  0  0  0  0  0  0  0  0  0  0
    0.2912   -1.9748    0.6275 O   0  0  0  0  0  0  0  0  0  0  0  0
   -0.5682    0.2372    1.1339 C   0  0  0  0  0  0  0  0  0  0  0  0
   -1.6590   -0.3866    1.7858 O   0  0  0  0  0  0  0  0  0  0  0  0
   -0.4971    0.1840   -0.3477 C   0  0  0  0  0  0  0  0  0  0  0  0
   -1.4317   -0.6652   -1.1490 C   0  0  0  0  0  0  0  0  0  0  0  0
    0.0192    1.4294   -1.0185 C   0  0  0  0  0  0  0  0  0  0  0  0
    4.0150    0.5967    0.6701 H   0  0  0  0  0  0  0  0  0  0  0  0
    0.9409   -2.3948    0.0108 H   0  0  0  0  0  0  0  0  0  0  0  0
   -0.2641    1.1688    1.6438 H   0  0  0  0  0  0  0  0  0  0  0  0
   -1.6013   -0.2042    2.7527 H   0  0  0  0  0  0  0  0  0  0  0  0
   -2.4869   -0.5911   -0.8129 H   0  0  0  0  0  0  0  0  0  0  0  0
   -1.4061   -0.3527   -2.2125 H   0  0  0  0  0  0  0  0  0  0  0  0
   -1.1639   -1.7486   -1.1407 H   0  0  0  0  0  0  0  0  0  0  0  0
    1.1077    1.5753   -0.8200 H   0  0  0  0  0  0  0  0  0  0  0  0
   -0.0380    1.2480   -2.1273 H   0  0  0  0  0  0  0  0  0  0  0  0
   -0.5685    2.3414   -0.7549 H   0  0  0  0  0  0  0  0  0  0  0  0
  1  2  3  0
  2  3  1  0
  3  4  1  0
  3  5  1  0
  5  6  1  0
  5  7  1  0
  7  8  1  0
  7  9  1  0
  7  3  1  0
  1 10  1  0
  4 11  1  0
  5 12  1  0
  6 13  1  0
  8 14  1  0
  8 15  1  0
  8 16  1  0
  9 17  1  0
  9 18  1  0
  9 19  1  0
M  END
