
     RDKit          3D

 19 20  0  0  0  0  0  0  0  0999 V2000
    3.2585    1.1585   -0.9992 C   0  0  0  0  0  0  0  0  0  0  0  0
    2.1512    0.9774   -0.5110 C   0  0  0  0  0  0  0  0  0  0  0  0
    0.8249    0.7832    0.0851 C   0  0  0  0  0  0  0  0  0  0  0  0
    0.7698    0.0468    1.4311 C   0  0  0  0  0  0  0  0  0  0  0  0
    0.2761   -0.5792    0.1194 C   0  0  0  0  0  0  0  0  0  0  0  0
    1.0747   -1.5715   -0.4482 O   0  0  0  0  0  0  0  0  0  0  0  0
   -1.1814   -0.8863    0.1287 C   0  0  0  0  0  0  0  0  0  0  0  0
   -2.0964   -0.4708   -0.9535 C   0  0  0  0  0  0  0  0  0  0  0  0
   -2.1744    0.2228    0.3550 C   0  0  0  0  0  0  0  0  0  0  0  0
    4.2214    1.3277   -1.4106 H   0  0  0  0  0  0  0  0  0  0  0  0
    0.2011    1.6943    0.0387 H   0  0  0  0  0  0  0  0  0  0  0  0
    1.7622   -0.2632    1.8103 H   0  0  0  0  0  0  0  0  0  0  0  0
    0.0355    0.3617    2.1734 H   0  0  0  0  0  0  0  0  0  0  0  0
    1.7959   -1.1950   -1.0047 H   0  0  0  0  0  0  0  0  0  0  0  0
   -1.4253   -1.8714    0.6154 H   0  0  0  0  0  0  0  0  0  0  0  0
   -2.9670   -1.1304   -1.1892 H   0  0  0  0  0  0  0  0  0  0  0  0
   -1.7806    0.1347   -1.8098 H   0  0  0  0  0  0  0  0  0  0  0  0
   -3.0235    0.0381    1.0491 H   0  0  0  0  0  0  0  0  0  0  0  0
   -1.7227    1.2226    0.5198 H   0  0  0  0  0  0  0  0  0  0  0  0
  1  2  3  0
  2  3  1  0
  3  4  1  0
  4  5  1  0
  5  6  1  0
  5  7  1  0
  7  8  1  0
  8  9  1  0
  5  3  1  0
  9  7  1  0
  1 10  1  0
  3 11  1  0
  4 12  1  0
  4 13  1  0
  6 14  1  0
  7 15  1  0
  8 16  1  0
  8 17  1  0
  9 18  1  0
  9 19  1  0
M  END
