
     RDKit          3D

 23 23  0  0  0  0  0  0  0  0999 V2000
   -1.6183    2.2806   -0.2692 C   0  0  0  0  0  0  0  0  0  0  0  0
   -1.3979    1.2946    0.4184 C   0  0  0  0  0  0  0  0  0  0  0  0
   -1.1471    0.1433    1.2497 C   0  0  0  0  0  0  0  0  0  0  0  0
   -1.4353    0.5875    2.6862 C   0  0  0  0  0  0  0  0  0  0  0  0
    0.1569   -0.5166    1.1225 C   0  0  0  0  0  0  0  0  0  0  0  0
    0.5843   -1.1517   -0.1356 C   0  0  0  0  0  0  0  0  0  0  0  0
    0.6799   -0.2541   -1.3107 C   0  0  0  0  0  0  0  0  0  0  0  0
    1.1690   -1.0181   -2.5565 C   0  0  0  0  0  0  0  0  0  0  0  0
    1.9097    0.1482   -1.9833 C   0  0  0  0  0  0  0  0  0  0  0  0
   -1.8051    3.1262   -0.8803 H   0  0  0  0  0  0  0  0  0  0  0  0
   -1.9954   -0.5784    1.0318 H   0  0  0  0  0  0  0  0  0  0  0  0
   -0.7558    1.4173    2.9930 H   0  0  0  0  0  0  0  0  0  0  0  0
   -2.4718    0.9450    2.7680 H   0  0  0  0  0  0  0  0  0  0  0  0
   -1.2241   -0.2769    3.3228 H   0  0  0  0  0  0  0  0  0  0  0  0
    0.9569    0.2959    1.3201 H   0  0  0  0  0  0  0  0  0  0  0  0
    0.3087   -1.2727    1.9707 H   0  0  0  0  0  0  0  0  0  0  0  0
   -0.1740   -1.9866   -0.3484 H   0  0  0  0  0  0  0  0  0  0  0  0
    1.5278   -1.7432    0.0339 H   0  0  0  0  0  0  0  0  0  0  0  0
   -0.2492    0.3402   -1.5063 H   0  0  0  0  0  0  0  0  0  0  0  0
    1.6599   -1.9870   -2.4375 H   0  0  0  0  0  0  0  0  0  0  0  0
    0.5707   -0.8677   -3.4477 H   0  0  0  0  0  0  0  0  0  0  0  0
    1.8845    1.0654   -2.5981 H   0  0  0  0  0  0  0  0  0  0  0  0
    2.8658    0.0088   -1.4433 H   0  0  0  0  0  0  0  0  0  0  0  0
  1  2  3  0
  2  3  1  0
  3  4  1  0
  3  5  1  0
  5  6  1  0
  6  7  1  0
  7  8  1  0
  8  9  1  0
  9  7  1  0
  1 10  1  0
  3 11  1  0
  4 12  1  0
  4 13  1  0
  4 14  1  0
  5 15  1  0
  5 16  1  0
  6 17  1  0
  6 18  1  0
  7 19  1  0
  8 20  1  0
  8 21  1  0
  9 22  1  0
  9 23  1  0
M  END
