
     RDKit          3D

 19 20  0  0  0  0  0  0  0  0999 V2000
   -3.0796    0.2617    2.0889 C   0  0  0  0  0  0  0  0  0  0  0  0
   -2.1741    0.1702    1.2760 C   0  0  0  0  0  0  0  0  0  0  0  0
   -1.0816    0.0410    0.2692 C   0  0  0  0  0  0  0  0  0  0  0  0
    0.2065    0.3718    0.8785 C   0  0  0  0  0  0  0  0  0  0  0  0
    1.4709    0.3521    0.1612 C   0  0  0  0  0  0  0  0  0  0  0  0
    2.1039   -0.7735   -0.5245 C   0  0  0  0  0  0  0  0  0  0  0  0
    1.6631    0.5075   -1.3052 C   0  0  0  0  0  0  0  0  0  0  0  0
   -1.3973   -0.7408   -0.8679 C   0  0  0  0  0  0  0  0  0  0  0  0
   -1.4367    0.7119   -0.9272 O   0  0  0  0  0  0  0  0  0  0  0  0
   -3.8515    0.3496    2.8031 H   0  0  0  0  0  0  0  0  0  0  0  0
    0.0733    1.4274    1.2801 H   0  0  0  0  0  0  0  0  0  0  0  0
    0.3159   -0.2392    1.8242 H   0  0  0  0  0  0  0  0  0  0  0  0
    2.2572    0.9515    0.7478 H   0  0  0  0  0  0  0  0  0  0  0  0
    1.5828   -1.6664   -0.8912 H   0  0  0  0  0  0  0  0  0  0  0  0
    3.2014   -0.9260   -0.5087 H   0  0  0  0  0  0  0  0  0  0  0  0
    2.5098    1.1305   -1.7037 H   0  0  0  0  0  0  0  0  0  0  0  0
    0.8579    0.4206   -2.0286 H   0  0  0  0  0  0  0  0  0  0  0  0
   -2.4634   -1.0970   -0.9953 H   0  0  0  0  0  0  0  0  0  0  0  0
   -0.7584   -1.2527   -1.5768 H   0  0  0  0  0  0  0  0  0  0  0  0
  1  2  3  0
  2  3  1  0
  3  4  1  0
  4  5  1  0
  5  6  1  0
  6  7  1  0
  3  8  1  0
  8  9  1  0
  9  3  1  0
  7  5  1  0
  1 10  1  0
  4 11  1  0
  4 12  1  0
  5 13  1  0
  6 14  1  0
  6 15  1  0
  7 16  1  0
  7 17  1  0
  8 18  1  0
  8 19  1  0
M  END
