
     RDKit          3D

 19 18  0  0  0  0  0  0  0  0999 V2000
    3.9672    1.1548    0.6759 C   0  0  0  0  0  0  0  0  0  0  0  0
    2.7607    0.7318   -0.0229 C   0  0  0  0  0  0  0  0  0  0  0  0
    1.3197    0.2160   -0.8266 C   0  0  0  0  0  0  0  0  0  0  0  0
    1.9612   -1.1369   -1.0457 O   0  0  0  0  0  0  0  0  0  0  0  0
    0.4893   -0.1028    0.3582 C   0  0  0  0  0  0  0  0  0  0  0  0
   -1.0448    0.1823   -0.1667 C   0  0  0  0  0  0  0  0  0  0  0  0
   -1.9600   -0.3324    0.7893 C   0  0  0  0  0  0  0  0  0  0  0  0
   -3.3212   -0.1842    0.3323 C   0  0  0  0  0  0  0  0  0  0  0  0
   -4.1454    0.5389    0.6293 O   0  0  0  0  0  0  0  0  0  0  0  0
    4.6344    1.3955    1.0580 H   0  0  0  0  0  0  0  0  0  0  0  0
    1.2777    0.6918   -1.6439 H   0  0  0  0  0  0  0  0  0  0  0  0
    2.3443   -1.2470   -0.0967 H   0  0  0  0  0  0  0  0  0  0  0  0
    0.4152   -1.3022    0.4218 H   0  0  0  0  0  0  0  0  0  0  0  0
    0.6206    0.2207    1.3507 H   0  0  0  0  0  0  0  0  0  0  0  0
   -1.0452    1.3923    0.0085 H   0  0  0  0  0  0  0  0  0  0  0  0
   -1.0246    0.0080   -1.1915 H   0  0  0  0  0  0  0  0  0  0  0  0
   -1.8488    0.1284    1.8090 H   0  0  0  0  0  0  0  0  0  0  0  0
   -1.8476   -1.4074    1.0110 H   0  0  0  0  0  0  0  0  0  0  0  0
   -3.5528   -0.9476   -0.5497 H   0  0  0  0  0  0  0  0  0  0  0  0
  1  2  3  0
  2  3  1  0
  3  4  1  0
  3  5  1  0
  5  6  1  0
  6  7  1  0
  7  8  1  0
  8  9  2  0
  1 10  1  0
  3 11  1  0
  4 12  1  0
  5 13  1  0
  5 14  1  0
  6 15  1  0
  6 16  1  0
  7 17  1  0
  7 18  1  0
  8 19  1  0
M  END
