
     RDKit          3D

 17 16  0  0  0  0  0  0  0  0999 V2000
    3.1269    1.5575   -1.2109 C   0  0  0  0  0  0  0  0  0  0  0  0
    2.5702    1.4372   -0.4280 C   0  0  0  0  0  0  0  0  0  0  0  0
    1.5861    1.2492    0.9367 C   0  0  0  0  0  0  0  0  0  0  0  0
    1.2442    2.5723    1.2007 O   0  0  0  0  0  0  0  0  0  0  0  0
    0.7110    0.4253    0.4364 C   0  0  0  0  0  0  0  0  0  0  0  0
   -0.2295   -0.4644   -0.0763 C   0  0  0  0  0  0  0  0  0  0  0  0
   -1.1850   -1.3762   -0.6254 C   0  0  0  0  0  0  0  0  0  0  0  0
   -2.5472   -0.9640   -0.0945 C   0  0  0  0  0  0  0  0  0  0  0  0
   -0.8820   -2.6792   -0.2130 O   0  0  0  0  0  0  0  0  0  0  0  0
    3.8004    1.6948   -2.1284 H   0  0  0  0  0  0  0  0  0  0  0  0
    2.3441    0.8575    1.6337 H   0  0  0  0  0  0  0  0  0  0  0  0
    0.4959    2.5470    1.8830 H   0  0  0  0  0  0  0  0  0  0  0  0
   -1.2330   -1.3804   -1.7094 H   0  0  0  0  0  0  0  0  0  0  0  0
   -3.3405   -1.2065   -0.7971 H   0  0  0  0  0  0  0  0  0  0  0  0
   -2.6745   -1.4582    0.8954 H   0  0  0  0  0  0  0  0  0  0  0  0
   -2.5076    0.1340    0.1565 H   0  0  0  0  0  0  0  0  0  0  0  0
   -1.2796   -2.9459    0.6560 H   0  0  0  0  0  0  0  0  0  0  0  0
  1  2  3  0
  2  3  1  0
  3  4  1  0
  3  5  1  0
  5  6  3  0
  6  7  1  0
  7  8  1  0
  7  9  1  0
  1 10  1  0
  3 11  1  0
  4 12  1  0
  7 13  1  0
  8 14  1  0
  8 15  1  0
  8 16  1  0
  9 17  1  0
M  END
