
     RDKit          3D

 18 18  0  0  0  0  0  0  0  0999 V2000
    2.5708   -2.8267   -0.1097 C   0  0  0  0  0  0  0  0  0  0  0  0
    1.5821   -2.1583   -0.3814 C   0  0  0  0  0  0  0  0  0  0  0  0
    0.4004   -1.3892   -0.7039 C   0  0  0  0  0  0  0  0  0  0  0  0
    0.4287   -0.0172   -0.0346 C   0  0  0  0  0  0  0  0  0  0  0  0
    0.4886   -0.1361    1.3419 O   0  0  0  0  0  0  0  0  0  0  0  0
   -0.7875    0.7435   -0.5049 C   0  0  0  0  0  0  0  0  0  0  0  0
   -0.9075    2.1520    0.0804 C   0  0  0  0  0  0  0  0  0  0  0  0
   -1.8960    1.0731    0.4052 C   0  0  0  0  0  0  0  0  0  0  0  0
    3.4181   -3.4177    0.1225 H   0  0  0  0  0  0  0  0  0  0  0  0
    0.3524   -1.1796   -1.8039 H   0  0  0  0  0  0  0  0  0  0  0  0
   -0.5375   -1.8867   -0.4225 H   0  0  0  0  0  0  0  0  0  0  0  0
    1.3539    0.4819   -0.3935 H   0  0  0  0  0  0  0  0  0  0  0  0
    0.8098    0.7142    1.7359 H   0  0  0  0  0  0  0  0  0  0  0  0
   -1.0460    0.6059   -1.5754 H   0  0  0  0  0  0  0  0  0  0  0  0
   -0.2360    2.4547    0.8886 H   0  0  0  0  0  0  0  0  0  0  0  0
   -1.1873    2.9443   -0.6430 H   0  0  0  0  0  0  0  0  0  0  0  0
   -2.8999    1.2363   -0.0196 H   0  0  0  0  0  0  0  0  0  0  0  0
   -1.9072    0.6056    1.3986 H   0  0  0  0  0  0  0  0  0  0  0  0
  1  2  3  0
  2  3  1  0
  3  4  1  0
  4  5  1  0
  4  6  1  0
  6  7  1  0
  7  8  1  0
  8  6  1  0
  1  9  1  0
  3 10  1  0
  3 11  1  0
  4 12  1  0
  5 13  1  0
  6 14  1  0
  7 15  1  0
  7 16  1  0
  8 17  1  0
  8 18  1  0
M  END
