
     RDKit          3D

 19 19  0  0  0  0  0  0  0  0999 V2000
    2.4809    1.5875   -0.2792 C   0  0  0  0  0  0  0  0  0  0  0  0
    1.7064    0.6910   -0.3793 C   0  0  0  0  0  0  0  0  0  0  0  0
    0.7348   -0.3977   -0.4926 C   0  0  0  0  0  0  0  0  0  0  0  0
    1.0637   -1.5447    0.4507 C   0  0  0  0  0  0  0  0  0  0  0  0
   -0.2925   -1.7894    1.0913 C   0  0  0  0  0  0  0  0  0  0  0  0
   -0.7226   -0.4856    1.3205 O   0  0  0  0  0  0  0  0  0  0  0  0
   -0.6057    0.0575    0.0189 C   0  0  0  0  0  0  0  0  0  0  0  0
   -0.7082    1.4207    0.1545 O   0  0  0  0  0  0  0  0  0  0  0  0
   -1.8109    1.8287   -0.5970 C   0  0  0  0  0  0  0  0  0  0  0  0
    3.1834    2.4013   -0.2045 H   0  0  0  0  0  0  0  0  0  0  0  0
    0.6931   -0.7620   -1.5372 H   0  0  0  0  0  0  0  0  0  0  0  0
    1.7961   -1.1946    1.2203 H   0  0  0  0  0  0  0  0  0  0  0  0
    1.3636   -2.4560   -0.0636 H   0  0  0  0  0  0  0  0  0  0  0  0
   -0.9496   -2.2003    0.2895 H   0  0  0  0  0  0  0  0  0  0  0  0
   -0.2423   -2.4083    1.9871 H   0  0  0  0  0  0  0  0  0  0  0  0
   -1.3821   -0.3667   -0.6205 H   0  0  0  0  0  0  0  0  0  0  0  0
   -2.6954    1.2868   -0.1574 H   0  0  0  0  0  0  0  0  0  0  0  0
   -1.9445    2.9203   -0.5894 H   0  0  0  0  0  0  0  0  0  0  0  0
   -1.6681    1.4116   -1.6122 H   0  0  0  0  0  0  0  0  0  0  0  0
  1  2  3  0
  2  3  1  0
  3  4  1  0
  4  5  1  0
  5  6  1  0
  6  7  1  0
  7  8  1  0
  8  9  1  0
  7  3  1  0
  1 10  1  0
  3 11  1  0
  4 12  1  0
  4 13  1  0
  5 14  1  0
  5 15  1  0
  7 16  1  0
  9 17  1  0
  9 18  1  0
  9 19  1  0
M  END
