
     RDKit          3D

 19 21  0  0  0  0  0  0  0  0999 V2000
    3.3638    0.5150   -0.7338 C   0  0  0  0  0  0  0  0  0  0  0  0
    2.4125   -0.0013   -0.2012 C   0  0  0  0  0  0  0  0  0  0  0  0
    1.2631   -0.6504    0.4625 C   0  0  0  0  0  0  0  0  0  0  0  0
    0.2030    0.3289    0.9084 C   0  0  0  0  0  0  0  0  0  0  0  0
   -0.0463    0.5649   -0.5506 C   0  0  0  0  0  0  0  0  0  0  0  0
   -1.5193    0.7946   -0.7384 C   0  0  0  0  0  0  0  0  0  0  0  0
   -2.0452   -0.1529    0.3580 C   0  0  0  0  0  0  0  0  0  0  0  0
   -0.7599   -0.8013    0.7668 C   0  0  0  0  0  0  0  0  0  0  0  0
    0.1105   -0.9256   -0.4520 C   0  0  0  0  0  0  0  0  0  0  0  0
    4.2004    0.9612   -1.2082 H   0  0  0  0  0  0  0  0  0  0  0  0
    1.5387   -1.4309    1.1800 H   0  0  0  0  0  0  0  0  0  0  0  0
    0.2787    1.0040    1.6399 H   0  0  0  0  0  0  0  0  0  0  0  0
    0.6546    1.1311   -1.1248 H   0  0  0  0  0  0  0  0  0  0  0  0
   -1.8910    0.3757   -1.6961 H   0  0  0  0  0  0  0  0  0  0  0  0
   -1.8405    1.8261   -0.5661 H   0  0  0  0  0  0  0  0  0  0  0  0
   -2.8092   -0.8295   -0.0194 H   0  0  0  0  0  0  0  0  0  0  0  0
   -2.3905    0.4841    1.2174 H   0  0  0  0  0  0  0  0  0  0  0  0
   -0.7677   -1.5941    1.4866 H   0  0  0  0  0  0  0  0  0  0  0  0
    0.0442   -1.5997   -1.1853 H   0  0  0  0  0  0  0  0  0  0  0  0
  1  2  3  0
  2  3  1  0
  3  4  1  0
  4  5  1  0
  5  6  1  0
  6  7  1  0
  7  8  1  0
  8  9  1  0
  9  3  1  0
  8  4  1  0
  9  5  1  0
  1 10  1  0
  3 11  1  0
  4 12  1  0
  5 13  1  0
  6 14  1  0
  6 15  1  0
  7 16  1  0
  7 17  1  0
  8 18  1  0
  9 19  1  0
M  END
