
     RDKit          3D

 19 18  0  0  0  0  0  0  0  0999 V2000
   -1.3956    2.9207   -0.4583 C   0  0  0  0  0  0  0  0  0  0  0  0
   -0.9476    1.8928   -0.0615 C   0  0  0  0  0  0  0  0  0  0  0  0
   -0.4225    0.6816    0.3956 C   0  0  0  0  0  0  0  0  0  0  0  0
    1.0333    0.6077    0.3191 C   0  0  0  0  0  0  0  0  0  0  0  0
    2.3372    0.5597    0.2613 C   0  0  0  0  0  0  0  0  0  0  0  0
    3.6815    0.5081    0.1797 C   0  0  0  0  0  0  0  0  0  0  0  0
   -1.1640   -0.5628    0.2379 C   0  0  0  0  0  0  0  0  0  0  0  0
   -1.5639   -0.9670   -1.0007 O   0  0  0  0  0  0  0  0  0  0  0  0
   -2.1943   -2.2466   -0.7716 C   0  0  0  0  0  0  0  0  0  0  0  0
   -1.8606    3.9659   -0.8449 H   0  0  0  0  0  0  0  0  0  0  0  0
   -0.5370    0.8012    1.6364 H   0  0  0  0  0  0  0  0  0  0  0  0
    4.1576    1.4570   -0.2612 H   0  0  0  0  0  0  0  0  0  0  0  0
    4.0281   -0.3323   -0.4979 H   0  0  0  0  0  0  0  0  0  0  0  0
    4.2451    0.3223    1.1473 H   0  0  0  0  0  0  0  0  0  0  0  0
   -2.0703   -0.6358    0.9307 H   0  0  0  0  0  0  0  0  0  0  0  0
   -0.5088   -1.4178    0.6444 H   0  0  0  0  0  0  0  0  0  0  0  0
   -2.6020   -2.5711   -1.7178 H   0  0  0  0  0  0  0  0  0  0  0  0
   -1.3465   -2.9482   -0.4810 H   0  0  0  0  0  0  0  0  0  0  0  0
   -2.8696   -2.0354    0.0584 H   0  0  0  0  0  0  0  0  0  0  0  0
  1  2  3  0
  2  3  1  0
  3  4  1  0
  4  5  3  0
  5  6  1  0
  3  7  1  0
  7  8  1  0
  8  9  1  0
  1 10  1  0
  3 11  1  0
  6 12  1  0
  6 13  1  0
  6 14  1  0
  7 15  1  0
  7 16  1  0
  9 17  1  0
  9 18  1  0
  9 19  1  0
M  END
