
     RDKit          3D

 17 16  0  0  0  0  0  0  0  0999 V2000
   -2.8304    1.0707   -0.3323 C   0  0  0  0  0  0  0  0  0  0  0  0
   -1.8849    0.3794   -0.0476 C   0  0  0  0  0  0  0  0  0  0  0  0
   -0.7430   -0.4766    0.2799 C   0  0  0  0  0  0  0  0  0  0  0  0
   -0.7524   -1.6702   -0.6458 C   0  0  0  0  0  0  0  0  0  0  0  0
    0.5109    0.2524   -0.0054 C   0  0  0  0  0  0  0  0  0  0  0  0
    1.5440    0.8287   -0.2367 C   0  0  0  0  0  0  0  0  0  0  0  0
    2.8042    1.5600   -0.5135 C   0  0  0  0  0  0  0  0  0  0  0  0
   -0.7804   -0.8668    1.7060 C   0  0  0  0  0  0  0  0  0  0  0  0
    0.2688   -0.9818    2.2961 O   0  0  0  0  0  0  0  0  0  0  0  0
   -3.6696    1.6866   -0.6026 H   0  0  0  0  0  0  0  0  0  0  0  0
   -1.5325   -2.3917   -0.3854 H   0  0  0  0  0  0  0  0  0  0  0  0
   -0.8315   -1.3284   -1.6898 H   0  0  0  0  0  0  0  0  0  0  0  0
    0.2289   -2.2165   -0.5492 H   0  0  0  0  0  0  0  0  0  0  0  0
    3.0529    2.2394    0.3351 H   0  0  0  0  0  0  0  0  0  0  0  0
    3.5979    0.7897   -0.5802 H   0  0  0  0  0  0  0  0  0  0  0  0
    2.7283    2.1691   -1.4366 H   0  0  0  0  0  0  0  0  0  0  0  0
   -1.7111   -1.0442    2.2087 H   0  0  0  0  0  0  0  0  0  0  0  0
  1  2  3  0
  2  3  1  0
  3  4  1  0
  3  5  1  0
  5  6  3  0
  6  7  1  0
  3  8  1  0
  8  9  2  0
  1 10  1  0
  4 11  1  0
  4 12  1  0
  4 13  1  0
  7 14  1  0
  7 15  1  0
  7 16  1  0
  8 17  1  0
M  END
