
     RDKit          3D

 21 21  0  0  0  0  0  0  0  0999 V2000
    2.1060    2.8818   -0.0797 C   0  0  0  0  0  0  0  0  0  0  0  0
    1.4795    1.8626    0.0308 C   0  0  0  0  0  0  0  0  0  0  0  0
    0.7107    0.6480    0.1796 C   0  0  0  0  0  0  0  0  0  0  0  0
    1.6315   -0.5613    0.2694 C   0  0  0  0  0  0  0  0  0  0  0  0
    0.7308   -1.7248    0.6035 C   0  0  0  0  0  0  0  0  0  0  0  0
   -0.5421   -1.7457    0.2252 C   0  0  0  0  0  0  0  0  0  0  0  0
   -1.2028   -0.6690   -0.5410 C   0  0  0  0  0  0  0  0  0  0  0  0
   -2.2543    0.0259    0.3103 C   0  0  0  0  0  0  0  0  0  0  0  0
   -0.2197    0.3926   -0.9956 C   0  0  0  0  0  0  0  0  0  0  0  0
    2.6586    3.7827   -0.1795 H   0  0  0  0  0  0  0  0  0  0  0  0
    0.1196    0.6334    1.1418 H   0  0  0  0  0  0  0  0  0  0  0  0
    1.9996   -0.7416   -0.7590 H   0  0  0  0  0  0  0  0  0  0  0  0
    2.4245   -0.4321    1.0135 H   0  0  0  0  0  0  0  0  0  0  0  0
    1.1613   -2.5531    1.1692 H   0  0  0  0  0  0  0  0  0  0  0  0
   -1.1430   -2.6069    0.4926 H   0  0  0  0  0  0  0  0  0  0  0  0
   -1.7366   -1.0624   -1.4445 H   0  0  0  0  0  0  0  0  0  0  0  0
   -3.2628   -0.0252   -0.1467 H   0  0  0  0  0  0  0  0  0  0  0  0
   -1.9611    1.0877    0.5339 H   0  0  0  0  0  0  0  0  0  0  0  0
   -2.3359   -0.4712    1.3024 H   0  0  0  0  0  0  0  0  0  0  0  0
    0.4195    0.0030   -1.8250 H   0  0  0  0  0  0  0  0  0  0  0  0
   -0.7835    1.2756   -1.3012 H   0  0  0  0  0  0  0  0  0  0  0  0
  1  2  3  0
  2  3  1  0
  3  4  1  0
  4  5  1  0
  5  6  2  0
  6  7  1  0
  7  8  1  0
  7  9  1  0
  9  3  1  0
  1 10  1  0
  3 11  1  0
  4 12  1  0
  4 13  1  0
  5 14  1  0
  6 15  1  0
  7 16  1  0
  8 17  1  0
  8 18  1  0
  8 19  1  0
  9 20  1  0
  9 21  1  0
M  END
