
     RDKit          3D

 23 22  0  0  0  0  0  0  0  0999 V2000
   -3.3161   -1.0471   -0.6464 C   0  0  0  0  0  0  0  0  0  0  0  0
   -2.4162   -0.5912   -0.7207 C   0  0  0  0  0  0  0  0  0  0  0  0
   -1.0322    0.1023   -0.8163 C   0  0  0  0  0  0  0  0  0  0  0  0
   -0.3509   -0.3659   -2.0721 C   0  0  0  0  0  0  0  0  0  0  0  0
    0.9141    0.2371   -2.2181 O   0  0  0  0  0  0  0  0  0  0  0  0
   -0.3286   -0.3766    0.4032 C   0  0  0  0  0  0  0  0  0  0  0  0
    1.0456    0.0900    0.6581 C   0  0  0  0  0  0  0  0  0  0  0  0
    1.4782   -0.5729    1.9888 C   0  0  0  0  0  0  0  0  0  0  0  0
    1.1839    1.5706    0.8776 C   0  0  0  0  0  0  0  0  0  0  0  0
   -4.3947   -1.5701   -0.5584 H   0  0  0  0  0  0  0  0  0  0  0  0
   -1.2360    1.1720   -0.8233 H   0  0  0  0  0  0  0  0  0  0  0  0
   -0.9714   -0.2368   -2.9774 H   0  0  0  0  0  0  0  0  0  0  0  0
   -0.1374   -1.4673   -2.0020 H   0  0  0  0  0  0  0  0  0  0  0  0
    0.7507    1.1978   -2.2107 H   0  0  0  0  0  0  0  0  0  0  0  0
   -0.2909   -1.5063    0.3792 H   0  0  0  0  0  0  0  0  0  0  0  0
   -0.9552   -0.1577    1.3269 H   0  0  0  0  0  0  0  0  0  0  0  0
    1.7264   -0.2373   -0.1342 H   0  0  0  0  0  0  0  0  0  0  0  0
    2.4269   -0.1330    2.3420 H   0  0  0  0  0  0  0  0  0  0  0  0
    1.4879   -1.6532    1.8525 H   0  0  0  0  0  0  0  0  0  0  0  0
    0.7074   -0.3551    2.7687 H   0  0  0  0  0  0  0  0  0  0  0  0
    2.2743    1.8338    0.8908 H   0  0  0  0  0  0  0  0  0  0  0  0
    0.6480    1.9848    1.7236 H   0  0  0  0  0  0  0  0  0  0  0  0
    0.7862    2.0822   -0.0321 H   0  0  0  0  0  0  0  0  0  0  0  0
  1  2  3  0
  2  3  1  0
  3  4  1  0
  4  5  1  0
  3  6  1  0
  6  7  1  0
  7  8  1  0
  7  9  1  0
  1 10  1  0
  3 11  1  0
  4 12  1  0
  4 13  1  0
  5 14  1  0
  6 15  1  0
  6 16  1  0
  7 17  1  0
  8 18  1  0
  8 19  1  0
  8 20  1  0
  9 21  1  0
  9 22  1  0
  9 23  1  0
M  END
