
     RDKit          3D

 17 17  0  0  0  0  0  0  0  0999 V2000
    3.0689   -0.6004    1.0531 C   0  0  0  0  0  0  0  0  0  0  0  0
    1.9459   -0.8366    0.6806 C   0  0  0  0  0  0  0  0  0  0  0  0
    0.5780   -1.1180    0.2020 C   0  0  0  0  0  0  0  0  0  0  0  0
    0.4034   -0.3094   -1.0724 C   0  0  0  0  0  0  0  0  0  0  0  0
   -0.0362    0.9766   -0.5063 C   0  0  0  0  0  0  0  0  0  0  0  0
    0.1258    2.0664   -0.9674 O   0  0  0  0  0  0  0  0  0  0  0  0
   -0.7174    0.6244    0.7497 C   0  0  0  0  0  0  0  0  0  0  0  0
   -2.2123    0.5074    0.4211 C   0  0  0  0  0  0  0  0  0  0  0  0
   -0.3067   -0.6369    1.1270 O   0  0  0  0  0  0  0  0  0  0  0  0
    4.0592   -0.3733    1.3796 H   0  0  0  0  0  0  0  0  0  0  0  0
    0.4708   -2.2039    0.0080 H   0  0  0  0  0  0  0  0  0  0  0  0
    1.3495   -0.2405   -1.6422 H   0  0  0  0  0  0  0  0  0  0  0  0
   -0.4339   -0.7061   -1.6857 H   0  0  0  0  0  0  0  0  0  0  0  0
   -0.5590    1.3829    1.5536 H   0  0  0  0  0  0  0  0  0  0  0  0
   -2.8243    0.8209    1.2783 H   0  0  0  0  0  0  0  0  0  0  0  0
   -2.4534   -0.5259    0.0829 H   0  0  0  0  0  0  0  0  0  0  0  0
   -2.4580    1.1724   -0.4267 H   0  0  0  0  0  0  0  0  0  0  0  0
  1  2  3  0
  2  3  1  0
  3  4  1  0
  4  5  1  0
  5  6  2  0
  5  7  1  0
  7  8  1  0
  7  9  1  0
  9  3  1  0
  1 10  1  0
  3 11  1  0
  4 12  1  0
  4 13  1  0
  7 14  1  0
  8 15  1  0
  8 16  1  0
  8 17  1  0
M  END
