
     RDKit          3D

 21 21  0  0  0  0  0  0  0  0999 V2000
    1.7339    2.7934    1.4391 C   0  0  0  0  0  0  0  0  0  0  0  0
    1.3143    1.6193    1.3774 C   0  0  0  0  0  0  0  0  0  0  0  0
    0.8025    0.2591    1.3127 C   0  0  0  0  0  0  0  0  0  0  0  0
   -0.6444    0.2179    1.0380 C   0  0  0  0  0  0  0  0  0  0  0  0
   -1.1579   -0.3879   -0.0047 C   0  0  0  0  0  0  0  0  0  0  0  0
   -2.6618   -0.3403   -0.1468 C   0  0  0  0  0  0  0  0  0  0  0  0
   -0.3802   -1.1070   -1.0441 C   0  0  0  0  0  0  0  0  0  0  0  0
    1.0083   -0.5277   -1.0471 C   0  0  0  0  0  0  0  0  0  0  0  0
    1.6051   -0.5569    0.3412 C   0  0  0  0  0  0  0  0  0  0  0  0
    2.0753    3.7644    1.4752 H   0  0  0  0  0  0  0  0  0  0  0  0
    0.9979   -0.2295    2.3251 H   0  0  0  0  0  0  0  0  0  0  0  0
   -1.3534    0.7265    1.7474 H   0  0  0  0  0  0  0  0  0  0  0  0
   -3.0067    0.6074   -0.5635 H   0  0  0  0  0  0  0  0  0  0  0  0
   -3.0663   -0.4259    0.8813 H   0  0  0  0  0  0  0  0  0  0  0  0
   -3.0038   -1.1851   -0.7586 H   0  0  0  0  0  0  0  0  0  0  0  0
   -0.8489   -0.8429   -2.0229 H   0  0  0  0  0  0  0  0  0  0  0  0
   -0.3319   -2.1995   -0.8620 H   0  0  0  0  0  0  0  0  0  0  0  0
    1.6227   -1.0660   -1.7634 H   0  0  0  0  0  0  0  0  0  0  0  0
    0.9125    0.5695   -1.3023 H   0  0  0  0  0  0  0  0  0  0  0  0
    2.6219   -0.0792    0.2602 H   0  0  0  0  0  0  0  0  0  0  0  0
    1.7607   -1.6094    0.6813 H   0  0  0  0  0  0  0  0  0  0  0  0
  1  2  3  0
  2  3  1  0
  3  4  1  0
  4  5  2  0
  5  6  1  0
  5  7  1  0
  7  8  1  0
  8  9  1  0
  9  3  1  0
  1 10  1  0
  3 11  1  0
  4 12  1  0
  6 13  1  0
  6 14  1  0
  6 15  1  0
  7 16  1  0
  7 17  1  0
  8 18  1  0
  8 19  1  0
  9 20  1  0
  9 21  1  0
M  END
