
     RDKit          3D

 15 15  0  0  0  0  0  0  0  0999 V2000
   -2.8128    1.2284    0.9807 C   0  0  0  0  0  0  0  0  0  0  0  0
   -1.9263    0.4302    0.7736 C   0  0  0  0  0  0  0  0  0  0  0  0
   -0.8460   -0.5144    0.5349 C   0  0  0  0  0  0  0  0  0  0  0  0
    0.3881    0.0541    1.1401 C   0  0  0  0  0  0  0  0  0  0  0  0
    1.3548   -0.0449    0.2413 C   0  0  0  0  0  0  0  0  0  0  0  0
    0.7858   -0.6786   -0.9749 C   0  0  0  0  0  0  0  0  0  0  0  0
    1.2791    0.0658   -2.1502 C   0  0  0  0  0  0  0  0  0  0  0  0
    2.4727    0.0550   -2.3705 O   0  0  0  0  0  0  0  0  0  0  0  0
   -0.5946   -0.5904   -0.8299 O   0  0  0  0  0  0  0  0  0  0  0  0
   -3.5913    1.9395    1.1808 H   0  0  0  0  0  0  0  0  0  0  0  0
   -1.0666   -1.5253    0.9521 H   0  0  0  0  0  0  0  0  0  0  0  0
    0.4683    0.4697    2.1345 H   0  0  0  0  0  0  0  0  0  0  0  0
    2.3840    0.2644    0.3305 H   0  0  0  0  0  0  0  0  0  0  0  0
    1.1003   -1.7572   -1.0250 H   0  0  0  0  0  0  0  0  0  0  0  0
    0.6045    0.6037   -2.7955 H   0  0  0  0  0  0  0  0  0  0  0  0
  1  2  3  0
  2  3  1  0
  3  4  1  0
  4  5  2  0
  5  6  1  0
  6  7  1  0
  7  8  2  0
  6  9  1  0
  9  3  1  0
  1 10  1  0
  3 11  1  0
  4 12  1  0
  5 13  1  0
  6 14  1  0
  7 15  1  0
M  END
