
     RDKit          3D

 16 15  0  0  0  0  0  0  0  0999 V2000
    2.7579    0.3665    1.6350 C   0  0  0  0  0  0  0  0  0  0  0  0
    2.5507    0.1082    0.3911 C   0  0  0  0  0  0  0  0  0  0  0  0
    2.3498   -0.1582   -0.7878 C   0  0  0  0  0  0  0  0  0  0  0  0
    1.0940   -0.3988   -1.1272 O   0  0  0  0  0  0  0  0  0  0  0  0
   -0.0752   -0.6296   -1.4685 C   0  0  0  0  0  0  0  0  0  0  0  0
   -1.0994   -0.3958   -0.5441 C   0  0  0  0  0  0  0  0  0  0  0  0
   -2.0136   -0.2009    0.2861 C   0  0  0  0  0  0  0  0  0  0  0  0
   -3.2464    0.0574    1.3688 C   0  0  0  0  0  0  0  0  0  0  0  0
    2.9697    0.6701    3.0150 H   0  0  0  0  0  0  0  0  0  0  0  0
    3.0331   -1.2213   -1.0419 H   0  0  0  0  0  0  0  0  0  0  0  0
    3.0126    0.4830   -1.4748 H   0  0  0  0  0  0  0  0  0  0  0  0
   -0.4250   -1.2535   -2.3040 H   0  0  0  0  0  0  0  0  0  0  0  0
    0.0405   -1.9604   -0.8259 H   0  0  0  0  0  0  0  0  0  0  0  0
   -3.8046    0.7503    0.1975 H   0  0  0  0  0  0  0  0  0  0  0  0
   -3.9432   -0.7417    0.9767 H   0  0  0  0  0  0  0  0  0  0  0  0
   -3.2008    0.9754    1.7039 H   0  0  0  0  0  0  0  0  0  0  0  0
  1  2  3  0
  2  3  1  0
  3  4  1  0
  4  5  1  0
  5  6  1  0
  6  7  3  0
  7  8  1  0
  1  9  1  0
  3 10  1  0
  3 11  1  0
  5 12  1  0
  5 13  1  0
  8 14  1  0
  8 15  1  0
  8 16  1  0
M  END
