
     RDKit          3D

 21 21  0  0  0  0  0  0  0  0999 V2000
    3.6811   -0.4269   -0.4468 C   0  0  0  0  0  0  0  0  0  0  0  0
    2.4890   -0.3204   -0.2991 C   0  0  0  0  0  0  0  0  0  0  0  0
    1.0492   -0.1752   -0.1393 C   0  0  0  0  0  0  0  0  0  0  0  0
    0.3512   -1.3634   -0.7708 C   0  0  0  0  0  0  0  0  0  0  0  0
   -1.1157   -0.9702   -0.8293 C   0  0  0  0  0  0  0  0  0  0  0  0
   -1.5939   -0.3143    0.4241 C   0  0  0  0  0  0  0  0  0  0  0  0
   -1.4628    1.1679    0.4408 C   0  0  0  0  0  0  0  0  0  0  0  0
   -0.1494    1.7088    0.0198 C   0  0  0  0  0  0  0  0  0  0  0  0
    0.5624    0.9406   -0.8564 O   0  0  0  0  0  0  0  0  0  0  0  0
    4.7461   -0.5193   -0.5805 H   0  0  0  0  0  0  0  0  0  0  0  0
    0.7533   -0.1461    0.9202 H   0  0  0  0  0  0  0  0  0  0  0  0
    0.5148   -2.2766   -0.1852 H   0  0  0  0  0  0  0  0  0  0  0  0
    0.6862   -1.4932   -1.8331 H   0  0  0  0  0  0  0  0  0  0  0  0
   -1.2817   -0.2795   -1.6739 H   0  0  0  0  0  0  0  0  0  0  0  0
   -1.7214   -1.8986   -1.0202 H   0  0  0  0  0  0  0  0  0  0  0  0
   -1.1349   -0.7983    1.3331 H   0  0  0  0  0  0  0  0  0  0  0  0
   -2.6927   -0.5527    0.5147 H   0  0  0  0  0  0  0  0  0  0  0  0
   -1.6492    1.5045    1.4996 H   0  0  0  0  0  0  0  0  0  0  0  0
   -2.2838    1.6023   -0.1617 H   0  0  0  0  0  0  0  0  0  0  0  0
   -0.2610    2.7321   -0.4421 H   0  0  0  0  0  0  0  0  0  0  0  0
    0.5132    1.8782    0.9196 H   0  0  0  0  0  0  0  0  0  0  0  0
  1  2  3  0
  2  3  1  0
  3  4  1  0
  4  5  1  0
  5  6  1  0
  6  7  1  0
  7  8  1  0
  8  9  1  0
  9  3  1  0
  1 10  1  0
  3 11  1  0
  4 12  1  0
  4 13  1  0
  5 14  1  0
  5 15  1  0
  6 16  1  0
  6 17  1  0
  7 18  1  0
  7 19  1  0
  8 20  1  0
  8 21  1  0
M  END
