
     RDKit          3D

 13 12  0  0  0  0  0  0  0  0999 V2000
    3.6858    1.1994   -0.1475 C   0  0  0  0  0  0  0  0  0  0  0  0
    2.6646    0.9615   -0.1242 C   0  0  0  0  0  0  0  0  0  0  0  0
    1.4189    0.6634   -0.0745 C   0  0  0  0  0  0  0  0  0  0  0  0
    0.0801    0.3266   -0.0028 C   0  0  0  0  0  0  0  0  0  0  0  0
   -1.3260   -0.0397    0.0659 C   0  0  0  0  0  0  0  0  0  0  0  0
   -1.4386   -1.3775    0.7029 C   0  0  0  0  0  0  0  0  0  0  0  0
   -1.9067    0.0477   -1.1760 O   0  0  0  0  0  0  0  0  0  0  0  0
    4.8751    1.4905   -0.1880 H   0  0  0  0  0  0  0  0  0  0  0  0
   -1.8004    0.7420    0.7706 H   0  0  0  0  0  0  0  0  0  0  0  0
   -2.3402   -1.9436    0.3265 H   0  0  0  0  0  0  0  0  0  0  0  0
   -0.4895   -1.9006    0.5371 H   0  0  0  0  0  0  0  0  0  0  0  0
   -1.5356   -1.2055    1.8172 H   0  0  0  0  0  0  0  0  0  0  0  0
   -1.8876    1.0358   -1.4302 H   0  0  0  0  0  0  0  0  0  0  0  0
  1  2  3  0
  2  3  1  0
  3  4  3  0
  4  5  1  0
  5  6  1  0
  5  7  1  0
  1  8  1  0
  5  9  1  0
  6 10  1  0
  6 11  1  0
  6 12  1  0
  7 13  1  0
M  END
