
     RDKit          3D

 18 18  0  0  0  0  0  0  0  0999 V2000
    3.3089    0.3858    1.4441 C   0  0  0  0  0  0  0  0  0  0  0  0
    2.2769    0.3273    1.0407 C   0  0  0  0  0  0  0  0  0  0  0  0
    0.9204    0.2250    0.5078 C   0  0  0  0  0  0  0  0  0  0  0  0
   -0.0651   -0.5068    1.0015 C   0  0  0  0  0  0  0  0  0  0  0  0
   -1.3044   -0.3560    0.1755 C   0  0  0  0  0  0  0  0  0  0  0  0
   -1.2761   -1.4063   -0.8925 C   0  0  0  0  0  0  0  0  0  0  0  0
   -1.0713    1.0413   -0.3786 C   0  0  0  0  0  0  0  0  0  0  0  0
    0.4167    0.9144   -0.6800 C   0  0  0  0  0  0  0  0  0  0  0  0
    4.3782    0.4626    1.8503 H   0  0  0  0  0  0  0  0  0  0  0  0
   -0.0772   -1.1555    1.8611 H   0  0  0  0  0  0  0  0  0  0  0  0
   -2.2237   -0.3670    0.7587 H   0  0  0  0  0  0  0  0  0  0  0  0
   -0.7376   -1.0632   -1.7848 H   0  0  0  0  0  0  0  0  0  0  0  0
   -2.3340   -1.6253   -1.2218 H   0  0  0  0  0  0  0  0  0  0  0  0
   -0.7870   -2.3076   -0.4912 H   0  0  0  0  0  0  0  0  0  0  0  0
   -1.2155    1.8145    0.3724 H   0  0  0  0  0  0  0  0  0  0  0  0
   -1.6268    1.2461   -1.2847 H   0  0  0  0  0  0  0  0  0  0  0  0
    0.6120    0.4094   -1.6261 H   0  0  0  0  0  0  0  0  0  0  0  0
    0.8058    1.9613   -0.6523 H   0  0  0  0  0  0  0  0  0  0  0  0
  1  2  3  0
  2  3  1  0
  3  4  2  0
  4  5  1  0
  5  6  1  0
  5  7  1  0
  7  8  1  0
  8  3  1  0
  1  9  1  0
  4 10  1  0
  5 11  1  0
  6 12  1  0
  6 13  1  0
  6 14  1  0
  7 15  1  0
  7 16  1  0
  8 17  1  0
  8 18  1  0
M  END
