
     RDKit          3D

 18 17  0  0  0  0  0  0  0  0999 V2000
    1.9621    1.1084    1.8080 C   0  0  0  0  0  0  0  0  0  0  0  0
    1.1742   -0.0921    1.3205 C   0  0  0  0  0  0  0  0  0  0  0  0
    0.5349   -1.0908    0.9334 C   0  0  0  0  0  0  0  0  0  0  0  0
    0.0075   -2.0041    1.8538 O   0  0  0  0  0  0  0  0  0  0  0  0
   -0.7175   -0.5691    0.0557 C   0  0  0  0  0  0  0  0  0  0  0  0
   -0.0793    0.1001   -1.1288 C   0  0  0  0  0  0  0  0  0  0  0  0
   -1.0564    0.7213   -2.0548 C   0  0  0  0  0  0  0  0  0  0  0  0
    0.8005    1.0513   -0.6367 O   0  0  0  0  0  0  0  0  0  0  0  0
    2.5273    1.9373    2.1455 H   0  0  0  0  0  0  0  0  0  0  0  0
    1.0995   -1.7403    0.1808 H   0  0  0  0  0  0  0  0  0  0  0  0
   -0.9779   -2.1650    1.7471 H   0  0  0  0  0  0  0  0  0  0  0  0
   -1.3425   -1.3944   -0.2148 H   0  0  0  0  0  0  0  0  0  0  0  0
   -1.2115    0.1564    0.6915 H   0  0  0  0  0  0  0  0  0  0  0  0
    0.4468   -0.7085   -1.7512 H   0  0  0  0  0  0  0  0  0  0  0  0
   -0.5076    0.9744   -3.0208 H   0  0  0  0  0  0  0  0  0  0  0  0
   -1.8836    0.0673   -2.2716 H   0  0  0  0  0  0  0  0  0  0  0  0
   -1.3364    1.7015   -1.6277 H   0  0  0  0  0  0  0  0  0  0  0  0
    0.5599    1.9461   -0.9790 H   0  0  0  0  0  0  0  0  0  0  0  0
  1  2  3  0
  2  3  1  0
  3  4  1  0
  3  5  1  0
  5  6  1  0
  6  7  1  0
  6  8  1  0
  1  9  1  0
  3 10  1  0
  4 11  1  0
  5 12  1  0
  5 13  1  0
  6 14  1  0
  7 15  1  0
  7 16  1  0
  7 17  1  0
  8 18  1  0
M  END
