
     RDKit          3D

 15 15  0  0  0  0  0  0  0  0999 V2000
    1.9170   -1.9775   -0.5072 C   0  0  0  0  0  0  0  0  0  0  0  0
    1.1516   -1.1807   -0.4244 C   0  0  0  0  0  0  0  0  0  0  0  0
    0.1619   -0.1553   -0.3215 C   0  0  0  0  0  0  0  0  0  0  0  0
    0.9540    1.1726   -0.3592 C   0  0  0  0  0  0  0  0  0  0  0  0
    0.4425    2.0703   -1.0398 O   0  0  0  0  0  0  0  0  0  0  0  0
   -1.2236   -0.1056   -0.6476 C   0  0  0  0  0  0  0  0  0  0  0  0
   -1.3173    0.7041    0.7522 C   0  0  0  0  0  0  0  0  0  0  0  0
   -0.4041   -0.2159    1.2537 C   0  0  0  0  0  0  0  0  0  0  0  0
    0.2333   -0.9987    2.0172 O   0  0  0  0  0  0  0  0  0  0  0  0
    2.8071   -2.8851   -0.6206 H   0  0  0  0  0  0  0  0  0  0  0  0
    1.8201    1.2468    0.1687 H   0  0  0  0  0  0  0  0  0  0  0  0
   -1.5909    0.6761   -1.3868 H   0  0  0  0  0  0  0  0  0  0  0  0
   -1.8922   -0.9407   -0.5101 H   0  0  0  0  0  0  0  0  0  0  0  0
   -2.3125    0.8709    1.0518 H   0  0  0  0  0  0  0  0  0  0  0  0
   -0.7469    1.7188    0.5737 H   0  0  0  0  0  0  0  0  0  0  0  0
  1  2  3  0
  2  3  1  0
  3  4  1  0
  4  5  2  0
  3  6  1  0
  6  7  1  0
  7  8  1  0
  8  9  2  0
  8  3  1  0
  1 10  1  0
  4 11  1  0
  6 12  1  0
  6 13  1  0
  7 14  1  0
  7 15  1  0
M  END
