
     RDKit          3D

 19 20  0  0  0  0  0  0  0  0999 V2000
   -1.0398    2.9378   -0.3802 C   0  0  0  0  0  0  0  0  0  0  0  0
   -0.5978    1.8397   -0.1462 C   0  0  0  0  0  0  0  0  0  0  0  0
   -0.0784    0.4920    0.1258 C   0  0  0  0  0  0  0  0  0  0  0  0
    1.4153    0.5610    0.3356 C   0  0  0  0  0  0  0  0  0  0  0  0
    2.0053   -0.8021    0.6204 C   0  0  0  0  0  0  0  0  0  0  0  0
   -0.7828   -0.0778    1.1845 O   0  0  0  0  0  0  0  0  0  0  0  0
   -1.6820   -0.5574    0.2288 C   0  0  0  0  0  0  0  0  0  0  0  0
   -1.2273   -1.7670   -0.4924 C   0  0  0  0  0  0  0  0  0  0  0  0
   -0.5613   -0.5100   -0.8567 C   0  0  0  0  0  0  0  0  0  0  0  0
   -1.4346    3.9095   -0.5726 H   0  0  0  0  0  0  0  0  0  0  0  0
    1.6394    1.2166    1.1802 H   0  0  0  0  0  0  0  0  0  0  0  0
    1.9155    0.9458   -0.5719 H   0  0  0  0  0  0  0  0  0  0  0  0
    2.2793   -1.3512   -0.2867 H   0  0  0  0  0  0  0  0  0  0  0  0
    1.3656   -1.3761    1.3184 H   0  0  0  0  0  0  0  0  0  0  0  0
    2.9661   -0.6108    1.1735 H   0  0  0  0  0  0  0  0  0  0  0  0
   -2.6017   -0.0239    0.0054 H   0  0  0  0  0  0  0  0  0  0  0  0
   -1.9822   -2.2194   -1.1723 H   0  0  0  0  0  0  0  0  0  0  0  0
   -0.7190   -2.5338    0.1503 H   0  0  0  0  0  0  0  0  0  0  0  0
   -0.8796   -0.0732   -1.8440 H   0  0  0  0  0  0  0  0  0  0  0  0
  1  2  3  0
  2  3  1  0
  3  4  1  0
  4  5  1  0
  3  6  1  0
  6  7  1  0
  7  8  1  0
  8  9  1  0
  9  3  1  0
  9  7  1  0
  1 10  1  0
  4 11  1  0
  4 12  1  0
  5 13  1  0
  5 14  1  0
  5 15  1  0
  7 16  1  0
  8 17  1  0
  8 18  1  0
  9 19  1  0
M  END
