
     RDKit          3D

 19 19  0  0  0  0  0  0  0  0999 V2000
   -1.9372   -2.2127   -0.3114 C   0  0  0  0  0  0  0  0  0  0  0  0
   -1.2938   -1.2180   -0.5369 C   0  0  0  0  0  0  0  0  0  0  0  0
   -0.5035   -0.0302   -0.8218 C   0  0  0  0  0  0  0  0  0  0  0  0
    0.9273   -0.1137   -0.3581 C   0  0  0  0  0  0  0  0  0  0  0  0
    1.4134   -1.4493    0.0634 C   0  0  0  0  0  0  0  0  0  0  0  0
    0.5654    0.7864    0.7905 C   0  0  0  0  0  0  0  0  0  0  0  0
    1.3264    1.9317    0.9308 O   0  0  0  0  0  0  0  0  0  0  0  0
   -0.7687    1.1438    0.1259 C   0  0  0  0  0  0  0  0  0  0  0  0
   -0.7508    2.3783   -0.4997 O   0  0  0  0  0  0  0  0  0  0  0  0
   -2.5100   -3.1028   -0.1068 H   0  0  0  0  0  0  0  0  0  0  0  0
   -0.5464    0.2452   -1.8832 H   0  0  0  0  0  0  0  0  0  0  0  0
    1.6402    0.3957   -1.0445 H   0  0  0  0  0  0  0  0  0  0  0  0
    2.4692   -1.5988   -0.2792 H   0  0  0  0  0  0  0  0  0  0  0  0
    1.4012   -1.5001    1.1713 H   0  0  0  0  0  0  0  0  0  0  0  0
    0.7744   -2.2834   -0.2936 H   0  0  0  0  0  0  0  0  0  0  0  0
    0.3537    0.2381    1.7502 H   0  0  0  0  0  0  0  0  0  0  0  0
    0.7804    2.7234    1.1708 H   0  0  0  0  0  0  0  0  0  0  0  0
   -1.6453    1.0036    0.7530 H   0  0  0  0  0  0  0  0  0  0  0  0
   -1.6961    2.6627   -0.6209 H   0  0  0  0  0  0  0  0  0  0  0  0
  1  2  3  0
  2  3  1  0
  3  4  1  0
  4  5  1  0
  4  6  1  0
  6  7  1  0
  6  8  1  0
  8  9  1  0
  8  3  1  0
  1 10  1  0
  3 11  1  0
  4 12  1  0
  5 13  1  0
  5 14  1  0
  5 15  1  0
  6 16  1  0
  7 17  1  0
  8 18  1  0
  9 19  1  0
M  END
