
     RDKit          3D

 21 21  0  0  0  0  0  0  0  0999 V2000
    3.0891   -1.1245    0.1396 C   0  0  0  0  0  0  0  0  0  0  0  0
    2.1300   -0.4419   -0.1223 C   0  0  0  0  0  0  0  0  0  0  0  0
    0.9837    0.4001   -0.4394 C   0  0  0  0  0  0  0  0  0  0  0  0
    1.2657    1.8772   -0.3490 C   0  0  0  0  0  0  0  0  0  0  0  0
    0.1555    0.0249   -1.6770 C   0  0  0  0  0  0  0  0  0  0  0  0
   -0.4047   -0.1124   -0.2592 C   0  0  0  0  0  0  0  0  0  0  0  0
   -0.6238   -1.5307    0.1725 C   0  0  0  0  0  0  0  0  0  0  0  0
   -1.3330    0.8355    0.1374 O   0  0  0  0  0  0  0  0  0  0  0  0
   -2.6067    0.3124    0.2911 C   0  0  0  0  0  0  0  0  0  0  0  0
    3.9376   -1.7092    0.3781 H   0  0  0  0  0  0  0  0  0  0  0  0
    2.1798    2.0798   -0.9766 H   0  0  0  0  0  0  0  0  0  0  0  0
    1.4594    2.2300    0.6731 H   0  0  0  0  0  0  0  0  0  0  0  0
    0.4317    2.4307   -0.8233 H   0  0  0  0  0  0  0  0  0  0  0  0
   -0.2923    0.8297   -2.2737 H   0  0  0  0  0  0  0  0  0  0  0  0
    0.5081   -0.8972   -2.1828 H   0  0  0  0  0  0  0  0  0  0  0  0
   -1.6495   -1.8733   -0.1221 H   0  0  0  0  0  0  0  0  0  0  0  0
    0.0795   -2.2142   -0.3262 H   0  0  0  0  0  0  0  0  0  0  0  0
   -0.4774   -1.6748    1.2715 H   0  0  0  0  0  0  0  0  0  0  0  0
   -3.2620    1.1543    0.6081 H   0  0  0  0  0  0  0  0  0  0  0  0
   -2.6224   -0.4192    1.1487 H   0  0  0  0  0  0  0  0  0  0  0  0
   -2.9486   -0.1773   -0.6352 H   0  0  0  0  0  0  0  0  0  0  0  0
  1  2  3  0
  2  3  1  0
  3  4  1  0
  3  5  1  0
  5  6  1  0
  6  7  1  0
  6  8  1  0
  8  9  1  0
  6  3  1  0
  1 10  1  0
  4 11  1  0
  4 12  1  0
  4 13  1  0
  5 14  1  0
  5 15  1  0
  7 16  1  0
  7 17  1  0
  7 18  1  0
  9 19  1  0
  9 20  1  0
  9 21  1  0
M  END
