
     RDKit          3D

 13 13  0  0  0  0  0  0  0  0999 V2000
    2.8580    0.7489   -0.3378 C   0  0  0  0  0  0  0  0  0  0  0  0
    1.8769    0.1648    0.0098 C   0  0  0  0  0  0  0  0  0  0  0  0
    0.6801   -0.5376    0.4281 C   0  0  0  0  0  0  0  0  0  0  0  0
    0.0735   -0.9891   -0.9132 O   0  0  0  0  0  0  0  0  0  0  0  0
   -0.6668   -0.1425    0.0288 C   0  0  0  0  0  0  0  0  0  0  0  0
   -1.8811   -1.0380    0.2798 C   0  0  0  0  0  0  0  0  0  0  0  0
   -2.8318   -0.9952   -0.3961 O   0  0  0  0  0  0  0  0  0  0  0  0
   -0.8595    1.2296   -0.4852 C   0  0  0  0  0  0  0  0  0  0  0  0
   -1.1213    2.1091    0.3042 O   0  0  0  0  0  0  0  0  0  0  0  0
    3.6430    1.2353   -0.6221 H   0  0  0  0  0  0  0  0  0  0  0  0
    0.8192   -1.4915    1.0375 H   0  0  0  0  0  0  0  0  0  0  0  0
   -1.8113   -1.7119    1.1043 H   0  0  0  0  0  0  0  0  0  0  0  0
   -0.7789    1.4180   -1.5830 H   0  0  0  0  0  0  0  0  0  0  0  0
  1  2  3  0
  2  3  1  0
  3  4  1  0
  4  5  1  0
  5  6  1  0
  6  7  2  0
  5  8  1  0
  8  9  2  0
  5  3  1  0
  1 10  1  0
  3 11  1  0
  6 12  1  0
  8 13  1  0
M  END
