
     RDKit          3D

 21 20  0  0  0  0  0  0  0  0999 V2000
    0.2968    3.3093   -0.1654 C   0  0  0  0  0  0  0  0  0  0  0  0
    0.2509    2.2666   -0.8062 C   0  0  0  0  0  0  0  0  0  0  0  0
    0.1760    1.0160   -1.5628 C   0  0  0  0  0  0  0  0  0  0  0  0
   -0.4377   -0.0371   -0.6571 C   0  0  0  0  0  0  0  0  0  0  0  0
   -1.8141    0.4223   -0.2485 C   0  0  0  0  0  0  0  0  0  0  0  0
   -1.7981    1.5390    0.5601 O   0  0  0  0  0  0  0  0  0  0  0  0
    0.3640   -0.3697    0.4004 O   0  0  0  0  0  0  0  0  0  0  0  0
    0.7380   -1.7127    0.3401 C   0  0  0  0  0  0  0  0  0  0  0  0
    1.6179   -2.1093    1.4850 C   0  0  0  0  0  0  0  0  0  0  0  0
    0.3196    4.2081    0.3955 H   0  0  0  0  0  0  0  0  0  0  0  0
    1.2340    0.7251   -1.8113 H   0  0  0  0  0  0  0  0  0  0  0  0
   -0.4284    1.1181   -2.4717 H   0  0  0  0  0  0  0  0  0  0  0  0
   -0.5854   -0.9399   -1.3012 H   0  0  0  0  0  0  0  0  0  0  0  0
   -2.3732   -0.3954    0.2580 H   0  0  0  0  0  0  0  0  0  0  0  0
   -2.3875    0.6763   -1.1619 H   0  0  0  0  0  0  0  0  0  0  0  0
   -1.7232    1.2050    1.5036 H   0  0  0  0  0  0  0  0  0  0  0  0
   -0.1965   -2.3144    0.3942 H   0  0  0  0  0  0  0  0  0  0  0  0
    1.2341   -1.9739   -0.5995 H   0  0  0  0  0  0  0  0  0  0  0  0
    2.6831   -1.8249    1.3412 H   0  0  0  0  0  0  0  0  0  0  0  0
    1.5298   -3.2099    1.6722 H   0  0  0  0  0  0  0  0  0  0  0  0
    1.3000   -1.5984    2.4355 H   0  0  0  0  0  0  0  0  0  0  0  0
  1  2  3  0
  2  3  1  0
  3  4  1  0
  4  5  1  0
  5  6  1  0
  4  7  1  0
  7  8  1  0
  8  9  1  0
  1 10  1  0
  3 11  1  0
  3 12  1  0
  4 13  1  0
  5 14  1  0
  5 15  1  0
  6 16  1  0
  8 17  1  0
  8 18  1  0
  9 19  1  0
  9 20  1  0
  9 21  1  0
M  END
