
     RDKit          3D

 15 14  0  0  0  0  0  0  0  0999 V2000
    3.2774    2.1129    1.3962 C   0  0  0  0  0  0  0  0  0  0  0  0
    2.0154    1.7723    0.8090 C   0  0  0  0  0  0  0  0  0  0  0  0
    1.6083    1.6611    0.6229 C   0  0  0  0  0  0  0  0  0  0  0  0
    0.2954    1.3067   -0.0058 C   0  0  0  0  0  0  0  0  0  0  0  0
   -0.9431    0.9467   -0.6015 C   0  0  0  0  0  0  0  0  0  0  0  0
   -1.5628   -0.2952    0.0261 C   0  0  0  0  0  0  0  0  0  0  0  0
   -2.6423   -0.2454    0.5886 O   0  0  0  0  0  0  0  0  0  0  0  0
   -0.8963   -1.5794   -0.0113 C   0  0  0  0  0  0  0  0  0  0  0  0
   -1.6253   -2.6002    0.7112 O   0  0  0  0  0  0  0  0  0  0  0  0
    4.6251    2.4731    2.0162 H   0  0  0  0  0  0  0  0  0  0  0  0
   -1.3362    1.3519   -1.4622 H   0  0  0  0  0  0  0  0  0  0  0  0
   -0.2241    0.0614   -1.4795 H   0  0  0  0  0  0  0  0  0  0  0  0
   -0.8908   -2.0738   -1.0304 H   0  0  0  0  0  0  0  0  0  0  0  0
    0.1447   -1.6347    0.2985 H   0  0  0  0  0  0  0  0  0  0  0  0
   -1.8455   -3.2574    0.0516 H   0  0  0  0  0  0  0  0  0  0  0  0
  1  2  3  0
  2  3  1  0
  3  4  3  0
  4  5  1  0
  5  6  1  0
  6  7  2  0
  6  8  1  0
  8  9  1  0
  1 10  1  0
  5 11  1  0
  5 12  1  0
  8 13  1  0
  8 14  1  0
  9 15  1  0
M  END
