
     RDKit          3D

 21 22  0  0  0  0  0  0  0  0999 V2000
   -0.0344    2.9280   -0.5929 C   0  0  0  0  0  0  0  0  0  0  0  0
   -0.0439    1.7414   -0.3035 C   0  0  0  0  0  0  0  0  0  0  0  0
   -0.0805    0.3204    0.0429 C   0  0  0  0  0  0  0  0  0  0  0  0
    1.1163   -0.4590   -0.4591 C   0  0  0  0  0  0  0  0  0  0  0  0
    2.4093    0.0483    0.0857 C   0  0  0  0  0  0  0  0  0  0  0  0
   -0.5084    0.0154    1.4469 C   0  0  0  0  0  0  0  0  0  0  0  0
   -1.7796   -0.5862    0.9156 C   0  0  0  0  0  0  0  0  0  0  0  0
   -1.6068   -1.7051   -0.0446 C   0  0  0  0  0  0  0  0  0  0  0  0
   -1.3506   -0.3059   -0.4509 C   0  0  0  0  0  0  0  0  0  0  0  0
   -0.0351    3.9614   -0.8282 H   0  0  0  0  0  0  0  0  0  0  0  0
    1.1145   -0.3370   -1.5761 H   0  0  0  0  0  0  0  0  0  0  0  0
    1.0269   -1.5355   -0.2352 H   0  0  0  0  0  0  0  0  0  0  0  0
    2.3856    1.1175    0.3833 H   0  0  0  0  0  0  0  0  0  0  0  0
    3.1894   -0.0648   -0.7070 H   0  0  0  0  0  0  0  0  0  0  0  0
    2.7701   -0.6064    0.9294 H   0  0  0  0  0  0  0  0  0  0  0  0
    0.1103   -0.7384    1.9843 H   0  0  0  0  0  0  0  0  0  0  0  0
   -0.7298    0.9308    2.0493 H   0  0  0  0  0  0  0  0  0  0  0  0
   -2.7443   -0.3284    1.3476 H   0  0  0  0  0  0  0  0  0  0  0  0
   -0.7746   -2.4069    0.1598 H   0  0  0  0  0  0  0  0  0  0  0  0
   -2.4662   -2.1960   -0.5367 H   0  0  0  0  0  0  0  0  0  0  0  0
   -1.9684    0.2063   -1.2085 H   0  0  0  0  0  0  0  0  0  0  0  0
  1  2  3  0
  2  3  1  0
  3  4  1  0
  4  5  1  0
  3  6  1  0
  6  7  1  0
  7  8  1  0
  8  9  1  0
  9  3  1  0
  9  7  1  0
  1 10  1  0
  4 11  1  0
  4 12  1  0
  5 13  1  0
  5 14  1  0
  5 15  1  0
  6 16  1  0
  6 17  1  0
  7 18  1  0
  8 19  1  0
  8 20  1  0
  9 21  1  0
M  END
