
     RDKit          3D

 15 15  0  0  0  0  0  0  0  0999 V2000
    2.4533   -1.8617   -1.0495 C   0  0  0  0  0  0  0  0  0  0  0  0
    1.7240   -1.0696   -0.5067 C   0  0  0  0  0  0  0  0  0  0  0  0
    0.8143   -0.1073    0.1396 C   0  0  0  0  0  0  0  0  0  0  0  0
   -0.4397   -0.8154    0.5084 C   0  0  0  0  0  0  0  0  0  0  0  0
   -1.5570   -0.1238    0.6736 C   0  0  0  0  0  0  0  0  0  0  0  0
   -1.5957    1.3729    0.4972 C   0  0  0  0  0  0  0  0  0  0  0  0
   -0.6141    1.7906   -0.4345 O   0  0  0  0  0  0  0  0  0  0  0  0
    0.4629    0.9712   -0.7938 C   0  0  0  0  0  0  0  0  0  0  0  0
    1.1266    1.1107   -1.8498 O   0  0  0  0  0  0  0  0  0  0  0  0
    3.1001   -2.5792   -1.5240 H   0  0  0  0  0  0  0  0  0  0  0  0
    1.3116    0.2821    1.0599 H   0  0  0  0  0  0  0  0  0  0  0  0
   -0.4197   -1.8720    0.6345 H   0  0  0  0  0  0  0  0  0  0  0  0
   -2.4774   -0.6214    0.9417 H   0  0  0  0  0  0  0  0  0  0  0  0
   -2.5940    1.7274    0.2245 H   0  0  0  0  0  0  0  0  0  0  0  0
   -1.2951    1.7954    1.4789 H   0  0  0  0  0  0  0  0  0  0  0  0
  1  2  3  0
  2  3  1  0
  3  4  1  0
  4  5  2  0
  5  6  1  0
  6  7  1  0
  7  8  1  0
  8  9  2  0
  8  3  1  0
  1 10  1  0
  3 11  1  0
  4 12  1  0
  5 13  1  0
  6 14  1  0
  6 15  1  0
M  END
