
     RDKit          3D

 21 21  0  0  0  0  0  0  0  0999 V2000
    3.2738   -1.1685    0.2669 C   0  0  0  0  0  0  0  0  0  0  0  0
    2.0960   -1.4128    0.0739 C   0  0  0  0  0  0  0  0  0  0  0  0
    0.6759   -1.7076   -0.1329 C   0  0  0  0  0  0  0  0  0  0  0  0
    0.0154   -0.5298   -0.8655 C   0  0  0  0  0  0  0  0  0  0  0  0
    0.1412    0.7249   -0.0612 C   0  0  0  0  0  0  0  0  0  0  0  0
   -0.5173    1.8784   -0.8009 C   0  0  0  0  0  0  0  0  0  0  0  0
   -1.5816    1.9166    0.0732 O   0  0  0  0  0  0  0  0  0  0  0  0
   -0.9149    1.0421    0.9192 C   0  0  0  0  0  0  0  0  0  0  0  0
   -1.7546   -0.0813    1.4517 C   0  0  0  0  0  0  0  0  0  0  0  0
    4.3036   -0.9630    0.4488 H   0  0  0  0  0  0  0  0  0  0  0  0
    0.1917   -1.7806    0.8782 H   0  0  0  0  0  0  0  0  0  0  0  0
    0.5432   -2.6422   -0.6843 H   0  0  0  0  0  0  0  0  0  0  0  0
   -1.0088   -0.7830   -1.1567 H   0  0  0  0  0  0  0  0  0  0  0  0
    0.5992   -0.4118   -1.8025 H   0  0  0  0  0  0  0  0  0  0  0  0
    1.1703    0.9137    0.2697 H   0  0  0  0  0  0  0  0  0  0  0  0
   -0.8097    1.6526   -1.8300 H   0  0  0  0  0  0  0  0  0  0  0  0
    0.1558    2.7654   -0.7513 H   0  0  0  0  0  0  0  0  0  0  0  0
   -0.4880    1.6299    1.7831 H   0  0  0  0  0  0  0  0  0  0  0  0
   -2.7649    0.3201    1.7633 H   0  0  0  0  0  0  0  0  0  0  0  0
   -1.3433   -0.5667    2.3335 H   0  0  0  0  0  0  0  0  0  0  0  0
   -1.9829   -0.7966    0.6340 H   0  0  0  0  0  0  0  0  0  0  0  0
  1  2  3  0
  2  3  1  0
  3  4  1  0
  4  5  1  0
  5  6  1  0
  6  7  1  0
  7  8  1  0
  8  9  1  0
  8  5  1  0
  1 10  1  0
  3 11  1  0
  3 12  1  0
  4 13  1  0
  4 14  1  0
  5 15  1  0
  6 16  1  0
  6 17  1  0
  8 18  1  0
  9 19  1  0
  9 20  1  0
  9 21  1  0
M  END
