
     RDKit          3D

 15 15  0  0  0  0  0  0  0  0999 V2000
    3.8341    1.0788    0.2116 C   0  0  0  0  0  0  0  0  0  0  0  0
    2.8144    0.4357    0.1521 C   0  0  0  0  0  0  0  0  0  0  0  0
    1.5983   -0.3430    0.1039 C   0  0  0  0  0  0  0  0  0  0  0  0
    1.5552   -1.3257   -0.6541 O   0  0  0  0  0  0  0  0  0  0  0  0
    0.5150    0.0162    0.8947 O   0  0  0  0  0  0  0  0  0  0  0  0
   -0.6688   -0.7188    0.8658 C   0  0  0  0  0  0  0  0  0  0  0  0
   -1.2154   -0.6904   -0.5409 C   0  0  0  0  0  0  0  0  0  0  0  0
   -2.5737    0.0041   -0.6544 C   0  0  0  0  0  0  0  0  0  0  0  0
   -2.3982   -1.3563   -0.8298 O   0  0  0  0  0  0  0  0  0  0  0  0
    4.7398    1.6603    0.2480 H   0  0  0  0  0  0  0  0  0  0  0  0
   -0.5272   -1.7734    1.2214 H   0  0  0  0  0  0  0  0  0  0  0  0
   -1.3726   -0.2628    1.5988 H   0  0  0  0  0  0  0  0  0  0  0  0
   -0.5376   -0.5986   -1.3982 H   0  0  0  0  0  0  0  0  0  0  0  0
   -3.0990    0.2731    0.2843 H   0  0  0  0  0  0  0  0  0  0  0  0
   -2.6643    0.6855   -1.5033 H   0  0  0  0  0  0  0  0  0  0  0  0
  1  2  3  0
  2  3  1  0
  3  4  2  0
  3  5  1  0
  5  6  1  0
  6  7  1  0
  7  8  1  0
  8  9  1  0
  9  7  1  0
  1 10  1  0
  6 11  1  0
  6 12  1  0
  7 13  1  0
  8 14  1  0
  8 15  1  0
M  END
