
     RDKit          3D

 19 19  0  0  0  0  0  0  0  0999 V2000
    2.8961    1.3141    0.0663 C   0  0  0  0  0  0  0  0  0  0  0  0
    2.0875    0.4308   -0.1061 C   0  0  0  0  0  0  0  0  0  0  0  0
    1.1167   -0.6405   -0.3379 C   0  0  0  0  0  0  0  0  0  0  0  0
    1.6502   -1.6766   -1.0704 O   0  0  0  0  0  0  0  0  0  0  0  0
    0.5546   -1.1065    0.9795 C   0  0  0  0  0  0  0  0  0  0  0  0
   -0.5591   -0.4565    1.2811 C   0  0  0  0  0  0  0  0  0  0  0  0
   -0.8360    0.5006    0.1914 C   0  0  0  0  0  0  0  0  0  0  0  0
   -2.3123    0.7369   -0.0161 C   0  0  0  0  0  0  0  0  0  0  0  0
   -0.1566   -0.0746   -0.9977 C   0  0  0  0  0  0  0  0  0  0  0  0
    3.6034    2.1038    0.2183 H   0  0  0  0  0  0  0  0  0  0  0  0
    0.9713   -2.3512   -1.2235 H   0  0  0  0  0  0  0  0  0  0  0  0
    1.0346   -1.8836    1.5789 H   0  0  0  0  0  0  0  0  0  0  0  0
   -1.1597   -0.6228    2.2003 H   0  0  0  0  0  0  0  0  0  0  0  0
   -0.3268    1.4674    0.4819 H   0  0  0  0  0  0  0  0  0  0  0  0
   -2.8412    0.5267    0.9452 H   0  0  0  0  0  0  0  0  0  0  0  0
   -2.7449    0.1156   -0.8179 H   0  0  0  0  0  0  0  0  0  0  0  0
   -2.4490    1.8233   -0.1975 H   0  0  0  0  0  0  0  0  0  0  0  0
    0.2078    0.6778   -1.7258 H   0  0  0  0  0  0  0  0  0  0  0  0
   -0.7364   -0.8846   -1.4499 H   0  0  0  0  0  0  0  0  0  0  0  0
  1  2  3  0
  2  3  1  0
  3  4  1  0
  3  5  1  0
  5  6  2  0
  6  7  1  0
  7  8  1  0
  7  9  1  0
  9  3  1  0
  1 10  1  0
  4 11  1  0
  5 12  1  0
  6 13  1  0
  7 14  1  0
  8 15  1  0
  8 16  1  0
  8 17  1  0
  9 18  1  0
  9 19  1  0
M  END
