
     RDKit          3D

 17 16  0  0  0  0  0  0  0  0999 V2000
    4.0093   -0.9489   -1.1380 C   0  0  0  0  0  0  0  0  0  0  0  0
    2.9669   -0.7747   -0.3292 C   0  0  0  0  0  0  0  0  0  0  0  0
    1.8880   -0.6106    0.4836 C   0  0  0  0  0  0  0  0  0  0  0  0
    1.9296   -0.7152    1.7551 O   0  0  0  0  0  0  0  0  0  0  0  0
    0.5640   -0.2917    0.0163 O   0  0  0  0  0  0  0  0  0  0  0  0
   -0.4080   -0.1313    1.0701 C   0  0  0  0  0  0  0  0  0  0  0  0
   -1.7125    0.1183    0.3753 C   0  0  0  0  0  0  0  0  0  0  0  0
   -1.5515    1.3440   -0.5044 C   0  0  0  0  0  0  0  0  0  0  0  0
   -1.9686   -1.0292   -0.4197 O   0  0  0  0  0  0  0  0  0  0  0  0
    4.8220   -1.0914   -1.7500 H   0  0  0  0  0  0  0  0  0  0  0  0
   -0.0940    0.8443    1.5487 H   0  0  0  0  0  0  0  0  0  0  0  0
   -0.4032   -0.9142    1.8071 H   0  0  0  0  0  0  0  0  0  0  0  0
   -2.4873    0.2752    1.1223 H   0  0  0  0  0  0  0  0  0  0  0  0
   -1.7267    1.0534   -1.5752 H   0  0  0  0  0  0  0  0  0  0  0  0
   -0.5307    1.7923   -0.4082 H   0  0  0  0  0  0  0  0  0  0  0  0
   -2.3300    2.1041   -0.2378 H   0  0  0  0  0  0  0  0  0  0  0  0
   -2.9673   -1.0243   -0.4948 H   0  0  0  0  0  0  0  0  0  0  0  0
  1  2  3  0
  2  3  1  0
  3  4  2  0
  3  5  1  0
  5  6  1  0
  6  7  1  0
  7  8  1  0
  7  9  1  0
  1 10  1  0
  6 11  1  0
  6 12  1  0
  7 13  1  0
  8 14  1  0
  8 15  1  0
  8 16  1  0
  9 17  1  0
M  END
