
     RDKit          3D

 17 18  0  0  0  0  0  0  0  0999 V2000
    3.1622    0.9304    2.2508 C   0  0  0  0  0  0  0  0  0  0  0  0
    2.3471    0.9337    1.3328 C   0  0  0  0  0  0  0  0  0  0  0  0
    1.3632    0.9568    0.2501 C   0  0  0  0  0  0  0  0  0  0  0  0
    0.2466    1.9012    0.4857 O   0  0  0  0  0  0  0  0  0  0  0  0
    0.0582    0.4273    0.4524 C   0  0  0  0  0  0  0  0  0  0  0  0
   -0.8205    0.1039   -0.7261 C   0  0  0  0  0  0  0  0  0  0  0  0
   -2.2042   -0.4462   -0.3299 C   0  0  0  0  0  0  0  0  0  0  0  0
   -1.2371   -1.2792   -1.0332 C   0  0  0  0  0  0  0  0  0  0  0  0
   -0.6429   -2.3487   -0.3258 O   0  0  0  0  0  0  0  0  0  0  0  0
    3.8638    0.9236    3.0435 H   0  0  0  0  0  0  0  0  0  0  0  0
    1.7494    1.0995   -0.7780 H   0  0  0  0  0  0  0  0  0  0  0  0
   -0.2933    0.1287    1.4576 H   0  0  0  0  0  0  0  0  0  0  0  0
   -0.7854    0.8260   -1.5879 H   0  0  0  0  0  0  0  0  0  0  0  0
   -2.3778   -0.6681    0.7391 H   0  0  0  0  0  0  0  0  0  0  0  0
   -3.0661    0.0246   -0.8488 H   0  0  0  0  0  0  0  0  0  0  0  0
   -1.3887   -1.5264   -2.0946 H   0  0  0  0  0  0  0  0  0  0  0  0
    0.0254   -1.9873    0.3146 H   0  0  0  0  0  0  0  0  0  0  0  0
  1  2  3  0
  2  3  1  0
  3  4  1  0
  4  5  1  0
  5  6  1  0
  6  7  1  0
  7  8  1  0
  8  9  1  0
  5  3  1  0
  8  6  1  0
  1 10  1  0
  3 11  1  0
  5 12  1  0
  6 13  1  0
  7 14  1  0
  7 15  1  0
  8 16  1  0
  9 17  1  0
M  END
