
     RDKit          3D

 17 18  0  0  0  0  0  0  0  0999 V2000
    2.6573    0.8737   -1.5252 C   0  0  0  0  0  0  0  0  0  0  0  0
    1.6333    0.5936   -0.9553 C   0  0  0  0  0  0  0  0  0  0  0  0
    0.4358    0.2905   -0.2994 C   0  0  0  0  0  0  0  0  0  0  0  0
    0.2299    0.9477    1.0364 C   0  0  0  0  0  0  0  0  0  0  0  0
   -0.7353    0.2344    1.6462 C   0  0  0  0  0  0  0  0  0  0  0  0
   -1.0900   -0.8929    0.7723 C   0  0  0  0  0  0  0  0  0  0  0  0
   -1.7453   -0.3028   -0.4404 C   0  0  0  0  0  0  0  0  0  0  0  0
   -0.8173    0.4401   -1.0406 C   0  0  0  0  0  0  0  0  0  0  0  0
    0.2973   -1.1781    0.1498 C   0  0  0  0  0  0  0  0  0  0  0  0
    3.5674    1.1101   -2.0457 H   0  0  0  0  0  0  0  0  0  0  0  0
    0.7668    1.8099    1.3905 H   0  0  0  0  0  0  0  0  0  0  0  0
   -1.1295    0.5051    2.6083 H   0  0  0  0  0  0  0  0  0  0  0  0
   -1.5609   -1.7392    1.1961 H   0  0  0  0  0  0  0  0  0  0  0  0
   -2.7777   -0.4431   -0.7799 H   0  0  0  0  0  0  0  0  0  0  0  0
   -0.9782    1.0421   -1.9204 H   0  0  0  0  0  0  0  0  0  0  0  0
    0.2215   -1.8484   -0.7047 H   0  0  0  0  0  0  0  0  0  0  0  0
    1.0250   -1.4428    0.9122 H   0  0  0  0  0  0  0  0  0  0  0  0
  1  2  3  0
  2  3  1  0
  3  4  1  0
  4  5  2  0
  5  6  1  0
  6  7  1  0
  7  8  2  0
  6  9  1  0
  8  3  1  0
  9  3  1  0
  1 10  1  0
  4 11  1  0
  5 12  1  0
  6 13  1  0
  7 14  1  0
  8 15  1  0
  9 16  1  0
  9 17  1  0
M  END
