
     RDKit          3D

 21 21  0  0  0  0  0  0  0  0999 V2000
    4.0598   -0.4557   -0.8413 C   0  0  0  0  0  0  0  0  0  0  0  0
    2.5758   -0.7199   -0.2890 C   0  0  0  0  0  0  0  0  0  0  0  0
    1.5686   -0.8898    0.1032 C   0  0  0  0  0  0  0  0  0  0  0  0
    0.4846    0.1076   -0.6045 C   0  0  0  0  0  0  0  0  0  0  0  0
   -0.8075    0.0764    0.0469 C   0  0  0  0  0  0  0  0  0  0  0  0
   -1.5113   -1.2571    0.2938 C   0  0  0  0  0  0  0  0  0  0  0  0
   -1.8247    1.0112   -0.6012 C   0  0  0  0  0  0  0  0  0  0  0  0
   -2.4003    1.1104    0.7168 O   0  0  0  0  0  0  0  0  0  0  0  0
   -1.0637    1.0516    1.1875 C   0  0  0  0  0  0  0  0  0  0  0  0
    5.1206   -0.2480   -1.2405 H   0  0  0  0  0  0  0  0  0  0  0  0
    1.6954    0.1427    1.1469 H   0  0  0  0  0  0  0  0  0  0  0  0
    1.1665   -1.4475    0.9247 H   0  0  0  0  0  0  0  0  0  0  0  0
    0.8927    1.1584   -0.5924 H   0  0  0  0  0  0  0  0  0  0  0  0
    0.4158   -0.1207   -1.6775 H   0  0  0  0  0  0  0  0  0  0  0  0
   -1.3052   -1.9794   -0.5140 H   0  0  0  0  0  0  0  0  0  0  0  0
   -1.0088   -1.6998    1.2239 H   0  0  0  0  0  0  0  0  0  0  0  0
   -2.5809   -1.0272    0.4731 H   0  0  0  0  0  0  0  0  0  0  0  0
   -2.4981    0.5525   -1.3628 H   0  0  0  0  0  0  0  0  0  0  0  0
   -1.3689    1.9904   -0.8186 H   0  0  0  0  0  0  0  0  0  0  0  0
   -0.6314    2.0457    1.0448 H   0  0  0  0  0  0  0  0  0  0  0  0
   -0.9789    0.5983    2.1877 H   0  0  0  0  0  0  0  0  0  0  0  0
  1  2  3  0
  2  3  1  0
  3  4  1  0
  4  5  1  0
  5  6  1  0
  5  7  1  0
  7  8  1  0
  8  9  1  0
  9  5  1  0
  1 10  1  0
  3 11  1  0
  3 12  1  0
  4 13  1  0
  4 14  1  0
  6 15  1  0
  6 16  1  0
  6 17  1  0
  7 18  1  0
  7 19  1  0
  9 20  1  0
  9 21  1  0
M  END
