
     RDKit          3D

 19 18  0  0  0  0  0  0  0  0999 V2000
    2.9278    0.3720    1.1260 C   0  0  0  0  0  0  0  0  0  0  0  0
    2.1420    0.3439    0.2106 C   0  0  0  0  0  0  0  0  0  0  0  0
    1.1695    0.3147   -0.8863 C   0  0  0  0  0  0  0  0  0  0  0  0
   -0.1464   -0.2589   -0.4368 C   0  0  0  0  0  0  0  0  0  0  0  0
   -0.0538   -1.6565    0.0723 C   0  0  0  0  0  0  0  0  0  0  0  0
   -1.0037   -0.2494   -1.5438 O   0  0  0  0  0  0  0  0  0  0  0  0
   -0.7623    0.5855    0.6202 C   0  0  0  0  0  0  0  0  0  0  0  0
   -2.0583    1.2736    0.4370 C   0  0  0  0  0  0  0  0  0  0  0  0
   -0.1501    0.6959    1.6696 O   0  0  0  0  0  0  0  0  0  0  0  0
    3.6202    0.4150    1.9358 H   0  0  0  0  0  0  0  0  0  0  0  0
    1.5857   -0.2534   -1.7257 H   0  0  0  0  0  0  0  0  0  0  0  0
    0.9624    1.3422   -1.2695 H   0  0  0  0  0  0  0  0  0  0  0  0
    0.6238   -2.3025   -0.5277 H   0  0  0  0  0  0  0  0  0  0  0  0
    0.2023   -1.7460    1.1398 H   0  0  0  0  0  0  0  0  0  0  0  0
   -1.0714   -2.1333   -0.0411 H   0  0  0  0  0  0  0  0  0  0  0  0
   -0.8476   -1.0359   -2.1090 H   0  0  0  0  0  0  0  0  0  0  0  0
   -2.3216    1.8247    1.3611 H   0  0  0  0  0  0  0  0  0  0  0  0
   -2.0073    1.9605   -0.4455 H   0  0  0  0  0  0  0  0  0  0  0  0
   -2.8110    0.5079    0.1758 H   0  0  0  0  0  0  0  0  0  0  0  0
  1  2  3  0
  2  3  1  0
  3  4  1  0
  4  5  1  0
  4  6  1  0
  4  7  1  0
  7  8  1  0
  7  9  2  0
  1 10  1  0
  3 11  1  0
  3 12  1  0
  5 13  1  0
  5 14  1  0
  5 15  1  0
  6 16  1  0
  8 17  1  0
  8 18  1  0
  8 19  1  0
M  END
