
     RDKit          3D

 15 16  0  0  0  0  0  0  0  0999 V2000
    3.0843   -0.0600   -0.1694 C   0  0  0  0  0  0  0  0  0  0  0  0
    1.9558   -0.4448   -0.1294 C   0  0  0  0  0  0  0  0  0  0  0  0
    0.5449   -0.8988   -0.0829 C   0  0  0  0  0  0  0  0  0  0  0  0
   -0.0687   -0.9286    1.3474 C   0  0  0  0  0  0  0  0  0  0  0  0
   -0.4794    0.0358    0.3485 C   0  0  0  0  0  0  0  0  0  0  0  0
   -0.3363    1.3923    0.4352 O   0  0  0  0  0  0  0  0  0  0  0  0
   -1.3149    1.5088   -0.5787 C   0  0  0  0  0  0  0  0  0  0  0  0
   -1.8184    0.1430   -0.2289 C   0  0  0  0  0  0  0  0  0  0  0  0
   -2.7965   -0.5431   -0.3424 O   0  0  0  0  0  0  0  0  0  0  0  0
    4.1039    0.2778   -0.2176 H   0  0  0  0  0  0  0  0  0  0  0  0
    0.2398   -1.7146   -0.7637 H   0  0  0  0  0  0  0  0  0  0  0  0
    0.6199   -0.7242    2.1775 H   0  0  0  0  0  0  0  0  0  0  0  0
   -0.7698   -1.7811    1.5515 H   0  0  0  0  0  0  0  0  0  0  0  0
   -2.0864    2.2539   -0.3922 H   0  0  0  0  0  0  0  0  0  0  0  0
   -0.8782    1.4837   -1.5916 H   0  0  0  0  0  0  0  0  0  0  0  0
  1  2  3  0
  2  3  1  0
  3  4  1  0
  4  5  1  0
  5  6  1  0
  6  7  1  0
  7  8  1  0
  8  9  2  0
  5  3  1  0
  8  5  1  0
  1 10  1  0
  3 11  1  0
  4 12  1  0
  4 13  1  0
  7 14  1  0
  7 15  1  0
M  END
