
     RDKit          3D

 14 14  0  0  0  0  0  0  0  0999 V2000
    1.4770    1.8340    1.1358 C   0  0  0  0  0  0  0  0  0  0  0  0
    0.6721    0.9325    0.9701 C   0  0  0  0  0  0  0  0  0  0  0  0
   -0.2667   -0.1569    0.7723 C   0  0  0  0  0  0  0  0  0  0  0  0
   -1.3801   -0.2083    1.6286 O   0  0  0  0  0  0  0  0  0  0  0  0
    0.2747   -1.3923    0.1719 C   0  0  0  0  0  0  0  0  0  0  0  0
   -0.6375   -0.5565   -0.6553 C   0  0  0  0  0  0  0  0  0  0  0  0
   -0.0801    0.3325   -1.7044 C   0  0  0  0  0  0  0  0  0  0  0  0
    0.9883    0.9050   -1.6496 O   0  0  0  0  0  0  0  0  0  0  0  0
    2.1656    2.6215    1.2941 H   0  0  0  0  0  0  0  0  0  0  0  0
   -2.2318   -0.0322    1.1262 H   0  0  0  0  0  0  0  0  0  0  0  0
    1.3641   -1.3949   -0.1143 H   0  0  0  0  0  0  0  0  0  0  0  0
   -0.0620   -2.3901    0.4935 H   0  0  0  0  0  0  0  0  0  0  0  0
   -1.6284   -1.0036   -0.8501 H   0  0  0  0  0  0  0  0  0  0  0  0
   -0.6552    0.5094   -2.6187 H   0  0  0  0  0  0  0  0  0  0  0  0
  1  2  3  0
  2  3  1  0
  3  4  1  0
  3  5  1  0
  5  6  1  0
  6  7  1  0
  7  8  2  0
  6  3  1  0
  1  9  1  0
  4 10  1  0
  5 11  1  0
  5 12  1  0
  6 13  1  0
  7 14  1  0
M  END
