
     RDKit          3D

 19 18  0  0  0  0  0  0  0  0999 V2000
    1.8727    1.1026    1.6208 C   0  0  0  0  0  0  0  0  0  0  0  0
    0.9895    0.2841    1.1069 C   0  0  0  0  0  0  0  0  0  0  0  0
    0.0600   -0.6017    0.5768 C   0  0  0  0  0  0  0  0  0  0  0  0
    0.5653   -2.0815    0.8341 C   0  0  0  0  0  0  0  0  0  0  0  0
   -1.2975   -0.6074    0.8141 C   0  0  0  0  0  0  0  0  0  0  0  0
   -2.1138   -0.3197    1.5670 O   0  0  0  0  0  0  0  0  0  0  0  0
    0.3035   -0.5782   -0.8929 O   0  0  0  0  0  0  0  0  0  0  0  0
    0.2653    0.7478   -1.2798 C   0  0  0  0  0  0  0  0  0  0  0  0
   -1.0009    1.4431   -0.8442 C   0  0  0  0  0  0  0  0  0  0  0  0
    2.5753    1.7296    2.0252 H   0  0  0  0  0  0  0  0  0  0  0  0
    0.9622   -2.0862    1.8900 H   0  0  0  0  0  0  0  0  0  0  0  0
    1.3914   -2.2253    0.1463 H   0  0  0  0  0  0  0  0  0  0  0  0
   -0.2654   -2.7673    0.7326 H   0  0  0  0  0  0  0  0  0  0  0  0
   -1.9109   -1.1165   -0.1180 H   0  0  0  0  0  0  0  0  0  0  0  0
    0.2317    0.7629   -2.4126 H   0  0  0  0  0  0  0  0  0  0  0  0
    1.1988    1.2765   -0.9133 H   0  0  0  0  0  0  0  0  0  0  0  0
   -0.8498    1.7042    0.2241 H   0  0  0  0  0  0  0  0  0  0  0  0
   -1.8811    0.8961   -1.1071 H   0  0  0  0  0  0  0  0  0  0  0  0
   -1.0963    2.4370   -1.3948 H   0  0  0  0  0  0  0  0  0  0  0  0
  1  2  3  0
  2  3  1  0
  3  4  1  0
  3  5  1  0
  5  6  2  0
  3  7  1  0
  7  8  1  0
  8  9  1  0
  1 10  1  0
  4 11  1  0
  4 12  1  0
  4 13  1  0
  5 14  1  0
  8 15  1  0
  8 16  1  0
  9 17  1  0
  9 18  1  0
  9 19  1  0
M  END
