
     RDKit          3D

 17 18  0  0  0  0  0  0  0  0999 V2000
   -2.8975    1.6030   -0.9712 C   0  0  0  0  0  0  0  0  0  0  0  0
   -1.9237    1.2020   -0.3528 C   0  0  0  0  0  0  0  0  0  0  0  0
   -0.7751    0.7192    0.4064 C   0  0  0  0  0  0  0  0  0  0  0  0
    0.5426    1.0235   -0.2152 C   0  0  0  0  0  0  0  0  0  0  0  0
    0.9487   -0.4184    0.1636 C   0  0  0  0  0  0  0  0  0  0  0  0
    1.7349   -0.6636    1.2649 C   0  0  0  0  0  0  0  0  0  0  0  0
    2.4917   -0.9233    2.3420 C   0  0  0  0  0  0  0  0  0  0  0  0
    0.2741   -1.4539   -0.6492 C   0  0  0  0  0  0  0  0  0  0  0  0
   -0.5799   -0.7576    0.2976 C   0  0  0  0  0  0  0  0  0  0  0  0
   -3.7609    1.9456   -1.5022 H   0  0  0  0  0  0  0  0  0  0  0  0
   -0.7708    1.0613    1.4841 H   0  0  0  0  0  0  0  0  0  0  0  0
    0.5127    1.0572   -1.3373 H   0  0  0  0  0  0  0  0  0  0  0  0
    1.1550    1.7987    0.2542 H   0  0  0  0  0  0  0  0  0  0  0  0
    3.0415   -1.0973    3.1026 H   0  0  0  0  0  0  0  0  0  0  0  0
    0.5722   -2.5044   -0.3626 H   0  0  0  0  0  0  0  0  0  0  0  0
    0.3003   -1.2878   -1.7465 H   0  0  0  0  0  0  0  0  0  0  0  0
   -0.8658   -1.3042    1.2304 H   0  0  0  0  0  0  0  0  0  0  0  0
  1  2  3  0
  2  3  1  0
  3  4  1  0
  4  5  1  0
  5  6  1  0
  6  7  3  0
  5  8  1  0
  8  9  1  0
  9  3  1  0
  9  5  1  0
  1 10  1  0
  3 11  1  0
  4 12  1  0
  4 13  1  0
  7 14  1  0
  8 15  1  0
  8 16  1  0
  9 17  1  0
M  END
