
     RDKit          3D

 19 20  0  0  0  0  0  0  0  0999 V2000
    2.7827    1.0721    1.5115 C   0  0  0  0  0  0  0  0  0  0  0  0
    1.8951    0.2941    1.2466 C   0  0  0  0  0  0  0  0  0  0  0  0
    0.8245   -0.6569    0.9321 C   0  0  0  0  0  0  0  0  0  0  0  0
    0.5852   -0.7213   -0.5829 C   0  0  0  0  0  0  0  0  0  0  0  0
   -0.6029    0.1474   -0.3766 C   0  0  0  0  0  0  0  0  0  0  0  0
   -0.6411    1.4747   -1.0050 C   0  0  0  0  0  0  0  0  0  0  0  0
   -1.9391    1.1766   -1.4845 O   0  0  0  0  0  0  0  0  0  0  0  0
   -1.8571   -0.1759   -1.0777 C   0  0  0  0  0  0  0  0  0  0  0  0
   -0.5327    0.0267    1.0923 C   0  0  0  0  0  0  0  0  0  0  0  0
    3.5679    1.7555    1.7510 H   0  0  0  0  0  0  0  0  0  0  0  0
    0.9223   -1.6225    1.4222 H   0  0  0  0  0  0  0  0  0  0  0  0
    1.4298   -0.2973   -1.1632 H   0  0  0  0  0  0  0  0  0  0  0  0
    0.3777   -1.7575   -0.9411 H   0  0  0  0  0  0  0  0  0  0  0  0
    0.0313    1.5582   -1.8931 H   0  0  0  0  0  0  0  0  0  0  0  0
   -0.6232    2.3729   -0.3725 H   0  0  0  0  0  0  0  0  0  0  0  0
   -1.7561   -0.8932   -1.9142 H   0  0  0  0  0  0  0  0  0  0  0  0
   -2.6775   -0.4214   -0.3668 H   0  0  0  0  0  0  0  0  0  0  0  0
   -0.5005    0.9258    1.7040 H   0  0  0  0  0  0  0  0  0  0  0  0
   -1.2864   -0.6915    1.5180 H   0  0  0  0  0  0  0  0  0  0  0  0
  1  2  3  0
  2  3  1  0
  3  4  1  0
  4  5  1  0
  5  6  1  0
  6  7  1  0
  7  8  1  0
  5  9  1  0
  9  3  1  0
  8  5  1  0
  1 10  1  0
  3 11  1  0
  4 12  1  0
  4 13  1  0
  6 14  1  0
  6 15  1  0
  8 16  1  0
  8 17  1  0
  9 18  1  0
  9 19  1  0
M  END
