
     RDKit          3D

 19 20  0  0  0  0  0  0  0  0999 V2000
    2.1384   -1.5329   -1.8923 C   0  0  0  0  0  0  0  0  0  0  0  0
    1.2674   -0.8280   -1.4483 C   0  0  0  0  0  0  0  0  0  0  0  0
    0.2193   -0.0046   -0.9148 C   0  0  0  0  0  0  0  0  0  0  0  0
    0.6530    0.9917    0.1535 C   0  0  0  0  0  0  0  0  0  0  0  0
   -0.6487    1.6724    0.4574 C   0  0  0  0  0  0  0  0  0  0  0  0
   -1.5733    0.4382    0.4918 C   0  0  0  0  0  0  0  0  0  0  0  0
   -0.5312   -0.6419    0.2115 C   0  0  0  0  0  0  0  0  0  0  0  0
   -0.8835   -1.9081    0.2041 O   0  0  0  0  0  0  0  0  0  0  0  0
    0.6114   -0.1787    1.1143 C   0  0  0  0  0  0  0  0  0  0  0  0
    2.9123   -2.1570   -2.2664 H   0  0  0  0  0  0  0  0  0  0  0  0
   -0.4762    0.4241   -1.6692 H   0  0  0  0  0  0  0  0  0  0  0  0
    1.5431    1.5356    0.0211 H   0  0  0  0  0  0  0  0  0  0  0  0
   -0.9659    2.4006   -0.2819 H   0  0  0  0  0  0  0  0  0  0  0  0
   -0.5771    2.0921    1.4940 H   0  0  0  0  0  0  0  0  0  0  0  0
   -2.0124    0.3001    1.4816 H   0  0  0  0  0  0  0  0  0  0  0  0
   -2.2986    0.4613   -0.3351 H   0  0  0  0  0  0  0  0  0  0  0  0
   -1.0611   -2.3660   -0.6458 H   0  0  0  0  0  0  0  0  0  0  0  0
    1.4866   -0.8238    1.1228 H   0  0  0  0  0  0  0  0  0  0  0  0
    0.1964    0.1247    2.0914 H   0  0  0  0  0  0  0  0  0  0  0  0
  1  2  3  0
  2  3  1  0
  3  4  1  0
  4  5  1  0
  5  6  1  0
  6  7  1  0
  7  8  1  0
  7  9  1  0
  7  3  1  0
  9  4  1  0
  1 10  1  0
  3 11  1  0
  4 12  1  0
  5 13  1  0
  5 14  1  0
  6 15  1  0
  6 16  1  0
  8 17  1  0
  9 18  1  0
  9 19  1  0
M  END
