
     RDKit          3D

 17 16  0  0  0  0  0  0  0  0999 V2000
    3.7847   -0.8644    0.8778 C   0  0  0  0  0  0  0  0  0  0  0  0
    2.7115   -1.0875    0.3761 C   0  0  0  0  0  0  0  0  0  0  0  0
    1.3865   -1.3459   -0.2210 C   0  0  0  0  0  0  0  0  0  0  0  0
    0.5275   -0.2864    0.0832 O   0  0  0  0  0  0  0  0  0  0  0  0
   -0.6991   -0.5810   -0.5008 C   0  0  0  0  0  0  0  0  0  0  0  0
   -1.7125    0.4656   -0.2565 C   0  0  0  0  0  0  0  0  0  0  0  0
   -2.8238    0.3302   -0.7118 O   0  0  0  0  0  0  0  0  0  0  0  0
   -1.3927    1.6726    0.5329 C   0  0  0  0  0  0  0  0  0  0  0  0
   -2.4512    2.5408    0.6610 O   0  0  0  0  0  0  0  0  0  0  0  0
    4.7261   -0.6499    1.3176 H   0  0  0  0  0  0  0  0  0  0  0  0
    0.9957   -2.2946    0.1622 H   0  0  0  0  0  0  0  0  0  0  0  0
    1.4463   -1.3878   -1.3313 H   0  0  0  0  0  0  0  0  0  0  0  0
   -0.5097   -0.6173   -1.6079 H   0  0  0  0  0  0  0  0  0  0  0  0
   -1.0722   -1.5793   -0.1537 H   0  0  0  0  0  0  0  0  0  0  0  0
   -1.0535    1.4056    1.5698 H   0  0  0  0  0  0  0  0  0  0  0  0
   -0.5611    2.2181    0.0214 H   0  0  0  0  0  0  0  0  0  0  0  0
   -3.3025    2.0613    0.4509 H   0  0  0  0  0  0  0  0  0  0  0  0
  1  2  3  0
  2  3  1  0
  3  4  1  0
  4  5  1  0
  5  6  1  0
  6  7  2  0
  6  8  1  0
  8  9  1  0
  1 10  1  0
  3 11  1  0
  3 12  1  0
  5 13  1  0
  5 14  1  0
  8 15  1  0
  8 16  1  0
  9 17  1  0
M  END
