
     RDKit          3D

 19 19  0  0  0  0  0  0  0  0999 V2000
    2.9261   -0.0917   -0.9550 C   0  0  0  0  0  0  0  0  0  0  0  0
    1.8103    0.4071   -0.9313 C   0  0  0  0  0  0  0  0  0  0  0  0
    0.4703    1.0020   -0.9281 C   0  0  0  0  0  0  0  0  0  0  0  0
   -0.3005    0.4507   -1.9229 O   0  0  0  0  0  0  0  0  0  0  0  0
   -0.1354    0.8160    0.4516 C   0  0  0  0  0  0  0  0  0  0  0  0
   -0.3386   -0.5338    1.0140 C   0  0  0  0  0  0  0  0  0  0  0  0
   -0.2335   -1.7766    0.1787 C   0  0  0  0  0  0  0  0  0  0  0  0
   -1.5238    0.3733    0.6264 C   0  0  0  0  0  0  0  0  0  0  0  0
   -2.2524    0.9211    1.7017 O   0  0  0  0  0  0  0  0  0  0  0  0
    3.8897   -0.5366   -0.9634 H   0  0  0  0  0  0  0  0  0  0  0  0
    0.6017    2.0865   -1.1167 H   0  0  0  0  0  0  0  0  0  0  0  0
   -0.5612    1.1412   -2.5842 H   0  0  0  0  0  0  0  0  0  0  0  0
    0.2338    1.5798    1.1699 H   0  0  0  0  0  0  0  0  0  0  0  0
   -0.1798   -0.6985    2.1033 H   0  0  0  0  0  0  0  0  0  0  0  0
   -0.6026   -1.6272   -0.8542 H   0  0  0  0  0  0  0  0  0  0  0  0
   -0.8889   -2.5574    0.6308 H   0  0  0  0  0  0  0  0  0  0  0  0
    0.8197   -2.1709    0.1983 H   0  0  0  0  0  0  0  0  0  0  0  0
   -2.1677    0.0511   -0.2049 H   0  0  0  0  0  0  0  0  0  0  0  0
   -1.5669    1.1640    2.3857 H   0  0  0  0  0  0  0  0  0  0  0  0
  1  2  3  0
  2  3  1  0
  3  4  1  0
  3  5  1  0
  5  6  1  0
  6  7  1  0
  6  8  1  0
  8  9  1  0
  8  5  1  0
  1 10  1  0
  3 11  1  0
  4 12  1  0
  5 13  1  0
  6 14  1  0
  7 15  1  0
  7 16  1  0
  7 17  1  0
  8 18  1  0
  9 19  1  0
M  END
