
     RDKit          3D

 17 18  0  0  0  0  0  0  0  0999 V2000
    2.9183   -0.7063   -0.8239 C   0  0  0  0  0  0  0  0  0  0  0  0
    1.8641   -0.7709   -0.0474 C   0  0  0  0  0  0  0  0  0  0  0  0
    0.7422   -0.8418    0.8055 C   0  0  0  0  0  0  0  0  0  0  0  0
   -0.5032   -1.3669   -0.0645 C   0  0  0  0  0  0  0  0  0  0  0  0
   -0.2804    0.0054    0.3989 C   0  0  0  0  0  0  0  0  0  0  0  0
   -0.5461    1.0940   -0.5985 C   0  0  0  0  0  0  0  0  0  0  0  0
   -1.4843    1.6356    0.4115 C   0  0  0  0  0  0  0  0  0  0  0  0
   -2.3559    2.6332    0.3089 O   0  0  0  0  0  0  0  0  0  0  0  0
   -1.1182    0.7532    1.4412 C   0  0  0  0  0  0  0  0  0  0  0  0
    4.1301   -0.6543   -1.7017 H   0  0  0  0  0  0  0  0  0  0  0  0
    0.9644   -1.5630    1.5616 H   0  0  0  0  0  0  0  0  0  0  0  0
   -0.2387   -1.7305   -1.0774 H   0  0  0  0  0  0  0  0  0  0  0  0
   -1.0849   -2.1344    0.5045 H   0  0  0  0  0  0  0  0  0  0  0  0
   -0.9860    0.7279   -1.5205 H   0  0  0  0  0  0  0  0  0  0  0  0
    0.3766    1.6550   -0.8397 H   0  0  0  0  0  0  0  0  0  0  0  0
   -0.4438    1.1504    2.2360 H   0  0  0  0  0  0  0  0  0  0  0  0
   -1.9542    0.1134    1.8918 H   0  0  0  0  0  0  0  0  0  0  0  0
  1  2  3  0
  2  3  1  0
  3  4  1  0
  4  5  1  0
  5  6  1  0
  6  7  1  0
  7  8  2  0
  7  9  1  0
  5  3  1  0
  9  5  1  0
  1 10  1  0
  3 11  1  0
  4 12  1  0
  4 13  1  0
  6 14  1  0
  6 15  1  0
  9 16  1  0
  9 17  1  0
M  END
