
     RDKit          3D

 19 18  0  0  0  0  0  0  0  0999 V2000
   -3.0367    2.1433    0.3621 C   0  0  0  0  0  0  0  0  0  0  0  0
   -2.3561    1.3315   -0.2422 C   0  0  0  0  0  0  0  0  0  0  0  0
   -1.5288    0.3266   -0.9580 C   0  0  0  0  0  0  0  0  0  0  0  0
   -1.5124   -0.8671   -0.0953 C   0  0  0  0  0  0  0  0  0  0  0  0
   -2.4876   -1.5657    0.0249 O   0  0  0  0  0  0  0  0  0  0  0  0
   -0.2938   -1.2646    0.6671 C   0  0  0  0  0  0  0  0  0  0  0  0
    0.8669   -0.3047    0.3740 C   0  0  0  0  0  0  0  0  0  0  0  0
    1.9426   -0.7412    1.1150 O   0  0  0  0  0  0  0  0  0  0  0  0
    3.0828   -0.0048    0.9890 C   0  0  0  0  0  0  0  0  0  0  0  0
   -3.6108    2.8513    0.8902 H   0  0  0  0  0  0  0  0  0  0  0  0
   -2.0530    0.1058   -1.9204 H   0  0  0  0  0  0  0  0  0  0  0  0
   -0.5243    0.6923   -1.1586 H   0  0  0  0  0  0  0  0  0  0  0  0
    0.0364   -2.2587    0.2986 H   0  0  0  0  0  0  0  0  0  0  0  0
   -0.5554   -1.2878    1.7271 H   0  0  0  0  0  0  0  0  0  0  0  0
    1.1046   -0.4466   -0.7210 H   0  0  0  0  0  0  0  0  0  0  0  0
    0.5942    0.7451    0.5428 H   0  0  0  0  0  0  0  0  0  0  0  0
    3.4338    0.0039   -0.0748 H   0  0  0  0  0  0  0  0  0  0  0  0
    3.8759   -0.5004    1.5884 H   0  0  0  0  0  0  0  0  0  0  0  0
    3.0218    1.0420    1.3413 H   0  0  0  0  0  0  0  0  0  0  0  0
  1  2  3  0
  2  3  1  0
  3  4  1  0
  4  5  2  0
  4  6  1  0
  6  7  1  0
  7  8  1  0
  8  9  1  0
  1 10  1  0
  3 11  1  0
  3 12  1  0
  6 13  1  0
  6 14  1  0
  7 15  1  0
  7 16  1  0
  9 17  1  0
  9 18  1  0
  9 19  1  0
M  END
