
     RDKit          3D

 21 21  0  0  0  0  0  0  0  0999 V2000
    2.4870    2.6966    1.7123 C   0  0  0  0  0  0  0  0  0  0  0  0
    1.8677    1.7535    1.2274 C   0  0  0  0  0  0  0  0  0  0  0  0
    1.1499    0.6361    0.6794 C   0  0  0  0  0  0  0  0  0  0  0  0
    0.2774   -0.0824    1.3739 C   0  0  0  0  0  0  0  0  0  0  0  0
   -0.4608   -1.2324    0.8078 C   0  0  0  0  0  0  0  0  0  0  0  0
   -0.8237   -1.0370   -0.6378 C   0  0  0  0  0  0  0  0  0  0  0  0
   -2.3008   -0.6611   -0.7731 C   0  0  0  0  0  0  0  0  0  0  0  0
   -0.0361    0.0460   -1.3157 C   0  0  0  0  0  0  0  0  0  0  0  0
    1.3504    0.2086   -0.7341 C   0  0  0  0  0  0  0  0  0  0  0  0
    3.0335    3.4961    2.1242 H   0  0  0  0  0  0  0  0  0  0  0  0
    0.1120    0.1985    2.3932 H   0  0  0  0  0  0  0  0  0  0  0  0
    0.1308   -2.1400    0.9815 H   0  0  0  0  0  0  0  0  0  0  0  0
   -1.4091   -1.3331    1.3734 H   0  0  0  0  0  0  0  0  0  0  0  0
   -0.6938   -1.9806   -1.1757 H   0  0  0  0  0  0  0  0  0  0  0  0
   -2.8608   -0.9152    0.1652 H   0  0  0  0  0  0  0  0  0  0  0  0
   -2.3803    0.4500   -0.8795 H   0  0  0  0  0  0  0  0  0  0  0  0
   -2.7584   -1.0969   -1.6796 H   0  0  0  0  0  0  0  0  0  0  0  0
    0.0894   -0.1791   -2.3937 H   0  0  0  0  0  0  0  0  0  0  0  0
   -0.5697    1.0256   -1.1456 H   0  0  0  0  0  0  0  0  0  0  0  0
    1.8680   -0.7767   -0.7856 H   0  0  0  0  0  0  0  0  0  0  0  0
    1.9273    0.9236   -1.3178 H   0  0  0  0  0  0  0  0  0  0  0  0
  1  2  3  0
  2  3  1  0
  3  4  2  0
  4  5  1  0
  5  6  1  0
  6  7  1  0
  6  8  1  0
  8  9  1  0
  9  3  1  0
  1 10  1  0
  4 11  1  0
  5 12  1  0
  5 13  1  0
  6 14  1  0
  7 15  1  0
  7 16  1  0
  7 17  1  0
  8 18  1  0
  8 19  1  0
  9 20  1  0
  9 21  1  0
M  END
