
     RDKit          3D

 18 18  0  0  0  0  0  0  0  0999 V2000
    0.9106    1.9289   -2.1855 C   0  0  0  0  0  0  0  0  0  0  0  0
    0.5080    1.0086   -1.2262 C   0  0  0  0  0  0  0  0  0  0  0  0
    0.1237    0.0917   -0.3020 C   0  0  0  0  0  0  0  0  0  0  0  0
    1.3242   -0.2904    0.6693 C   0  0  0  0  0  0  0  0  0  0  0  0
    1.8437    0.7675    1.3149 O   0  0  0  0  0  0  0  0  0  0  0  0
   -0.5369   -1.1871   -0.6000 C   0  0  0  0  0  0  0  0  0  0  0  0
   -1.3876   -0.9700    0.6964 C   0  0  0  0  0  0  0  0  0  0  0  0
   -1.1165    0.4885    0.5362 C   0  0  0  0  0  0  0  0  0  0  0  0
    1.1441    2.4947   -2.7813 H   0  0  0  0  0  0  0  0  0  0  0  0
    2.0166   -0.7920   -0.0006 H   0  0  0  0  0  0  0  0  0  0  0  0
    0.8764   -1.0104    1.3620 H   0  0  0  0  0  0  0  0  0  0  0  0
    1.6381    1.6795    0.9560 H   0  0  0  0  0  0  0  0  0  0  0  0
    0.1393   -2.0949   -0.3207 H   0  0  0  0  0  0  0  0  0  0  0  0
   -1.1980   -1.4068   -1.4117 H   0  0  0  0  0  0  0  0  0  0  0  0
   -1.0003   -1.4994    1.5738 H   0  0  0  0  0  0  0  0  0  0  0  0
   -2.4735   -1.2424    0.5363 H   0  0  0  0  0  0  0  0  0  0  0  0
   -0.9561    1.1196    1.3902 H   0  0  0  0  0  0  0  0  0  0  0  0
   -1.8559    0.9144   -0.2069 H   0  0  0  0  0  0  0  0  0  0  0  0
  1  2  3  0
  2  3  1  0
  3  4  1  0
  4  5  1  0
  3  6  1  0
  6  7  1  0
  7  8  1  0
  8  3  1  0
  1  9  1  0
  4 10  1  0
  4 11  1  0
  5 12  1  0
  6 13  1  0
  6 14  1  0
  7 15  1  0
  7 16  1  0
  8 17  1  0
  8 18  1  0
M  END
