
     RDKit          3D

 21 22  0  0  0  0  0  0  0  0999 V2000
    2.6025   -2.7877    0.7263 C   0  0  0  0  0  0  0  0  0  0  0  0
    1.7633   -1.9597    0.5900 C   0  0  0  0  0  0  0  0  0  0  0  0
    0.8249   -1.0267    0.4586 C   0  0  0  0  0  0  0  0  0  0  0  0
    1.0312    0.4434    0.2925 C   0  0  0  0  0  0  0  0  0  0  0  0
   -0.4719    0.2560    0.2310 C   0  0  0  0  0  0  0  0  0  0  0  0
   -1.4027    1.2382    0.0474 C   0  0  0  0  0  0  0  0  0  0  0  0
   -1.1858    1.9634   -1.2920 C   0  0  0  0  0  0  0  0  0  0  0  0
   -0.1699   -0.9151   -0.6678 C   0  0  0  0  0  0  0  0  0  0  0  0
   -0.2813   -0.6888    1.3763 C   0  0  0  0  0  0  0  0  0  0  0  0
    3.3604   -3.5588    0.8419 H   0  0  0  0  0  0  0  0  0  0  0  0
    1.3940    0.9325    1.2114 H   0  0  0  0  0  0  0  0  0  0  0  0
    1.4522    0.7853   -0.6640 H   0  0  0  0  0  0  0  0  0  0  0  0
   -1.3956    2.0087    0.8423 H   0  0  0  0  0  0  0  0  0  0  0  0
   -2.4422    0.8626   -0.0040 H   0  0  0  0  0  0  0  0  0  0  0  0
   -0.9394    1.1675   -2.0181 H   0  0  0  0  0  0  0  0  0  0  0  0
   -0.3467    2.7111   -1.1807 H   0  0  0  0  0  0  0  0  0  0  0  0
   -2.1147    2.4481   -1.6006 H   0  0  0  0  0  0  0  0  0  0  0  0
    0.2370   -0.5785   -1.6311 H   0  0  0  0  0  0  0  0  0  0  0  0
   -0.8809   -1.7383   -0.6641 H   0  0  0  0  0  0  0  0  0  0  0  0
    0.0646   -0.1494    2.2759 H   0  0  0  0  0  0  0  0  0  0  0  0
   -1.0988   -1.4138    1.5106 H   0  0  0  0  0  0  0  0  0  0  0  0
  1  2  3  0
  2  3  1  0
  3  4  1  0
  4  5  1  0
  5  6  1  0
  6  7  1  0
  5  8  1  0
  5  9  1  0
  8  3  1  0
  9  3  1  0
  1 10  1  0
  4 11  1  0
  4 12  1  0
  6 13  1  0
  6 14  1  0
  7 15  1  0
  7 16  1  0
  7 17  1  0
  8 18  1  0
  8 19  1  0
  9 20  1  0
  9 21  1  0
M  END
