
     RDKit          3D

 17 18  0  0  0  0  0  0  0  0999 V2000
    1.5177   -1.1155   -2.1011 C   0  0  0  0  0  0  0  0  0  0  0  0
    1.1408   -0.6320   -0.9037 C   0  0  0  0  0  0  0  0  0  0  0  0
    0.7294   -0.1427    0.3319 C   0  0  0  0  0  0  0  0  0  0  0  0
    1.6998   -0.3796    1.3352 O   0  0  0  0  0  0  0  0  0  0  0  0
   -0.6212   -0.7337    0.7946 C   0  0  0  0  0  0  0  0  0  0  0  0
   -1.6529    0.2898    0.3338 C   0  0  0  0  0  0  0  0  0  0  0  0
   -0.8534    1.0652   -0.6139 C   0  0  0  0  0  0  0  0  0  0  0  0
   -0.0911    2.1298   -0.5391 O   0  0  0  0  0  0  0  0  0  0  0  0
    0.3470    1.2894    0.3646 C   0  0  0  0  0  0  0  0  0  0  0  0
    1.8050   -1.4604   -2.9578 H   0  0  0  0  0  0  0  0  0  0  0  0
    2.5754   -0.5005    0.8293 H   0  0  0  0  0  0  0  0  0  0  0  0
   -0.7948   -1.6826    0.2832 H   0  0  0  0  0  0  0  0  0  0  0  0
   -0.6664   -0.8184    1.8986 H   0  0  0  0  0  0  0  0  0  0  0  0
   -2.0219    0.8824    1.2145 H   0  0  0  0  0  0  0  0  0  0  0  0
   -2.5221   -0.2308   -0.1451 H   0  0  0  0  0  0  0  0  0  0  0  0
   -0.6053    0.4543   -1.5410 H   0  0  0  0  0  0  0  0  0  0  0  0
    0.0141    1.5851    1.4159 H   0  0  0  0  0  0  0  0  0  0  0  0
  1  2  3  0
  2  3  1  0
  3  4  1  0
  3  5  1  0
  5  6  1  0
  6  7  1  0
  7  8  1  0
  8  9  1  0
  9  3  1  0
  9  7  1  0
  1 10  1  0
  4 11  1  0
  5 12  1  0
  5 13  1  0
  6 14  1  0
  6 15  1  0
  7 16  1  0
  9 17  1  0
M  END
