
     RDKit          3D

 17 16  0  0  0  0  0  0  0  0999 V2000
    2.4659    1.3361   -0.1328 C   0  0  0  0  0  0  0  0  0  0  0  0
    1.8436    0.4219   -0.0197 C   0  0  0  0  0  0  0  0  0  0  0  0
    1.0241   -0.7996    0.1486 C   0  0  0  0  0  0  0  0  0  0  0  0
   -0.4333   -0.3191    0.1554 C   0  0  0  0  0  0  0  0  0  0  0  0
   -1.4122   -1.4883    0.2370 C   0  0  0  0  0  0  0  0  0  0  0  0
   -0.7890    0.7993   -0.6862 C   0  0  0  0  0  0  0  0  0  0  0  0
   -0.1138    1.9789   -0.2035 O   0  0  0  0  0  0  0  0  0  0  0  0
    3.1552    2.3320   -0.2749 H   0  0  0  0  0  0  0  0  0  0  0  0
    1.2662   -1.1841    1.1749 H   0  0  0  0  0  0  0  0  0  0  0  0
    1.1652   -1.5071   -0.6351 H   0  0  0  0  0  0  0  0  0  0  0  0
   -0.5152    0.1060    1.2760 H   0  0  0  0  0  0  0  0  0  0  0  0
   -1.9497   -1.5278   -0.7217 H   0  0  0  0  0  0  0  0  0  0  0  0
   -0.7682   -2.4055    0.3840 H   0  0  0  0  0  0  0  0  0  0  0  0
   -2.0942   -1.4708    1.0670 H   0  0  0  0  0  0  0  0  0  0  0  0
   -1.8566    0.9719   -0.7058 H   0  0  0  0  0  0  0  0  0  0  0  0
   -0.4213    0.6497   -1.7339 H   0  0  0  0  0  0  0  0  0  0  0  0
   -0.5667    2.1065    0.6707 H   0  0  0  0  0  0  0  0  0  0  0  0
  1  2  3  0
  2  3  1  0
  3  4  1  0
  4  5  1  0
  4  6  1  0
  6  7  1  0
  1  8  1  0
  3  9  1  0
  3 10  1  0
  4 11  1  0
  5 12  1  0
  5 13  1  0
  5 14  1  0
  6 15  1  0
  6 16  1  0
  7 17  1  0
M  END
