
     RDKit          3D

 17 17  0  0  0  0  0  0  0  0999 V2000
    3.1965   -0.9221    0.9207 C   0  0  0  0  0  0  0  0  0  0  0  0
    2.2264   -0.2830    0.5597 C   0  0  0  0  0  0  0  0  0  0  0  0
    1.0642    0.5081    0.1374 C   0  0  0  0  0  0  0  0  0  0  0  0
    0.4584    0.1593   -1.2451 C   0  0  0  0  0  0  0  0  0  0  0  0
    1.0985   -0.8505   -1.9600 O   0  0  0  0  0  0  0  0  0  0  0  0
   -0.2505   -0.1608    0.0273 C   0  0  0  0  0  0  0  0  0  0  0  0
   -1.4751    0.6521    0.2668 C   0  0  0  0  0  0  0  0  0  0  0  0
   -2.7041    0.0381    0.7781 C   0  0  0  0  0  0  0  0  0  0  0  0
   -1.4476    1.8449    0.0319 O   0  0  0  0  0  0  0  0  0  0  0  0
    4.0554   -1.4719    1.2268 H   0  0  0  0  0  0  0  0  0  0  0  0
    1.0479    1.5638    0.4305 H   0  0  0  0  0  0  0  0  0  0  0  0
    0.1609    1.0508   -1.8507 H   0  0  0  0  0  0  0  0  0  0  0  0
    1.9486   -0.5374   -2.3669 H   0  0  0  0  0  0  0  0  0  0  0  0
   -0.3176   -1.2434    0.2541 H   0  0  0  0  0  0  0  0  0  0  0  0
   -3.6080    0.6383    0.6020 H   0  0  0  0  0  0  0  0  0  0  0  0
   -2.6219   -0.1238    1.8832 H   0  0  0  0  0  0  0  0  0  0  0  0
   -2.8320   -0.9715    0.3043 H   0  0  0  0  0  0  0  0  0  0  0  0
  1  2  3  0
  2  3  1  0
  3  4  1  0
  4  5  1  0
  4  6  1  0
  6  7  1  0
  7  8  1  0
  7  9  2  0
  6  3  1  0
  1 10  1  0
  3 11  1  0
  4 12  1  0
  5 13  1  0
  6 14  1  0
  8 15  1  0
  8 16  1  0
  8 17  1  0
M  END
