
     RDKit          3D

 23 22  0  0  0  0  0  0  0  0999 V2000
    2.6595   -0.7137    0.9980 C   0  0  0  0  0  0  0  0  0  0  0  0
    1.6076   -0.5767    0.3996 C   0  0  0  0  0  0  0  0  0  0  0  0
    0.3533   -0.3921   -0.3320 C   0  0  0  0  0  0  0  0  0  0  0  0
    0.1446   -1.5827   -1.2047 C   0  0  0  0  0  0  0  0  0  0  0  0
    0.5254    0.8204   -1.2223 C   0  0  0  0  0  0  0  0  0  0  0  0
    0.8047    1.9747   -0.5037 O   0  0  0  0  0  0  0  0  0  0  0  0
   -0.7501   -0.1937    0.6792 C   0  0  0  0  0  0  0  0  0  0  0  0
   -0.4800    1.0230    1.5383 C   0  0  0  0  0  0  0  0  0  0  0  0
   -2.1058   -0.0879    0.0848 C   0  0  0  0  0  0  0  0  0  0  0  0
    3.5818   -0.8488    1.5153 H   0  0  0  0  0  0  0  0  0  0  0  0
    0.5721   -1.4558   -2.2339 H   0  0  0  0  0  0  0  0  0  0  0  0
    0.6751   -2.4505   -0.7647 H   0  0  0  0  0  0  0  0  0  0  0  0
   -0.9245   -1.8450   -1.3276 H   0  0  0  0  0  0  0  0  0  0  0  0
   -0.3550    0.9302   -1.8872 H   0  0  0  0  0  0  0  0  0  0  0  0
    1.3895    0.6190   -1.8880 H   0  0  0  0  0  0  0  0  0  0  0  0
    1.7901    2.0655   -0.4189 H   0  0  0  0  0  0  0  0  0  0  0  0
   -0.7282   -1.0713    1.3615 H   0  0  0  0  0  0  0  0  0  0  0  0
   -0.9487    1.8983    1.0460 H   0  0  0  0  0  0  0  0  0  0  0  0
   -0.9226    0.8455    2.5451 H   0  0  0  0  0  0  0  0  0  0  0  0
    0.6124    1.1433    1.6905 H   0  0  0  0  0  0  0  0  0  0  0  0
   -2.5853   -1.0771   -0.1197 H   0  0  0  0  0  0  0  0  0  0  0  0
   -2.1398    0.5833   -0.8086 H   0  0  0  0  0  0  0  0  0  0  0  0
   -2.7760    0.3921    0.8529 H   0  0  0  0  0  0  0  0  0  0  0  0
  1  2  3  0
  2  3  1  0
  3  4  1  0
  3  5  1  0
  5  6  1  0
  3  7  1  0
  7  8  1  0
  7  9  1  0
  1 10  1  0
  4 11  1  0
  4 12  1  0
  4 13  1  0
  5 14  1  0
  5 15  1  0
  6 16  1  0
  7 17  1  0
  8 18  1  0
  8 19  1  0
  8 20  1  0
  9 21  1  0
  9 22  1  0
  9 23  1  0
M  END
