
     RDKit          3D

 15 16  0  0  0  0  0  0  0  0999 V2000
    2.8894    1.3353   -1.2080 C   0  0  0  0  0  0  0  0  0  0  0  0
    1.5413    0.7718   -0.7078 C   0  0  0  0  0  0  0  0  0  0  0  0
    0.3357    0.2445   -0.2688 C   0  0  0  0  0  0  0  0  0  0  0  0
   -0.8170   -0.1869   -1.0181 C   0  0  0  0  0  0  0  0  0  0  0  0
   -0.7673   -1.2839    0.0569 C   0  0  0  0  0  0  0  0  0  0  0  0
   -0.9969   -0.4553    1.3663 C   0  0  0  0  0  0  0  0  0  0  0  0
   -0.2107    0.7590    1.0499 C   0  0  0  0  0  0  0  0  0  0  0  0
   -0.0223    1.7793    1.6216 O   0  0  0  0  0  0  0  0  0  0  0  0
    0.5945   -1.1852    0.0158 O   0  0  0  0  0  0  0  0  0  0  0  0
    3.8517    1.7369   -1.5536 H   0  0  0  0  0  0  0  0  0  0  0  0
   -1.7614    0.4259   -0.8480 H   0  0  0  0  0  0  0  0  0  0  0  0
   -0.7106   -0.5366   -2.0036 H   0  0  0  0  0  0  0  0  0  0  0  0
   -1.2556   -2.1862   -0.1370 H   0  0  0  0  0  0  0  0  0  0  0  0
   -2.0842   -0.2299    1.3844 H   0  0  0  0  0  0  0  0  0  0  0  0
   -0.5865   -0.9888    2.2500 H   0  0  0  0  0  0  0  0  0  0  0  0
  1  2  3  0
  2  3  1  0
  3  4  1  0
  4  5  1  0
  5  6  1  0
  6  7  1  0
  7  8  2  0
  5  9  1  0
  7  3  1  0
  9  3  1  0
  1 10  1  0
  4 11  1  0
  4 12  1  0
  5 13  1  0
  6 14  1  0
  6 15  1  0
M  END
