
     RDKit          3D

 19 19  0  0  0  0  0  0  0  0999 V2000
   -0.5590    2.5886    1.0300 C   0  0  0  0  0  0  0  0  0  0  0  0
   -0.7253    1.5100    0.4873 C   0  0  0  0  0  0  0  0  0  0  0  0
   -0.9022    0.2057   -0.1778 C   0  0  0  0  0  0  0  0  0  0  0  0
    0.2861   -0.3467   -0.8760 C   0  0  0  0  0  0  0  0  0  0  0  0
   -0.1397   -1.1066   -1.9627 O   0  0  0  0  0  0  0  0  0  0  0  0
    1.2439   -1.0940    0.0161 C   0  0  0  0  0  0  0  0  0  0  0  0
    1.7379   -0.1260    1.0797 C   0  0  0  0  0  0  0  0  0  0  0  0
   -2.2439   -0.0425   -0.8301 C   0  0  0  0  0  0  0  0  0  0  0  0
   -1.8563   -0.6640    0.3499 O   0  0  0  0  0  0  0  0  0  0  0  0
   -0.4237    3.5281    1.5170 H   0  0  0  0  0  0  0  0  0  0  0  0
    0.8914    0.4886   -1.3269 H   0  0  0  0  0  0  0  0  0  0  0  0
   -0.6100   -1.9302   -1.6816 H   0  0  0  0  0  0  0  0  0  0  0  0
    2.1125   -1.3931   -0.6045 H   0  0  0  0  0  0  0  0  0  0  0  0
    0.8288   -2.0009    0.4589 H   0  0  0  0  0  0  0  0  0  0  0  0
    0.8932    0.1295    1.7269 H   0  0  0  0  0  0  0  0  0  0  0  0
    2.5370   -0.6190    1.7089 H   0  0  0  0  0  0  0  0  0  0  0  0
    2.2152    0.7460    0.6319 H   0  0  0  0  0  0  0  0  0  0  0  0
   -3.0010    0.7788   -0.7822 H   0  0  0  0  0  0  0  0  0  0  0  0
   -2.2848   -0.6523   -1.7582 H   0  0  0  0  0  0  0  0  0  0  0  0
  1  2  3  0
  2  3  1  0
  3  4  1  0
  4  5  1  0
  4  6  1  0
  6  7  1  0
  3  8  1  0
  8  9  1  0
  9  3  1  0
  1 10  1  0
  4 11  1  0
  5 12  1  0
  6 13  1  0
  6 14  1  0
  7 15  1  0
  7 16  1  0
  7 17  1  0
  8 18  1  0
  8 19  1  0
M  END
