
     RDKit          3D

 21 21  0  0  0  0  0  0  0  0999 V2000
    1.7678   -2.0769    0.9466 C   0  0  0  0  0  0  0  0  0  0  0  0
    1.2794   -1.0851    0.4791 C   0  0  0  0  0  0  0  0  0  0  0  0
    0.7001    0.1481   -0.1034 C   0  0  0  0  0  0  0  0  0  0  0  0
   -0.6726   -0.0213   -0.6475 C   0  0  0  0  0  0  0  0  0  0  0  0
   -0.6136   -0.9954   -1.6602 O   0  0  0  0  0  0  0  0  0  0  0  0
   -1.6634   -0.5256    0.3803 C   0  0  0  0  0  0  0  0  0  0  0  0
   -1.7473    0.4484    1.5223 C   0  0  0  0  0  0  0  0  0  0  0  0
    1.6425    0.9057   -1.0436 C   0  0  0  0  0  0  0  0  0  0  0  0
    1.2686    1.4293    0.3153 C   0  0  0  0  0  0  0  0  0  0  0  0
    2.1950   -2.9748    1.3530 H   0  0  0  0  0  0  0  0  0  0  0  0
   -1.0764    0.9089   -1.0786 H   0  0  0  0  0  0  0  0  0  0  0  0
   -0.3179   -1.8308   -1.1877 H   0  0  0  0  0  0  0  0  0  0  0  0
   -2.6641   -0.6121   -0.0807 H   0  0  0  0  0  0  0  0  0  0  0  0
   -1.3755   -1.5119    0.7911 H   0  0  0  0  0  0  0  0  0  0  0  0
   -2.6566    1.1083    1.4368 H   0  0  0  0  0  0  0  0  0  0  0  0
   -0.8892    1.1327    1.5762 H   0  0  0  0  0  0  0  0  0  0  0  0
   -1.8959   -0.1093    2.4793 H   0  0  0  0  0  0  0  0  0  0  0  0
    1.2072    1.4255   -1.9134 H   0  0  0  0  0  0  0  0  0  0  0  0
    2.6497    0.4777   -1.2193 H   0  0  0  0  0  0  0  0  0  0  0  0
    0.7418    2.3806    0.3347 H   0  0  0  0  0  0  0  0  0  0  0  0
    2.1202    1.3780    1.0534 H   0  0  0  0  0  0  0  0  0  0  0  0
  1  2  3  0
  2  3  1  0
  3  4  1  0
  4  5  1  0
  4  6  1  0
  6  7  1  0
  3  8  1  0
  8  9  1  0
  9  3  1  0
  1 10  1  0
  4 11  1  0
  5 12  1  0
  6 13  1  0
  6 14  1  0
  7 15  1  0
  7 16  1  0
  7 17  1  0
  8 18  1  0
  8 19  1  0
  9 20  1  0
  9 21  1  0
M  END
