
     RDKit          3D

 19 18  0  0  0  0  0  0  0  0999 V2000
   -4.2609    0.4462   -0.9782 C   0  0  0  0  0  0  0  0  0  0  0  0
   -3.2082   -0.0287   -0.9250 C   0  0  0  0  0  0  0  0  0  0  0  0
   -1.9314   -0.6141   -0.8831 C   0  0  0  0  0  0  0  0  0  0  0  0
   -1.0527    0.6810   -0.7600 C   0  0  0  0  0  0  0  0  0  0  0  0
    0.3025    0.7385   -0.7729 O   0  0  0  0  0  0  0  0  0  0  0  0
    0.9498    0.2558    0.4501 C   0  0  0  0  0  0  0  0  0  0  0  0
    0.1963   -0.2847    1.2653 O   0  0  0  0  0  0  0  0  0  0  0  0
    2.4173    0.4253    0.6975 C   0  0  0  0  0  0  0  0  0  0  0  0
    3.1806   -0.8505    0.6683 C   0  0  0  0  0  0  0  0  0  0  0  0
   -5.4783    0.9787   -1.0215 H   0  0  0  0  0  0  0  0  0  0  0  0
   -1.6095   -1.1260   -1.8332 H   0  0  0  0  0  0  0  0  0  0  0  0
   -1.7829   -1.2495   -0.0476 H   0  0  0  0  0  0  0  0  0  0  0  0
   -1.5973    1.5429   -1.1202 H   0  0  0  0  0  0  0  0  0  0  0  0
   -1.3357    0.8502    0.4590 H   0  0  0  0  0  0  0  0  0  0  0  0
    2.8821    1.2471    0.1893 H   0  0  0  0  0  0  0  0  0  0  0  0
    2.4802    0.7386    1.8328 H   0  0  0  0  0  0  0  0  0  0  0  0
    2.5136   -1.6581    1.1877 H   0  0  0  0  0  0  0  0  0  0  0  0
    4.1844   -0.8410    1.0758 H   0  0  0  0  0  0  0  0  0  0  0  0
    3.1501   -1.2517   -0.3840 H   0  0  0  0  0  0  0  0  0  0  0  0
  1  2  3  0
  2  3  1  0
  3  4  1  0
  4  5  1  0
  5  6  1  0
  6  7  2  0
  6  8  1  0
  8  9  1  0
  1 10  1  0
  3 11  1  0
  3 12  1  0
  4 13  1  0
  4 14  1  0
  8 15  1  0
  8 16  1  0
  9 17  1  0
  9 18  1  0
  9 19  1  0
M  END
