
     RDKit          3D

 17 17  0  0  0  0  0  0  0  0999 V2000
    1.7467    2.1488   -1.4252 C   0  0  0  0  0  0  0  0  0  0  0  0
    0.8661    1.2964   -1.3978 C   0  0  0  0  0  0  0  0  0  0  0  0
   -0.1807    0.2757   -1.3852 C   0  0  0  0  0  0  0  0  0  0  0  0
   -0.2098   -0.3789   -0.0441 C   0  0  0  0  0  0  0  0  0  0  0  0
   -1.2895   -1.4597    0.0291 C   0  0  0  0  0  0  0  0  0  0  0  0
    1.0023   -0.8543    0.4447 O   0  0  0  0  0  0  0  0  0  0  0  0
    0.6940   -0.3178    1.7064 C   0  0  0  0  0  0  0  0  0  0  0  0
   -0.3346    0.5173    1.1009 C   0  0  0  0  0  0  0  0  0  0  0  0
   -0.9808    1.4865    1.4025 O   0  0  0  0  0  0  0  0  0  0  0  0
    2.4964    2.8945   -1.4571 H   0  0  0  0  0  0  0  0  0  0  0  0
   -0.0183   -0.5122   -2.1447 H   0  0  0  0  0  0  0  0  0  0  0  0
   -1.1608    0.7921   -1.5230 H   0  0  0  0  0  0  0  0  0  0  0  0
   -2.2138   -1.0251    0.4181 H   0  0  0  0  0  0  0  0  0  0  0  0
   -1.3837   -1.8788   -0.9953 H   0  0  0  0  0  0  0  0  0  0  0  0
   -0.9555   -2.2334    0.7501 H   0  0  0  0  0  0  0  0  0  0  0  0
    0.3671   -1.0309    2.4609 H   0  0  0  0  0  0  0  0  0  0  0  0
    1.5548    0.2799    2.0596 H   0  0  0  0  0  0  0  0  0  0  0  0
  1  2  3  0
  2  3  1  0
  3  4  1  0
  4  5  1  0
  4  6  1  0
  6  7  1  0
  7  8  1  0
  8  9  2  0
  8  4  1  0
  1 10  1  0
  3 11  1  0
  3 12  1  0
  5 13  1  0
  5 14  1  0
  5 15  1  0
  7 16  1  0
  7 17  1  0
M  END
