
     RDKit          3D

 15 17  0  0  0  0  0  0  0  0999 V2000
    3.0432   -0.1378    1.4279 C   0  0  0  0  0  0  0  0  0  0  0  0
    1.9618    0.1369    0.9702 C   0  0  0  0  0  0  0  0  0  0  0  0
    0.6599    0.4816    0.4345 C   0  0  0  0  0  0  0  0  0  0  0  0
   -0.4264   -0.5404    0.6151 C   0  0  0  0  0  0  0  0  0  0  0  0
    0.3097   -1.3457   -0.2515 O   0  0  0  0  0  0  0  0  0  0  0  0
    0.3443   -0.1196   -0.9078 C   0  0  0  0  0  0  0  0  0  0  0  0
   -1.0770    0.0265   -0.5666 C   0  0  0  0  0  0  0  0  0  0  0  0
   -2.0385    0.9365   -0.7989 C   0  0  0  0  0  0  0  0  0  0  0  0
   -2.1170   -0.5026   -1.2439 O   0  0  0  0  0  0  0  0  0  0  0  0
    4.0049   -0.3680    1.8251 H   0  0  0  0  0  0  0  0  0  0  0  0
    0.3424    1.5356    0.5673 H   0  0  0  0  0  0  0  0  0  0  0  0
   -0.8198   -0.8365    1.4984 H   0  0  0  0  0  0  0  0  0  0  0  0
    0.8267    0.0762   -1.7722 H   0  0  0  0  0  0  0  0  0  0  0  0
   -2.8783    1.1632   -0.0791 H   0  0  0  0  0  0  0  0  0  0  0  0
   -2.1359    1.5493   -1.7184 H   0  0  0  0  0  0  0  0  0  0  0  0
  1  2  3  0
  2  3  1  0
  3  4  1  0
  4  5  1  0
  5  6  1  0
  6  7  1  0
  7  8  1  0
  8  9  1  0
  6  3  1  0
  9  7  1  0
  7  4  1  0
  1 10  1  0
  3 11  1  0
  4 12  1  0
  6 13  1  0
  8 14  1  0
  8 15  1  0
M  END
