
     RDKit          3D

 15 16  0  0  0  0  0  0  0  0999 V2000
    2.9004   -0.6427   -1.2578 C   0  0  0  0  0  0  0  0  0  0  0  0
    1.7659   -0.1869   -1.1677 C   0  0  0  0  0  0  0  0  0  0  0  0
    0.4054    0.3426   -1.0800 C   0  0  0  0  0  0  0  0  0  0  0  0
   -0.3460   -0.3423    0.0051 C   0  0  0  0  0  0  0  0  0  0  0  0
   -1.7580    0.1032    0.2078 C   0  0  0  0  0  0  0  0  0  0  0  0
   -2.6778    0.6580   -0.3070 O   0  0  0  0  0  0  0  0  0  0  0  0
   -1.5148   -0.5311    1.5370 C   0  0  0  0  0  0  0  0  0  0  0  0
   -0.7236   -0.1196    2.5103 O   0  0  0  0  0  0  0  0  0  0  0  0
   -0.2086    0.3083    1.3702 C   0  0  0  0  0  0  0  0  0  0  0  0
    3.8831   -1.0302   -1.3291 H   0  0  0  0  0  0  0  0  0  0  0  0
   -0.1140    0.1009   -2.0527 H   0  0  0  0  0  0  0  0  0  0  0  0
    0.4471    1.4253   -1.0087 H   0  0  0  0  0  0  0  0  0  0  0  0
   -0.2456   -1.4236    0.0060 H   0  0  0  0  0  0  0  0  0  0  0  0
   -1.3949   -1.6462    1.3495 H   0  0  0  0  0  0  0  0  0  0  0  0
   -0.4186    1.4175    1.2173 H   0  0  0  0  0  0  0  0  0  0  0  0
  1  2  3  0
  2  3  1  0
  3  4  1  0
  4  5  1  0
  5  6  2  0
  5  7  1  0
  7  8  1  0
  8  9  1  0
  9  4  1  0
  9  7  1  0
  1 10  1  0
  3 11  1  0
  3 12  1  0
  4 13  1  0
  7 14  1  0
  9 15  1  0
M  END
