
     RDKit          3D

 19 19  0  0  0  0  0  0  0  0999 V2000
   -0.5513    3.4863    0.2926 C   0  0  0  0  0  0  0  0  0  0  0  0
   -0.4361    2.2876    0.2536 C   0  0  0  0  0  0  0  0  0  0  0  0
   -0.2753    0.8584    0.2164 C   0  0  0  0  0  0  0  0  0  0  0  0
   -1.6127    0.1257    0.0903 C   0  0  0  0  0  0  0  0  0  0  0  0
   -1.2796   -1.3495    0.2564 C   0  0  0  0  0  0  0  0  0  0  0  0
    0.0738   -1.5539    0.3273 O   0  0  0  0  0  0  0  0  0  0  0  0
    0.8173   -0.9278   -0.6335 C   0  0  0  0  0  0  0  0  0  0  0  0
    2.2829   -0.9846   -0.1944 C   0  0  0  0  0  0  0  0  0  0  0  0
    0.5156    0.4031   -0.8314 O   0  0  0  0  0  0  0  0  0  0  0  0
   -0.6452    4.5484    0.3437 H   0  0  0  0  0  0  0  0  0  0  0  0
    0.1797    0.4714    1.1591 H   0  0  0  0  0  0  0  0  0  0  0  0
   -2.3480    0.4867    0.8099 H   0  0  0  0  0  0  0  0  0  0  0  0
   -1.9332    0.2661   -0.9681 H   0  0  0  0  0  0  0  0  0  0  0  0
   -1.7885   -1.9763   -0.5007 H   0  0  0  0  0  0  0  0  0  0  0  0
   -1.7018   -1.6241    1.2684 H   0  0  0  0  0  0  0  0  0  0  0  0
    0.7249   -1.4250   -1.6440 H   0  0  0  0  0  0  0  0  0  0  0  0
    2.8518   -1.6255   -0.9229 H   0  0  0  0  0  0  0  0  0  0  0  0
    2.7353    0.0051   -0.1192 H   0  0  0  0  0  0  0  0  0  0  0  0
    2.3904   -1.4723    0.7965 H   0  0  0  0  0  0  0  0  0  0  0  0
  1  2  3  0
  2  3  1  0
  3  4  1  0
  4  5  1  0
  5  6  1  0
  6  7  1  0
  7  8  1  0
  7  9  1  0
  9  3  1  0
  1 10  1  0
  3 11  1  0
  4 12  1  0
  4 13  1  0
  5 14  1  0
  5 15  1  0
  7 16  1  0
  8 17  1  0
  8 18  1  0
  8 19  1  0
M  END
