
     RDKit          3D

 22 21  0  0  0  0  0  0  0  0999 V2000
    3.8120   -0.9543    1.0098 C   0  0  0  0  0  0  0  0  0  0  0  0
    2.7843   -1.1248    0.4695 C   0  0  0  0  0  0  0  0  0  0  0  0
    1.4787   -1.3313   -0.2432 C   0  0  0  0  0  0  0  0  0  0  0  0
    0.7713    0.0034   -0.2362 C   0  0  0  0  0  0  0  0  0  0  0  0
   -0.5384   -0.0703   -0.9211 C   0  0  0  0  0  0  0  0  0  0  0  0
   -1.4361   -1.0843   -0.2327 C   0  0  0  0  0  0  0  0  0  0  0  0
   -1.2656    1.2347   -1.0430 C   0  0  0  0  0  0  0  0  0  0  0  0
   -1.5936    1.9101    0.2366 C   0  0  0  0  0  0  0  0  0  0  0  0
    4.7574   -0.7858    1.5145 H   0  0  0  0  0  0  0  0  0  0  0  0
    0.9191   -2.1339    0.2554 H   0  0  0  0  0  0  0  0  0  0  0  0
    1.7442   -1.5644   -1.3117 H   0  0  0  0  0  0  0  0  0  0  0  0
    1.4615    0.7752   -0.6231 H   0  0  0  0  0  0  0  0  0  0  0  0
    0.6447    0.2479    0.8535 H   0  0  0  0  0  0  0  0  0  0  0  0
   -0.3869   -0.4610   -1.9617 H   0  0  0  0  0  0  0  0  0  0  0  0
   -2.4413   -1.0570   -0.7454 H   0  0  0  0  0  0  0  0  0  0  0  0
   -1.5323   -0.8174    0.8519 H   0  0  0  0  0  0  0  0  0  0  0  0
   -1.0123   -2.0923   -0.3382 H   0  0  0  0  0  0  0  0  0  0  0  0
   -2.2381    1.0025   -1.5733 H   0  0  0  0  0  0  0  0  0  0  0  0
   -0.7500    1.9623   -1.7076 H   0  0  0  0  0  0  0  0  0  0  0  0
   -2.4118    2.6551    0.0223 H   0  0  0  0  0  0  0  0  0  0  0  0
   -0.7626    2.5178    0.6438 H   0  0  0  0  0  0  0  0  0  0  0  0
   -2.0043    1.1680    0.9539 H   0  0  0  0  0  0  0  0  0  0  0  0
  1  2  3  0
  2  3  1  0
  3  4  1  0
  4  5  1  0
  5  6  1  0
  5  7  1  0
  7  8  1  0
  1  9  1  0
  3 10  1  0
  3 11  1  0
  4 12  1  0
  4 13  1  0
  5 14  1  0
  6 15  1  0
  6 16  1  0
  6 17  1  0
  7 18  1  0
  7 19  1  0
  8 20  1  0
  8 21  1  0
  8 22  1  0
M  END
