
     RDKit          3D

 21 21  0  0  0  0  0  0  0  0999 V2000
   -0.9838    2.9033    0.5889 C   0  0  0  0  0  0  0  0  0  0  0  0
   -0.5316    1.9268    0.0275 C   0  0  0  0  0  0  0  0  0  0  0  0
   -0.0039    0.7265   -0.6525 C   0  0  0  0  0  0  0  0  0  0  0  0
   -1.1906   -0.0588   -1.1533 C   0  0  0  0  0  0  0  0  0  0  0  0
   -1.8781   -0.7455    0.0034 C   0  0  0  0  0  0  0  0  0  0  0  0
   -1.0912   -1.4653    0.8018 C   0  0  0  0  0  0  0  0  0  0  0  0
    0.3554   -1.5000    0.4530 C   0  0  0  0  0  0  0  0  0  0  0  0
    0.8419   -0.0834    0.3103 C   0  0  0  0  0  0  0  0  0  0  0  0
    2.3103   -0.0226   -0.0498 C   0  0  0  0  0  0  0  0  0  0  0  0
   -1.3752    3.7718    1.0682 H   0  0  0  0  0  0  0  0  0  0  0  0
    0.6127    1.0097   -1.5245 H   0  0  0  0  0  0  0  0  0  0  0  0
   -0.8281   -0.8527   -1.8288 H   0  0  0  0  0  0  0  0  0  0  0  0
   -1.9127    0.6069   -1.6227 H   0  0  0  0  0  0  0  0  0  0  0  0
   -2.9254   -0.6740    0.1901 H   0  0  0  0  0  0  0  0  0  0  0  0
   -1.4938   -1.9949    1.6590 H   0  0  0  0  0  0  0  0  0  0  0  0
    0.4522   -2.0334   -0.5305 H   0  0  0  0  0  0  0  0  0  0  0  0
    0.9084   -1.9886    1.2552 H   0  0  0  0  0  0  0  0  0  0  0  0
    0.7607    0.3835    1.3276 H   0  0  0  0  0  0  0  0  0  0  0  0
    2.8793   -0.2966    0.8589 H   0  0  0  0  0  0  0  0  0  0  0  0
    2.5566   -0.6584   -0.9252 H   0  0  0  0  0  0  0  0  0  0  0  0
    2.5371    1.0458   -0.2566 H   0  0  0  0  0  0  0  0  0  0  0  0
  1  2  3  0
  2  3  1  0
  3  4  1  0
  4  5  1  0
  5  6  2  0
  6  7  1  0
  7  8  1  0
  8  9  1  0
  8  3  1  0
  1 10  1  0
  3 11  1  0
  4 12  1  0
  4 13  1  0
  5 14  1  0
  6 15  1  0
  7 16  1  0
  7 17  1  0
  8 18  1  0
  9 19  1  0
  9 20  1  0
  9 21  1  0
M  END
