
     RDKit          3D

 21 21  0  0  0  0  0  0  0  0999 V2000
    2.4938   -1.9367    0.9090 C   0  0  0  0  0  0  0  0  0  0  0  0
    2.1386   -0.8965    0.4212 C   0  0  0  0  0  0  0  0  0  0  0  0
    1.7010    0.3730   -0.1476 C   0  0  0  0  0  0  0  0  0  0  0  0
    0.3167    0.3774   -0.6946 C   0  0  0  0  0  0  0  0  0  0  0  0
   -0.1151    1.6941   -1.2937 C   0  0  0  0  0  0  0  0  0  0  0  0
   -0.1338   -0.8314   -1.1437 O   0  0  0  0  0  0  0  0  0  0  0  0
   -0.7845   -0.3627   -0.0181 C   0  0  0  0  0  0  0  0  0  0  0  0
   -2.2215    0.0340   -0.3111 C   0  0  0  0  0  0  0  0  0  0  0  0
   -0.5255   -0.8565    1.3514 C   0  0  0  0  0  0  0  0  0  0  0  0
    2.8212   -2.8429    1.3429 H   0  0  0  0  0  0  0  0  0  0  0  0
    2.4374    0.5902   -0.9794 H   0  0  0  0  0  0  0  0  0  0  0  0
    1.8892    1.1924    0.5834 H   0  0  0  0  0  0  0  0  0  0  0  0
   -0.6739    2.2359   -0.5027 H   0  0  0  0  0  0  0  0  0  0  0  0
    0.7514    2.3333   -1.5859 H   0  0  0  0  0  0  0  0  0  0  0  0
   -0.7858    1.5924   -2.1502 H   0  0  0  0  0  0  0  0  0  0  0  0
   -2.8386   -0.8946   -0.3952 H   0  0  0  0  0  0  0  0  0  0  0  0
   -2.6526    0.5833    0.5630 H   0  0  0  0  0  0  0  0  0  0  0  0
   -2.3169    0.5788   -1.2597 H   0  0  0  0  0  0  0  0  0  0  0  0
   -1.4548   -0.6640    1.9678 H   0  0  0  0  0  0  0  0  0  0  0  0
   -0.3341   -1.9481    1.4336 H   0  0  0  0  0  0  0  0  0  0  0  0
    0.2879   -0.3513    1.9095 H   0  0  0  0  0  0  0  0  0  0  0  0
  1  2  3  0
  2  3  1  0
  3  4  1  0
  4  5  1  0
  4  6  1  0
  6  7  1  0
  7  8  1  0
  7  9  1  0
  7  4  1  0
  1 10  1  0
  3 11  1  0
  3 12  1  0
  5 13  1  0
  5 14  1  0
  5 15  1  0
  8 16  1  0
  8 17  1  0
  8 18  1  0
  9 19  1  0
  9 20  1  0
  9 21  1  0
M  END
