
     RDKit          3D

 17 17  0  0  0  0  0  0  0  0999 V2000
    3.1710    1.4793   -0.1600 C   0  0  0  0  0  0  0  0  0  0  0  0
    2.5652    0.4692    0.1281 C   0  0  0  0  0  0  0  0  0  0  0  0
    1.8613   -0.7315    0.4819 C   0  0  0  0  0  0  0  0  0  0  0  0
    2.3498   -1.5798    1.2695 O   0  0  0  0  0  0  0  0  0  0  0  0
    0.5362   -0.9556   -0.1030 C   0  0  0  0  0  0  0  0  0  0  0  0
   -0.6463   -0.6246    0.7787 C   0  0  0  0  0  0  0  0  0  0  0  0
   -1.1972   -0.2915   -0.6087 C   0  0  0  0  0  0  0  0  0  0  0  0
   -2.1813    0.8508   -0.5844 C   0  0  0  0  0  0  0  0  0  0  0  0
    0.1045    0.0565   -0.9600 O   0  0  0  0  0  0  0  0  0  0  0  0
    3.7011    2.3684   -0.4054 H   0  0  0  0  0  0  0  0  0  0  0  0
    0.3704   -1.9340   -0.5911 H   0  0  0  0  0  0  0  0  0  0  0  0
   -0.5513    0.2718    1.3934 H   0  0  0  0  0  0  0  0  0  0  0  0
   -1.1636   -1.4917    1.2273 H   0  0  0  0  0  0  0  0  0  0  0  0
   -1.5809   -1.1934   -1.0895 H   0  0  0  0  0  0  0  0  0  0  0  0
   -1.9016    1.6222    0.1585 H   0  0  0  0  0  0  0  0  0  0  0  0
   -3.1716    0.4113   -0.3260 H   0  0  0  0  0  0  0  0  0  0  0  0
   -2.2657    1.2727   -1.6090 H   0  0  0  0  0  0  0  0  0  0  0  0
  1  2  3  0
  2  3  1  0
  3  4  2  0
  3  5  1  0
  5  6  1  0
  6  7  1  0
  7  8  1  0
  7  9  1  0
  9  5  1  0
  1 10  1  0
  5 11  1  0
  6 12  1  0
  6 13  1  0
  7 14  1  0
  8 15  1  0
  8 16  1  0
  8 17  1  0
M  END
