
     RDKit          3D

 17 18  0  0  0  0  0  0  0  0999 V2000
    3.0134   -1.0532   -1.2720 C   0  0  0  0  0  0  0  0  0  0  0  0
    1.8849   -0.8428   -0.8966 C   0  0  0  0  0  0  0  0  0  0  0  0
    0.5055   -0.5643   -0.4451 C   0  0  0  0  0  0  0  0  0  0  0  0
   -0.0773    0.5414   -1.1170 O   0  0  0  0  0  0  0  0  0  0  0  0
   -0.9377    0.5424   -0.0374 C   0  0  0  0  0  0  0  0  0  0  0  0
   -1.8539   -0.6641   -0.1031 C   0  0  0  0  0  0  0  0  0  0  0  0
   -0.7270    0.9993    1.3004 C   0  0  0  0  0  0  0  0  0  0  0  0
    0.4290    0.3814    0.7322 C   0  0  0  0  0  0  0  0  0  0  0  0
    1.3945    1.3916    0.4376 O   0  0  0  0  0  0  0  0  0  0  0  0
    4.0146   -1.2402   -1.5999 H   0  0  0  0  0  0  0  0  0  0  0  0
   -0.0414   -1.4837   -0.4218 H   0  0  0  0  0  0  0  0  0  0  0  0
   -1.9304   -1.1331   -1.0807 H   0  0  0  0  0  0  0  0  0  0  0  0
   -1.6966   -1.3681    0.7487 H   0  0  0  0  0  0  0  0  0  0  0  0
   -2.8874   -0.2427    0.1000 H   0  0  0  0  0  0  0  0  0  0  0  0
   -1.1529    0.4650    2.2038 H   0  0  0  0  0  0  0  0  0  0  0  0
   -0.8823    2.1094    1.4701 H   0  0  0  0  0  0  0  0  0  0  0  0
    0.9451    2.1616   -0.0193 H   0  0  0  0  0  0  0  0  0  0  0  0
  1  2  3  0
  2  3  1  0
  3  4  1  0
  4  5  1  0
  5  6  1  0
  5  7  1  0
  7  8  1  0
  8  9  1  0
  8  3  1  0
  8  5  1  0
  1 10  1  0
  3 11  1  0
  6 12  1  0
  6 13  1  0
  6 14  1  0
  7 15  1  0
  7 16  1  0
  9 17  1  0
M  END
