
     RDKit          3D

 15 16  0  0  0  0  0  0  0  0999 V2000
    3.1742   -0.2131   -0.1014 C   0  0  0  0  0  0  0  0  0  0  0  0
    2.0372   -0.4291   -0.4484 C   0  0  0  0  0  0  0  0  0  0  0  0
    0.6474   -0.6917   -0.8458 C   0  0  0  0  0  0  0  0  0  0  0  0
   -0.2945    0.0142   -0.1268 C   0  0  0  0  0  0  0  0  0  0  0  0
   -1.7730   -0.0262   -0.2813 C   0  0  0  0  0  0  0  0  0  0  0  0
   -1.4486    1.0471    0.7168 C   0  0  0  0  0  0  0  0  0  0  0  0
   -0.4307    1.4195   -0.1409 O   0  0  0  0  0  0  0  0  0  0  0  0
   -0.4823    0.1014    1.3100 C   0  0  0  0  0  0  0  0  0  0  0  0
   -0.1281   -0.2985    2.3836 O   0  0  0  0  0  0  0  0  0  0  0  0
    4.1762   -0.0403    0.1972 H   0  0  0  0  0  0  0  0  0  0  0  0
    0.5964   -0.4702   -1.9543 H   0  0  0  0  0  0  0  0  0  0  0  0
    0.5172   -1.7925   -0.7851 H   0  0  0  0  0  0  0  0  0  0  0  0
   -2.2985   -0.9169    0.1124 H   0  0  0  0  0  0  0  0  0  0  0  0
   -2.1946    0.3399   -1.2394 H   0  0  0  0  0  0  0  0  0  0  0  0
   -2.0982    1.6429    1.2035 H   0  0  0  0  0  0  0  0  0  0  0  0
  1  2  3  0
  2  3  1  0
  3  4  1  0
  4  5  1  0
  5  6  1  0
  6  7  1  0
  6  8  1  0
  8  9  2  0
  7  4  1  0
  8  4  1  0
  1 10  1  0
  3 11  1  0
  3 12  1  0
  5 13  1  0
  5 14  1  0
  6 15  1  0
M  END
