
     RDKit          3D

 19 19  0  0  0  0  0  0  0  0999 V2000
   -3.1518    0.4815    1.2513 C   0  0  0  0  0  0  0  0  0  0  0  0
   -2.5041    0.0699    0.0254 C   0  0  0  0  0  0  0  0  0  0  0  0
   -1.9637   -0.2604   -0.9537 C   0  0  0  0  0  0  0  0  0  0  0  0
   -0.3930   -0.0902   -1.1220 C   0  0  0  0  0  0  0  0  0  0  0  0
    0.3515   -0.6584    0.0151 C   0  0  0  0  0  0  0  0  0  0  0  0
    0.5834    0.3290    1.1816 C   0  0  0  0  0  0  0  0  0  0  0  0
    1.7635   -0.5497    0.4652 C   0  0  0  0  0  0  0  0  0  0  0  0
    2.6372    0.0536   -0.0328 C   0  0  0  0  0  0  0  0  0  0  0  0
    3.6729    0.7536   -0.6218 C   0  0  0  0  0  0  0  0  0  0  0  0
   -3.6119    0.7846    2.1023 H   0  0  0  0  0  0  0  0  0  0  0  0
   -1.8941   -1.5798   -0.9333 H   0  0  0  0  0  0  0  0  0  0  0  0
   -2.4541   -0.2545   -2.0155 H   0  0  0  0  0  0  0  0  0  0  0  0
   -0.3301    1.0817   -0.9626 H   0  0  0  0  0  0  0  0  0  0  0  0
   -0.0475   -0.2252   -2.1377 H   0  0  0  0  0  0  0  0  0  0  0  0
   -0.3023   -1.5463    0.5033 H   0  0  0  0  0  0  0  0  0  0  0  0
    0.7357    1.4254    0.9107 H   0  0  0  0  0  0  0  0  0  0  0  0
    0.3215    0.1616    2.1854 H   0  0  0  0  0  0  0  0  0  0  0  0
    1.9619   -1.3908    1.2883 H   0  0  0  0  0  0  0  0  0  0  0  0
    4.6250    1.4144   -1.1492 H   0  0  0  0  0  0  0  0  0  0  0  0
  1  2  3  0
  2  3  1  0
  3  4  1  0
  4  5  1  0
  5  6  1  0
  6  7  1  0
  7  8  1  0
  8  9  3  0
  7  5  1  0
  1 10  1  0
  3 11  1  0
  3 12  1  0
  4 13  1  0
  4 14  1  0
  5 15  1  0
  6 16  1  0
  6 17  1  0
  7 18  1  0
  9 19  1  0
M  END
