
     RDKit          3D

 15 16  0  0  0  0  0  0  0  0999 V2000
    2.9596    1.7536    0.3176 C   0  0  0  0  0  0  0  0  0  0  0  0
    1.9021    1.2021    0.2398 C   0  0  0  0  0  0  0  0  0  0  0  0
    0.7231    0.5646    0.1573 C   0  0  0  0  0  0  0  0  0  0  0  0
    0.4786   -0.8758    0.4466 C   0  0  0  0  0  0  0  0  0  0  0  0
   -0.8346   -0.2352    0.1292 C   0  0  0  0  0  0  0  0  0  0  0  0
   -2.0811   -0.8010    0.1050 C   0  0  0  0  0  0  0  0  0  0  0  0
   -0.4007    0.8389    0.9127 O   0  0  0  0  0  0  0  0  0  0  0  0
   -0.1377    0.4515   -0.9935 C   0  0  0  0  0  0  0  0  0  0  0  0
   -0.3891    0.6539   -2.1425 O   0  0  0  0  0  0  0  0  0  0  0  0
    3.9200    2.2456    0.4025 H   0  0  0  0  0  0  0  0  0  0  0  0
    0.6597   -1.1870    1.4743 H   0  0  0  0  0  0  0  0  0  0  0  0
    0.7654   -1.5858   -0.3544 H   0  0  0  0  0  0  0  0  0  0  0  0
   -2.7173   -0.5097   -0.7849 H   0  0  0  0  0  0  0  0  0  0  0  0
   -2.7622   -0.5837    0.9817 H   0  0  0  0  0  0  0  0  0  0  0  0
   -2.0860   -1.9320    0.0577 H   0  0  0  0  0  0  0  0  0  0  0  0
  1  2  3  0
  2  3  1  0
  3  4  1  0
  4  5  1  0
  5  6  1  0
  5  7  1  0
  5  8  1  0
  8  9  2  0
  7  3  1  0
  8  3  1  0
  1 10  1  0
  4 11  1  0
  4 12  1  0
  6 13  1  0
  6 14  1  0
  6 15  1  0
M  END
