
     RDKit          3D

 19 18  0  0  0  0  0  0  0  0999 V2000
    1.9797    2.2263   -0.0359 C   0  0  0  0  0  0  0  0  0  0  0  0
    1.1598    1.4133   -0.7534 C   0  0  0  0  0  0  0  0  0  0  0  0
    0.3987    0.6678   -1.4392 C   0  0  0  0  0  0  0  0  0  0  0  0
    0.1391   -0.7762   -1.0473 C   0  0  0  0  0  0  0  0  0  0  0  0
   -0.3332   -0.9872    0.3348 C   0  0  0  0  0  0  0  0  0  0  0  0
    0.4762   -0.8376    1.5062 C   0  0  0  0  0  0  0  0  0  0  0  0
   -1.1681   -2.0987    0.3296 O   0  0  0  0  0  0  0  0  0  0  0  0
   -1.4361    0.2077    0.5572 C   0  0  0  0  0  0  0  0  0  0  0  0
   -2.1913    1.0557    0.7126 C   0  0  0  0  0  0  0  0  0  0  0  0
    2.7031    2.9214    0.5717 H   0  0  0  0  0  0  0  0  0  0  0  0
   -0.6661    1.1634   -1.6687 H   0  0  0  0  0  0  0  0  0  0  0  0
    0.7459    0.5654   -2.5659 H   0  0  0  0  0  0  0  0  0  0  0  0
    1.2524   -1.1977   -1.0570 H   0  0  0  0  0  0  0  0  0  0  0  0
   -0.3010   -1.3145   -1.8652 H   0  0  0  0  0  0  0  0  0  0  0  0
   -0.1023   -0.4820    2.4162 H   0  0  0  0  0  0  0  0  0  0  0  0
    1.4780   -0.3821    1.4709 H   0  0  0  0  0  0  0  0  0  0  0  0
    0.7036   -1.9815    1.8050 H   0  0  0  0  0  0  0  0  0  0  0  0
   -2.0734   -1.8855   -0.1085 H   0  0  0  0  0  0  0  0  0  0  0  0
   -2.7648    1.7220    0.8369 H   0  0  0  0  0  0  0  0  0  0  0  0
  1  2  3  0
  2  3  1  0
  3  4  1  0
  4  5  1  0
  5  6  1  0
  5  7  1  0
  5  8  1  0
  8  9  3  0
  1 10  1  0
  3 11  1  0
  3 12  1  0
  4 13  1  0
  4 14  1  0
  6 15  1  0
  6 16  1  0
  6 17  1  0
  7 18  1  0
  9 19  1  0
M  END
