
     RDKit          3D

 18 18  0  0  0  0  0  0  0  0999 V2000
    3.7335    0.8541   -0.6263 C   0  0  0  0  0  0  0  0  0  0  0  0
    2.5595    0.8167   -0.8341 C   0  0  0  0  0  0  0  0  0  0  0  0
    1.1259    0.7463   -1.0941 C   0  0  0  0  0  0  0  0  0  0  0  0
    0.5017   -0.5076   -0.5240 C   0  0  0  0  0  0  0  0  0  0  0  0
   -0.6335    0.4784   -0.3469 C   0  0  0  0  0  0  0  0  0  0  0  0
   -1.4630    0.2420    0.8936 C   0  0  0  0  0  0  0  0  0  0  0  0
   -2.0512   -1.1511    0.7826 C   0  0  0  0  0  0  0  0  0  0  0  0
    0.3405    1.4749   -0.2015 O   0  0  0  0  0  0  0  0  0  0  0  0
    4.7970    0.9013   -0.4515 H   0  0  0  0  0  0  0  0  0  0  0  0
    0.8299    0.8688   -2.1485 H   0  0  0  0  0  0  0  0  0  0  0  0
    0.9078   -0.8348    0.4502 H   0  0  0  0  0  0  0  0  0  0  0  0
    0.2872   -1.2951   -1.2628 H   0  0  0  0  0  0  0  0  0  0  0  0
   -1.2359    0.6661   -1.2459 H   0  0  0  0  0  0  0  0  0  0  0  0
   -0.8519    0.3380    1.8099 H   0  0  0  0  0  0  0  0  0  0  0  0
   -2.2932    0.9432    0.9698 H   0  0  0  0  0  0  0  0  0  0  0  0
   -1.8264   -1.6216   -0.1985 H   0  0  0  0  0  0  0  0  0  0  0  0
   -3.1581   -1.1359    0.8650 H   0  0  0  0  0  0  0  0  0  0  0  0
   -1.5697   -1.7837    1.5487 H   0  0  0  0  0  0  0  0  0  0  0  0
  1  2  3  0
  2  3  1  0
  3  4  1  0
  4  5  1  0
  5  6  1  0
  6  7  1  0
  5  8  1  0
  8  3  1  0
  1  9  1  0
  3 10  1  0
  4 11  1  0
  4 12  1  0
  5 13  1  0
  6 14  1  0
  6 15  1  0
  7 16  1  0
  7 17  1  0
  7 18  1  0
M  END
