
     RDKit          3D

 17 18  0  0  0  0  0  0  0  0999 V2000
    2.7426   -0.9163   -0.9002 C   0  0  0  0  0  0  0  0  0  0  0  0
    1.5836   -0.6404   -0.7273 C   0  0  0  0  0  0  0  0  0  0  0  0
    0.1665   -0.3210   -0.5346 C   0  0  0  0  0  0  0  0  0  0  0  0
   -0.2096    1.0961   -0.7828 C   0  0  0  0  0  0  0  0  0  0  0  0
   -0.4431    1.6393    0.5986 C   0  0  0  0  0  0  0  0  0  0  0  0
   -0.7649    0.5837    1.4179 O   0  0  0  0  0  0  0  0  0  0  0  0
   -0.2887   -0.5736    0.8547 C   0  0  0  0  0  0  0  0  0  0  0  0
   -1.3428   -1.3646    0.1400 C   0  0  0  0  0  0  0  0  0  0  0  0
   -0.6740   -1.2757   -1.0695 O   0  0  0  0  0  0  0  0  0  0  0  0
    3.7832   -1.1530   -1.0668 H   0  0  0  0  0  0  0  0  0  0  0  0
   -1.0821    1.2287   -1.4604 H   0  0  0  0  0  0  0  0  0  0  0  0
    0.6451    1.6242   -1.2464 H   0  0  0  0  0  0  0  0  0  0  0  0
   -1.2050    2.4285    0.5372 H   0  0  0  0  0  0  0  0  0  0  0  0
    0.4972    2.1164    0.9503 H   0  0  0  0  0  0  0  0  0  0  0  0
    0.3699   -1.1946    1.4929 H   0  0  0  0  0  0  0  0  0  0  0  0
   -1.4568   -2.4102    0.5057 H   0  0  0  0  0  0  0  0  0  0  0  0
   -2.3210   -0.8676    0.1860 H   0  0  0  0  0  0  0  0  0  0  0  0
  1  2  3  0
  2  3  1  0
  3  4  1  0
  4  5  1  0
  5  6  1  0
  6  7  1  0
  7  8  1  0
  8  9  1  0
  7  3  1  0
  9  3  1  0
  1 10  1  0
  4 11  1  0
  4 12  1  0
  5 13  1  0
  5 14  1  0
  7 15  1  0
  8 16  1  0
  8 17  1  0
M  END
