
     RDKit          3D

 23 22  0  0  0  0  0  0  0  0999 V2000
    1.1326    1.7531    2.0153 C   0  0  0  0  0  0  0  0  0  0  0  0
    0.6105    1.3206    1.0488 C   0  0  0  0  0  0  0  0  0  0  0  0
   -0.0313    0.8067   -0.1606 C   0  0  0  0  0  0  0  0  0  0  0  0
    0.0922    1.8251   -1.3033 C   0  0  0  0  0  0  0  0  0  0  0  0
   -1.4862    0.5686    0.0520 C   0  0  0  0  0  0  0  0  0  0  0  0
   -1.8232   -0.4083    1.1198 C   0  0  0  0  0  0  0  0  0  0  0  0
    0.6757   -0.4437   -0.6362 C   0  0  0  0  0  0  0  0  0  0  0  0
    0.6639   -1.4520    0.3010 O   0  0  0  0  0  0  0  0  0  0  0  0
    1.3437   -2.5553   -0.2366 C   0  0  0  0  0  0  0  0  0  0  0  0
    1.6306    2.1407    2.9131 H   0  0  0  0  0  0  0  0  0  0  0  0
   -0.6126    2.6645   -1.1998 H   0  0  0  0  0  0  0  0  0  0  0  0
   -0.0375    1.3379   -2.2914 H   0  0  0  0  0  0  0  0  0  0  0  0
    1.1166    2.2481   -1.2430 H   0  0  0  0  0  0  0  0  0  0  0  0
   -1.9020    0.2113   -0.9363 H   0  0  0  0  0  0  0  0  0  0  0  0
   -2.0104    1.5365    0.2261 H   0  0  0  0  0  0  0  0  0  0  0  0
   -1.7145   -1.4417    0.6750 H   0  0  0  0  0  0  0  0  0  0  0  0
   -2.8999   -0.3196    1.3699 H   0  0  0  0  0  0  0  0  0  0  0  0
   -1.1686   -0.3870    1.9937 H   0  0  0  0  0  0  0  0  0  0  0  0
    1.7064   -0.2423   -0.9779 H   0  0  0  0  0  0  0  0  0  0  0  0
    0.0849   -0.7891   -1.5378 H   0  0  0  0  0  0  0  0  0  0  0  0
    0.8524   -2.9086   -1.1660 H   0  0  0  0  0  0  0  0  0  0  0  0
    1.4329   -3.3296    0.5284 H   0  0  0  0  0  0  0  0  0  0  0  0
    2.3438   -2.1359   -0.5545 H   0  0  0  0  0  0  0  0  0  0  0  0
  1  2  3  0
  2  3  1  0
  3  4  1  0
  3  5  1  0
  5  6  1  0
  3  7  1  0
  7  8  1  0
  8  9  1  0
  1 10  1  0
  4 11  1  0
  4 12  1  0
  4 13  1  0
  5 14  1  0
  5 15  1  0
  6 16  1  0
  6 17  1  0
  6 18  1  0
  7 19  1  0
  7 20  1  0
  9 21  1  0
  9 22  1  0
  9 23  1  0
M  END
