
     RDKit          3D

 19 20  0  0  0  0  0  0  0  0999 V2000
   -2.7220    1.2686   -0.2564 C   0  0  0  0  0  0  0  0  0  0  0  0
   -1.7569    0.5721   -0.1050 C   0  0  0  0  0  0  0  0  0  0  0  0
   -0.5651   -0.2745    0.1042 C   0  0  0  0  0  0  0  0  0  0  0  0
   -0.5804   -1.4893   -0.7496 C   0  0  0  0  0  0  0  0  0  0  0  0
   -0.3270   -0.5520    1.5826 C   0  0  0  0  0  0  0  0  0  0  0  0
    0.3947    0.6641    1.6102 O   0  0  0  0  0  0  0  0  0  0  0  0
    0.7065    0.4475    0.2998 C   0  0  0  0  0  0  0  0  0  0  0  0
    2.0111    0.0912   -0.1790 C   0  0  0  0  0  0  0  0  0  0  0  0
    1.2950    1.4032   -0.6101 C   0  0  0  0  0  0  0  0  0  0  0  0
   -3.5856    1.8925   -0.3760 H   0  0  0  0  0  0  0  0  0  0  0  0
   -0.5718   -2.3797   -0.0827 H   0  0  0  0  0  0  0  0  0  0  0  0
    0.3143   -1.5766   -1.3953 H   0  0  0  0  0  0  0  0  0  0  0  0
   -1.5254   -1.5641   -1.3445 H   0  0  0  0  0  0  0  0  0  0  0  0
    0.3469   -1.4259    1.7309 H   0  0  0  0  0  0  0  0  0  0  0  0
   -1.2372   -0.5427    2.1823 H   0  0  0  0  0  0  0  0  0  0  0  0
    2.8933    0.2868    0.4910 H   0  0  0  0  0  0  0  0  0  0  0  0
    2.2582   -0.5880   -1.0013 H   0  0  0  0  0  0  0  0  0  0  0  0
    1.6856    2.3421   -0.2191 H   0  0  0  0  0  0  0  0  0  0  0  0
    0.9659    1.4248   -1.6820 H   0  0  0  0  0  0  0  0  0  0  0  0
  1  2  3  0
  2  3  1  0
  3  4  1  0
  3  5  1  0
  5  6  1  0
  6  7  1  0
  7  8  1  0
  8  9  1  0
  7  3  1  0
  9  7  1  0
  1 10  1  0
  4 11  1  0
  4 12  1  0
  4 13  1  0
  5 14  1  0
  5 15  1  0
  8 16  1  0
  8 17  1  0
  9 18  1  0
  9 19  1  0
M  END
