
     RDKit          3D

 17 18  0  0  0  0  0  0  0  0999 V2000
    2.6482   -1.8217   -0.7443 C   0  0  0  0  0  0  0  0  0  0  0  0
    1.8322   -0.9411   -0.8981 C   0  0  0  0  0  0  0  0  0  0  0  0
    0.8558    0.1366   -1.1038 C   0  0  0  0  0  0  0  0  0  0  0  0
   -0.5874   -0.2311   -1.1111 C   0  0  0  0  0  0  0  0  0  0  0  0
   -0.9255   -1.4493   -0.5500 O   0  0  0  0  0  0  0  0  0  0  0  0
   -1.2193   -1.0764    0.7694 C   0  0  0  0  0  0  0  0  0  0  0  0
   -0.1304   -0.3030    1.1544 O   0  0  0  0  0  0  0  0  0  0  0  0
    0.0321    0.5352    0.0570 C   0  0  0  0  0  0  0  0  0  0  0  0
   -0.4672    1.9668    0.1630 C   0  0  0  0  0  0  0  0  0  0  0  0
    3.3667   -2.5938   -0.5907 H   0  0  0  0  0  0  0  0  0  0  0  0
    1.1470    0.9594   -1.7870 H   0  0  0  0  0  0  0  0  0  0  0  0
   -1.3005    0.2923   -1.7684 H   0  0  0  0  0  0  0  0  0  0  0  0
   -2.1481   -0.4767    0.7303 H   0  0  0  0  0  0  0  0  0  0  0  0
   -1.3385   -1.9914    1.3821 H   0  0  0  0  0  0  0  0  0  0  0  0
   -0.1859    2.4847   -0.7783 H   0  0  0  0  0  0  0  0  0  0  0  0
    0.0038    2.5115    0.9895 H   0  0  0  0  0  0  0  0  0  0  0  0
   -1.5832    1.9980    0.2052 H   0  0  0  0  0  0  0  0  0  0  0  0
  1  2  3  0
  2  3  1  0
  3  4  1  0
  4  5  1  0
  5  6  1  0
  6  7  1  0
  7  8  1  0
  8  9  1  0
  8  3  1  0
  8  4  1  0
  1 10  1  0
  3 11  1  0
  4 12  1  0
  6 13  1  0
  6 14  1  0
  9 15  1  0
  9 16  1  0
  9 17  1  0
M  END
