
     RDKit          3D

 20 20  0  0  0  0  0  0  0  0999 V2000
    2.9570    0.8706   -1.0146 C   0  0  0  0  0  0  0  0  0  0  0  0
    2.1527    0.2683   -0.8818 C   0  0  0  0  0  0  0  0  0  0  0  0
    0.6850   -0.8150   -0.6122 C   0  0  0  0  0  0  0  0  0  0  0  0
    0.7102   -0.7958    0.8123 C   0  0  0  0  0  0  0  0  0  0  0  0
   -0.7264   -0.9265    1.3571 C   0  0  0  0  0  0  0  0  0  0  0  0
   -1.4755    0.3952    1.0114 C   0  0  0  0  0  0  0  0  0  0  0  0
   -1.3916    0.7387   -0.4347 C   0  0  0  0  0  0  0  0  0  0  0  0
   -0.2317    0.3607   -1.2169 C   0  0  0  0  0  0  0  0  0  0  0  0
    3.8100    1.4886   -1.1569 H   0  0  0  0  0  0  0  0  0  0  0  0
    0.9029   -1.4872   -1.3149 H   0  0  0  0  0  0  0  0  0  0  0  0
    1.1349    0.0945    1.3629 H   0  0  0  0  0  0  0  0  0  0  0  0
    1.2471   -1.7153    1.1814 H   0  0  0  0  0  0  0  0  0  0  0  0
   -0.7345   -1.0583    2.4210 H   0  0  0  0  0  0  0  0  0  0  0  0
   -1.1610   -1.7879    0.8848 H   0  0  0  0  0  0  0  0  0  0  0  0
   -2.5744    0.0840    1.2160 H   0  0  0  0  0  0  0  0  0  0  0  0
   -1.1909    1.1717    1.6985 H   0  0  0  0  0  0  0  0  0  0  0  0
   -2.2732    0.0518   -0.8846 H   0  0  0  0  0  0  0  0  0  0  0  0
   -1.7842    1.7444   -0.7697 H   0  0  0  0  0  0  0  0  0  0  0  0
   -0.5004    0.0464   -2.3098 H   0  0  0  0  0  0  0  0  0  0  0  0
    0.4441    1.2710   -1.3494 H   0  0  0  0  0  0  0  0  0  0  0  0
  1  2  3  0
  2  3  1  0
  3  4  1  0
  4  5  1  0
  5  6  1  0
  6  7  1  0
  7  8  1  0
  8  3  1  0
  1  9  1  0
  3 10  1  0
  4 11  1  0
  4 12  1  0
  5 13  1  0
  5 14  1  0
  6 15  1  0
  6 16  1  0
  7 17  1  0
  7 18  1  0
  8 19  1  0
  8 20  1  0
M  END
