
     RDKit          3D

 15 15  0  0  0  0  0  0  0  0999 V2000
    2.9964    0.7040   -0.0989 C   0  0  0  0  0  0  0  0  0  0  0  0
    1.9912    0.0439    0.0524 C   0  0  0  0  0  0  0  0  0  0  0  0
    0.7823   -0.7720    0.2299 C   0  0  0  0  0  0  0  0  0  0  0  0
   -0.3463   -0.0523   -0.4427 C   0  0  0  0  0  0  0  0  0  0  0  0
   -1.6897   -0.7014   -0.3910 C   0  0  0  0  0  0  0  0  0  0  0  0
   -1.8664   -0.1931    0.8881 O   0  0  0  0  0  0  0  0  0  0  0  0
   -1.0939    0.9156    0.4803 C   0  0  0  0  0  0  0  0  0  0  0  0
    3.8908    1.2818   -0.2158 H   0  0  0  0  0  0  0  0  0  0  0  0
    0.5376   -0.8034    1.3313 H   0  0  0  0  0  0  0  0  0  0  0  0
    0.9620   -1.7853   -0.1603 H   0  0  0  0  0  0  0  0  0  0  0  0
   -0.0796    0.4682   -1.3878 H   0  0  0  0  0  0  0  0  0  0  0  0
   -2.3859   -0.2573   -1.1258 H   0  0  0  0  0  0  0  0  0  0  0  0
   -1.6128   -1.8042   -0.3903 H   0  0  0  0  0  0  0  0  0  0  0  0
   -0.4457    1.2818    1.3116 H   0  0  0  0  0  0  0  0  0  0  0  0
   -1.6400    1.6736   -0.0810 H   0  0  0  0  0  0  0  0  0  0  0  0
  1  2  3  0
  2  3  1  0
  3  4  1  0
  4  5  1  0
  5  6  1  0
  6  7  1  0
  7  4  1  0
  1  8  1  0
  3  9  1  0
  3 10  1  0
  4 11  1  0
  5 12  1  0
  5 13  1  0
  7 14  1  0
  7 15  1  0
M  END
