
     RDKit          3D

 19 18  0  0  0  0  0  0  0  0999 V2000
   -3.0136    1.8169    0.5841 C   0  0  0  0  0  0  0  0  0  0  0  0
   -1.9948    0.6307    0.6004 C   0  0  0  0  0  0  0  0  0  0  0  0
   -1.1462   -0.3626    0.6126 C   0  0  0  0  0  0  0  0  0  0  0  0
   -1.6819   -1.6117   -0.0527 C   0  0  0  0  0  0  0  0  0  0  0  0
   -0.0915    0.2195   -0.4919 C   0  0  0  0  0  0  0  0  0  0  0  0
   -0.3863    1.2860   -1.0559 O   0  0  0  0  0  0  0  0  0  0  0  0
    1.1480   -0.3839   -0.9125 C   0  0  0  0  0  0  0  0  0  0  0  0
    2.2504    0.6359   -0.4125 C   0  0  0  0  0  0  0  0  0  0  0  0
    3.4563    0.3470   -0.9867 O   0  0  0  0  0  0  0  0  0  0  0  0
   -3.4773    2.3691    0.5734 H   0  0  0  0  0  0  0  0  0  0  0  0
   -0.6134   -0.5640    1.4740 H   0  0  0  0  0  0  0  0  0  0  0  0
   -1.9689   -2.2856    0.7731 H   0  0  0  0  0  0  0  0  0  0  0  0
   -2.5150   -1.3658   -0.7293 H   0  0  0  0  0  0  0  0  0  0  0  0
   -0.8697   -2.1379   -0.6768 H   0  0  0  0  0  0  0  0  0  0  0  0
    1.3060   -0.4715   -1.9957 H   0  0  0  0  0  0  0  0  0  0  0  0
    1.3939   -1.3819   -0.5128 H   0  0  0  0  0  0  0  0  0  0  0  0
    1.8770    1.6761   -0.5177 H   0  0  0  0  0  0  0  0  0  0  0  0
    2.3216    0.4232    0.7205 H   0  0  0  0  0  0  0  0  0  0  0  0
    4.0054    1.1605   -1.2524 H   0  0  0  0  0  0  0  0  0  0  0  0
  1  2  3  0
  2  3  1  0
  3  4  1  0
  3  5  1  0
  5  6  2  0
  5  7  1  0
  7  8  1  0
  8  9  1  0
  1 10  1  0
  3 11  1  0
  4 12  1  0
  4 13  1  0
  4 14  1  0
  7 15  1  0
  7 16  1  0
  8 17  1  0
  8 18  1  0
  9 19  1  0
M  END
