
     RDKit          3D

 21 20  0  0  0  0  0  0  0  0999 V2000
    2.6349    1.1440    0.8746 C   0  0  0  0  0  0  0  0  0  0  0  0
    1.7733    0.7010    0.1305 C   0  0  0  0  0  0  0  0  0  0  0  0
    0.7283    0.1857   -0.7559 C   0  0  0  0  0  0  0  0  0  0  0  0
    1.2816   -0.9453   -1.6313 C   0  0  0  0  0  0  0  0  0  0  0  0
    0.2250    1.2095   -1.5378 O   0  0  0  0  0  0  0  0  0  0  0  0
   -0.3458   -0.4343    0.1017 C   0  0  0  0  0  0  0  0  0  0  0  0
   -1.3569   -0.9593   -0.7124 O   0  0  0  0  0  0  0  0  0  0  0  0
   -1.0019    0.5697    1.0172 C   0  0  0  0  0  0  0  0  0  0  0  0
   -2.0460   -0.1514    1.8173 C   0  0  0  0  0  0  0  0  0  0  0  0
    3.3775    1.5270    1.5256 H   0  0  0  0  0  0  0  0  0  0  0  0
    2.2776   -0.7095   -2.0177 H   0  0  0  0  0  0  0  0  0  0  0  0
    0.5604   -1.0346   -2.4908 H   0  0  0  0  0  0  0  0  0  0  0  0
    1.2035   -1.8836   -1.0743 H   0  0  0  0  0  0  0  0  0  0  0  0
    0.6712    1.1667   -2.4417 H   0  0  0  0  0  0  0  0  0  0  0  0
    0.0804   -1.2437    0.7086 H   0  0  0  0  0  0  0  0  0  0  0  0
   -1.2962   -0.4856   -1.5757 H   0  0  0  0  0  0  0  0  0  0  0  0
   -1.5074    1.3224    0.3445 H   0  0  0  0  0  0  0  0  0  0  0  0
   -0.2586    1.0944    1.6135 H   0  0  0  0  0  0  0  0  0  0  0  0
   -1.9173   -1.2511    1.7755 H   0  0  0  0  0  0  0  0  0  0  0  0
   -3.0693    0.0647    1.4252 H   0  0  0  0  0  0  0  0  0  0  0  0
   -2.0143    0.1130    2.9033 H   0  0  0  0  0  0  0  0  0  0  0  0
  1  2  3  0
  2  3  1  0
  3  4  1  0
  3  5  1  0
  3  6  1  0
  6  7  1  0
  6  8  1  0
  8  9  1  0
  1 10  1  0
  4 11  1  0
  4 12  1  0
  4 13  1  0
  5 14  1  0
  6 15  1  0
  7 16  1  0
  8 17  1  0
  8 18  1  0
  9 19  1  0
  9 20  1  0
  9 21  1  0
M  END
