
     RDKit          3D

 17 17  0  0  0  0  0  0  0  0999 V2000
    2.3903   -1.0927    0.8403 C   0  0  0  0  0  0  0  0  0  0  0  0
    1.2763   -0.5004    1.0733 C   0  0  0  0  0  0  0  0  0  0  0  0
    0.1306    0.0970    1.3330 C   0  0  0  0  0  0  0  0  0  0  0  0
   -0.9456   -0.7857    0.9764 O   0  0  0  0  0  0  0  0  0  0  0  0
   -0.5704   -1.1009   -0.3514 C   0  0  0  0  0  0  0  0  0  0  0  0
   -0.1033    0.1933   -0.9910 C   0  0  0  0  0  0  0  0  0  0  0  0
   -1.0055    0.6218   -1.9631 O   0  0  0  0  0  0  0  0  0  0  0  0
   -0.1801    1.1455    0.2076 C   0  0  0  0  0  0  0  0  0  0  0  0
   -1.5206    1.5312    0.3794 O   0  0  0  0  0  0  0  0  0  0  0  0
    3.4418   -1.6286    0.6280 H   0  0  0  0  0  0  0  0  0  0  0  0
   -0.0500    0.5437    2.3315 H   0  0  0  0  0  0  0  0  0  0  0  0
    0.1945   -1.8980   -0.3808 H   0  0  0  0  0  0  0  0  0  0  0  0
   -1.4657   -1.4767   -0.8590 H   0  0  0  0  0  0  0  0  0  0  0  0
    0.9263    0.1112   -1.2907 H   0  0  0  0  0  0  0  0  0  0  0  0
   -1.5141   -0.2070   -2.2638 H   0  0  0  0  0  0  0  0  0  0  0  0
    0.5400    1.9367    0.1949 H   0  0  0  0  0  0  0  0  0  0  0  0
   -1.5447    2.5096    0.1354 H   0  0  0  0  0  0  0  0  0  0  0  0
  1  2  3  0
  2  3  1  0
  3  4  1  0
  4  5  1  0
  5  6  1  0
  6  7  1  0
  6  8  1  0
  8  9  1  0
  8  3  1  0
  1 10  1  0
  3 11  1  0
  5 12  1  0
  5 13  1  0
  6 14  1  0
  7 15  1  0
  8 16  1  0
  9 17  1  0
M  END
