
     RDKit          3D

 21 20  0  0  0  0  0  0  0  0999 V2000
   -0.6018    2.5771   -0.8001 C   0  0  0  0  0  0  0  0  0  0  0  0
   -0.1949    1.4024   -0.7790 C   0  0  0  0  0  0  0  0  0  0  0  0
    0.2637    0.0122   -0.7674 C   0  0  0  0  0  0  0  0  0  0  0  0
   -0.5449   -0.7962   -1.7130 C   0  0  0  0  0  0  0  0  0  0  0  0
    1.6114    0.0191   -1.2362 O   0  0  0  0  0  0  0  0  0  0  0  0
    0.3043   -0.4968    0.6236 C   0  0  0  0  0  0  0  0  0  0  0  0
   -1.1032   -0.6142    1.2185 C   0  0  0  0  0  0  0  0  0  0  0  0
    1.0538    0.4671    1.5022 C   0  0  0  0  0  0  0  0  0  0  0  0
    0.8747   -1.7610    0.7369 O   0  0  0  0  0  0  0  0  0  0  0  0
   -0.9479    3.5727   -0.8365 H   0  0  0  0  0  0  0  0  0  0  0  0
   -0.0130   -0.7262   -2.7136 H   0  0  0  0  0  0  0  0  0  0  0  0
   -0.5294   -1.8913   -1.4452 H   0  0  0  0  0  0  0  0  0  0  0  0
   -1.5646   -0.4743   -1.9088 H   0  0  0  0  0  0  0  0  0  0  0  0
    1.8805    0.9444   -1.5013 H   0  0  0  0  0  0  0  0  0  0  0  0
   -1.6537    0.3606    1.1869 H   0  0  0  0  0  0  0  0  0  0  0  0
   -1.7208   -1.3469    0.6737 H   0  0  0  0  0  0  0  0  0  0  0  0
   -1.0515   -0.9404    2.2722 H   0  0  0  0  0  0  0  0  0  0  0  0
    2.0638    0.0527    1.6566 H   0  0  0  0  0  0  0  0  0  0  0  0
    1.1620    1.4249    0.9577 H   0  0  0  0  0  0  0  0  0  0  0  0
    0.5201    0.6310    2.4713 H   0  0  0  0  0  0  0  0  0  0  0  0
    0.1915   -2.4170    0.4013 H   0  0  0  0  0  0  0  0  0  0  0  0
  1  2  3  0
  2  3  1  0
  3  4  1  0
  3  5  1  0
  3  6  1  0
  6  7  1  0
  6  8  1  0
  6  9  1  0
  1 10  1  0
  4 11  1  0
  4 12  1  0
  4 13  1  0
  5 14  1  0
  7 15  1  0
  7 16  1  0
  7 17  1  0
  8 18  1  0
  8 19  1  0
  8 20  1  0
  9 21  1  0
M  END
