
     RDKit          3D

 23 22  0  0  0  0  0  0  0  0999 V2000
   -2.8301    1.5927    2.7701 C   0  0  0  0  0  0  0  0  0  0  0  0
   -2.2130    1.4020    1.7404 C   0  0  0  0  0  0  0  0  0  0  0  0
   -1.4491    1.1550    0.5009 C   0  0  0  0  0  0  0  0  0  0  0  0
   -0.7517   -0.1974    0.5969 C   0  0  0  0  0  0  0  0  0  0  0  0
   -1.7918   -1.2569    0.7736 C   0  0  0  0  0  0  0  0  0  0  0  0
    0.0609   -0.3760   -0.4929 O   0  0  0  0  0  0  0  0  0  0  0  0
    1.3768   -0.5335   -0.1307 C   0  0  0  0  0  0  0  0  0  0  0  0
    2.3046   -0.7319   -1.2936 C   0  0  0  0  0  0  0  0  0  0  0  0
    2.3069    0.4083   -2.2641 C   0  0  0  0  0  0  0  0  0  0  0  0
   -3.3679    1.7430    3.6802 H   0  0  0  0  0  0  0  0  0  0  0  0
   -2.1972    1.1542   -0.3177 H   0  0  0  0  0  0  0  0  0  0  0  0
   -0.7029    1.9607    0.3555 H   0  0  0  0  0  0  0  0  0  0  0  0
   -0.1099   -0.2276    1.5216 H   0  0  0  0  0  0  0  0  0  0  0  0
   -2.7711   -0.7789    0.9733 H   0  0  0  0  0  0  0  0  0  0  0  0
   -1.6003   -1.9156    1.6508 H   0  0  0  0  0  0  0  0  0  0  0  0
   -1.8598   -1.9262   -0.1206 H   0  0  0  0  0  0  0  0  0  0  0  0
    1.4479   -1.4556    0.4958 H   0  0  0  0  0  0  0  0  0  0  0  0
    1.6920    0.3753    0.4136 H   0  0  0  0  0  0  0  0  0  0  0  0
    2.1349   -1.7233   -1.7754 H   0  0  0  0  0  0  0  0  0  0  0  0
    3.3452   -0.7967   -0.8595 H   0  0  0  0  0  0  0  0  0  0  0  0
    3.0276    1.2141   -1.9955 H   0  0  0  0  0  0  0  0  0  0  0  0
    2.6226    0.0328   -3.2708 H   0  0  0  0  0  0  0  0  0  0  0  0
    1.3255    0.8813   -2.4058 H   0  0  0  0  0  0  0  0  0  0  0  0
  1  2  3  0
  2  3  1  0
  3  4  1  0
  4  5  1  0
  4  6  1  0
  6  7  1  0
  7  8  1  0
  8  9  1  0
  1 10  1  0
  3 11  1  0
  3 12  1  0
  4 13  1  0
  5 14  1  0
  5 15  1  0
  5 16  1  0
  7 17  1  0
  7 18  1  0
  8 19  1  0
  8 20  1  0
  9 21  1  0
  9 22  1  0
  9 23  1  0
M  END
