
     RDKit          3D

 17 16  0  0  0  0  0  0  0  0999 V2000
    4.8758    0.1930   -0.6956 C   0  0  0  0  0  0  0  0  0  0  0  0
    3.6435    0.2772   -0.6780 C   0  0  0  0  0  0  0  0  0  0  0  0
    2.2578    0.3914   -0.6600 C   0  0  0  0  0  0  0  0  0  0  0  0
    1.4322    0.2104    0.5592 C   0  0  0  0  0  0  0  0  0  0  0  0
    1.9408    0.2678    1.6675 O   0  0  0  0  0  0  0  0  0  0  0  0
    0.0927   -0.0287    0.3626 C   0  0  0  0  0  0  0  0  0  0  0  0
   -1.2757   -0.2483    0.1605 C   0  0  0  0  0  0  0  0  0  0  0  0
   -2.5884   -0.4551   -0.0546 C   0  0  0  0  0  0  0  0  0  0  0  0
   -3.3704   -0.2307    1.2318 C   0  0  0  0  0  0  0  0  0  0  0  0
    5.9768    0.1172   -0.7243 H   0  0  0  0  0  0  0  0  0  0  0  0
    1.9813    1.5053   -0.9522 H   0  0  0  0  0  0  0  0  0  0  0  0
    1.7552   -0.1782   -1.4936 H   0  0  0  0  0  0  0  0  0  0  0  0
   -2.8716   -1.4747   -0.5111 H   0  0  0  0  0  0  0  0  0  0  0  0
   -3.0372    0.2771   -0.8621 H   0  0  0  0  0  0  0  0  0  0  0  0
   -4.0361   -1.1398    1.3792 H   0  0  0  0  0  0  0  0  0  0  0  0
   -2.7484   -0.1453    2.0915 H   0  0  0  0  0  0  0  0  0  0  0  0
   -4.0286    0.6615    1.0159 H   0  0  0  0  0  0  0  0  0  0  0  0
  1  2  3  0
  2  3  1  0
  3  4  1  0
  4  5  2  0
  4  6  1  0
  6  7  3  0
  7  8  1  0
  8  9  1  0
  1 10  1  0
  3 11  1  0
  3 12  1  0
  8 13  1  0
  8 14  1  0
  9 15  1  0
  9 16  1  0
  9 17  1  0
M  END
