
     RDKit          3D

 15 16  0  0  0  0  0  0  0  0999 V2000
    1.5401   -0.1000   -2.8073 C   0  0  0  0  0  0  0  0  0  0  0  0
    1.1034   -0.1412   -1.6298 C   0  0  0  0  0  0  0  0  0  0  0  0
    0.5940   -0.2035   -0.2996 C   0  0  0  0  0  0  0  0  0  0  0  0
    1.0888    0.2558    0.8487 C   0  0  0  0  0  0  0  0  0  0  0  0
   -0.0200   -0.0901    1.7980 C   0  0  0  0  0  0  0  0  0  0  0  0
   -0.2462   -1.4154    1.3981 O   0  0  0  0  0  0  0  0  0  0  0  0
   -0.6862   -0.8279    0.1919 C   0  0  0  0  0  0  0  0  0  0  0  0
   -1.2729    0.2452    1.0542 C   0  0  0  0  0  0  0  0  0  0  0  0
   -1.2969    1.5329    0.5255 O   0  0  0  0  0  0  0  0  0  0  0  0
    1.9062   -0.0590   -3.7489 H   0  0  0  0  0  0  0  0  0  0  0  0
    2.0346    0.7422    1.0210 H   0  0  0  0  0  0  0  0  0  0  0  0
    0.0856    0.1426    2.8188 H   0  0  0  0  0  0  0  0  0  0  0  0
   -1.2604   -1.4081   -0.4731 H   0  0  0  0  0  0  0  0  0  0  0  0
   -2.1960   -0.1052    1.5443 H   0  0  0  0  0  0  0  0  0  0  0  0
   -1.3741    1.4318   -0.4706 H   0  0  0  0  0  0  0  0  0  0  0  0
  1  2  3  0
  2  3  1  0
  3  4  2  0
  4  5  1  0
  5  6  1  0
  6  7  1  0
  7  8  1  0
  8  9  1  0
  7  3  1  0
  8  5  1  0
  1 10  1  0
  4 11  1  0
  5 12  1  0
  7 13  1  0
  8 14  1  0
  9 15  1  0
M  END
