
     RDKit          3D

 15 17  0  0  0  0  0  0  0  0999 V2000
    1.2400    1.1447    2.7771 C   0  0  0  0  0  0  0  0  0  0  0  0
    0.8965    0.5803    1.6129 C   0  0  0  0  0  0  0  0  0  0  0  0
    0.5448    0.0212    0.4780 C   0  0  0  0  0  0  0  0  0  0  0  0
    1.0408    0.5387   -0.8749 C   0  0  0  0  0  0  0  0  0  0  0  0
    0.3081   -0.7152   -1.0914 C   0  0  0  0  0  0  0  0  0  0  0  0
    1.0005   -1.2099    0.0152 O   0  0  0  0  0  0  0  0  0  0  0  0
   -0.7265   -0.2440   -0.1150 C   0  0  0  0  0  0  0  0  0  0  0  0
   -1.9196   -0.7943    0.1710 C   0  0  0  0  0  0  0  0  0  0  0  0
   -1.7510    0.5570   -0.4602 O   0  0  0  0  0  0  0  0  0  0  0  0
    1.4737    1.5554    3.5950 H   0  0  0  0  0  0  0  0  0  0  0  0
    0.5686    1.4571   -1.1994 H   0  0  0  0  0  0  0  0  0  0  0  0
    2.1519    0.4566   -0.9994 H   0  0  0  0  0  0  0  0  0  0  0  0
    0.1182   -1.2268   -1.9497 H   0  0  0  0  0  0  0  0  0  0  0  0
   -2.4886   -0.6733    1.1112 H   0  0  0  0  0  0  0  0  0  0  0  0
   -2.4574   -1.4474   -0.5484 H   0  0  0  0  0  0  0  0  0  0  0  0
  1  2  3  0
  2  3  1  0
  3  4  1  0
  4  5  1  0
  5  6  1  0
  5  7  1  0
  7  8  1  0
  8  9  1  0
  6  3  1  0
  9  7  1  0
  7  3  1  0
  1 10  1  0
  4 11  1  0
  4 12  1  0
  5 13  1  0
  8 14  1  0
  8 15  1  0
M  END
