
     RDKit          3D

 17 18  0  0  0  0  0  0  0  0999 V2000
    0.6951    2.3955    0.7600 C   0  0  0  0  0  0  0  0  0  0  0  0
    0.0634    1.4626    0.7220 C   0  0  0  0  0  0  0  0  0  0  0  0
   -0.7422    0.2427    0.6560 C   0  0  0  0  0  0  0  0  0  0  0  0
    0.2503   -0.9948    0.7366 C   0  0  0  0  0  0  0  0  0  0  0  0
   -0.9171   -1.6454    0.1216 C   0  0  0  0  0  0  0  0  0  0  0  0
   -1.5970   -1.4289   -1.0254 O   0  0  0  0  0  0  0  0  0  0  0  0
   -0.9054   -0.3203   -0.6764 C   0  0  0  0  0  0  0  0  0  0  0  0
    0.1932   -0.1246   -1.6695 C   0  0  0  0  0  0  0  0  0  0  0  0
    1.0804    0.8758   -1.4862 O   0  0  0  0  0  0  0  0  0  0  0  0
    1.3724    3.4313    0.7931 H   0  0  0  0  0  0  0  0  0  0  0  0
   -1.5162    0.1210    1.3869 H   0  0  0  0  0  0  0  0  0  0  0  0
    0.4887   -1.2962    1.7373 H   0  0  0  0  0  0  0  0  0  0  0  0
    1.1522   -0.7854    0.1393 H   0  0  0  0  0  0  0  0  0  0  0  0
   -1.7227   -1.7485    0.9253 H   0  0  0  0  0  0  0  0  0  0  0  0
   -0.3893    0.2020   -2.6211 H   0  0  0  0  0  0  0  0  0  0  0  0
    0.6553   -1.0710   -2.0565 H   0  0  0  0  0  0  0  0  0  0  0  0
    1.8388    0.6844   -2.1393 H   0  0  0  0  0  0  0  0  0  0  0  0
  1  2  3  0
  2  3  1  0
  3  4  1  0
  4  5  1  0
  5  6  1  0
  6  7  1  0
  7  8  1  0
  8  9  1  0
  7  3  1  0
  7  5  1  0
  1 10  1  0
  3 11  1  0
  4 12  1  0
  4 13  1  0
  5 14  1  0
  8 15  1  0
  8 16  1  0
  9 17  1  0
M  END
