
     RDKit          3D

 17 16  0  0  0  0  0  0  0  0999 V2000
   -2.5170   -1.8931   -0.5223 C   0  0  0  0  0  0  0  0  0  0  0  0
   -1.7951   -0.9476   -0.3312 C   0  0  0  0  0  0  0  0  0  0  0  0
   -0.8941    0.2097   -0.1065 C   0  0  0  0  0  0  0  0  0  0  0  0
   -1.3157    1.3045   -1.0625 C   0  0  0  0  0  0  0  0  0  0  0  0
    0.4265   -0.1581   -0.3660 O   0  0  0  0  0  0  0  0  0  0  0  0
    1.1625    0.0341    0.8031 C   0  0  0  0  0  0  0  0  0  0  0  0
    2.6005   -0.3591    0.5453 C   0  0  0  0  0  0  0  0  0  0  0  0
   -3.1419   -2.7298   -0.7022 H   0  0  0  0  0  0  0  0  0  0  0  0
   -1.0179    0.5521    0.9364 H   0  0  0  0  0  0  0  0  0  0  0  0
   -0.4279    1.6482   -1.6304 H   0  0  0  0  0  0  0  0  0  0  0  0
   -2.1118    0.9543   -1.7533 H   0  0  0  0  0  0  0  0  0  0  0  0
   -1.6777    2.1762   -0.4792 H   0  0  0  0  0  0  0  0  0  0  0  0
    1.1529    1.1112    1.0360 H   0  0  0  0  0  0  0  0  0  0  0  0
    0.7195   -0.5701    1.6420 H   0  0  0  0  0  0  0  0  0  0  0  0
    3.0595   -0.5903    1.5319 H   0  0  0  0  0  0  0  0  0  0  0  0
    2.6651   -1.2552   -0.1303 H   0  0  0  0  0  0  0  0  0  0  0  0
    3.1124    0.5130    0.0941 H   0  0  0  0  0  0  0  0  0  0  0  0
  1  2  3  0
  2  3  1  0
  3  4  1  0
  3  5  1  0
  5  6  1  0
  6  7  1  0
  1  8  1  0
  3  9  1  0
  4 10  1  0
  4 11  1  0
  4 12  1  0
  6 13  1  0
  6 14  1  0
  7 15  1  0
  7 16  1  0
  7 17  1  0
M  END
