
     RDKit          3D

 17 18  0  0  0  0  0  0  0  0999 V2000
    1.7168   -2.3273    1.1595 C   0  0  0  0  0  0  0  0  0  0  0  0
    1.1581   -1.5791    0.4013 C   0  0  0  0  0  0  0  0  0  0  0  0
    0.4976   -0.6868   -0.5298 C   0  0  0  0  0  0  0  0  0  0  0  0
    0.8052   -0.9120   -1.8723 O   0  0  0  0  0  0  0  0  0  0  0  0
    0.6926    0.7621   -0.1139 C   0  0  0  0  0  0  0  0  0  0  0  0
   -0.7627    0.8158    0.2358 C   0  0  0  0  0  0  0  0  0  0  0  0
   -1.5432    1.9298    0.2126 C   0  0  0  0  0  0  0  0  0  0  0  0
   -1.1808    1.2339    1.4727 O   0  0  0  0  0  0  0  0  0  0  0  0
   -0.9895   -0.5587   -0.2694 C   0  0  0  0  0  0  0  0  0  0  0  0
    2.2205   -2.9832    1.8205 H   0  0  0  0  0  0  0  0  0  0  0  0
    1.7986   -0.9638   -1.9356 H   0  0  0  0  0  0  0  0  0  0  0  0
    1.3276    0.9047    0.7845 H   0  0  0  0  0  0  0  0  0  0  0  0
    1.0084    1.4327   -0.9460 H   0  0  0  0  0  0  0  0  0  0  0  0
   -1.1529    2.9684    0.1719 H   0  0  0  0  0  0  0  0  0  0  0  0
   -2.6604    1.9110    0.0955 H   0  0  0  0  0  0  0  0  0  0  0  0
   -1.3789   -1.2538    0.5076 H   0  0  0  0  0  0  0  0  0  0  0  0
   -1.5572   -0.6937   -1.1949 H   0  0  0  0  0  0  0  0  0  0  0  0
  1  2  3  0
  2  3  1  0
  3  4  1  0
  3  5  1  0
  5  6  1  0
  6  7  1  0
  7  8  1  0
  6  9  1  0
  9  3  1  0
  8  6  1  0
  1 10  1  0
  4 11  1  0
  5 12  1  0
  5 13  1  0
  7 14  1  0
  7 15  1  0
  9 16  1  0
  9 17  1  0
M  END
