
     RDKit          3D

 21 21  0  0  0  0  0  0  0  0999 V2000
   -1.7486    2.4351    0.5484 C   0  0  0  0  0  0  0  0  0  0  0  0
   -1.3826    1.4254    0.0118 C   0  0  0  0  0  0  0  0  0  0  0  0
   -0.9324    0.1970   -0.6244 C   0  0  0  0  0  0  0  0  0  0  0  0
   -1.8448   -1.0000   -0.4003 C   0  0  0  0  0  0  0  0  0  0  0  0
   -0.5639   -1.8215   -0.3578 C   0  0  0  0  0  0  0  0  0  0  0  0
    0.0801   -0.5702    0.2056 C   0  0  0  0  0  0  0  0  0  0  0  0
    1.5095   -0.3484   -0.1910 C   0  0  0  0  0  0  0  0  0  0  0  0
    1.8641    1.1148   -0.0561 C   0  0  0  0  0  0  0  0  0  0  0  0
    1.8087   -0.8391   -1.4322 O   0  0  0  0  0  0  0  0  0  0  0  0
   -2.0843    3.3285    1.0088 H   0  0  0  0  0  0  0  0  0  0  0  0
   -0.6746    0.2601   -1.6857 H   0  0  0  0  0  0  0  0  0  0  0  0
   -2.5163   -1.2343   -1.2360 H   0  0  0  0  0  0  0  0  0  0  0  0
   -2.2938   -0.9604    0.6084 H   0  0  0  0  0  0  0  0  0  0  0  0
   -0.1444   -2.0417   -1.3676 H   0  0  0  0  0  0  0  0  0  0  0  0
   -0.5860   -2.6831    0.3341 H   0  0  0  0  0  0  0  0  0  0  0  0
   -0.1252   -0.5070    1.2834 H   0  0  0  0  0  0  0  0  0  0  0  0
    2.1412   -0.8925    0.5505 H   0  0  0  0  0  0  0  0  0  0  0  0
    2.9626    1.1957    0.0773 H   0  0  0  0  0  0  0  0  0  0  0  0
    1.3704    1.5525    0.8299 H   0  0  0  0  0  0  0  0  0  0  0  0
    1.6382    1.6870   -0.9946 H   0  0  0  0  0  0  0  0  0  0  0  0
    1.5221   -0.2980   -2.1875 H   0  0  0  0  0  0  0  0  0  0  0  0
  1  2  3  0
  2  3  1  0
  3  4  1  0
  4  5  1  0
  5  6  1  0
  6  7  1  0
  7  8  1  0
  7  9  1  0
  6  3  1  0
  1 10  1  0
  3 11  1  0
  4 12  1  0
  4 13  1  0
  5 14  1  0
  5 15  1  0
  6 16  1  0
  7 17  1  0
  8 18  1  0
  8 19  1  0
  8 20  1  0
  9 21  1  0
M  END
