
     RDKit          3D

 17 18  0  0  0  0  0  0  0  0999 V2000
    3.4060   -0.7599    0.1043 C   0  0  0  0  0  0  0  0  0  0  0  0
    2.4460   -0.0313    0.1324 C   0  0  0  0  0  0  0  0  0  0  0  0
    1.2858    0.8684    0.1856 C   0  0  0  0  0  0  0  0  0  0  0  0
    0.3151    0.7050   -0.9659 C   0  0  0  0  0  0  0  0  0  0  0  0
   -0.5052    0.0905    0.1037 C   0  0  0  0  0  0  0  0  0  0  0  0
   -1.1167   -1.2419   -0.0113 C   0  0  0  0  0  0  0  0  0  0  0  0
   -1.9438    0.0173    0.1428 C   0  0  0  0  0  0  0  0  0  0  0  0
   -2.7660    0.2884   -0.9225 O   0  0  0  0  0  0  0  0  0  0  0  0
    0.3352    0.4086    1.1075 O   0  0  0  0  0  0  0  0  0  0  0  0
    4.2693   -1.4020    0.0894 H   0  0  0  0  0  0  0  0  0  0  0  0
    1.5341    1.9158    0.4309 H   0  0  0  0  0  0  0  0  0  0  0  0
    0.6592    0.0339   -1.7786 H   0  0  0  0  0  0  0  0  0  0  0  0
   -0.0111    1.6726   -1.3791 H   0  0  0  0  0  0  0  0  0  0  0  0
   -1.0443   -1.7346   -0.9932 H   0  0  0  0  0  0  0  0  0  0  0  0
   -1.0166   -1.9252    0.8585 H   0  0  0  0  0  0  0  0  0  0  0  0
   -2.4700    0.0759    1.1361 H   0  0  0  0  0  0  0  0  0  0  0  0
   -3.3770    1.0186   -0.6471 H   0  0  0  0  0  0  0  0  0  0  0  0
  1  2  3  0
  2  3  1  0
  3  4  1  0
  4  5  1  0
  5  6  1  0
  6  7  1  0
  7  8  1  0
  5  9  1  0
  9  3  1  0
  7  5  1  0
  1 10  1  0
  3 11  1  0
  4 12  1  0
  4 13  1  0
  6 14  1  0
  6 15  1  0
  7 16  1  0
  8 17  1  0
M  END
