
     RDKit          3D

 18 17  0  0  0  0  0  0  0  0999 V2000
    1.8361   -1.6196   -0.9724 C   0  0  0  0  0  0  0  0  0  0  0  0
    1.3459   -0.5810   -0.6260 C   0  0  0  0  0  0  0  0  0  0  0  0
    0.7530    0.6912   -0.1768 C   0  0  0  0  0  0  0  0  0  0  0  0
    1.4041    1.1927    1.0599 C   0  0  0  0  0  0  0  0  0  0  0  0
    2.5852    1.0371    1.3178 O   0  0  0  0  0  0  0  0  0  0  0  0
   -0.7144    0.4699    0.0742 C   0  0  0  0  0  0  0  0  0  0  0  0
   -1.3394    0.0108   -1.2383 C   0  0  0  0  0  0  0  0  0  0  0  0
   -0.9928   -0.5420    1.1355 C   0  0  0  0  0  0  0  0  0  0  0  0
    2.2717   -2.5421   -1.2612 H   0  0  0  0  0  0  0  0  0  0  0  0
    0.8378    1.4801   -0.9589 H   0  0  0  0  0  0  0  0  0  0  0  0
    0.7964    1.7271    1.7741 H   0  0  0  0  0  0  0  0  0  0  0  0
   -1.1629    1.4451    0.3587 H   0  0  0  0  0  0  0  0  0  0  0  0
   -1.4194    0.8845   -1.8832 H   0  0  0  0  0  0  0  0  0  0  0  0
   -0.6137   -0.6875   -1.6949 H   0  0  0  0  0  0  0  0  0  0  0  0
   -2.2880   -0.5316   -1.0749 H   0  0  0  0  0  0  0  0  0  0  0  0
   -1.9413   -0.2601    1.6372 H   0  0  0  0  0  0  0  0  0  0  0  0
   -0.1818   -0.6507    1.8769 H   0  0  0  0  0  0  0  0  0  0  0  0
   -1.1763   -1.5240    0.6521 H   0  0  0  0  0  0  0  0  0  0  0  0
  1  2  3  0
  2  3  1  0
  3  4  1  0
  4  5  2  0
  3  6  1  0
  6  7  1  0
  6  8  1  0
  1  9  1  0
  3 10  1  0
  4 11  1  0
  6 12  1  0
  7 13  1  0
  7 14  1  0
  7 15  1  0
  8 16  1  0
  8 17  1  0
  8 18  1  0
M  END
