
     RDKit          3D

 23 22  0  0  0  0  0  0  0  0999 V2000
   -2.2795    0.6370    1.5697 C   0  0  0  0  0  0  0  0  0  0  0  0
   -1.2481    0.8876    0.9412 C   0  0  0  0  0  0  0  0  0  0  0  0
   -0.0358    1.2082    0.2001 C   0  0  0  0  0  0  0  0  0  0  0  0
   -0.3253    2.5016   -0.5526 C   0  0  0  0  0  0  0  0  0  0  0  0
    0.3502    0.1804   -0.7953 C   0  0  0  0  0  0  0  0  0  0  0  0
    1.5316    0.5936   -1.4566 O   0  0  0  0  0  0  0  0  0  0  0  0
    0.5056   -1.2173   -0.2969 C   0  0  0  0  0  0  0  0  0  0  0  0
    1.5365   -1.4014    0.7646 C   0  0  0  0  0  0  0  0  0  0  0  0
   -0.7807   -1.8497    0.1612 C   0  0  0  0  0  0  0  0  0  0  0  0
   -3.1519    0.4069    2.1098 H   0  0  0  0  0  0  0  0  0  0  0  0
    0.7600    1.4534    0.9349 H   0  0  0  0  0  0  0  0  0  0  0  0
    0.3352    3.3468   -0.1925 H   0  0  0  0  0  0  0  0  0  0  0  0
   -0.1866    2.3608   -1.6425 H   0  0  0  0  0  0  0  0  0  0  0  0
   -1.3818    2.8272   -0.4330 H   0  0  0  0  0  0  0  0  0  0  0  0
   -0.4237    0.1655   -1.5941 H   0  0  0  0  0  0  0  0  0  0  0  0
    1.6179    0.2281   -2.3497 H   0  0  0  0  0  0  0  0  0  0  0  0
    0.8581   -1.8153   -1.1911 H   0  0  0  0  0  0  0  0  0  0  0  0
    1.1620   -1.2698    1.7872 H   0  0  0  0  0  0  0  0  0  0  0  0
    2.3380   -0.6468    0.6049 H   0  0  0  0  0  0  0  0  0  0  0  0
    2.0566   -2.3922    0.6297 H   0  0  0  0  0  0  0  0  0  0  0  0
   -0.7420   -2.9245   -0.1339 H   0  0  0  0  0  0  0  0  0  0  0  0
   -1.6465   -1.4248   -0.3440 H   0  0  0  0  0  0  0  0  0  0  0  0
   -0.8500   -1.8554    1.2790 H   0  0  0  0  0  0  0  0  0  0  0  0
  1  2  3  0
  2  3  1  0
  3  4  1  0
  3  5  1  0
  5  6  1  0
  5  7  1  0
  7  8  1  0
  7  9  1  0
  1 10  1  0
  3 11  1  0
  4 12  1  0
  4 13  1  0
  4 14  1  0
  5 15  1  0
  6 16  1  0
  7 17  1  0
  8 18  1  0
  8 19  1  0
  8 20  1  0
  9 21  1  0
  9 22  1  0
  9 23  1  0
M  END
