
     RDKit          3D

 18 17  0  0  0  0  0  0  0  0999 V2000
   -2.2965    2.5282    1.0854 C   0  0  0  0  0  0  0  0  0  0  0  0
   -0.7472    1.5008    0.8633 C   0  0  0  0  0  0  0  0  0  0  0  0
    0.4174    0.7002    0.6952 C   0  0  0  0  0  0  0  0  0  0  0  0
   -0.2229   -0.3322   -0.3734 C   0  0  0  0  0  0  0  0  0  0  0  0
   -0.9779    0.1630   -1.4804 C   0  0  0  0  0  0  0  0  0  0  0  0
   -0.2850   -1.7310    0.3151 C   0  0  0  0  0  0  0  0  0  0  0  0
    1.3197   -1.4671    0.6737 C   0  0  0  0  0  0  0  0  0  0  0  0
    3.2489   -1.1524    1.1405 C   0  0  0  0  0  0  0  0  0  0  0  0
   -3.1863    3.1088    1.2237 H   0  0  0  0  0  0  0  0  0  0  0  0
    0.2721    0.0876    1.7011 H   0  0  0  0  0  0  0  0  0  0  0  0
    1.1298    1.2765    0.4089 H   0  0  0  0  0  0  0  0  0  0  0  0
    0.8193   -0.5364   -1.0299 H   0  0  0  0  0  0  0  0  0  0  0  0
   -1.7825   -0.4604   -1.8766 H   0  0  0  0  0  0  0  0  0  0  0  0
   -1.3940    1.2427   -1.2683 H   0  0  0  0  0  0  0  0  0  0  0  0
   -0.2481    0.3960   -2.3949 H   0  0  0  0  0  0  0  0  0  0  0  0
    0.0302   -2.5766   -0.2970 H   0  0  0  0  0  0  0  0  0  0  0  0
   -0.5011   -1.7839    1.4006 H   0  0  0  0  0  0  0  0  0  0  0  0
    4.4041   -0.9637    1.4425 H   0  0  0  0  0  0  0  0  0  0  0  0
  1  2  3  0
  2  3  1  0
  3  4  1  0
  4  5  1  0
  4  6  1  0
  6  7  1  0
  7  8  3  0
  1  9  1  0
  3 10  1  0
  3 11  1  0
  4 12  1  0
  5 13  1  0
  5 14  1  0
  5 15  1  0
  6 16  1  0
  6 17  1  0
  8 18  1  0
M  END
