
     RDKit          3D

 15 16  0  0  0  0  0  0  0  0999 V2000
    1.5696    1.3416   -1.6957 C   0  0  0  0  0  0  0  0  0  0  0  0
    0.6645    0.5446   -1.6678 C   0  0  0  0  0  0  0  0  0  0  0  0
   -0.4123   -0.4225   -1.6551 C   0  0  0  0  0  0  0  0  0  0  0  0
   -0.8213   -0.9081   -2.7420 O   0  0  0  0  0  0  0  0  0  0  0  0
   -1.0033   -0.8108   -0.3320 C   0  0  0  0  0  0  0  0  0  0  0  0
   -0.9532    0.0999    0.8134 C   0  0  0  0  0  0  0  0  0  0  0  0
    0.2967    0.6848    1.3626 C   0  0  0  0  0  0  0  0  0  0  0  0
    1.1046   -0.2842    0.7492 O   0  0  0  0  0  0  0  0  0  0  0  0
    0.0107   -1.1164    0.7135 C   0  0  0  0  0  0  0  0  0  0  0  0
    2.3709    2.0581   -1.7174 H   0  0  0  0  0  0  0  0  0  0  0  0
   -1.8264   -1.5586   -0.4033 H   0  0  0  0  0  0  0  0  0  0  0  0
   -1.7817   -0.0075    1.5657 H   0  0  0  0  0  0  0  0  0  0  0  0
    0.5343    1.7364    1.0534 H   0  0  0  0  0  0  0  0  0  0  0  0
    0.3984    0.5366    2.4783 H   0  0  0  0  0  0  0  0  0  0  0  0
   -0.1515   -1.8939    1.4772 H   0  0  0  0  0  0  0  0  0  0  0  0
  1  2  3  0
  2  3  1  0
  3  4  2  0
  3  5  1  0
  5  6  1  0
  6  7  1  0
  7  8  1  0
  8  9  1  0
  9  5  1  0
  9  6  1  0
  1 10  1  0
  5 11  1  0
  6 12  1  0
  7 13  1  0
  7 14  1  0
  9 15  1  0
M  END
