
     RDKit          3D

 17 16  0  0  0  0  0  0  0  0999 V2000
    3.7162    1.2978   -0.6118 C   0  0  0  0  0  0  0  0  0  0  0  0
    2.5676    1.0215   -0.2667 C   0  0  0  0  0  0  0  0  0  0  0  0
    1.2324    0.7143    0.1489 C   0  0  0  0  0  0  0  0  0  0  0  0
    0.6227    1.5905    0.8002 O   0  0  0  0  0  0  0  0  0  0  0  0
    0.6039   -0.5652   -0.1667 C   0  0  0  0  0  0  0  0  0  0  0  0
   -0.7361   -0.5029   -0.8053 C   0  0  0  0  0  0  0  0  0  0  0  0
   -1.1193   -1.8687   -1.0171 O   0  0  0  0  0  0  0  0  0  0  0  0
   -1.7604    0.1675    0.0540 C   0  0  0  0  0  0  0  0  0  0  0  0
   -2.9887    0.0908   -0.6252 O   0  0  0  0  0  0  0  0  0  0  0  0
    4.7211    1.5501   -0.9141 H   0  0  0  0  0  0  0  0  0  0  0  0
    0.5757   -1.1434    0.8030 H   0  0  0  0  0  0  0  0  0  0  0  0
    1.3025   -1.1203   -0.8737 H   0  0  0  0  0  0  0  0  0  0  0  0
   -0.7127   -0.0331   -1.7897 H   0  0  0  0  0  0  0  0  0  0  0  0
   -0.9182   -2.3185   -0.1540 H   0  0  0  0  0  0  0  0  0  0  0  0
   -1.5226    1.2246    0.2044 H   0  0  0  0  0  0  0  0  0  0  0  0
   -1.8471   -0.3059    1.0764 H   0  0  0  0  0  0  0  0  0  0  0  0
   -3.7369    0.2009    0.0129 H   0  0  0  0  0  0  0  0  0  0  0  0
  1  2  3  0
  2  3  1  0
  3  4  2  0
  3  5  1  0
  5  6  1  0
  6  7  1  0
  6  8  1  0
  8  9  1  0
  1 10  1  0
  5 11  1  0
  5 12  1  0
  6 13  1  0
  7 14  1  0
  8 15  1  0
  8 16  1  0
  9 17  1  0
M  END
