
     RDKit          3D

 19 20  0  0  0  0  0  0  0  0999 V2000
   -1.0402    2.8640    0.3148 C   0  0  0  0  0  0  0  0  0  0  0  0
   -0.7421    1.7155    0.1845 C   0  0  0  0  0  0  0  0  0  0  0  0
   -0.4054    0.4406    0.0179 C   0  0  0  0  0  0  0  0  0  0  0  0
   -0.0312   -0.2590   -1.2225 C   0  0  0  0  0  0  0  0  0  0  0  0
    0.0382   -1.3330   -0.1590 C   0  0  0  0  0  0  0  0  0  0  0  0
    0.6999   -0.2932    0.7022 C   0  0  0  0  0  0  0  0  0  0  0  0
    2.0922    0.0882    0.3566 C   0  0  0  0  0  0  0  0  0  0  0  0
   -1.2719   -0.7534    0.3299 C   0  0  0  0  0  0  0  0  0  0  0  0
   -2.2905   -1.0133   -0.5591 O   0  0  0  0  0  0  0  0  0  0  0  0
   -1.2987    3.9083    0.4459 H   0  0  0  0  0  0  0  0  0  0  0  0
    0.9199    0.0031   -1.7065 H   0  0  0  0  0  0  0  0  0  0  0  0
   -0.8346   -0.3803   -1.9719 H   0  0  0  0  0  0  0  0  0  0  0  0
    0.2735   -2.2918   -0.2755 H   0  0  0  0  0  0  0  0  0  0  0  0
    0.5431   -0.4034    1.7902 H   0  0  0  0  0  0  0  0  0  0  0  0
    2.6193   -0.8222   -0.0419 H   0  0  0  0  0  0  0  0  0  0  0  0
    2.6772    0.3994    1.2401 H   0  0  0  0  0  0  0  0  0  0  0  0
    2.1653    0.9243   -0.3764 H   0  0  0  0  0  0  0  0  0  0  0  0
   -1.4902   -0.8753    1.3914 H   0  0  0  0  0  0  0  0  0  0  0  0
   -2.6236   -1.9186   -0.4606 H   0  0  0  0  0  0  0  0  0  0  0  0
  1  2  3  0
  2  3  1  0
  3  4  1  0
  4  5  1  0
  5  6  1  0
  6  7  1  0
  5  8  1  0
  8  9  1  0
  6  3  1  0
  8  3  1  0
  1 10  1  0
  4 11  1  0
  4 12  1  0
  5 13  1  0
  6 14  1  0
  7 15  1  0
  7 16  1  0
  7 17  1  0
  8 18  1  0
  9 19  1  0
M  END
