
     RDKit          3D

 17 17  0  0  0  0  0  0  0  0999 V2000
    0.9817    2.1873   -1.3341 C   0  0  0  0  0  0  0  0  0  0  0  0
    0.4547    1.2896   -0.7243 C   0  0  0  0  0  0  0  0  0  0  0  0
   -0.2056    0.2118    0.0073 C   0  0  0  0  0  0  0  0  0  0  0  0
   -1.4127    0.7111    0.7628 C   0  0  0  0  0  0  0  0  0  0  0  0
   -0.5618   -0.8950   -0.9347 C   0  0  0  0  0  0  0  0  0  0  0  0
    0.4771   -1.8302   -0.9373 O   0  0  0  0  0  0  0  0  0  0  0  0
    1.1979   -1.7036    0.2344 C   0  0  0  0  0  0  0  0  0  0  0  0
    2.0505   -2.5250    0.6402 O   0  0  0  0  0  0  0  0  0  0  0  0
    0.8038   -0.4516    0.9270 C   0  0  0  0  0  0  0  0  0  0  0  0
    1.4437    2.9839   -1.8944 H   0  0  0  0  0  0  0  0  0  0  0  0
   -1.1039    1.5103    1.4627 H   0  0  0  0  0  0  0  0  0  0  0  0
   -1.8332   -0.1015    1.3626 H   0  0  0  0  0  0  0  0  0  0  0  0
   -2.1305    1.0880    0.0063 H   0  0  0  0  0  0  0  0  0  0  0  0
   -1.4721   -1.4306   -0.5380 H   0  0  0  0  0  0  0  0  0  0  0  0
   -0.7599   -0.5060   -1.9658 H   0  0  0  0  0  0  0  0  0  0  0  0
    1.7155    0.1838    1.0410 H   0  0  0  0  0  0  0  0  0  0  0  0
    0.3547   -0.7224    1.8844 H   0  0  0  0  0  0  0  0  0  0  0  0
  1  2  3  0
  2  3  1  0
  3  4  1  0
  3  5  1  0
  5  6  1  0
  6  7  1  0
  7  8  2  0
  7  9  1  0
  9  3  1  0
  1 10  1  0
  4 11  1  0
  4 12  1  0
  4 13  1  0
  5 14  1  0
  5 15  1  0
  9 16  1  0
  9 17  1  0
M  END
