
     RDKit          3D

 15 14  0  0  0  0  0  0  0  0999 V2000
    1.1380   -2.3976   -2.0737 C   0  0  0  0  0  0  0  0  0  0  0  0
    1.0159   -1.1607   -1.6855 C   0  0  0  0  0  0  0  0  0  0  0  0
    0.8659    0.1421   -1.2711 C   0  0  0  0  0  0  0  0  0  0  0  0
    0.5479    0.9488   -2.4203 O   0  0  0  0  0  0  0  0  0  0  0  0
   -0.0867    0.4687   -0.2101 C   0  0  0  0  0  0  0  0  0  0  0  0
    0.0116   -0.1333    1.0030 O   0  0  0  0  0  0  0  0  0  0  0  0
   -1.0308    0.4310    1.7889 C   0  0  0  0  0  0  0  0  0  0  0  0
    1.2187   -3.3406   -2.3821 H   0  0  0  0  0  0  0  0  0  0  0  0
    1.8703    0.6326   -0.9595 H   0  0  0  0  0  0  0  0  0  0  0  0
   -0.4174    0.6944   -2.5538 H   0  0  0  0  0  0  0  0  0  0  0  0
   -1.1373    0.2874   -0.6093 H   0  0  0  0  0  0  0  0  0  0  0  0
   -0.0918    1.5893   -0.0076 H   0  0  0  0  0  0  0  0  0  0  0  0
   -0.8750    1.5406    1.8491 H   0  0  0  0  0  0  0  0  0  0  0  0
   -1.0212   -0.0015    2.7936 H   0  0  0  0  0  0  0  0  0  0  0  0
   -2.0082    0.2988    1.3323 H   0  0  0  0  0  0  0  0  0  0  0  0
  1  2  3  0
  2  3  1  0
  3  4  1  0
  3  5  1  0
  5  6  1  0
  6  7  1  0
  1  8  1  0
  3  9  1  0
  4 10  1  0
  5 11  1  0
  5 12  1  0
  7 13  1  0
  7 14  1  0
  7 15  1  0
M  END
