
     RDKit          3D

 19 20  0  0  0  0  0  0  0  0999 V2000
    2.4102   -0.8749    1.7983 C   0  0  0  0  0  0  0  0  0  0  0  0
    1.5350   -0.2382    1.2998 C   0  0  0  0  0  0  0  0  0  0  0  0
    0.5156    0.4767    0.7139 C   0  0  0  0  0  0  0  0  0  0  0  0
   -0.8544   -0.0542    0.7308 C   0  0  0  0  0  0  0  0  0  0  0  0
   -1.0781   -0.9732   -0.4679 C   0  0  0  0  0  0  0  0  0  0  0  0
   -0.7011    0.2732   -1.2539 C   0  0  0  0  0  0  0  0  0  0  0  0
   -1.5512    0.9824   -0.1958 C   0  0  0  0  0  0  0  0  0  0  0  0
    0.6996    0.5399   -0.8449 C   0  0  0  0  0  0  0  0  0  0  0  0
    1.6315   -0.3995   -1.2618 O   0  0  0  0  0  0  0  0  0  0  0  0
    3.2645   -1.4827    2.2656 H   0  0  0  0  0  0  0  0  0  0  0  0
    0.5359    1.5963    0.9880 H   0  0  0  0  0  0  0  0  0  0  0  0
   -1.3816   -0.3365    1.6288 H   0  0  0  0  0  0  0  0  0  0  0  0
   -2.1729   -1.1482   -0.5683 H   0  0  0  0  0  0  0  0  0  0  0  0
   -0.4333   -1.8403   -0.5272 H   0  0  0  0  0  0  0  0  0  0  0  0
   -1.0314    0.3661   -2.2767 H   0  0  0  0  0  0  0  0  0  0  0  0
   -2.6281    0.7345   -0.2495 H   0  0  0  0  0  0  0  0  0  0  0  0
   -1.2797    2.0089    0.0158 H   0  0  0  0  0  0  0  0  0  0  0  0
    1.0127    1.5560   -1.1137 H   0  0  0  0  0  0  0  0  0  0  0  0
    1.5066   -1.1861   -0.6813 H   0  0  0  0  0  0  0  0  0  0  0  0
  1  2  3  0
  2  3  1  0
  3  4  1  0
  4  5  1  0
  5  6  1  0
  6  7  1  0
  6  8  1  0
  8  9  1  0
  8  3  1  0
  7  4  1  0
  1 10  1  0
  3 11  1  0
  4 12  1  0
  5 13  1  0
  5 14  1  0
  6 15  1  0
  7 16  1  0
  7 17  1  0
  8 18  1  0
  9 19  1  0
M  END
