
     RDKit          3D

 19 18  0  0  0  0  0  0  0  0999 V2000
   -2.0675   -3.2242    0.1138 C   0  0  0  0  0  0  0  0  0  0  0  0
   -2.0707   -1.6688    0.0327 C   0  0  0  0  0  0  0  0  0  0  0  0
   -2.0841   -0.6353   -0.0068 C   0  0  0  0  0  0  0  0  0  0  0  0
   -1.1301    0.2960   -0.7012 O   0  0  0  0  0  0  0  0  0  0  0  0
    0.1416    0.0833   -0.3220 C   0  0  0  0  0  0  0  0  0  0  0  0
    1.0469    0.1776   -1.5314 C   0  0  0  0  0  0  0  0  0  0  0  0
    0.4196    0.6664   -2.5108 O   0  0  0  0  0  0  0  0  0  0  0  0
    0.5855    1.4013    0.4313 C   0  0  0  0  0  0  0  0  0  0  0  0
    2.0635    1.0811    0.8454 C   0  0  0  0  0  0  0  0  0  0  0  0
   -2.0546   -4.1421    0.1545 H   0  0  0  0  0  0  0  0  0  0  0  0
   -3.0294    0.1049   -0.1993 H   0  0  0  0  0  0  0  0  0  0  0  0
   -1.8488   -0.0273    1.1243 H   0  0  0  0  0  0  0  0  0  0  0  0
    0.3516   -0.7334    0.3469 H   0  0  0  0  0  0  0  0  0  0  0  0
    2.0434   -0.0934   -1.6547 H   0  0  0  0  0  0  0  0  0  0  0  0
    0.5763    2.2197   -0.2707 H   0  0  0  0  0  0  0  0  0  0  0  0
    0.0821    1.5788    1.3556 H   0  0  0  0  0  0  0  0  0  0  0  0
    2.3094    1.7512    1.6463 H   0  0  0  0  0  0  0  0  0  0  0  0
    2.6555    1.1521   -0.0464 H   0  0  0  0  0  0  0  0  0  0  0  0
    2.0097    0.0123    1.1923 H   0  0  0  0  0  0  0  0  0  0  0  0
  1  2  3  0
  2  3  1  0
  3  4  1  0
  4  5  1  0
  5  6  1  0
  6  7  2  0
  5  8  1  0
  8  9  1  0
  1 10  1  0
  3 11  1  0
  3 12  1  0
  5 13  1  0
  6 14  1  0
  8 15  1  0
  8 16  1  0
  9 17  1  0
  9 18  1  0
  9 19  1  0
M  END
