
     RDKit          3D

 21 21  0  0  0  0  0  0  0  0999 V2000
    1.5610    4.0940    0.1616 C   0  0  0  0  0  0  0  0  0  0  0  0
    1.4559    2.8352    0.0457 C   0  0  0  0  0  0  0  0  0  0  0  0
    1.3614    1.4700   -0.0656 C   0  0  0  0  0  0  0  0  0  0  0  0
    0.8388    0.5106    0.8908 C   0  0  0  0  0  0  0  0  0  0  0  0
   -0.3970    0.2812    1.4092 O   0  0  0  0  0  0  0  0  0  0  0  0
    0.4116   -0.8071    0.6615 C   0  0  0  0  0  0  0  0  0  0  0  0
   -0.5864   -1.4973   -0.1638 C   0  0  0  0  0  0  0  0  0  0  0  0
   -0.5194   -1.2647   -1.6540 C   0  0  0  0  0  0  0  0  0  0  0  0
   -2.0069   -1.4727    0.3224 C   0  0  0  0  0  0  0  0  0  0  0  0
    1.6534    5.1148    0.2647 H   0  0  0  0  0  0  0  0  0  0  0  0
    0.6428    1.3972   -1.0468 H   0  0  0  0  0  0  0  0  0  0  0  0
    2.2790    1.0096   -0.6000 H   0  0  0  0  0  0  0  0  0  0  0  0
    1.5584    0.5659    1.8530 H   0  0  0  0  0  0  0  0  0  0  0  0
    0.8034   -1.5478    1.4863 H   0  0  0  0  0  0  0  0  0  0  0  0
   -0.3463   -2.6429   -0.1262 H   0  0  0  0  0  0  0  0  0  0  0  0
   -1.1879   -1.9139   -2.2509 H   0  0  0  0  0  0  0  0  0  0  0  0
   -0.8902   -0.2245   -1.8469 H   0  0  0  0  0  0  0  0  0  0  0  0
    0.5125   -1.4137   -2.0183 H   0  0  0  0  0  0  0  0  0  0  0  0
   -2.3466   -0.4515    0.5049 H   0  0  0  0  0  0  0  0  0  0  0  0
   -2.6894   -1.8963   -0.4474 H   0  0  0  0  0  0  0  0  0  0  0  0
   -2.1079   -2.1460    1.2285 H   0  0  0  0  0  0  0  0  0  0  0  0
  1  2  3  0
  2  3  1  0
  3  4  1  0
  4  5  1  0
  5  6  1  0
  6  7  1  0
  7  8  1  0
  7  9  1  0
  6  4  1  0
  1 10  1  0
  3 11  1  0
  3 12  1  0
  4 13  1  0
  6 14  1  0
  7 15  1  0
  8 16  1  0
  8 17  1  0
  8 18  1  0
  9 19  1  0
  9 20  1  0
  9 21  1  0
M  END
