
     RDKit          3D

 14 13  0  0  0  0  0  0  0  0999 V2000
    2.6733   -1.2546   -2.9613 C   0  0  0  0  0  0  0  0  0  0  0  0
    1.9408   -0.7127   -2.0321 C   0  0  0  0  0  0  0  0  0  0  0  0
    1.0720   -0.0861   -0.9518 C   0  0  0  0  0  0  0  0  0  0  0  0
    0.2656    0.4929    0.0214 C   0  0  0  0  0  0  0  0  0  0  0  0
   -0.4171    1.0080    0.8531 C   0  0  0  0  0  0  0  0  0  0  0  0
   -1.7182    1.4514    0.0965 O   0  0  0  0  0  0  0  0  0  0  0  0
   -1.0641   -0.1794    1.7519 C   0  0  0  0  0  0  0  0  0  0  0  0
   -1.5366   -1.0834    0.7692 O   0  0  0  0  0  0  0  0  0  0  0  0
    3.2946   -1.7241   -3.7689 H   0  0  0  0  0  0  0  0  0  0  0  0
   -0.2789    1.8626    1.4239 H   0  0  0  0  0  0  0  0  0  0  0  0
   -1.3613    1.6254   -0.8189 H   0  0  0  0  0  0  0  0  0  0  0  0
   -0.2014   -0.5196    2.2886 H   0  0  0  0  0  0  0  0  0  0  0  0
   -1.8707    0.2639    2.2640 H   0  0  0  0  0  0  0  0  0  0  0  0
   -0.7980   -1.1442    0.0669 H   0  0  0  0  0  0  0  0  0  0  0  0
  1  2  3  0
  2  3  1  0
  3  4  3  0
  4  5  1  0
  5  6  1  0
  5  7  1  0
  7  8  1  0
  1  9  1  0
  5 10  1  0
  6 11  1  0
  7 12  1  0
  7 13  1  0
  8 14  1  0
M  END
