
     RDKit          3D

 19 18  0  0  0  0  0  0  0  0999 V2000
    3.7569    0.1804   -2.6657 C   0  0  0  0  0  0  0  0  0  0  0  0
    2.6897   -0.1829   -2.2024 C   0  0  0  0  0  0  0  0  0  0  0  0
    1.4241   -0.6136   -1.6802 C   0  0  0  0  0  0  0  0  0  0  0  0
    0.7643   -1.4309   -2.3728 O   0  0  0  0  0  0  0  0  0  0  0  0
    0.9387   -0.1579   -0.4695 O   0  0  0  0  0  0  0  0  0  0  0  0
   -0.3109   -0.6231   -0.0190 C   0  0  0  0  0  0  0  0  0  0  0  0
   -0.6707   -0.0141    1.3196 C   0  0  0  0  0  0  0  0  0  0  0  0
   -0.7210    1.4967    1.1287 C   0  0  0  0  0  0  0  0  0  0  0  0
   -2.0121   -0.4913    1.7901 C   0  0  0  0  0  0  0  0  0  0  0  0
    4.6982    0.4882   -3.0574 H   0  0  0  0  0  0  0  0  0  0  0  0
   -0.3299   -1.7313    0.0269 H   0  0  0  0  0  0  0  0  0  0  0  0
   -1.0594   -0.3282   -0.7793 H   0  0  0  0  0  0  0  0  0  0  0  0
    0.0768   -0.2500    2.0923 H   0  0  0  0  0  0  0  0  0  0  0  0
   -1.3891    1.9803    1.8528 H   0  0  0  0  0  0  0  0  0  0  0  0
   -1.0312    1.6995    0.0677 H   0  0  0  0  0  0  0  0  0  0  0  0
    0.3319    1.8505    1.1923 H   0  0  0  0  0  0  0  0  0  0  0  0
   -2.4690   -1.2249    1.0877 H   0  0  0  0  0  0  0  0  0  0  0  0
   -2.7480    0.3565    1.8523 H   0  0  0  0  0  0  0  0  0  0  0  0
   -1.9393   -1.0038    2.7711 H   0  0  0  0  0  0  0  0  0  0  0  0
  1  2  3  0
  2  3  1  0
  3  4  2  0
  3  5  1  0
  5  6  1  0
  6  7  1  0
  7  8  1  0
  7  9  1  0
  1 10  1  0
  6 11  1  0
  6 12  1  0
  7 13  1  0
  8 14  1  0
  8 15  1  0
  8 16  1  0
  9 17  1  0
  9 18  1  0
  9 19  1  0
M  END
