
     RDKit          3D

 19 20  0  0  0  0  0  0  0  0999 V2000
   -3.0654    0.6045   -2.0819 C   0  0  0  0  0  0  0  0  0  0  0  0
   -2.1099    0.7256   -1.3670 C   0  0  0  0  0  0  0  0  0  0  0  0
   -0.9663    0.8905   -0.4900 C   0  0  0  0  0  0  0  0  0  0  0  0
   -0.9032   -0.0026    0.7176 C   0  0  0  0  0  0  0  0  0  0  0  0
    0.5657   -0.2693    0.4565 C   0  0  0  0  0  0  0  0  0  0  0  0
    0.9321   -1.5941    0.3974 O   0  0  0  0  0  0  0  0  0  0  0  0
    2.0851   -1.8722    1.1351 C   0  0  0  0  0  0  0  0  0  0  0  0
    0.3782    0.4135   -0.8747 C   0  0  0  0  0  0  0  0  0  0  0  0
    0.1132    1.8666   -0.7875 C   0  0  0  0  0  0  0  0  0  0  0  0
   -3.9172    0.5066   -2.7380 H   0  0  0  0  0  0  0  0  0  0  0  0
   -1.0426    0.4988    1.6974 H   0  0  0  0  0  0  0  0  0  0  0  0
   -1.5243   -0.8993    0.5645 H   0  0  0  0  0  0  0  0  0  0  0  0
    1.2559    0.3411    1.0824 H   0  0  0  0  0  0  0  0  0  0  0  0
    2.9216   -1.2717    0.7416 H   0  0  0  0  0  0  0  0  0  0  0  0
    2.2869   -2.9600    1.0389 H   0  0  0  0  0  0  0  0  0  0  0  0
    1.9452   -1.6317    2.2215 H   0  0  0  0  0  0  0  0  0  0  0  0
    0.4607   -0.1351   -1.8118 H   0  0  0  0  0  0  0  0  0  0  0  0
    0.0207    2.3873   -1.7530 H   0  0  0  0  0  0  0  0  0  0  0  0
    0.5635    2.4014    0.0783 H   0  0  0  0  0  0  0  0  0  0  0  0
  1  2  3  0
  2  3  1  0
  3  4  1  0
  4  5  1  0
  5  6  1  0
  6  7  1  0
  5  8  1  0
  8  9  1  0
  8  3  1  0
  9  3  1  0
  1 10  1  0
  4 11  1  0
  4 12  1  0
  5 13  1  0
  7 14  1  0
  7 15  1  0
  7 16  1  0
  8 17  1  0
  9 18  1  0
  9 19  1  0
M  END
