
     RDKit          3D

 19 18  0  0  0  0  0  0  0  0999 V2000
    1.0105    0.7855   -2.0638 C   0  0  0  0  0  0  0  0  0  0  0  0
    0.3160    0.5613   -0.9943 C   0  0  0  0  0  0  0  0  0  0  0  0
   -0.4276    0.3192    0.1670 C   0  0  0  0  0  0  0  0  0  0  0  0
    0.9237   -0.0606    1.2172 O   0  0  0  0  0  0  0  0  0  0  0  0
   -0.3801    1.6318    0.9922 C   0  0  0  0  0  0  0  0  0  0  0  0
   -0.9934    2.7013    0.3899 O   0  0  0  0  0  0  0  0  0  0  0  0
   -0.8451   -0.9803    0.4050 C   0  0  0  0  0  0  0  0  0  0  0  0
    0.3817   -2.0549    0.3519 C   0  0  0  0  0  0  0  0  0  0  0  0
   -1.2288   -1.0698    1.7894 O   0  0  0  0  0  0  0  0  0  0  0  0
    1.7355    1.0086   -3.1421 H   0  0  0  0  0  0  0  0  0  0  0  0
    1.5786   -0.2468    0.5245 H   0  0  0  0  0  0  0  0  0  0  0  0
    0.7553    1.9519    1.1817 H   0  0  0  0  0  0  0  0  0  0  0  0
   -0.7412    1.6257    2.0459 H   0  0  0  0  0  0  0  0  0  0  0  0
   -1.0306    2.6230   -0.6113 H   0  0  0  0  0  0  0  0  0  0  0  0
   -1.5615   -1.5403   -0.1291 H   0  0  0  0  0  0  0  0  0  0  0  0
   -0.2012   -3.0778    0.4655 H   0  0  0  0  0  0  0  0  0  0  0  0
    1.0338   -1.9297    1.1722 H   0  0  0  0  0  0  0  0  0  0  0  0
    0.6422   -2.0342   -0.6855 H   0  0  0  0  0  0  0  0  0  0  0  0
   -0.9679   -0.2137    2.2546 H   0  0  0  0  0  0  0  0  0  0  0  0
  1  2  3  0
  2  3  1  0
  3  4  1  0
  3  5  1  0
  5  6  1  0
  3  7  1  0
  7  8  1  0
  7  9  1  0
  1 10  1  0
  4 11  1  0
  5 12  1  0
  5 13  1  0
  6 14  1  0
  7 15  1  0
  8 16  1  0
  8 17  1  0
  8 18  1  0
  9 19  1  0
M  END
