
     RDKit          3D

 14 13  0  0  0  0  0  0  0  0999 V2000
    4.5038   -1.0448   -0.5374 C   0  0  0  0  0  0  0  0  0  0  0  0
    3.2383   -0.6695   -0.2978 C   0  0  0  0  0  0  0  0  0  0  0  0
    1.9651   -0.2880   -0.0613 C   0  0  0  0  0  0  0  0  0  0  0  0
    0.8280    0.0321    0.1449 C   0  0  0  0  0  0  0  0  0  0  0  0
   -0.6064    0.4162    0.4036 C   0  0  0  0  0  0  0  0  0  0  0  0
   -1.4640    0.1696   -0.8025 C   0  0  0  0  0  0  0  0  0  0  0  0
   -2.8927    0.1844   -0.3243 C   0  0  0  0  0  0  0  0  0  0  0  0
   -3.0848    0.6477    0.8345 O   0  0  0  0  0  0  0  0  0  0  0  0
    5.4004   -1.3268   -0.7014 H   0  0  0  0  0  0  0  0  0  0  0  0
   -0.5843    1.5585    0.5633 H   0  0  0  0  0  0  0  0  0  0  0  0
   -0.9737   -0.0356    1.3118 H   0  0  0  0  0  0  0  0  0  0  0  0
   -1.3960    1.1785   -1.3698 H   0  0  0  0  0  0  0  0  0  0  0  0
   -1.2417   -0.6622   -1.4198 H   0  0  0  0  0  0  0  0  0  0  0  0
   -3.6920   -0.1602   -0.9178 H   0  0  0  0  0  0  0  0  0  0  0  0
  1  2  3  0
  2  3  1  0
  3  4  3  0
  4  5  1  0
  5  6  1  0
  6  7  1  0
  7  8  2  0
  1  9  1  0
  5 10  1  0
  5 11  1  0
  6 12  1  0
  6 13  1  0
  7 14  1  0
M  END
