
     RDKit          3D

 23 22  0  0  0  0  0  0  0  0999 V2000
    3.2693    0.0672    0.0966 C   0  0  0  0  0  0  0  0  0  0  0  0
    2.0980    0.0335    0.3129 C   0  0  0  0  0  0  0  0  0  0  0  0
    0.6614    0.0069    0.5931 C   0  0  0  0  0  0  0  0  0  0  0  0
    0.3017    1.2778    1.2932 C   0  0  0  0  0  0  0  0  0  0  0  0
    0.3855   -1.0589    1.4468 O   0  0  0  0  0  0  0  0  0  0  0  0
   -0.0963   -0.2174   -0.6843 C   0  0  0  0  0  0  0  0  0  0  0  0
    0.2283    0.9258   -1.6211 C   0  0  0  0  0  0  0  0  0  0  0  0
   -1.5718   -0.3079   -0.5324 C   0  0  0  0  0  0  0  0  0  0  0  0
   -2.0147   -1.4486    0.3729 C   0  0  0  0  0  0  0  0  0  0  0  0
    4.3462    0.1034   -0.0837 H   0  0  0  0  0  0  0  0  0  0  0  0
    0.4145    1.1802    2.3928 H   0  0  0  0  0  0  0  0  0  0  0  0
   -0.6906    1.6869    1.0031 H   0  0  0  0  0  0  0  0  0  0  0  0
    1.0366    2.0678    0.9918 H   0  0  0  0  0  0  0  0  0  0  0  0
    0.9749   -1.8130    1.1878 H   0  0  0  0  0  0  0  0  0  0  0  0
    0.2356   -1.1389   -1.2126 H   0  0  0  0  0  0  0  0  0  0  0  0
   -0.6218    1.6591   -1.5313 H   0  0  0  0  0  0  0  0  0  0  0  0
    0.3987    0.5927   -2.6541 H   0  0  0  0  0  0  0  0  0  0  0  0
    1.1565    1.4668   -1.2725 H   0  0  0  0  0  0  0  0  0  0  0  0
   -2.0016   -0.5310   -1.5314 H   0  0  0  0  0  0  0  0  0  0  0  0
   -2.0454    0.6470   -0.2074 H   0  0  0  0  0  0  0  0  0  0  0  0
   -2.9832   -1.8842    0.0468 H   0  0  0  0  0  0  0  0  0  0  0  0
   -2.1953   -1.0520    1.3912 H   0  0  0  0  0  0  0  0  0  0  0  0
   -1.2867   -2.2629    0.3507 H   0  0  0  0  0  0  0  0  0  0  0  0
  1  2  3  0
  2  3  1  0
  3  4  1  0
  3  5  1  0
  3  6  1  0
  6  7  1  0
  6  8  1  0
  8  9  1  0
  1 10  1  0
  4 11  1  0
  4 12  1  0
  4 13  1  0
  5 14  1  0
  6 15  1  0
  7 16  1  0
  7 17  1  0
  7 18  1  0
  8 19  1  0
  8 20  1  0
  9 21  1  0
  9 22  1  0
  9 23  1  0
M  END
