
     RDKit          3D

 15 14  0  0  0  0  0  0  0  0999 V2000
    3.3528   -3.0347    0.7551 C   0  0  0  0  0  0  0  0  0  0  0  0
    2.8020   -2.3961    0.0121 C   0  0  0  0  0  0  0  0  0  0  0  0
    2.1703   -1.6467   -0.8275 C   0  0  0  0  0  0  0  0  0  0  0  0
    2.1635   -1.4500   -2.1036 O   0  0  0  0  0  0  0  0  0  0  0  0
    1.1607   -0.6515   -0.2847 C   0  0  0  0  0  0  0  0  0  0  0  0
    0.2703    0.2135    0.2112 C   0  0  0  0  0  0  0  0  0  0  0  0
   -0.6848    1.1199    0.7564 C   0  0  0  0  0  0  0  0  0  0  0  0
   -1.7124    1.1538    0.0553 O   0  0  0  0  0  0  0  0  0  0  0  0
   -2.8503    1.3194   -0.4702 C   0  0  0  0  0  0  0  0  0  0  0  0
    3.9455   -3.7399    1.5700 H   0  0  0  0  0  0  0  0  0  0  0  0
   -0.7801    0.8956    1.9043 H   0  0  0  0  0  0  0  0  0  0  0  0
   -0.1342    2.1626    0.8486 H   0  0  0  0  0  0  0  0  0  0  0  0
   -3.2374    2.3983   -0.5050 H   0  0  0  0  0  0  0  0  0  0  0  0
   -2.7509    1.1570   -1.6347 H   0  0  0  0  0  0  0  0  0  0  0  0
   -3.7151    0.6645   -0.2872 H   0  0  0  0  0  0  0  0  0  0  0  0
  1  2  3  0
  2  3  1  0
  3  4  2  0
  3  5  1  0
  5  6  3  0
  6  7  1  0
  7  8  1  0
  8  9  1  0
  1 10  1  0
  7 11  1  0
  7 12  1  0
  9 13  1  0
  9 14  1  0
  9 15  1  0
M  END
