
     RDKit          3D

 23 22  0  0  0  0  0  0  0  0999 V2000
   -2.0734    2.8049   -0.0726 C   0  0  0  0  0  0  0  0  0  0  0  0
   -1.7879    1.7730   -0.6453 C   0  0  0  0  0  0  0  0  0  0  0  0
   -1.4329    0.5340   -1.3324 C   0  0  0  0  0  0  0  0  0  0  0  0
   -0.5332   -0.2795   -0.3964 C   0  0  0  0  0  0  0  0  0  0  0  0
   -1.3282   -0.5531    0.8571 C   0  0  0  0  0  0  0  0  0  0  0  0
   -0.5802   -1.3437    1.8758 C   0  0  0  0  0  0  0  0  0  0  0  0
    0.6599    0.3471   -0.1660 O   0  0  0  0  0  0  0  0  0  0  0  0
    1.6849   -0.4087   -0.6684 C   0  0  0  0  0  0  0  0  0  0  0  0
    3.0498    0.2052   -0.4610 C   0  0  0  0  0  0  0  0  0  0  0  0
   -2.3396    3.7010    0.4307 H   0  0  0  0  0  0  0  0  0  0  0  0
   -0.9339    0.7181   -2.3054 H   0  0  0  0  0  0  0  0  0  0  0  0
   -2.3635   -0.0756   -1.4878 H   0  0  0  0  0  0  0  0  0  0  0  0
   -0.3498   -1.2335   -0.9282 H   0  0  0  0  0  0  0  0  0  0  0  0
   -2.2317   -1.1390    0.5724 H   0  0  0  0  0  0  0  0  0  0  0  0
   -1.7037    0.3905    1.3025 H   0  0  0  0  0  0  0  0  0  0  0  0
   -0.9992   -1.1321    2.9035 H   0  0  0  0  0  0  0  0  0  0  0  0
    0.4999   -1.0468    1.9580 H   0  0  0  0  0  0  0  0  0  0  0  0
   -0.6746   -2.4436    1.7520 H   0  0  0  0  0  0  0  0  0  0  0  0
    1.5936   -0.6197   -1.7526 H   0  0  0  0  0  0  0  0  0  0  0  0
    1.6949   -1.3762   -0.0966 H   0  0  0  0  0  0  0  0  0  0  0  0
    3.1773    0.9686   -1.2577 H   0  0  0  0  0  0  0  0  0  0  0  0
    3.8549   -0.5339   -0.5854 H   0  0  0  0  0  0  0  0  0  0  0  0
    3.1167    0.7429    0.5037 H   0  0  0  0  0  0  0  0  0  0  0  0
  1  2  3  0
  2  3  1  0
  3  4  1  0
  4  5  1  0
  5  6  1  0
  4  7  1  0
  7  8  1  0
  8  9  1  0
  1 10  1  0
  3 11  1  0
  3 12  1  0
  4 13  1  0
  5 14  1  0
  5 15  1  0
  6 16  1  0
  6 17  1  0
  6 18  1  0
  8 19  1  0
  8 20  1  0
  9 21  1  0
  9 22  1  0
  9 23  1  0
M  END
