
     RDKit          3D

 19 18  0  0  0  0  0  0  0  0999 V2000
    2.8619    0.9208    0.9563 C   0  0  0  0  0  0  0  0  0  0  0  0
    2.0166    0.2483    0.4242 C   0  0  0  0  0  0  0  0  0  0  0  0
    0.9866   -0.5459   -0.2163 C   0  0  0  0  0  0  0  0  0  0  0  0
   -0.3172    0.1910   -0.3391 C   0  0  0  0  0  0  0  0  0  0  0  0
   -1.3021   -0.7386   -1.0188 C   0  0  0  0  0  0  0  0  0  0  0  0
   -0.2192    1.4191   -1.1505 C   0  0  0  0  0  0  0  0  0  0  0  0
   -1.2220    1.7887   -1.7431 O   0  0  0  0  0  0  0  0  0  0  0  0
   -0.9033    0.5616    0.9985 C   0  0  0  0  0  0  0  0  0  0  0  0
   -0.0375    1.3896    1.7239 O   0  0  0  0  0  0  0  0  0  0  0  0
    3.6168    1.5203    1.4139 H   0  0  0  0  0  0  0  0  0  0  0  0
    0.7763   -1.4884    0.3371 H   0  0  0  0  0  0  0  0  0  0  0  0
    1.3199   -0.8269   -1.2174 H   0  0  0  0  0  0  0  0  0  0  0  0
   -0.8929   -1.0457   -1.9995 H   0  0  0  0  0  0  0  0  0  0  0  0
   -1.5415   -1.6205   -0.3717 H   0  0  0  0  0  0  0  0  0  0  0  0
   -2.2335   -0.1276   -1.1941 H   0  0  0  0  0  0  0  0  0  0  0  0
    0.6998    2.0097   -1.2464 H   0  0  0  0  0  0  0  0  0  0  0  0
   -1.1264   -0.3250    1.6246 H   0  0  0  0  0  0  0  0  0  0  0  0
   -1.8798    1.0612    0.7972 H   0  0  0  0  0  0  0  0  0  0  0  0
   -0.6026    2.0337    2.2212 H   0  0  0  0  0  0  0  0  0  0  0  0
  1  2  3  0
  2  3  1  0
  3  4  1  0
  4  5  1  0
  4  6  1  0
  6  7  2  0
  4  8  1  0
  8  9  1  0
  1 10  1  0
  3 11  1  0
  3 12  1  0
  5 13  1  0
  5 14  1  0
  5 15  1  0
  6 16  1  0
  8 17  1  0
  8 18  1  0
  9 19  1  0
M  END
