
     RDKit          3D

 19 18  0  0  0  0  0  0  0  0999 V2000
   -0.2871    2.2911   -1.4950 C   0  0  0  0  0  0  0  0  0  0  0  0
   -0.3971    1.1468   -1.1262 C   0  0  0  0  0  0  0  0  0  0  0  0
   -0.5231   -0.2440   -0.6524 C   0  0  0  0  0  0  0  0  0  0  0  0
   -0.8574   -1.0778   -1.6961 O   0  0  0  0  0  0  0  0  0  0  0  0
   -1.6229   -0.2636    0.3834 C   0  0  0  0  0  0  0  0  0  0  0  0
   -2.8241    0.1603   -0.1403 O   0  0  0  0  0  0  0  0  0  0  0  0
    0.8013   -0.6610   -0.0978 C   0  0  0  0  0  0  0  0  0  0  0  0
    1.1827    0.1585    0.9659 O   0  0  0  0  0  0  0  0  0  0  0  0
    2.4068   -0.2835    1.4240 C   0  0  0  0  0  0  0  0  0  0  0  0
   -0.1883    3.3041   -1.8412 H   0  0  0  0  0  0  0  0  0  0  0  0
   -1.7375   -0.8670   -2.1112 H   0  0  0  0  0  0  0  0  0  0  0  0
   -1.3744    0.4154    1.2304 H   0  0  0  0  0  0  0  0  0  0  0  0
   -1.7198   -1.3079    0.7482 H   0  0  0  0  0  0  0  0  0  0  0  0
   -3.4018    0.6429    0.5013 H   0  0  0  0  0  0  0  0  0  0  0  0
    1.5611   -0.5120   -0.8927 H   0  0  0  0  0  0  0  0  0  0  0  0
    0.7806   -1.7283    0.1692 H   0  0  0  0  0  0  0  0  0  0  0  0
    2.6969    0.3803    2.2720 H   0  0  0  0  0  0  0  0  0  0  0  0
    2.3294   -1.3255    1.7393 H   0  0  0  0  0  0  0  0  0  0  0  0
    3.1747   -0.2291    0.6191 H   0  0  0  0  0  0  0  0  0  0  0  0
  1  2  3  0
  2  3  1  0
  3  4  1  0
  3  5  1  0
  5  6  1  0
  3  7  1  0
  7  8  1  0
  8  9  1  0
  1 10  1  0
  4 11  1  0
  5 12  1  0
  5 13  1  0
  6 14  1  0
  7 15  1  0
  7 16  1  0
  9 17  1  0
  9 18  1  0
  9 19  1  0
M  END
