
     RDKit          3D

 17 17  0  0  0  0  0  0  0  0999 V2000
   -0.4743    0.8282    2.7568 C   0  0  0  0  0  0  0  0  0  0  0  0
   -0.5641    0.9198    1.6066 C   0  0  0  0  0  0  0  0  0  0  0  0
   -0.6995    1.0411    0.1735 C   0  0  0  0  0  0  0  0  0  0  0  0
   -1.1943    2.1551   -0.3659 O   0  0  0  0  0  0  0  0  0  0  0  0
    0.2602    0.1801   -0.6545 C   0  0  0  0  0  0  0  0  0  0  0  0
    1.3268    0.8536   -1.2544 O   0  0  0  0  0  0  0  0  0  0  0  0
    0.7420   -1.0075    0.2249 C   0  0  0  0  0  0  0  0  0  0  0  0
   -0.0091   -1.1856   -1.0835 C   0  0  0  0  0  0  0  0  0  0  0  0
    0.7438   -1.6909   -2.1480 O   0  0  0  0  0  0  0  0  0  0  0  0
   -0.3798    0.7294    3.8170 H   0  0  0  0  0  0  0  0  0  0  0  0
   -1.7212    0.2985    0.0813 H   0  0  0  0  0  0  0  0  0  0  0  0
   -1.8626    2.0457   -1.1095 H   0  0  0  0  0  0  0  0  0  0  0  0
    1.7007    1.4459   -0.5289 H   0  0  0  0  0  0  0  0  0  0  0  0
    1.8244   -1.2676    0.2004 H   0  0  0  0  0  0  0  0  0  0  0  0
    0.2385   -1.2041    1.1696 H   0  0  0  0  0  0  0  0  0  0  0  0
   -1.0610   -1.5861   -0.9743 H   0  0  0  0  0  0  0  0  0  0  0  0
    1.1294   -2.5556   -1.9112 H   0  0  0  0  0  0  0  0  0  0  0  0
  1  2  3  0
  2  3  1  0
  3  4  1  0
  3  5  1  0
  5  6  1  0
  5  7  1  0
  7  8  1  0
  8  9  1  0
  8  5  1  0
  1 10  1  0
  3 11  1  0
  4 12  1  0
  6 13  1  0
  7 14  1  0
  7 15  1  0
  8 16  1  0
  9 17  1  0
M  END
