
     RDKit          3D

 18 17  0  0  0  0  0  0  0  0999 V2000
   -0.0582    2.2995    1.1680 C   0  0  0  0  0  0  0  0  0  0  0  0
   -0.0465    1.4312    0.3598 C   0  0  0  0  0  0  0  0  0  0  0  0
   -0.0327    0.3771   -0.6160 C   0  0  0  0  0  0  0  0  0  0  0  0
   -0.8335   -0.8299   -0.1184 C   0  0  0  0  0  0  0  0  0  0  0  0
   -2.2817   -0.3853    0.1484 C   0  0  0  0  0  0  0  0  0  0  0  0
    1.3759   -0.0510   -0.9245 C   0  0  0  0  0  0  0  0  0  0  0  0
    2.2832   -0.6361    0.1051 C   0  0  0  0  0  0  0  0  0  0  0  0
    1.7958    0.0848   -2.0497 O   0  0  0  0  0  0  0  0  0  0  0  0
   -0.0543    3.1201    1.9146 H   0  0  0  0  0  0  0  0  0  0  0  0
   -0.5149    0.7179   -1.5494 H   0  0  0  0  0  0  0  0  0  0  0  0
   -0.8301   -1.6043   -0.9080 H   0  0  0  0  0  0  0  0  0  0  0  0
   -0.4518   -1.2609    0.8066 H   0  0  0  0  0  0  0  0  0  0  0  0
   -2.9112   -1.2527   -0.0758 H   0  0  0  0  0  0  0  0  0  0  0  0
   -2.3523   -0.1191    1.1972 H   0  0  0  0  0  0  0  0  0  0  0  0
   -2.5545    0.4387   -0.5465 H   0  0  0  0  0  0  0  0  0  0  0  0
    2.4641    0.1661    0.8584 H   0  0  0  0  0  0  0  0  0  0  0  0
    1.7715   -1.5133    0.5575 H   0  0  0  0  0  0  0  0  0  0  0  0
    3.2314   -0.9826   -0.3272 H   0  0  0  0  0  0  0  0  0  0  0  0
  1  2  3  0
  2  3  1  0
  3  4  1  0
  4  5  1  0
  3  6  1  0
  6  7  1  0
  6  8  2  0
  1  9  1  0
  3 10  1  0
  4 11  1  0
  4 12  1  0
  5 13  1  0
  5 14  1  0
  5 15  1  0
  7 16  1  0
  7 17  1  0
  7 18  1  0
M  END
