
     RDKit          3D

 18 18  0  0  0  0  0  0  0  0999 V2000
    3.0908   -1.7088   -1.2891 C   0  0  0  0  0  0  0  0  0  0  0  0
    2.2645   -1.2704   -0.5264 C   0  0  0  0  0  0  0  0  0  0  0  0
    1.2520   -0.7380    0.4187 C   0  0  0  0  0  0  0  0  0  0  0  0
    0.2743    0.0419   -0.4158 C   0  0  0  0  0  0  0  0  0  0  0  0
   -0.8376    0.6632    0.3841 C   0  0  0  0  0  0  0  0  0  0  0  0
   -1.8185    1.4481   -0.4658 C   0  0  0  0  0  0  0  0  0  0  0  0
   -1.3776   -0.0623    1.5094 C   0  0  0  0  0  0  0  0  0  0  0  0
   -0.5996    1.1534    1.6418 O   0  0  0  0  0  0  0  0  0  0  0  0
    3.7967   -2.0854   -1.9648 H   0  0  0  0  0  0  0  0  0  0  0  0
    0.7683   -1.6403    0.8635 H   0  0  0  0  0  0  0  0  0  0  0  0
    1.7895   -0.1349    1.1562 H   0  0  0  0  0  0  0  0  0  0  0  0
    0.8396    0.8660   -0.8969 H   0  0  0  0  0  0  0  0  0  0  0  0
   -0.0914   -0.6369   -1.2073 H   0  0  0  0  0  0  0  0  0  0  0  0
   -1.2990    2.4052   -0.7288 H   0  0  0  0  0  0  0  0  0  0  0  0
   -2.7514    1.6573    0.0751 H   0  0  0  0  0  0  0  0  0  0  0  0
   -1.9832    0.8826   -1.4221 H   0  0  0  0  0  0  0  0  0  0  0  0
   -2.4505    0.0496    1.7612 H   0  0  0  0  0  0  0  0  0  0  0  0
   -0.8669   -0.8901    2.0188 H   0  0  0  0  0  0  0  0  0  0  0  0
  1  2  3  0
  2  3  1  0
  3  4  1  0
  4  5  1  0
  5  6  1  0
  5  7  1  0
  7  8  1  0
  8  5  1  0
  1  9  1  0
  3 10  1  0
  3 11  1  0
  4 12  1  0
  4 13  1  0
  6 14  1  0
  6 15  1  0
  6 16  1  0
  7 17  1  0
  7 18  1  0
M  END
