
     RDKit          3D

 16 15  0  0  0  0  0  0  0  0999 V2000
    1.7729   -2.2131   -0.9437 C   0  0  0  0  0  0  0  0  0  0  0  0
    1.1304   -1.4962   -0.2492 C   0  0  0  0  0  0  0  0  0  0  0  0
    0.4297   -0.7256    0.4868 C   0  0  0  0  0  0  0  0  0  0  0  0
    0.3763    0.6387   -0.8223 C   0  0  0  0  0  0  0  0  0  0  0  0
    0.0499    1.8924   -0.0544 C   0  0  0  0  0  0  0  0  0  0  0  0
   -0.9141   -0.7996    0.5683 O   0  0  0  0  0  0  0  0  0  0  0  0
   -2.0985   -0.8498    0.6290 C   0  0  0  0  0  0  0  0  0  0  0  0
   -2.4028    0.1594   -0.5425 O   0  0  0  0  0  0  0  0  0  0  0  0
    2.5532   -3.1130   -1.8228 H   0  0  0  0  0  0  0  0  0  0  0  0
    1.0297    0.1104    1.0008 H   0  0  0  0  0  0  0  0  0  0  0  0
    1.3314    0.4986   -1.1316 H   0  0  0  0  0  0  0  0  0  0  0  0
   -0.4225    0.2490   -1.3833 H   0  0  0  0  0  0  0  0  0  0  0  0
    0.3611    1.6748    0.9774 H   0  0  0  0  0  0  0  0  0  0  0  0
   -0.9114    2.3523   -0.1484 H   0  0  0  0  0  0  0  0  0  0  0  0
    0.8549    2.6325   -0.4902 H   0  0  0  0  0  0  0  0  0  0  0  0
   -3.1402   -1.0107    0.8215 H   0  0  0  0  0  0  0  0  0  0  0  0
  1  2  3  0
  2  3  1  0
  3  4  1  0
  4  5  1  0
  3  6  1  0
  6  7  1  0
  7  8  2  0
  1  9  1  0
  3 10  1  0
  4 11  1  0
  4 12  1  0
  5 13  1  0
  5 14  1  0
  5 15  1  0
  7 16  1  0
M  END
