
     RDKit          3D

 20 20  0  0  0  0  0  0  0  0999 V2000
   -1.3225    2.0669    1.1254 C   0  0  0  0  0  0  0  0  0  0  0  0
   -1.1080    1.2470    0.2684 C   0  0  0  0  0  0  0  0  0  0  0  0
   -0.8312    0.2617   -0.7922 C   0  0  0  0  0  0  0  0  0  0  0  0
   -1.9723   -0.6929   -0.8626 C   0  0  0  0  0  0  0  0  0  0  0  0
    0.4993   -0.3772   -0.4946 C   0  0  0  0  0  0  0  0  0  0  0  0
    0.6198   -1.0986    0.8007 C   0  0  0  0  0  0  0  0  0  0  0  0
    1.8972   -0.3441    1.1227 C   0  0  0  0  0  0  0  0  0  0  0  0
    1.5248    0.6200   -0.0049 C   0  0  0  0  0  0  0  0  0  0  0  0
   -1.5084    2.8139    1.8809 H   0  0  0  0  0  0  0  0  0  0  0  0
   -0.7618    0.7836   -1.7803 H   0  0  0  0  0  0  0  0  0  0  0  0
   -1.6019   -1.6211   -1.3744 H   0  0  0  0  0  0  0  0  0  0  0  0
   -2.4558   -0.9052    0.0911 H   0  0  0  0  0  0  0  0  0  0  0  0
   -2.7374   -0.2754   -1.5692 H   0  0  0  0  0  0  0  0  0  0  0  0
    0.9149   -0.9397   -1.3490 H   0  0  0  0  0  0  0  0  0  0  0  0
    0.8046   -2.1915    0.7443 H   0  0  0  0  0  0  0  0  0  0  0  0
   -0.1708   -0.9113    1.5512 H   0  0  0  0  0  0  0  0  0  0  0  0
    1.9453    0.1085    2.1198 H   0  0  0  0  0  0  0  0  0  0  0  0
    2.8116   -0.9082    0.8700 H   0  0  0  0  0  0  0  0  0  0  0  0
    2.3341    0.8256   -0.7214 H   0  0  0  0  0  0  0  0  0  0  0  0
    1.1184    1.5378    0.4364 H   0  0  0  0  0  0  0  0  0  0  0  0
  1  2  3  0
  2  3  1  0
  3  4  1  0
  3  5  1  0
  5  6  1  0
  6  7  1  0
  7  8  1  0
  8  5  1  0
  1  9  1  0
  3 10  1  0
  4 11  1  0
  4 12  1  0
  4 13  1  0
  5 14  1  0
  6 15  1  0
  6 16  1  0
  7 17  1  0
  7 18  1  0
  8 19  1  0
  8 20  1  0
M  END
