
     RDKit          3D

 17 17  0  0  0  0  0  0  0  0999 V2000
   -3.3844    1.7833   -0.2388 C   0  0  0  0  0  0  0  0  0  0  0  0
   -2.4194    1.0340   -0.2617 C   0  0  0  0  0  0  0  0  0  0  0  0
   -1.2804    0.1196   -0.2982 C   0  0  0  0  0  0  0  0  0  0  0  0
   -1.4795   -1.1080    0.3657 O   0  0  0  0  0  0  0  0  0  0  0  0
   -0.4745    0.0020   -1.5615 C   0  0  0  0  0  0  0  0  0  0  0  0
    0.1004    0.6782   -0.3765 C   0  0  0  0  0  0  0  0  0  0  0  0
    1.1525    0.0750    0.4018 C   0  0  0  0  0  0  0  0  0  0  0  0
    2.0272   -0.4076    1.0565 C   0  0  0  0  0  0  0  0  0  0  0  0
    3.0945   -1.0251    1.8581 C   0  0  0  0  0  0  0  0  0  0  0  0
   -4.2028    2.4276   -0.2308 H   0  0  0  0  0  0  0  0  0  0  0  0
   -2.4164   -1.3914    0.2152 H   0  0  0  0  0  0  0  0  0  0  0  0
   -0.0513   -0.9849   -1.8561 H   0  0  0  0  0  0  0  0  0  0  0  0
   -0.8732    0.5632   -2.4218 H   0  0  0  0  0  0  0  0  0  0  0  0
    0.1243    1.8069   -0.3689 H   0  0  0  0  0  0  0  0  0  0  0  0
    4.0611   -0.5391    1.6574 H   0  0  0  0  0  0  0  0  0  0  0  0
    3.1289   -2.1057    1.6322 H   0  0  0  0  0  0  0  0  0  0  0  0
    2.8929   -0.9281    2.9444 H   0  0  0  0  0  0  0  0  0  0  0  0
  1  2  3  0
  2  3  1  0
  3  4  1  0
  3  5  1  0
  5  6  1  0
  6  7  1  0
  7  8  3  0
  8  9  1  0
  6  3  1  0
  1 10  1  0
  4 11  1  0
  5 12  1  0
  5 13  1  0
  6 14  1  0
  9 15  1  0
  9 16  1  0
  9 17  1  0
M  END
