
     RDKit          3D

 19 19  0  0  0  0  0  0  0  0999 V2000
    1.1175    2.3712    0.9258 C   0  0  0  0  0  0  0  0  0  0  0  0
    0.6834    1.1154    0.9853 C   0  0  0  0  0  0  0  0  0  0  0  0
    0.2789   -0.0424    1.0467 C   0  0  0  0  0  0  0  0  0  0  0  0
   -0.7930   -0.6136    1.8211 C   0  0  0  0  0  0  0  0  0  0  0  0
   -1.7342   -1.2285    1.1261 C   0  0  0  0  0  0  0  0  0  0  0  0
   -1.4316   -1.1892   -0.3158 C   0  0  0  0  0  0  0  0  0  0  0  0
   -0.4501   -0.1520   -0.4989 C   0  0  0  0  0  0  0  0  0  0  0  0
    0.6255   -0.5472   -1.2439 O   0  0  0  0  0  0  0  0  0  0  0  0
    1.4606    0.3219   -1.8259 C   0  0  0  0  0  0  0  0  0  0  0  0
    1.5554    3.6650    0.8690 H   0  0  0  0  0  0  0  0  0  0  0  0
    1.0886   -0.8676    0.7824 H   0  0  0  0  0  0  0  0  0  0  0  0
   -0.8283   -0.5459    2.9213 H   0  0  0  0  0  0  0  0  0  0  0  0
   -2.6320   -1.6773    1.5597 H   0  0  0  0  0  0  0  0  0  0  0  0
   -2.4436   -0.9352   -0.8244 H   0  0  0  0  0  0  0  0  0  0  0  0
   -1.1565   -2.2055   -0.7177 H   0  0  0  0  0  0  0  0  0  0  0  0
   -0.7758    0.8649   -0.5664 H   0  0  0  0  0  0  0  0  0  0  0  0
    1.0489    1.0165   -2.5682 H   0  0  0  0  0  0  0  0  0  0  0  0
    2.0579    0.9121   -1.1011 H   0  0  0  0  0  0  0  0  0  0  0  0
    2.3283   -0.2628   -2.3752 H   0  0  0  0  0  0  0  0  0  0  0  0
  1  2  3  0
  2  3  1  0
  3  4  1  0
  4  5  2  0
  5  6  1  0
  6  7  1  0
  7  8  1  0
  8  9  1  0
  7  3  1  0
  1 10  1  0
  3 11  1  0
  4 12  1  0
  5 13  1  0
  6 14  1  0
  6 15  1  0
  7 16  1  0
  9 17  1  0
  9 18  1  0
  9 19  1  0
M  END
