
     RDKit          3D

 19 19  0  0  0  0  0  0  0  0999 V2000
    2.9439    1.5156   -0.0040 C   0  0  0  0  0  0  0  0  0  0  0  0
    2.0044    0.7606    0.4221 C   0  0  0  0  0  0  0  0  0  0  0  0
    0.8783   -0.1323    0.9312 C   0  0  0  0  0  0  0  0  0  0  0  0
   -0.0621   -0.5117    0.0308 C   0  0  0  0  0  0  0  0  0  0  0  0
   -0.8858    0.5399   -0.6398 C   0  0  0  0  0  0  0  0  0  0  0  0
   -1.3959    1.7341    0.1175 C   0  0  0  0  0  0  0  0  0  0  0  0
   -1.1977    0.5011   -1.8118 O   0  0  0  0  0  0  0  0  0  0  0  0
   -0.9374   -1.6851    0.5983 C   0  0  0  0  0  0  0  0  0  0  0  0
   -0.1268   -1.8675   -0.6261 C   0  0  0  0  0  0  0  0  0  0  0  0
    3.7536    2.1829   -0.3735 H   0  0  0  0  0  0  0  0  0  0  0  0
    0.6955    0.2769    1.9127 H   0  0  0  0  0  0  0  0  0  0  0  0
    1.5998   -1.0891    1.2158 H   0  0  0  0  0  0  0  0  0  0  0  0
   -2.5229    1.5827    0.0541 H   0  0  0  0  0  0  0  0  0  0  0  0
   -1.0506    1.7188    1.1633 H   0  0  0  0  0  0  0  0  0  0  0  0
   -1.1601    2.6469   -0.4258 H   0  0  0  0  0  0  0  0  0  0  0  0
   -2.0056   -1.4684    0.6064 H   0  0  0  0  0  0  0  0  0  0  0  0
   -0.5490   -2.2167    1.4983 H   0  0  0  0  0  0  0  0  0  0  0  0
    0.7410   -2.5441   -0.6067 H   0  0  0  0  0  0  0  0  0  0  0  0
   -0.7227   -1.9447   -1.5543 H   0  0  0  0  0  0  0  0  0  0  0  0
  1  2  3  0
  2  3  1  0
  3  4  1  0
  4  5  1  0
  5  6  1  0
  5  7  2  0
  4  8  1  0
  8  9  1  0
  9  4  1  0
  1 10  1  0
  3 11  1  0
  3 12  1  0
  6 13  1  0
  6 14  1  0
  6 15  1  0
  8 16  1  0
  8 17  1  0
  9 18  1  0
  9 19  1  0
M  END
