
     RDKit          3D

 21 21  0  0  0  0  0  0  0  0999 V2000
    0.8154    1.2631    2.9755 C   0  0  0  0  0  0  0  0  0  0  0  0
    0.1970    0.6164    2.2018 C   0  0  0  0  0  0  0  0  0  0  0  0
   -0.5823   -0.1690    1.2424 C   0  0  0  0  0  0  0  0  0  0  0  0
   -0.9757    0.7030    0.0673 C   0  0  0  0  0  0  0  0  0  0  0  0
    0.4189    0.4331   -0.4553 C   0  0  0  0  0  0  0  0  0  0  0  0
    0.5400    0.3641   -1.9464 C   0  0  0  0  0  0  0  0  0  0  0  0
    0.1187    1.6197   -2.4373 O   0  0  0  0  0  0  0  0  0  0  0  0
    0.3527   -0.8791    0.2855 C   0  0  0  0  0  0  0  0  0  0  0  0
   -0.3695   -1.9937   -0.4280 C   0  0  0  0  0  0  0  0  0  0  0  0
    1.3750    1.8516    3.7027 H   0  0  0  0  0  0  0  0  0  0  0  0
   -1.3743   -0.7927    1.6801 H   0  0  0  0  0  0  0  0  0  0  0  0
   -1.1755    1.7620    0.3242 H   0  0  0  0  0  0  0  0  0  0  0  0
   -1.7969    0.2075   -0.4922 H   0  0  0  0  0  0  0  0  0  0  0  0
    1.1413    1.0985    0.0540 H   0  0  0  0  0  0  0  0  0  0  0  0
   -0.1868   -0.3951   -2.3198 H   0  0  0  0  0  0  0  0  0  0  0  0
    1.5282    0.0838   -2.3033 H   0  0  0  0  0  0  0  0  0  0  0  0
    0.3163    2.3390   -1.7797 H   0  0  0  0  0  0  0  0  0  0  0  0
    1.3078   -1.1859    0.7689 H   0  0  0  0  0  0  0  0  0  0  0  0
   -1.4605   -1.8004   -0.4931 H   0  0  0  0  0  0  0  0  0  0  0  0
    0.1087   -2.1879   -1.4031 H   0  0  0  0  0  0  0  0  0  0  0  0
   -0.2986   -2.9379    0.1823 H   0  0  0  0  0  0  0  0  0  0  0  0
  1  2  3  0
  2  3  1  0
  3  4  1  0
  4  5  1  0
  5  6  1  0
  6  7  1  0
  5  8  1  0
  8  9  1  0
  8  3  1  0
  1 10  1  0
  3 11  1  0
  4 12  1  0
  4 13  1  0
  5 14  1  0
  6 15  1  0
  6 16  1  0
  7 17  1  0
  8 18  1  0
  9 19  1  0
  9 20  1  0
  9 21  1  0
M  END
