
     RDKit          3D

 14 15  0  0  0  0  0  0  0  0999 V2000
    2.7632   -0.1576    1.7006 C   0  0  0  0  0  0  0  0  0  0  0  0
    1.4458    0.1123    0.0392 C   0  0  0  0  0  0  0  0  0  0  0  0
    0.8506    0.2170   -0.7110 C   0  0  0  0  0  0  0  0  0  0  0  0
   -0.6312    0.9614   -0.5896 C   0  0  0  0  0  0  0  0  0  0  0  0
   -1.1081    0.1619   -1.4921 O   0  0  0  0  0  0  0  0  0  0  0  0
   -0.5201   -0.7241   -0.7306 C   0  0  0  0  0  0  0  0  0  0  0  0
   -0.8846    0.0038    0.4291 C   0  0  0  0  0  0  0  0  0  0  0  0
   -2.3466   -0.0389    0.4861 O   0  0  0  0  0  0  0  0  0  0  0  0
    3.3900   -0.2686    2.4799 H   0  0  0  0  0  0  0  0  0  0  0  0
    1.1619    0.3856   -2.0023 H   0  0  0  0  0  0  0  0  0  0  0  0
   -0.5475    2.0209   -0.4474 H   0  0  0  0  0  0  0  0  0  0  0  0
   -0.3824   -1.7466   -0.8728 H   0  0  0  0  0  0  0  0  0  0  0  0
   -0.4723   -0.0163    1.4079 H   0  0  0  0  0  0  0  0  0  0  0  0
   -2.7189   -0.9108    0.3030 H   0  0  0  0  0  0  0  0  0  0  0  0
  1  2  3  0
  2  3  1  0
  3  4  1  0
  4  5  1  0
  5  6  1  0
  6  7  1  0
  7  8  1  0
  6  3  1  0
  7  4  1  0
  1  9  1  0
  3 10  1  0
  4 11  1  0
  6 12  1  0
  7 13  1  0
  8 14  1  0
M  END
