
     RDKit          3D

 23 22  0  0  0  0  0  0  0  0999 V2000
   -3.1695    1.6730    0.2815 C   0  0  0  0  0  0  0  0  0  0  0  0
   -2.5516    0.6236    0.4113 C   0  0  0  0  0  0  0  0  0  0  0  0
   -1.8294   -0.6410    0.5583 C   0  0  0  0  0  0  0  0  0  0  0  0
   -0.5412   -0.5661   -0.2543 C   0  0  0  0  0  0  0  0  0  0  0  0
   -0.8308   -0.3347   -1.7076 C   0  0  0  0  0  0  0  0  0  0  0  0
    0.2972    0.5102    0.3634 C   0  0  0  0  0  0  0  0  0  0  0  0
    1.6090    0.7195   -0.3156 C   0  0  0  0  0  0  0  0  0  0  0  0
    2.4256   -0.4000   -0.3269 O   0  0  0  0  0  0  0  0  0  0  0  0
    2.7610   -0.8685    0.9268 C   0  0  0  0  0  0  0  0  0  0  0  0
   -3.6898    2.5886    0.1781 H   0  0  0  0  0  0  0  0  0  0  0  0
   -1.5913   -0.8327    1.6021 H   0  0  0  0  0  0  0  0  0  0  0  0
   -2.4637   -1.4253    0.0886 H   0  0  0  0  0  0  0  0  0  0  0  0
    0.0017   -1.5375   -0.1305 H   0  0  0  0  0  0  0  0  0  0  0  0
   -0.0068    0.1436   -2.2504 H   0  0  0  0  0  0  0  0  0  0  0  0
   -1.1984   -1.2608   -2.1848 H   0  0  0  0  0  0  0  0  0  0  0  0
   -1.6874    0.3997   -1.7462 H   0  0  0  0  0  0  0  0  0  0  0  0
   -0.2772    1.4798    0.3946 H   0  0  0  0  0  0  0  0  0  0  0  0
    0.4681    0.2605    1.4281 H   0  0  0  0  0  0  0  0  0  0  0  0
    2.1662    1.4958    0.2858 H   0  0  0  0  0  0  0  0  0  0  0  0
    1.5349    1.1145   -1.3336 H   0  0  0  0  0  0  0  0  0  0  0  0
    3.4208   -1.7610    0.7525 H   0  0  0  0  0  0  0  0  0  0  0  0
    3.3216   -0.1461    1.5412 H   0  0  0  0  0  0  0  0  0  0  0  0
    1.8312   -1.2352    1.4378 H   0  0  0  0  0  0  0  0  0  0  0  0
  1  2  3  0
  2  3  1  0
  3  4  1  0
  4  5  1  0
  4  6  1  0
  6  7  1  0
  7  8  1  0
  8  9  1  0
  1 10  1  0
  3 11  1  0
  3 12  1  0
  4 13  1  0
  5 14  1  0
  5 15  1  0
  5 16  1  0
  6 17  1  0
  6 18  1  0
  7 19  1  0
  7 20  1  0
  9 21  1  0
  9 22  1  0
  9 23  1  0
M  END
