
     RDKit          3D

  8  7  0  0  0  0  0  0  0  0999 V2000
    0.1686   -0.2090   -2.1368 C   0  0  0  0  0  0  0  0  0  0  0  0
    0.0956    0.1590   -0.9663 C   0  0  0  0  0  0  0  0  0  0  0  0
   -0.0084    0.6073    0.4274 C   0  0  0  0  0  0  0  0  0  0  0  0
    0.0247    1.8363    0.5692 O   0  0  0  0  0  0  0  0  0  0  0  0
   -0.1377   -0.3294    1.4863 C   0  0  0  0  0  0  0  0  0  0  0  0
   -0.1934   -1.5564    1.2437 O   0  0  0  0  0  0  0  0  0  0  0  0
    0.2425   -0.5053   -3.1217 H   0  0  0  0  0  0  0  0  0  0  0  0
   -0.1920   -0.0026    2.4981 H   0  0  0  0  0  0  0  0  0  0  0  0
  1  2  3  0
  2  3  1  0
  3  4  2  0
  3  5  1  0
  5  6  2  0
  1  7  1  0
  5  8  1  0
M  END
