
     RDKit          3D

 19 20  0  0  0  0  0  0  0  0999 V2000
   -0.3757    2.8153   -0.9912 C   0  0  0  0  0  0  0  0  0  0  0  0
   -0.2295    1.6250   -0.8310 C   0  0  0  0  0  0  0  0  0  0  0  0
   -0.0715    0.1863   -0.6200 C   0  0  0  0  0  0  0  0  0  0  0  0
    0.6331   -0.5338   -1.5756 O   0  0  0  0  0  0  0  0  0  0  0  0
    1.8670   -0.8575   -0.9856 C   0  0  0  0  0  0  0  0  0  0  0  0
    1.4083   -1.3236    0.3881 C   0  0  0  0  0  0  0  0  0  0  0  0
    0.3950   -0.2254    0.7159 C   0  0  0  0  0  0  0  0  0  0  0  0
   -1.0147   -0.5263    0.2812 C   0  0  0  0  0  0  0  0  0  0  0  0
   -2.1234    0.1974    0.9663 C   0  0  0  0  0  0  0  0  0  0  0  0
   -0.5012    3.8557   -1.1497 H   0  0  0  0  0  0  0  0  0  0  0  0
    2.4795    0.0498   -0.8169 H   0  0  0  0  0  0  0  0  0  0  0  0
    2.3683   -1.6399   -1.5512 H   0  0  0  0  0  0  0  0  0  0  0  0
    0.8897   -2.3049    0.2465 H   0  0  0  0  0  0  0  0  0  0  0  0
    2.2200   -1.3701    1.1104 H   0  0  0  0  0  0  0  0  0  0  0  0
    0.6076    0.4754    1.5214 H   0  0  0  0  0  0  0  0  0  0  0  0
   -1.2525   -1.5774   -0.0087 H   0  0  0  0  0  0  0  0  0  0  0  0
   -2.8152   -0.5270    1.4323 H   0  0  0  0  0  0  0  0  0  0  0  0
   -2.7116    0.7302    0.1647 H   0  0  0  0  0  0  0  0  0  0  0  0
   -1.7730    0.9508    1.7032 H   0  0  0  0  0  0  0  0  0  0  0  0
  1  2  3  0
  2  3  1  0
  3  4  1  0
  4  5  1  0
  5  6  1  0
  6  7  1  0
  7  8  1  0
  8  9  1  0
  7  3  1  0
  8  3  1  0
  1 10  1  0
  5 11  1  0
  5 12  1  0
  6 13  1  0
  6 14  1  0
  7 15  1  0
  8 16  1  0
  9 17  1  0
  9 18  1  0
  9 19  1  0
M  END
