
     RDKit          3D

 17 17  0  0  0  0  0  0  0  0999 V2000
    3.6213    1.4737    2.5390 C   0  0  0  0  0  0  0  0  0  0  0  0
    2.7829    0.6956    1.5799 C   0  0  0  0  0  0  0  0  0  0  0  0
    2.1199    0.0849    0.7967 C   0  0  0  0  0  0  0  0  0  0  0  0
    1.3932   -0.5540   -0.0475 C   0  0  0  0  0  0  0  0  0  0  0  0
    0.6626   -1.2279   -0.9163 C   0  0  0  0  0  0  0  0  0  0  0  0
   -0.7997   -1.4006   -0.5381 C   0  0  0  0  0  0  0  0  0  0  0  0
   -1.7036   -0.3401   -0.1667 C   0  0  0  0  0  0  0  0  0  0  0  0
   -2.2655    0.7233   -0.9098 C   0  0  0  0  0  0  0  0  0  0  0  0
   -3.0879   -0.4231   -0.6016 O   0  0  0  0  0  0  0  0  0  0  0  0
    4.2763    2.0759    3.2608 H   0  0  0  0  0  0  0  0  0  0  0  0
    1.0135   -1.5103   -1.8598 H   0  0  0  0  0  0  0  0  0  0  0  0
    0.9679   -2.4165   -0.3561 H   0  0  0  0  0  0  0  0  0  0  0  0
   -1.1742   -1.8126   -1.6111 H   0  0  0  0  0  0  0  0  0  0  0  0
   -0.9468   -2.2917    0.1234 H   0  0  0  0  0  0  0  0  0  0  0  0
   -1.7719   -0.1380    1.0014 H   0  0  0  0  0  0  0  0  0  0  0  0
   -2.7483    1.5926   -0.3246 H   0  0  0  0  0  0  0  0  0  0  0  0
   -2.3395    0.9133   -1.9696 H   0  0  0  0  0  0  0  0  0  0  0  0
  1  2  3  0
  2  3  1  0
  3  4  3  0
  4  5  1  0
  5  6  1  0
  6  7  1  0
  7  8  1  0
  8  9  1  0
  9  7  1  0
  1 10  1  0
  5 11  1  0
  5 12  1  0
  6 13  1  0
  6 14  1  0
  7 15  1  0
  8 16  1  0
  8 17  1  0
M  END
