
     RDKit          3D

 16 18  0  0  0  0  0  0  0  0999 V2000
    1.7458   -0.3162   -2.4728 C   0  0  0  0  0  0  0  0  0  0  0  0
    0.9092   -0.3207   -1.6427 C   0  0  0  0  0  0  0  0  0  0  0  0
   -0.1411   -0.3186   -0.5681 C   0  0  0  0  0  0  0  0  0  0  0  0
   -0.1842   -1.6929   -0.0138 C   0  0  0  0  0  0  0  0  0  0  0  0
    0.2590   -0.6571    0.8786 C   0  0  0  0  0  0  0  0  0  0  0  0
   -0.8557    0.3093    1.3050 C   0  0  0  0  0  0  0  0  0  0  0  0
   -1.0469    1.7040    0.8919 C   0  0  0  0  0  0  0  0  0  0  0  0
   -0.1345    0.9914    0.1192 C   0  0  0  0  0  0  0  0  0  0  0  0
    2.5279   -0.2941   -3.2587 H   0  0  0  0  0  0  0  0  0  0  0  0
    0.5077   -2.5071   -0.2353 H   0  0  0  0  0  0  0  0  0  0  0  0
   -1.2460   -2.0656    0.1041 H   0  0  0  0  0  0  0  0  0  0  0  0
    1.3018   -0.3879    1.0911 H   0  0  0  0  0  0  0  0  0  0  0  0
   -1.8207   -0.1799    1.2592 H   0  0  0  0  0  0  0  0  0  0  0  0
   -0.7809    2.4069    1.7144 H   0  0  0  0  0  0  0  0  0  0  0  0
   -1.9900    2.0936    0.4023 H   0  0  0  0  0  0  0  0  0  0  0  0
    0.9488    1.2348    0.4256 H   0  0  0  0  0  0  0  0  0  0  0  0
  1  2  3  0
  2  3  1  0
  3  4  1  0
  4  5  1  0
  5  6  1  0
  6  7  1  0
  7  8  1  0
  5  3  1  0
  8  6  1  0
  8  3  1  0
  1  9  1  0
  4 10  1  0
  4 11  1  0
  5 12  1  0
  6 13  1  0
  7 14  1  0
  7 15  1  0
  8 16  1  0
M  END
