
     RDKit          3D

 21 20  0  0  0  0  0  0  0  0999 V2000
    3.3031   -1.3860    1.0926 C   0  0  0  0  0  0  0  0  0  0  0  0
    2.3503   -0.6602    0.9344 C   0  0  0  0  0  0  0  0  0  0  0  0
    1.1932    0.2382    0.7188 C   0  0  0  0  0  0  0  0  0  0  0  0
    1.6609    1.4625    0.0435 C   0  0  0  0  0  0  0  0  0  0  0  0
    2.5821    2.0740    0.5586 O   0  0  0  0  0  0  0  0  0  0  0  0
    0.1839   -0.5343   -0.0710 C   0  0  0  0  0  0  0  0  0  0  0  0
   -1.0623    0.2153   -0.3876 C   0  0  0  0  0  0  0  0  0  0  0  0
   -1.9727   -0.6990   -1.1840 C   0  0  0  0  0  0  0  0  0  0  0  0
   -1.7771    0.6822    0.8636 C   0  0  0  0  0  0  0  0  0  0  0  0
    4.1344   -2.0321    1.2162 H   0  0  0  0  0  0  0  0  0  0  0  0
    0.8395    0.5069    1.7368 H   0  0  0  0  0  0  0  0  0  0  0  0
    1.2557    1.8608   -0.8669 H   0  0  0  0  0  0  0  0  0  0  0  0
    0.6630   -0.8332   -1.0260 H   0  0  0  0  0  0  0  0  0  0  0  0
   -0.0356   -1.4673    0.4842 H   0  0  0  0  0  0  0  0  0  0  0  0
   -0.8350    1.0835   -1.0349 H   0  0  0  0  0  0  0  0  0  0  0  0
   -1.6533   -1.7694   -1.0902 H   0  0  0  0  0  0  0  0  0  0  0  0
   -3.0224   -0.6696   -0.8276 H   0  0  0  0  0  0  0  0  0  0  0  0
   -1.9392   -0.4764   -2.2701 H   0  0  0  0  0  0  0  0  0  0  0  0
   -1.9231   -0.1385    1.5687 H   0  0  0  0  0  0  0  0  0  0  0  0
   -1.1642    1.4549    1.3717 H   0  0  0  0  0  0  0  0  0  0  0  0
   -2.7813    1.0878    0.5621 H   0  0  0  0  0  0  0  0  0  0  0  0
  1  2  3  0
  2  3  1  0
  3  4  1  0
  4  5  2  0
  3  6  1  0
  6  7  1  0
  7  8  1  0
  7  9  1  0
  1 10  1  0
  3 11  1  0
  4 12  1  0
  6 13  1  0
  6 14  1  0
  7 15  1  0
  8 16  1  0
  8 17  1  0
  8 18  1  0
  9 19  1  0
  9 20  1  0
  9 21  1  0
M  END
