
     RDKit          3D

 19 18  0  0  0  0  0  0  0  0999 V2000
    3.0367   -0.3109   -0.1755 C   0  0  0  0  0  0  0  0  0  0  0  0
    1.9212    0.0806    0.0651 C   0  0  0  0  0  0  0  0  0  0  0  0
    0.5582    0.5418    0.3736 C   0  0  0  0  0  0  0  0  0  0  0  0
    0.4311    1.9621    0.0059 C   0  0  0  0  0  0  0  0  0  0  0  0
    0.0470    2.7947    0.8000 O   0  0  0  0  0  0  0  0  0  0  0  0
   -0.4664   -0.3237   -0.3364 C   0  0  0  0  0  0  0  0  0  0  0  0
   -0.2847   -1.7423    0.1440 C   0  0  0  0  0  0  0  0  0  0  0  0
   -1.8298    0.1964    0.0467 C   0  0  0  0  0  0  0  0  0  0  0  0
   -0.2093   -0.2010   -1.6979 O   0  0  0  0  0  0  0  0  0  0  0  0
    4.0204   -0.6579   -0.3702 H   0  0  0  0  0  0  0  0  0  0  0  0
    0.3378    0.4362    1.4675 H   0  0  0  0  0  0  0  0  0  0  0  0
    0.6899    2.2861   -1.0162 H   0  0  0  0  0  0  0  0  0  0  0  0
    0.7678   -2.0488    0.2206 H   0  0  0  0  0  0  0  0  0  0  0  0
   -0.8021   -1.8848    1.1133 H   0  0  0  0  0  0  0  0  0  0  0  0
   -0.8100   -2.4335   -0.5743 H   0  0  0  0  0  0  0  0  0  0  0  0
   -1.8024    0.3396    1.1646 H   0  0  0  0  0  0  0  0  0  0  0  0
   -2.6472   -0.4949   -0.1967 H   0  0  0  0  0  0  0  0  0  0  0  0
   -1.9709    1.1939   -0.3917 H   0  0  0  0  0  0  0  0  0  0  0  0
   -0.9873    0.2662   -2.1349 H   0  0  0  0  0  0  0  0  0  0  0  0
  1  2  3  0
  2  3  1  0
  3  4  1  0
  4  5  2  0
  3  6  1  0
  6  7  1  0
  6  8  1  0
  6  9  1  0
  1 10  1  0
  3 11  1  0
  4 12  1  0
  7 13  1  0
  7 14  1  0
  7 15  1  0
  8 16  1  0
  8 17  1  0
  8 18  1  0
  9 19  1  0
M  END
