
     RDKit          3D

 17 17  0  0  0  0  0  0  0  0999 V2000
    3.1877   -1.5610    0.4663 C   0  0  0  0  0  0  0  0  0  0  0  0
    2.1330   -1.0096    0.5956 C   0  0  0  0  0  0  0  0  0  0  0  0
    0.8668   -0.3271    0.7681 C   0  0  0  0  0  0  0  0  0  0  0  0
   -0.1875   -0.7624   -0.2184 C   0  0  0  0  0  0  0  0  0  0  0  0
   -1.0456    0.4263   -0.3561 C   0  0  0  0  0  0  0  0  0  0  0  0
   -2.4530    0.3497   -0.8490 C   0  0  0  0  0  0  0  0  0  0  0  0
   -0.3614    1.4845    0.0183 C   0  0  0  0  0  0  0  0  0  0  0  0
    0.9795    1.1070    0.4304 C   0  0  0  0  0  0  0  0  0  0  0  0
    1.9682    1.8496    0.4750 O   0  0  0  0  0  0  0  0  0  0  0  0
    4.1404   -2.0529    0.3484 H   0  0  0  0  0  0  0  0  0  0  0  0
    0.4400   -0.4462    1.7824 H   0  0  0  0  0  0  0  0  0  0  0  0
    0.2700   -0.9325   -1.2232 H   0  0  0  0  0  0  0  0  0  0  0  0
   -0.7442   -1.6578    0.1287 H   0  0  0  0  0  0  0  0  0  0  0  0
   -2.8917   -0.6486   -0.6839 H   0  0  0  0  0  0  0  0  0  0  0  0
   -2.4938    0.5638   -1.9360 H   0  0  0  0  0  0  0  0  0  0  0  0
   -3.0687    1.1027   -0.2845 H   0  0  0  0  0  0  0  0  0  0  0  0
   -0.7395    2.5146    0.0226 H   0  0  0  0  0  0  0  0  0  0  0  0
  1  2  3  0
  2  3  1  0
  3  4  1  0
  4  5  1  0
  5  6  1  0
  5  7  2  0
  7  8  1  0
  8  9  2  0
  8  3  1  0
  1 10  1  0
  3 11  1  0
  4 12  1  0
  4 13  1  0
  6 14  1  0
  6 15  1  0
  6 16  1  0
  7 17  1  0
M  END
