
     RDKit          3D

 15 16  0  0  0  0  0  0  0  0999 V2000
    2.5114   -0.5281    0.4567 C   0  0  0  0  0  0  0  0  0  0  0  0
    1.5465   -0.1079   -0.1708 C   0  0  0  0  0  0  0  0  0  0  0  0
    0.3867    0.4127   -0.9539 C   0  0  0  0  0  0  0  0  0  0  0  0
    0.2900   -0.1437   -2.1235 O   0  0  0  0  0  0  0  0  0  0  0  0
   -0.6298   -0.6807   -1.3679 C   0  0  0  0  0  0  0  0  0  0  0  0
   -0.7498   -1.2672   -0.0672 C   0  0  0  0  0  0  0  0  0  0  0  0
   -0.7516   -0.2895    0.8296 C   0  0  0  0  0  0  0  0  0  0  0  0
   -0.6163    1.0005    0.0159 C   0  0  0  0  0  0  0  0  0  0  0  0
    0.0175    1.9685    0.7866 O   0  0  0  0  0  0  0  0  0  0  0  0
    3.3488   -0.8878    0.9794 H   0  0  0  0  0  0  0  0  0  0  0  0
   -1.6584   -0.3053   -1.7065 H   0  0  0  0  0  0  0  0  0  0  0  0
   -0.8289   -2.3109    0.2047 H   0  0  0  0  0  0  0  0  0  0  0  0
   -0.8273   -0.3105    1.9106 H   0  0  0  0  0  0  0  0  0  0  0  0
   -1.5588    1.3025   -0.4304 H   0  0  0  0  0  0  0  0  0  0  0  0
   -0.4800    2.1475    1.6368 H   0  0  0  0  0  0  0  0  0  0  0  0
  1  2  3  0
  2  3  1  0
  3  4  1  0
  4  5  1  0
  5  6  1  0
  6  7  2  0
  7  8  1  0
  8  9  1  0
  5  3  1  0
  8  3  1  0
  1 10  1  0
  5 11  1  0
  6 12  1  0
  7 13  1  0
  8 14  1  0
  9 15  1  0
M  END
