
     RDKit          3D

 21 21  0  0  0  0  0  0  0  0999 V2000
    2.4539    2.0951    0.2292 C   0  0  0  0  0  0  0  0  0  0  0  0
    1.8355    1.0765    0.1315 C   0  0  0  0  0  0  0  0  0  0  0  0
    1.0736   -0.1682    0.0325 C   0  0  0  0  0  0  0  0  0  0  0  0
    1.9361   -1.3805    0.0428 C   0  0  0  0  0  0  0  0  0  0  0  0
   -0.0226   -0.2978    1.0923 C   0  0  0  0  0  0  0  0  0  0  0  0
   -0.9734    0.0316   -0.0260 C   0  0  0  0  0  0  0  0  0  0  0  0
   -2.0021   -1.0382   -0.3172 C   0  0  0  0  0  0  0  0  0  0  0  0
   -1.5881    1.3828    0.1195 C   0  0  0  0  0  0  0  0  0  0  0  0
    0.0962   -0.0684   -0.9119 O   0  0  0  0  0  0  0  0  0  0  0  0
    2.9928    2.9900    0.3328 H   0  0  0  0  0  0  0  0  0  0  0  0
    2.3076   -1.7085   -0.9208 H   0  0  0  0  0  0  0  0  0  0  0  0
    1.4031   -2.2521    0.5201 H   0  0  0  0  0  0  0  0  0  0  0  0
    2.8023   -1.1555    0.7337 H   0  0  0  0  0  0  0  0  0  0  0  0
   -0.1675   -1.3031    1.4919 H   0  0  0  0  0  0  0  0  0  0  0  0
    0.1236    0.4828    1.8565 H   0  0  0  0  0  0  0  0  0  0  0  0
   -1.6281   -1.7720   -1.0527 H   0  0  0  0  0  0  0  0  0  0  0  0
   -2.9113   -0.5694   -0.7773 H   0  0  0  0  0  0  0  0  0  0  0  0
   -2.3504   -1.4916    0.6289 H   0  0  0  0  0  0  0  0  0  0  0  0
   -1.1232    2.0019    0.9289 H   0  0  0  0  0  0  0  0  0  0  0  0
   -2.6542    1.2467    0.4531 H   0  0  0  0  0  0  0  0  0  0  0  0
   -1.6037    1.8978   -0.8528 H   0  0  0  0  0  0  0  0  0  0  0  0
  1  2  3  0
  2  3  1  0
  3  4  1  0
  3  5  1  0
  5  6  1  0
  6  7  1  0
  6  8  1  0
  6  9  1  0
  9  3  1  0
  1 10  1  0
  4 11  1  0
  4 12  1  0
  4 13  1  0
  5 14  1  0
  5 15  1  0
  7 16  1  0
  7 17  1  0
  7 18  1  0
  8 19  1  0
  8 20  1  0
  8 21  1  0
M  END
