
     RDKit          3D

 15 16  0  0  0  0  0  0  0  0999 V2000
    3.0129   -0.2292    0.5846 C   0  0  0  0  0  0  0  0  0  0  0  0
    1.9416   -0.1506    0.0548 C   0  0  0  0  0  0  0  0  0  0  0  0
    0.6427   -0.0572   -0.5934 C   0  0  0  0  0  0  0  0  0  0  0  0
    0.3058    1.3513   -0.8628 C   0  0  0  0  0  0  0  0  0  0  0  0
    1.0608    2.3547   -1.0067 O   0  0  0  0  0  0  0  0  0  0  0  0
   -1.1004    1.3609   -0.9325 O   0  0  0  0  0  0  0  0  0  0  0  0
   -1.6331    0.4427   -0.0009 C   0  0  0  0  0  0  0  0  0  0  0  0
   -1.6847   -1.0045   -0.2797 C   0  0  0  0  0  0  0  0  0  0  0  0
   -0.4857   -0.4608    0.3628 C   0  0  0  0  0  0  0  0  0  0  0  0
    3.9496   -0.2915    1.0669 H   0  0  0  0  0  0  0  0  0  0  0  0
    0.5807   -0.6375   -1.5376 H   0  0  0  0  0  0  0  0  0  0  0  0
   -2.2624    0.8823    0.7817 H   0  0  0  0  0  0  0  0  0  0  0  0
   -1.6344   -1.4153   -1.3118 H   0  0  0  0  0  0  0  0  0  0  0  0
   -2.4375   -1.5747    0.3379 H   0  0  0  0  0  0  0  0  0  0  0  0
   -0.2560   -0.5705    1.4248 H   0  0  0  0  0  0  0  0  0  0  0  0
  1  2  3  0
  2  3  1  0
  3  4  1  0
  4  5  2  0
  4  6  1  0
  6  7  1  0
  7  8  1  0
  8  9  1  0
  9  3  1  0
  9  7  1  0
  1 10  1  0
  3 11  1  0
  7 12  1  0
  8 13  1  0
  8 14  1  0
  9 15  1  0
M  END
