
     RDKit          3D

 17 18  0  0  0  0  0  0  0  0999 V2000
   -1.9657    2.3846    1.0033 C   0  0  0  0  0  0  0  0  0  0  0  0
   -1.1079    1.6385    0.5928 C   0  0  0  0  0  0  0  0  0  0  0  0
   -0.0549    0.7560    0.0930 C   0  0  0  0  0  0  0  0  0  0  0  0
   -0.1801   -0.5486    0.0983 C   0  0  0  0  0  0  0  0  0  0  0  0
   -1.3632   -1.3185    0.5920 C   0  0  0  0  0  0  0  0  0  0  0  0
    1.0087   -1.2413   -0.4527 C   0  0  0  0  0  0  0  0  0  0  0  0
    1.8255   -0.1270   -0.9858 C   0  0  0  0  0  0  0  0  0  0  0  0
    2.4362    0.6572   -0.0152 O   0  0  0  0  0  0  0  0  0  0  0  0
    1.2559    1.1781   -0.4722 C   0  0  0  0  0  0  0  0  0  0  0  0
   -2.7304    3.0264    1.3604 H   0  0  0  0  0  0  0  0  0  0  0  0
   -1.6070   -2.0711   -0.1891 H   0  0  0  0  0  0  0  0  0  0  0  0
   -0.9832   -1.8943    1.4821 H   0  0  0  0  0  0  0  0  0  0  0  0
   -2.2163   -0.6796    0.8349 H   0  0  0  0  0  0  0  0  0  0  0  0
    0.7333   -2.0119   -1.1959 H   0  0  0  0  0  0  0  0  0  0  0  0
    1.5162   -1.7312    0.4286 H   0  0  0  0  0  0  0  0  0  0  0  0
    2.1597   -0.0829   -2.0300 H   0  0  0  0  0  0  0  0  0  0  0  0
    1.2730    2.0653   -1.1444 H   0  0  0  0  0  0  0  0  0  0  0  0
  1  2  3  0
  2  3  1  0
  3  4  2  0
  4  5  1  0
  4  6  1  0
  6  7  1  0
  7  8  1  0
  8  9  1  0
  9  3  1  0
  9  7  1  0
  1 10  1  0
  5 11  1  0
  5 12  1  0
  5 13  1  0
  6 14  1  0
  6 15  1  0
  7 16  1  0
  9 17  1  0
M  END
