
     RDKit          3D

 21 21  0  0  0  0  0  0  0  0999 V2000
    2.6458    2.0219    0.5554 C   0  0  0  0  0  0  0  0  0  0  0  0
    1.7574    0.8012    0.2438 C   0  0  0  0  0  0  0  0  0  0  0  0
    1.0281   -0.2299   -0.0067 C   0  0  0  0  0  0  0  0  0  0  0  0
    1.9282   -1.2811   -0.4636 C   0  0  0  0  0  0  0  0  0  0  0  0
    0.0454   -0.6200    1.0182 C   0  0  0  0  0  0  0  0  0  0  0  0
   -0.9731    0.4412    0.3359 C   0  0  0  0  0  0  0  0  0  0  0  0
   -2.3601   -0.0064    0.4001 C   0  0  0  0  0  0  0  0  0  0  0  0
   -3.3156    0.7436   -0.3050 O   0  0  0  0  0  0  0  0  0  0  0  0
   -0.1846    0.1796   -0.9070 C   0  0  0  0  0  0  0  0  0  0  0  0
    3.4030    3.0494    0.7961 H   0  0  0  0  0  0  0  0  0  0  0  0
    1.8356   -2.1823    0.0821 H   0  0  0  0  0  0  0  0  0  0  0  0
    2.9997   -0.8238   -0.3390 H   0  0  0  0  0  0  0  0  0  0  0  0
    1.9043   -1.3538   -1.6135 H   0  0  0  0  0  0  0  0  0  0  0  0
    0.0455   -0.5394    2.0535 H   0  0  0  0  0  0  0  0  0  0  0  0
   -0.4691   -1.5913    0.6579 H   0  0  0  0  0  0  0  0  0  0  0  0
   -0.6723    1.4350    0.8496 H   0  0  0  0  0  0  0  0  0  0  0  0
   -2.6341    0.2081    1.5495 H   0  0  0  0  0  0  0  0  0  0  0  0
   -2.5795   -1.0810    0.3353 H   0  0  0  0  0  0  0  0  0  0  0  0
   -3.9251    0.0140   -0.7825 H   0  0  0  0  0  0  0  0  0  0  0  0
    0.0919    1.2587   -1.3483 H   0  0  0  0  0  0  0  0  0  0  0  0
   -0.5716   -0.4437   -1.6917 H   0  0  0  0  0  0  0  0  0  0  0  0
  1  2  3  0
  2  3  1  0
  3  4  1  0
  3  5  1  0
  5  6  1  0
  6  7  1  0
  7  8  1  0
  6  9  1  0
  9  3  1  0
  1 10  1  0
  4 11  1  0
  4 12  1  0
  4 13  1  0
  5 14  1  0
  5 15  1  0
  6 16  1  0
  7 17  1  0
  7 18  1  0
  8 19  1  0
  9 20  1  0
  9 21  1  0
M  END
