
     RDKit          3D

 19 19  0  0  0  0  0  0  0  0999 V2000
    2.9913   -0.6927    0.2282 C   0  0  0  0  0  0  0  0  0  0  0  0
    1.9621   -0.2581   -0.2189 C   0  0  0  0  0  0  0  0  0  0  0  0
    0.7228    0.2828   -0.7430 C   0  0  0  0  0  0  0  0  0  0  0  0
    0.3378    1.5787   -0.1107 C   0  0  0  0  0  0  0  0  0  0  0  0
   -0.8387    0.9281    0.5934 C   0  0  0  0  0  0  0  0  0  0  0  0
   -0.6282    1.0154    1.9830 O   0  0  0  0  0  0  0  0  0  0  0  0
   -0.4659   -0.3608   -0.0349 C   0  0  0  0  0  0  0  0  0  0  0  0
   -1.3928   -0.9600   -1.0335 C   0  0  0  0  0  0  0  0  0  0  0  0
   -0.1031   -1.3000    0.9368 O   0  0  0  0  0  0  0  0  0  0  0  0
    3.9045   -1.0716    0.6252 H   0  0  0  0  0  0  0  0  0  0  0  0
    0.6371    0.3251   -1.8429 H   0  0  0  0  0  0  0  0  0  0  0  0
    1.0962    2.0290    0.5392 H   0  0  0  0  0  0  0  0  0  0  0  0
   -0.0587    2.3509   -0.8209 H   0  0  0  0  0  0  0  0  0  0  0  0
   -1.8269    1.3333    0.3414 H   0  0  0  0  0  0  0  0  0  0  0  0
   -0.6796    0.1481    2.4268 H   0  0  0  0  0  0  0  0  0  0  0  0
   -2.0652   -0.2493   -1.5299 H   0  0  0  0  0  0  0  0  0  0  0  0
   -1.9377   -1.8213   -0.5790 H   0  0  0  0  0  0  0  0  0  0  0  0
   -0.7449   -1.4165   -1.8405 H   0  0  0  0  0  0  0  0  0  0  0  0
   -0.9100   -1.8609    1.0802 H   0  0  0  0  0  0  0  0  0  0  0  0
  1  2  3  0
  2  3  1  0
  3  4  1  0
  4  5  1  0
  5  6  1  0
  5  7  1  0
  7  8  1  0
  7  9  1  0
  7  3  1  0
  1 10  1  0
  3 11  1  0
  4 12  1  0
  4 13  1  0
  5 14  1  0
  6 15  1  0
  8 16  1  0
  8 17  1  0
  8 18  1  0
  9 19  1  0
M  END
