
     RDKit          3D

 17 19  0  0  0  0  0  0  0  0999 V2000
    2.6357    0.0477    1.5255 C   0  0  0  0  0  0  0  0  0  0  0  0
    1.5991   -0.1317    0.9508 C   0  0  0  0  0  0  0  0  0  0  0  0
    0.3942   -0.3347    0.2634 C   0  0  0  0  0  0  0  0  0  0  0  0
   -0.1542   -1.6894    0.1016 C   0  0  0  0  0  0  0  0  0  0  0  0
   -1.2901   -1.4627   -0.5903 C   0  0  0  0  0  0  0  0  0  0  0  0
   -1.2946   -0.0090   -0.7637 C   0  0  0  0  0  0  0  0  0  0  0  0
   -0.7933    0.5244    0.5520 C   0  0  0  0  0  0  0  0  0  0  0  0
   -0.1235    1.5955   -0.2545 C   0  0  0  0  0  0  0  0  0  0  0  0
    0.1361    0.3323   -1.0420 C   0  0  0  0  0  0  0  0  0  0  0  0
    3.5543    0.1922    2.0469 H   0  0  0  0  0  0  0  0  0  0  0  0
    0.2705   -2.6173    0.4595 H   0  0  0  0  0  0  0  0  0  0  0  0
   -2.0355   -2.1623   -0.9446 H   0  0  0  0  0  0  0  0  0  0  0  0
   -2.0792    0.4890   -1.2728 H   0  0  0  0  0  0  0  0  0  0  0  0
   -1.3065    0.6177    1.4034 H   0  0  0  0  0  0  0  0  0  0  0  0
   -0.8889    2.2607   -0.7120 H   0  0  0  0  0  0  0  0  0  0  0  0
    0.7410    2.0922    0.1799 H   0  0  0  0  0  0  0  0  0  0  0  0
    0.6349    0.2551   -1.9030 H   0  0  0  0  0  0  0  0  0  0  0  0
  1  2  3  0
  2  3  1  0
  3  4  1  0
  4  5  2  0
  5  6  1  0
  6  7  1  0
  7  8  1  0
  8  9  1  0
  7  3  1  0
  9  3  1  0
  9  6  1  0
  1 10  1  0
  4 11  1  0
  5 12  1  0
  6 13  1  0
  7 14  1  0
  8 15  1  0
  8 16  1  0
  9 17  1  0
M  END
