
     RDKit          3D

 21 22  0  0  0  0  0  0  0  0999 V2000
   -0.1140    2.8646   -1.0536 C   0  0  0  0  0  0  0  0  0  0  0  0
   -0.0721    1.7420   -0.6487 C   0  0  0  0  0  0  0  0  0  0  0  0
   -0.0472    0.4867   -0.2045 C   0  0  0  0  0  0  0  0  0  0  0  0
    0.1051    0.0476    1.2191 C   0  0  0  0  0  0  0  0  0  0  0  0
    0.0555   -1.2280    0.4412 C   0  0  0  0  0  0  0  0  0  0  0  0
   -1.0435   -0.5737   -0.3749 C   0  0  0  0  0  0  0  0  0  0  0  0
   -2.3717   -0.4682    0.2625 C   0  0  0  0  0  0  0  0  0  0  0  0
    0.9771   -0.5534   -0.5482 C   0  0  0  0  0  0  0  0  0  0  0  0
    2.3718   -0.3272   -0.1174 C   0  0  0  0  0  0  0  0  0  0  0  0
   -0.1394    3.8885   -1.4084 H   0  0  0  0  0  0  0  0  0  0  0  0
    1.0597    0.3610    1.6312 H   0  0  0  0  0  0  0  0  0  0  0  0
   -0.7191    0.2532    1.9010 H   0  0  0  0  0  0  0  0  0  0  0  0
    0.0864   -2.1713    0.7585 H   0  0  0  0  0  0  0  0  0  0  0  0
   -1.0942   -1.0434   -1.3868 H   0  0  0  0  0  0  0  0  0  0  0  0
   -2.6032   -1.3831    0.8618 H   0  0  0  0  0  0  0  0  0  0  0  0
   -3.1465   -0.4191   -0.5383 H   0  0  0  0  0  0  0  0  0  0  0  0
   -2.5264    0.4192    0.8982 H   0  0  0  0  0  0  0  0  0  0  0  0
    0.8533   -0.9904   -1.5579 H   0  0  0  0  0  0  0  0  0  0  0  0
    2.6169   -0.7359    0.8996 H   0  0  0  0  0  0  0  0  0  0  0  0
    3.0488   -0.9037   -0.8134 H   0  0  0  0  0  0  0  0  0  0  0  0
    2.7027    0.7345   -0.2210 H   0  0  0  0  0  0  0  0  0  0  0  0
  1  2  3  0
  2  3  1  0
  3  4  1  0
  4  5  1  0
  5  6  1  0
  6  7  1  0
  5  8  1  0
  8  9  1  0
  6  3  1  0
  8  3  1  0
  1 10  1  0
  4 11  1  0
  4 12  1  0
  5 13  1  0
  6 14  1  0
  7 15  1  0
  7 16  1  0
  7 17  1  0
  8 18  1  0
  9 19  1  0
  9 20  1  0
  9 21  1  0
M  END
