
     RDKit          3D

 21 21  0  0  0  0  0  0  0  0999 V2000
   -1.3905    3.1865   -0.1365 C   0  0  0  0  0  0  0  0  0  0  0  0
   -0.8552    2.2798    0.4299 C   0  0  0  0  0  0  0  0  0  0  0  0
   -0.2069    1.1799    1.0981 C   0  0  0  0  0  0  0  0  0  0  0  0
    0.0267   -0.0194    0.2249 C   0  0  0  0  0  0  0  0  0  0  0  0
    0.8093    0.1075   -0.9103 O   0  0  0  0  0  0  0  0  0  0  0  0
    2.1020    0.5187   -0.6413 C   0  0  0  0  0  0  0  0  0  0  0  0
    0.2152   -1.3424    1.0104 C   0  0  0  0  0  0  0  0  0  0  0  0
   -0.9885   -1.1209    0.1517 C   0  0  0  0  0  0  0  0  0  0  0  0
   -1.0525   -1.9739   -1.0884 C   0  0  0  0  0  0  0  0  0  0  0  0
   -1.8664    3.9800   -0.6539 H   0  0  0  0  0  0  0  0  0  0  0  0
   -0.8764    0.8571    1.9374 H   0  0  0  0  0  0  0  0  0  0  0  0
    0.7585    1.4534    1.5677 H   0  0  0  0  0  0  0  0  0  0  0  0
    2.6446   -0.1836    0.0197 H   0  0  0  0  0  0  0  0  0  0  0  0
    2.6501    0.5116   -1.6112 H   0  0  0  0  0  0  0  0  0  0  0  0
    2.1698    1.5410   -0.2472 H   0  0  0  0  0  0  0  0  0  0  0  0
    0.0347   -1.3013    2.1051 H   0  0  0  0  0  0  0  0  0  0  0  0
    1.0553   -1.9711    0.6724 H   0  0  0  0  0  0  0  0  0  0  0  0
   -1.9693   -1.0170    0.6608 H   0  0  0  0  0  0  0  0  0  0  0  0
   -1.4388   -1.4283   -1.9705 H   0  0  0  0  0  0  0  0  0  0  0  0
   -0.0602   -2.4397   -1.2945 H   0  0  0  0  0  0  0  0  0  0  0  0
   -1.7614   -2.8178   -0.8842 H   0  0  0  0  0  0  0  0  0  0  0  0
  1  2  3  0
  2  3  1  0
  3  4  1  0
  4  5  1  0
  5  6  1  0
  4  7  1  0
  7  8  1  0
  8  9  1  0
  8  4  1  0
  1 10  1  0
  3 11  1  0
  3 12  1  0
  6 13  1  0
  6 14  1  0
  6 15  1  0
  7 16  1  0
  7 17  1  0
  8 18  1  0
  9 19  1  0
  9 20  1  0
  9 21  1  0
M  END
