
     RDKit          3D

 17 16  0  0  0  0  0  0  0  0999 V2000
    3.9710   -1.4712   -1.3370 C   0  0  0  0  0  0  0  0  0  0  0  0
    2.9346   -1.2639   -0.7544 C   0  0  0  0  0  0  0  0  0  0  0  0
    1.6974   -1.0169   -0.0868 C   0  0  0  0  0  0  0  0  0  0  0  0
    0.6467   -0.8027    0.4708 C   0  0  0  0  0  0  0  0  0  0  0  0
   -0.6421   -0.5199    1.1401 C   0  0  0  0  0  0  0  0  0  0  0  0
   -1.0015    0.8856    0.7935 C   0  0  0  0  0  0  0  0  0  0  0  0
   -2.2174    1.2088    1.3974 O   0  0  0  0  0  0  0  0  0  0  0  0
   -0.9859    1.1226   -0.6772 C   0  0  0  0  0  0  0  0  0  0  0  0
   -1.9238    0.4161   -1.3886 O   0  0  0  0  0  0  0  0  0  0  0  0
    4.8854   -1.6473   -1.8697 H   0  0  0  0  0  0  0  0  0  0  0  0
   -0.4583   -0.6052    2.2531 H   0  0  0  0  0  0  0  0  0  0  0  0
   -1.4182   -1.2092    0.8050 H   0  0  0  0  0  0  0  0  0  0  0  0
   -0.2598    1.5686    1.2734 H   0  0  0  0  0  0  0  0  0  0  0  0
   -2.1839    0.8010    2.3135 H   0  0  0  0  0  0  0  0  0  0  0  0
    0.0202    0.7736   -1.0458 H   0  0  0  0  0  0  0  0  0  0  0  0
   -0.9967    2.2181   -0.9078 H   0  0  0  0  0  0  0  0  0  0  0  0
   -2.0676   -0.4581   -0.9531 H   0  0  0  0  0  0  0  0  0  0  0  0
  1  2  3  0
  2  3  1  0
  3  4  3  0
  4  5  1  0
  5  6  1  0
  6  7  1  0
  6  8  1  0
  8  9  1  0
  1 10  1  0
  5 11  1  0
  5 12  1  0
  6 13  1  0
  7 14  1  0
  8 15  1  0
  8 16  1  0
  9 17  1  0
M  END
