
     RDKit          3D

 21 21  0  0  0  0  0  0  0  0999 V2000
    2.6347   -0.5455    2.2734 C   0  0  0  0  0  0  0  0  0  0  0  0
    2.0131   -0.2026    1.1574 C   0  0  0  0  0  0  0  0  0  0  0  0
    1.3060    0.2051   -0.1641 C   0  0  0  0  0  0  0  0  0  0  0  0
   -0.2023    0.3226    0.0096 C   0  0  0  0  0  0  0  0  0  0  0  0
   -1.0914   -0.5403    0.4975 O   0  0  0  0  0  0  0  0  0  0  0  0
   -1.2798   -1.0779    1.6709 C   0  0  0  0  0  0  0  0  0  0  0  0
   -0.4657   -0.2871   -1.6085 C   0  0  0  0  0  0  0  0  0  0  0  0
   -0.2040    1.1064   -1.9602 C   0  0  0  0  0  0  0  0  0  0  0  0
   -0.8350    1.5427   -0.6296 C   0  0  0  0  0  0  0  0  0  0  0  0
    3.1163   -0.7995    3.1035 H   0  0  0  0  0  0  0  0  0  0  0  0
    1.7426    0.0895   -1.0708 H   0  0  0  0  0  0  0  0  0  0  0  0
    1.0515   -1.2098   -0.3240 H   0  0  0  0  0  0  0  0  0  0  0  0
   -1.5864   -0.3640    2.4946 H   0  0  0  0  0  0  0  0  0  0  0  0
   -2.1639   -1.8002    1.6175 H   0  0  0  0  0  0  0  0  0  0  0  0
   -0.3897   -1.6584    2.0348 H   0  0  0  0  0  0  0  0  0  0  0  0
   -1.5293   -0.5991   -1.5673 H   0  0  0  0  0  0  0  0  0  0  0  0
    0.2508   -1.1006   -1.6594 H   0  0  0  0  0  0  0  0  0  0  0  0
    0.8388    1.4413   -2.0592 H   0  0  0  0  0  0  0  0  0  0  0  0
   -0.7810    1.4753   -2.8639 H   0  0  0  0  0  0  0  0  0  0  0  0
   -0.4957    2.5230   -0.2831 H   0  0  0  0  0  0  0  0  0  0  0  0
   -1.9296    1.4793   -0.6692 H   0  0  0  0  0  0  0  0  0  0  0  0
  1  2  3  0
  2  3  1  0
  3  4  1  0
  4  5  1  0
  5  6  1  0
  4  7  1  0
  7  8  1  0
  8  9  1  0
  9  4  1  0
  1 10  1  0
  3 11  1  0
  3 12  1  0
  6 13  1  0
  6 14  1  0
  6 15  1  0
  7 16  1  0
  7 17  1  0
  8 18  1  0
  8 19  1  0
  9 20  1  0
  9 21  1  0
M  END
