
     RDKit          3D

 21 21  0  0  0  0  0  0  0  0999 V2000
    2.9011    0.6113    1.1819 C   0  0  0  0  0  0  0  0  0  0  0  0
    1.9544    0.6299    0.4345 C   0  0  0  0  0  0  0  0  0  0  0  0
    0.8039    0.6344   -0.4968 C   0  0  0  0  0  0  0  0  0  0  0  0
    0.2093    1.8576   -0.5852 O   0  0  0  0  0  0  0  0  0  0  0  0
   -1.1301    1.7424   -0.3080 C   0  0  0  0  0  0  0  0  0  0  0  0
   -1.5081    0.2876   -0.5793 C   0  0  0  0  0  0  0  0  0  0  0  0
   -0.2052   -0.3994   -0.1617 C   0  0  0  0  0  0  0  0  0  0  0  0
   -0.2655   -0.7435    1.3075 C   0  0  0  0  0  0  0  0  0  0  0  0
    0.0263   -1.6518   -0.9451 C   0  0  0  0  0  0  0  0  0  0  0  0
    3.7332    0.6078    1.8545 H   0  0  0  0  0  0  0  0  0  0  0  0
    1.2309    0.3826   -1.5025 H   0  0  0  0  0  0  0  0  0  0  0  0
   -1.3163    1.9830    0.7767 H   0  0  0  0  0  0  0  0  0  0  0  0
   -1.7196    2.4085   -0.9658 H   0  0  0  0  0  0  0  0  0  0  0  0
   -1.7038    0.1377   -1.6459 H   0  0  0  0  0  0  0  0  0  0  0  0
   -2.3567   -0.0354    0.0648 H   0  0  0  0  0  0  0  0  0  0  0  0
   -1.3014   -1.1047    1.5108 H   0  0  0  0  0  0  0  0  0  0  0  0
    0.4175   -1.5939    1.5504 H   0  0  0  0  0  0  0  0  0  0  0  0
   -0.0459    0.1175    1.9655 H   0  0  0  0  0  0  0  0  0  0  0  0
    0.9985   -1.5753   -1.4660 H   0  0  0  0  0  0  0  0  0  0  0  0
   -0.8017   -1.7666   -1.7022 H   0  0  0  0  0  0  0  0  0  0  0  0
    0.0791   -2.5297   -0.2882 H   0  0  0  0  0  0  0  0  0  0  0  0
  1  2  3  0
  2  3  1  0
  3  4  1  0
  4  5  1  0
  5  6  1  0
  6  7  1  0
  7  8  1  0
  7  9  1  0
  7  3  1  0
  1 10  1  0
  3 11  1  0
  5 12  1  0
  5 13  1  0
  6 14  1  0
  6 15  1  0
  8 16  1  0
  8 17  1  0
  8 18  1  0
  9 19  1  0
  9 20  1  0
  9 21  1  0
M  END
