
     RDKit          3D

 19 20  0  0  0  0  0  0  0  0999 V2000
   -2.7666    1.6641    0.7027 C   0  0  0  0  0  0  0  0  0  0  0  0
   -1.6223    1.1698    0.5245 C   0  0  0  0  0  0  0  0  0  0  0  0
   -0.3857    0.6432    0.3466 C   0  0  0  0  0  0  0  0  0  0  0  0
    0.5597    1.4936   -0.3275 O   0  0  0  0  0  0  0  0  0  0  0  0
    1.6411    0.7285    0.0709 C   0  0  0  0  0  0  0  0  0  0  0  0
    2.3865    0.1675   -1.1179 C   0  0  0  0  0  0  0  0  0  0  0  0
    0.5939   -0.2537    0.7017 C   0  0  0  0  0  0  0  0  0  0  0  0
   -0.3601   -0.7829   -0.2244 C   0  0  0  0  0  0  0  0  0  0  0  0
   -1.5740   -1.5827    0.1651 C   0  0  0  0  0  0  0  0  0  0  0  0
   -3.8025    2.1096    0.8830 H   0  0  0  0  0  0  0  0  0  0  0  0
    2.3028    1.1446    0.8679 H   0  0  0  0  0  0  0  0  0  0  0  0
    3.1333    0.9679   -1.3881 H   0  0  0  0  0  0  0  0  0  0  0  0
    3.0150   -0.7246   -0.8311 H   0  0  0  0  0  0  0  0  0  0  0  0
    1.7504    0.0076   -2.0016 H   0  0  0  0  0  0  0  0  0  0  0  0
    0.8137   -0.5460    1.7148 H   0  0  0  0  0  0  0  0  0  0  0  0
   -0.0275   -0.8909   -1.3015 H   0  0  0  0  0  0  0  0  0  0  0  0
   -1.7436   -1.5128    1.2800 H   0  0  0  0  0  0  0  0  0  0  0  0
   -2.4630   -1.1498   -0.3276 H   0  0  0  0  0  0  0  0  0  0  0  0
   -1.4512   -2.6529   -0.0778 H   0  0  0  0  0  0  0  0  0  0  0  0
  1  2  3  0
  2  3  1  0
  3  4  1  0
  4  5  1  0
  5  6  1  0
  5  7  1  0
  7  8  1  0
  8  9  1  0
  7  3  1  0
  8  3  1  0
  1 10  1  0
  5 11  1  0
  6 12  1  0
  6 13  1  0
  6 14  1  0
  7 15  1  0
  8 16  1  0
  9 17  1  0
  9 18  1  0
  9 19  1  0
M  END
