
     RDKit          3D

 15 17  0  0  0  0  0  0  0  0999 V2000
    3.0422   -0.0817   -0.3525 C   0  0  0  0  0  0  0  0  0  0  0  0
    1.8612    0.0703   -0.1989 C   0  0  0  0  0  0  0  0  0  0  0  0
    0.4585    0.2554   -0.0218 C   0  0  0  0  0  0  0  0  0  0  0  0
   -0.0672    0.2295    1.4072 C   0  0  0  0  0  0  0  0  0  0  0  0
   -1.2502   -0.4575    1.4080 O   0  0  0  0  0  0  0  0  0  0  0  0
   -1.6996   -0.5508    0.0758 C   0  0  0  0  0  0  0  0  0  0  0  0
   -1.3462    0.5843   -0.8014 C   0  0  0  0  0  0  0  0  0  0  0  0
   -0.1659    1.2771   -0.7134 O   0  0  0  0  0  0  0  0  0  0  0  0
   -0.4760   -0.7066   -0.6850 C   0  0  0  0  0  0  0  0  0  0  0  0
    4.0951   -0.2275   -0.4893 H   0  0  0  0  0  0  0  0  0  0  0  0
    0.6942   -0.1911    2.1108 H   0  0  0  0  0  0  0  0  0  0  0  0
   -0.2839    1.2832    1.7048 H   0  0  0  0  0  0  0  0  0  0  0  0
   -2.6494   -1.0351   -0.0858 H   0  0  0  0  0  0  0  0  0  0  0  0
   -1.9036    0.7268   -1.7313 H   0  0  0  0  0  0  0  0  0  0  0  0
   -0.3092   -1.1764   -1.6270 H   0  0  0  0  0  0  0  0  0  0  0  0
  1  2  3  0
  2  3  1  0
  3  4  1  0
  4  5  1  0
  5  6  1  0
  6  7  1  0
  7  8  1  0
  7  9  1  0
  8  3  1  0
  9  3  1  0
  9  6  1  0
  1 10  1  0
  4 11  1  0
  4 12  1  0
  6 13  1  0
  7 14  1  0
  9 15  1  0
M  END
