
     RDKit          3D

 21 21  0  0  0  0  0  0  0  0999 V2000
   -2.3412    1.7572   -0.7896 C   0  0  0  0  0  0  0  0  0  0  0  0
   -1.4642    1.0019   -0.7707 C   0  0  0  0  0  0  0  0  0  0  0  0
   -0.3604    0.0731   -0.7283 C   0  0  0  0  0  0  0  0  0  0  0  0
    0.3052   -0.2717    0.5060 C   0  0  0  0  0  0  0  0  0  0  0  0
   -0.2022   -0.8586    1.7456 C   0  0  0  0  0  0  0  0  0  0  0  0
    1.0958   -1.0393    2.6246 C   0  0  0  0  0  0  0  0  0  0  0  0
    0.7578    0.6979   -1.6942 C   0  0  0  0  0  0  0  0  0  0  0  0
   -0.2755    0.1062   -2.6621 C   0  0  0  0  0  0  0  0  0  0  0  0
   -0.4588   -0.9154   -1.7607 O   0  0  0  0  0  0  0  0  0  0  0  0
   -3.2318    2.5154   -0.7893 H   0  0  0  0  0  0  0  0  0  0  0  0
    0.9619    0.6236    0.8019 H   0  0  0  0  0  0  0  0  0  0  0  0
    1.1533   -1.0249    0.1659 H   0  0  0  0  0  0  0  0  0  0  0  0
   -0.8807   -0.2101    2.3410 H   0  0  0  0  0  0  0  0  0  0  0  0
   -0.7142   -1.8333    1.6232 H   0  0  0  0  0  0  0  0  0  0  0  0
    1.0063   -0.3085    3.4363 H   0  0  0  0  0  0  0  0  0  0  0  0
    1.9510   -0.8061    1.9690 H   0  0  0  0  0  0  0  0  0  0  0  0
    1.1193   -2.0957    2.9608 H   0  0  0  0  0  0  0  0  0  0  0  0
    1.6982    0.1565   -1.6292 H   0  0  0  0  0  0  0  0  0  0  0  0
    0.7885    1.7782   -1.6194 H   0  0  0  0  0  0  0  0  0  0  0  0
   -1.0977    0.8056   -2.6965 H   0  0  0  0  0  0  0  0  0  0  0  0
    0.1897   -0.1520   -3.6516 H   0  0  0  0  0  0  0  0  0  0  0  0
  1  2  3  0
  2  3  1  0
  3  4  1  0
  4  5  1  0
  5  6  1  0
  3  7  1  0
  7  8  1  0
  8  9  1  0
  9  3  1  0
  1 10  1  0
  4 11  1  0
  4 12  1  0
  5 13  1  0
  5 14  1  0
  6 15  1  0
  6 16  1  0
  6 17  1  0
  7 18  1  0
  7 19  1  0
  8 20  1  0
  8 21  1  0
M  END
