
     RDKit          3D

 19 20  0  0  0  0  0  0  0  0999 V2000
    3.3030   -0.0542   -0.2202 C   0  0  0  0  0  0  0  0  0  0  0  0
    2.2273    0.4189   -0.5393 C   0  0  0  0  0  0  0  0  0  0  0  0
    0.9376    1.0051   -0.9196 C   0  0  0  0  0  0  0  0  0  0  0  0
   -0.1373    0.3521   -0.0452 C   0  0  0  0  0  0  0  0  0  0  0  0
    0.1074    0.5942    1.4287 C   0  0  0  0  0  0  0  0  0  0  0  0
   -0.6928   -0.9513   -0.4028 C   0  0  0  0  0  0  0  0  0  0  0  0
   -1.9078   -1.4170    0.3272 C   0  0  0  0  0  0  0  0  0  0  0  0
   -2.5678   -0.2538   -0.0545 O   0  0  0  0  0  0  0  0  0  0  0  0
   -1.4730    0.3307   -0.6238 C   0  0  0  0  0  0  0  0  0  0  0  0
    4.2370   -0.4555    0.0665 H   0  0  0  0  0  0  0  0  0  0  0  0
    0.7253    0.8949   -1.9888 H   0  0  0  0  0  0  0  0  0  0  0  0
    0.9747    2.0854   -0.6796 H   0  0  0  0  0  0  0  0  0  0  0  0
   -0.5157   -0.0856    2.0043 H   0  0  0  0  0  0  0  0  0  0  0  0
   -0.2519    1.6487    1.6214 H   0  0  0  0  0  0  0  0  0  0  0  0
    1.1725    0.6045    1.6838 H   0  0  0  0  0  0  0  0  0  0  0  0
   -0.3414   -1.5220   -1.2817 H   0  0  0  0  0  0  0  0  0  0  0  0
   -2.3339   -2.3507   -0.1196 H   0  0  0  0  0  0  0  0  0  0  0  0
   -1.8379   -1.5240    1.4203 H   0  0  0  0  0  0  0  0  0  0  0  0
   -1.6252    0.6796   -1.6773 H   0  0  0  0  0  0  0  0  0  0  0  0
  1  2  3  0
  2  3  1  0
  3  4  1  0
  4  5  1  0
  4  6  1  0
  6  7  1  0
  7  8  1  0
  8  9  1  0
  9  4  1  0
  9  6  1  0
  1 10  1  0
  3 11  1  0
  3 12  1  0
  5 13  1  0
  5 14  1  0
  5 15  1  0
  6 16  1  0
  7 17  1  0
  7 18  1  0
  9 19  1  0
M  END
