
     RDKit          3D

 19 20  0  0  0  0  0  0  0  0999 V2000
    2.1334    2.2232    0.3746 C   0  0  0  0  0  0  0  0  0  0  0  0
    1.3076    1.3606    0.5304 C   0  0  0  0  0  0  0  0  0  0  0  0
    0.3247    0.3123    0.7383 C   0  0  0  0  0  0  0  0  0  0  0  0
    0.7699   -0.9856    1.3091 C   0  0  0  0  0  0  0  0  0  0  0  0
    0.2185   -2.0195    0.6949 C   0  0  0  0  0  0  0  0  0  0  0  0
   -0.6813   -1.5381   -0.3832 C   0  0  0  0  0  0  0  0  0  0  0  0
   -0.5459   -0.0369   -0.3785 C   0  0  0  0  0  0  0  0  0  0  0  0
   -0.4962    0.6532   -1.7144 C   0  0  0  0  0  0  0  0  0  0  0  0
   -1.1137    0.6581    0.8098 C   0  0  0  0  0  0  0  0  0  0  0  0
    2.8518    2.9891    0.2231 H   0  0  0  0  0  0  0  0  0  0  0  0
    1.4825   -1.0988    2.1539 H   0  0  0  0  0  0  0  0  0  0  0  0
    0.4242   -3.0703    0.9739 H   0  0  0  0  0  0  0  0  0  0  0  0
   -1.7333   -1.7975   -0.1198 H   0  0  0  0  0  0  0  0  0  0  0  0
   -0.4183   -1.9523   -1.3702 H   0  0  0  0  0  0  0  0  0  0  0  0
   -1.5075    1.0043   -1.9744 H   0  0  0  0  0  0  0  0  0  0  0  0
   -0.0878   -0.0623   -2.4649 H   0  0  0  0  0  0  0  0  0  0  0  0
    0.2003    1.5134   -1.6423 H   0  0  0  0  0  0  0  0  0  0  0  0
   -1.3290    1.7534    0.7886 H   0  0  0  0  0  0  0  0  0  0  0  0
   -1.7999    0.0937    1.4510 H   0  0  0  0  0  0  0  0  0  0  0  0
  1  2  3  0
  2  3  1  0
  3  4  1  0
  4  5  2  0
  5  6  1  0
  6  7  1  0
  7  8  1  0
  7  9  1  0
  7  3  1  0
  9  3  1  0
  1 10  1  0
  4 11  1  0
  5 12  1  0
  6 13  1  0
  6 14  1  0
  8 15  1  0
  8 16  1  0
  8 17  1  0
  9 18  1  0
  9 19  1  0
M  END
