
     RDKit          3D

 19 21  0  0  0  0  0  0  0  0999 V2000
    3.3420   -0.9948   -0.1586 C   0  0  0  0  0  0  0  0  0  0  0  0
    2.1945   -0.7584   -0.5049 C   0  0  0  0  0  0  0  0  0  0  0  0
    0.8378   -0.4777   -0.9402 C   0  0  0  0  0  0  0  0  0  0  0  0
    0.2874    0.8322   -0.5020 C   0  0  0  0  0  0  0  0  0  0  0  0
   -1.0852    1.1701   -0.9945 C   0  0  0  0  0  0  0  0  0  0  0  0
   -2.1366    1.3149    0.0453 C   0  0  0  0  0  0  0  0  0  0  0  0
   -1.6122   -0.0294   -0.2094 C   0  0  0  0  0  0  0  0  0  0  0  0
   -0.2107   -0.4293    0.1035 C   0  0  0  0  0  0  0  0  0  0  0  0
    0.1835   -0.8576    1.4812 C   0  0  0  0  0  0  0  0  0  0  0  0
    4.3356   -1.1827    0.1475 H   0  0  0  0  0  0  0  0  0  0  0  0
    0.6181   -0.8658   -1.9630 H   0  0  0  0  0  0  0  0  0  0  0  0
    0.9008    1.5512    0.0452 H   0  0  0  0  0  0  0  0  0  0  0  0
   -1.3247    1.1223   -2.0653 H   0  0  0  0  0  0  0  0  0  0  0  0
   -1.7979    1.8928    0.9551 H   0  0  0  0  0  0  0  0  0  0  0  0
   -3.1712    1.5152   -0.2390 H   0  0  0  0  0  0  0  0  0  0  0  0
   -2.2576   -0.7628   -0.7386 H   0  0  0  0  0  0  0  0  0  0  0  0
    0.6873   -0.0690    2.0671 H   0  0  0  0  0  0  0  0  0  0  0  0
    0.8918   -1.7078    1.3947 H   0  0  0  0  0  0  0  0  0  0  0  0
   -0.6828   -1.2637    2.0760 H   0  0  0  0  0  0  0  0  0  0  0  0
  1  2  3  0
  2  3  1  0
  3  4  1  0
  4  5  1  0
  5  6  1  0
  6  7  1  0
  7  8  1  0
  8  9  1  0
  8  3  1  0
  8  4  1  0
  7  5  1  0
  1 10  1  0
  3 11  1  0
  4 12  1  0
  5 13  1  0
  6 14  1  0
  6 15  1  0
  7 16  1  0
  9 17  1  0
  9 18  1  0
  9 19  1  0
M  END
