
     RDKit          3D

 21 20  0  0  0  0  0  0  0  0999 V2000
    3.3250    1.0368   -1.0906 C   0  0  0  0  0  0  0  0  0  0  0  0
    2.6296    0.1014   -1.3357 C   0  0  0  0  0  0  0  0  0  0  0  0
    1.7904   -1.0636   -1.6389 C   0  0  0  0  0  0  0  0  0  0  0  0
    0.5193   -0.6749   -1.9482 O   0  0  0  0  0  0  0  0  0  0  0  0
   -0.1161    0.0230   -0.9360 C   0  0  0  0  0  0  0  0  0  0  0  0
   -0.2944   -0.7501    0.3190 C   0  0  0  0  0  0  0  0  0  0  0  0
   -0.9686   -0.0504    1.4415 C   0  0  0  0  0  0  0  0  0  0  0  0
   -2.3521    0.4294    1.1560 C   0  0  0  0  0  0  0  0  0  0  0  0
   -2.4673    1.3450    0.1363 O   0  0  0  0  0  0  0  0  0  0  0  0
    3.9540    1.8629   -0.8578 H   0  0  0  0  0  0  0  0  0  0  0  0
    1.7844   -1.8031   -0.8311 H   0  0  0  0  0  0  0  0  0  0  0  0
    2.2553   -1.5737   -2.5203 H   0  0  0  0  0  0  0  0  0  0  0  0
    0.3771    1.0087   -0.7722 H   0  0  0  0  0  0  0  0  0  0  0  0
   -1.1153    0.3126   -1.3880 H   0  0  0  0  0  0  0  0  0  0  0  0
    0.7135   -1.1141    0.6645 H   0  0  0  0  0  0  0  0  0  0  0  0
   -0.8742   -1.6739    0.0766 H   0  0  0  0  0  0  0  0  0  0  0  0
   -1.0476   -0.7610    2.3167 H   0  0  0  0  0  0  0  0  0  0  0  0
   -0.3328    0.7786    1.8138 H   0  0  0  0  0  0  0  0  0  0  0  0
   -2.9737   -0.4586    0.8252 H   0  0  0  0  0  0  0  0  0  0  0  0
   -2.8507    0.8462    2.0627 H   0  0  0  0  0  0  0  0  0  0  0  0
   -1.9557    2.1791    0.2998 H   0  0  0  0  0  0  0  0  0  0  0  0
  1  2  3  0
  2  3  1  0
  3  4  1  0
  4  5  1  0
  5  6  1  0
  6  7  1  0
  7  8  1  0
  8  9  1  0
  1 10  1  0
  3 11  1  0
  3 12  1  0
  5 13  1  0
  5 14  1  0
  6 15  1  0
  6 16  1  0
  7 17  1  0
  7 18  1  0
  8 19  1  0
  8 20  1  0
  9 21  1  0
M  END
