
     RDKit          3D

 17 16  0  0  0  0  0  0  0  0999 V2000
    2.8366   -1.3456   -1.1997 C   0  0  0  0  0  0  0  0  0  0  0  0
    2.0159   -0.4638   -1.2435 C   0  0  0  0  0  0  0  0  0  0  0  0
    0.9904    0.6020   -1.2897 C   0  0  0  0  0  0  0  0  0  0  0  0
   -0.2912    0.0802   -0.7159 C   0  0  0  0  0  0  0  0  0  0  0  0
   -1.2645    1.2000   -0.7973 C   0  0  0  0  0  0  0  0  0  0  0  0
   -2.0606    2.1187   -0.8441 C   0  0  0  0  0  0  0  0  0  0  0  0
   -0.0761   -0.3538    0.6714 C   0  0  0  0  0  0  0  0  0  0  0  0
   -1.1525   -0.9118    1.5153 C   0  0  0  0  0  0  0  0  0  0  0  0
    1.0423   -0.2602    1.1789 O   0  0  0  0  0  0  0  0  0  0  0  0
    3.5509   -2.1274   -1.1576 H   0  0  0  0  0  0  0  0  0  0  0  0
    0.8727    0.9262   -2.3598 H   0  0  0  0  0  0  0  0  0  0  0  0
    1.3758    1.4622   -0.7272 H   0  0  0  0  0  0  0  0  0  0  0  0
   -0.7196   -0.7332   -1.3369 H   0  0  0  0  0  0  0  0  0  0  0  0
   -2.7418    2.9207   -0.8787 H   0  0  0  0  0  0  0  0  0  0  0  0
   -1.7047   -0.0666    2.0057 H   0  0  0  0  0  0  0  0  0  0  0  0
   -0.7734   -1.5419    2.3290 H   0  0  0  0  0  0  0  0  0  0  0  0
   -1.9004   -1.5055    0.9534 H   0  0  0  0  0  0  0  0  0  0  0  0
  1  2  3  0
  2  3  1  0
  3  4  1  0
  4  5  1  0
  5  6  3  0
  4  7  1  0
  7  8  1  0
  7  9  2  0
  1 10  1  0
  3 11  1  0
  3 12  1  0
  4 13  1  0
  6 14  1  0
  8 15  1  0
  8 16  1  0
  8 17  1  0
M  END
