
     RDKit          3D

 19 18  0  0  0  0  0  0  0  0999 V2000
   -0.1113    2.5189    1.0997 C   0  0  0  0  0  0  0  0  0  0  0  0
   -0.0822    1.3268    0.9211 C   0  0  0  0  0  0  0  0  0  0  0  0
   -0.0492   -0.1204    0.7032 C   0  0  0  0  0  0  0  0  0  0  0  0
    1.0795   -0.4905   -0.2169 C   0  0  0  0  0  0  0  0  0  0  0  0
    0.9877    0.0985   -1.4580 O   0  0  0  0  0  0  0  0  0  0  0  0
    2.0625   -0.2971   -2.2324 C   0  0  0  0  0  0  0  0  0  0  0  0
   -1.3625   -0.5820    0.2156 C   0  0  0  0  0  0  0  0  0  0  0  0
   -2.5964   -0.3927    1.0218 C   0  0  0  0  0  0  0  0  0  0  0  0
   -1.4237   -1.1273   -0.8699 O   0  0  0  0  0  0  0  0  0  0  0  0
   -0.1358    3.5820    1.2779 H   0  0  0  0  0  0  0  0  0  0  0  0
    0.1924   -0.5915    1.7009 H   0  0  0  0  0  0  0  0  0  0  0  0
    1.1779   -1.5767   -0.3447 H   0  0  0  0  0  0  0  0  0  0  0  0
    2.0171   -0.0770    0.2604 H   0  0  0  0  0  0  0  0  0  0  0  0
    3.0424   -0.0285   -1.8233 H   0  0  0  0  0  0  0  0  0  0  0  0
    2.0730   -1.4193   -2.3393 H   0  0  0  0  0  0  0  0  0  0  0  0
    1.9360    0.1657   -3.2480 H   0  0  0  0  0  0  0  0  0  0  0  0
   -2.4441    0.3522    1.8310 H   0  0  0  0  0  0  0  0  0  0  0  0
   -2.9352   -1.3797    1.4494 H   0  0  0  0  0  0  0  0  0  0  0  0
   -3.4280    0.0386    0.3915 H   0  0  0  0  0  0  0  0  0  0  0  0
  1  2  3  0
  2  3  1  0
  3  4  1  0
  4  5  1  0
  5  6  1  0
  3  7  1  0
  7  8  1  0
  7  9  2  0
  1 10  1  0
  3 11  1  0
  4 12  1  0
  4 13  1  0
  6 14  1  0
  6 15  1  0
  6 16  1  0
  8 17  1  0
  8 18  1  0
  8 19  1  0
M  END
