
     RDKit          3D

 17 17  0  0  0  0  0  0  0  0999 V2000
    3.0832   -0.6010    0.4370 C   0  0  0  0  0  0  0  0  0  0  0  0
    1.9272   -0.4757    0.1165 C   0  0  0  0  0  0  0  0  0  0  0  0
    0.5415   -0.3508   -0.2699 C   0  0  0  0  0  0  0  0  0  0  0  0
   -0.3501   -0.5068    0.9422 C   0  0  0  0  0  0  0  0  0  0  0  0
   -1.7629   -0.6812    0.4175 C   0  0  0  0  0  0  0  0  0  0  0  0
   -2.1425    0.5372   -0.1407 O   0  0  0  0  0  0  0  0  0  0  0  0
   -1.1923    1.3740   -0.6920 C   0  0  0  0  0  0  0  0  0  0  0  0
   -1.4805    2.5683   -1.0251 O   0  0  0  0  0  0  0  0  0  0  0  0
    0.2205    0.9593   -0.9385 C   0  0  0  0  0  0  0  0  0  0  0  0
    4.1197   -0.6955    0.7176 H   0  0  0  0  0  0  0  0  0  0  0  0
    0.2732   -1.1865   -0.9635 H   0  0  0  0  0  0  0  0  0  0  0  0
   -0.2867    0.3642    1.6285 H   0  0  0  0  0  0  0  0  0  0  0  0
   -0.0783   -1.4206    1.4893 H   0  0  0  0  0  0  0  0  0  0  0  0
   -1.7142   -1.4436   -0.3992 H   0  0  0  0  0  0  0  0  0  0  0  0
   -2.4483   -1.0482    1.2066 H   0  0  0  0  0  0  0  0  0  0  0  0
    0.8976    1.7484   -0.4945 H   0  0  0  0  0  0  0  0  0  0  0  0
    0.3928    0.8585   -2.0319 H   0  0  0  0  0  0  0  0  0  0  0  0
  1  2  3  0
  2  3  1  0
  3  4  1  0
  4  5  1  0
  5  6  1  0
  6  7  1  0
  7  8  2  0
  7  9  1  0
  9  3  1  0
  1 10  1  0
  3 11  1  0
  4 12  1  0
  4 13  1  0
  5 14  1  0
  5 15  1  0
  9 16  1  0
  9 17  1  0
M  END
