
     RDKit          3D

 17 18  0  0  0  0  0  0  0  0999 V2000
    2.4592    1.5266    1.4931 C   0  0  0  0  0  0  0  0  0  0  0  0
    1.4209    0.8380    1.0572 C   0  0  0  0  0  0  0  0  0  0  0  0
    0.3087    0.0772    0.5826 C   0  0  0  0  0  0  0  0  0  0  0  0
    0.6495   -0.7736   -0.6573 C   0  0  0  0  0  0  0  0  0  0  0  0
   -0.7361   -1.3404   -0.8134 C   0  0  0  0  0  0  0  0  0  0  0  0
   -1.3763   -0.7004    0.3964 C   0  0  0  0  0  0  0  0  0  0  0  0
   -0.3838   -0.7647    1.3855 O   0  0  0  0  0  0  0  0  0  0  0  0
   -0.9374    0.7541    0.1888 C   0  0  0  0  0  0  0  0  0  0  0  0
   -0.9304    1.0226   -1.1842 O   0  0  0  0  0  0  0  0  0  0  0  0
    3.2366    2.0217    1.8150 H   0  0  0  0  0  0  0  0  0  0  0  0
    0.9474   -0.0426   -1.4242 H   0  0  0  0  0  0  0  0  0  0  0  0
    1.4156   -1.5498   -0.4518 H   0  0  0  0  0  0  0  0  0  0  0  0
   -1.2604   -1.0041   -1.7437 H   0  0  0  0  0  0  0  0  0  0  0  0
   -0.7482   -2.4527   -0.7364 H   0  0  0  0  0  0  0  0  0  0  0  0
   -2.3870   -0.8783    0.6508 H   0  0  0  0  0  0  0  0  0  0  0  0
   -1.3783    1.4894    0.8439 H   0  0  0  0  0  0  0  0  0  0  0  0
   -0.3002    1.7771   -1.4021 H   0  0  0  0  0  0  0  0  0  0  0  0
  1  2  3  0
  2  3  1  0
  3  4  1  0
  4  5  1  0
  5  6  1  0
  6  7  1  0
  6  8  1  0
  8  9  1  0
  7  3  1  0
  8  3  1  0
  1 10  1  0
  4 11  1  0
  4 12  1  0
  5 13  1  0
  5 14  1  0
  6 15  1  0
  8 16  1  0
  9 17  1  0
M  END
