
     RDKit          3D

 21 20  0  0  0  0  0  0  0  0999 V2000
   -2.1649   -0.6660   -3.6560 C   0  0  0  0  0  0  0  0  0  0  0  0
   -2.0943   -0.7870   -2.4999 C   0  0  0  0  0  0  0  0  0  0  0  0
   -2.0100   -0.9655   -1.0378 C   0  0  0  0  0  0  0  0  0  0  0  0
   -0.8317   -0.1521   -0.5188 C   0  0  0  0  0  0  0  0  0  0  0  0
   -0.6798   -0.2804    0.9733 C   0  0  0  0  0  0  0  0  0  0  0  0
    0.4892    0.5396    1.4867 C   0  0  0  0  0  0  0  0  0  0  0  0
    1.7890    0.1278    0.8765 C   0  0  0  0  0  0  0  0  0  0  0  0
    2.8721    0.9853    1.4083 C   0  0  0  0  0  0  0  0  0  0  0  0
    3.7555    1.6870    1.8654 C   0  0  0  0  0  0  0  0  0  0  0  0
   -2.2441   -0.5619   -4.7696 H   0  0  0  0  0  0  0  0  0  0  0  0
   -2.9750   -0.5927   -0.5891 H   0  0  0  0  0  0  0  0  0  0  0  0
   -1.8905   -2.0449   -0.8534 H   0  0  0  0  0  0  0  0  0  0  0  0
   -0.9167    0.8866   -0.8468 H   0  0  0  0  0  0  0  0  0  0  0  0
    0.0685   -0.5881   -0.9871 H   0  0  0  0  0  0  0  0  0  0  0  0
   -0.6959   -1.3135    1.3245 H   0  0  0  0  0  0  0  0  0  0  0  0
   -1.5998    0.2201    1.3998 H   0  0  0  0  0  0  0  0  0  0  0  0
    0.2457    1.5966    1.3118 H   0  0  0  0  0  0  0  0  0  0  0  0
    0.5355    0.3309    2.5850 H   0  0  0  0  0  0  0  0  0  0  0  0
    1.8092    0.1867   -0.2158 H   0  0  0  0  0  0  0  0  0  0  0  0
    2.0321   -0.9145    1.1751 H   0  0  0  0  0  0  0  0  0  0  0  0
    4.5059    2.3061    2.2592 H   0  0  0  0  0  0  0  0  0  0  0  0
  1  2  3  0
  2  3  1  0
  3  4  1  0
  4  5  1  0
  5  6  1  0
  6  7  1  0
  7  8  1  0
  8  9  3  0
  1 10  1  0
  3 11  1  0
  3 12  1  0
  4 13  1  0
  4 14  1  0
  5 15  1  0
  5 16  1  0
  6 17  1  0
  6 18  1  0
  7 19  1  0
  7 20  1  0
  9 21  1  0
M  END
