
     RDKit          3D

 21 22  0  0  0  0  0  0  0  0999 V2000
   -2.6503    1.7648    0.5867 C   0  0  0  0  0  0  0  0  0  0  0  0
   -1.7403    1.0643    0.9231 C   0  0  0  0  0  0  0  0  0  0  0  0
   -0.6247    0.2176    1.3088 C   0  0  0  0  0  0  0  0  0  0  0  0
   -0.4830   -1.0917    0.5740 C   0  0  0  0  0  0  0  0  0  0  0  0
   -1.5236   -1.4028   -0.5002 C   0  0  0  0  0  0  0  0  0  0  0  0
    0.4766   -0.0321    0.3925 C   0  0  0  0  0  0  0  0  0  0  0  0
    0.7770    0.6873   -0.8485 C   0  0  0  0  0  0  0  0  0  0  0  0
    2.2433    0.3126   -0.6671 C   0  0  0  0  0  0  0  0  0  0  0  0
    1.9040   -0.0531    0.7816 C   0  0  0  0  0  0  0  0  0  0  0  0
   -3.4702    2.3815    0.2707 H   0  0  0  0  0  0  0  0  0  0  0  0
   -0.3507    0.2516    2.4053 H   0  0  0  0  0  0  0  0  0  0  0  0
   -0.2186   -1.9839    1.2047 H   0  0  0  0  0  0  0  0  0  0  0  0
   -1.3947   -2.4498   -0.8306 H   0  0  0  0  0  0  0  0  0  0  0  0
   -2.5565   -1.1975   -0.1148 H   0  0  0  0  0  0  0  0  0  0  0  0
   -1.3417   -0.7731   -1.4105 H   0  0  0  0  0  0  0  0  0  0  0  0
    0.4059    0.2313   -1.7900 H   0  0  0  0  0  0  0  0  0  0  0  0
    0.6655    1.7732   -0.7881 H   0  0  0  0  0  0  0  0  0  0  0  0
    2.5342   -0.6223   -1.1901 H   0  0  0  0  0  0  0  0  0  0  0  0
    2.9411    1.1433   -0.7754 H   0  0  0  0  0  0  0  0  0  0  0  0
    2.1243    0.7963    1.4926 H   0  0  0  0  0  0  0  0  0  0  0  0
    2.2825   -1.0174    1.1180 H   0  0  0  0  0  0  0  0  0  0  0  0
  1  2  3  0
  2  3  1  0
  3  4  1  0
  4  5  1  0
  4  6  1  0
  6  7  1  0
  7  8  1  0
  8  9  1  0
  6  3  1  0
  9  6  1  0
  1 10  1  0
  3 11  1  0
  4 12  1  0
  5 13  1  0
  5 14  1  0
  5 15  1  0
  7 16  1  0
  7 17  1  0
  8 18  1  0
  8 19  1  0
  9 20  1  0
  9 21  1  0
M  END
