
     RDKit          3D

 19 19  0  0  0  0  0  0  0  0999 V2000
    2.2961   -0.2696    2.6645 C   0  0  0  0  0  0  0  0  0  0  0  0
    1.7884   -0.0297    1.5823 C   0  0  0  0  0  0  0  0  0  0  0  0
    1.1572    0.2663    0.2938 C   0  0  0  0  0  0  0  0  0  0  0  0
    0.0294    1.1628    0.5230 C   0  0  0  0  0  0  0  0  0  0  0  0
   -1.1591    1.3184   -0.0429 C   0  0  0  0  0  0  0  0  0  0  0  0
   -1.6903    0.5349   -1.1686 C   0  0  0  0  0  0  0  0  0  0  0  0
   -1.2536   -0.9103   -1.1515 C   0  0  0  0  0  0  0  0  0  0  0  0
    0.0920   -0.9072   -1.5251 O   0  0  0  0  0  0  0  0  0  0  0  0
    0.8435   -1.0231   -0.3821 C   0  0  0  0  0  0  0  0  0  0  0  0
    2.7254   -0.4704    3.6182 H   0  0  0  0  0  0  0  0  0  0  0  0
    1.9217    0.8340   -0.3069 H   0  0  0  0  0  0  0  0  0  0  0  0
    0.1967    1.8614    1.3398 H   0  0  0  0  0  0  0  0  0  0  0  0
   -1.8195    2.0818    0.3352 H   0  0  0  0  0  0  0  0  0  0  0  0
   -2.7903    0.6256   -1.2069 H   0  0  0  0  0  0  0  0  0  0  0  0
   -1.2675    0.9925   -2.1083 H   0  0  0  0  0  0  0  0  0  0  0  0
   -1.8293   -1.4259   -1.9541 H   0  0  0  0  0  0  0  0  0  0  0  0
   -1.4416   -1.3996   -0.1957 H   0  0  0  0  0  0  0  0  0  0  0  0
    1.8154   -1.4948   -0.6682 H   0  0  0  0  0  0  0  0  0  0  0  0
    0.3854   -1.7472    0.3534 H   0  0  0  0  0  0  0  0  0  0  0  0
  1  2  3  0
  2  3  1  0
  3  4  1  0
  4  5  2  0
  5  6  1  0
  6  7  1  0
  7  8  1  0
  8  9  1  0
  9  3  1  0
  1 10  1  0
  3 11  1  0
  4 12  1  0
  5 13  1  0
  6 14  1  0
  6 15  1  0
  7 16  1  0
  7 17  1  0
  9 18  1  0
  9 19  1  0
M  END
