
     RDKit          3D

 16 17  0  0  0  0  0  0  0  0999 V2000
    0.8810   -0.0215   -2.8133 C   0  0  0  0  0  0  0  0  0  0  0  0
    0.5637    0.3335   -1.6945 C   0  0  0  0  0  0  0  0  0  0  0  0
    0.2653    0.6777   -0.6071 C   0  0  0  0  0  0  0  0  0  0  0  0
    1.3246    0.1958    0.5318 C   0  0  0  0  0  0  0  0  0  0  0  0
    0.5632    0.6346    1.6218 O   0  0  0  0  0  0  0  0  0  0  0  0
   -0.7165    0.3469    1.2985 C   0  0  0  0  0  0  0  0  0  0  0  0
   -1.3204   -0.8883    1.1736 C   0  0  0  0  0  0  0  0  0  0  0  0
   -0.9479   -0.1368    0.0102 C   0  0  0  0  0  0  0  0  0  0  0  0
    1.2188   -0.3966   -4.0585 H   0  0  0  0  0  0  0  0  0  0  0  0
    0.1354    1.7216   -0.1871 H   0  0  0  0  0  0  0  0  0  0  0  0
    1.4931   -0.8649    0.4448 H   0  0  0  0  0  0  0  0  0  0  0  0
    2.1872    0.8987    0.3884 H   0  0  0  0  0  0  0  0  0  0  0  0
   -1.3706    1.2178    1.6367 H   0  0  0  0  0  0  0  0  0  0  0  0
   -2.4445   -0.9911    1.3027 H   0  0  0  0  0  0  0  0  0  0  0  0
   -0.8289   -1.7679    1.6521 H   0  0  0  0  0  0  0  0  0  0  0  0
   -1.0037   -0.9596   -0.7002 H   0  0  0  0  0  0  0  0  0  0  0  0
  1  2  3  0
  2  3  1  0
  3  4  1  0
  4  5  1  0
  5  6  1  0
  6  7  1  0
  7  8  1  0
  8  3  1  0
  8  6  1  0
  1  9  1  0
  3 10  1  0
  4 11  1  0
  4 12  1  0
  6 13  1  0
  7 14  1  0
  7 15  1  0
  8 16  1  0
M  END
