
     RDKit          3D

 17 17  0  0  0  0  0  0  0  0999 V2000
    2.2333   -0.5581   -1.2071 C   0  0  0  0  0  0  0  0  0  0  0  0
    1.4250   -0.0751   -0.4494 C   0  0  0  0  0  0  0  0  0  0  0  0
    0.4688    0.5192    0.4765 C   0  0  0  0  0  0  0  0  0  0  0  0
    0.5413    1.9923    0.5264 C   0  0  0  0  0  0  0  0  0  0  0  0
    0.6279    2.5335    1.6040 O   0  0  0  0  0  0  0  0  0  0  0  0
    0.5112   -0.0921    1.7374 O   0  0  0  0  0  0  0  0  0  0  0  0
   -0.2377   -1.1324    1.1348 C   0  0  0  0  0  0  0  0  0  0  0  0
   -0.9487   -0.0407    0.3611 C   0  0  0  0  0  0  0  0  0  0  0  0
   -1.3895   -0.3926   -1.0105 C   0  0  0  0  0  0  0  0  0  0  0  0
    2.9377   -0.9816   -1.8925 H   0  0  0  0  0  0  0  0  0  0  0  0
    0.5129    2.5243   -0.4209 H   0  0  0  0  0  0  0  0  0  0  0  0
    0.4600   -1.7182    0.5046 H   0  0  0  0  0  0  0  0  0  0  0  0
   -0.8412   -1.7248    1.8141 H   0  0  0  0  0  0  0  0  0  0  0  0
   -1.6197    0.5453    0.9915 H   0  0  0  0  0  0  0  0  0  0  0  0
   -0.7344   -0.0306   -1.8233 H   0  0  0  0  0  0  0  0  0  0  0  0
   -2.3849    0.1113   -1.1835 H   0  0  0  0  0  0  0  0  0  0  0  0
   -1.5619   -1.4795   -1.1634 H   0  0  0  0  0  0  0  0  0  0  0  0
  1  2  3  0
  2  3  1  0
  3  4  1  0
  4  5  2  0
  3  6  1  0
  6  7  1  0
  7  8  1  0
  8  9  1  0
  8  3  1  0
  1 10  1  0
  4 11  1  0
  7 12  1  0
  7 13  1  0
  8 14  1  0
  9 15  1  0
  9 16  1  0
  9 17  1  0
M  END
