
     RDKit          3D

 19 20  0  0  0  0  0  0  0  0999 V2000
    3.3075   -0.8023    1.5945 C   0  0  0  0  0  0  0  0  0  0  0  0
    2.2981   -0.2131    1.2664 C   0  0  0  0  0  0  0  0  0  0  0  0
    1.0772    0.4912    0.8891 C   0  0  0  0  0  0  0  0  0  0  0  0
    0.8123    0.6353   -0.6444 C   0  0  0  0  0  0  0  0  0  0  0  0
   -0.0214   -0.1554    0.2203 C   0  0  0  0  0  0  0  0  0  0  0  0
   -0.3101   -1.5886    0.1362 C   0  0  0  0  0  0  0  0  0  0  0  0
   -1.6640   -1.2648   -0.1180 O   0  0  0  0  0  0  0  0  0  0  0  0
   -1.4546   -0.0093    0.4766 C   0  0  0  0  0  0  0  0  0  0  0  0
   -2.1885    1.1166   -0.2116 C   0  0  0  0  0  0  0  0  0  0  0  0
    4.1869   -1.3094    1.8937 H   0  0  0  0  0  0  0  0  0  0  0  0
    0.9151    1.4248    1.4829 H   0  0  0  0  0  0  0  0  0  0  0  0
    0.5003    1.6316   -0.9641 H   0  0  0  0  0  0  0  0  0  0  0  0
    1.6067    0.1935   -1.2942 H   0  0  0  0  0  0  0  0  0  0  0  0
   -0.2818   -2.1919    1.0742 H   0  0  0  0  0  0  0  0  0  0  0  0
    0.1759   -2.1070   -0.7250 H   0  0  0  0  0  0  0  0  0  0  0  0
   -1.7733   -0.1001    1.5556 H   0  0  0  0  0  0  0  0  0  0  0  0
   -2.5009    1.9125    0.5152 H   0  0  0  0  0  0  0  0  0  0  0  0
   -1.5561    1.6267   -0.9583 H   0  0  0  0  0  0  0  0  0  0  0  0
   -3.1291    0.7100   -0.6278 H   0  0  0  0  0  0  0  0  0  0  0  0
  1  2  3  0
  2  3  1  0
  3  4  1  0
  4  5  1  0
  5  6  1  0
  6  7  1  0
  7  8  1  0
  8  9  1  0
  5  3  1  0
  8  5  1  0
  1 10  1  0
  3 11  1  0
  4 12  1  0
  4 13  1  0
  6 14  1  0
  6 15  1  0
  8 16  1  0
  9 17  1  0
  9 18  1  0
  9 19  1  0
M  END
