
     RDKit          3D

 19 18  0  0  0  0  0  0  0  0999 V2000
    2.4548    0.9901   -1.3241 C   0  0  0  0  0  0  0  0  0  0  0  0
    1.5569    0.6786   -0.5612 C   0  0  0  0  0  0  0  0  0  0  0  0
    0.4724    0.3179    0.3506 C   0  0  0  0  0  0  0  0  0  0  0  0
    0.8729   -0.8296    1.2423 C   0  0  0  0  0  0  0  0  0  0  0  0
    1.1982   -1.9726    0.5227 O   0  0  0  0  0  0  0  0  0  0  0  0
   -0.7644    0.0054   -0.4575 C   0  0  0  0  0  0  0  0  0  0  0  0
   -1.9340   -0.3770    0.3977 C   0  0  0  0  0  0  0  0  0  0  0  0
   -1.1741    1.1709   -1.2875 C   0  0  0  0  0  0  0  0  0  0  0  0
   -0.8892    2.3225   -1.0009 O   0  0  0  0  0  0  0  0  0  0  0  0
    3.2328    1.2760   -1.9819 H   0  0  0  0  0  0  0  0  0  0  0  0
    0.2348    1.1931    0.9885 H   0  0  0  0  0  0  0  0  0  0  0  0
    0.1143   -1.1010    1.9727 H   0  0  0  0  0  0  0  0  0  0  0  0
    1.7850   -0.5423    1.8052 H   0  0  0  0  0  0  0  0  0  0  0  0
    2.0129   -1.8942   -0.0063 H   0  0  0  0  0  0  0  0  0  0  0  0
   -0.5757   -0.8372   -1.1603 H   0  0  0  0  0  0  0  0  0  0  0  0
   -1.9613   -1.4655    0.6252 H   0  0  0  0  0  0  0  0  0  0  0  0
   -2.0219    0.2371    1.3263 H   0  0  0  0  0  0  0  0  0  0  0  0
   -2.8676   -0.1692   -0.1829 H   0  0  0  0  0  0  0  0  0  0  0  0
   -1.7467    0.9969   -2.1802 H   0  0  0  0  0  0  0  0  0  0  0  0
  1  2  3  0
  2  3  1  0
  3  4  1  0
  4  5  1  0
  3  6  1  0
  6  7  1  0
  6  8  1  0
  8  9  2  0
  1 10  1  0
  3 11  1  0
  4 12  1  0
  4 13  1  0
  5 14  1  0
  6 15  1  0
  7 16  1  0
  7 17  1  0
  7 18  1  0
  8 19  1  0
M  END
