
     RDKit          3D

 19 19  0  0  0  0  0  0  0  0999 V2000
   -0.2724    2.6586    1.9914 C   0  0  0  0  0  0  0  0  0  0  0  0
   -0.0008    1.7401    1.2615 C   0  0  0  0  0  0  0  0  0  0  0  0
    0.3608    0.6023    0.3390 C   0  0  0  0  0  0  0  0  0  0  0  0
    1.3789   -0.1021    0.7807 O   0  0  0  0  0  0  0  0  0  0  0  0
    1.9725   -1.1377    0.2097 C   0  0  0  0  0  0  0  0  0  0  0  0
   -0.0384    0.8422   -1.0574 C   0  0  0  0  0  0  0  0  0  0  0  0
   -0.8894   -0.0589   -0.1738 C   0  0  0  0  0  0  0  0  0  0  0  0
   -0.9764   -1.5067   -0.4826 C   0  0  0  0  0  0  0  0  0  0  0  0
   -2.1284    0.5212    0.1273 O   0  0  0  0  0  0  0  0  0  0  0  0
   -0.5016    3.4586    2.6413 H   0  0  0  0  0  0  0  0  0  0  0  0
    2.8422   -1.4436    0.8982 H   0  0  0  0  0  0  0  0  0  0  0  0
    2.5107   -0.8326   -0.7231 H   0  0  0  0  0  0  0  0  0  0  0  0
    1.4632   -2.0871    0.0647 H   0  0  0  0  0  0  0  0  0  0  0  0
   -0.4153    1.8453   -1.3327 H   0  0  0  0  0  0  0  0  0  0  0  0
    0.4129    0.3047   -1.9101 H   0  0  0  0  0  0  0  0  0  0  0  0
   -2.0211   -1.6878   -0.8977 H   0  0  0  0  0  0  0  0  0  0  0  0
   -0.3327   -1.7494   -1.3599 H   0  0  0  0  0  0  0  0  0  0  0  0
   -0.8456   -2.1978    0.3510 H   0  0  0  0  0  0  0  0  0  0  0  0
   -2.5192    0.8308   -0.7275 H   0  0  0  0  0  0  0  0  0  0  0  0
  1  2  3  0
  2  3  1  0
  3  4  1  0
  4  5  1  0
  3  6  1  0
  6  7  1  0
  7  8  1  0
  7  9  1  0
  7  3  1  0
  1 10  1  0
  5 11  1  0
  5 12  1  0
  5 13  1  0
  6 14  1  0
  6 15  1  0
  8 16  1  0
  8 17  1  0
  8 18  1  0
  9 19  1  0
M  END
