
     RDKit          3D

 17 19  0  0  0  0  0  0  0  0999 V2000
    2.7041    1.4714   -0.9377 C   0  0  0  0  0  0  0  0  0  0  0  0
    1.7446    0.8187   -0.6381 C   0  0  0  0  0  0  0  0  0  0  0  0
    0.5684    0.0299   -0.2968 C   0  0  0  0  0  0  0  0  0  0  0  0
    0.6940   -1.4238   -0.3749 C   0  0  0  0  0  0  0  0  0  0  0  0
   -0.1611   -0.6605   -1.3808 C   0  0  0  0  0  0  0  0  0  0  0  0
   -1.5060   -0.6895   -1.0843 O   0  0  0  0  0  0  0  0  0  0  0  0
   -1.7599    0.1914   -0.0663 C   0  0  0  0  0  0  0  0  0  0  0  0
   -1.3763   -0.0730    1.3361 C   0  0  0  0  0  0  0  0  0  0  0  0
   -0.5023    0.7235    0.4770 C   0  0  0  0  0  0  0  0  0  0  0  0
    3.5763    2.0516   -1.1923 H   0  0  0  0  0  0  0  0  0  0  0  0
    0.1830   -2.1142    0.3314 H   0  0  0  0  0  0  0  0  0  0  0  0
    1.6278   -1.8358   -0.7765 H   0  0  0  0  0  0  0  0  0  0  0  0
    0.1889   -0.5459   -2.4096 H   0  0  0  0  0  0  0  0  0  0  0  0
   -2.6215    0.8852   -0.2177 H   0  0  0  0  0  0  0  0  0  0  0  0
   -1.9545    0.4153    2.1401 H   0  0  0  0  0  0  0  0  0  0  0  0
   -0.9785   -1.0701    1.6576 H   0  0  0  0  0  0  0  0  0  0  0  0
   -0.4271    1.8258    0.5296 H   0  0  0  0  0  0  0  0  0  0  0  0
  1  2  3  0
  2  3  1  0
  3  4  1  0
  4  5  1  0
  5  6  1  0
  6  7  1  0
  7  8  1  0
  8  9  1  0
  5  3  1  0
  9  7  1  0
  9  3  1  0
  1 10  1  0
  4 11  1  0
  4 12  1  0
  5 13  1  0
  7 14  1  0
  8 15  1  0
  8 16  1  0
  9 17  1  0
M  END
