
     RDKit          3D

 21 21  0  0  0  0  0  0  0  0999 V2000
    2.3427    1.6769    0.6674 C   0  0  0  0  0  0  0  0  0  0  0  0
    1.8092    0.6037    0.5147 C   0  0  0  0  0  0  0  0  0  0  0  0
    1.1947   -0.6766    0.3183 C   0  0  0  0  0  0  0  0  0  0  0  0
   -0.1342   -0.5819   -0.3104 C   0  0  0  0  0  0  0  0  0  0  0  0
   -0.6896   -2.0093   -0.4714 C   0  0  0  0  0  0  0  0  0  0  0  0
   -0.2431    0.2329   -1.5668 C   0  0  0  0  0  0  0  0  0  0  0  0
   -1.3819    0.8272   -1.0600 O   0  0  0  0  0  0  0  0  0  0  0  0
   -1.1775    0.2948    0.2371 C   0  0  0  0  0  0  0  0  0  0  0  0
   -0.8290    1.3825    1.1730 C   0  0  0  0  0  0  0  0  0  0  0  0
    2.8300    2.6192    0.8041 H   0  0  0  0  0  0  0  0  0  0  0  0
    1.8475   -1.3005   -0.3640 H   0  0  0  0  0  0  0  0  0  0  0  0
    1.1090   -1.2837    1.2451 H   0  0  0  0  0  0  0  0  0  0  0  0
   -0.1012   -2.5597   -1.2220 H   0  0  0  0  0  0  0  0  0  0  0  0
   -1.7645   -2.0003   -0.6578 H   0  0  0  0  0  0  0  0  0  0  0  0
   -0.4860   -2.5009    0.5198 H   0  0  0  0  0  0  0  0  0  0  0  0
    0.6436    0.8980   -1.6614 H   0  0  0  0  0  0  0  0  0  0  0  0
   -0.3980   -0.4248   -2.4375 H   0  0  0  0  0  0  0  0  0  0  0  0
   -2.1489   -0.2128    0.5146 H   0  0  0  0  0  0  0  0  0  0  0  0
   -1.7743    1.7010    1.7066 H   0  0  0  0  0  0  0  0  0  0  0  0
   -0.1659    1.0070    1.9527 H   0  0  0  0  0  0  0  0  0  0  0  0
   -0.4825    2.3075    0.6688 H   0  0  0  0  0  0  0  0  0  0  0  0
  1  2  3  0
  2  3  1  0
  3  4  1  0
  4  5  1  0
  4  6  1  0
  6  7  1  0
  7  8  1  0
  8  9  1  0
  8  4  1  0
  1 10  1  0
  3 11  1  0
  3 12  1  0
  5 13  1  0
  5 14  1  0
  5 15  1  0
  6 16  1  0
  6 17  1  0
  8 18  1  0
  9 19  1  0
  9 20  1  0
  9 21  1  0
M  END
