
     RDKit          3D

 19 20  0  0  0  0  0  0  0  0999 V2000
    2.5283   -1.7874    0.2826 C   0  0  0  0  0  0  0  0  0  0  0  0
    1.8990   -0.7774    0.0853 C   0  0  0  0  0  0  0  0  0  0  0  0
    1.1353    0.4735   -0.1351 C   0  0  0  0  0  0  0  0  0  0  0  0
    1.9829    1.5350   -0.3376 O   0  0  0  0  0  0  0  0  0  0  0  0
    0.0778    0.6935    0.9531 C   0  0  0  0  0  0  0  0  0  0  0  0
   -0.9300    0.1531   -0.0252 C   0  0  0  0  0  0  0  0  0  0  0  0
   -1.6795   -1.0977    0.2644 C   0  0  0  0  0  0  0  0  0  0  0  0
   -1.1827    0.9969   -1.2079 C   0  0  0  0  0  0  0  0  0  0  0  0
    0.0589    0.2372   -1.1306 C   0  0  0  0  0  0  0  0  0  0  0  0
    3.0924   -2.6675    0.4644 H   0  0  0  0  0  0  0  0  0  0  0  0
    1.4629    2.3384   -0.6153 H   0  0  0  0  0  0  0  0  0  0  0  0
   -0.0913    1.7939    1.0772 H   0  0  0  0  0  0  0  0  0  0  0  0
    0.2481    0.1248    1.8632 H   0  0  0  0  0  0  0  0  0  0  0  0
   -1.0344   -1.9906    0.4162 H   0  0  0  0  0  0  0  0  0  0  0  0
   -2.3178   -0.9031    1.1712 H   0  0  0  0  0  0  0  0  0  0  0  0
   -2.3883   -1.2791   -0.5677 H   0  0  0  0  0  0  0  0  0  0  0  0
   -1.9512    0.6404   -1.9052 H   0  0  0  0  0  0  0  0  0  0  0  0
   -1.1207    2.1054   -1.1590 H   0  0  0  0  0  0  0  0  0  0  0  0
    0.2103   -0.5892   -1.8477 H   0  0  0  0  0  0  0  0  0  0  0  0
  1  2  3  0
  2  3  1  0
  3  4  1  0
  3  5  1  0
  5  6  1  0
  6  7  1  0
  6  8  1  0
  8  9  1  0
  9  3  1  0
  9  6  1  0
  1 10  1  0
  4 11  1  0
  5 12  1  0
  5 13  1  0
  7 14  1  0
  7 15  1  0
  7 16  1  0
  8 17  1  0
  8 18  1  0
  9 19  1  0
M  END
