
     RDKit          3D

 17 17  0  0  0  0  0  0  0  0999 V2000
    4.7840    0.5502   -0.8022 C   0  0  0  0  0  0  0  0  0  0  0  0
    3.5894    0.2057   -0.7339 C   0  0  0  0  0  0  0  0  0  0  0  0
    2.2731   -0.1666   -0.6759 C   0  0  0  0  0  0  0  0  0  0  0  0
    1.0460   -0.5004   -0.6036 C   0  0  0  0  0  0  0  0  0  0  0  0
   -0.3349   -0.8834   -0.5006 C   0  0  0  0  0  0  0  0  0  0  0  0
   -1.2730    0.1983   -0.1879 C   0  0  0  0  0  0  0  0  0  0  0  0
   -1.1466    0.9379    1.0864 C   0  0  0  0  0  0  0  0  0  0  0  0
   -2.5943    0.8439    1.1715 O   0  0  0  0  0  0  0  0  0  0  0  0
   -2.5135   -0.3723    0.5445 C   0  0  0  0  0  0  0  0  0  0  0  0
    5.7927    0.8394   -0.8424 H   0  0  0  0  0  0  0  0  0  0  0  0
   -0.4427   -1.7088    0.2642 H   0  0  0  0  0  0  0  0  0  0  0  0
   -0.7016   -1.3613   -1.4857 H   0  0  0  0  0  0  0  0  0  0  0  0
   -1.5907    0.8475   -1.0609 H   0  0  0  0  0  0  0  0  0  0  0  0
   -0.6296    0.4324    1.9057 H   0  0  0  0  0  0  0  0  0  0  0  0
   -0.8541    2.0024    0.9183 H   0  0  0  0  0  0  0  0  0  0  0  0
   -3.2940   -0.6766   -0.1153 H   0  0  0  0  0  0  0  0  0  0  0  0
   -2.1103   -1.1883    1.2513 H   0  0  0  0  0  0  0  0  0  0  0  0
  1  2  3  0
  2  3  1  0
  3  4  3  0
  4  5  1  0
  5  6  1  0
  6  7  1  0
  7  8  1  0
  8  9  1  0
  9  6  1  0
  1 10  1  0
  5 11  1  0
  5 12  1  0
  6 13  1  0
  7 14  1  0
  7 15  1  0
  9 16  1  0
  9 17  1  0
M  END
