
     RDKit          3D

 17 17  0  0  0  0  0  0  0  0999 V2000
    3.3118    0.7434    1.7041 C   0  0  0  0  0  0  0  0  0  0  0  0
    2.4891    0.8028    1.3774 C   0  0  0  0  0  0  0  0  0  0  0  0
    2.0094    0.8306    1.1840 C   0  0  0  0  0  0  0  0  0  0  0  0
    0.6133    0.9206    0.6095 C   0  0  0  0  0  0  0  0  0  0  0  0
   -1.1315    1.0298   -0.1416 C   0  0  0  0  0  0  0  0  0  0  0  0
   -0.0913   -1.1462    0.2426 O   0  0  0  0  0  0  0  0  0  0  0  0
    0.7375   -0.4467   -0.7356 C   0  0  0  0  0  0  0  0  0  0  0  0
   -1.8572   -0.3273   -0.4116 C   0  0  0  0  0  0  0  0  0  0  0  0
   -1.9854    0.1155    0.9808 C   0  0  0  0  0  0  0  0  0  0  0  0
    6.2002    0.5886    2.8670 H   0  0  0  0  0  0  0  0  0  0  0  0
   -0.0296   -0.4983   -1.6654 H   0  0  0  0  0  0  0  0  0  0  0  0
   -1.1725   -0.1445   -1.0335 H   0  0  0  0  0  0  0  0  0  0  0  0
    0.3320    0.5693   -0.5025 H   0  0  0  0  0  0  0  0  0  0  0  0
   -2.6669   -0.9522   -0.8813 H   0  0  0  0  0  0  0  0  0  0  0  0
   -1.3933   -1.5487   -0.2374 H   0  0  0  0  0  0  0  0  0  0  0  0
   -3.2249    0.2142    0.7142 H   0  0  0  0  0  0  0  0  0  0  0  0
   -2.1404   -0.7509    1.6657 H   0  0  0  0  0  0  0  0  0  0  0  0
  1  2  3  0
  2  3  1  0
  3  4  3  0
  4  5  1  0
  5  6  1  0
  6  7  1  0
  5  8  1  0
  8  9  1  0
  9  5  1  0
  1 10  1  0
  7 11  1  0
  7 12  1  0
  7 13  1  0
  8 14  1  0
  8 15  1  0
  9 16  1  0
  9 17  1  0
M  END
