
     RDKit          3D

 21 20  0  0  0  0  0  0  0  0999 V2000
   -1.9456   -0.1405   -1.6417 C   0  0  0  0  0  0  0  0  0  0  0  0
   -1.4567    0.1868   -0.5934 C   0  0  0  0  0  0  0  0  0  0  0  0
   -0.8512    0.5901    0.6808 C   0  0  0  0  0  0  0  0  0  0  0  0
   -0.8191   -0.6104    1.6053 C   0  0  0  0  0  0  0  0  0  0  0  0
   -1.6709    1.6901    1.3135 C   0  0  0  0  0  0  0  0  0  0  0  0
    0.5202    1.1188    0.4096 C   0  0  0  0  0  0  0  0  0  0  0  0
    1.3218    0.0804   -0.1990 C   0  0  0  0  0  0  0  0  0  0  0  0
    2.0063   -0.8038   -0.7417 C   0  0  0  0  0  0  0  0  0  0  0  0
    2.8243   -1.8435   -1.3644 C   0  0  0  0  0  0  0  0  0  0  0  0
   -2.3751   -0.4477   -2.5867 H   0  0  0  0  0  0  0  0  0  0  0  0
   -0.0973   -1.3257    1.1617 H   0  0  0  0  0  0  0  0  0  0  0  0
   -1.7927   -1.1164    1.6665 H   0  0  0  0  0  0  0  0  0  0  0  0
   -0.4793   -0.2891    2.6171 H   0  0  0  0  0  0  0  0  0  0  0  0
   -2.5343    1.9261    0.6432 H   0  0  0  0  0  0  0  0  0  0  0  0
   -2.0950    1.3603    2.2927 H   0  0  0  0  0  0  0  0  0  0  0  0
   -1.0235    2.5762    1.4436 H   0  0  0  0  0  0  0  0  0  0  0  0
    0.4259    2.0120   -0.2406 H   0  0  0  0  0  0  0  0  0  0  0  0
    1.0005    1.4483    1.3530 H   0  0  0  0  0  0  0  0  0  0  0  0
    3.8268   -1.4737   -1.6508 H   0  0  0  0  0  0  0  0  0  0  0  0
    2.9069   -2.6757   -0.6350 H   0  0  0  0  0  0  0  0  0  0  0  0
    2.3080   -2.2626   -2.2749 H   0  0  0  0  0  0  0  0  0  0  0  0
  1  2  3  0
  2  3  1  0
  3  4  1  0
  3  5  1  0
  3  6  1  0
  6  7  1  0
  7  8  3  0
  8  9  1  0
  1 10  1  0
  4 11  1  0
  4 12  1  0
  4 13  1  0
  5 14  1  0
  5 15  1  0
  5 16  1  0
  6 17  1  0
  6 18  1  0
  9 19  1  0
  9 20  1  0
  9 21  1  0
M  END
