
     RDKit          3D

 15 16  0  0  0  0  0  0  0  0999 V2000
    2.8720   -0.1655   -0.3840 C   0  0  0  0  0  0  0  0  0  0  0  0
    1.7207   -0.1057   -0.0250 C   0  0  0  0  0  0  0  0  0  0  0  0
    0.3321   -0.0494    0.4286 C   0  0  0  0  0  0  0  0  0  0  0  0
   -0.3842   -1.3261    0.7283 C   0  0  0  0  0  0  0  0  0  0  0  0
   -1.7584   -1.0739    0.5030 O   0  0  0  0  0  0  0  0  0  0  0  0
   -1.9258   -0.0061   -0.3477 C   0  0  0  0  0  0  0  0  0  0  0  0
   -2.9628    0.2867   -0.9562 O   0  0  0  0  0  0  0  0  0  0  0  0
   -0.6418    0.7235   -0.3996 C   0  0  0  0  0  0  0  0  0  0  0  0
   -0.1703    1.2580    0.9008 C   0  0  0  0  0  0  0  0  0  0  0  0
    3.8818   -0.2048   -0.7123 H   0  0  0  0  0  0  0  0  0  0  0  0
   -0.1031   -2.1560    0.0583 H   0  0  0  0  0  0  0  0  0  0  0  0
   -0.2919   -1.6316    1.7899 H   0  0  0  0  0  0  0  0  0  0  0  0
   -0.2522    1.0889   -1.3583 H   0  0  0  0  0  0  0  0  0  0  0  0
   -0.8744    1.2675    1.7548 H   0  0  0  0  0  0  0  0  0  0  0  0
    0.5583    2.0944    0.9230 H   0  0  0  0  0  0  0  0  0  0  0  0
  1  2  3  0
  2  3  1  0
  3  4  1  0
  4  5  1  0
  5  6  1  0
  6  7  2  0
  6  8  1  0
  8  9  1  0
  8  3  1  0
  9  3  1  0
  1 10  1  0
  4 11  1  0
  4 12  1  0
  8 13  1  0
  9 14  1  0
  9 15  1  0
M  END
