
     RDKit          3D

 17 16  0  0  0  0  0  0  0  0999 V2000
    2.8949    1.0052   -0.9536 C   0  0  0  0  0  0  0  0  0  0  0  0
    2.1120    0.5418   -0.1074 C   0  0  0  0  0  0  0  0  0  0  0  0
    1.1790   -0.0236    0.9177 C   0  0  0  0  0  0  0  0  0  0  0  0
   -0.2072   -0.0614    0.2169 C   0  0  0  0  0  0  0  0  0  0  0  0
   -0.5734    1.3616   -0.1561 C   0  0  0  0  0  0  0  0  0  0  0  0
   -1.1191   -0.7394    0.8519 O   0  0  0  0  0  0  0  0  0  0  0  0
   -1.8526   -1.6914    1.0954 C   0  0  0  0  0  0  0  0  0  0  0  0
    3.5693    1.3886   -1.6604 H   0  0  0  0  0  0  0  0  0  0  0  0
    1.4773   -1.0435    1.1684 H   0  0  0  0  0  0  0  0  0  0  0  0
    1.1001    0.6655    1.7571 H   0  0  0  0  0  0  0  0  0  0  0  0
    0.0968   -0.5802   -0.7590 H   0  0  0  0  0  0  0  0  0  0  0  0
    0.0403    1.7522   -0.9822 H   0  0  0  0  0  0  0  0  0  0  0  0
   -0.4401    2.0723    0.7070 H   0  0  0  0  0  0  0  0  0  0  0  0
   -1.6642    1.4891   -0.4138 H   0  0  0  0  0  0  0  0  0  0  0  0
   -2.5538   -1.4356    2.0183 H   0  0  0  0  0  0  0  0  0  0  0  0
   -2.6638   -2.0258    0.3624 H   0  0  0  0  0  0  0  0  0  0  0  0
   -1.3955   -2.6753    1.5025 H   0  0  0  0  0  0  0  0  0  0  0  0
  1  2  3  0
  2  3  1  0
  3  4  1  0
  4  5  1  0
  4  6  1  0
  6  7  1  0
  1  8  1  0
  3  9  1  0
  3 10  1  0
  4 11  1  0
  5 12  1  0
  5 13  1  0
  5 14  1  0
  7 15  1  0
  7 16  1  0
  7 17  1  0
M  END
