
     RDKit          3D

 15 17  0  0  0  0  0  0  0  0999 V2000
    1.6850   -2.2517    0.3809 C   0  0  0  0  0  0  0  0  0  0  0  0
    1.0241   -1.2299    0.4944 C   0  0  0  0  0  0  0  0  0  0  0  0
    0.2284   -0.0287    0.6486 C   0  0  0  0  0  0  0  0  0  0  0  0
    0.8953    1.2647    0.4429 C   0  0  0  0  0  0  0  0  0  0  0  0
   -0.0157    0.8260   -0.6121 C   0  0  0  0  0  0  0  0  0  0  0  0
    0.3670    0.2423   -1.7867 O   0  0  0  0  0  0  0  0  0  0  0  0
   -1.4915    0.9156   -0.3125 C   0  0  0  0  0  0  0  0  0  0  0  0
   -1.9353    1.0242    0.9947 O   0  0  0  0  0  0  0  0  0  0  0  0
   -1.2560   -0.1618    0.7514 C   0  0  0  0  0  0  0  0  0  0  0  0
    2.2641   -3.1190    0.2796 H   0  0  0  0  0  0  0  0  0  0  0  0
    0.5190    2.1216    1.0745 H   0  0  0  0  0  0  0  0  0  0  0  0
    1.9750    1.2430    0.2637 H   0  0  0  0  0  0  0  0  0  0  0  0
   -0.3041   -0.4727   -2.0227 H   0  0  0  0  0  0  0  0  0  0  0  0
   -2.1826    0.7156   -1.1300 H   0  0  0  0  0  0  0  0  0  0  0  0
   -1.7726   -1.0894    0.5332 H   0  0  0  0  0  0  0  0  0  0  0  0
  1  2  3  0
  2  3  1  0
  3  4  1  0
  4  5  1  0
  5  6  1  0
  5  7  1  0
  7  8  1  0
  8  9  1  0
  5  3  1  0
  9  7  1  0
  9  3  1  0
  1 10  1  0
  4 11  1  0
  4 12  1  0
  6 13  1  0
  7 14  1  0
  9 15  1  0
M  END
