
     RDKit          3D

 21 22  0  0  0  0  0  0  0  0999 V2000
    0.0048    2.8319   -0.3032 C   0  0  0  0  0  0  0  0  0  0  0  0
    0.0011    1.7004   -0.7060 C   0  0  0  0  0  0  0  0  0  0  0  0
    0.0104    0.3540   -1.2076 C   0  0  0  0  0  0  0  0  0  0  0  0
   -0.4340   -0.7552   -0.3377 C   0  0  0  0  0  0  0  0  0  0  0  0
   -0.6176   -0.3543    1.0956 C   0  0  0  0  0  0  0  0  0  0  0  0
   -1.6648    0.7103    1.3153 C   0  0  0  0  0  0  0  0  0  0  0  0
    0.8166   -1.5590   -0.5604 C   0  0  0  0  0  0  0  0  0  0  0  0
    1.5534   -1.5345   -1.8272 C   0  0  0  0  0  0  0  0  0  0  0  0
    1.4227   -0.2622   -1.1336 C   0  0  0  0  0  0  0  0  0  0  0  0
    0.0253    3.8342    0.0559 H   0  0  0  0  0  0  0  0  0  0  0  0
   -0.2957    0.2605   -2.2985 H   0  0  0  0  0  0  0  0  0  0  0  0
   -1.3730   -1.2750   -0.6766 H   0  0  0  0  0  0  0  0  0  0  0  0
    0.3644   -0.0525    1.5693 H   0  0  0  0  0  0  0  0  0  0  0  0
   -0.9107   -1.2896    1.6624 H   0  0  0  0  0  0  0  0  0  0  0  0
   -2.4897    0.2844    1.9673 H   0  0  0  0  0  0  0  0  0  0  0  0
   -2.0875    0.9811    0.3391 H   0  0  0  0  0  0  0  0  0  0  0  0
   -1.2881    1.5806    1.9030 H   0  0  0  0  0  0  0  0  0  0  0  0
    1.2617   -2.0101    0.3113 H   0  0  0  0  0  0  0  0  0  0  0  0
    1.0180   -1.6106   -2.8182 H   0  0  0  0  0  0  0  0  0  0  0  0
    2.5288   -2.0300   -1.8463 H   0  0  0  0  0  0  0  0  0  0  0  0
    2.1539    0.1956   -0.4770 H   0  0  0  0  0  0  0  0  0  0  0  0
  1  2  3  0
  2  3  1  0
  3  4  1  0
  4  5  1  0
  5  6  1  0
  4  7  1  0
  7  8  1  0
  8  9  1  0
  9  3  1  0
  9  7  1  0
  1 10  1  0
  3 11  1  0
  4 12  1  0
  5 13  1  0
  5 14  1  0
  6 15  1  0
  6 16  1  0
  6 17  1  0
  7 18  1  0
  8 19  1  0
  8 20  1  0
  9 21  1  0
M  END
