
     RDKit          3D

 15 15  0  0  0  0  0  0  0  0999 V2000
   -1.1287    0.8582    2.6947 C   0  0  0  0  0  0  0  0  0  0  0  0
   -1.0243    0.3261    1.5886 C   0  0  0  0  0  0  0  0  0  0  0  0
   -0.8783   -0.3086    0.2928 C   0  0  0  0  0  0  0  0  0  0  0  0
    0.2176   -1.2892    0.1590 C   0  0  0  0  0  0  0  0  0  0  0  0
    1.0590   -1.5635    1.2428 O   0  0  0  0  0  0  0  0  0  0  0  0
    0.4035    0.0105   -0.5007 C   0  0  0  0  0  0  0  0  0  0  0  0
    0.1404    0.1665   -1.8885 O   0  0  0  0  0  0  0  0  0  0  0  0
    0.6568    1.2635   -2.5558 C   0  0  0  0  0  0  0  0  0  0  0  0
    1.3435    2.0789   -1.8911 O   0  0  0  0  0  0  0  0  0  0  0  0
   -1.2247    1.3066    3.6663 H   0  0  0  0  0  0  0  0  0  0  0  0
   -1.8127   -0.5349   -0.2988 H   0  0  0  0  0  0  0  0  0  0  0  0
    0.0661   -2.1710   -0.5193 H   0  0  0  0  0  0  0  0  0  0  0  0
    0.6801   -2.3684    1.6766 H   0  0  0  0  0  0  0  0  0  0  0  0
    1.0270    0.8045   -0.0332 H   0  0  0  0  0  0  0  0  0  0  0  0
    0.4746    1.4209   -3.6334 H   0  0  0  0  0  0  0  0  0  0  0  0
  1  2  3  0
  2  3  1  0
  3  4  1  0
  4  5  1  0
  4  6  1  0
  6  7  1  0
  7  8  1  0
  8  9  2  0
  6  3  1  0
  1 10  1  0
  3 11  1  0
  4 12  1  0
  5 13  1  0
  6 14  1  0
  8 15  1  0
M  END
