
     RDKit          3D

 17 18  0  0  0  0  0  0  0  0999 V2000
    3.5105   -0.4762    1.0734 C   0  0  0  0  0  0  0  0  0  0  0  0
    2.2473   -0.3764    0.5842 C   0  0  0  0  0  0  0  0  0  0  0  0
    0.9362   -0.2758    0.0531 C   0  0  0  0  0  0  0  0  0  0  0  0
    0.5468    0.2703   -1.0272 C   0  0  0  0  0  0  0  0  0  0  0  0
   -0.8660    0.1542   -0.9768 C   0  0  0  0  0  0  0  0  0  0  0  0
   -1.4146   -0.9877   -1.4860 O   0  0  0  0  0  0  0  0  0  0  0  0
   -1.7798    1.1170   -0.4152 C   0  0  0  0  0  0  0  0  0  0  0  0
   -1.0401    0.5206    0.5808 C   0  0  0  0  0  0  0  0  0  0  0  0
   -0.2714   -0.7880    0.8238 C   0  0  0  0  0  0  0  0  0  0  0  0
    4.6168   -0.5555    1.5131 H   0  0  0  0  0  0  0  0  0  0  0  0
    1.2032    0.6959   -1.7826 H   0  0  0  0  0  0  0  0  0  0  0  0
   -2.2600   -1.1445   -1.0283 H   0  0  0  0  0  0  0  0  0  0  0  0
   -2.8242    0.9750   -0.5350 H   0  0  0  0  0  0  0  0  0  0  0  0
   -1.4792    2.1915   -0.6852 H   0  0  0  0  0  0  0  0  0  0  0  0
   -0.2779    1.2748    1.0028 H   0  0  0  0  0  0  0  0  0  0  0  0
   -0.8192   -1.6430    0.4078 H   0  0  0  0  0  0  0  0  0  0  0  0
   -0.0284   -0.9524    1.8972 H   0  0  0  0  0  0  0  0  0  0  0  0
  1  2  3  0
  2  3  1  0
  3  4  2  0
  4  5  1  0
  5  6  1  0
  5  7  1  0
  7  8  1  0
  8  9  1  0
  9  3  1  0
  8  5  1  0
  1 10  1  0
  4 11  1  0
  6 12  1  0
  7 13  1  0
  7 14  1  0
  8 15  1  0
  9 16  1  0
  9 17  1  0
M  END
