
     RDKit          3D

 19 19  0  0  0  0  0  0  0  0999 V2000
    1.5950    1.5617   -1.8681 C   0  0  0  0  0  0  0  0  0  0  0  0
    1.6554    0.5654   -1.1530 C   0  0  0  0  0  0  0  0  0  0  0  0
    1.7299   -0.6306   -0.3257 C   0  0  0  0  0  0  0  0  0  0  0  0
    0.7796   -0.5518    0.8268 C   0  0  0  0  0  0  0  0  0  0  0  0
   -0.6166   -0.4357    0.3294 C   0  0  0  0  0  0  0  0  0  0  0  0
   -1.0817   -1.4715   -0.4631 O   0  0  0  0  0  0  0  0  0  0  0  0
   -1.0369    0.8964   -0.2257 C   0  0  0  0  0  0  0  0  0  0  0  0
   -2.3088    0.6839    0.3608 O   0  0  0  0  0  0  0  0  0  0  0  0
   -1.6420   -0.0107    1.3650 C   0  0  0  0  0  0  0  0  0  0  0  0
    1.5264    2.4232   -2.4766 H   0  0  0  0  0  0  0  0  0  0  0  0
    2.7908   -0.8053    0.0160 H   0  0  0  0  0  0  0  0  0  0  0  0
    1.5010   -1.5427   -0.9496 H   0  0  0  0  0  0  0  0  0  0  0  0
    0.9479   -1.4244    1.4829 H   0  0  0  0  0  0  0  0  0  0  0  0
    1.0326    0.3379    1.4430 H   0  0  0  0  0  0  0  0  0  0  0  0
   -1.6897   -2.0883    0.0083 H   0  0  0  0  0  0  0  0  0  0  0  0
   -1.1410    0.8966   -1.3322 H   0  0  0  0  0  0  0  0  0  0  0  0
   -0.5939    1.7927    0.2009 H   0  0  0  0  0  0  0  0  0  0  0  0
   -2.1970   -0.8685    1.7909 H   0  0  0  0  0  0  0  0  0  0  0  0
   -1.2510    0.6715    2.1243 H   0  0  0  0  0  0  0  0  0  0  0  0
  1  2  3  0
  2  3  1  0
  3  4  1  0
  4  5  1  0
  5  6  1  0
  5  7  1  0
  7  8  1  0
  8  9  1  0
  9  5  1  0
  1 10  1  0
  3 11  1  0
  3 12  1  0
  4 13  1  0
  4 14  1  0
  6 15  1  0
  7 16  1  0
  7 17  1  0
  9 18  1  0
  9 19  1  0
M  END
