
     RDKit          3D

 21 21  0  0  0  0  0  0  0  0999 V2000
    2.9921   -1.0551   -0.6853 C   0  0  0  0  0  0  0  0  0  0  0  0
    1.7934   -1.1508   -0.5143 C   0  0  0  0  0  0  0  0  0  0  0  0
    0.3490   -1.2409   -0.3055 C   0  0  0  0  0  0  0  0  0  0  0  0
    0.0841   -2.5650    0.0780 O   0  0  0  0  0  0  0  0  0  0  0  0
   -0.1238   -0.2901    0.7522 C   0  0  0  0  0  0  0  0  0  0  0  0
   -1.6190   -0.3752    0.9820 C   0  0  0  0  0  0  0  0  0  0  0  0
   -1.7603    0.9353    0.2387 C   0  0  0  0  0  0  0  0  0  0  0  0
   -0.2619    1.1312    0.4345 C   0  0  0  0  0  0  0  0  0  0  0  0
    0.4178    1.7399   -0.7186 C   0  0  0  0  0  0  0  0  0  0  0  0
    4.0513   -0.9787   -0.8206 H   0  0  0  0  0  0  0  0  0  0  0  0
   -0.1351   -1.1001   -1.2804 H   0  0  0  0  0  0  0  0  0  0  0  0
    0.6608   -3.1264   -0.4990 H   0  0  0  0  0  0  0  0  0  0  0  0
    0.3911   -0.4946    1.7203 H   0  0  0  0  0  0  0  0  0  0  0  0
   -2.0891   -1.2514    0.4870 H   0  0  0  0  0  0  0  0  0  0  0  0
   -1.9294   -0.2266    2.0442 H   0  0  0  0  0  0  0  0  0  0  0  0
   -2.3890    1.6837    0.7366 H   0  0  0  0  0  0  0  0  0  0  0  0
   -2.0254    0.7599   -0.8332 H   0  0  0  0  0  0  0  0  0  0  0  0
   -0.1322    1.7619    1.3624 H   0  0  0  0  0  0  0  0  0  0  0  0
    1.2491    1.2024   -1.1600 H   0  0  0  0  0  0  0  0  0  0  0  0
   -0.3376    1.8717   -1.5495 H   0  0  0  0  0  0  0  0  0  0  0  0
    0.8140    2.7692   -0.4694 H   0  0  0  0  0  0  0  0  0  0  0  0
  1  2  3  0
  2  3  1  0
  3  4  1  0
  3  5  1  0
  5  6  1  0
  6  7  1  0
  7  8  1  0
  8  9  1  0
  8  5  1  0
  1 10  1  0
  3 11  1  0
  4 12  1  0
  5 13  1  0
  6 14  1  0
  6 15  1  0
  7 16  1  0
  7 17  1  0
  8 18  1  0
  9 19  1  0
  9 20  1  0
  9 21  1  0
M  END
