
     RDKit          3D

 21 21  0  0  0  0  0  0  0  0999 V2000
   -3.2387    1.6649    0.4686 C   0  0  0  0  0  0  0  0  0  0  0  0
   -2.3424    0.9025    0.1965 C   0  0  0  0  0  0  0  0  0  0  0  0
   -1.2472   -0.0367   -0.1127 C   0  0  0  0  0  0  0  0  0  0  0  0
   -1.4415   -1.2625    0.6835 C   0  0  0  0  0  0  0  0  0  0  0  0
    0.0227    0.7026    0.0706 C   0  0  0  0  0  0  0  0  0  0  0  0
    1.2869   -0.0281   -0.1814 C   0  0  0  0  0  0  0  0  0  0  0  0
    2.5241    0.8269    0.0371 C   0  0  0  0  0  0  0  0  0  0  0  0
    1.4460   -1.2792   -0.8403 C   0  0  0  0  0  0  0  0  0  0  0  0
    1.4393   -1.2518    0.6120 O   0  0  0  0  0  0  0  0  0  0  0  0
   -4.0321    2.3338    0.7270 H   0  0  0  0  0  0  0  0  0  0  0  0
   -1.3583   -0.2442   -1.2185 H   0  0  0  0  0  0  0  0  0  0  0  0
   -2.4532   -1.2786    1.1899 H   0  0  0  0  0  0  0  0  0  0  0  0
   -1.5081   -2.1467   -0.0183 H   0  0  0  0  0  0  0  0  0  0  0  0
   -0.7273   -1.4376    1.4924 H   0  0  0  0  0  0  0  0  0  0  0  0
    0.0467    1.1198    1.1101 H   0  0  0  0  0  0  0  0  0  0  0  0
    0.0104    1.5842   -0.6048 H   0  0  0  0  0  0  0  0  0  0  0  0
    3.4150    0.4165   -0.4698 H   0  0  0  0  0  0  0  0  0  0  0  0
    2.3496    1.8481   -0.4071 H   0  0  0  0  0  0  0  0  0  0  0  0
    2.7125    1.0069    1.1243 H   0  0  0  0  0  0  0  0  0  0  0  0
    0.6445   -1.8846   -1.3037 H   0  0  0  0  0  0  0  0  0  0  0  0
    2.4510   -1.5564   -1.2315 H   0  0  0  0  0  0  0  0  0  0  0  0
  1  2  3  0
  2  3  1  0
  3  4  1  0
  3  5  1  0
  5  6  1  0
  6  7  1  0
  6  8  1  0
  8  9  1  0
  9  6  1  0
  1 10  1  0
  3 11  1  0
  4 12  1  0
  4 13  1  0
  4 14  1  0
  5 15  1  0
  5 16  1  0
  7 17  1  0
  7 18  1  0
  7 19  1  0
  8 20  1  0
  8 21  1  0
M  END
