
     RDKit          3D

 17 16  0  0  0  0  0  0  0  0999 V2000
   -4.2676    0.4174   -1.2382 C   0  0  0  0  0  0  0  0  0  0  0  0
   -3.4333   -0.4310   -0.6904 C   0  0  0  0  0  0  0  0  0  0  0  0
   -2.5439   -1.3441   -0.0944 C   0  0  0  0  0  0  0  0  0  0  0  0
   -1.2375   -0.8680    0.2072 C   0  0  0  0  0  0  0  0  0  0  0  0
   -0.0837   -0.4410    0.4530 C   0  0  0  0  0  0  0  0  0  0  0  0
    1.1062   -0.0030    0.6859 C   0  0  0  0  0  0  0  0  0  0  0  0
    2.1398    0.0388   -0.4127 C   0  0  0  0  0  0  0  0  0  0  0  0
    3.1830    1.0287    0.0636 C   0  0  0  0  0  0  0  0  0  0  0  0
    3.9520    1.7677    0.4358 C   0  0  0  0  0  0  0  0  0  0  0  0
   -4.9671    1.1044   -1.6947 H   0  0  0  0  0  0  0  0  0  0  0  0
   -2.7969   -2.4025   -0.1053 H   0  0  0  0  0  0  0  0  0  0  0  0
   -3.1200   -1.2609    1.1413 H   0  0  0  0  0  0  0  0  0  0  0  0
    1.5224   -0.4820    1.6674 H   0  0  0  0  0  0  0  0  0  0  0  0
    1.1468    1.1571    1.1057 H   0  0  0  0  0  0  0  0  0  0  0  0
    1.8585    0.2026   -1.4178 H   0  0  0  0  0  0  0  0  0  0  0  0
    2.7860   -1.0298   -0.2972 H   0  0  0  0  0  0  0  0  0  0  0  0
    4.7553    2.5457    0.8365 H   0  0  0  0  0  0  0  0  0  0  0  0
  1  2  3  0
  2  3  1  0
  3  4  1  0
  4  5  3  0
  5  6  1  0
  6  7  1  0
  7  8  1  0
  8  9  3  0
  1 10  1  0
  3 11  1  0
  3 12  1  0
  6 13  1  0
  6 14  1  0
  7 15  1  0
  7 16  1  0
  9 17  1  0
M  END
