
     RDKit          3D

 21 21  0  0  0  0  0  0  0  0999 V2000
   -1.6394    2.6031   -0.0450 C   0  0  0  0  0  0  0  0  0  0  0  0
   -1.5136    1.4089    0.1171 C   0  0  0  0  0  0  0  0  0  0  0  0
   -1.3655   -0.0440    0.3365 C   0  0  0  0  0  0  0  0  0  0  0  0
   -1.8285   -0.7403   -0.9209 C   0  0  0  0  0  0  0  0  0  0  0  0
    0.1191   -0.3217    0.5375 C   0  0  0  0  0  0  0  0  0  0  0  0
    0.4722   -1.7463    0.7758 C   0  0  0  0  0  0  0  0  0  0  0  0
    0.6246    0.4875    1.6777 O   0  0  0  0  0  0  0  0  0  0  0  0
    1.0520    0.7030    0.2669 C   0  0  0  0  0  0  0  0  0  0  0  0
    2.5230    0.4981    0.0492 C   0  0  0  0  0  0  0  0  0  0  0  0
   -1.7414    3.6459   -0.1958 H   0  0  0  0  0  0  0  0  0  0  0  0
   -1.9610   -0.3106    1.2181 H   0  0  0  0  0  0  0  0  0  0  0  0
   -1.5864   -1.8314   -0.8453 H   0  0  0  0  0  0  0  0  0  0  0  0
   -1.3529   -0.2941   -1.7962 H   0  0  0  0  0  0  0  0  0  0  0  0
   -2.9336   -0.6784   -0.9608 H   0  0  0  0  0  0  0  0  0  0  0  0
    1.5406   -1.8436    1.0701 H   0  0  0  0  0  0  0  0  0  0  0  0
   -0.1688   -2.1141    1.6287 H   0  0  0  0  0  0  0  0  0  0  0  0
    0.3069   -2.4138   -0.0658 H   0  0  0  0  0  0  0  0  0  0  0  0
    0.6942    1.7149   -0.0203 H   0  0  0  0  0  0  0  0  0  0  0  0
    3.1112    1.4332    0.1690 H   0  0  0  0  0  0  0  0  0  0  0  0
    2.7378    0.0504   -0.9408 H   0  0  0  0  0  0  0  0  0  0  0  0
    2.9095   -0.2068    0.8371 H   0  0  0  0  0  0  0  0  0  0  0  0
  1  2  3  0
  2  3  1  0
  3  4  1  0
  3  5  1  0
  5  6  1  0
  5  7  1  0
  7  8  1  0
  8  9  1  0
  8  5  1  0
  1 10  1  0
  3 11  1  0
  4 12  1  0
  4 13  1  0
  4 14  1  0
  6 15  1  0
  6 16  1  0
  6 17  1  0
  8 18  1  0
  9 19  1  0
  9 20  1  0
  9 21  1  0
M  END
