
     RDKit          3D

 21 21  0  0  0  0  0  0  0  0999 V2000
    0.5018    4.0865    1.0236 C   0  0  0  0  0  0  0  0  0  0  0  0
    0.6080    2.9323    0.5885 C   0  0  0  0  0  0  0  0  0  0  0  0
    0.7196    1.5702    0.0878 C   0  0  0  0  0  0  0  0  0  0  0  0
   -0.0464    0.7122    0.7871 O   0  0  0  0  0  0  0  0  0  0  0  0
    0.0564   -0.5837    0.2803 C   0  0  0  0  0  0  0  0  0  0  0  0
    1.4456   -1.2137    0.3252 C   0  0  0  0  0  0  0  0  0  0  0  0
   -0.6169   -0.7476   -1.0532 C   0  0  0  0  0  0  0  0  0  0  0  0
   -1.8100   -1.3205   -0.3629 C   0  0  0  0  0  0  0  0  0  0  0  0
   -1.0107   -1.4443    0.8856 C   0  0  0  0  0  0  0  0  0  0  0  0
    0.3946    5.0692    1.4033 H   0  0  0  0  0  0  0  0  0  0  0  0
    1.8142    1.2862    0.1778 H   0  0  0  0  0  0  0  0  0  0  0  0
    0.4548    1.5742   -1.0103 H   0  0  0  0  0  0  0  0  0  0  0  0
    2.1665   -0.5270    0.7529 H   0  0  0  0  0  0  0  0  0  0  0  0
    1.3775   -2.0958    1.0040 H   0  0  0  0  0  0  0  0  0  0  0  0
    1.7627   -1.5419   -0.6981 H   0  0  0  0  0  0  0  0  0  0  0  0
   -0.0946   -1.5554   -1.6448 H   0  0  0  0  0  0  0  0  0  0  0  0
   -0.7785    0.1763   -1.6458 H   0  0  0  0  0  0  0  0  0  0  0  0
   -2.6237   -0.5309   -0.3342 H   0  0  0  0  0  0  0  0  0  0  0  0
   -2.1794   -2.2872   -0.7877 H   0  0  0  0  0  0  0  0  0  0  0  0
   -0.6550   -2.5010    0.9719 H   0  0  0  0  0  0  0  0  0  0  0  0
   -1.4865   -1.0580    1.8090 H   0  0  0  0  0  0  0  0  0  0  0  0
  1  2  3  0
  2  3  1  0
  3  4  1  0
  4  5  1  0
  5  6  1  0
  5  7  1  0
  7  8  1  0
  8  9  1  0
  9  5  1  0
  1 10  1  0
  3 11  1  0
  3 12  1  0
  6 13  1  0
  6 14  1  0
  6 15  1  0
  7 16  1  0
  7 17  1  0
  8 18  1  0
  8 19  1  0
  9 20  1  0
  9 21  1  0
M  END
