
     RDKit          3D

 21 21  0  0  0  0  0  0  0  0999 V2000
   -1.6561    2.2856   -1.1903 C   0  0  0  0  0  0  0  0  0  0  0  0
   -1.4931    1.0747   -1.1120 C   0  0  0  0  0  0  0  0  0  0  0  0
   -1.3012   -0.3676   -1.0441 C   0  0  0  0  0  0  0  0  0  0  0  0
   -2.2803   -1.0761   -0.1093 C   0  0  0  0  0  0  0  0  0  0  0  0
   -1.2162   -1.0686    0.9463 C   0  0  0  0  0  0  0  0  0  0  0  0
   -0.1782   -0.8015   -0.1248 C   0  0  0  0  0  0  0  0  0  0  0  0
    0.6822    0.1820    0.2825 O   0  0  0  0  0  0  0  0  0  0  0  0
    2.0096   -0.1149    0.1731 C   0  0  0  0  0  0  0  0  0  0  0  0
    2.7932    1.1045    0.6758 C   0  0  0  0  0  0  0  0  0  0  0  0
   -1.7843    3.3348   -1.2544 H   0  0  0  0  0  0  0  0  0  0  0  0
   -1.3171   -0.8677   -2.0203 H   0  0  0  0  0  0  0  0  0  0  0  0
   -2.5291   -2.0963   -0.4258 H   0  0  0  0  0  0  0  0  0  0  0  0
   -3.1466   -0.4597    0.1920 H   0  0  0  0  0  0  0  0  0  0  0  0
   -1.3210   -0.2287    1.6880 H   0  0  0  0  0  0  0  0  0  0  0  0
   -1.0516   -2.0226    1.4822 H   0  0  0  0  0  0  0  0  0  0  0  0
    0.2636   -1.7391   -0.5023 H   0  0  0  0  0  0  0  0  0  0  0  0
    2.2574   -1.0012    0.7813 H   0  0  0  0  0  0  0  0  0  0  0  0
    2.3301   -0.3124   -0.8717 H   0  0  0  0  0  0  0  0  0  0  0  0
    2.8497    1.8835   -0.1073 H   0  0  0  0  0  0  0  0  0  0  0  0
    3.7966    0.7282    0.9881 H   0  0  0  0  0  0  0  0  0  0  0  0
    2.2924    1.5629    1.5529 H   0  0  0  0  0  0  0  0  0  0  0  0
  1  2  3  0
  2  3  1  0
  3  4  1  0
  4  5  1  0
  5  6  1  0
  6  7  1  0
  7  8  1  0
  8  9  1  0
  6  3  1  0
  1 10  1  0
  3 11  1  0
  4 12  1  0
  4 13  1  0
  5 14  1  0
  5 15  1  0
  6 16  1  0
  8 17  1  0
  8 18  1  0
  9 19  1  0
  9 20  1  0
  9 21  1  0
M  END
