
     RDKit          3D

 19 19  0  0  0  0  0  0  0  0999 V2000
   -3.0755   -1.0120    0.6712 C   0  0  0  0  0  0  0  0  0  0  0  0
   -1.9453   -0.5871    0.7697 C   0  0  0  0  0  0  0  0  0  0  0  0
   -0.5783   -0.0878    0.9008 C   0  0  0  0  0  0  0  0  0  0  0  0
   -0.5734    1.3335    1.4737 C   0  0  0  0  0  0  0  0  0  0  0  0
    0.7442    1.7378    1.5691 O   0  0  0  0  0  0  0  0  0  0  0  0
    0.0530   -0.0019   -0.4568 C   0  0  0  0  0  0  0  0  0  0  0  0
    1.4408    0.5098   -0.2760 O   0  0  0  0  0  0  0  0  0  0  0  0
    1.1537   -0.8276   -0.8062 C   0  0  0  0  0  0  0  0  0  0  0  0
    1.6645   -0.9668   -2.2107 C   0  0  0  0  0  0  0  0  0  0  0  0
   -4.0750   -1.3939    0.6019 H   0  0  0  0  0  0  0  0  0  0  0  0
    0.0580   -0.7060    1.5411 H   0  0  0  0  0  0  0  0  0  0  0  0
   -1.1707    2.0129    0.8009 H   0  0  0  0  0  0  0  0  0  0  0  0
   -1.0794    1.3454    2.4397 H   0  0  0  0  0  0  0  0  0  0  0  0
    0.8799    2.7035    1.4077 H   0  0  0  0  0  0  0  0  0  0  0  0
   -0.4406    0.6395   -1.2176 H   0  0  0  0  0  0  0  0  0  0  0  0
    1.4948   -1.6169   -0.0821 H   0  0  0  0  0  0  0  0  0  0  0  0
    0.9855   -0.5461   -2.9765 H   0  0  0  0  0  0  0  0  0  0  0  0
    1.8025   -2.0410   -2.4842 H   0  0  0  0  0  0  0  0  0  0  0  0
    2.6614   -0.4952   -2.3571 H   0  0  0  0  0  0  0  0  0  0  0  0
  1  2  3  0
  2  3  1  0
  3  4  1  0
  4  5  1  0
  3  6  1  0
  6  7  1  0
  7  8  1  0
  8  9  1  0
  8  6  1  0
  1 10  1  0
  3 11  1  0
  4 12  1  0
  4 13  1  0
  5 14  1  0
  6 15  1  0
  8 16  1  0
  9 17  1  0
  9 18  1  0
  9 19  1  0
M  END
