
     RDKit          3D

 17 17  0  0  0  0  0  0  0  0999 V2000
   -1.9006    1.3679    0.7312 C   0  0  0  0  0  0  0  0  0  0  0  0
   -1.0824    0.6291    0.4725 C   0  0  0  0  0  0  0  0  0  0  0  0
    0.0322   -0.3543    0.1046 C   0  0  0  0  0  0  0  0  0  0  0  0
   -0.2119   -1.5915    0.9077 C   0  0  0  0  0  0  0  0  0  0  0  0
   -0.1799   -1.1692    2.2415 O   0  0  0  0  0  0  0  0  0  0  0  0
    0.0204   -0.5025   -1.3145 C   0  0  0  0  0  0  0  0  0  0  0  0
    0.8894    0.4425   -1.8056 C   0  0  0  0  0  0  0  0  0  0  0  0
    1.4587    1.1283   -0.6309 C   0  0  0  0  0  0  0  0  0  0  0  0
    1.2376    0.2296    0.4293 O   0  0  0  0  0  0  0  0  0  0  0  0
   -2.7734    2.1611    1.0292 H   0  0  0  0  0  0  0  0  0  0  0  0
   -1.2559   -2.0056    0.6882 H   0  0  0  0  0  0  0  0  0  0  0  0
    0.5396   -2.3459    0.7303 H   0  0  0  0  0  0  0  0  0  0  0  0
   -1.0565   -0.7360    2.4987 H   0  0  0  0  0  0  0  0  0  0  0  0
   -0.5184   -1.1642   -2.0390 H   0  0  0  0  0  0  0  0  0  0  0  0
    1.1470    0.6849   -2.8491 H   0  0  0  0  0  0  0  0  0  0  0  0
    2.5920    1.1028   -0.7384 H   0  0  0  0  0  0  0  0  0  0  0  0
    1.0621    2.1232   -0.4559 H   0  0  0  0  0  0  0  0  0  0  0  0
  1  2  3  0
  2  3  1  0
  3  4  1  0
  4  5  1  0
  3  6  1  0
  6  7  2  0
  7  8  1  0
  8  9  1  0
  9  3  1  0
  1 10  1  0
  4 11  1  0
  4 12  1  0
  5 13  1  0
  6 14  1  0
  7 15  1  0
  8 16  1  0
  8 17  1  0
M  END
