
     RDKit          3D

 21 21  0  0  0  0  0  0  0  0999 V2000
    2.1910   -1.1005   -1.2027 C   0  0  0  0  0  0  0  0  0  0  0  0
    1.2569   -0.9040   -0.3520 C   0  0  0  0  0  0  0  0  0  0  0  0
    0.3998   -0.7359    0.4042 C   0  0  0  0  0  0  0  0  0  0  0  0
    0.4458   -1.8247    1.4793 O   0  0  0  0  0  0  0  0  0  0  0  0
    0.4038    0.5745    1.3439 C   0  0  0  0  0  0  0  0  0  0  0  0
   -0.8277    1.0294    0.5342 C   0  0  0  0  0  0  0  0  0  0  0  0
   -0.2942    1.8148   -0.6458 C   0  0  0  0  0  0  0  0  0  0  0  0
   -1.1375   -0.4381    0.1730 C   0  0  0  0  0  0  0  0  0  0  0  0
   -1.3062   -0.7035   -1.3327 C   0  0  0  0  0  0  0  0  0  0  0  0
    3.3284   -1.3181   -2.2579 H   0  0  0  0  0  0  0  0  0  0  0  0
    1.3504   -2.1021    1.5827 H   0  0  0  0  0  0  0  0  0  0  0  0
    1.3685    1.1214    1.0490 H   0  0  0  0  0  0  0  0  0  0  0  0
    0.3372    0.4684    2.3869 H   0  0  0  0  0  0  0  0  0  0  0  0
   -1.5835    1.4317    1.1309 H   0  0  0  0  0  0  0  0  0  0  0  0
   -0.1885    2.8796   -0.3377 H   0  0  0  0  0  0  0  0  0  0  0  0
   -1.0905    1.7676   -1.4058 H   0  0  0  0  0  0  0  0  0  0  0  0
    0.6722    1.3465   -0.9397 H   0  0  0  0  0  0  0  0  0  0  0  0
   -1.7516   -0.9795    0.8495 H   0  0  0  0  0  0  0  0  0  0  0  0
   -0.8876   -1.7551   -1.4640 H   0  0  0  0  0  0  0  0  0  0  0  0
   -2.2414   -0.5138   -1.7482 H   0  0  0  0  0  0  0  0  0  0  0  0
   -0.4455   -0.0585   -1.7774 H   0  0  0  0  0  0  0  0  0  0  0  0
  1  2  3  0
  2  3  1  0
  3  4  1  0
  3  5  1  0
  5  6  1  0
  6  7  1  0
  6  8  1  0
  8  9  1  0
  8  3  1  0
  1 10  1  0
  4 11  1  0
  5 12  1  0
  5 13  1  0
  6 14  1  0
  7 15  1  0
  7 16  1  0
  7 17  1  0
  8 18  1  0
  9 19  1  0
  9 20  1  0
  9 21  1  0
M  END
