
     RDKit          3D

 21 20  0  0  0  0  0  0  0  0999 V2000
    2.4760    0.4906    2.1572 C   0  0  0  0  0  0  0  0  0  0  0  0
    2.0284    0.7765    1.1256 C   0  0  0  0  0  0  0  0  0  0  0  0
    1.4895    1.1353   -0.1803 C   0  0  0  0  0  0  0  0  0  0  0  0
    0.5131    0.2444   -0.7630 C   0  0  0  0  0  0  0  0  0  0  0  0
   -0.8178   -0.0155   -0.2323 C   0  0  0  0  0  0  0  0  0  0  0  0
   -1.4514   -1.0417   -1.2179 C   0  0  0  0  0  0  0  0  0  0  0  0
   -1.4223   -0.3514   -2.4456 O   0  0  0  0  0  0  0  0  0  0  0  0
   -1.0574   -0.5480    1.1078 C   0  0  0  0  0  0  0  0  0  0  0  0
   -0.6332    0.1904    2.1826 O   0  0  0  0  0  0  0  0  0  0  0  0
    2.9169    0.2036    3.1374 H   0  0  0  0  0  0  0  0  0  0  0  0
    2.4011    1.1629   -0.8815 H   0  0  0  0  0  0  0  0  0  0  0  0
    1.2094    2.2112   -0.1149 H   0  0  0  0  0  0  0  0  0  0  0  0
    1.0370   -0.7858   -0.8764 H   0  0  0  0  0  0  0  0  0  0  0  0
    0.3677    0.4874   -1.8743 H   0  0  0  0  0  0  0  0  0  0  0  0
   -1.5138    0.8719   -0.3686 H   0  0  0  0  0  0  0  0  0  0  0  0
   -2.4489   -1.3370   -0.9145 H   0  0  0  0  0  0  0  0  0  0  0  0
   -0.7006   -1.8552   -1.2457 H   0  0  0  0  0  0  0  0  0  0  0  0
   -0.7779   -0.7807   -3.0255 H   0  0  0  0  0  0  0  0  0  0  0  0
   -2.1887   -0.6063    1.2329 H   0  0  0  0  0  0  0  0  0  0  0  0
   -0.7487   -1.6182    1.1652 H   0  0  0  0  0  0  0  0  0  0  0  0
   -0.6784    1.1657    2.0317 H   0  0  0  0  0  0  0  0  0  0  0  0
  1  2  3  0
  2  3  1  0
  3  4  1  0
  4  5  1  0
  5  6  1  0
  6  7  1  0
  5  8  1  0
  8  9  1  0
  1 10  1  0
  3 11  1  0
  3 12  1  0
  4 13  1  0
  4 14  1  0
  5 15  1  0
  6 16  1  0
  6 17  1  0
  7 18  1  0
  8 19  1  0
  8 20  1  0
  9 21  1  0
M  END
