
     RDKit          3D

 15 17  0  0  0  0  0  0  0  0999 V2000
    3.1091    1.2345    1.1257 C   0  0  0  0  0  0  0  0  0  0  0  0
    2.0200    1.0467    0.6414 C   0  0  0  0  0  0  0  0  0  0  0  0
    0.6873    0.8305    0.0256 C   0  0  0  0  0  0  0  0  0  0  0  0
   -0.3253    1.4488    0.5680 O   0  0  0  0  0  0  0  0  0  0  0  0
   -0.2519    0.1546    0.9079 C   0  0  0  0  0  0  0  0  0  0  0  0
   -1.6769   -0.2476    0.8258 C   0  0  0  0  0  0  0  0  0  0  0  0
   -1.4288   -0.7757   -0.5364 C   0  0  0  0  0  0  0  0  0  0  0  0
   -0.3177   -1.1863    0.3958 C   0  0  0  0  0  0  0  0  0  0  0  0
   -1.2986   -1.4934    1.3211 O   0  0  0  0  0  0  0  0  0  0  0  0
    4.0690    1.3966    1.5405 H   0  0  0  0  0  0  0  0  0  0  0  0
    0.7128    0.7860   -1.0840 H   0  0  0  0  0  0  0  0  0  0  0  0
   -2.4981    0.2653    1.1478 H   0  0  0  0  0  0  0  0  0  0  0  0
   -2.0229   -1.6369   -0.8734 H   0  0  0  0  0  0  0  0  0  0  0  0
   -1.2096    0.0089   -1.2575 H   0  0  0  0  0  0  0  0  0  0  0  0
    0.4316   -1.8320    0.1189 H   0  0  0  0  0  0  0  0  0  0  0  0
  1  2  3  0
  2  3  1  0
  3  4  1  0
  4  5  1  0
  5  6  1  0
  6  7  1  0
  7  8  1  0
  8  9  1  0
  5  3  1  0
  9  6  1  0
  8  5  1  0
  1 10  1  0
  3 11  1  0
  6 12  1  0
  7 13  1  0
  7 14  1  0
  8 15  1  0
M  END
