
     RDKit          3D

 19 19  0  0  0  0  0  0  0  0999 V2000
   -1.2401    2.8783   -0.3867 C   0  0  0  0  0  0  0  0  0  0  0  0
   -0.7052    1.8059   -0.2449 C   0  0  0  0  0  0  0  0  0  0  0  0
   -0.0667    0.4938   -0.0508 C   0  0  0  0  0  0  0  0  0  0  0  0
    1.2910    0.5410   -0.7286 C   0  0  0  0  0  0  0  0  0  0  0  0
    1.8904   -0.6989   -0.5430 O   0  0  0  0  0  0  0  0  0  0  0  0
    0.0467    0.1104    1.3576 C   0  0  0  0  0  0  0  0  0  0  0  0
   -0.2496   -1.1740    1.5188 C   0  0  0  0  0  0  0  0  0  0  0  0
   -0.5980   -1.7927    0.2103 C   0  0  0  0  0  0  0  0  0  0  0  0
   -0.9208   -0.6033   -0.6458 C   0  0  0  0  0  0  0  0  0  0  0  0
   -1.7115    3.8381   -0.4954 H   0  0  0  0  0  0  0  0  0  0  0  0
    1.2016    0.7042   -1.8070 H   0  0  0  0  0  0  0  0  0  0  0  0
    1.9471    1.2962   -0.3074 H   0  0  0  0  0  0  0  0  0  0  0  0
    2.8763   -0.5995   -0.4544 H   0  0  0  0  0  0  0  0  0  0  0  0
    0.3377    0.8001    2.1595 H   0  0  0  0  0  0  0  0  0  0  0  0
   -0.2280   -1.6626    2.4856 H   0  0  0  0  0  0  0  0  0  0  0  0
    0.2820   -2.3559   -0.1898 H   0  0  0  0  0  0  0  0  0  0  0  0
   -1.4614   -2.4875    0.3192 H   0  0  0  0  0  0  0  0  0  0  0  0
   -1.9944   -0.3304   -0.4789 H   0  0  0  0  0  0  0  0  0  0  0  0
   -0.6973   -0.7633   -1.7184 H   0  0  0  0  0  0  0  0  0  0  0  0
  1  2  3  0
  2  3  1  0
  3  4  1  0
  4  5  1  0
  3  6  1  0
  6  7  2  0
  7  8  1  0
  8  9  1  0
  9  3  1  0
  1 10  1  0
  4 11  1  0
  4 12  1  0
  5 13  1  0
  6 14  1  0
  7 15  1  0
  8 16  1  0
  8 17  1  0
  9 18  1  0
  9 19  1  0
M  END
