
     RDKit          3D

 17 17  0  0  0  0  0  0  0  0999 V2000
   -2.4128    0.7099    0.9295 C   0  0  0  0  0  0  0  0  0  0  0  0
   -1.5399   -0.0648    0.6226 C   0  0  0  0  0  0  0  0  0  0  0  0
   -0.4743   -0.9927    0.2327 C   0  0  0  0  0  0  0  0  0  0  0  0
   -0.9499   -2.0424   -0.7387 C   0  0  0  0  0  0  0  0  0  0  0  0
    0.6394   -0.1894   -0.3389 C   0  0  0  0  0  0  0  0  0  0  0  0
    0.9692   -0.4068   -1.4826 O   0  0  0  0  0  0  0  0  0  0  0  0
    1.3034    0.8434    0.5053 C   0  0  0  0  0  0  0  0  0  0  0  0
    1.8474    2.0754   -0.1800 C   0  0  0  0  0  0  0  0  0  0  0  0
    2.6775    1.0275    0.3365 O   0  0  0  0  0  0  0  0  0  0  0  0
   -3.1855    1.4088    1.2022 H   0  0  0  0  0  0  0  0  0  0  0  0
   -0.1230   -1.5182    1.1601 H   0  0  0  0  0  0  0  0  0  0  0  0
   -0.7233   -1.7574   -1.7753 H   0  0  0  0  0  0  0  0  0  0  0  0
   -0.4687   -3.0331   -0.5378 H   0  0  0  0  0  0  0  0  0  0  0  0
   -2.0631   -2.1626   -0.6585 H   0  0  0  0  0  0  0  0  0  0  0  0
    0.9213    0.9585    1.5375 H   0  0  0  0  0  0  0  0  0  0  0  0
    1.8392    3.0044    0.4491 H   0  0  0  0  0  0  0  0  0  0  0  0
    1.7431    2.1395   -1.2638 H   0  0  0  0  0  0  0  0  0  0  0  0
  1  2  3  0
  2  3  1  0
  3  4  1  0
  3  5  1  0
  5  6  2  0
  5  7  1  0
  7  8  1  0
  8  9  1  0
  9  7  1  0
  1 10  1  0
  3 11  1  0
  4 12  1  0
  4 13  1  0
  4 14  1  0
  7 15  1  0
  8 16  1  0
  8 17  1  0
M  END
