
     RDKit          3D

 13 13  0  0  0  0  0  0  0  0999 V2000
    2.6918    0.6751   -0.1465 C   0  0  0  0  0  0  0  0  0  0  0  0
    0.8935    0.3393   -0.2755 C   0  0  0  0  0  0  0  0  0  0  0  0
    0.0366    0.1786   -0.3494 C   0  0  0  0  0  0  0  0  0  0  0  0
   -0.7786    1.1887    0.8632 C   0  0  0  0  0  0  0  0  0  0  0  0
   -1.4205    0.7314    1.5810 O   0  0  0  0  0  0  0  0  0  0  0  0
   -1.0743   -0.5574   -0.9694 C   0  0  0  0  0  0  0  0  0  0  0  0
   -0.4958   -1.3095    0.2160 C   0  0  0  0  0  0  0  0  0  0  0  0
    4.0114    0.9151   -0.0312 H   0  0  0  0  0  0  0  0  0  0  0  0
   -0.4307    2.1996    0.6118 H   0  0  0  0  0  0  0  0  0  0  0  0
   -2.0196   -0.0777   -0.8283 H   0  0  0  0  0  0  0  0  0  0  0  0
   -0.8798   -0.9864   -1.9663 H   0  0  0  0  0  0  0  0  0  0  0  0
    0.3919   -2.0002    0.1278 H   0  0  0  0  0  0  0  0  0  0  0  0
   -0.9260   -1.2965    1.1667 H   0  0  0  0  0  0  0  0  0  0  0  0
  1  2  3  0
  2  3  1  0
  3  4  1  0
  4  5  2  0
  3  6  1  0
  6  7  1  0
  7  3  1  0
  1  8  1  0
  4  9  1  0
  6 10  1  0
  6 11  1  0
  7 12  1  0
  7 13  1  0
M  END
