
     RDKit          3D

 19 19  0  0  0  0  0  0  0  0999 V2000
    0.6981    2.9824    1.9249 C   0  0  0  0  0  0  0  0  0  0  0  0
    0.6630    1.8671    1.5653 C   0  0  0  0  0  0  0  0  0  0  0  0
    0.6435    0.4180    1.0923 C   0  0  0  0  0  0  0  0  0  0  0  0
    1.7454    0.3130    0.2617 O   0  0  0  0  0  0  0  0  0  0  0  0
   -0.6180    0.2383    0.3057 C   0  0  0  0  0  0  0  0  0  0  0  0
   -0.8521   -1.1133   -0.2490 C   0  0  0  0  0  0  0  0  0  0  0  0
    0.1517   -1.6903   -1.2071 C   0  0  0  0  0  0  0  0  0  0  0  0
   -0.6461   -0.8580   -2.1747 C   0  0  0  0  0  0  0  0  0  0  0  0
   -1.7452   -1.0474   -1.3578 O   0  0  0  0  0  0  0  0  0  0  0  0
    0.7241    3.9774    2.2490 H   0  0  0  0  0  0  0  0  0  0  0  0
    0.7859   -0.2297    1.9468 H   0  0  0  0  0  0  0  0  0  0  0  0
    1.6860    0.9663   -0.5054 H   0  0  0  0  0  0  0  0  0  0  0  0
   -0.6948    1.0432   -0.4711 H   0  0  0  0  0  0  0  0  0  0  0  0
   -1.4914    0.4523    1.0002 H   0  0  0  0  0  0  0  0  0  0  0  0
   -1.1841   -1.8588    0.5028 H   0  0  0  0  0  0  0  0  0  0  0  0
    1.1902   -1.4417   -1.0431 H   0  0  0  0  0  0  0  0  0  0  0  0
   -0.0034   -2.7883   -1.3722 H   0  0  0  0  0  0  0  0  0  0  0  0
   -0.3018    0.1802   -2.3219 H   0  0  0  0  0  0  0  0  0  0  0  0
   -0.7509   -1.4105   -3.1261 H   0  0  0  0  0  0  0  0  0  0  0  0
  1  2  3  0
  2  3  1  0
  3  4  1  0
  3  5  1  0
  5  6  1  0
  6  7  1  0
  7  8  1  0
  8  9  1  0
  9  6  1  0
  1 10  1  0
  3 11  1  0
  4 12  1  0
  5 13  1  0
  5 14  1  0
  6 15  1  0
  7 16  1  0
  7 17  1  0
  8 18  1  0
  8 19  1  0
M  END
