
     RDKit          3D

 17 18  0  0  0  0  0  0  0  0999 V2000
    3.5446    0.3396   -0.5788 C   0  0  0  0  0  0  0  0  0  0  0  0
    2.5056    0.3339    0.0392 C   0  0  0  0  0  0  0  0  0  0  0  0
    1.2474    0.3397    0.8129 C   0  0  0  0  0  0  0  0  0  0  0  0
    0.8278   -1.0682    1.1269 O   0  0  0  0  0  0  0  0  0  0  0  0
    0.0972   -0.2184    0.3272 C   0  0  0  0  0  0  0  0  0  0  0  0
   -0.3201   -0.6125   -1.0341 C   0  0  0  0  0  0  0  0  0  0  0  0
   -1.7803   -0.4934   -0.5839 C   0  0  0  0  0  0  0  0  0  0  0  0
   -1.3121    0.1371    0.7244 C   0  0  0  0  0  0  0  0  0  0  0  0
   -1.5359    1.5115    0.8023 O   0  0  0  0  0  0  0  0  0  0  0  0
    4.4662    0.3631   -1.1228 H   0  0  0  0  0  0  0  0  0  0  0  0
    1.2707    0.9177    1.7610 H   0  0  0  0  0  0  0  0  0  0  0  0
   -0.0787    0.0531   -1.8646 H   0  0  0  0  0  0  0  0  0  0  0  0
   -0.0911   -1.6794   -1.3151 H   0  0  0  0  0  0  0  0  0  0  0  0
   -2.2823   -1.4480   -0.4074 H   0  0  0  0  0  0  0  0  0  0  0  0
   -2.3622    0.2467   -1.1680 H   0  0  0  0  0  0  0  0  0  0  0  0
   -1.6852   -0.3946    1.6310 H   0  0  0  0  0  0  0  0  0  0  0  0
   -2.5116    1.6722    0.8498 H   0  0  0  0  0  0  0  0  0  0  0  0
  1  2  3  0
  2  3  1  0
  3  4  1  0
  4  5  1  0
  5  6  1  0
  6  7  1  0
  7  8  1  0
  8  9  1  0
  5  3  1  0
  8  5  1  0
  1 10  1  0
  3 11  1  0
  6 12  1  0
  6 13  1  0
  7 14  1  0
  7 15  1  0
  8 16  1  0
  9 17  1  0
M  END
