
     RDKit          3D

 18 18  0  0  0  0  0  0  0  0999 V2000
   -3.0322    1.3542    0.5292 C   0  0  0  0  0  0  0  0  0  0  0  0
   -2.2478    0.4121    0.5956 C   0  0  0  0  0  0  0  0  0  0  0  0
   -1.3063   -0.7093    0.6550 C   0  0  0  0  0  0  0  0  0  0  0  0
   -0.0096   -0.2847    1.3089 C   0  0  0  0  0  0  0  0  0  0  0  0
    0.5173   -0.0440   -0.1064 C   0  0  0  0  0  0  0  0  0  0  0  0
    1.7625   -0.6007   -0.3061 O   0  0  0  0  0  0  0  0  0  0  0  0
    2.5664    0.3774   -0.9061 C   0  0  0  0  0  0  0  0  0  0  0  0
   -0.5692   -0.9172   -0.6794 C   0  0  0  0  0  0  0  0  0  0  0  0
   -3.6946    2.1762    0.4703 H   0  0  0  0  0  0  0  0  0  0  0  0
   -1.7364   -1.6480    1.0482 H   0  0  0  0  0  0  0  0  0  0  0  0
    0.5275   -1.1281    1.7895 H   0  0  0  0  0  0  0  0  0  0  0  0
   -0.0496    0.6377    1.8897 H   0  0  0  0  0  0  0  0  0  0  0  0
    0.3897    1.0013   -0.4386 H   0  0  0  0  0  0  0  0  0  0  0  0
    3.5558   -0.0771   -1.0613 H   0  0  0  0  0  0  0  0  0  0  0  0
    2.1089    0.6378   -1.8631 H   0  0  0  0  0  0  0  0  0  0  0  0
    2.6734    1.2344   -0.2118 H   0  0  0  0  0  0  0  0  0  0  0  0
   -0.2996   -1.9588   -0.8719 H   0  0  0  0  0  0  0  0  0  0  0  0
   -1.1563   -0.4632   -1.4848 H   0  0  0  0  0  0  0  0  0  0  0  0
  1  2  3  0
  2  3  1  0
  3  4  1  0
  4  5  1  0
  5  6  1  0
  6  7  1  0
  5  8  1  0
  8  3  1  0
  1  9  1  0
  3 10  1  0
  4 11  1  0
  4 12  1  0
  5 13  1  0
  7 14  1  0
  7 15  1  0
  7 16  1  0
  8 17  1  0
  8 18  1  0
M  END
