
     RDKit          3D

 23 22  0  0  0  0  0  0  0  0999 V2000
    2.8667    2.1732    2.5585 C   0  0  0  0  0  0  0  0  0  0  0  0
    2.2271    1.1171    2.0792 C   0  0  0  0  0  0  0  0  0  0  0  0
    1.5738    0.0614    1.5762 C   0  0  0  0  0  0  0  0  0  0  0  0
    1.7087   -0.2773    0.1240 C   0  0  0  0  0  0  0  0  0  0  0  0
    0.4810   -0.8802   -0.5772 C   0  0  0  0  0  0  0  0  0  0  0  0
    0.8017   -0.9588   -1.9472 O   0  0  0  0  0  0  0  0  0  0  0  0
   -0.7314   -0.0448   -0.3569 C   0  0  0  0  0  0  0  0  0  0  0  0
   -1.8787   -0.5650   -1.1890 C   0  0  0  0  0  0  0  0  0  0  0  0
   -3.1882    0.1452   -0.8789 C   0  0  0  0  0  0  0  0  0  0  0  0
    3.3504    2.9602    2.9335 H   0  0  0  0  0  0  0  0  0  0  0  0
    1.8206   -0.9260    2.1719 H   0  0  0  0  0  0  0  0  0  0  0  0
    0.4477    0.0941    1.8337 H   0  0  0  0  0  0  0  0  0  0  0  0
    2.0867    0.5336   -0.4790 H   0  0  0  0  0  0  0  0  0  0  0  0
    2.4937   -1.1449    0.0010 H   0  0  0  0  0  0  0  0  0  0  0  0
    0.2799   -1.9279   -0.2049 H   0  0  0  0  0  0  0  0  0  0  0  0
    1.3242   -0.1291   -2.1628 H   0  0  0  0  0  0  0  0  0  0  0  0
   -0.5694    1.0063   -0.5744 H   0  0  0  0  0  0  0  0  0  0  0  0
   -1.1097   -0.2215    0.7204 H   0  0  0  0  0  0  0  0  0  0  0  0
   -2.0124   -1.6494   -1.0587 H   0  0  0  0  0  0  0  0  0  0  0  0
   -1.5884   -0.3744   -2.2544 H   0  0  0  0  0  0  0  0  0  0  0  0
   -3.2345    1.1268   -1.3948 H   0  0  0  0  0  0  0  0  0  0  0  0
   -3.1338    0.3701    0.2370 H   0  0  0  0  0  0  0  0  0  0  0  0
   -4.0156   -0.4886   -1.1572 H   0  0  0  0  0  0  0  0  0  0  0  0
  1  2  3  0
  2  3  1  0
  3  4  1  0
  4  5  1  0
  5  6  1  0
  5  7  1  0
  7  8  1  0
  8  9  1  0
  1 10  1  0
  3 11  1  0
  3 12  1  0
  4 13  1  0
  4 14  1  0
  5 15  1  0
  6 16  1  0
  7 17  1  0
  7 18  1  0
  8 19  1  0
  8 20  1  0
  9 21  1  0
  9 22  1  0
  9 23  1  0
M  END
