
     RDKit          3D

 19 19  0  0  0  0  0  0  0  0999 V2000
   -2.2849   -1.8895    1.9946 C   0  0  0  0  0  0  0  0  0  0  0  0
   -1.5767   -1.8170    1.0863 C   0  0  0  0  0  0  0  0  0  0  0  0
   -0.6202   -1.6983   -0.1275 C   0  0  0  0  0  0  0  0  0  0  0  0
   -1.1720   -0.0610   -0.3038 C   0  0  0  0  0  0  0  0  0  0  0  0
   -0.4117    0.2921   -1.5097 C   0  0  0  0  0  0  0  0  0  0  0  0
   -0.0020    0.7646   -0.1297 C   0  0  0  0  0  0  0  0  0  0  0  0
    0.6121    2.1288   -0.1664 C   0  0  0  0  0  0  0  0  0  0  0  0
    2.1318    1.6772    0.0867 C   0  0  0  0  0  0  0  0  0  0  0  0
    3.2961    1.3346    0.2945 C   0  0  0  0  0  0  0  0  0  0  0  0
   -3.0339   -1.9863    2.9704 H   0  0  0  0  0  0  0  0  0  0  0  0
    0.3435   -1.5822    0.2771 H   0  0  0  0  0  0  0  0  0  0  0  0
   -0.9270   -2.0755   -0.9895 H   0  0  0  0  0  0  0  0  0  0  0  0
   -2.1311   -0.1224   -0.0095 H   0  0  0  0  0  0  0  0  0  0  0  0
    0.3724   -0.4778   -1.9373 H   0  0  0  0  0  0  0  0  0  0  0  0
   -0.5427    1.0402   -2.2956 H   0  0  0  0  0  0  0  0  0  0  0  0
    0.7568    0.0990    0.5222 H   0  0  0  0  0  0  0  0  0  0  0  0
    0.6090    2.6730   -1.0023 H   0  0  0  0  0  0  0  0  0  0  0  0
    0.3695    2.7350    0.7678 H   0  0  0  0  0  0  0  0  0  0  0  0
    4.2109    1.0705    0.4716 H   0  0  0  0  0  0  0  0  0  0  0  0
  1  2  3  0
  2  3  1  0
  3  4  1  0
  4  5  1  0
  5  6  1  0
  6  7  1  0
  7  8  1  0
  8  9  3  0
  6  4  1  0
  1 10  1  0
  3 11  1  0
  3 12  1  0
  4 13  1  0
  5 14  1  0
  5 15  1  0
  6 16  1  0
  7 17  1  0
  7 18  1  0
  9 19  1  0
M  END
