
     RDKit          3D

 12 11  0  0  0  0  0  0  0  0999 V2000
    3.2993   -0.7112   -0.1177 C   0  0  0  0  0  0  0  0  0  0  0  0
    2.2150   -0.2220    0.1512 C   0  0  0  0  0  0  0  0  0  0  0  0
    0.9425    0.3674    0.4594 C   0  0  0  0  0  0  0  0  0  0  0  0
    0.9147    1.3176    1.2827 O   0  0  0  0  0  0  0  0  0  0  0  0
   -0.3075   -0.1167   -0.1641 C   0  0  0  0  0  0  0  0  0  0  0  0
   -1.3952    0.6295    0.3106 O   0  0  0  0  0  0  0  0  0  0  0  0
   -2.7020    0.4375   -0.0675 C   0  0  0  0  0  0  0  0  0  0  0  0
   -2.9643   -0.4787   -0.9081 O   0  0  0  0  0  0  0  0  0  0  0  0
    4.2474   -1.1208   -0.3589 H   0  0  0  0  0  0  0  0  0  0  0  0
   -0.2146    0.0521   -1.2528 H   0  0  0  0  0  0  0  0  0  0  0  0
   -0.5138   -1.1804    0.0303 H   0  0  0  0  0  0  0  0  0  0  0  0
   -3.5216    1.0257    0.3127 H   0  0  0  0  0  0  0  0  0  0  0  0
  1  2  3  0
  2  3  1  0
  3  4  2  0
  3  5  1  0
  5  6  1  0
  6  7  1  0
  7  8  2  0
  1  9  1  0
  5 10  1  0
  5 11  1  0
  7 12  1  0
M  END
