
     RDKit          3D

 17 17  0  0  0  0  0  0  0  0999 V2000
    3.0957   -0.0757    0.4194 C   0  0  0  0  0  0  0  0  0  0  0  0
    1.6518   -0.3575    0.3505 C   0  0  0  0  0  0  0  0  0  0  0  0
    0.4319   -0.5961    0.2705 C   0  0  0  0  0  0  0  0  0  0  0  0
    0.3078   -1.9221   -0.5487 O   0  0  0  0  0  0  0  0  0  0  0  0
   -0.5688    0.2186   -0.1560 C   0  0  0  0  0  0  0  0  0  0  0  0
   -0.3276    0.5890   -1.5697 C   0  0  0  0  0  0  0  0  0  0  0  0
   -1.0169    0.1041   -2.4744 O   0  0  0  0  0  0  0  0  0  0  0  0
   -1.8605   -0.0348    0.3668 C   0  0  0  0  0  0  0  0  0  0  0  0
   -1.1039    1.2042    0.8283 C   0  0  0  0  0  0  0  0  0  0  0  0
    4.2903    0.1723    0.4922 H   0  0  0  0  0  0  0  0  0  0  0  0
    0.1608   -1.1147    1.4381 H   0  0  0  0  0  0  0  0  0  0  0  0
    1.1878   -2.2034   -0.8645 H   0  0  0  0  0  0  0  0  0  0  0  0
    0.3885    1.2870   -1.8331 H   0  0  0  0  0  0  0  0  0  0  0  0
   -2.7435    0.1207   -0.2335 H   0  0  0  0  0  0  0  0  0  0  0  0
   -2.0362   -0.7873    1.1692 H   0  0  0  0  0  0  0  0  0  0  0  0
   -1.3022    2.1979    0.4078 H   0  0  0  0  0  0  0  0  0  0  0  0
   -0.5550    1.1978    1.7855 H   0  0  0  0  0  0  0  0  0  0  0  0
  1  2  3  0
  2  3  1  0
  3  4  1  0
  3  5  1  0
  5  6  1  0
  6  7  2  0
  5  8  1  0
  8  9  1  0
  9  5  1  0
  1 10  1  0
  3 11  1  0
  4 12  1  0
  6 13  1  0
  8 14  1  0
  8 15  1  0
  9 16  1  0
  9 17  1  0
M  END
