
     RDKit          3D

 17 17  0  0  0  0  0  0  0  0999 V2000
    1.8828    0.7625   -2.3497 C   0  0  0  0  0  0  0  0  0  0  0  0
    1.0628   -0.0288   -1.8259 C   0  0  0  0  0  0  0  0  0  0  0  0
    0.0765   -0.9627   -1.1866 C   0  0  0  0  0  0  0  0  0  0  0  0
   -0.4315   -0.2627    0.0602 C   0  0  0  0  0  0  0  0  0  0  0  0
   -1.1135    0.9708   -0.1551 C   0  0  0  0  0  0  0  0  0  0  0  0
   -1.7472    2.1084   -0.3307 C   0  0  0  0  0  0  0  0  0  0  0  0
    0.7213   -0.1844    1.1063 C   0  0  0  0  0  0  0  0  0  0  0  0
   -0.5473   -0.9868    1.3466 C   0  0  0  0  0  0  0  0  0  0  0  0
   -1.3688   -0.4106    2.3002 O   0  0  0  0  0  0  0  0  0  0  0  0
    2.5129    1.3699   -2.7684 H   0  0  0  0  0  0  0  0  0  0  0  0
    0.6728   -1.8614   -0.9157 H   0  0  0  0  0  0  0  0  0  0  0  0
   -0.7035   -1.1703   -1.9187 H   0  0  0  0  0  0  0  0  0  0  0  0
   -2.2086    2.9669   -0.4529 H   0  0  0  0  0  0  0  0  0  0  0  0
    0.8119    0.7927    1.6413 H   0  0  0  0  0  0  0  0  0  0  0  0
    1.6368   -0.7442    0.9552 H   0  0  0  0  0  0  0  0  0  0  0  0
   -0.5137   -2.0869    1.4040 H   0  0  0  0  0  0  0  0  0  0  0  0
   -0.7438   -0.2724    3.0898 H   0  0  0  0  0  0  0  0  0  0  0  0
  1  2  3  0
  2  3  1  0
  3  4  1  0
  4  5  1  0
  5  6  3  0
  4  7  1  0
  7  8  1  0
  8  9  1  0
  8  4  1  0
  1 10  1  0
  3 11  1  0
  3 12  1  0
  6 13  1  0
  7 14  1  0
  7 15  1  0
  8 16  1  0
  9 17  1  0
M  END
