
     RDKit          3D

 13 12  0  0  0  0  0  0  0  0999 V2000
    2.5755   -1.3664   -0.6018 C   0  0  0  0  0  0  0  0  0  0  0  0
    1.4325   -0.7497   -0.4129 C   0  0  0  0  0  0  0  0  0  0  0  0
    0.2075   -0.0724   -0.1889 C   0  0  0  0  0  0  0  0  0  0  0  0
    0.2553    1.3434   -0.2277 C   0  0  0  0  0  0  0  0  0  0  0  0
    0.2747    2.5477   -0.2618 C   0  0  0  0  0  0  0  0  0  0  0  0
   -0.3058   -0.4080    1.1197 O   0  0  0  0  0  0  0  0  0  0  0  0
   -1.7058   -0.6749    0.8534 C   0  0  0  0  0  0  0  0  0  0  0  0
    3.4908   -1.8570   -0.7712 H   0  0  0  0  0  0  0  0  0  0  0  0
   -0.5755   -0.3719   -0.9298 H   0  0  0  0  0  0  0  0  0  0  0  0
    0.2789    3.8150   -0.3109 H   0  0  0  0  0  0  0  0  0  0  0  0
   -1.7033   -1.4583    0.0455 H   0  0  0  0  0  0  0  0  0  0  0  0
   -2.1019   -1.0141    1.7852 H   0  0  0  0  0  0  0  0  0  0  0  0
   -2.1228    0.2665    0.4649 H   0  0  0  0  0  0  0  0  0  0  0  0
  1  2  3  0
  2  3  1  0
  3  4  1  0
  4  5  3  0
  3  6  1  0
  6  7  1  0
  1  8  1  0
  3  9  1  0
  5 10  1  0
  7 11  1  0
  7 12  1  0
  7 13  1  0
M  END
