
     RDKit          3D

 19 18  0  0  0  0  0  0  0  0999 V2000
   -0.6010    2.1847   -1.8904 C   0  0  0  0  0  0  0  0  0  0  0  0
    0.0948    1.6075   -0.9589 C   0  0  0  0  0  0  0  0  0  0  0  0
    0.9423    0.9134    0.1339 C   0  0  0  0  0  0  0  0  0  0  0  0
    1.4141   -0.0738   -0.2980 O   0  0  0  0  0  0  0  0  0  0  0  0
    1.9815   -1.2638   -0.8153 C   0  0  0  0  0  0  0  0  0  0  0  0
    1.8543   -2.2244   -0.0837 O   0  0  0  0  0  0  0  0  0  0  0  0
   -0.6597    0.2444    0.6524 C   0  0  0  0  0  0  0  0  0  0  0  0
   -0.3420   -0.4390    1.8974 C   0  0  0  0  0  0  0  0  0  0  0  0
   -0.9927   -0.7223   -0.4642 C   0  0  0  0  0  0  0  0  0  0  0  0
   -1.2934    2.7387   -2.8273 H   0  0  0  0  0  0  0  0  0  0  0  0
    0.6574    1.6570    0.9327 H   0  0  0  0  0  0  0  0  0  0  0  0
    2.4389   -0.9687   -1.7781 H   0  0  0  0  0  0  0  0  0  0  0  0
   -1.2402    1.0840    0.6762 H   0  0  0  0  0  0  0  0  0  0  0  0
    0.2402    0.2334    2.6006 H   0  0  0  0  0  0  0  0  0  0  0  0
   -1.3484   -0.7288    2.4729 H   0  0  0  0  0  0  0  0  0  0  0  0
    0.1540   -1.4296    1.8221 H   0  0  0  0  0  0  0  0  0  0  0  0
   -2.1318   -0.7471   -0.5218 H   0  0  0  0  0  0  0  0  0  0  0  0
   -0.6136   -0.3546   -1.3969 H   0  0  0  0  0  0  0  0  0  0  0  0
   -0.5545   -1.7111   -0.1535 H   0  0  0  0  0  0  0  0  0  0  0  0
  1  2  3  0
  2  3  1  0
  3  4  1  0
  4  5  1  0
  5  6  2  0
  3  7  1  0
  7  8  1  0
  7  9  1  0
  1 10  1  0
  3 11  1  0
  5 12  1  0
  7 13  1  0
  8 14  1  0
  8 15  1  0
  8 16  1  0
  9 17  1  0
  9 18  1  0
  9 19  1  0
M  END
