
     RDKit          3D

 18 18  0  0  0  0  0  0  0  0999 V2000
    2.9183    0.5111    0.2981 C   0  0  0  0  0  0  0  0  0  0  0  0
    2.1283   -0.3884    0.4232 C   0  0  0  0  0  0  0  0  0  0  0  0
    1.1783   -1.4453    0.5907 C   0  0  0  0  0  0  0  0  0  0  0  0
   -0.1739   -1.1165    0.0636 C   0  0  0  0  0  0  0  0  0  0  0  0
   -0.3266   -0.8073   -1.3001 O   0  0  0  0  0  0  0  0  0  0  0  0
   -0.7541    0.1263   -0.2184 C   0  0  0  0  0  0  0  0  0  0  0  0
   -2.2870    0.2502   -0.1355 C   0  0  0  0  0  0  0  0  0  0  0  0
   -0.1324    1.4437   -0.4374 C   0  0  0  0  0  0  0  0  0  0  0  0
    3.6125    1.3265    0.1772 H   0  0  0  0  0  0  0  0  0  0  0  0
    1.0467   -1.7340    1.6702 H   0  0  0  0  0  0  0  0  0  0  0  0
    1.4970   -2.4108    0.0966 H   0  0  0  0  0  0  0  0  0  0  0  0
   -0.8945   -1.9546    0.3318 H   0  0  0  0  0  0  0  0  0  0  0  0
   -2.6650    1.0711   -0.7460 H   0  0  0  0  0  0  0  0  0  0  0  0
   -2.4866    0.3786    0.9578 H   0  0  0  0  0  0  0  0  0  0  0  0
   -2.7578   -0.7360   -0.4035 H   0  0  0  0  0  0  0  0  0  0  0  0
    0.6535    1.4885   -1.2056 H   0  0  0  0  0  0  0  0  0  0  0  0
    0.3227    1.7829    0.5313 H   0  0  0  0  0  0  0  0  0  0  0  0
   -0.8794    2.2143   -0.6941 H   0  0  0  0  0  0  0  0  0  0  0  0
  1  2  3  0
  2  3  1  0
  3  4  1  0
  4  5  1  0
  5  6  1  0
  6  7  1  0
  6  8  1  0
  6  4  1  0
  1  9  1  0
  3 10  1  0
  3 11  1  0
  4 12  1  0
  7 13  1  0
  7 14  1  0
  7 15  1  0
  8 16  1  0
  8 17  1  0
  8 18  1  0
M  END
