
     RDKit          3D

 21 22  0  0  0  0  0  0  0  0999 V2000
   -1.8940   -0.5542    1.1816 C   0  0  0  0  0  0  0  0  0  0  0  0
   -1.5047   -0.2088    0.7262 C   0  0  0  0  0  0  0  0  0  0  0  0
   -0.7870    0.4441   -0.1154 C   0  0  0  0  0  0  0  0  0  0  0  0
   -1.3466    0.6351   -1.5877 C   0  0  0  0  0  0  0  0  0  0  0  0
   -0.5378   -0.6768   -1.6055 C   0  0  0  0  0  0  0  0  0  0  0  0
    0.4866    0.2917   -0.9288 C   0  0  0  0  0  0  0  0  0  0  0  0
    0.4670    1.1589    0.2367 C   0  0  0  0  0  0  0  0  0  0  0  0
    1.2557    0.5548    1.4174 C   0  0  0  0  0  0  0  0  0  0  0  0
    1.7109   -0.8319    0.8794 C   0  0  0  0  0  0  0  0  0  0  0  0
   -2.8534   -1.4422    2.3373 H   0  0  0  0  0  0  0  0  0  0  0  0
   -2.4570    0.5477   -1.4357 H   0  0  0  0  0  0  0  0  0  0  0  0
   -1.0231    1.4359   -2.1988 H   0  0  0  0  0  0  0  0  0  0  0  0
   -0.9269   -1.4720   -0.9170 H   0  0  0  0  0  0  0  0  0  0  0  0
   -0.1078   -1.0674   -2.4657 H   0  0  0  0  0  0  0  0  0  0  0  0
    0.8934    0.8857   -1.7452 H   0  0  0  0  0  0  0  0  0  0  0  0
    0.6876    2.2283    0.1439 H   0  0  0  0  0  0  0  0  0  0  0  0
    0.5119    0.2618    2.2358 H   0  0  0  0  0  0  0  0  0  0  0  0
    2.0601    1.1798    1.7564 H   0  0  0  0  0  0  0  0  0  0  0  0
    2.3429   -1.3522    1.6060 H   0  0  0  0  0  0  0  0  0  0  0  0
    2.2292   -0.6610   -0.1138 H   0  0  0  0  0  0  0  0  0  0  0  0
    0.7932   -1.3573    0.5929 H   0  0  0  0  0  0  0  0  0  0  0  0
  1  2  3  0
  2  3  1  0
  3  4  1  0
  4  5  1  0
  5  6  1  0
  6  7  1  0
  7  8  1  0
  8  9  1  0
  6  3  1  0
  7  3  1  0
  1 10  1  0
  4 11  1  0
  4 12  1  0
  5 13  1  0
  5 14  1  0
  6 15  1  0
  7 16  1  0
  8 17  1  0
  8 18  1  0
  9 19  1  0
  9 20  1  0
  9 21  1  0
M  END
