
     RDKit          3D

 17 16  0  0  0  0  0  0  0  0999 V2000
    1.9537    2.2883   -0.6641 C   0  0  0  0  0  0  0  0  0  0  0  0
    1.0109    1.3234   -1.0243 C   0  0  0  0  0  0  0  0  0  0  0  0
   -0.0031    0.2760   -1.3872 C   0  0  0  0  0  0  0  0  0  0  0  0
   -0.5135    0.3788   -2.4789 O   0  0  0  0  0  0  0  0  0  0  0  0
   -0.1162   -0.6340   -0.2491 C   0  0  0  0  0  0  0  0  0  0  0  0
   -1.2135   -1.5881   -0.3108 C   0  0  0  0  0  0  0  0  0  0  0  0
    1.0433   -0.8509    0.6078 C   0  0  0  0  0  0  0  0  0  0  0  0
   -0.8557    0.4932    0.7011 C   0  0  0  0  0  0  0  0  0  0  0  0
   -1.4521    1.4445    1.4986 C   0  0  0  0  0  0  0  0  0  0  0  0
    2.6230    2.9490   -0.4149 H   0  0  0  0  0  0  0  0  0  0  0  0
   -1.5602   -1.8110    0.7388 H   0  0  0  0  0  0  0  0  0  0  0  0
   -1.0355   -2.4737   -0.9114 H   0  0  0  0  0  0  0  0  0  0  0  0
   -2.1735   -1.0868   -0.7366 H   0  0  0  0  0  0  0  0  0  0  0  0
    0.7342   -0.7968    1.7247 H   0  0  0  0  0  0  0  0  0  0  0  0
    1.8627   -0.0972    0.4573 H   0  0  0  0  0  0  0  0  0  0  0  0
    1.4932   -1.8369    0.4735 H   0  0  0  0  0  0  0  0  0  0  0  0
   -1.7979    2.0221    1.9753 H   0  0  0  0  0  0  0  0  0  0  0  0
  1  2  3  0
  2  3  1  0
  3  4  2  0
  3  5  1  0
  5  6  1  0
  5  7  1  0
  5  8  1  0
  8  9  3  0
  1 10  1  0
  6 11  1  0
  6 12  1  0
  6 13  1  0
  7 14  1  0
  7 15  1  0
  7 16  1  0
  9 17  1  0
M  END
