
     RDKit          3D

 16 15  0  0  0  0  0  0  0  0999 V2000
    2.2552    2.0873   -0.6435 C   0  0  0  0  0  0  0  0  0  0  0  0
    1.4806    1.1614   -0.6698 C   0  0  0  0  0  0  0  0  0  0  0  0
    0.5551    0.0275   -0.6834 C   0  0  0  0  0  0  0  0  0  0  0  0
    1.2271   -1.1808   -0.1319 C   0  0  0  0  0  0  0  0  0  0  0  0
    2.3220   -1.1155    0.4019 O   0  0  0  0  0  0  0  0  0  0  0  0
   -0.6092    0.3351    0.2353 C   0  0  0  0  0  0  0  0  0  0  0  0
   -1.6027   -0.8037    0.2635 C   0  0  0  0  0  0  0  0  0  0  0  0
   -2.6503   -0.5045    1.1025 O   0  0  0  0  0  0  0  0  0  0  0  0
    2.9381    2.9095   -0.6092 H   0  0  0  0  0  0  0  0  0  0  0  0
    0.2048   -0.1138   -1.7202 H   0  0  0  0  0  0  0  0  0  0  0  0
    0.7859   -2.1696   -0.1745 H   0  0  0  0  0  0  0  0  0  0  0  0
   -1.1272    1.2315   -0.1981 H   0  0  0  0  0  0  0  0  0  0  0  0
   -0.2937    0.6103    1.2424 H   0  0  0  0  0  0  0  0  0  0  0  0
   -2.0172   -0.9612   -0.7626 H   0  0  0  0  0  0  0  0  0  0  0  0
   -1.0532   -1.7220    0.5847 H   0  0  0  0  0  0  0  0  0  0  0  0
   -2.4153    0.2085    1.7628 H   0  0  0  0  0  0  0  0  0  0  0  0
  1  2  3  0
  2  3  1  0
  3  4  1  0
  4  5  2  0
  3  6  1  0
  6  7  1  0
  7  8  1  0
  1  9  1  0
  3 10  1  0
  4 11  1  0
  6 12  1  0
  6 13  1  0
  7 14  1  0
  7 15  1  0
  8 16  1  0
M  END
