
     RDKit          3D

 21 22  0  0  0  0  0  0  0  0999 V2000
    2.3722   -2.4104   -0.9112 C   0  0  0  0  0  0  0  0  0  0  0  0
    2.0769   -1.4967   -0.7648 C   0  0  0  0  0  0  0  0  0  0  0  0
    1.6852   -0.2665   -0.5606 C   0  0  0  0  0  0  0  0  0  0  0  0
    0.2242    0.2093   -0.2727 C   0  0  0  0  0  0  0  0  0  0  0  0
    0.0157    1.7586   -0.2169 C   0  0  0  0  0  0  0  0  0  0  0  0
   -0.7510    1.6338    1.0363 C   0  0  0  0  0  0  0  0  0  0  0  0
   -0.2566    0.2482    1.1543 C   0  0  0  0  0  0  0  0  0  0  0  0
   -0.7558   -0.7309    0.2026 C   0  0  0  0  0  0  0  0  0  0  0  0
   -2.1406   -0.6532   -0.4350 C   0  0  0  0  0  0  0  0  0  0  0  0
    2.7513   -3.6356   -1.0950 H   0  0  0  0  0  0  0  0  0  0  0  0
    2.1620    0.0340    0.6047 H   0  0  0  0  0  0  0  0  0  0  0  0
    2.1921    0.6463   -0.9821 H   0  0  0  0  0  0  0  0  0  0  0  0
   -0.6038    2.0668   -1.1078 H   0  0  0  0  0  0  0  0  0  0  0  0
    0.9592    2.2668   -0.1122 H   0  0  0  0  0  0  0  0  0  0  0  0
   -0.4409    2.3378    1.8642 H   0  0  0  0  0  0  0  0  0  0  0  0
   -1.8495    1.8206    0.9330 H   0  0  0  0  0  0  0  0  0  0  0  0
    0.3474   -0.0945    1.9942 H   0  0  0  0  0  0  0  0  0  0  0  0
   -0.4496   -1.7659    0.3592 H   0  0  0  0  0  0  0  0  0  0  0  0
   -2.6325   -1.6341   -0.3229 H   0  0  0  0  0  0  0  0  0  0  0  0
   -2.7686    0.0999    0.1370 H   0  0  0  0  0  0  0  0  0  0  0  0
   -2.1372   -0.4345   -1.5042 H   0  0  0  0  0  0  0  0  0  0  0  0
  1  2  3  0
  2  3  1  0
  3  4  1  0
  4  5  1  0
  5  6  1  0
  6  7  1  0
  7  8  1  0
  8  9  1  0
  7  4  1  0
  8  4  1  0
  1 10  1  0
  3 11  1  0
  3 12  1  0
  5 13  1  0
  5 14  1  0
  6 15  1  0
  6 16  1  0
  7 17  1  0
  8 18  1  0
  9 19  1  0
  9 20  1  0
  9 21  1  0
M  END
