
     RDKit          3D

 21 21  0  0  0  0  0  0  0  0999 V2000
    2.9828    0.7050    0.5388 C   0  0  0  0  0  0  0  0  0  0  0  0
    1.9135    0.2103    0.2823 C   0  0  0  0  0  0  0  0  0  0  0  0
    0.6082   -0.3959   -0.0522 C   0  0  0  0  0  0  0  0  0  0  0  0
    0.8274   -1.2616   -1.2867 C   0  0  0  0  0  0  0  0  0  0  0  0
    0.1134   -1.1795    0.9538 O   0  0  0  0  0  0  0  0  0  0  0  0
   -0.6846   -0.4225    1.7727 C   0  0  0  0  0  0  0  0  0  0  0  0
   -0.9728    0.8791    1.1045 C   0  0  0  0  0  0  0  0  0  0  0  0
   -0.4088    0.6695   -0.2826 C   0  0  0  0  0  0  0  0  0  0  0  0
   -1.4767    0.2679   -1.2710 C   0  0  0  0  0  0  0  0  0  0  0  0
    3.9264    1.1366    0.7468 H   0  0  0  0  0  0  0  0  0  0  0  0
    1.6939   -1.9377   -1.1486 H   0  0  0  0  0  0  0  0  0  0  0  0
   -0.0799   -1.8728   -1.4652 H   0  0  0  0  0  0  0  0  0  0  0  0
    0.9721   -0.6471   -2.1953 H   0  0  0  0  0  0  0  0  0  0  0  0
   -1.5878   -0.9550    2.1431 H   0  0  0  0  0  0  0  0  0  0  0  0
   -0.0761   -0.1926    2.6946 H   0  0  0  0  0  0  0  0  0  0  0  0
   -0.4733    1.7414    1.5801 H   0  0  0  0  0  0  0  0  0  0  0  0
   -2.0876    1.0449    1.0531 H   0  0  0  0  0  0  0  0  0  0  0  0
    0.1102    1.5845   -0.6064 H   0  0  0  0  0  0  0  0  0  0  0  0
   -1.0567   -0.2199   -2.1634 H   0  0  0  0  0  0  0  0  0  0  0  0
   -1.9712    1.2000   -1.6111 H   0  0  0  0  0  0  0  0  0  0  0  0
   -2.2723   -0.3545   -0.7873 H   0  0  0  0  0  0  0  0  0  0  0  0
  1  2  3  0
  2  3  1  0
  3  4  1  0
  3  5  1  0
  5  6  1  0
  6  7  1  0
  7  8  1  0
  8  9  1  0
  8  3  1  0
  1 10  1  0
  4 11  1  0
  4 12  1  0
  4 13  1  0
  6 14  1  0
  6 15  1  0
  7 16  1  0
  7 17  1  0
  8 18  1  0
  9 19  1  0
  9 20  1  0
  9 21  1  0
M  END
