
     RDKit          3D

 14 14  0  0  0  0  0  0  0  0999 V2000
    2.6349   -0.2377   -0.6359 C   0  0  0  0  0  0  0  0  0  0  0  0
    1.5639   -0.4163   -0.1094 C   0  0  0  0  0  0  0  0  0  0  0  0
    0.2672   -0.6152    0.5430 C   0  0  0  0  0  0  0  0  0  0  0  0
   -0.8731   -0.7566   -0.4518 C   0  0  0  0  0  0  0  0  0  0  0  0
   -1.1903    0.7213   -0.3042 C   0  0  0  0  0  0  0  0  0  0  0  0
   -0.3521    0.7278    0.9411 C   0  0  0  0  0  0  0  0  0  0  0  0
    3.5857   -0.0610   -1.1107 H   0  0  0  0  0  0  0  0  0  0  0  0
    0.2635   -1.3650    1.3527 H   0  0  0  0  0  0  0  0  0  0  0  0
   -0.5526   -1.0567   -1.4796 H   0  0  0  0  0  0  0  0  0  0  0  0
   -1.7214   -1.3768   -0.1037 H   0  0  0  0  0  0  0  0  0  0  0  0
   -0.8025    1.2654   -1.1694 H   0  0  0  0  0  0  0  0  0  0  0  0
   -2.2562    0.9435   -0.0778 H   0  0  0  0  0  0  0  0  0  0  0  0
   -0.9590    0.6786    1.8592 H   0  0  0  0  0  0  0  0  0  0  0  0
    0.3922    1.5486    0.8969 H   0  0  0  0  0  0  0  0  0  0  0  0
  1  2  3  0
  2  3  1  0
  3  4  1  0
  4  5  1  0
  5  6  1  0
  6  3  1  0
  1  7  1  0
  3  8  1  0
  4  9  1  0
  4 10  1  0
  5 11  1  0
  5 12  1  0
  6 13  1  0
  6 14  1  0
M  END
