
     RDKit          3D

 19 19  0  0  0  0  0  0  0  0999 V2000
    2.8696    1.8130    2.4222 C   0  0  0  0  0  0  0  0  0  0  0  0
    1.7067    0.9309    2.1052 C   0  0  0  0  0  0  0  0  0  0  0  0
    0.5211    0.0497    1.7647 C   0  0  0  0  0  0  0  0  0  0  0  0
    0.3687    0.8153    0.2961 C   0  0  0  0  0  0  0  0  0  0  0  0
   -0.1997    0.0872   -0.7544 C   0  0  0  0  0  0  0  0  0  0  0  0
   -0.3074    0.9554   -1.8931 O   0  0  0  0  0  0  0  0  0  0  0  0
   -1.2830   -0.9060   -0.6860 C   0  0  0  0  0  0  0  0  0  0  0  0
   -1.9106   -1.3570   -1.9840 C   0  0  0  0  0  0  0  0  0  0  0  0
   -2.5421   -0.4158   -1.0735 O   0  0  0  0  0  0  0  0  0  0  0  0
    3.7361    2.4592    2.6632 H   0  0  0  0  0  0  0  0  0  0  0  0
   -0.2013    0.3508    2.3950 H   0  0  0  0  0  0  0  0  0  0  0  0
    1.1117   -0.8179    1.5341 H   0  0  0  0  0  0  0  0  0  0  0  0
   -0.5055    1.6177    0.5934 H   0  0  0  0  0  0  0  0  0  0  0  0
    1.1462    1.5234    0.2334 H   0  0  0  0  0  0  0  0  0  0  0  0
    0.6827   -0.6371   -1.2364 H   0  0  0  0  0  0  0  0  0  0  0  0
   -0.1737    1.8951   -1.6226 H   0  0  0  0  0  0  0  0  0  0  0  0
   -1.2109   -1.7590    0.0496 H   0  0  0  0  0  0  0  0  0  0  0  0
   -1.4350   -0.9690   -2.8632 H   0  0  0  0  0  0  0  0  0  0  0  0
   -2.3735   -2.3961   -1.9437 H   0  0  0  0  0  0  0  0  0  0  0  0
  1  2  3  0
  2  3  1  0
  3  4  1  0
  4  5  1  0
  5  6  1  0
  5  7  1  0
  7  8  1  0
  8  9  1  0
  9  7  1  0
  1 10  1  0
  3 11  1  0
  3 12  1  0
  4 13  1  0
  4 14  1  0
  5 15  1  0
  6 16  1  0
  7 17  1  0
  8 18  1  0
  8 19  1  0
M  END
