
     RDKit          3D

 19 20  0  0  0  0  0  0  0  0999 V2000
   -2.7369    2.0949   -0.1638 C   0  0  0  0  0  0  0  0  0  0  0  0
   -1.9628    1.1546   -0.1133 C   0  0  0  0  0  0  0  0  0  0  0  0
   -0.9843    0.0040   -0.0424 C   0  0  0  0  0  0  0  0  0  0  0  0
   -1.1737   -0.8336   -1.2738 C   0  0  0  0  0  0  0  0  0  0  0  0
    0.0620   -1.0694   -1.6774 C   0  0  0  0  0  0  0  0  0  0  0  0
    1.1477   -0.5432   -0.9798 C   0  0  0  0  0  0  0  0  0  0  0  0
    1.4619    0.1446    0.3012 C   0  0  0  0  0  0  0  0  0  0  0  0
    1.4244   -0.6303    1.5867 C   0  0  0  0  0  0  0  0  0  0  0  0
    0.3423    0.7001   -0.3884 C   0  0  0  0  0  0  0  0  0  0  0  0
   -3.4591    2.9996   -0.2218 H   0  0  0  0  0  0  0  0  0  0  0  0
   -0.9606   -0.5437    0.8482 H   0  0  0  0  0  0  0  0  0  0  0  0
   -2.1402   -1.1760   -1.7202 H   0  0  0  0  0  0  0  0  0  0  0  0
    0.1797   -1.7321   -2.5964 H   0  0  0  0  0  0  0  0  0  0  0  0
    1.9866   -0.2163   -1.7516 H   0  0  0  0  0  0  0  0  0  0  0  0
    2.4332    0.7966    0.2223 H   0  0  0  0  0  0  0  0  0  0  0  0
    2.3698   -0.7339    2.0618 H   0  0  0  0  0  0  0  0  0  0  0  0
    1.0202   -1.6961    1.3131 H   0  0  0  0  0  0  0  0  0  0  0  0
    0.6556   -0.2113    2.2802 H   0  0  0  0  0  0  0  0  0  0  0  0
    0.3341    1.4914   -1.1624 H   0  0  0  0  0  0  0  0  0  0  0  0
  1  2  3  0
  2  3  1  0
  3  4  1  0
  4  5  2  0
  5  6  1  0
  6  7  1  0
  7  8  1  0
  7  9  1  0
  9  3  1  0
  9  6  1  0
  1 10  1  0
  3 11  1  0
  4 12  1  0
  5 13  1  0
  6 14  1  0
  7 15  1  0
  8 16  1  0
  8 17  1  0
  8 18  1  0
  9 19  1  0
M  END
