
     RDKit          3D

 17 17  0  0  0  0  0  0  0  0999 V2000
    2.4236   -1.1321    0.5527 C   0  0  0  0  0  0  0  0  0  0  0  0
    1.3716   -0.5584    0.3607 C   0  0  0  0  0  0  0  0  0  0  0  0
    0.1144    0.1557    0.1237 C   0  0  0  0  0  0  0  0  0  0  0  0
   -0.4133    0.6992    1.4273 C   0  0  0  0  0  0  0  0  0  0  0  0
   -0.6359   -0.3303    2.2979 O   0  0  0  0  0  0  0  0  0  0  0  0
   -0.8634   -0.6653   -0.6786 C   0  0  0  0  0  0  0  0  0  0  0  0
   -0.5795    0.3013   -1.8154 C   0  0  0  0  0  0  0  0  0  0  0  0
    0.1876    1.1940   -0.9251 C   0  0  0  0  0  0  0  0  0  0  0  0
    0.6661    2.2908   -1.0120 O   0  0  0  0  0  0  0  0  0  0  0  0
    3.3621   -1.6379    0.7052 H   0  0  0  0  0  0  0  0  0  0  0  0
    0.3871    1.3516    1.8422 H   0  0  0  0  0  0  0  0  0  0  0  0
   -1.3353    1.3156    1.2758 H   0  0  0  0  0  0  0  0  0  0  0  0
   -0.6808   -1.2256    1.8988 H   0  0  0  0  0  0  0  0  0  0  0  0
   -1.9155   -0.6213   -0.3182 H   0  0  0  0  0  0  0  0  0  0  0  0
   -0.5775   -1.7131   -0.8663 H   0  0  0  0  0  0  0  0  0  0  0  0
    0.0002   -0.1621   -2.6311 H   0  0  0  0  0  0  0  0  0  0  0  0
   -1.5116    0.7380   -2.2374 H   0  0  0  0  0  0  0  0  0  0  0  0
  1  2  3  0
  2  3  1  0
  3  4  1  0
  4  5  1  0
  3  6  1  0
  6  7  1  0
  7  8  1  0
  8  9  2  0
  8  3  1  0
  1 10  1  0
  4 11  1  0
  4 12  1  0
  5 13  1  0
  6 14  1  0
  6 15  1  0
  7 16  1  0
  7 17  1  0
M  END
