
     RDKit          3D

 19 20  0  0  0  0  0  0  0  0999 V2000
    3.3500   -0.1728    0.9641 C   0  0  0  0  0  0  0  0  0  0  0  0
    2.3034   -0.1242    0.3702 C   0  0  0  0  0  0  0  0  0  0  0  0
    1.0501   -0.0795   -0.3655 C   0  0  0  0  0  0  0  0  0  0  0  0
    1.0363   -0.3397   -1.7308 O   0  0  0  0  0  0  0  0  0  0  0  0
    0.3043   -1.1189   -0.8017 C   0  0  0  0  0  0  0  0  0  0  0  0
   -1.0075   -0.4313   -0.4662 C   0  0  0  0  0  0  0  0  0  0  0  0
   -1.9287   -1.2119    0.4166 C   0  0  0  0  0  0  0  0  0  0  0  0
   -0.1519    0.6052    0.2638 C   0  0  0  0  0  0  0  0  0  0  0  0
   -0.3405    2.0102   -0.2132 C   0  0  0  0  0  0  0  0  0  0  0  0
    4.2826   -0.2322    1.5050 H   0  0  0  0  0  0  0  0  0  0  0  0
    0.3782   -2.1979   -0.8322 H   0  0  0  0  0  0  0  0  0  0  0  0
   -1.5506   -0.0093   -1.3341 H   0  0  0  0  0  0  0  0  0  0  0  0
   -2.1665   -2.1902   -0.0586 H   0  0  0  0  0  0  0  0  0  0  0  0
   -1.5061   -1.4407    1.4121 H   0  0  0  0  0  0  0  0  0  0  0  0
   -2.8699   -0.6497    0.5076 H   0  0  0  0  0  0  0  0  0  0  0  0
   -0.1287    0.4535    1.3557 H   0  0  0  0  0  0  0  0  0  0  0  0
    0.6680    2.4963   -0.3573 H   0  0  0  0  0  0  0  0  0  0  0  0
   -0.8569    2.6059    0.5458 H   0  0  0  0  0  0  0  0  0  0  0  0
   -0.8657    2.0270   -1.1813 H   0  0  0  0  0  0  0  0  0  0  0  0
  1  2  3  0
  2  3  1  0
  3  4  1  0
  4  5  1  0
  5  6  1  0
  6  7  1  0
  6  8  1  0
  8  9  1  0
  5  3  1  0
  8  3  1  0
  1 10  1  0
  5 11  1  0
  6 12  1  0
  7 13  1  0
  7 14  1  0
  7 15  1  0
  8 16  1  0
  9 17  1  0
  9 18  1  0
  9 19  1  0
M  END
