
     RDKit          3D

 19 20  0  0  0  0  0  0  0  0999 V2000
    2.5059   -2.3502   -0.3029 C   0  0  0  0  0  0  0  0  0  0  0  0
    1.7394   -1.4346   -0.2334 C   0  0  0  0  0  0  0  0  0  0  0  0
    0.8948   -0.3918   -0.1468 C   0  0  0  0  0  0  0  0  0  0  0  0
    0.8890    0.8176   -0.9881 C   0  0  0  0  0  0  0  0  0  0  0  0
   -0.1978    0.9571    0.0287 C   0  0  0  0  0  0  0  0  0  0  0  0
   -1.0367    2.0352    0.2211 C   0  0  0  0  0  0  0  0  0  0  0  0
    0.7020    0.4195    0.9466 O   0  0  0  0  0  0  0  0  0  0  0  0
   -0.5854   -0.4568   -0.2827 C   0  0  0  0  0  0  0  0  0  0  0  0
   -1.2290   -1.1678    0.8813 C   0  0  0  0  0  0  0  0  0  0  0  0
    3.2131   -3.1681   -0.3644 H   0  0  0  0  0  0  0  0  0  0  0  0
    0.4945    0.7320   -2.0221 H   0  0  0  0  0  0  0  0  0  0  0  0
    1.7604    1.4878   -0.8773 H   0  0  0  0  0  0  0  0  0  0  0  0
   -2.0567    1.8849   -0.2346 H   0  0  0  0  0  0  0  0  0  0  0  0
   -0.6298    2.9934   -0.1871 H   0  0  0  0  0  0  0  0  0  0  0  0
   -1.2520    2.2375    1.3029 H   0  0  0  0  0  0  0  0  0  0  0  0
   -1.0102   -0.6718   -1.2552 H   0  0  0  0  0  0  0  0  0  0  0  0
   -2.0790   -0.5052    1.2153 H   0  0  0  0  0  0  0  0  0  0  0  0
   -0.5239   -1.2605    1.7424 H   0  0  0  0  0  0  0  0  0  0  0  0
   -1.5985   -2.1582    0.5564 H   0  0  0  0  0  0  0  0  0  0  0  0
  1  2  3  0
  2  3  1  0
  3  4  1  0
  4  5  1  0
  5  6  1  0
  5  7  1  0
  5  8  1  0
  8  9  1  0
  7  3  1  0
  8  3  1  0
  1 10  1  0
  4 11  1  0
  4 12  1  0
  6 13  1  0
  6 14  1  0
  6 15  1  0
  8 16  1  0
  9 17  1  0
  9 18  1  0
  9 19  1  0
M  END
