
     RDKit          3D

 17 18  0  0  0  0  0  0  0  0999 V2000
    2.8664    1.2386   -0.4318 C   0  0  0  0  0  0  0  0  0  0  0  0
    1.8278    0.6783   -0.2029 C   0  0  0  0  0  0  0  0  0  0  0  0
    0.6262    0.0164    0.0850 C   0  0  0  0  0  0  0  0  0  0  0  0
    0.3808   -1.3571   -0.4447 C   0  0  0  0  0  0  0  0  0  0  0  0
   -0.5613   -1.3138    0.7583 C   0  0  0  0  0  0  0  0  0  0  0  0
   -1.6200   -0.3128    0.3883 C   0  0  0  0  0  0  0  0  0  0  0  0
   -0.6852    0.7437   -0.2372 C   0  0  0  0  0  0  0  0  0  0  0  0
   -0.7753    1.9491    0.4101 O   0  0  0  0  0  0  0  0  0  0  0  0
    0.4184   -0.5059    1.3660 O   0  0  0  0  0  0  0  0  0  0  0  0
    3.7833    1.7456   -0.6273 H   0  0  0  0  0  0  0  0  0  0  0  0
   -0.1528   -1.4257   -1.4124 H   0  0  0  0  0  0  0  0  0  0  0  0
    1.1697   -2.0961   -0.3222 H   0  0  0  0  0  0  0  0  0  0  0  0
   -0.8238   -2.2303    1.2238 H   0  0  0  0  0  0  0  0  0  0  0  0
   -2.3439   -0.6762   -0.3386 H   0  0  0  0  0  0  0  0  0  0  0  0
   -2.0466    0.1488    1.2794 H   0  0  0  0  0  0  0  0  0  0  0  0
   -0.8168    0.7933   -1.3245 H   0  0  0  0  0  0  0  0  0  0  0  0
   -1.2471    2.6040   -0.1694 H   0  0  0  0  0  0  0  0  0  0  0  0
  1  2  3  0
  2  3  1  0
  3  4  1  0
  4  5  1  0
  5  6  1  0
  6  7  1  0
  7  8  1  0
  5  9  1  0
  7  3  1  0
  9  3  1  0
  1 10  1  0
  4 11  1  0
  4 12  1  0
  5 13  1  0
  6 14  1  0
  6 15  1  0
  7 16  1  0
  8 17  1  0
M  END
