
     RDKit          3D

 17 18  0  0  0  0  0  0  0  0999 V2000
    2.9718   -0.0644    0.1620 C   0  0  0  0  0  0  0  0  0  0  0  0
    1.7096    0.4077    0.1014 C   0  0  0  0  0  0  0  0  0  0  0  0
    0.4190    0.8872    0.0636 C   0  0  0  0  0  0  0  0  0  0  0  0
   -0.7869   -0.0158    0.1929 C   0  0  0  0  0  0  0  0  0  0  0  0
   -1.0541   -0.9530   -0.8837 C   0  0  0  0  0  0  0  0  0  0  0  0
   -0.8855   -1.9698    0.2073 C   0  0  0  0  0  0  0  0  0  0  0  0
   -0.7264   -0.9931    1.1440 O   0  0  0  0  0  0  0  0  0  0  0  0
    0.1027    2.3458    0.3740 C   0  0  0  0  0  0  0  0  0  0  0  0
    0.2589    1.9334   -0.9478 O   0  0  0  0  0  0  0  0  0  0  0  0
    3.8489   -0.4035    0.1923 H   0  0  0  0  0  0  0  0  0  0  0  0
   -1.7067    0.6311    0.3745 H   0  0  0  0  0  0  0  0  0  0  0  0
   -0.3126   -1.1758   -1.6846 H   0  0  0  0  0  0  0  0  0  0  0  0
   -2.1115   -0.9459   -1.2620 H   0  0  0  0  0  0  0  0  0  0  0  0
   -1.8293   -2.5733    0.3670 H   0  0  0  0  0  0  0  0  0  0  0  0
    0.0107   -2.6286    0.0734 H   0  0  0  0  0  0  0  0  0  0  0  0
    0.9790    2.8711    0.8473 H   0  0  0  0  0  0  0  0  0  0  0  0
   -0.8874    2.6468    0.6784 H   0  0  0  0  0  0  0  0  0  0  0  0
  1  2  3  0
  2  3  1  0
  3  4  1  0
  4  5  1  0
  5  6  1  0
  6  7  1  0
  3  8  1  0
  8  9  1  0
  9  3  1  0
  7  4  1  0
  1 10  1  0
  4 11  1  0
  5 12  1  0
  5 13  1  0
  6 14  1  0
  6 15  1  0
  8 16  1  0
  8 17  1  0
M  END
