
     RDKit          3D

 14 15  0  0  0  0  0  0  0  0999 V2000
    2.5456   -0.1430    0.7523 C   0  0  0  0  0  0  0  0  0  0  0  0
    1.5956    0.1150    0.0196 C   0  0  0  0  0  0  0  0  0  0  0  0
    0.4527    0.4419   -0.8910 C   0  0  0  0  0  0  0  0  0  0  0  0
   -0.4739    1.3063   -0.2072 C   0  0  0  0  0  0  0  0  0  0  0  0
   -1.2052    0.5367    0.5936 C   0  0  0  0  0  0  0  0  0  0  0  0
   -0.6917   -0.8888    0.3766 C   0  0  0  0  0  0  0  0  0  0  0  0
   -0.5429   -0.7254   -1.1138 C   0  0  0  0  0  0  0  0  0  0  0  0
    0.4118   -0.3594   -1.9121 O   0  0  0  0  0  0  0  0  0  0  0  0
    3.3620   -0.3521    1.3908 H   0  0  0  0  0  0  0  0  0  0  0  0
   -0.6300    2.3950   -0.2617 H   0  0  0  0  0  0  0  0  0  0  0  0
   -2.0031    0.8055    1.2728 H   0  0  0  0  0  0  0  0  0  0  0  0
   -1.4859   -1.6025    0.6015 H   0  0  0  0  0  0  0  0  0  0  0  0
    0.2266   -1.0820    0.9160 H   0  0  0  0  0  0  0  0  0  0  0  0
   -1.5616   -0.4473   -1.5374 H   0  0  0  0  0  0  0  0  0  0  0  0
  1  2  3  0
  2  3  1  0
  3  4  1  0
  4  5  2  0
  5  6  1  0
  6  7  1  0
  7  8  1  0
  7  3  1  0
  8  3  1  0
  1  9  1  0
  4 10  1  0
  5 11  1  0
  6 12  1  0
  6 13  1  0
  7 14  1  0
M  END
