
     RDKit          3D

 14 13  0  0  0  0  0  0  0  0999 V2000
    2.4210   -0.5038   -0.1246 C   0  0  0  0  0  0  0  0  0  0  0  0
    1.2629   -0.2478    0.1454 C   0  0  0  0  0  0  0  0  0  0  0  0
   -0.1343    0.0828    0.4707 C   0  0  0  0  0  0  0  0  0  0  0  0
   -0.6820   -0.9647    1.1575 O   0  0  0  0  0  0  0  0  0  0  0  0
   -0.1707    1.3666    1.2051 C   0  0  0  0  0  0  0  0  0  0  0  0
    0.2758    2.3941    0.7333 O   0  0  0  0  0  0  0  0  0  0  0  0
   -0.8746    0.1917   -0.8629 C   0  0  0  0  0  0  0  0  0  0  0  0
   -0.6751   -1.0180   -1.5099 O   0  0  0  0  0  0  0  0  0  0  0  0
    3.4379   -0.7175   -0.3579 H   0  0  0  0  0  0  0  0  0  0  0  0
   -0.3567   -1.8156    0.7672 H   0  0  0  0  0  0  0  0  0  0  0  0
   -0.6146    1.3621    2.1917 H   0  0  0  0  0  0  0  0  0  0  0  0
   -0.4553    0.9821   -1.5051 H   0  0  0  0  0  0  0  0  0  0  0  0
   -1.9290    0.4000   -0.6240 H   0  0  0  0  0  0  0  0  0  0  0  0
   -1.5053   -1.5121   -1.6868 H   0  0  0  0  0  0  0  0  0  0  0  0
  1  2  3  0
  2  3  1  0
  3  4  1  0
  3  5  1  0
  5  6  2  0
  3  7  1  0
  7  8  1  0
  1  9  1  0
  4 10  1  0
  5 11  1  0
  7 12  1  0
  7 13  1  0
  8 14  1  0
M  END
