
     RDKit          3D

 19 20  0  0  0  0  0  0  0  0999 V2000
    3.5692   -0.2557    0.7737 C   0  0  0  0  0  0  0  0  0  0  0  0
    2.4084   -0.1155    0.4683 C   0  0  0  0  0  0  0  0  0  0  0  0
    1.0319    0.0735    0.1164 C   0  0  0  0  0  0  0  0  0  0  0  0
    0.6833    0.6123   -1.0454 C   0  0  0  0  0  0  0  0  0  0  0  0
   -0.7303    0.4509   -1.5440 C   0  0  0  0  0  0  0  0  0  0  0  0
   -1.5785   -0.0139   -0.4027 C   0  0  0  0  0  0  0  0  0  0  0  0
   -0.9727   -1.2598    0.2520 C   0  0  0  0  0  0  0  0  0  0  0  0
   -0.0690   -0.3173    1.0204 C   0  0  0  0  0  0  0  0  0  0  0  0
   -1.1667    0.7382    0.8541 C   0  0  0  0  0  0  0  0  0  0  0  0
    4.6067   -0.3674    1.0330 H   0  0  0  0  0  0  0  0  0  0  0  0
    1.4290    1.1568   -1.6072 H   0  0  0  0  0  0  0  0  0  0  0  0
   -1.0469    1.4537   -1.8664 H   0  0  0  0  0  0  0  0  0  0  0  0
   -0.7677   -0.3093   -2.3516 H   0  0  0  0  0  0  0  0  0  0  0  0
   -2.6503   -0.0658   -0.5751 H   0  0  0  0  0  0  0  0  0  0  0  0
   -0.5014   -1.9047   -0.4805 H   0  0  0  0  0  0  0  0  0  0  0  0
   -1.6930   -1.7187    0.9548 H   0  0  0  0  0  0  0  0  0  0  0  0
    0.1771   -0.5870    2.0375 H   0  0  0  0  0  0  0  0  0  0  0  0
   -0.8002    1.7556    0.6932 H   0  0  0  0  0  0  0  0  0  0  0  0
   -1.9290    0.6741    1.6695 H   0  0  0  0  0  0  0  0  0  0  0  0
  1  2  3  0
  2  3  1  0
  3  4  2  0
  4  5  1  0
  5  6  1  0
  6  7  1  0
  7  8  1  0
  8  9  1  0
  8  3  1  0
  9  6  1  0
  1 10  1  0
  4 11  1  0
  5 12  1  0
  5 13  1  0
  6 14  1  0
  7 15  1  0
  7 16  1  0
  8 17  1  0
  9 18  1  0
  9 19  1  0
M  END
