
     RDKit          3D

 19 20  0  0  0  0  0  0  0  0999 V2000
    1.9720   -0.7497    2.2786 C   0  0  0  0  0  0  0  0  0  0  0  0
    0.9726   -0.5272    1.6504 C   0  0  0  0  0  0  0  0  0  0  0  0
   -0.2056   -0.2800    0.9345 C   0  0  0  0  0  0  0  0  0  0  0  0
   -0.5615    1.1707    0.6812 C   0  0  0  0  0  0  0  0  0  0  0  0
   -0.6591    1.1510   -0.8285 C   0  0  0  0  0  0  0  0  0  0  0  0
    0.6451    0.3886   -1.1850 C   0  0  0  0  0  0  0  0  0  0  0  0
   -0.0708   -0.7508   -0.5137 C   0  0  0  0  0  0  0  0  0  0  0  0
    0.2628   -1.9931   -0.7773 O   0  0  0  0  0  0  0  0  0  0  0  0
   -1.3446   -0.1419   -1.1359 C   0  0  0  0  0  0  0  0  0  0  0  0
    2.9078   -0.9480    2.8857 H   0  0  0  0  0  0  0  0  0  0  0  0
   -1.0988   -0.8071    1.4001 H   0  0  0  0  0  0  0  0  0  0  0  0
   -1.4797    1.5222    1.1511 H   0  0  0  0  0  0  0  0  0  0  0  0
    0.3427    1.7830    1.0029 H   0  0  0  0  0  0  0  0  0  0  0  0
   -0.8582    2.0341   -1.3797 H   0  0  0  0  0  0  0  0  0  0  0  0
    0.7266    0.3564   -2.2807 H   0  0  0  0  0  0  0  0  0  0  0  0
    1.4691    0.8374   -0.6291 H   0  0  0  0  0  0  0  0  0  0  0  0
    0.5990   -2.2268   -1.6530 H   0  0  0  0  0  0  0  0  0  0  0  0
   -1.3786   -0.4694   -2.1783 H   0  0  0  0  0  0  0  0  0  0  0  0
   -2.2406   -0.3494   -0.5253 H   0  0  0  0  0  0  0  0  0  0  0  0
  1  2  3  0
  2  3  1  0
  3  4  1  0
  4  5  1  0
  5  6  1  0
  6  7  1  0
  7  8  1  0
  7  9  1  0
  7  3  1  0
  9  5  1  0
  1 10  1  0
  3 11  1  0
  4 12  1  0
  4 13  1  0
  5 14  1  0
  6 15  1  0
  6 16  1  0
  8 17  1  0
  9 18  1  0
  9 19  1  0
M  END
