
     RDKit          3D

 15 15  0  0  0  0  0  0  0  0999 V2000
   -2.1136   -1.4945    0.4523 C   0  0  0  0  0  0  0  0  0  0  0  0
   -1.2978   -0.7389   -0.0070 C   0  0  0  0  0  0  0  0  0  0  0  0
   -0.3231    0.1586   -0.5733 C   0  0  0  0  0  0  0  0  0  0  0  0
   -0.2043    0.1700   -1.9472 O   0  0  0  0  0  0  0  0  0  0  0  0
   -0.3520    1.5509    0.0606 C   0  0  0  0  0  0  0  0  0  0  0  0
    1.0551    1.5357   -0.0824 O   0  0  0  0  0  0  0  0  0  0  0  0
    0.9952    0.1963    0.1909 C   0  0  0  0  0  0  0  0  0  0  0  0
    2.0293   -0.6629   -0.4082 C   0  0  0  0  0  0  0  0  0  0  0  0
    1.9835   -1.8587   -0.1699 O   0  0  0  0  0  0  0  0  0  0  0  0
   -2.8361   -2.1740    0.8750 H   0  0  0  0  0  0  0  0  0  0  0  0
   -1.0736   -0.1142   -2.3204 H   0  0  0  0  0  0  0  0  0  0  0  0
   -0.8715    2.3152   -0.5068 H   0  0  0  0  0  0  0  0  0  0  0  0
   -0.5893    1.4392    1.1319 H   0  0  0  0  0  0  0  0  0  0  0  0
    0.7634   -0.0005    1.2708 H   0  0  0  0  0  0  0  0  0  0  0  0
    2.8348   -0.3222   -1.0484 H   0  0  0  0  0  0  0  0  0  0  0  0
  1  2  3  0
  2  3  1  0
  3  4  1  0
  3  5  1  0
  5  6  1  0
  6  7  1  0
  7  8  1  0
  8  9  2  0
  7  3  1  0
  1 10  1  0
  4 11  1  0
  5 12  1  0
  5 13  1  0
  7 14  1  0
  8 15  1  0
M  END
