
     RDKit          3D

 17 17  0  0  0  0  0  0  0  0999 V2000
    2.2347   -1.9873   -0.8549 C   0  0  0  0  0  0  0  0  0  0  0  0
    1.5584   -1.1429   -0.3613 C   0  0  0  0  0  0  0  0  0  0  0  0
    0.7547   -0.1161    0.2472 C   0  0  0  0  0  0  0  0  0  0  0  0
    1.2304    1.2621   -0.0303 C   0  0  0  0  0  0  0  0  0  0  0  0
    0.1892    2.0862   -0.0518 C   0  0  0  0  0  0  0  0  0  0  0  0
   -1.0693    1.2971    0.2146 C   0  0  0  0  0  0  0  0  0  0  0  0
   -0.6552   -0.0447   -0.3562 C   0  0  0  0  0  0  0  0  0  0  0  0
   -1.4924   -1.1268    0.0953 C   0  0  0  0  0  0  0  0  0  0  0  0
   -2.1852   -2.0319    0.4716 C   0  0  0  0  0  0  0  0  0  0  0  0
    2.8336   -2.7653   -1.3038 H   0  0  0  0  0  0  0  0  0  0  0  0
    0.6714   -0.2122    1.3493 H   0  0  0  0  0  0  0  0  0  0  0  0
    2.2559    1.5638   -0.1915 H   0  0  0  0  0  0  0  0  0  0  0  0
    0.1830    3.1545   -0.2260 H   0  0  0  0  0  0  0  0  0  0  0  0
   -1.9439    1.7261   -0.2534 H   0  0  0  0  0  0  0  0  0  0  0  0
   -1.1997    1.1484    1.3179 H   0  0  0  0  0  0  0  0  0  0  0  0
   -0.5578    0.0214   -1.4520 H   0  0  0  0  0  0  0  0  0  0  0  0
   -2.8079   -2.8324    0.8242 H   0  0  0  0  0  0  0  0  0  0  0  0
  1  2  3  0
  2  3  1  0
  3  4  1  0
  4  5  2  0
  5  6  1  0
  6  7  1  0
  7  8  1  0
  8  9  3  0
  7  3  1  0
  1 10  1  0
  3 11  1  0
  4 12  1  0
  5 13  1  0
  6 14  1  0
  6 15  1  0
  7 16  1  0
  9 17  1  0
M  END
