
     RDKit          3D

 21 21  0  0  0  0  0  0  0  0999 V2000
   -2.0934    0.1778    2.2499 C   0  0  0  0  0  0  0  0  0  0  0  0
   -1.2696   -0.0015    1.3194 C   0  0  0  0  0  0  0  0  0  0  0  0
   -0.3186   -0.1915    0.2328 C   0  0  0  0  0  0  0  0  0  0  0  0
   -0.7091    0.0130   -1.0390 O   0  0  0  0  0  0  0  0  0  0  0  0
   -1.9341   -0.5639   -1.3964 C   0  0  0  0  0  0  0  0  0  0  0  0
    0.9318   -0.8540    0.6429 C   0  0  0  0  0  0  0  0  0  0  0  0
    1.6738    0.2443   -0.1643 C   0  0  0  0  0  0  0  0  0  0  0  0
    1.6071    0.1608   -1.6266 C   0  0  0  0  0  0  0  0  0  0  0  0
    0.6461    1.1606    0.4824 C   0  0  0  0  0  0  0  0  0  0  0  0
   -2.7455    0.3258    2.9761 H   0  0  0  0  0  0  0  0  0  0  0  0
   -2.7312   -0.0393   -0.7777 H   0  0  0  0  0  0  0  0  0  0  0  0
   -2.0919   -0.4539   -2.4790 H   0  0  0  0  0  0  0  0  0  0  0  0
   -1.9104   -1.6368   -1.1452 H   0  0  0  0  0  0  0  0  0  0  0  0
    1.1705   -1.8718    0.4014 H   0  0  0  0  0  0  0  0  0  0  0  0
    1.2326   -0.6175    1.7377 H   0  0  0  0  0  0  0  0  0  0  0  0
    2.6712    0.4627    0.2445 H   0  0  0  0  0  0  0  0  0  0  0  0
    2.6470    0.2926   -2.0661 H   0  0  0  0  0  0  0  0  0  0  0  0
    1.2450   -0.7924   -2.0068 H   0  0  0  0  0  0  0  0  0  0  0  0
    1.0196    1.0418   -2.0423 H   0  0  0  0  0  0  0  0  0  0  0  0
    0.6997    1.1802    1.5742 H   0  0  0  0  0  0  0  0  0  0  0  0
    0.2592    1.9630   -0.0915 H   0  0  0  0  0  0  0  0  0  0  0  0
  1  2  3  0
  2  3  1  0
  3  4  1  0
  4  5  1  0
  3  6  1  0
  6  7  1  0
  7  8  1  0
  7  9  1  0
  9  3  1  0
  1 10  1  0
  5 11  1  0
  5 12  1  0
  5 13  1  0
  6 14  1  0
  6 15  1  0
  7 16  1  0
  8 17  1  0
  8 18  1  0
  8 19  1  0
  9 20  1  0
  9 21  1  0
M  END
