
     RDKit          3D

 19 19  0  0  0  0  0  0  0  0999 V2000
    3.4688    0.6546   -1.3583 C   0  0  0  0  0  0  0  0  0  0  0  0
    2.1615    0.4012   -1.0257 C   0  0  0  0  0  0  0  0  0  0  0  0
    0.9817    0.1568   -0.7398 C   0  0  0  0  0  0  0  0  0  0  0  0
   -0.1964    0.9006   -0.3870 C   0  0  0  0  0  0  0  0  0  0  0  0
   -0.9833    0.0850    0.4143 C   0  0  0  0  0  0  0  0  0  0  0  0
   -2.2436    0.4318    1.0170 C   0  0  0  0  0  0  0  0  0  0  0  0
   -2.6315    1.7894    0.7174 O   0  0  0  0  0  0  0  0  0  0  0  0
   -0.2403   -1.2154    0.6452 C   0  0  0  0  0  0  0  0  0  0  0  0
    0.6308   -1.3872   -0.5222 C   0  0  0  0  0  0  0  0  0  0  0  0
    4.6124    0.8837   -1.6450 H   0  0  0  0  0  0  0  0  0  0  0  0
    1.3681    0.1482    0.6850 H   0  0  0  0  0  0  0  0  0  0  0  0
   -0.5108    1.9218   -0.6013 H   0  0  0  0  0  0  0  0  0  0  0  0
   -3.0612   -0.2194    0.5329 H   0  0  0  0  0  0  0  0  0  0  0  0
   -2.3312    0.1981    2.0736 H   0  0  0  0  0  0  0  0  0  0  0  0
   -2.7307    1.7522   -0.3019 H   0  0  0  0  0  0  0  0  0  0  0  0
    0.5676   -0.8375    1.4701 H   0  0  0  0  0  0  0  0  0  0  0  0
   -0.7310   -2.0121    1.0989 H   0  0  0  0  0  0  0  0  0  0  0  0
    1.6358   -1.8976   -0.2236 H   0  0  0  0  0  0  0  0  0  0  0  0
    0.2333   -1.7543   -1.4158 H   0  0  0  0  0  0  0  0  0  0  0  0
  1  2  3  0
  2  3  1  0
  3  4  1  0
  4  5  2  0
  5  6  1  0
  6  7  1  0
  5  8  1  0
  8  9  1  0
  9  3  1  0
  1 10  1  0
  3 11  1  0
  4 12  1  0
  6 13  1  0
  6 14  1  0
  7 15  1  0
  8 16  1  0
  8 17  1  0
  9 18  1  0
  9 19  1  0
M  END
