
     RDKit          3D

 17 17  0  0  0  0  0  0  0  0999 V2000
    2.9292   -0.8456   -1.4477 C   0  0  0  0  0  0  0  0  0  0  0  0
    1.9066   -1.0848   -0.8151 C   0  0  0  0  0  0  0  0  0  0  0  0
    0.7081   -1.3556   -0.1018 C   0  0  0  0  0  0  0  0  0  0  0  0
    0.7286   -2.1901    0.8262 O   0  0  0  0  0  0  0  0  0  0  0  0
   -0.5215   -0.6181   -0.5038 C   0  0  0  0  0  0  0  0  0  0  0  0
   -1.6454   -0.8989    0.2299 O   0  0  0  0  0  0  0  0  0  0  0  0
   -2.0438    0.4258    0.0563 C   0  0  0  0  0  0  0  0  0  0  0  0
   -0.6042    0.8098   -0.0089 C   0  0  0  0  0  0  0  0  0  0  0  0
    0.0903    1.0063    1.3135 C   0  0  0  0  0  0  0  0  0  0  0  0
    3.8456   -0.6457   -1.9979 H   0  0  0  0  0  0  0  0  0  0  0  0
   -0.7467   -0.6591   -1.6016 H   0  0  0  0  0  0  0  0  0  0  0  0
   -2.5180    0.5385   -0.9378 H   0  0  0  0  0  0  0  0  0  0  0  0
   -2.6321    0.8496    0.8903 H   0  0  0  0  0  0  0  0  0  0  0  0
   -0.3091    1.5025   -0.8132 H   0  0  0  0  0  0  0  0  0  0  0  0
   -0.6908    0.9913    2.0936 H   0  0  0  0  0  0  0  0  0  0  0  0
    0.8651    0.2012    1.4634 H   0  0  0  0  0  0  0  0  0  0  0  0
    0.6379    1.9731    1.3546 H   0  0  0  0  0  0  0  0  0  0  0  0
  1  2  3  0
  2  3  1  0
  3  4  2  0
  3  5  1  0
  5  6  1  0
  6  7  1  0
  7  8  1  0
  8  9  1  0
  8  5  1  0
  1 10  1  0
  5 11  1  0
  7 12  1  0
  7 13  1  0
  8 14  1  0
  9 15  1  0
  9 16  1  0
  9 17  1  0
M  END
