
     RDKit          3D

 17 17  0  0  0  0  0  0  0  0999 V2000
    1.8252    2.1024    0.1017 C   0  0  0  0  0  0  0  0  0  0  0  0
    1.6943    0.8947    0.2016 C   0  0  0  0  0  0  0  0  0  0  0  0
    1.5379   -0.5565    0.3122 C   0  0  0  0  0  0  0  0  0  0  0  0
    0.3812   -1.0250   -0.5548 C   0  0  0  0  0  0  0  0  0  0  0  0
   -0.8892   -0.3258   -0.0665 C   0  0  0  0  0  0  0  0  0  0  0  0
   -1.3006   -0.5578    1.3263 C   0  0  0  0  0  0  0  0  0  0  0  0
   -2.3082   -0.0082    1.7271 O   0  0  0  0  0  0  0  0  0  0  0  0
   -1.5416    0.6238   -0.9201 C   0  0  0  0  0  0  0  0  0  0  0  0
   -1.9850   -0.7260   -0.9899 O   0  0  0  0  0  0  0  0  0  0  0  0
    1.9332    3.1556   -0.0013 H   0  0  0  0  0  0  0  0  0  0  0  0
    2.4630   -1.0351   -0.1163 H   0  0  0  0  0  0  0  0  0  0  0  0
    1.4451   -0.8786    1.3492 H   0  0  0  0  0  0  0  0  0  0  0  0
    0.6001   -0.6664   -1.5870 H   0  0  0  0  0  0  0  0  0  0  0  0
    0.2754   -2.1105   -0.5012 H   0  0  0  0  0  0  0  0  0  0  0  0
   -0.7721   -1.1844    2.0272 H   0  0  0  0  0  0  0  0  0  0  0  0
   -1.0258    1.0243   -1.8222 H   0  0  0  0  0  0  0  0  0  0  0  0
   -2.3332    1.2733   -0.4859 H   0  0  0  0  0  0  0  0  0  0  0  0
  1  2  3  0
  2  3  1  0
  3  4  1  0
  4  5  1  0
  5  6  1  0
  6  7  2  0
  5  8  1  0
  8  9  1  0
  9  5  1  0
  1 10  1  0
  3 11  1  0
  3 12  1  0
  4 13  1  0
  4 14  1  0
  6 15  1  0
  8 16  1  0
  8 17  1  0
M  END
