
     RDKit          3D

 17 18  0  0  0  0  0  0  0  0999 V2000
    2.6567   -1.0990    0.5894 C   0  0  0  0  0  0  0  0  0  0  0  0
    1.5843   -0.7105    0.1329 C   0  0  0  0  0  0  0  0  0  0  0  0
    0.2722   -0.2468   -0.3987 C   0  0  0  0  0  0  0  0  0  0  0  0
    0.5040    0.9441   -1.2215 C   0  0  0  0  0  0  0  0  0  0  0  0
    0.4618    1.2524   -2.3640 O   0  0  0  0  0  0  0  0  0  0  0  0
    0.8180    1.5709    0.0924 C   0  0  0  0  0  0  0  0  0  0  0  0
   -0.4552    0.8617    0.4715 C   0  0  0  0  0  0  0  0  0  0  0  0
   -0.7984   -0.5183    0.5260 C   0  0  0  0  0  0  0  0  0  0  0  0
   -2.0598   -1.1280   -0.1116 C   0  0  0  0  0  0  0  0  0  0  0  0
    3.5796   -1.4472    0.9706 H   0  0  0  0  0  0  0  0  0  0  0  0
    0.7457    2.6546    0.1558 H   0  0  0  0  0  0  0  0  0  0  0  0
    1.7407    1.2437    0.5896 H   0  0  0  0  0  0  0  0  0  0  0  0
   -1.2757    1.4171   -0.0996 H   0  0  0  0  0  0  0  0  0  0  0  0
   -0.6215   -1.0276    1.5181 H   0  0  0  0  0  0  0  0  0  0  0  0
   -1.9115   -2.1724   -0.3765 H   0  0  0  0  0  0  0  0  0  0  0  0
   -2.3186   -0.5714   -1.0437 H   0  0  0  0  0  0  0  0  0  0  0  0
   -2.9222   -1.0233    0.5693 H   0  0  0  0  0  0  0  0  0  0  0  0
  1  2  3  0
  2  3  1  0
  3  4  1  0
  4  5  2  0
  4  6  1  0
  6  7  1  0
  7  8  1  0
  8  9  1  0
  7  3  1  0
  8  3  1  0
  1 10  1  0
  6 11  1  0
  6 12  1  0
  7 13  1  0
  8 14  1  0
  9 15  1  0
  9 16  1  0
  9 17  1  0
M  END
