
     RDKit          3D

 15 16  0  0  0  0  0  0  0  0999 V2000
    2.9485   -2.1016    0.1007 C   0  0  0  0  0  0  0  0  0  0  0  0
    1.7842   -1.3084    0.1664 C   0  0  0  0  0  0  0  0  0  0  0  0
    0.7507   -0.5863    0.2414 C   0  0  0  0  0  0  0  0  0  0  0  0
    1.4969    0.6828   -0.5568 O   0  0  0  0  0  0  0  0  0  0  0  0
   -0.3649    0.2014    0.3191 C   0  0  0  0  0  0  0  0  0  0  0  0
   -0.8642    1.2132    1.2502 C   0  0  0  0  0  0  0  0  0  0  0  0
   -1.1837    2.0405    0.1326 O   0  0  0  0  0  0  0  0  0  0  0  0
   -1.0628    0.9837   -0.7783 C   0  0  0  0  0  0  0  0  0  0  0  0
   -1.5032   -0.3558   -0.6084 C   0  0  0  0  0  0  0  0  0  0  0  0
    3.7692   -2.6521    0.0387 H   0  0  0  0  0  0  0  0  0  0  0  0
   -0.1773    1.6552    1.9533 H   0  0  0  0  0  0  0  0  0  0  0  0
   -1.8576    0.9431    1.7351 H   0  0  0  0  0  0  0  0  0  0  0  0
   -0.4218    1.2738   -1.6613 H   0  0  0  0  0  0  0  0  0  0  0  0
   -1.2140   -1.0047   -1.4947 H   0  0  0  0  0  0  0  0  0  0  0  0
   -2.0999   -0.9847    0.0303 H   0  0  0  0  0  0  0  0  0  0  0  0
  1  2  3  0
  2  3  1  0
  3  4  2  0
  3  5  1  0
  5  6  1  0
  6  7  1  0
  7  8  1  0
  8  9  1  0
  8  5  1  0
  9  5  1  0
  1 10  1  0
  6 11  1  0
  6 12  1  0
  8 13  1  0
  9 14  1  0
  9 15  1  0
M  END
