
     RDKit          3D

 16 17  0  0  0  0  0  0  0  0999 V2000
    0.9617   -0.7059    2.7635 C   0  0  0  0  0  0  0  0  0  0  0  0
    0.9032   -0.5188    1.6075 C   0  0  0  0  0  0  0  0  0  0  0  0
    0.8162   -0.3066    0.3263 C   0  0  0  0  0  0  0  0  0  0  0  0
   -0.2927   -1.1216   -0.4159 C   0  0  0  0  0  0  0  0  0  0  0  0
   -0.1858   -0.0453   -1.3899 C   0  0  0  0  0  0  0  0  0  0  0  0
   -0.4350    1.3395   -1.4349 C   0  0  0  0  0  0  0  0  0  0  0  0
   -0.0133    0.8567   -0.1634 C   0  0  0  0  0  0  0  0  0  0  0  0
   -0.9986    1.0368    0.8012 O   0  0  0  0  0  0  0  0  0  0  0  0
    1.0195   -0.9232    4.0508 H   0  0  0  0  0  0  0  0  0  0  0  0
    1.7628   -0.4554   -0.3216 H   0  0  0  0  0  0  0  0  0  0  0  0
    0.0670   -2.1051   -0.8050 H   0  0  0  0  0  0  0  0  0  0  0  0
   -1.1772   -1.2722    0.1999 H   0  0  0  0  0  0  0  0  0  0  0  0
    0.7916   -0.2646   -1.9742 H   0  0  0  0  0  0  0  0  0  0  0  0
   -1.5284    1.6485   -1.5973 H   0  0  0  0  0  0  0  0  0  0  0  0
    0.2033    2.0785   -1.9567 H   0  0  0  0  0  0  0  0  0  0  0  0
   -1.8945    0.7586    0.5967 H   0  0  0  0  0  0  0  0  0  0  0  0
  1  2  3  0
  2  3  1  0
  3  4  1  0
  4  5  1  0
  5  6  1  0
  6  7  1  0
  7  8  1  0
  7  3  1  0
  7  5  1  0
  1  9  1  0
  3 10  1  0
  4 11  1  0
  4 12  1  0
  5 13  1  0
  6 14  1  0
  6 15  1  0
  8 16  1  0
M  END
