
     RDKit          3D

 21 22  0  0  0  0  0  0  0  0999 V2000
    2.2388    2.1239   -0.5335 C   0  0  0  0  0  0  0  0  0  0  0  0
    1.6192    1.0916   -0.5804 C   0  0  0  0  0  0  0  0  0  0  0  0
    0.8741   -0.1863   -0.6244 C   0  0  0  0  0  0  0  0  0  0  0  0
    1.7545   -1.2622   -0.0238 C   0  0  0  0  0  0  0  0  0  0  0  0
   -0.3522   -0.0955   -0.0309 C   0  0  0  0  0  0  0  0  0  0  0  0
   -1.3978   -1.1576    0.1300 C   0  0  0  0  0  0  0  0  0  0  0  0
   -2.0286    0.0560    0.7481 C   0  0  0  0  0  0  0  0  0  0  0  0
   -1.4970    0.8068   -0.4533 C   0  0  0  0  0  0  0  0  0  0  0  0
   -0.6837    0.3331    1.3583 C   0  0  0  0  0  0  0  0  0  0  0  0
    2.8012    3.0301   -0.4830 H   0  0  0  0  0  0  0  0  0  0  0  0
    0.8130   -0.4277   -1.7229 H   0  0  0  0  0  0  0  0  0  0  0  0
    1.4735   -2.2366   -0.4709 H   0  0  0  0  0  0  0  0  0  0  0  0
    2.8373   -1.0510   -0.1979 H   0  0  0  0  0  0  0  0  0  0  0  0
    1.5487   -1.2709    1.0705 H   0  0  0  0  0  0  0  0  0  0  0  0
   -1.7871   -1.4735   -0.8381 H   0  0  0  0  0  0  0  0  0  0  0  0
   -1.1672   -1.9876    0.8043 H   0  0  0  0  0  0  0  0  0  0  0  0
   -2.9300    0.1466    1.1652 H   0  0  0  0  0  0  0  0  0  0  0  0
   -1.2934    1.8628   -0.2311 H   0  0  0  0  0  0  0  0  0  0  0  0
   -1.9597    0.5681   -1.4162 H   0  0  0  0  0  0  0  0  0  0  0  0
   -0.4968    1.4359    1.5016 H   0  0  0  0  0  0  0  0  0  0  0  0
   -0.3668   -0.3061    2.1840 H   0  0  0  0  0  0  0  0  0  0  0  0
  1  2  3  0
  2  3  1  0
  3  4  1  0
  3  5  1  0
  5  6  1  0
  6  7  1  0
  7  8  1  0
  7  9  1  0
  8  5  1  0
  9  5  1  0
  1 10  1  0
  3 11  1  0
  4 12  1  0
  4 13  1  0
  4 14  1  0
  6 15  1  0
  6 16  1  0
  7 17  1  0
  8 18  1  0
  8 19  1  0
  9 20  1  0
  9 21  1  0
M  END
