
     RDKit          3D

 19 19  0  0  0  0  0  0  0  0999 V2000
    2.7745    1.0434    0.3531 C   0  0  0  0  0  0  0  0  0  0  0  0
    2.2042    0.0012    0.3747 C   0  0  0  0  0  0  0  0  0  0  0  0
    1.5137   -1.2613    0.4259 C   0  0  0  0  0  0  0  0  0  0  0  0
    0.2141   -1.2784   -0.3334 C   0  0  0  0  0  0  0  0  0  0  0  0
   -0.7803   -0.2838    0.1535 C   0  0  0  0  0  0  0  0  0  0  0  0
   -1.1714   -0.4265    1.4858 O   0  0  0  0  0  0  0  0  0  0  0  0
   -1.9289   -0.0442   -0.8545 C   0  0  0  0  0  0  0  0  0  0  0  0
   -0.9672    1.0409   -0.4460 C   0  0  0  0  0  0  0  0  0  0  0  0
   -1.5398    2.0594    0.2918 O   0  0  0  0  0  0  0  0  0  0  0  0
    3.2842    1.9933    0.3169 H   0  0  0  0  0  0  0  0  0  0  0  0
    2.1458   -2.0810   -0.0193 H   0  0  0  0  0  0  0  0  0  0  0  0
    1.3721   -1.5529    1.4866 H   0  0  0  0  0  0  0  0  0  0  0  0
    0.4011   -1.1576   -1.4105 H   0  0  0  0  0  0  0  0  0  0  0  0
   -0.2269   -2.3020   -0.1736 H   0  0  0  0  0  0  0  0  0  0  0  0
   -0.8701    0.3857    1.9675 H   0  0  0  0  0  0  0  0  0  0  0  0
   -2.9463   -0.0728   -0.4465 H   0  0  0  0  0  0  0  0  0  0  0  0
   -1.8050   -0.3992   -1.8754 H   0  0  0  0  0  0  0  0  0  0  0  0
   -0.2197    1.3896   -1.1873 H   0  0  0  0  0  0  0  0  0  0  0  0
   -1.4540    2.9461   -0.1093 H   0  0  0  0  0  0  0  0  0  0  0  0
  1  2  3  0
  2  3  1  0
  3  4  1  0
  4  5  1  0
  5  6  1  0
  5  7  1  0
  7  8  1  0
  8  9  1  0
  8  5  1  0
  1 10  1  0
  3 11  1  0
  3 12  1  0
  4 13  1  0
  4 14  1  0
  6 15  1  0
  7 16  1  0
  7 17  1  0
  8 18  1  0
  9 19  1  0
M  END
