
     RDKit          3D

 21 22  0  0  0  0  0  0  0  0999 V2000
    3.4596   -0.2110   -1.1807 C   0  0  0  0  0  0  0  0  0  0  0  0
    2.3964   -0.3975   -0.6367 C   0  0  0  0  0  0  0  0  0  0  0  0
    1.1054   -0.6022    0.0071 C   0  0  0  0  0  0  0  0  0  0  0  0
    1.0480   -0.5927    1.4799 C   0  0  0  0  0  0  0  0  0  0  0  0
    0.4627    0.5439    0.7587 C   0  0  0  0  0  0  0  0  0  0  0  0
   -0.8643    0.2453    0.0612 C   0  0  0  0  0  0  0  0  0  0  0  0
   -1.8021   -0.5845    0.9273 C   0  0  0  0  0  0  0  0  0  0  0  0
   -1.5441    1.4213   -0.5478 C   0  0  0  0  0  0  0  0  0  0  0  0
   -0.0925   -0.6509   -0.8653 C   0  0  0  0  0  0  0  0  0  0  0  0
    4.4031   -0.0604   -1.6515 H   0  0  0  0  0  0  0  0  0  0  0  0
    2.0001   -0.4100    2.0020 H   0  0  0  0  0  0  0  0  0  0  0  0
    0.3450   -1.2314    2.0508 H   0  0  0  0  0  0  0  0  0  0  0  0
    0.8874    1.5413    0.7121 H   0  0  0  0  0  0  0  0  0  0  0  0
   -1.4100   -1.6202    1.0266 H   0  0  0  0  0  0  0  0  0  0  0  0
   -2.7634   -0.6505    0.3917 H   0  0  0  0  0  0  0  0  0  0  0  0
   -1.9418   -0.1076    1.9322 H   0  0  0  0  0  0  0  0  0  0  0  0
   -1.1167    1.7491   -1.5087 H   0  0  0  0  0  0  0  0  0  0  0  0
   -2.6103    1.1719   -0.7144 H   0  0  0  0  0  0  0  0  0  0  0  0
   -1.5535    2.2496    0.2195 H   0  0  0  0  0  0  0  0  0  0  0  0
   -0.5260   -1.6444   -1.0671 H   0  0  0  0  0  0  0  0  0  0  0  0
    0.1172   -0.1593   -1.8607 H   0  0  0  0  0  0  0  0  0  0  0  0
  1  2  3  0
  2  3  1  0
  3  4  1  0
  4  5  1  0
  5  6  1  0
  6  7  1  0
  6  8  1  0
  6  9  1  0
  5  3  1  0
  9  3  1  0
  1 10  1  0
  4 11  1  0
  4 12  1  0
  5 13  1  0
  7 14  1  0
  7 15  1  0
  7 16  1  0
  8 17  1  0
  8 18  1  0
  8 19  1  0
  9 20  1  0
  9 21  1  0
M  END
