
     RDKit          3D

 19 19  0  0  0  0  0  0  0  0999 V2000
   -3.6687   -0.2181    0.0133 C   0  0  0  0  0  0  0  0  0  0  0  0
   -2.4861    0.1379    0.2428 C   0  0  0  0  0  0  0  0  0  0  0  0
   -1.1365    0.5644    0.5007 C   0  0  0  0  0  0  0  0  0  0  0  0
   -0.2075   -0.0858   -0.5879 C   0  0  0  0  0  0  0  0  0  0  0  0
   -0.4466   -1.4584   -0.5863 O   0  0  0  0  0  0  0  0  0  0  0  0
    0.5093    0.7808   -1.4741 C   0  0  0  0  0  0  0  0  0  0  0  0
    1.3330    0.1053   -0.4019 C   0  0  0  0  0  0  0  0  0  0  0  0
    1.7188    0.3790    0.9480 C   0  0  0  0  0  0  0  0  0  0  0  0
    2.1402   -0.9524   -1.0079 O   0  0  0  0  0  0  0  0  0  0  0  0
   -4.5578   -0.4756   -0.1449 H   0  0  0  0  0  0  0  0  0  0  0  0
   -0.8085    0.0476    1.4815 H   0  0  0  0  0  0  0  0  0  0  0  0
   -0.9049    1.6048    0.5645 H   0  0  0  0  0  0  0  0  0  0  0  0
   -0.1469   -1.9812   -1.3455 H   0  0  0  0  0  0  0  0  0  0  0  0
    0.6902    0.4626   -2.5635 H   0  0  0  0  0  0  0  0  0  0  0  0
    0.4705    1.8969   -1.4013 H   0  0  0  0  0  0  0  0  0  0  0  0
    2.6894   -0.2736    1.1449 H   0  0  0  0  0  0  0  0  0  0  0  0
    1.0251   -0.0762    1.6946 H   0  0  0  0  0  0  0  0  0  0  0  0
    2.0203    1.3581    1.3024 H   0  0  0  0  0  0  0  0  0  0  0  0
    1.7669   -1.8160   -0.8062 H   0  0  0  0  0  0  0  0  0  0  0  0
  1  2  3  0
  2  3  1  0
  3  4  1  0
  4  5  1  0
  4  6  1  0
  6  7  1  0
  7  8  1  0
  7  9  1  0
  7  4  1  0
  1 10  1  0
  3 11  1  0
  3 12  1  0
  5 13  1  0
  6 14  1  0
  6 15  1  0
  8 16  1  0
  8 17  1  0
  8 18  1  0
  9 19  1  0
M  END
