
     RDKit          3D

 21 20  0  0  0  0  0  0  0  0999 V2000
    4.8695   -0.8010    0.7724 C   0  0  0  0  0  0  0  0  0  0  0  0
    3.8678    0.2178    0.8386 C   0  0  0  0  0  0  0  0  0  0  0  0
    3.0523    1.0723    0.8864 C   0  0  0  0  0  0  0  0  0  0  0  0
    1.5786    0.8028    0.7232 C   0  0  0  0  0  0  0  0  0  0  0  0
    0.3601    0.6007    0.5959 C   0  0  0  0  0  0  0  0  0  0  0  0
   -1.0804    0.3746    0.4307 C   0  0  0  0  0  0  0  0  0  0  0  0
   -1.5896    0.0386   -0.8796 C   0  0  0  0  0  0  0  0  0  0  0  0
   -3.1369    0.1176   -0.8154 C   0  0  0  0  0  0  0  0  0  0  0  0
   -1.3677   -1.4665   -1.2215 C   0  0  0  0  0  0  0  0  0  0  0  0
    5.6975   -1.6690    0.7122 H   0  0  0  0  0  0  0  0  0  0  0  0
    3.2339    2.0193    0.1637 H   0  0  0  0  0  0  0  0  0  0  0  0
    3.0888    1.7586    1.9038 H   0  0  0  0  0  0  0  0  0  0  0  0
   -1.3390   -0.4092    1.2716 H   0  0  0  0  0  0  0  0  0  0  0  0
   -1.6065    1.3494    0.8472 H   0  0  0  0  0  0  0  0  0  0  0  0
   -1.2395    0.6142   -1.7360 H   0  0  0  0  0  0  0  0  0  0  0  0
   -3.4686    0.8649   -1.6076 H   0  0  0  0  0  0  0  0  0  0  0  0
   -3.3493    0.5693    0.1601 H   0  0  0  0  0  0  0  0  0  0  0  0
   -3.6456   -0.8232   -0.9175 H   0  0  0  0  0  0  0  0  0  0  0  0
   -1.1567   -1.9813   -0.3018 H   0  0  0  0  0  0  0  0  0  0  0  0
   -2.2590   -1.8306   -1.7722 H   0  0  0  0  0  0  0  0  0  0  0  0
   -0.5098   -1.4192   -1.9401 H   0  0  0  0  0  0  0  0  0  0  0  0
  1  2  3  0
  2  3  1  0
  3  4  1  0
  4  5  3  0
  5  6  1  0
  6  7  1  0
  7  8  1  0
  7  9  1  0
  1 10  1  0
  3 11  1  0
  3 12  1  0
  6 13  1  0
  6 14  1  0
  7 15  1  0
  8 16  1  0
  8 17  1  0
  8 18  1  0
  9 19  1  0
  9 20  1  0
  9 21  1  0
M  END
