
     RDKit          3D

 19 19  0  0  0  0  0  0  0  0999 V2000
    3.8786   -0.5338    0.2790 C   0  0  0  0  0  0  0  0  0  0  0  0
    2.7356   -0.2080    0.1443 C   0  0  0  0  0  0  0  0  0  0  0  0
    1.3420    0.1717   -0.0007 C   0  0  0  0  0  0  0  0  0  0  0  0
    0.6979    0.3576    1.2199 O   0  0  0  0  0  0  0  0  0  0  0  0
   -0.6622    0.3231    0.8383 C   0  0  0  0  0  0  0  0  0  0  0  0
   -1.0598    1.7657    0.5704 C   0  0  0  0  0  0  0  0  0  0  0  0
   -0.6686   -0.4569   -0.4305 C   0  0  0  0  0  0  0  0  0  0  0  0
   -1.6638   -1.5910   -0.4299 C   0  0  0  0  0  0  0  0  0  0  0  0
    0.6453   -0.9158   -0.5200 O   0  0  0  0  0  0  0  0  0  0  0  0
    4.8930   -0.8142    0.3985 H   0  0  0  0  0  0  0  0  0  0  0  0
    1.1901    1.0178   -0.6896 H   0  0  0  0  0  0  0  0  0  0  0  0
   -1.2758   -0.1231    1.6520 H   0  0  0  0  0  0  0  0  0  0  0  0
   -0.1817    2.4438    0.5374 H   0  0  0  0  0  0  0  0  0  0  0  0
   -1.7717    2.1427    1.3325 H   0  0  0  0  0  0  0  0  0  0  0  0
   -1.5777    1.7859   -0.3973 H   0  0  0  0  0  0  0  0  0  0  0  0
   -0.9195    0.1957   -1.2987 H   0  0  0  0  0  0  0  0  0  0  0  0
   -1.6203   -2.0774    0.5648 H   0  0  0  0  0  0  0  0  0  0  0  0
   -2.6509   -1.1829   -0.6853 H   0  0  0  0  0  0  0  0  0  0  0  0
   -1.3306   -2.3008   -1.2273 H   0  0  0  0  0  0  0  0  0  0  0  0
  1  2  3  0
  2  3  1  0
  3  4  1  0
  4  5  1  0
  5  6  1  0
  5  7  1  0
  7  8  1  0
  7  9  1  0
  9  3  1  0
  1 10  1  0
  3 11  1  0
  5 12  1  0
  6 13  1  0
  6 14  1  0
  6 15  1  0
  7 16  1  0
  8 17  1  0
  8 18  1  0
  8 19  1  0
M  END
