
     RDKit          3D

 17 16  0  0  0  0  0  0  0  0999 V2000
   -0.7209    1.0702   -2.2270 C   0  0  0  0  0  0  0  0  0  0  0  0
   -0.6500    0.2613   -1.0872 C   0  0  0  0  0  0  0  0  0  0  0  0
   -0.5612   -0.5032    0.0084 C   0  0  0  0  0  0  0  0  0  0  0  0
    0.7132   -0.2552    0.8344 C   0  0  0  0  0  0  0  0  0  0  0  0
    0.8519    1.0236    1.0105 O   0  0  0  0  0  0  0  0  0  0  0  0
    2.0784    1.4615    1.6218 C   0  0  0  0  0  0  0  0  0  0  0  0
   -0.9818   -1.7812    0.0612 O   0  0  0  0  0  0  0  0  0  0  0  0
   -2.5161   -2.0415   -0.2542 C   0  0  0  0  0  0  0  0  0  0  0  0
   -2.9252   -1.0409   -0.6948 O   0  0  0  0  0  0  0  0  0  0  0  0
   -0.7684    1.6669   -3.0841 H   0  0  0  0  0  0  0  0  0  0  0  0
   -1.4285    0.0924    0.6330 H   0  0  0  0  0  0  0  0  0  0  0  0
    1.5664   -0.4880   -0.0462 H   0  0  0  0  0  0  0  0  0  0  0  0
    0.9227   -1.1238    1.5093 H   0  0  0  0  0  0  0  0  0  0  0  0
    1.9391    2.5526    1.5915 H   0  0  0  0  0  0  0  0  0  0  0  0
    2.8309    1.1872    0.7893 H   0  0  0  0  0  0  0  0  0  0  0  0
    2.2594    0.9765    2.5616 H   0  0  0  0  0  0  0  0  0  0  0  0
   -2.6099   -3.0583    0.0499 H   0  0  0  0  0  0  0  0  0  0  0  0
  1  2  3  0
  2  3  1  0
  3  4  1  0
  4  5  1  0
  5  6  1  0
  3  7  1  0
  7  8  1  0
  8  9  2  0
  1 10  1  0
  3 11  1  0
  4 12  1  0
  4 13  1  0
  6 14  1  0
  6 15  1  0
  6 16  1  0
  8 17  1  0
M  END
