
     RDKit          3D

 21 21  0  0  0  0  0  0  0  0999 V2000
    1.4272   -1.7065   -2.1627 C   0  0  0  0  0  0  0  0  0  0  0  0
    1.3653   -1.0737   -1.1359 C   0  0  0  0  0  0  0  0  0  0  0  0
    1.3139   -0.3140    0.1147 C   0  0  0  0  0  0  0  0  0  0  0  0
    0.5378    1.0060    0.1424 C   0  0  0  0  0  0  0  0  0  0  0  0
    1.2589    2.1313    0.8586 C   0  0  0  0  0  0  0  0  0  0  0  0
    0.0819   -0.1870    0.8946 C   0  0  0  0  0  0  0  0  0  0  0  0
   -1.1608   -0.9302    0.5395 C   0  0  0  0  0  0  0  0  0  0  0  0
   -1.6923   -0.6118   -0.8155 C   0  0  0  0  0  0  0  0  0  0  0  0
   -2.1926   -0.6798    1.4616 O   0  0  0  0  0  0  0  0  0  0  0  0
    1.4959   -2.2583   -3.0779 H   0  0  0  0  0  0  0  0  0  0  0  0
    2.2701   -0.3421    0.7056 H   0  0  0  0  0  0  0  0  0  0  0  0
   -0.0256    1.3336   -0.7276 H   0  0  0  0  0  0  0  0  0  0  0  0
    2.2652    2.2274    0.3958 H   0  0  0  0  0  0  0  0  0  0  0  0
    1.3713    1.8596    1.9236 H   0  0  0  0  0  0  0  0  0  0  0  0
    0.6987    3.0770    0.7223 H   0  0  0  0  0  0  0  0  0  0  0  0
    0.2012   -0.0756    2.0183 H   0  0  0  0  0  0  0  0  0  0  0  0
   -0.9813   -2.0367    0.6059 H   0  0  0  0  0  0  0  0  0  0  0  0
   -2.4748    0.1738   -0.7528 H   0  0  0  0  0  0  0  0  0  0  0  0
   -2.1659   -1.5051   -1.2796 H   0  0  0  0  0  0  0  0  0  0  0  0
   -0.9539   -0.2441   -1.5469 H   0  0  0  0  0  0  0  0  0  0  0  0
   -2.6403    0.1564    1.1162 H   0  0  0  0  0  0  0  0  0  0  0  0
  1  2  3  0
  2  3  1  0
  3  4  1  0
  4  5  1  0
  4  6  1  0
  6  7  1  0
  7  8  1  0
  7  9  1  0
  6  3  1  0
  1 10  1  0
  3 11  1  0
  4 12  1  0
  5 13  1  0
  5 14  1  0
  5 15  1  0
  6 16  1  0
  7 17  1  0
  8 18  1  0
  8 19  1  0
  8 20  1  0
  9 21  1  0
M  END
