
     RDKit          3D

 16 15  0  0  0  0  0  0  0  0999 V2000
    0.7386   -2.3351   -0.5036 C   0  0  0  0  0  0  0  0  0  0  0  0
    0.1749   -1.2908   -0.4218 C   0  0  0  0  0  0  0  0  0  0  0  0
   -0.4981   -0.0041   -0.3367 C   0  0  0  0  0  0  0  0  0  0  0  0
   -0.8124    0.5016   -1.7201 C   0  0  0  0  0  0  0  0  0  0  0  0
    0.3464    0.9451    0.4710 C   0  0  0  0  0  0  0  0  0  0  0  0
    0.4435    0.3223    1.8635 C   0  0  0  0  0  0  0  0  0  0  0  0
    1.2589   -3.2976   -0.5971 H   0  0  0  0  0  0  0  0  0  0  0  0
   -1.5022   -0.1412    0.1818 H   0  0  0  0  0  0  0  0  0  0  0  0
   -1.6917    1.1822   -1.6418 H   0  0  0  0  0  0  0  0  0  0  0  0
    0.0632    1.0457   -2.1198 H   0  0  0  0  0  0  0  0  0  0  0  0
   -1.1475   -0.3329   -2.3655 H   0  0  0  0  0  0  0  0  0  0  0  0
   -0.0212    1.9675    0.4868 H   0  0  0  0  0  0  0  0  0  0  0  0
    1.3986    0.9878    0.0935 H   0  0  0  0  0  0  0  0  0  0  0  0
    0.3781   -0.7905    1.7964 H   0  0  0  0  0  0  0  0  0  0  0  0
   -0.4701    0.6362    2.4115 H   0  0  0  0  0  0  0  0  0  0  0  0
    1.3410    0.6038    2.4020 H   0  0  0  0  0  0  0  0  0  0  0  0
  1  2  3  0
  2  3  1  0
  3  4  1  0
  3  5  1  0
  5  6  1  0
  1  7  1  0
  3  8  1  0
  4  9  1  0
  4 10  1  0
  4 11  1  0
  5 12  1  0
  5 13  1  0
  6 14  1  0
  6 15  1  0
  6 16  1  0
M  END
