
     RDKit          3D

 16 15  0  0  0  0  0  0  0  0999 V2000
    2.1678    0.9729   -0.3263 C   0  0  0  0  0  0  0  0  0  0  0  0
    1.5542    0.0641   -0.0569 C   0  0  0  0  0  0  0  0  0  0  0  0
    0.7437   -1.1290    0.3062 C   0  0  0  0  0  0  0  0  0  0  0  0
    1.3098   -1.8562    1.3980 O   0  0  0  0  0  0  0  0  0  0  0  0
   -0.6232   -0.6058    0.8142 C   0  0  0  0  0  0  0  0  0  0  0  0
   -1.3824   -0.0196   -0.2915 C   0  0  0  0  0  0  0  0  0  0  0  0
   -1.2429    1.1488   -1.0602 C   0  0  0  0  0  0  0  0  0  0  0  0
   -2.4075   -0.8165   -0.5590 O   0  0  0  0  0  0  0  0  0  0  0  0
    2.8354    1.9282   -0.6012 H   0  0  0  0  0  0  0  0  0  0  0  0
    0.5871   -1.7327   -0.5730 H   0  0  0  0  0  0  0  0  0  0  0  0
    1.5972   -1.2207    2.1109 H   0  0  0  0  0  0  0  0  0  0  0  0
   -1.1807   -1.3279    1.4097 H   0  0  0  0  0  0  0  0  0  0  0  0
   -0.3152    0.2219    1.5317 H   0  0  0  0  0  0  0  0  0  0  0  0
   -0.8944    0.7986   -2.1147 H   0  0  0  0  0  0  0  0  0  0  0  0
   -2.2438    1.6812   -1.2363 H   0  0  0  0  0  0  0  0  0  0  0  0
   -0.5053    1.8927   -0.7518 H   0  0  0  0  0  0  0  0  0  0  0  0
  1  2  3  0
  2  3  1  0
  3  4  1  0
  3  5  1  0
  5  6  1  0
  6  7  1  0
  6  8  2  0
  1  9  1  0
  3 10  1  0
  4 11  1  0
  5 12  1  0
  5 13  1  0
  7 14  1  0
  7 15  1  0
  7 16  1  0
M  END
