
     RDKit          3D

 15 17  0  0  0  0  0  0  0  0999 V2000
    2.9028   -0.3215   -1.6103 C   0  0  0  0  0  0  0  0  0  0  0  0
    1.9922   -0.3818   -0.8507 C   0  0  0  0  0  0  0  0  0  0  0  0
    0.8730   -0.4415    0.0572 C   0  0  0  0  0  0  0  0  0  0  0  0
    0.2771    0.8407    0.5922 C   0  0  0  0  0  0  0  0  0  0  0  0
   -1.0417    0.3643    0.1612 C   0  0  0  0  0  0  0  0  0  0  0  0
   -2.1451    0.0628    1.1293 C   0  0  0  0  0  0  0  0  0  0  0  0
   -2.1731    1.0182    0.0282 O   0  0  0  0  0  0  0  0  0  0  0  0
   -0.4707   -0.7536   -0.5670 C   0  0  0  0  0  0  0  0  0  0  0  0
    0.2632   -1.6466    0.2231 O   0  0  0  0  0  0  0  0  0  0  0  0
    3.7159   -0.2531   -2.2748 H   0  0  0  0  0  0  0  0  0  0  0  0
    0.4661    1.0333    1.6552 H   0  0  0  0  0  0  0  0  0  0  0  0
    0.6820    1.6930   -0.0309 H   0  0  0  0  0  0  0  0  0  0  0  0
   -2.0015    0.5130    2.1283 H   0  0  0  0  0  0  0  0  0  0  0  0
   -2.7946   -0.8109    1.0081 H   0  0  0  0  0  0  0  0  0  0  0  0
   -0.5458   -0.9162   -1.6492 H   0  0  0  0  0  0  0  0  0  0  0  0
  1  2  3  0
  2  3  1  0
  3  4  1  0
  4  5  1  0
  5  6  1  0
  6  7  1  0
  5  8  1  0
  8  9  1  0
  8  3  1  0
  9  3  1  0
  7  5  1  0
  1 10  1  0
  4 11  1  0
  4 12  1  0
  6 13  1  0
  6 14  1  0
  8 15  1  0
M  END
