
     RDKit          3D

 21 22  0  0  0  0  0  0  0  0999 V2000
   -1.0094    2.4726   -0.4221 C   0  0  0  0  0  0  0  0  0  0  0  0
   -0.5983    1.5460    0.2348 C   0  0  0  0  0  0  0  0  0  0  0  0
   -0.1116    0.4457    1.0387 C   0  0  0  0  0  0  0  0  0  0  0  0
   -0.6535   -0.8992    0.5135 C   0  0  0  0  0  0  0  0  0  0  0  0
   -1.9751   -0.7116   -0.1706 C   0  0  0  0  0  0  0  0  0  0  0  0
    0.4242   -1.3938   -0.4740 C   0  0  0  0  0  0  0  0  0  0  0  0
    1.0877   -0.1082   -0.7528 C   0  0  0  0  0  0  0  0  0  0  0  0
    2.2200    0.5547   -0.2487 C   0  0  0  0  0  0  0  0  0  0  0  0
    1.3304    0.2213    0.7775 C   0  0  0  0  0  0  0  0  0  0  0  0
   -1.3826    3.2947   -0.9873 H   0  0  0  0  0  0  0  0  0  0  0  0
   -0.3635    0.5911    2.0915 H   0  0  0  0  0  0  0  0  0  0  0  0
   -0.7335   -1.5585    1.3769 H   0  0  0  0  0  0  0  0  0  0  0  0
   -1.8233   -0.2802   -1.1773 H   0  0  0  0  0  0  0  0  0  0  0  0
   -2.4168   -1.7166   -0.3171 H   0  0  0  0  0  0  0  0  0  0  0  0
   -2.5996   -0.0755    0.4857 H   0  0  0  0  0  0  0  0  0  0  0  0
    1.0805   -2.1255    0.0588 H   0  0  0  0  0  0  0  0  0  0  0  0
   -0.0747   -1.8153   -1.3482 H   0  0  0  0  0  0  0  0  0  0  0  0
    0.3414    0.5692   -1.2763 H   0  0  0  0  0  0  0  0  0  0  0  0
    2.3967    1.6342   -0.4852 H   0  0  0  0  0  0  0  0  0  0  0  0
    3.2118    0.0186   -0.3342 H   0  0  0  0  0  0  0  0  0  0  0  0
    1.6493   -0.6638    1.4165 H   0  0  0  0  0  0  0  0  0  0  0  0
  1  2  3  0
  2  3  1  0
  3  4  1  0
  4  5  1  0
  4  6  1  0
  6  7  1  0
  7  8  1  0
  8  9  1  0
  9  3  1  0
  9  7  1  0
  1 10  1  0
  3 11  1  0
  4 12  1  0
  5 13  1  0
  5 14  1  0
  5 15  1  0
  6 16  1  0
  6 17  1  0
  7 18  1  0
  8 19  1  0
  8 20  1  0
  9 21  1  0
M  END
