
     RDKit          3D

 17 17  0  0  0  0  0  0  0  0999 V2000
    1.9766    2.5086    1.4274 C   0  0  0  0  0  0  0  0  0  0  0  0
    1.2684    1.8303    0.7446 C   0  0  0  0  0  0  0  0  0  0  0  0
    0.4401    1.0359   -0.0443 C   0  0  0  0  0  0  0  0  0  0  0  0
   -0.1953    0.9641   -1.1218 C   0  0  0  0  0  0  0  0  0  0  0  0
   -1.0443   -0.1827   -1.5531 C   0  0  0  0  0  0  0  0  0  0  0  0
   -1.4274   -0.1474   -2.7409 O   0  0  0  0  0  0  0  0  0  0  0  0
   -1.3846   -1.2273   -0.5955 C   0  0  0  0  0  0  0  0  0  0  0  0
   -0.1177   -1.4651    0.2161 C   0  0  0  0  0  0  0  0  0  0  0  0
    0.3679   -0.3196    0.8849 C   0  0  0  0  0  0  0  0  0  0  0  0
    2.5993    3.1062    2.0287 H   0  0  0  0  0  0  0  0  0  0  0  0
   -0.0556    1.8479   -1.8459 H   0  0  0  0  0  0  0  0  0  0  0  0
   -2.1823   -0.9998    0.1314 H   0  0  0  0  0  0  0  0  0  0  0  0
   -1.6523   -2.2339   -1.0238 H   0  0  0  0  0  0  0  0  0  0  0  0
    0.5271   -2.0945   -0.4485 H   0  0  0  0  0  0  0  0  0  0  0  0
   -0.4656   -2.2739    0.9759 H   0  0  0  0  0  0  0  0  0  0  0  0
   -0.1255    0.0381    1.7791 H   0  0  0  0  0  0  0  0  0  0  0  0
    1.4712   -0.3869    1.1856 H   0  0  0  0  0  0  0  0  0  0  0  0
  1  2  3  0
  2  3  1  0
  3  4  2  0
  4  5  1  0
  5  6  2  0
  5  7  1  0
  7  8  1  0
  8  9  1  0
  9  3  1  0
  1 10  1  0
  4 11  1  0
  7 12  1  0
  7 13  1  0
  8 14  1  0
  8 15  1  0
  9 16  1  0
  9 17  1  0
M  END
