
     RDKit          3D

 17 17  0  0  0  0  0  0  0  0999 V2000
   -0.6197    2.6141    0.6794 C   0  0  0  0  0  0  0  0  0  0  0  0
   -0.2945    1.6585    0.0170 C   0  0  0  0  0  0  0  0  0  0  0  0
    0.1116    0.4947   -0.7663 C   0  0  0  0  0  0  0  0  0  0  0  0
    1.5917    0.3162   -0.5547 C   0  0  0  0  0  0  0  0  0  0  0  0
    1.5503   -0.1949    0.8688 C   0  0  0  0  0  0  0  0  0  0  0  0
    2.3343    0.1049    1.7678 O   0  0  0  0  0  0  0  0  0  0  0  0
    0.3781   -1.0830    0.8307 C   0  0  0  0  0  0  0  0  0  0  0  0
   -0.4591   -0.6953   -0.1106 C   0  0  0  0  0  0  0  0  0  0  0  0
   -1.7546   -1.3806   -0.4205 C   0  0  0  0  0  0  0  0  0  0  0  0
   -0.8971    3.4762    1.2617 H   0  0  0  0  0  0  0  0  0  0  0  0
   -0.1700    0.5853   -1.8296 H   0  0  0  0  0  0  0  0  0  0  0  0
    1.9970   -0.5367   -1.1654 H   0  0  0  0  0  0  0  0  0  0  0  0
    2.1739    1.2302   -0.6420 H   0  0  0  0  0  0  0  0  0  0  0  0
    0.2792   -1.9341    1.5238 H   0  0  0  0  0  0  0  0  0  0  0  0
   -2.3781   -0.7484   -1.0882 H   0  0  0  0  0  0  0  0  0  0  0  0
   -2.2548   -1.5614    0.5485 H   0  0  0  0  0  0  0  0  0  0  0  0
   -1.5882   -2.3457   -0.9200 H   0  0  0  0  0  0  0  0  0  0  0  0
  1  2  3  0
  2  3  1  0
  3  4  1  0
  4  5  1  0
  5  6  2  0
  5  7  1  0
  7  8  2  0
  8  9  1  0
  8  3  1  0
  1 10  1  0
  3 11  1  0
  4 12  1  0
  4 13  1  0
  7 14  1  0
  9 15  1  0
  9 16  1  0
  9 17  1  0
M  END
