
     RDKit          3D

 19 19  0  0  0  0  0  0  0  0999 V2000
   -1.8547    1.8978   -1.3625 C   0  0  0  0  0  0  0  0  0  0  0  0
   -1.4801    0.9249   -0.7431 C   0  0  0  0  0  0  0  0  0  0  0  0
   -1.0046   -0.2523   -0.0035 C   0  0  0  0  0  0  0  0  0  0  0  0
   -2.1104   -0.8540    0.8314 C   0  0  0  0  0  0  0  0  0  0  0  0
    0.1443    0.1191    0.8404 C   0  0  0  0  0  0  0  0  0  0  0  0
    1.2420   -0.0995    0.1493 C   0  0  0  0  0  0  0  0  0  0  0  0
    2.6304    0.1338    0.6057 C   0  0  0  0  0  0  0  0  0  0  0  0
    0.8089   -0.6334   -1.1926 C   0  0  0  0  0  0  0  0  0  0  0  0
   -0.4747   -1.1288   -0.9142 O   0  0  0  0  0  0  0  0  0  0  0  0
   -2.1691    2.7563   -1.8966 H   0  0  0  0  0  0  0  0  0  0  0  0
   -2.2569   -0.1549    1.6986 H   0  0  0  0  0  0  0  0  0  0  0  0
   -1.7509   -1.8197    1.2106 H   0  0  0  0  0  0  0  0  0  0  0  0
   -3.0195   -0.9256    0.2018 H   0  0  0  0  0  0  0  0  0  0  0  0
    0.0930    0.4986    1.8371 H   0  0  0  0  0  0  0  0  0  0  0  0
    3.0263   -0.6629    1.2549 H   0  0  0  0  0  0  0  0  0  0  0  0
    2.6367    1.0708    1.2344 H   0  0  0  0  0  0  0  0  0  0  0  0
    3.3309    0.3538   -0.2374 H   0  0  0  0  0  0  0  0  0  0  0  0
    1.4903   -1.4000   -1.5723 H   0  0  0  0  0  0  0  0  0  0  0  0
    0.7184    0.1759   -1.9420 H   0  0  0  0  0  0  0  0  0  0  0  0
  1  2  3  0
  2  3  1  0
  3  4  1  0
  3  5  1  0
  5  6  2  0
  6  7  1  0
  6  8  1  0
  8  9  1  0
  9  3  1  0
  1 10  1  0
  4 11  1  0
  4 12  1  0
  4 13  1  0
  5 14  1  0
  7 15  1  0
  7 16  1  0
  7 17  1  0
  8 18  1  0
  8 19  1  0
M  END
