
     RDKit          3D

 17 18  0  0  0  0  0  0  0  0999 V2000
    3.6445   -0.2901   -0.8115 C   0  0  0  0  0  0  0  0  0  0  0  0
    2.4963   -0.0685   -0.5216 C   0  0  0  0  0  0  0  0  0  0  0  0
    1.0807    0.1785   -0.1637 C   0  0  0  0  0  0  0  0  0  0  0  0
    0.1962   -1.0183   -0.4016 C   0  0  0  0  0  0  0  0  0  0  0  0
   -0.7472    0.0624   -0.7880 C   0  0  0  0  0  0  0  0  0  0  0  0
   -1.6350    0.6224    0.2607 C   0  0  0  0  0  0  0  0  0  0  0  0
   -2.0655   -0.1807    1.4645 C   0  0  0  0  0  0  0  0  0  0  0  0
   -1.1670    0.8875    1.5315 O   0  0  0  0  0  0  0  0  0  0  0  0
    0.3716    0.8558   -1.1176 O   0  0  0  0  0  0  0  0  0  0  0  0
    4.6660   -0.4982   -1.0545 H   0  0  0  0  0  0  0  0  0  0  0  0
    1.0474    0.6297    0.8305 H   0  0  0  0  0  0  0  0  0  0  0  0
    0.5534   -1.6396   -1.2477 H   0  0  0  0  0  0  0  0  0  0  0  0
    0.0230   -1.6033    0.4959 H   0  0  0  0  0  0  0  0  0  0  0  0
   -1.3261   -0.1060   -1.7335 H   0  0  0  0  0  0  0  0  0  0  0  0
   -2.3785    1.3674   -0.1344 H   0  0  0  0  0  0  0  0  0  0  0  0
   -3.1185   -0.0009    1.8062 H   0  0  0  0  0  0  0  0  0  0  0  0
   -1.6414   -1.1948    1.5849 H   0  0  0  0  0  0  0  0  0  0  0  0
  1  2  3  0
  2  3  1  0
  3  4  1  0
  4  5  1  0
  5  6  1  0
  6  7  1  0
  7  8  1  0
  5  9  1  0
  9  3  1  0
  8  6  1  0
  1 10  1  0
  3 11  1  0
  4 12  1  0
  4 13  1  0
  5 14  1  0
  6 15  1  0
  7 16  1  0
  7 17  1  0
M  END
