
     RDKit          3D

 21 22  0  0  0  0  0  0  0  0999 V2000
    2.9520   -0.9252   -1.2294 C   0  0  0  0  0  0  0  0  0  0  0  0
    2.4761    0.0271   -0.6379 C   0  0  0  0  0  0  0  0  0  0  0  0
    1.8936    1.1820    0.0519 C   0  0  0  0  0  0  0  0  0  0  0  0
    1.1689    0.9659    1.3316 C   0  0  0  0  0  0  0  0  0  0  0  0
    0.4179    1.2660    0.0814 C   0  0  0  0  0  0  0  0  0  0  0  0
   -0.4548    0.2270   -0.5096 C   0  0  0  0  0  0  0  0  0  0  0  0
   -0.3354   -1.2034    0.0084 C   0  0  0  0  0  0  0  0  0  0  0  0
   -1.4471   -0.3853    0.5160 C   0  0  0  0  0  0  0  0  0  0  0  0
   -2.8594   -0.5784   -0.0120 C   0  0  0  0  0  0  0  0  0  0  0  0
    3.3804   -1.7608   -1.7341 H   0  0  0  0  0  0  0  0  0  0  0  0
    2.4839    2.1137    0.0022 H   0  0  0  0  0  0  0  0  0  0  0  0
    1.1793    1.7781    2.1140 H   0  0  0  0  0  0  0  0  0  0  0  0
    1.2108   -0.0178    1.7737 H   0  0  0  0  0  0  0  0  0  0  0  0
    0.0228    2.3213   -0.0488 H   0  0  0  0  0  0  0  0  0  0  0  0
   -0.8600    0.3541   -1.5438 H   0  0  0  0  0  0  0  0  0  0  0  0
    0.4567   -1.4917    0.6919 H   0  0  0  0  0  0  0  0  0  0  0  0
   -0.6674   -2.0180   -0.6983 H   0  0  0  0  0  0  0  0  0  0  0  0
   -1.4215   -0.0197    1.5477 H   0  0  0  0  0  0  0  0  0  0  0  0
   -3.0000    0.1501   -0.8354 H   0  0  0  0  0  0  0  0  0  0  0  0
   -3.6262   -0.3569    0.7435 H   0  0  0  0  0  0  0  0  0  0  0  0
   -2.9706   -1.6280   -0.3667 H   0  0  0  0  0  0  0  0  0  0  0  0
  1  2  3  0
  2  3  1  0
  3  4  1  0
  4  5  1  0
  5  6  1  0
  6  7  1  0
  7  8  1  0
  8  9  1  0
  5  3  1  0
  8  6  1  0
  1 10  1  0
  3 11  1  0
  4 12  1  0
  4 13  1  0
  5 14  1  0
  6 15  1  0
  7 16  1  0
  7 17  1  0
  8 18  1  0
  9 19  1  0
  9 20  1  0
  9 21  1  0
M  END
