
     RDKit          3D

 19 20  0  0  0  0  0  0  0  0999 V2000
    2.8429    0.2568    1.1973 C   0  0  0  0  0  0  0  0  0  0  0  0
    1.8212    0.5873    0.9971 C   0  0  0  0  0  0  0  0  0  0  0  0
    0.5031    1.0393    0.7429 C   0  0  0  0  0  0  0  0  0  0  0  0
    0.2815    1.2616   -0.8448 C   0  0  0  0  0  0  0  0  0  0  0  0
   -0.4838    0.4319   -1.3180 C   0  0  0  0  0  0  0  0  0  0  0  0
   -1.2501   -0.7421   -0.8025 C   0  0  0  0  0  0  0  0  0  0  0  0
   -0.3495   -1.7731   -0.0814 C   0  0  0  0  0  0  0  0  0  0  0  0
   -1.1506   -0.8059    0.6879 C   0  0  0  0  0  0  0  0  0  0  0  0
   -0.6410    0.4354    1.3038 C   0  0  0  0  0  0  0  0  0  0  0  0
    4.0566   -0.1375    1.4236 H   0  0  0  0  0  0  0  0  0  0  0  0
    0.5146    2.1978    1.0413 H   0  0  0  0  0  0  0  0  0  0  0  0
    0.8205    2.1332   -1.1011 H   0  0  0  0  0  0  0  0  0  0  0  0
   -0.7414    0.5990   -2.4287 H   0  0  0  0  0  0  0  0  0  0  0  0
   -2.0958   -1.1349   -1.3660 H   0  0  0  0  0  0  0  0  0  0  0  0
    0.7128   -1.7050   -0.3232 H   0  0  0  0  0  0  0  0  0  0  0  0
   -0.7182   -2.8473   -0.1676 H   0  0  0  0  0  0  0  0  0  0  0  0
   -2.0561   -1.3160    1.1693 H   0  0  0  0  0  0  0  0  0  0  0  0
   -0.5590    0.3011    2.4169 H   0  0  0  0  0  0  0  0  0  0  0  0
   -1.5076    1.2186    1.1849 H   0  0  0  0  0  0  0  0  0  0  0  0
  1  2  3  0
  2  3  1  0
  3  4  1  0
  4  5  2  0
  5  6  1  0
  6  7  1  0
  7  8  1  0
  8  9  1  0
  9  3  1  0
  8  6  1  0
  1 10  1  0
  3 11  1  0
  4 12  1  0
  5 13  1  0
  6 14  1  0
  7 15  1  0
  7 16  1  0
  8 17  1  0
  9 18  1  0
  9 19  1  0
M  END
