
     RDKit          3D

 18 17  0  0  0  0  0  0  0  0999 V2000
    4.2190   -0.7231    0.5390 C   0  0  0  0  0  0  0  0  0  0  0  0
    3.1212   -0.3079    0.2502 C   0  0  0  0  0  0  0  0  0  0  0  0
    1.7548    0.1877   -0.0900 C   0  0  0  0  0  0  0  0  0  0  0  0
    1.0043   -0.9241   -0.4061 O   0  0  0  0  0  0  0  0  0  0  0  0
   -0.2757   -0.5661   -0.7677 C   0  0  0  0  0  0  0  0  0  0  0  0
   -0.9913    0.1502    0.3334 C   0  0  0  0  0  0  0  0  0  0  0  0
   -2.4045    0.4916   -0.1379 C   0  0  0  0  0  0  0  0  0  0  0  0
   -3.0624    1.1612    0.9018 O   0  0  0  0  0  0  0  0  0  0  0  0
    5.1740   -1.0926    0.8080 H   0  0  0  0  0  0  0  0  0  0  0  0
    1.4361    0.6877    0.8576 H   0  0  0  0  0  0  0  0  0  0  0  0
    1.7869    0.9037   -0.9168 H   0  0  0  0  0  0  0  0  0  0  0  0
   -0.8393   -1.4814   -1.0749 H   0  0  0  0  0  0  0  0  0  0  0  0
   -0.2206    0.0564   -1.7018 H   0  0  0  0  0  0  0  0  0  0  0  0
   -0.4568    1.1275    0.5057 H   0  0  0  0  0  0  0  0  0  0  0  0
   -1.0344   -0.4807    1.2237 H   0  0  0  0  0  0  0  0  0  0  0  0
   -2.3323    1.1385   -1.0279 H   0  0  0  0  0  0  0  0  0  0  0  0
   -2.9182   -0.4661   -0.3464 H   0  0  0  0  0  0  0  0  0  0  0  0
   -3.9606    0.7809    1.0500 H   0  0  0  0  0  0  0  0  0  0  0  0
  1  2  3  0
  2  3  1  0
  3  4  1  0
  4  5  1  0
  5  6  1  0
  6  7  1  0
  7  8  1  0
  1  9  1  0
  3 10  1  0
  3 11  1  0
  5 12  1  0
  5 13  1  0
  6 14  1  0
  6 15  1  0
  7 16  1  0
  7 17  1  0
  8 18  1  0
M  END
