
     RDKit          3D

 16 15  0  0  0  0  0  0  0  0999 V2000
   -2.2806    1.8934    0.7271 C   0  0  0  0  0  0  0  0  0  0  0  0
   -1.8894    0.1736    0.3455 C   0  0  0  0  0  0  0  0  0  0  0  0
   -1.6808   -0.6848    0.1509 C   0  0  0  0  0  0  0  0  0  0  0  0
   -0.9488   -1.6553    1.1643 C   0  0  0  0  0  0  0  0  0  0  0  0
   -0.2726   -0.0794   -0.4851 C   0  0  0  0  0  0  0  0  0  0  0  0
    0.8856    0.4359   -0.9982 C   0  0  0  0  0  0  0  0  0  0  0  0
    2.2201    1.0464   -1.6083 C   0  0  0  0  0  0  0  0  0  0  0  0
    2.8839    1.0668    0.0485 O   0  0  0  0  0  0  0  0  0  0  0  0
   -2.4699    2.7389    0.9299 H   0  0  0  0  0  0  0  0  0  0  0  0
   -1.7006   -1.3249   -0.8422 H   0  0  0  0  0  0  0  0  0  0  0  0
   -0.1011   -1.3374    1.5806 H   0  0  0  0  0  0  0  0  0  0  0  0
   -1.8004   -2.1070    1.7674 H   0  0  0  0  0  0  0  0  0  0  0  0
   -0.7750   -2.6433    0.5339 H   0  0  0  0  0  0  0  0  0  0  0  0
    2.1984    2.0874   -1.6059 H   0  0  0  0  0  0  0  0  0  0  0  0
    2.7920    0.2738   -1.8001 H   0  0  0  0  0  0  0  0  0  0  0  0
    2.9393    0.1159    0.0917 H   0  0  0  0  0  0  0  0  0  0  0  0
  1  2  3  0
  2  3  1  0
  3  4  1  0
  3  5  1  0
  5  6  3  0
  6  7  1  0
  7  8  1  0
  1  9  1  0
  3 10  1  0
  4 11  1  0
  4 12  1  0
  4 13  1  0
  7 14  1  0
  7 15  1  0
  8 16  1  0
M  END
