
     RDKit          3D

 13 13  0  0  0  0  0  0  0  0999 V2000
    3.3326    0.0781    0.0491 C   0  0  0  0  0  0  0  0  0  0  0  0
    1.9974   -0.2484   -0.2563 C   0  0  0  0  0  0  0  0  0  0  0  0
    0.5553   -0.6037   -0.5912 C   0  0  0  0  0  0  0  0  0  0  0  0
    0.4621   -1.2988   -1.7671 O   0  0  0  0  0  0  0  0  0  0  0  0
   -0.5943   -0.2238    0.1338 C   0  0  0  0  0  0  0  0  0  0  0  0
   -1.8126   -1.0536    0.3215 C   0  0  0  0  0  0  0  0  0  0  0  0
   -2.8455   -0.7926   -0.2653 O   0  0  0  0  0  0  0  0  0  0  0  0
   -0.8526    1.2934    0.0492 C   0  0  0  0  0  0  0  0  0  0  0  0
   -0.3610    0.7190    1.1518 O   0  0  0  0  0  0  0  0  0  0  0  0
    4.0314    0.2544    0.2181 H   0  0  0  0  0  0  0  0  0  0  0  0
   -1.7457   -1.8864    0.9618 H   0  0  0  0  0  0  0  0  0  0  0  0
   -1.9188    1.7596    0.2003 H   0  0  0  0  0  0  0  0  0  0  0  0
   -0.2481    2.0027   -0.5410 H   0  0  0  0  0  0  0  0  0  0  0  0
  1  2  3  0
  2  3  1  0
  3  4  2  0
  3  5  1  0
  5  6  1  0
  6  7  2  0
  5  8  1  0
  8  9  1  0
  9  5  1  0
  1 10  1  0
  6 11  1  0
  8 12  1  0
  8 13  1  0
M  END
