
     RDKit          3D

 17 17  0  0  0  0  0  0  0  0999 V2000
   -1.3794    2.3105    0.4432 C   0  0  0  0  0  0  0  0  0  0  0  0
   -0.9931    1.1813    0.2789 C   0  0  0  0  0  0  0  0  0  0  0  0
   -0.5040   -0.1860    0.0949 C   0  0  0  0  0  0  0  0  0  0  0  0
   -1.4200   -1.2374    0.6779 C   0  0  0  0  0  0  0  0  0  0  0  0
    0.0504   -0.4996   -1.3333 C   0  0  0  0  0  0  0  0  0  0  0  0
    0.9116   -0.4943   -0.0692 C   0  0  0  0  0  0  0  0  0  0  0  0
    2.0070    0.5054    0.0680 C   0  0  0  0  0  0  0  0  0  0  0  0
   -1.7311    3.3032    0.5844 H   0  0  0  0  0  0  0  0  0  0  0  0
   -1.8143   -1.8365   -0.1667 H   0  0  0  0  0  0  0  0  0  0  0  0
   -2.2727   -0.7935    1.2374 H   0  0  0  0  0  0  0  0  0  0  0  0
   -0.8968   -1.9136    1.3895 H   0  0  0  0  0  0  0  0  0  0  0  0
   -0.2624   -1.4533   -1.7641 H   0  0  0  0  0  0  0  0  0  0  0  0
    0.1070    0.3695   -2.0139 H   0  0  0  0  0  0  0  0  0  0  0  0
    1.2186   -1.5392    0.2315 H   0  0  0  0  0  0  0  0  0  0  0  0
    1.7881    1.2534    0.8750 H   0  0  0  0  0  0  0  0  0  0  0  0
    2.9826    0.0382    0.3755 H   0  0  0  0  0  0  0  0  0  0  0  0
    2.2086    0.9920   -0.9090 H   0  0  0  0  0  0  0  0  0  0  0  0
  1  2  3  0
  2  3  1  0
  3  4  1  0
  3  5  1  0
  5  6  1  0
  6  7  1  0
  6  3  1  0
  1  8  1  0
  4  9  1  0
  4 10  1  0
  4 11  1  0
  5 12  1  0
  5 13  1  0
  6 14  1  0
  7 15  1  0
  7 16  1  0
  7 17  1  0
M  END
