
     RDKit          3D

 21 21  0  0  0  0  0  0  0  0999 V2000
   -1.8401   -2.5021   -1.2450 C   0  0  0  0  0  0  0  0  0  0  0  0
   -1.8422   -1.1617   -0.9793 C   0  0  0  0  0  0  0  0  0  0  0  0
   -1.8546    0.2408   -0.6842 C   0  0  0  0  0  0  0  0  0  0  0  0
   -2.6980    0.9188   -1.5451 O   0  0  0  0  0  0  0  0  0  0  0  0
   -0.4906    0.8281   -0.6398 C   0  0  0  0  0  0  0  0  0  0  0  0
    0.3761    0.3378    0.4391 C   0  0  0  0  0  0  0  0  0  0  0  0
    1.8058    1.0290    0.4048 C   0  0  0  0  0  0  0  0  0  0  0  0
    2.1967   -0.1133    1.3075 C   0  0  0  0  0  0  0  0  0  0  0  0
    1.1290   -0.9134    0.4761 C   0  0  0  0  0  0  0  0  0  0  0  0
   -1.8452   -3.2590   -1.4064 H   0  0  0  0  0  0  0  0  0  0  0  0
   -2.2587    0.3807    0.3938 H   0  0  0  0  0  0  0  0  0  0  0  0
   -3.3488    1.4761   -0.9736 H   0  0  0  0  0  0  0  0  0  0  0  0
   -0.5392    1.9579   -0.5217 H   0  0  0  0  0  0  0  0  0  0  0  0
    0.0017    0.7011   -1.6584 H   0  0  0  0  0  0  0  0  0  0  0  0
   -0.0400    0.5813    1.4637 H   0  0  0  0  0  0  0  0  0  0  0  0
    2.2588    1.0332   -0.5622 H   0  0  0  0  0  0  0  0  0  0  0  0
    1.7466    1.9929    0.9479 H   0  0  0  0  0  0  0  0  0  0  0  0
    3.1427   -0.5870    1.2488 H   0  0  0  0  0  0  0  0  0  0  0  0
    1.7444    0.0980    2.3225 H   0  0  0  0  0  0  0  0  0  0  0  0
    1.5817   -1.2884   -0.4568 H   0  0  0  0  0  0  0  0  0  0  0  0
    0.7736   -1.7508    1.1378 H   0  0  0  0  0  0  0  0  0  0  0  0
  1  2  3  0
  2  3  1  0
  3  4  1  0
  3  5  1  0
  5  6  1  0
  6  7  1  0
  7  8  1  0
  8  9  1  0
  9  6  1  0
  1 10  1  0
  3 11  1  0
  4 12  1  0
  5 13  1  0
  5 14  1  0
  6 15  1  0
  7 16  1  0
  7 17  1  0
  8 18  1  0
  8 19  1  0
  9 20  1  0
  9 21  1  0
M  END
