
     RDKit          3D

 19 19  0  0  0  0  0  0  0  0999 V2000
    3.0929    1.0116    1.4905 C   0  0  0  0  0  0  0  0  0  0  0  0
    2.1223    0.3341    0.1262 C   0  0  0  0  0  0  0  0  0  0  0  0
    1.5977   -0.0242   -0.5819 C   0  0  0  0  0  0  0  0  0  0  0  0
    0.1027   -0.4657   -0.1130 C   0  0  0  0  0  0  0  0  0  0  0  0
   -0.9721    0.2013   -0.4387 C   0  0  0  0  0  0  0  0  0  0  0  0
   -1.1275    1.4124   -1.2610 C   0  0  0  0  0  0  0  0  0  0  0  0
   -2.1122   -0.3441    0.4641 C   0  0  0  0  0  0  0  0  0  0  0  0
   -1.3565   -1.3990    1.3545 O   0  0  0  0  0  0  0  0  0  0  0  0
   -0.1661   -1.6351    0.6352 C   0  0  0  0  0  0  0  0  0  0  0  0
    3.7546    1.4494    2.4158 H   0  0  0  0  0  0  0  0  0  0  0  0
    1.9480   -1.3337   -0.7897 H   0  0  0  0  0  0  0  0  0  0  0  0
    1.5718   -0.0127   -1.7397 H   0  0  0  0  0  0  0  0  0  0  0  0
   -0.1063    1.8204   -1.6474 H   0  0  0  0  0  0  0  0  0  0  0  0
   -1.3645    2.2466   -0.4387 H   0  0  0  0  0  0  0  0  0  0  0  0
   -1.9011    1.4873   -2.0269 H   0  0  0  0  0  0  0  0  0  0  0  0
   -2.3789    0.4481    1.2685 H   0  0  0  0  0  0  0  0  0  0  0  0
   -2.8913   -0.7292   -0.0277 H   0  0  0  0  0  0  0  0  0  0  0  0
   -0.4402   -2.5752   -0.0582 H   0  0  0  0  0  0  0  0  0  0  0  0
    0.6265   -1.8922    1.3681 H   0  0  0  0  0  0  0  0  0  0  0  0
  1  2  3  0
  2  3  1  0
  3  4  1  0
  4  5  2  0
  5  6  1  0
  5  7  1  0
  7  8  1  0
  8  9  1  0
  9  4  1  0
  1 10  1  0
  3 11  1  0
  3 12  1  0
  6 13  1  0
  6 14  1  0
  6 15  1  0
  7 16  1  0
  7 17  1  0
  9 18  1  0
  9 19  1  0
M  END
