
     RDKit          3D

 19 19  0  0  0  0  0  0  0  0999 V2000
    3.8009   -0.6498    1.1734 C   0  0  0  0  0  0  0  0  0  0  0  0
    2.7592   -0.1170    0.8714 C   0  0  0  0  0  0  0  0  0  0  0  0
    1.5167    0.5348    0.4877 C   0  0  0  0  0  0  0  0  0  0  0  0
    1.4773    0.8142   -0.9695 O   0  0  0  0  0  0  0  0  0  0  0  0
    0.5756   -0.1682   -0.3118 C   0  0  0  0  0  0  0  0  0  0  0  0
   -0.8397    0.2032   -0.5549 C   0  0  0  0  0  0  0  0  0  0  0  0
   -1.4748   -0.8239   -1.4676 C   0  0  0  0  0  0  0  0  0  0  0  0
   -1.6759    0.2303    0.7073 C   0  0  0  0  0  0  0  0  0  0  0  0
   -1.1636    1.1636    1.6294 O   0  0  0  0  0  0  0  0  0  0  0  0
    4.7278   -1.1094    1.4520 H   0  0  0  0  0  0  0  0  0  0  0  0
    1.3150    1.4723    1.0186 H   0  0  0  0  0  0  0  0  0  0  0  0
    0.8382   -1.2263   -0.5912 H   0  0  0  0  0  0  0  0  0  0  0  0
   -0.9754    1.1878   -1.0672 H   0  0  0  0  0  0  0  0  0  0  0  0
   -2.2277   -0.3588   -2.1382 H   0  0  0  0  0  0  0  0  0  0  0  0
   -2.0189   -1.6025   -0.8681 H   0  0  0  0  0  0  0  0  0  0  0  0
   -0.7089   -1.3814   -2.0610 H   0  0  0  0  0  0  0  0  0  0  0  0
   -2.7170    0.5496    0.4990 H   0  0  0  0  0  0  0  0  0  0  0  0
   -1.7320   -0.7818    1.1524 H   0  0  0  0  0  0  0  0  0  0  0  0
   -1.4768    2.0632    1.4293 H   0  0  0  0  0  0  0  0  0  0  0  0
  1  2  3  0
  2  3  1  0
  3  4  1  0
  4  5  1  0
  5  6  1  0
  6  7  1  0
  6  8  1  0
  8  9  1  0
  5  3  1  0
  1 10  1  0
  3 11  1  0
  5 12  1  0
  6 13  1  0
  7 14  1  0
  7 15  1  0
  7 16  1  0
  8 17  1  0
  8 18  1  0
  9 19  1  0
M  END
