
     RDKit          3D

 14 14  0  0  0  0  0  0  0  0999 V2000
    2.1756   -0.2761   -2.3745 C   0  0  0  0  0  0  0  0  0  0  0  0
    1.2678   -0.2274   -1.4976 C   0  0  0  0  0  0  0  0  0  0  0  0
    0.2771   -0.1884   -0.5145 C   0  0  0  0  0  0  0  0  0  0  0  0
    0.4844   -1.0887    0.6892 C   0  0  0  0  0  0  0  0  0  0  0  0
    0.6276   -1.8040    1.6450 C   0  0  0  0  0  0  0  0  0  0  0  0
   -1.0621   -0.3743   -0.9844 O   0  0  0  0  0  0  0  0  0  0  0  0
   -0.7934    0.8481   -0.3662 C   0  0  0  0  0  0  0  0  0  0  0  0
   -1.3556    1.0066    1.0447 C   0  0  0  0  0  0  0  0  0  0  0  0
    2.9233   -0.3035   -3.1141 H   0  0  0  0  0  0  0  0  0  0  0  0
    0.7494   -2.4486    2.5230 H   0  0  0  0  0  0  0  0  0  0  0  0
   -0.8209    1.6874   -1.0590 H   0  0  0  0  0  0  0  0  0  0  0  0
   -1.0308    2.0010    1.3929 H   0  0  0  0  0  0  0  0  0  0  0  0
   -2.4658    1.0076    0.9737 H   0  0  0  0  0  0  0  0  0  0  0  0
   -0.9767    0.1603    1.6417 H   0  0  0  0  0  0  0  0  0  0  0  0
  1  2  3  0
  2  3  1  0
  3  4  1  0
  4  5  3  0
  3  6  1  0
  6  7  1  0
  7  8  1  0
  7  3  1  0
  1  9  1  0
  5 10  1  0
  7 11  1  0
  8 12  1  0
  8 13  1  0
  8 14  1  0
M  END
