
     RDKit          3D

 21 22  0  0  0  0  0  0  0  0999 V2000
    3.1876   -0.6957   -0.0756 C   0  0  0  0  0  0  0  0  0  0  0  0
    2.1893   -0.0591   -0.3804 C   0  0  0  0  0  0  0  0  0  0  0  0
    1.0230    0.6998   -0.7609 C   0  0  0  0  0  0  0  0  0  0  0  0
    0.0731    1.1371    0.2783 C   0  0  0  0  0  0  0  0  0  0  0  0
    0.1067    0.3895    1.6064 C   0  0  0  0  0  0  0  0  0  0  0  0
   -1.0355   -0.6006    1.3683 C   0  0  0  0  0  0  0  0  0  0  0  0
   -0.5907   -1.1812    0.0312 C   0  0  0  0  0  0  0  0  0  0  0  0
   -0.2887    0.0501   -0.7585 C   0  0  0  0  0  0  0  0  0  0  0  0
   -1.3715    0.4634   -1.7277 C   0  0  0  0  0  0  0  0  0  0  0  0
    4.0460   -1.2594    0.1933 H   0  0  0  0  0  0  0  0  0  0  0  0
    1.1966    1.4255   -1.6044 H   0  0  0  0  0  0  0  0  0  0  0  0
   -0.4837    2.0760    0.2321 H   0  0  0  0  0  0  0  0  0  0  0  0
    1.0315   -0.2209    1.7113 H   0  0  0  0  0  0  0  0  0  0  0  0
   -0.0762    1.0519    2.4489 H   0  0  0  0  0  0  0  0  0  0  0  0
   -1.0947   -1.3603    2.1600 H   0  0  0  0  0  0  0  0  0  0  0  0
   -1.9555    0.0070    1.2730 H   0  0  0  0  0  0  0  0  0  0  0  0
   -1.4192   -1.7799   -0.4016 H   0  0  0  0  0  0  0  0  0  0  0  0
    0.3084   -1.8015    0.2575 H   0  0  0  0  0  0  0  0  0  0  0  0
   -1.6796   -0.4459   -2.2862 H   0  0  0  0  0  0  0  0  0  0  0  0
   -0.9296    1.2391   -2.3977 H   0  0  0  0  0  0  0  0  0  0  0  0
   -2.2373    0.8653   -1.1674 H   0  0  0  0  0  0  0  0  0  0  0  0
  1  2  3  0
  2  3  1  0
  3  4  1  0
  4  5  1  0
  5  6  1  0
  6  7  1  0
  7  8  1  0
  8  9  1  0
  8  3  1  0
  8  4  1  0
  1 10  1  0
  3 11  1  0
  4 12  1  0
  5 13  1  0
  5 14  1  0
  6 15  1  0
  6 16  1  0
  7 17  1  0
  7 18  1  0
  9 19  1  0
  9 20  1  0
  9 21  1  0
M  END
