
     RDKit          3D

 18 19  0  0  0  0  0  0  0  0999 V2000
    3.4035    1.4405    0.5263 C   0  0  0  0  0  0  0  0  0  0  0  0
    2.3184    1.0757    0.1197 C   0  0  0  0  0  0  0  0  0  0  0  0
    1.0088    0.6291   -0.3576 C   0  0  0  0  0  0  0  0  0  0  0  0
    0.7553   -0.7976   -0.5738 C   0  0  0  0  0  0  0  0  0  0  0  0
   -0.6648   -1.1761   -0.9512 C   0  0  0  0  0  0  0  0  0  0  0  0
   -1.1706   -0.6078    0.3542 C   0  0  0  0  0  0  0  0  0  0  0  0
   -2.2071    0.4753    0.2328 C   0  0  0  0  0  0  0  0  0  0  0  0
    0.2079   -0.1259    0.6456 C   0  0  0  0  0  0  0  0  0  0  0  0
    4.3487    1.7729    0.8952 H   0  0  0  0  0  0  0  0  0  0  0  0
    0.5110    1.3693   -1.0129 H   0  0  0  0  0  0  0  0  0  0  0  0
    1.5094   -1.5747   -0.4523 H   0  0  0  0  0  0  0  0  0  0  0  0
   -0.8232   -2.2656   -1.0840 H   0  0  0  0  0  0  0  0  0  0  0  0
   -1.0914   -0.6314   -1.8044 H   0  0  0  0  0  0  0  0  0  0  0  0
   -1.4511   -1.4341    1.0539 H   0  0  0  0  0  0  0  0  0  0  0  0
   -1.8633    1.1932   -0.5216 H   0  0  0  0  0  0  0  0  0  0  0  0
   -3.1990    0.0561    0.0460 H   0  0  0  0  0  0  0  0  0  0  0  0
   -2.2434    0.9838    1.2407 H   0  0  0  0  0  0  0  0  0  0  0  0
    0.6510   -0.3827    1.6436 H   0  0  0  0  0  0  0  0  0  0  0  0
  1  2  3  0
  2  3  1  0
  3  4  1  0
  4  5  1  0
  5  6  1  0
  6  7  1  0
  6  8  1  0
  8  3  1  0
  8  4  1  0
  1  9  1  0
  3 10  1  0
  4 11  1  0
  5 12  1  0
  5 13  1  0
  6 14  1  0
  7 15  1  0
  7 16  1  0
  7 17  1  0
  8 18  1  0
M  END
