
     RDKit          3D

 17 17  0  0  0  0  0  0  0  0999 V2000
    3.2428    0.1864    0.0883 C   0  0  0  0  0  0  0  0  0  0  0  0
    2.0489    0.2315    0.2071 C   0  0  0  0  0  0  0  0  0  0  0  0
    0.6035    0.3095    0.3613 C   0  0  0  0  0  0  0  0  0  0  0  0
   -0.2225   -0.4738   -0.2862 C   0  0  0  0  0  0  0  0  0  0  0  0
    0.1667   -1.5450   -1.2615 C   0  0  0  0  0  0  0  0  0  0  0  0
   -1.6117   -0.1422    0.1016 C   0  0  0  0  0  0  0  0  0  0  0  0
   -1.4831    1.2777    0.5961 C   0  0  0  0  0  0  0  0  0  0  0  0
   -0.1390    1.2346    1.2199 C   0  0  0  0  0  0  0  0  0  0  0  0
    0.3520    1.7963    2.2189 O   0  0  0  0  0  0  0  0  0  0  0  0
    4.3169    0.1354   -0.0028 H   0  0  0  0  0  0  0  0  0  0  0  0
    0.4185   -2.4789   -0.7155 H   0  0  0  0  0  0  0  0  0  0  0  0
    1.0516   -1.2724   -1.8636 H   0  0  0  0  0  0  0  0  0  0  0  0
   -0.7120   -1.7535   -1.8850 H   0  0  0  0  0  0  0  0  0  0  0  0
   -1.9443   -0.7644    0.9744 H   0  0  0  0  0  0  0  0  0  0  0  0
   -2.3201   -0.2266   -0.7468 H   0  0  0  0  0  0  0  0  0  0  0  0
   -2.2755    1.5596    1.3120 H   0  0  0  0  0  0  0  0  0  0  0  0
   -1.4929    1.9258   -0.3180 H   0  0  0  0  0  0  0  0  0  0  0  0
  1  2  3  0
  2  3  1  0
  3  4  2  0
  4  5  1  0
  4  6  1  0
  6  7  1  0
  7  8  1  0
  8  9  2  0
  8  3  1  0
  1 10  1  0
  5 11  1  0
  5 12  1  0
  5 13  1  0
  6 14  1  0
  6 15  1  0
  7 16  1  0
  7 17  1  0
M  END
