
     RDKit          3D

 15 15  0  0  0  0  0  0  0  0999 V2000
    3.2542   -0.4856   -0.3501 C   0  0  0  0  0  0  0  0  0  0  0  0
    2.1688   -0.8212   -0.6856 C   0  0  0  0  0  0  0  0  0  0  0  0
    0.8386   -1.2199   -1.1178 C   0  0  0  0  0  0  0  0  0  0  0  0
    0.7266   -2.0971   -2.0118 O   0  0  0  0  0  0  0  0  0  0  0  0
   -0.3666   -0.6311   -0.5437 C   0  0  0  0  0  0  0  0  0  0  0  0
   -0.4210   -0.9292    0.9346 O   0  0  0  0  0  0  0  0  0  0  0  0
   -0.4033    0.4543    0.3896 C   0  0  0  0  0  0  0  0  0  0  0  0
   -1.7321    1.1008    0.6945 C   0  0  0  0  0  0  0  0  0  0  0  0
   -1.8282    2.3846    0.2357 O   0  0  0  0  0  0  0  0  0  0  0  0
    4.2336   -0.1721   -0.0308 H   0  0  0  0  0  0  0  0  0  0  0  0
   -1.3288   -1.0078   -0.9464 H   0  0  0  0  0  0  0  0  0  0  0  0
    0.4888    0.9482    0.7715 H   0  0  0  0  0  0  0  0  0  0  0  0
   -2.5590    0.5057    0.2540 H   0  0  0  0  0  0  0  0  0  0  0  0
   -1.8683    1.0504    1.7937 H   0  0  0  0  0  0  0  0  0  0  0  0
   -1.2032    3.0210    0.6127 H   0  0  0  0  0  0  0  0  0  0  0  0
  1  2  3  0
  2  3  1  0
  3  4  2  0
  3  5  1  0
  5  6  1  0
  6  7  1  0
  7  8  1  0
  8  9  1  0
  7  5  1  0
  1 10  1  0
  5 11  1  0
  7 12  1  0
  8 13  1  0
  8 14  1  0
  9 15  1  0
M  END
