
     RDKit          3D

 10  9  0  0  0  0  0  0  0  0999 V2000
   -2.3171   -1.8750    0.9837 C   0  0  0  0  0  0  0  0  0  0  0  0
   -1.3761   -1.2886    0.2777 C   0  0  0  0  0  0  0  0  0  0  0  0
   -0.3254   -0.6310   -0.5170 C   0  0  0  0  0  0  0  0  0  0  0  0
   -0.3438   -0.9782   -1.7725 O   0  0  0  0  0  0  0  0  0  0  0  0
    0.5398    0.2574    0.0303 C   0  0  0  0  0  0  0  0  0  0  0  0
    0.6724   -0.1042    1.4664 O   0  0  0  0  0  0  0  0  0  0  0  0
    1.3008    1.3086   -0.1380 C   0  0  0  0  0  0  0  0  0  0  0  0
    2.1154    2.4033   -0.3312 C   0  0  0  0  0  0  0  0  0  0  0  0
   -2.9964   -2.2932    1.4998 H   0  0  0  0  0  0  0  0  0  0  0  0
    2.7303    3.2008   -0.4692 H   0  0  0  0  0  0  0  0  0  0  0  0
  1  2  3  0
  2  3  1  0
  3  4  2  0
  3  5  1  0
  5  6  2  0
  5  7  1  0
  7  8  3  0
  1  9  1  0
  8 10  1  0
M  END
