
     RDKit          3D

 21 22  0  0  0  0  0  0  0  0999 V2000
    1.9891    2.1475    0.2731 C   0  0  0  0  0  0  0  0  0  0  0  0
    1.0250    1.5351   -0.1280 C   0  0  0  0  0  0  0  0  0  0  0  0
   -0.1493    0.7710   -0.5980 C   0  0  0  0  0  0  0  0  0  0  0  0
    0.2354   -0.6372   -0.9934 C   0  0  0  0  0  0  0  0  0  0  0  0
    1.6624   -0.8517   -1.3474 C   0  0  0  0  0  0  0  0  0  0  0  0
   -0.2514   -1.1766    0.3072 C   0  0  0  0  0  0  0  0  0  0  0  0
   -0.0693   -0.4900    1.5911 C   0  0  0  0  0  0  0  0  0  0  0  0
   -0.8875    0.1917    0.5685 C   0  0  0  0  0  0  0  0  0  0  0  0
   -2.3805    0.2669    0.6502 C   0  0  0  0  0  0  0  0  0  0  0  0
    2.8267    2.6988    0.6170 H   0  0  0  0  0  0  0  0  0  0  0  0
   -0.8141    1.3064   -1.2753 H   0  0  0  0  0  0  0  0  0  0  0  0
   -0.4369   -0.9513   -1.8454 H   0  0  0  0  0  0  0  0  0  0  0  0
    2.0284   -1.8496   -1.0362 H   0  0  0  0  0  0  0  0  0  0  0  0
    1.7745   -0.8351   -2.4665 H   0  0  0  0  0  0  0  0  0  0  0  0
    2.3405   -0.0396   -0.9816 H   0  0  0  0  0  0  0  0  0  0  0  0
   -0.9571   -2.0296    0.2530 H   0  0  0  0  0  0  0  0  0  0  0  0
   -0.6094   -0.8965    2.4540 H   0  0  0  0  0  0  0  0  0  0  0  0
    0.9122    0.0167    1.8201 H   0  0  0  0  0  0  0  0  0  0  0  0
   -2.8543    0.4443   -0.3213 H   0  0  0  0  0  0  0  0  0  0  0  0
   -2.7447   -0.6857    1.0817 H   0  0  0  0  0  0  0  0  0  0  0  0
   -2.6400    1.0644    1.3771 H   0  0  0  0  0  0  0  0  0  0  0  0
  1  2  3  0
  2  3  1  0
  3  4  1  0
  4  5  1  0
  4  6  1  0
  6  7  1  0
  7  8  1  0
  8  9  1  0
  8  3  1  0
  8  6  1  0
  1 10  1  0
  3 11  1  0
  4 12  1  0
  5 13  1  0
  5 14  1  0
  5 15  1  0
  6 16  1  0
  7 17  1  0
  7 18  1  0
  9 19  1  0
  9 20  1  0
  9 21  1  0
M  END
