
     RDKit          3D

 21 21  0  0  0  0  0  0  0  0999 V2000
    0.6239    3.3614   -0.0752 C   0  0  0  0  0  0  0  0  0  0  0  0
    0.9134    2.1001    0.0632 C   0  0  0  0  0  0  0  0  0  0  0  0
    1.1870    0.8361    0.2120 C   0  0  0  0  0  0  0  0  0  0  0  0
    1.4894    0.6332    1.7830 C   0  0  0  0  0  0  0  0  0  0  0  0
    0.1548   -0.1777   -0.1368 C   0  0  0  0  0  0  0  0  0  0  0  0
   -0.4630   -0.9715    0.7084 C   0  0  0  0  0  0  0  0  0  0  0  0
   -1.4156   -1.8414    0.0077 C   0  0  0  0  0  0  0  0  0  0  0  0
   -1.5746   -1.2143   -1.3398 C   0  0  0  0  0  0  0  0  0  0  0  0
   -0.2463   -0.4781   -1.5378 C   0  0  0  0  0  0  0  0  0  0  0  0
    0.3515    4.4636   -0.2021 H   0  0  0  0  0  0  0  0  0  0  0  0
    2.1993    0.4751   -0.2046 H   0  0  0  0  0  0  0  0  0  0  0  0
    1.6085   -0.4513    1.8513 H   0  0  0  0  0  0  0  0  0  0  0  0
    0.5777    0.9961    2.2610 H   0  0  0  0  0  0  0  0  0  0  0  0
    2.4075    1.1638    1.9995 H   0  0  0  0  0  0  0  0  0  0  0  0
   -0.3065   -0.9867    1.8068 H   0  0  0  0  0  0  0  0  0  0  0  0
   -2.3903   -1.9058    0.5642 H   0  0  0  0  0  0  0  0  0  0  0  0
   -0.9656   -2.8386   -0.1199 H   0  0  0  0  0  0  0  0  0  0  0  0
   -1.7584   -1.9580   -2.1500 H   0  0  0  0  0  0  0  0  0  0  0  0
   -2.4153   -0.4747   -1.3106 H   0  0  0  0  0  0  0  0  0  0  0  0
   -0.4101    0.4463   -2.1278 H   0  0  0  0  0  0  0  0  0  0  0  0
    0.4327   -1.1777   -2.0523 H   0  0  0  0  0  0  0  0  0  0  0  0
  1  2  3  0
  2  3  1  0
  3  4  1  0
  3  5  1  0
  5  6  2  0
  6  7  1  0
  7  8  1  0
  8  9  1  0
  9  5  1  0
  1 10  1  0
  3 11  1  0
  4 12  1  0
  4 13  1  0
  4 14  1  0
  6 15  1  0
  7 16  1  0
  7 17  1  0
  8 18  1  0
  8 19  1  0
  9 20  1  0
  9 21  1  0
M  END
