
     RDKit          3D

 17 18  0  0  0  0  0  0  0  0999 V2000
    3.0931    1.3623   -0.4126 C   0  0  0  0  0  0  0  0  0  0  0  0
    2.5948    0.2748   -0.2594 C   0  0  0  0  0  0  0  0  0  0  0  0
    2.0072   -1.0629   -0.0804 C   0  0  0  0  0  0  0  0  0  0  0  0
    1.1953   -1.5072   -1.0879 O   0  0  0  0  0  0  0  0  0  0  0  0
    0.5565   -1.1484    0.2006 C   0  0  0  0  0  0  0  0  0  0  0  0
   -0.3426    0.0261    0.0133 C   0  0  0  0  0  0  0  0  0  0  0  0
   -1.7787   -0.2725    0.3542 C   0  0  0  0  0  0  0  0  0  0  0  0
   -2.6861    0.9414    0.1567 C   0  0  0  0  0  0  0  0  0  0  0  0
   -2.7319   -0.3256   -0.6574 O   0  0  0  0  0  0  0  0  0  0  0  0
    3.5405    2.3304   -0.5678 H   0  0  0  0  0  0  0  0  0  0  0  0
    2.6574   -1.8161    0.4314 H   0  0  0  0  0  0  0  0  0  0  0  0
    0.1827   -2.0711    0.6906 H   0  0  0  0  0  0  0  0  0  0  0  0
   -0.3364    0.4508   -1.0101 H   0  0  0  0  0  0  0  0  0  0  0  0
   -0.0125    0.8630    0.6965 H   0  0  0  0  0  0  0  0  0  0  0  0
   -2.0220   -0.8509    1.2697 H   0  0  0  0  0  0  0  0  0  0  0  0
   -3.5865    1.0425    0.7602 H   0  0  0  0  0  0  0  0  0  0  0  0
   -2.3309    1.7635   -0.4976 H   0  0  0  0  0  0  0  0  0  0  0  0
  1  2  3  0
  2  3  1  0
  3  4  1  0
  4  5  1  0
  5  6  1  0
  6  7  1  0
  7  8  1  0
  8  9  1  0
  5  3  1  0
  9  7  1  0
  1 10  1  0
  3 11  1  0
  5 12  1  0
  6 13  1  0
  6 14  1  0
  7 15  1  0
  8 16  1  0
  8 17  1  0
M  END
