
     RDKit          3D

 19 18  0  0  0  0  0  0  0  0999 V2000
   -1.2296   -2.9135   -1.2416 C   0  0  0  0  0  0  0  0  0  0  0  0
   -0.6389   -2.1456   -0.1735 C   0  0  0  0  0  0  0  0  0  0  0  0
   -0.1435   -1.4925    0.7573 C   0  0  0  0  0  0  0  0  0  0  0  0
    1.0549   -1.6408    1.2250 O   0  0  0  0  0  0  0  0  0  0  0  0
   -0.3817    0.0955    0.3588 C   0  0  0  0  0  0  0  0  0  0  0  0
   -1.8878    0.2202    0.1415 C   0  0  0  0  0  0  0  0  0  0  0  0
    0.4162    0.8403   -0.0103 C   0  0  0  0  0  0  0  0  0  0  0  0
    1.3722    1.7195   -0.4736 C   0  0  0  0  0  0  0  0  0  0  0  0
    2.3491    2.6323   -0.9446 C   0  0  0  0  0  0  0  0  0  0  0  0
   -1.7539   -3.5867   -2.2062 H   0  0  0  0  0  0  0  0  0  0  0  0
   -1.0202   -1.4126    1.6825 H   0  0  0  0  0  0  0  0  0  0  0  0
    1.1356   -2.0974    2.1557 H   0  0  0  0  0  0  0  0  0  0  0  0
   -0.4329    0.3255    1.6858 H   0  0  0  0  0  0  0  0  0  0  0  0
   -2.1625   -0.3477   -0.7458 H   0  0  0  0  0  0  0  0  0  0  0  0
   -2.1939    1.2631    0.1427 H   0  0  0  0  0  0  0  0  0  0  0  0
   -2.4121   -0.3216    1.0196 H   0  0  0  0  0  0  0  0  0  0  0  0
    2.2992    3.7159   -0.5234 H   0  0  0  0  0  0  0  0  0  0  0  0
    3.4065    2.3463   -0.7788 H   0  0  0  0  0  0  0  0  0  0  0  0
    2.2232    2.7997   -2.0711 H   0  0  0  0  0  0  0  0  0  0  0  0
  1  2  3  0
  2  3  1  0
  3  4  1  0
  3  5  1  0
  5  6  1  0
  5  7  1  0
  7  8  3  0
  8  9  1  0
  1 10  1  0
  3 11  1  0
  4 12  1  0
  5 13  1  0
  6 14  1  0
  6 15  1  0
  6 16  1  0
  9 17  1  0
  9 18  1  0
  9 19  1  0
M  END
