
     RDKit          3D

 19 20  0  0  0  0  0  0  0  0999 V2000
    2.8017    1.0140    0.3842 C   0  0  0  0  0  0  0  0  0  0  0  0
    1.8045    0.5983   -0.1298 C   0  0  0  0  0  0  0  0  0  0  0  0
    0.6014    0.1153   -0.7557 C   0  0  0  0  0  0  0  0  0  0  0  0
   -0.6835    0.3658   -0.0230 C   0  0  0  0  0  0  0  0  0  0  0  0
   -1.3299    1.5606    0.1564 C   0  0  0  0  0  0  0  0  0  0  0  0
   -1.2030   -0.8477   -0.7560 C   0  0  0  0  0  0  0  0  0  0  0  0
    0.1569   -1.2672   -0.2912 C   0  0  0  0  0  0  0  0  0  0  0  0
    0.7595   -2.3445   -0.4687 O   0  0  0  0  0  0  0  0  0  0  0  0
   -0.1920   -0.5917    1.0121 C   0  0  0  0  0  0  0  0  0  0  0  0
    3.6955    1.4058    0.8430 H   0  0  0  0  0  0  0  0  0  0  0  0
    0.5197    0.2142   -1.8453 H   0  0  0  0  0  0  0  0  0  0  0  0
   -0.6616    2.4463    0.1085 H   0  0  0  0  0  0  0  0  0  0  0  0
   -1.8823    1.6453    1.1168 H   0  0  0  0  0  0  0  0  0  0  0  0
   -2.1116    1.7549   -0.6361 H   0  0  0  0  0  0  0  0  0  0  0  0
   -1.2087   -0.6640   -1.8340 H   0  0  0  0  0  0  0  0  0  0  0  0
   -2.0672   -1.3505   -0.3132 H   0  0  0  0  0  0  0  0  0  0  0  0
    1.2801   -2.7005    0.2885 H   0  0  0  0  0  0  0  0  0  0  0  0
   -1.0065   -1.0381    1.5858 H   0  0  0  0  0  0  0  0  0  0  0  0
    0.7270   -0.3165    1.5576 H   0  0  0  0  0  0  0  0  0  0  0  0
  1  2  3  0
  2  3  1  0
  3  4  1  0
  4  5  1  0
  4  6  1  0
  6  7  1  0
  7  8  1  0
  7  9  1  0
  7  3  1  0
  9  4  1  0
  1 10  1  0
  3 11  1  0
  5 12  1  0
  5 13  1  0
  5 14  1  0
  6 15  1  0
  6 16  1  0
  8 17  1  0
  9 18  1  0
  9 19  1  0
M  END
