
     RDKit          3D

 14 15  0  0  0  0  0  0  0  0999 V2000
    1.4439   -0.5409   -2.2834 C   0  0  0  0  0  0  0  0  0  0  0  0
    1.1536   -0.5171   -0.9885 C   0  0  0  0  0  0  0  0  0  0  0  0
    0.8584   -0.4835    0.2596 C   0  0  0  0  0  0  0  0  0  0  0  0
    1.3203    0.6987    1.0104 O   0  0  0  0  0  0  0  0  0  0  0  0
    0.1000    1.2444    0.4777 C   0  0  0  0  0  0  0  0  0  0  0  0
   -0.4666   -0.1160    0.8317 C   0  0  0  0  0  0  0  0  0  0  0  0
   -1.7260   -0.4139    0.9817 C   0  0  0  0  0  0  0  0  0  0  0  0
   -0.7951   -0.4176    2.1482 O   0  0  0  0  0  0  0  0  0  0  0  0
    1.6826   -0.5415   -3.3465 H   0  0  0  0  0  0  0  0  0  0  0  0
    1.3300   -1.3210    0.9522 H   0  0  0  0  0  0  0  0  0  0  0  0
   -0.3149    2.0233    1.1245 H   0  0  0  0  0  0  0  0  0  0  0  0
    0.1636    1.4282   -0.5849 H   0  0  0  0  0  0  0  0  0  0  0  0
   -2.5271    0.3865    1.1840 H   0  0  0  0  0  0  0  0  0  0  0  0
   -2.2227   -1.4297    1.0114 H   0  0  0  0  0  0  0  0  0  0  0  0
  1  2  3  0
  2  3  1  0
  3  4  1  0
  4  5  1  0
  5  6  1  0
  6  7  1  0
  7  8  1  0
  6  3  1  0
  8  6  1  0
  1  9  1  0
  3 10  1  0
  5 11  1  0
  5 12  1  0
  7 13  1  0
  7 14  1  0
M  END
