
     RDKit          3D

 23 23  0  0  0  0  0  0  0  0999 V2000
    2.1119    1.3449   -1.2977 C   0  0  0  0  0  0  0  0  0  0  0  0
    1.2231    0.5445   -1.1416 C   0  0  0  0  0  0  0  0  0  0  0  0
    0.1342   -0.4146   -0.9723 C   0  0  0  0  0  0  0  0  0  0  0  0
    0.6338   -1.7567   -1.4898 C   0  0  0  0  0  0  0  0  0  0  0  0
   -0.2966   -0.6033    0.4370 C   0  0  0  0  0  0  0  0  0  0  0  0
    0.8898   -1.0875    1.2472 C   0  0  0  0  0  0  0  0  0  0  0  0
   -0.9485    0.5276    1.1239 C   0  0  0  0  0  0  0  0  0  0  0  0
   -2.2038    1.1604    0.6913 C   0  0  0  0  0  0  0  0  0  0  0  0
   -0.8983    1.8702    0.4496 C   0  0  0  0  0  0  0  0  0  0  0  0
    2.8987    2.0680   -1.4313 H   0  0  0  0  0  0  0  0  0  0  0  0
   -0.7052   -0.1144   -1.6309 H   0  0  0  0  0  0  0  0  0  0  0  0
    1.1081   -2.2802   -0.6315 H   0  0  0  0  0  0  0  0  0  0  0  0
   -0.1978   -2.3663   -1.8876 H   0  0  0  0  0  0  0  0  0  0  0  0
    1.4505   -1.5947   -2.2358 H   0  0  0  0  0  0  0  0  0  0  0  0
   -1.0900   -1.4351    0.4236 H   0  0  0  0  0  0  0  0  0  0  0  0
    1.8033   -0.7908    0.6993 H   0  0  0  0  0  0  0  0  0  0  0  0
    0.8435   -2.1917    1.3852 H   0  0  0  0  0  0  0  0  0  0  0  0
    0.8762   -0.5509    2.2168 H   0  0  0  0  0  0  0  0  0  0  0  0
   -0.7633    0.5325    2.2416 H   0  0  0  0  0  0  0  0  0  0  0  0
   -2.7992    0.7770   -0.1643 H   0  0  0  0  0  0  0  0  0  0  0  0
   -2.8365    1.6235    1.4746 H   0  0  0  0  0  0  0  0  0  0  0  0
   -0.6195    2.7333    1.0898 H   0  0  0  0  0  0  0  0  0  0  0  0
   -0.6141    2.0043   -0.5969 H   0  0  0  0  0  0  0  0  0  0  0  0
  1  2  3  0
  2  3  1  0
  3  4  1  0
  3  5  1  0
  5  6  1  0
  5  7  1  0
  7  8  1  0
  8  9  1  0
  9  7  1  0
  1 10  1  0
  3 11  1  0
  4 12  1  0
  4 13  1  0
  4 14  1  0
  5 15  1  0
  6 16  1  0
  6 17  1  0
  6 18  1  0
  7 19  1  0
  8 20  1  0
  8 21  1  0
  9 22  1  0
  9 23  1  0
M  END
