
     RDKit          3D

 19 18  0  0  0  0  0  0  0  0999 V2000
    4.5092   -0.5636   -1.0647 C   0  0  0  0  0  0  0  0  0  0  0  0
    3.3428   -0.4391   -1.0946 C   0  0  0  0  0  0  0  0  0  0  0  0
    1.9222   -0.2628   -1.1313 C   0  0  0  0  0  0  0  0  0  0  0  0
    0.9373   -0.1358   -1.1663 C   0  0  0  0  0  0  0  0  0  0  0  0
   -0.7743    0.0983   -1.2326 C   0  0  0  0  0  0  0  0  0  0  0  0
   -1.2139    0.0077    0.1287 C   0  0  0  0  0  0  0  0  0  0  0  0
   -0.8535   -1.2472    0.8649 C   0  0  0  0  0  0  0  0  0  0  0  0
   -1.0861    1.2817    1.0331 C   0  0  0  0  0  0  0  0  0  0  0  0
   -2.6444   -0.0596    0.0284 O   0  0  0  0  0  0  0  0  0  0  0  0
    5.8968   -0.6967   -1.0136 H   0  0  0  0  0  0  0  0  0  0  0  0
   -0.2073    1.4652   -0.6061 H   0  0  0  0  0  0  0  0  0  0  0  0
   -0.8935    0.8528   -1.9805 H   0  0  0  0  0  0  0  0  0  0  0  0
   -0.7345   -2.0958    0.1833 H   0  0  0  0  0  0  0  0  0  0  0  0
   -0.0206   -1.1535    1.5510 H   0  0  0  0  0  0  0  0  0  0  0  0
   -1.8283   -1.4994    1.5186 H   0  0  0  0  0  0  0  0  0  0  0  0
   -1.7901    1.2492    1.8572 H   0  0  0  0  0  0  0  0  0  0  0  0
   -0.0743    1.4356    1.3717 H   0  0  0  0  0  0  0  0  0  0  0  0
   -1.5165    2.0747    0.3207 H   0  0  0  0  0  0  0  0  0  0  0  0
   -2.9711   -0.3118    1.0227 H   0  0  0  0  0  0  0  0  0  0  0  0
  1  2  3  0
  2  3  1  0
  3  4  3  0
  4  5  1  0
  5  6  1  0
  6  7  1  0
  6  8  1  0
  6  9  1  0
  1 10  1  0
  5 11  1  0
  5 12  1  0
  7 13  1  0
  7 14  1  0
  7 15  1  0
  8 16  1  0
  8 17  1  0
  8 18  1  0
  9 19  1  0
M  END
