
     RDKit          3D

 17 19  0  0  0  0  0  0  0  0999 V2000
    1.4347    3.0071    0.5273 C   0  0  0  0  0  0  0  0  0  0  0  0
    0.8666    1.8068    0.3668 C   0  0  0  0  0  0  0  0  0  0  0  0
    0.2968    0.5569    0.1867 C   0  0  0  0  0  0  0  0  0  0  0  0
    1.2760   -0.6249    0.4512 C   0  0  0  0  0  0  0  0  0  0  0  0
   -0.0189   -1.2229    0.8022 C   0  0  0  0  0  0  0  0  0  0  0  0
   -0.3999    0.0473    1.3090 O   0  0  0  0  0  0  0  0  0  0  0  0
   -0.7890   -1.3464   -0.4834 C   0  0  0  0  0  0  0  0  0  0  0  0
   -1.8920   -0.3589   -0.6868 C   0  0  0  0  0  0  0  0  0  0  0  0
   -0.5174    0.1444   -0.9596 C   0  0  0  0  0  0  0  0  0  0  0  0
    1.8144    3.7824    0.6357 H   0  0  0  0  0  0  0  0  0  0  0  0
    1.7729   -0.9514   -0.4607 H   0  0  0  0  0  0  0  0  0  0  0  0
    1.9049   -0.3308    1.3193 H   0  0  0  0  0  0  0  0  0  0  0  0
   -0.0579   -2.0597    1.4951 H   0  0  0  0  0  0  0  0  0  0  0  0
   -0.5277   -2.1178   -1.2373 H   0  0  0  0  0  0  0  0  0  0  0  0
   -2.4113   -0.0317    0.2595 H   0  0  0  0  0  0  0  0  0  0  0  0
   -2.5939   -0.4779   -1.5311 H   0  0  0  0  0  0  0  0  0  0  0  0
   -0.1582    0.1775   -1.9938 H   0  0  0  0  0  0  0  0  0  0  0  0
  1  2  3  0
  2  3  1  0
  3  4  1  0
  4  5  1  0
  5  6  1  0
  5  7  1  0
  7  8  1  0
  8  9  1  0
  6  3  1  0
  9  7  1  0
  9  3  1  0
  1 10  1  0
  4 11  1  0
  4 12  1  0
  5 13  1  0
  7 14  1  0
  8 15  1  0
  8 16  1  0
  9 17  1  0
M  END
