
     RDKit          3D

 19 19  0  0  0  0  0  0  0  0999 V2000
   -1.2506    3.1025    0.1340 C   0  0  0  0  0  0  0  0  0  0  0  0
   -1.0530    1.9247    0.3012 C   0  0  0  0  0  0  0  0  0  0  0  0
   -0.7983    0.4777    0.5025 C   0  0  0  0  0  0  0  0  0  0  0  0
   -2.1220   -0.2329    0.3501 C   0  0  0  0  0  0  0  0  0  0  0  0
   -1.9954   -1.5979    0.4854 O   0  0  0  0  0  0  0  0  0  0  0  0
    0.1427    0.0970   -0.4181 O   0  0  0  0  0  0  0  0  0  0  0  0
    1.2505   -0.4111    0.2469 C   0  0  0  0  0  0  0  0  0  0  0  0
    2.5973   -0.1468   -0.3122 C   0  0  0  0  0  0  0  0  0  0  0  0
    1.9601   -1.5247   -0.4375 C   0  0  0  0  0  0  0  0  0  0  0  0
   -1.4387    4.1413   -0.0267 H   0  0  0  0  0  0  0  0  0  0  0  0
   -0.4368    0.2845    1.5197 H   0  0  0  0  0  0  0  0  0  0  0  0
   -2.7801    0.1418    1.1628 H   0  0  0  0  0  0  0  0  0  0  0  0
   -2.6184   -0.0267   -0.6163 H   0  0  0  0  0  0  0  0  0  0  0  0
   -2.9039   -1.9931    0.4783 H   0  0  0  0  0  0  0  0  0  0  0  0
    1.2199   -0.4362    1.3721 H   0  0  0  0  0  0  0  0  0  0  0  0
    3.4670   -0.1235    0.3541 H   0  0  0  0  0  0  0  0  0  0  0  0
    2.7117    0.4617   -1.2432 H   0  0  0  0  0  0  0  0  0  0  0  0
    2.3378   -2.3347    0.2176 H   0  0  0  0  0  0  0  0  0  0  0  0
    1.7103   -1.8037   -1.4653 H   0  0  0  0  0  0  0  0  0  0  0  0
  1  2  3  0
  2  3  1  0
  3  4  1  0
  4  5  1  0
  3  6  1  0
  6  7  1  0
  7  8  1  0
  8  9  1  0
  9  7  1  0
  1 10  1  0
  3 11  1  0
  4 12  1  0
  4 13  1  0
  5 14  1  0
  7 15  1  0
  8 16  1  0
  8 17  1  0
  9 18  1  0
  9 19  1  0
M  END
