
     RDKit          3D

 21 21  0  0  0  0  0  0  0  0999 V2000
    0.2231    3.0031   -0.6763 C   0  0  0  0  0  0  0  0  0  0  0  0
    0.3013    1.9465   -1.0855 C   0  0  0  0  0  0  0  0  0  0  0  0
    0.4212    0.5773   -1.6358 C   0  0  0  0  0  0  0  0  0  0  0  0
    1.6836   -0.2035   -1.1817 C   0  0  0  0  0  0  0  0  0  0  0  0
    0.3191   -0.6062   -0.7908 C   0  0  0  0  0  0  0  0  0  0  0  0
   -0.1420   -0.5389    0.6425 C   0  0  0  0  0  0  0  0  0  0  0  0
   -1.5484    0.0311    0.6905 C   0  0  0  0  0  0  0  0  0  0  0  0
   -0.2478   -1.9219    1.2597 C   0  0  0  0  0  0  0  0  0  0  0  0
    0.6826    0.2944    1.3913 O   0  0  0  0  0  0  0  0  0  0  0  0
    0.1259    4.0784   -0.2702 H   0  0  0  0  0  0  0  0  0  0  0  0
    0.1661    0.5056   -2.7316 H   0  0  0  0  0  0  0  0  0  0  0  0
    2.2305   -0.6776   -2.0224 H   0  0  0  0  0  0  0  0  0  0  0  0
    2.3043    0.3496   -0.4339 H   0  0  0  0  0  0  0  0  0  0  0  0
   -0.0252   -1.5456   -1.3204 H   0  0  0  0  0  0  0  0  0  0  0  0
   -1.7065    0.5658   -0.2686 H   0  0  0  0  0  0  0  0  0  0  0  0
   -2.3073   -0.7771    0.7097 H   0  0  0  0  0  0  0  0  0  0  0  0
   -1.6790    0.7133    1.5640 H   0  0  0  0  0  0  0  0  0  0  0  0
   -0.8779   -2.5321    0.5890 H   0  0  0  0  0  0  0  0  0  0  0  0
   -0.8056   -1.8513    2.2292 H   0  0  0  0  0  0  0  0  0  0  0  0
    0.7219   -2.3725    1.4652 H   0  0  0  0  0  0  0  0  0  0  0  0
    0.1600    0.9615    1.8759 H   0  0  0  0  0  0  0  0  0  0  0  0
  1  2  3  0
  2  3  1  0
  3  4  1  0
  4  5  1  0
  5  6  1  0
  6  7  1  0
  6  8  1  0
  6  9  1  0
  5  3  1  0
  1 10  1  0
  3 11  1  0
  4 12  1  0
  4 13  1  0
  5 14  1  0
  7 15  1  0
  7 16  1  0
  7 17  1  0
  8 18  1  0
  8 19  1  0
  8 20  1  0
  9 21  1  0
M  END
