
     RDKit          3D

 17 16  0  0  0  0  0  0  0  0999 V2000
   -1.8025    1.2990   -1.9107 C   0  0  0  0  0  0  0  0  0  0  0  0
   -1.0656    0.8636   -1.0623 C   0  0  0  0  0  0  0  0  0  0  0  0
   -0.1378    0.3455   -0.0078 C   0  0  0  0  0  0  0  0  0  0  0  0
    0.1366    1.4885    0.8963 C   0  0  0  0  0  0  0  0  0  0  0  0
    1.2571    1.9454    0.9704 O   0  0  0  0  0  0  0  0  0  0  0  0
   -0.9241   -0.7402    0.7155 C   0  0  0  0  0  0  0  0  0  0  0  0
   -1.3624   -1.6351   -0.2573 O   0  0  0  0  0  0  0  0  0  0  0  0
    0.9370   -0.1478   -0.6831 O   0  0  0  0  0  0  0  0  0  0  0  0
    1.9342   -0.7311    0.0409 C   0  0  0  0  0  0  0  0  0  0  0  0
   -2.4479    1.6654   -2.6648 H   0  0  0  0  0  0  0  0  0  0  0  0
   -0.6134    1.9555    1.5107 H   0  0  0  0  0  0  0  0  0  0  0  0
   -0.2683   -1.3025    1.4233 H   0  0  0  0  0  0  0  0  0  0  0  0
   -1.7950   -0.2986    1.2049 H   0  0  0  0  0  0  0  0  0  0  0  0
   -0.6065   -2.0087   -0.7762 H   0  0  0  0  0  0  0  0  0  0  0  0
    2.7180   -1.0765   -0.6993 H   0  0  0  0  0  0  0  0  0  0  0  0
    1.6244   -1.6329    0.6008 H   0  0  0  0  0  0  0  0  0  0  0  0
    2.4162    0.0105    0.6988 H   0  0  0  0  0  0  0  0  0  0  0  0
  1  2  3  0
  2  3  1  0
  3  4  1  0
  4  5  2  0
  3  6  1  0
  6  7  1  0
  3  8  1  0
  8  9  1  0
  1 10  1  0
  4 11  1  0
  6 12  1  0
  6 13  1  0
  7 14  1  0
  9 15  1  0
  9 16  1  0
  9 17  1  0
M  END
