
     RDKit          3D

 21 21  0  0  0  0  0  0  0  0999 V2000
    3.5016   -0.9147   -0.1950 C   0  0  0  0  0  0  0  0  0  0  0  0
    2.3006   -0.8835   -0.0784 C   0  0  0  0  0  0  0  0  0  0  0  0
    0.8294   -0.8286    0.0825 C   0  0  0  0  0  0  0  0  0  0  0  0
    0.5439    0.2573    1.0781 C   0  0  0  0  0  0  0  0  0  0  0  0
   -0.9015    0.5477    1.2768 C   0  0  0  0  0  0  0  0  0  0  0  0
   -1.6619    0.2825   -0.0042 C   0  0  0  0  0  0  0  0  0  0  0  0
   -2.7825    1.0981   -0.1187 O   0  0  0  0  0  0  0  0  0  0  0  0
   -0.7285    0.6133   -1.1513 C   0  0  0  0  0  0  0  0  0  0  0  0
    0.2348   -0.5551   -1.2715 C   0  0  0  0  0  0  0  0  0  0  0  0
    4.5608   -0.9573   -0.3082 H   0  0  0  0  0  0  0  0  0  0  0  0
    0.5418   -1.8216    0.4911 H   0  0  0  0  0  0  0  0  0  0  0  0
    1.1467    1.1555    0.7734 H   0  0  0  0  0  0  0  0  0  0  0  0
    0.9820   -0.0665    2.0496 H   0  0  0  0  0  0  0  0  0  0  0  0
   -1.3271    0.0033    2.1386 H   0  0  0  0  0  0  0  0  0  0  0  0
   -0.9937    1.6595    1.4561 H   0  0  0  0  0  0  0  0  0  0  0  0
   -1.9957   -0.7735   -0.0853 H   0  0  0  0  0  0  0  0  0  0  0  0
   -3.4845    0.7143    0.4334 H   0  0  0  0  0  0  0  0  0  0  0  0
   -1.2625    0.8226   -2.0896 H   0  0  0  0  0  0  0  0  0  0  0  0
   -0.1469    1.5021   -0.8841 H   0  0  0  0  0  0  0  0  0  0  0  0
    1.0064   -0.3926   -2.0445 H   0  0  0  0  0  0  0  0  0  0  0  0
   -0.3631   -1.4628   -1.5489 H   0  0  0  0  0  0  0  0  0  0  0  0
  1  2  3  0
  2  3  1  0
  3  4  1  0
  4  5  1  0
  5  6  1  0
  6  7  1  0
  6  8  1  0
  8  9  1  0
  9  3  1  0
  1 10  1  0
  3 11  1  0
  4 12  1  0
  4 13  1  0
  5 14  1  0
  5 15  1  0
  6 16  1  0
  7 17  1  0
  8 18  1  0
  8 19  1  0
  9 20  1  0
  9 21  1  0
M  END
