
     RDKit          3D

 21 21  0  0  0  0  0  0  0  0999 V2000
    2.5335    2.0445   -0.0754 C   0  0  0  0  0  0  0  0  0  0  0  0
    2.1685    0.8777    0.0086 C   0  0  0  0  0  0  0  0  0  0  0  0
    1.7597   -0.5125    0.1128 C   0  0  0  0  0  0  0  0  0  0  0  0
    0.3148   -0.5978    0.4408 C   0  0  0  0  0  0  0  0  0  0  0  0
   -0.7324   -0.0150   -0.4610 C   0  0  0  0  0  0  0  0  0  0  0  0
   -0.6019    1.4628   -0.6786 C   0  0  0  0  0  0  0  0  0  0  0  0
   -2.1033   -0.3015    0.0529 C   0  0  0  0  0  0  0  0  0  0  0  0
   -0.0779   -1.9524    1.0394 C   0  0  0  0  0  0  0  0  0  0  0  0
   -0.1119   -0.7807    1.7531 O   0  0  0  0  0  0  0  0  0  0  0  0
    2.8607    3.0484   -0.1610 H   0  0  0  0  0  0  0  0  0  0  0  0
    2.3247   -1.0592    0.9045 H   0  0  0  0  0  0  0  0  0  0  0  0
    2.0100   -1.0676   -0.8389 H   0  0  0  0  0  0  0  0  0  0  0  0
   -0.6055   -0.4972   -1.4734 H   0  0  0  0  0  0  0  0  0  0  0  0
   -1.6177    1.8660   -0.9675 H   0  0  0  0  0  0  0  0  0  0  0  0
   -0.3447    1.9634    0.2592 H   0  0  0  0  0  0  0  0  0  0  0  0
    0.0517    1.6872   -1.5298 H   0  0  0  0  0  0  0  0  0  0  0  0
   -2.1303   -0.7550    1.0606 H   0  0  0  0  0  0  0  0  0  0  0  0
   -2.6629   -0.9539   -0.6721 H   0  0  0  0  0  0  0  0  0  0  0  0
   -2.7305    0.6344    0.1333 H   0  0  0  0  0  0  0  0  0  0  0  0
    0.7009   -2.6577    1.3353 H   0  0  0  0  0  0  0  0  0  0  0  0
   -1.0054   -2.4339    0.6805 H   0  0  0  0  0  0  0  0  0  0  0  0
  1  2  3  0
  2  3  1  0
  3  4  1  0
  4  5  1  0
  5  6  1  0
  5  7  1  0
  4  8  1  0
  8  9  1  0
  9  4  1  0
  1 10  1  0
  3 11  1  0
  3 12  1  0
  5 13  1  0
  6 14  1  0
  6 15  1  0
  6 16  1  0
  7 17  1  0
  7 18  1  0
  7 19  1  0
  8 20  1  0
  8 21  1  0
M  END
