
     RDKit          3D

 17 16  0  0  0  0  0  0  0  0999 V2000
    3.6812    2.2646    1.4379 C   0  0  0  0  0  0  0  0  0  0  0  0
    2.7129    1.5041    1.1444 C   0  0  0  0  0  0  0  0  0  0  0  0
    1.6674    0.7009    0.8107 C   0  0  0  0  0  0  0  0  0  0  0  0
    0.7063   -0.0655    0.5005 C   0  0  0  0  0  0  0  0  0  0  0  0
   -0.4088   -0.9718    0.1597 C   0  0  0  0  0  0  0  0  0  0  0  0
   -1.5472   -0.8515    1.1277 C   0  0  0  0  0  0  0  0  0  0  0  0
   -0.7435   -0.8327   -1.2784 C   0  0  0  0  0  0  0  0  0  0  0  0
   -1.1677    0.4808   -1.6925 C   0  0  0  0  0  0  0  0  0  0  0  0
   -2.3193    0.9310   -1.7533 O   0  0  0  0  0  0  0  0  0  0  0  0
    4.4491    2.8471    1.6739 H   0  0  0  0  0  0  0  0  0  0  0  0
    0.0131   -2.0414    0.2872 H   0  0  0  0  0  0  0  0  0  0  0  0
   -1.2135   -0.0823    1.8849 H   0  0  0  0  0  0  0  0  0  0  0  0
   -2.5243   -0.5631    0.7233 H   0  0  0  0  0  0  0  0  0  0  0  0
   -1.6262   -1.8070    1.7357 H   0  0  0  0  0  0  0  0  0  0  0  0
   -1.4955   -1.6145   -1.5686 H   0  0  0  0  0  0  0  0  0  0  0  0
    0.2127   -1.1290   -1.8380 H   0  0  0  0  0  0  0  0  0  0  0  0
   -0.3967    1.2302   -2.0080 H   0  0  0  0  0  0  0  0  0  0  0  0
  1  2  3  0
  2  3  1  0
  3  4  3  0
  4  5  1  0
  5  6  1  0
  5  7  1  0
  7  8  1  0
  8  9  2  0
  1 10  1  0
  5 11  1  0
  6 12  1  0
  6 13  1  0
  6 14  1  0
  7 15  1  0
  7 16  1  0
  8 17  1  0
M  END
