
     RDKit          3D

 16 15  0  0  0  0  0  0  0  0999 V2000
   -2.9872    1.7907    0.1434 C   0  0  0  0  0  0  0  0  0  0  0  0
   -2.6118    0.6617    0.0871 C   0  0  0  0  0  0  0  0  0  0  0  0
   -2.1680   -0.7092   -0.0034 C   0  0  0  0  0  0  0  0  0  0  0  0
   -0.8473   -0.9112    0.4487 O   0  0  0  0  0  0  0  0  0  0  0  0
    0.2543   -0.2956   -0.0979 C   0  0  0  0  0  0  0  0  0  0  0  0
    0.1397    0.4981   -1.0515 O   0  0  0  0  0  0  0  0  0  0  0  0
    1.5839   -0.5980    0.4740 C   0  0  0  0  0  0  0  0  0  0  0  0
    2.6957    0.1391   -0.2136 C   0  0  0  0  0  0  0  0  0  0  0  0
   -3.3017    2.7931    0.1954 H   0  0  0  0  0  0  0  0  0  0  0  0
   -2.1752   -0.9984   -1.0847 H   0  0  0  0  0  0  0  0  0  0  0  0
   -2.8501   -1.3312    0.6070 H   0  0  0  0  0  0  0  0  0  0  0  0
    1.7880   -1.7056    0.3910 H   0  0  0  0  0  0  0  0  0  0  0  0
    1.5612   -0.4039    1.5713 H   0  0  0  0  0  0  0  0  0  0  0  0
    3.4309   -0.5672   -0.6512 H   0  0  0  0  0  0  0  0  0  0  0  0
    2.3076    0.8417   -0.9952 H   0  0  0  0  0  0  0  0  0  0  0  0
    3.1800    0.7959    0.5575 H   0  0  0  0  0  0  0  0  0  0  0  0
  1  2  3  0
  2  3  1  0
  3  4  1  0
  4  5  1  0
  5  6  2  0
  5  7  1  0
  7  8  1  0
  1  9  1  0
  3 10  1  0
  3 11  1  0
  7 12  1  0
  7 13  1  0
  8 14  1  0
  8 15  1  0
  8 16  1  0
M  END
