
     RDKit          3D

 18 17  0  0  0  0  0  0  0  0999 V2000
    2.4888   -1.3807    0.1341 C   0  0  0  0  0  0  0  0  0  0  0  0
    1.8552   -0.3672    0.3293 C   0  0  0  0  0  0  0  0  0  0  0  0
    1.1221    0.8531    0.5638 C   0  0  0  0  0  0  0  0  0  0  0  0
   -0.1510    0.9877   -0.2083 C   0  0  0  0  0  0  0  0  0  0  0  0
   -0.7635    2.2389    0.1073 O   0  0  0  0  0  0  0  0  0  0  0  0
   -1.2019   -0.0339    0.1375 C   0  0  0  0  0  0  0  0  0  0  0  0
   -0.7936   -1.4563   -0.0840 C   0  0  0  0  0  0  0  0  0  0  0  0
   -2.3086    0.2965   -0.6639 O   0  0  0  0  0  0  0  0  0  0  0  0
    3.0636   -2.2681   -0.0311 H   0  0  0  0  0  0  0  0  0  0  0  0
    0.9172    0.9471    1.6670 H   0  0  0  0  0  0  0  0  0  0  0  0
    1.7708    1.7438    0.3429 H   0  0  0  0  0  0  0  0  0  0  0  0
    0.0573    0.9328   -1.2869 H   0  0  0  0  0  0  0  0  0  0  0  0
   -0.2076    2.9528   -0.2919 H   0  0  0  0  0  0  0  0  0  0  0  0
   -1.5157    0.1251    1.1896 H   0  0  0  0  0  0  0  0  0  0  0  0
   -0.1539   -1.6084   -0.9599 H   0  0  0  0  0  0  0  0  0  0  0  0
   -0.2670   -1.8364    0.8111 H   0  0  0  0  0  0  0  0  0  0  0  0
   -1.7145   -2.1003   -0.1592 H   0  0  0  0  0  0  0  0  0  0  0  0
   -2.1976   -0.0266   -1.5973 H   0  0  0  0  0  0  0  0  0  0  0  0
  1  2  3  0
  2  3  1  0
  3  4  1  0
  4  5  1  0
  4  6  1  0
  6  7  1  0
  6  8  1  0
  1  9  1  0
  3 10  1  0
  3 11  1  0
  4 12  1  0
  5 13  1  0
  6 14  1  0
  7 15  1  0
  7 16  1  0
  7 17  1  0
  8 18  1  0
M  END
