
     RDKit          3D

 21 21  0  0  0  0  0  0  0  0999 V2000
   -0.2046   -2.0175    2.8288 C   0  0  0  0  0  0  0  0  0  0  0  0
    0.2225   -1.5647    1.9388 C   0  0  0  0  0  0  0  0  0  0  0  0
    0.7655   -1.0009    0.8541 C   0  0  0  0  0  0  0  0  0  0  0  0
    2.2338   -1.5369    0.5617 C   0  0  0  0  0  0  0  0  0  0  0  0
    0.1249   -1.0487   -0.4166 O   0  0  0  0  0  0  0  0  0  0  0  0
   -0.4189    0.2737   -0.5888 C   0  0  0  0  0  0  0  0  0  0  0  0
   -1.6517    0.2452   -1.5379 C   0  0  0  0  0  0  0  0  0  0  0  0
   -0.4578    1.1287   -1.7352 C   0  0  0  0  0  0  0  0  0  0  0  0
   -0.8136    2.6112   -1.4342 C   0  0  0  0  0  0  0  0  0  0  0  0
   -0.7570   -2.5966    3.9333 H   0  0  0  0  0  0  0  0  0  0  0  0
    0.9405    0.1550    1.0063 H   0  0  0  0  0  0  0  0  0  0  0  0
    2.8538   -1.2489    1.4421 H   0  0  0  0  0  0  0  0  0  0  0  0
    2.6674   -1.1235   -0.3572 H   0  0  0  0  0  0  0  0  0  0  0  0
    2.1338   -2.6691    0.5887 H   0  0  0  0  0  0  0  0  0  0  0  0
   -0.5425    0.6863    0.4576 H   0  0  0  0  0  0  0  0  0  0  0  0
   -2.6171    0.5491   -1.1829 H   0  0  0  0  0  0  0  0  0  0  0  0
   -1.6642   -0.6309   -2.2474 H   0  0  0  0  0  0  0  0  0  0  0  0
    0.0391    1.0457   -2.7040 H   0  0  0  0  0  0  0  0  0  0  0  0
   -0.1096    3.2922   -1.8815 H   0  0  0  0  0  0  0  0  0  0  0  0
   -0.8484    2.6806   -0.3319 H   0  0  0  0  0  0  0  0  0  0  0  0
   -1.8962    2.7700   -1.7793 H   0  0  0  0  0  0  0  0  0  0  0  0
  1  2  3  0
  2  3  1  0
  3  4  1  0
  3  5  1  0
  5  6  1  0
  6  7  1  0
  7  8  1  0
  8  9  1  0
  8  6  1  0
  1 10  1  0
  3 11  1  0
  4 12  1  0
  4 13  1  0
  4 14  1  0
  6 15  1  0
  7 16  1  0
  7 17  1  0
  8 18  1  0
  9 19  1  0
  9 20  1  0
  9 21  1  0
M  END
