
     RDKit          3D

 17 18  0  0  0  0  0  0  0  0999 V2000
    2.8541    1.6826    0.4446 C   0  0  0  0  0  0  0  0  0  0  0  0
    1.8404    0.4808   -0.4388 C   0  0  0  0  0  0  0  0  0  0  0  0
    1.3500   -0.0943   -0.8639 C   0  0  0  0  0  0  0  0  0  0  0  0
    0.3323   -0.1127   -1.9625 O   0  0  0  0  0  0  0  0  0  0  0  0
   -0.5207    0.1961   -0.9063 C   0  0  0  0  0  0  0  0  0  0  0  0
    0.2031   -1.0664   -0.2718 C   0  0  0  0  0  0  0  0  0  0  0  0
   -1.0985   -0.6771    0.1292 C   0  0  0  0  0  0  0  0  0  0  0  0
   -1.4699    0.1534    1.3794 C   0  0  0  0  0  0  0  0  0  0  0  0
   -2.2776   -1.3244   -0.3867 O   0  0  0  0  0  0  0  0  0  0  0  0
    3.4766    2.4440    0.9958 H   0  0  0  0  0  0  0  0  0  0  0  0
    2.1285   -1.0005   -1.4781 H   0  0  0  0  0  0  0  0  0  0  0  0
   -0.1545    1.1788   -0.4090 H   0  0  0  0  0  0  0  0  0  0  0  0
    0.1388   -1.9289   -1.0241 H   0  0  0  0  0  0  0  0  0  0  0  0
   -1.2196    1.2482    1.2051 H   0  0  0  0  0  0  0  0  0  0  0  0
   -2.4979    0.0271    1.5940 H   0  0  0  0  0  0  0  0  0  0  0  0
   -0.8299   -0.1988    2.2789 H   0  0  0  0  0  0  0  0  0  0  0  0
   -2.2551   -1.0078   -1.4771 H   0  0  0  0  0  0  0  0  0  0  0  0
  1  2  3  0
  2  3  1  0
  3  4  1  0
  4  5  1  0
  5  6  1  0
  6  7  1  0
  7  8  1  0
  7  9  1  0
  6  3  1  0
  7  5  1  0
  1 10  1  0
  3 11  1  0
  5 12  1  0
  6 13  1  0
  8 14  1  0
  8 15  1  0
  8 16  1  0
  9 17  1  0
M  END
