
     RDKit          3D

 21 21  0  0  0  0  0  0  0  0999 V2000
    3.6547    1.3587   -0.0481 C   0  0  0  0  0  0  0  0  0  0  0  0
    2.4970    0.9145   -0.0184 C   0  0  0  0  0  0  0  0  0  0  0  0
    1.1551    0.4203    0.0019 C   0  0  0  0  0  0  0  0  0  0  0  0
    0.1576    1.0886    0.5374 C   0  0  0  0  0  0  0  0  0  0  0  0
   -1.2255    0.5004    0.5247 C   0  0  0  0  0  0  0  0  0  0  0  0
   -2.0029    0.8238   -0.6941 C   0  0  0  0  0  0  0  0  0  0  0  0
   -1.0117   -0.9814    0.7780 C   0  0  0  0  0  0  0  0  0  0  0  0
   -0.3380   -1.5646   -0.4320 C   0  0  0  0  0  0  0  0  0  0  0  0
    0.9698   -0.9189   -0.6453 C   0  0  0  0  0  0  0  0  0  0  0  0
    4.6602    1.7315   -0.0861 H   0  0  0  0  0  0  0  0  0  0  0  0
    0.3457    2.0413    0.9752 H   0  0  0  0  0  0  0  0  0  0  0  0
   -1.7897    0.8678    1.4355 H   0  0  0  0  0  0  0  0  0  0  0  0
   -2.9788    1.3319   -0.5008 H   0  0  0  0  0  0  0  0  0  0  0  0
   -1.3434    1.4510   -1.3621 H   0  0  0  0  0  0  0  0  0  0  0  0
   -2.2630   -0.0604   -1.2996 H   0  0  0  0  0  0  0  0  0  0  0  0
   -2.0036   -1.4278    0.9223 H   0  0  0  0  0  0  0  0  0  0  0  0
   -0.3897   -1.1221    1.6862 H   0  0  0  0  0  0  0  0  0  0  0  0
   -0.9655   -1.5029   -1.3442 H   0  0  0  0  0  0  0  0  0  0  0  0
   -0.1472   -2.6738   -0.2735 H   0  0  0  0  0  0  0  0  0  0  0  0
    1.8340   -1.5547   -0.2959 H   0  0  0  0  0  0  0  0  0  0  0  0
    1.1850   -0.7232   -1.7395 H   0  0  0  0  0  0  0  0  0  0  0  0
  1  2  3  0
  2  3  1  0
  3  4  2  0
  4  5  1  0
  5  6  1  0
  5  7  1  0
  7  8  1  0
  8  9  1  0
  9  3  1  0
  1 10  1  0
  4 11  1  0
  5 12  1  0
  6 13  1  0
  6 14  1  0
  6 15  1  0
  7 16  1  0
  7 17  1  0
  8 18  1  0
  8 19  1  0
  9 20  1  0
  9 21  1  0
M  END
