
     RDKit          3D

 19 20  0  0  0  0  0  0  0  0999 V2000
    2.1367   -1.6375    1.3157 C   0  0  0  0  0  0  0  0  0  0  0  0
    1.2966   -0.8782    0.9823 C   0  0  0  0  0  0  0  0  0  0  0  0
    0.2575    0.0767    0.5909 C   0  0  0  0  0  0  0  0  0  0  0  0
    0.3712    1.3385    1.4044 C   0  0  0  0  0  0  0  0  0  0  0  0
    0.2284    0.3428   -0.9103 C   0  0  0  0  0  0  0  0  0  0  0  0
   -1.1978    0.7699   -0.6657 C   0  0  0  0  0  0  0  0  0  0  0  0
   -1.0229   -0.4662    0.1945 C   0  0  0  0  0  0  0  0  0  0  0  0
   -0.3408   -1.0159   -1.0526 C   0  0  0  0  0  0  0  0  0  0  0  0
   -1.2360   -1.1073   -2.1325 O   0  0  0  0  0  0  0  0  0  0  0  0
    2.8865   -2.3398    1.6223 H   0  0  0  0  0  0  0  0  0  0  0  0
   -0.5945    1.7116    1.7898 H   0  0  0  0  0  0  0  0  0  0  0  0
    0.7928    2.1645    0.7465 H   0  0  0  0  0  0  0  0  0  0  0  0
    1.1492    1.2463    2.2096 H   0  0  0  0  0  0  0  0  0  0  0  0
    0.9276    0.8455   -1.4193 H   0  0  0  0  0  0  0  0  0  0  0  0
   -1.3655    1.6897   -0.0942 H   0  0  0  0  0  0  0  0  0  0  0  0
   -1.9057    0.6051   -1.5123 H   0  0  0  0  0  0  0  0  0  0  0  0
   -1.7505   -0.9358    0.7024 H   0  0  0  0  0  0  0  0  0  0  0  0
    0.2899   -1.8869   -0.8860 H   0  0  0  0  0  0  0  0  0  0  0  0
   -0.9227   -0.5231   -2.8858 H   0  0  0  0  0  0  0  0  0  0  0  0
  1  2  3  0
  2  3  1  0
  3  4  1  0
  3  5  1  0
  5  6  1  0
  6  7  1  0
  7  8  1  0
  8  9  1  0
  7  3  1  0
  8  5  1  0
  1 10  1  0
  4 11  1  0
  4 12  1  0
  4 13  1  0
  5 14  1  0
  6 15  1  0
  6 16  1  0
  7 17  1  0
  8 18  1  0
  9 19  1  0
M  END
