
     RDKit          3D

 19 20  0  0  0  0  0  0  0  0999 V2000
    2.9660    1.9329    0.1833 C   0  0  0  0  0  0  0  0  0  0  0  0
    2.1180    1.1017    0.1784 C   0  0  0  0  0  0  0  0  0  0  0  0
    1.0884    0.0951    0.1475 C   0  0  0  0  0  0  0  0  0  0  0  0
    0.4123    0.0998   -1.2323 C   0  0  0  0  0  0  0  0  0  0  0  0
   -0.8344   -0.6901   -0.9361 C   0  0  0  0  0  0  0  0  0  0  0  0
   -1.2343   -0.2877    0.4426 C   0  0  0  0  0  0  0  0  0  0  0  0
   -1.8829   -1.2886    1.2820 C   0  0  0  0  0  0  0  0  0  0  0  0
   -2.5350   -0.0939    0.8251 O   0  0  0  0  0  0  0  0  0  0  0  0
   -0.1145    0.5399    1.0289 C   0  0  0  0  0  0  0  0  0  0  0  0
    3.7317    2.7090    0.1824 H   0  0  0  0  0  0  0  0  0  0  0  0
    1.4227   -0.8987    0.4051 H   0  0  0  0  0  0  0  0  0  0  0  0
    0.9938   -0.3969   -2.0030 H   0  0  0  0  0  0  0  0  0  0  0  0
    0.1224    1.1430   -1.4921 H   0  0  0  0  0  0  0  0  0  0  0  0
   -1.6275   -0.5114   -1.6933 H   0  0  0  0  0  0  0  0  0  0  0  0
   -0.5695   -1.7870   -0.8918 H   0  0  0  0  0  0  0  0  0  0  0  0
   -2.2771   -2.1976    0.7798 H   0  0  0  0  0  0  0  0  0  0  0  0
   -1.5951   -1.3295    2.3513 H   0  0  0  0  0  0  0  0  0  0  0  0
    0.0284    0.2391    2.0752 H   0  0  0  0  0  0  0  0  0  0  0  0
   -0.2133    1.6210    0.8577 H   0  0  0  0  0  0  0  0  0  0  0  0
  1  2  3  0
  2  3  1  0
  3  4  1  0
  4  5  1  0
  5  6  1  0
  6  7  1  0
  7  8  1  0
  6  9  1  0
  9  3  1  0
  8  6  1  0
  1 10  1  0
  3 11  1  0
  4 12  1  0
  4 13  1  0
  5 14  1  0
  5 15  1  0
  7 16  1  0
  7 17  1  0
  9 18  1  0
  9 19  1  0
M  END
