
     RDKit          3D

 13 13  0  0  0  0  0  0  0  0999 V2000
    3.3136    0.6261    0.6654 C   0  0  0  0  0  0  0  0  0  0  0  0
    1.9647    0.4963    0.6443 C   0  0  0  0  0  0  0  0  0  0  0  0
    0.6152    0.3477    0.6070 C   0  0  0  0  0  0  0  0  0  0  0  0
   -0.1647    0.6669    1.3599 O   0  0  0  0  0  0  0  0  0  0  0  0
    0.2259   -0.3827   -0.7466 C   0  0  0  0  0  0  0  0  0  0  0  0
   -0.4817    0.7702   -1.4235 O   0  0  0  0  0  0  0  0  0  0  0  0
   -1.2262   -0.3994   -1.1329 C   0  0  0  0  0  0  0  0  0  0  0  0
   -1.9448   -0.5152   -0.2072 C   0  0  0  0  0  0  0  0  0  0  0  0
   -2.7693   -0.6325    0.8477 C   0  0  0  0  0  0  0  0  0  0  0  0
    4.6655    0.7471    0.6642 H   0  0  0  0  0  0  0  0  0  0  0  0
    1.0289   -0.7499   -1.3246 H   0  0  0  0  0  0  0  0  0  0  0  0
   -1.4598   -1.0104   -2.0587 H   0  0  0  0  0  0  0  0  0  0  0  0
   -3.7671   -0.7569    2.1049 H   0  0  0  0  0  0  0  0  0  0  0  0
  1  2  3  0
  2  3  1  0
  3  4  2  0
  3  5  1  0
  5  6  1  0
  6  7  1  0
  7  8  1  0
  8  9  3  0
  7  5  1  0
  1 10  1  0
  5 11  1  0
  7 12  1  0
  9 13  1  0
M  END
