
     RDKit          3D

 19 19  0  0  0  0  0  0  0  0999 V2000
    3.0992   -0.1811   -0.2754 C   0  0  0  0  0  0  0  0  0  0  0  0
    2.0248   -0.6985   -0.0507 C   0  0  0  0  0  0  0  0  0  0  0  0
    0.7305   -1.3465    0.2350 C   0  0  0  0  0  0  0  0  0  0  0  0
   -0.3822   -0.5364   -0.3620 C   0  0  0  0  0  0  0  0  0  0  0  0
   -0.6028    0.8896    0.0592 C   0  0  0  0  0  0  0  0  0  0  0  0
   -0.9753    1.0690    1.4775 C   0  0  0  0  0  0  0  0  0  0  0  0
    0.4786    1.7037   -0.2742 O   0  0  0  0  0  0  0  0  0  0  0  0
   -1.3103   -1.1787   -1.3262 C   0  0  0  0  0  0  0  0  0  0  0  0
   -0.2001   -0.5360   -1.8412 O   0  0  0  0  0  0  0  0  0  0  0  0
    4.0315    0.2875   -0.4773 H   0  0  0  0  0  0  0  0  0  0  0  0
    0.6597   -1.4976    1.3069 H   0  0  0  0  0  0  0  0  0  0  0  0
    0.7018   -2.3500   -0.2453 H   0  0  0  0  0  0  0  0  0  0  0  0
   -1.4614    1.2692   -0.5707 H   0  0  0  0  0  0  0  0  0  0  0  0
   -0.1302    1.1038    2.1873 H   0  0  0  0  0  0  0  0  0  0  0  0
   -1.6577    0.2746    1.8438 H   0  0  0  0  0  0  0  0  0  0  0  0
   -1.5144    2.0471    1.6007 H   0  0  0  0  0  0  0  0  0  0  0  0
    0.1314    2.6246   -0.4104 H   0  0  0  0  0  0  0  0  0  0  0  0
   -2.2690   -0.6500   -1.5366 H   0  0  0  0  0  0  0  0  0  0  0  0
   -1.3542   -2.2942   -1.3403 H   0  0  0  0  0  0  0  0  0  0  0  0
  1  2  3  0
  2  3  1  0
  3  4  1  0
  4  5  1  0
  5  6  1  0
  5  7  1  0
  4  8  1  0
  8  9  1  0
  9  4  1  0
  1 10  1  0
  3 11  1  0
  3 12  1  0
  5 13  1  0
  6 14  1  0
  6 15  1  0
  6 16  1  0
  7 17  1  0
  8 18  1  0
  8 19  1  0
M  END
