
     RDKit          3D

 17 17  0  0  0  0  0  0  0  0999 V2000
    1.8560   -0.4519    2.6054 C   0  0  0  0  0  0  0  0  0  0  0  0
    1.5582   -0.4787    1.2496 C   0  0  0  0  0  0  0  0  0  0  0  0
    1.2341   -0.4895   -0.1382 C   0  0  0  0  0  0  0  0  0  0  0  0
    0.0699    0.4339   -0.3946 C   0  0  0  0  0  0  0  0  0  0  0  0
   -1.2540    0.0155    0.2880 C   0  0  0  0  0  0  0  0  0  0  0  0
   -1.6374   -1.3207   -0.1421 C   0  0  0  0  0  0  0  0  0  0  0  0
   -2.4267   -1.9449    0.6528 O   0  0  0  0  0  0  0  0  0  0  0  0
    0.0966    1.6883   -1.0832 C   0  0  0  0  0  0  0  0  0  0  0  0
    0.4763    1.7370    0.2205 O   0  0  0  0  0  0  0  0  0  0  0  0
    2.0570   -0.4332    3.4648 H   0  0  0  0  0  0  0  0  0  0  0  0
    0.7707   -1.5182   -0.3634 H   0  0  0  0  0  0  0  0  0  0  0  0
    2.0591   -0.3344   -0.8043 H   0  0  0  0  0  0  0  0  0  0  0  0
   -2.0804    0.7570   -0.0899 H   0  0  0  0  0  0  0  0  0  0  0  0
   -1.2515    0.2001    1.3849 H   0  0  0  0  0  0  0  0  0  0  0  0
   -1.3899   -1.8983   -0.9773 H   0  0  0  0  0  0  0  0  0  0  0  0
    0.7670    1.8058   -1.9557 H   0  0  0  0  0  0  0  0  0  0  0  0
   -0.9052    2.2323   -1.2350 H   0  0  0  0  0  0  0  0  0  0  0  0
  1  2  3  0
  2  3  1  0
  3  4  1  0
  4  5  1  0
  5  6  1  0
  6  7  2  0
  4  8  1  0
  8  9  1  0
  9  4  1  0
  1 10  1  0
  3 11  1  0
  3 12  1  0
  5 13  1  0
  5 14  1  0
  6 15  1  0
  8 16  1  0
  8 17  1  0
M  END
