
     RDKit          3D

 19 19  0  0  0  0  0  0  0  0999 V2000
    2.7127   -0.7643    0.9662 C   0  0  0  0  0  0  0  0  0  0  0  0
    1.6683   -0.6271    0.3875 C   0  0  0  0  0  0  0  0  0  0  0  0
    0.4041   -0.4358   -0.3199 C   0  0  0  0  0  0  0  0  0  0  0  0
    0.6352   -0.5423   -1.6804 O   0  0  0  0  0  0  0  0  0  0  0  0
   -0.5730   -1.5031    0.1747 C   0  0  0  0  0  0  0  0  0  0  0  0
   -1.7372   -0.6498    0.6566 C   0  0  0  0  0  0  0  0  0  0  0  0
   -1.6263    0.5084   -0.1441 O   0  0  0  0  0  0  0  0  0  0  0  0
   -0.2814    0.8212    0.0909 C   0  0  0  0  0  0  0  0  0  0  0  0
    0.1665    2.0393   -0.6563 C   0  0  0  0  0  0  0  0  0  0  0  0
    3.6342   -0.8725    1.4914 H   0  0  0  0  0  0  0  0  0  0  0  0
   -0.1546   -0.2873   -2.2219 H   0  0  0  0  0  0  0  0  0  0  0  0
   -0.9046   -2.1633   -0.6439 H   0  0  0  0  0  0  0  0  0  0  0  0
   -0.1438   -2.0791    1.0182 H   0  0  0  0  0  0  0  0  0  0  0  0
   -1.5884   -0.3015    1.7024 H   0  0  0  0  0  0  0  0  0  0  0  0
   -2.7019   -1.1416    0.5562 H   0  0  0  0  0  0  0  0  0  0  0  0
   -0.1810    0.9272    1.1940 H   0  0  0  0  0  0  0  0  0  0  0  0
   -0.4381    2.0950   -1.5915 H   0  0  0  0  0  0  0  0  0  0  0  0
    1.2265    2.0419   -0.9164 H   0  0  0  0  0  0  0  0  0  0  0  0
   -0.1174    2.9348   -0.0635 H   0  0  0  0  0  0  0  0  0  0  0  0
  1  2  3  0
  2  3  1  0
  3  4  1  0
  3  5  1  0
  5  6  1  0
  6  7  1  0
  7  8  1  0
  8  9  1  0
  8  3  1  0
  1 10  1  0
  4 11  1  0
  5 12  1  0
  5 13  1  0
  6 14  1  0
  6 15  1  0
  8 16  1  0
  9 17  1  0
  9 18  1  0
  9 19  1  0
M  END
