
     RDKit          3D

 23 22  0  0  0  0  0  0  0  0999 V2000
    4.2111   -0.2554   -0.6715 C   0  0  0  0  0  0  0  0  0  0  0  0
    2.7743   -0.5786   -0.3588 C   0  0  0  0  0  0  0  0  0  0  0  0
    1.4700   -0.8649   -0.0519 C   0  0  0  0  0  0  0  0  0  0  0  0
    0.8646    0.4098    0.5640 C   0  0  0  0  0  0  0  0  0  0  0  0
    1.2867    1.4781   -0.2678 O   0  0  0  0  0  0  0  0  0  0  0  0
   -0.6222    0.3257    0.1196 C   0  0  0  0  0  0  0  0  0  0  0  0
   -1.2123    1.6436    0.5753 C   0  0  0  0  0  0  0  0  0  0  0  0
   -1.2211   -0.9091    0.6290 C   0  0  0  0  0  0  0  0  0  0  0  0
   -2.7075   -1.0238    0.2451 C   0  0  0  0  0  0  0  0  0  0  0  0
    5.3517    0.0143   -0.9375 H   0  0  0  0  0  0  0  0  0  0  0  0
    0.9473   -0.9549   -1.1118 H   0  0  0  0  0  0  0  0  0  0  0  0
    1.2062   -1.8066    0.3772 H   0  0  0  0  0  0  0  0  0  0  0  0
    1.0557    0.5469    1.5808 H   0  0  0  0  0  0  0  0  0  0  0  0
    2.1845    1.8155   -0.1075 H   0  0  0  0  0  0  0  0  0  0  0  0
   -0.5929    0.3197   -1.0074 H   0  0  0  0  0  0  0  0  0  0  0  0
   -1.2125    2.3594   -0.3138 H   0  0  0  0  0  0  0  0  0  0  0  0
   -2.3115    1.4821    0.7521 H   0  0  0  0  0  0  0  0  0  0  0  0
   -0.6819    2.1060    1.4192 H   0  0  0  0  0  0  0  0  0  0  0  0
   -0.7710   -1.7385   -0.0442 H   0  0  0  0  0  0  0  0  0  0  0  0
   -0.9751   -1.1621    1.6303 H   0  0  0  0  0  0  0  0  0  0  0  0
   -2.8911   -2.1343    0.2942 H   0  0  0  0  0  0  0  0  0  0  0  0
   -2.8220   -0.6600   -0.7849 H   0  0  0  0  0  0  0  0  0  0  0  0
   -3.3309   -0.4131    0.9028 H   0  0  0  0  0  0  0  0  0  0  0  0
  1  2  3  0
  2  3  1  0
  3  4  1  0
  4  5  1  0
  4  6  1  0
  6  7  1  0
  6  8  1  0
  8  9  1  0
  1 10  1  0
  3 11  1  0
  3 12  1  0
  4 13  1  0
  5 14  1  0
  6 15  1  0
  7 16  1  0
  7 17  1  0
  7 18  1  0
  8 19  1  0
  8 20  1  0
  9 21  1  0
  9 22  1  0
  9 23  1  0
M  END
