
     RDKit          3D

 17 17  0  0  0  0  0  0  0  0999 V2000
    2.6509    0.6817    1.2906 C   0  0  0  0  0  0  0  0  0  0  0  0
    1.4780    0.3260    1.3658 C   0  0  0  0  0  0  0  0  0  0  0  0
    0.0807   -0.0936    1.4807 C   0  0  0  0  0  0  0  0  0  0  0  0
   -0.5329    0.0824    0.0999 C   0  0  0  0  0  0  0  0  0  0  0  0
   -0.4926    1.4598   -0.4069 C   0  0  0  0  0  0  0  0  0  0  0  0
   -1.5016    1.9422   -0.8802 O   0  0  0  0  0  0  0  0  0  0  0  0
    0.0201   -0.9857   -0.8094 C   0  0  0  0  0  0  0  0  0  0  0  0
   -1.3826   -0.8492   -1.3473 C   0  0  0  0  0  0  0  0  0  0  0  0
   -1.7770   -0.4846   -0.0617 O   0  0  0  0  0  0  0  0  0  0  0  0
    3.6520    0.9878    1.2435 H   0  0  0  0  0  0  0  0  0  0  0  0
    0.0812   -1.1812    1.7214 H   0  0  0  0  0  0  0  0  0  0  0  0
   -0.4552    0.5197    2.2063 H   0  0  0  0  0  0  0  0  0  0  0  0
    0.4092    2.0609   -0.3726 H   0  0  0  0  0  0  0  0  0  0  0  0
    0.8317   -0.6614   -1.4825 H   0  0  0  0  0  0  0  0  0  0  0  0
    0.1751   -1.9235   -0.2757 H   0  0  0  0  0  0  0  0  0  0  0  0
   -1.4877   -0.0396   -2.0918 H   0  0  0  0  0  0  0  0  0  0  0  0
   -1.7493   -1.8419   -1.6801 H   0  0  0  0  0  0  0  0  0  0  0  0
  1  2  3  0
  2  3  1  0
  3  4  1  0
  4  5  1  0
  5  6  2  0
  4  7  1  0
  7  8  1  0
  8  9  1  0
  9  4  1  0
  1 10  1  0
  3 11  1  0
  3 12  1  0
  5 13  1  0
  7 14  1  0
  7 15  1  0
  8 16  1  0
  8 17  1  0
M  END
