
     RDKit          3D

 16 15  0  0  0  0  0  0  0  0999 V2000
   -1.3859    2.0443   -0.8346 C   0  0  0  0  0  0  0  0  0  0  0  0
   -1.1772    1.0728   -0.6894 C   0  0  0  0  0  0  0  0  0  0  0  0
   -0.8706   -0.2985   -0.5063 C   0  0  0  0  0  0  0  0  0  0  0  0
   -1.0001   -0.7183    0.9681 C   0  0  0  0  0  0  0  0  0  0  0  0
    0.7246   -0.2947   -0.8288 C   0  0  0  0  0  0  0  0  0  0  0  0
    1.0572   -1.6854   -1.0635 O   0  0  0  0  0  0  0  0  0  0  0  0
    1.4877    0.1248    0.1241 C   0  0  0  0  0  0  0  0  0  0  0  0
    2.2381    0.5334    1.0560 C   0  0  0  0  0  0  0  0  0  0  0  0
   -1.6937    3.3954   -1.0259 H   0  0  0  0  0  0  0  0  0  0  0  0
   -1.3686   -1.0400   -1.2213 H   0  0  0  0  0  0  0  0  0  0  0  0
   -1.1784    0.2852    1.5168 H   0  0  0  0  0  0  0  0  0  0  0  0
   -1.7896   -1.3637    1.1945 H   0  0  0  0  0  0  0  0  0  0  0  0
    0.0318   -1.1734    1.2974 H   0  0  0  0  0  0  0  0  0  0  0  0
    0.6920    0.1663   -1.8339 H   0  0  0  0  0  0  0  0  0  0  0  0
    1.2975   -1.9521   -0.0981 H   0  0  0  0  0  0  0  0  0  0  0  0
    2.9352    0.9039    1.9448 H   0  0  0  0  0  0  0  0  0  0  0  0
  1  2  3  0
  2  3  1  0
  3  4  1  0
  3  5  1  0
  5  6  1  0
  5  7  1  0
  7  8  3  0
  1  9  1  0
  3 10  1  0
  4 11  1  0
  4 12  1  0
  4 13  1  0
  5 14  1  0
  6 15  1  0
  8 16  1  0
M  END
