
     RDKit          3D

 17 18  0  0  0  0  0  0  0  0999 V2000
    1.2663    2.1611   -1.8068 C   0  0  0  0  0  0  0  0  0  0  0  0
    0.6525    0.8839   -1.5196 C   0  0  0  0  0  0  0  0  0  0  0  0
    0.1855   -0.1221   -1.2951 C   0  0  0  0  0  0  0  0  0  0  0  0
    0.4620   -1.2012   -0.2118 C   0  0  0  0  0  0  0  0  0  0  0  0
    1.0913   -0.6598    0.8566 O   0  0  0  0  0  0  0  0  0  0  0  0
    0.3284    0.4410    1.2799 C   0  0  0  0  0  0  0  0  0  0  0  0
   -1.0935   -0.0594    1.0155 C   0  0  0  0  0  0  0  0  0  0  0  0
   -1.2130   -1.1681    1.9112 O   0  0  0  0  0  0  0  0  0  0  0  0
   -0.9433   -0.6415   -0.3980 C   0  0  0  0  0  0  0  0  0  0  0  0
    1.7427    3.1952   -2.0292 H   0  0  0  0  0  0  0  0  0  0  0  0
    0.1988   -0.9785   -2.2833 H   0  0  0  0  0  0  0  0  0  0  0  0
    0.5050   -2.2475   -0.5187 H   0  0  0  0  0  0  0  0  0  0  0  0
    0.6129    0.6314    2.2866 H   0  0  0  0  0  0  0  0  0  0  0  0
    0.4707    1.3544    0.6754 H   0  0  0  0  0  0  0  0  0  0  0  0
   -1.8565    0.6750    1.1135 H   0  0  0  0  0  0  0  0  0  0  0  0
   -0.6821   -0.9804    2.7519 H   0  0  0  0  0  0  0  0  0  0  0  0
   -1.7277   -1.2835   -0.7499 H   0  0  0  0  0  0  0  0  0  0  0  0
  1  2  3  0
  2  3  1  0
  3  4  1  0
  4  5  1  0
  5  6  1  0
  6  7  1  0
  7  8  1  0
  7  9  1  0
  9  3  1  0
  9  4  1  0
  1 10  1  0
  3 11  1  0
  4 12  1  0
  6 13  1  0
  6 14  1  0
  7 15  1  0
  8 16  1  0
  9 17  1  0
M  END
