
     RDKit          3D

 15 15  0  0  0  0  0  0  0  0999 V2000
    2.2374   -1.6467    0.4769 C   0  0  0  0  0  0  0  0  0  0  0  0
    1.3282   -0.8965    0.1618 C   0  0  0  0  0  0  0  0  0  0  0  0
    0.2251    0.0052   -0.1936 C   0  0  0  0  0  0  0  0  0  0  0  0
    0.6978    0.9910   -1.2569 C   0  0  0  0  0  0  0  0  0  0  0  0
   -0.3442    0.6601    0.9738 C   0  0  0  0  0  0  0  0  0  0  0  0
   -1.6026    0.2801    1.0948 C   0  0  0  0  0  0  0  0  0  0  0  0
   -1.9256   -0.6381    0.0215 C   0  0  0  0  0  0  0  0  0  0  0  0
   -3.0279   -1.2008   -0.1818 O   0  0  0  0  0  0  0  0  0  0  0  0
   -0.7922   -0.7858   -0.7467 O   0  0  0  0  0  0  0  0  0  0  0  0
    3.0315   -2.2896    0.7626 H   0  0  0  0  0  0  0  0  0  0  0  0
    0.8978    1.9798   -0.8461 H   0  0  0  0  0  0  0  0  0  0  0  0
   -0.1076    1.0982   -2.0190 H   0  0  0  0  0  0  0  0  0  0  0  0
    1.5600    0.5189   -1.7557 H   0  0  0  0  0  0  0  0  0  0  0  0
    0.1314    1.3417    1.6519 H   0  0  0  0  0  0  0  0  0  0  0  0
   -2.3091    0.5824    1.8566 H   0  0  0  0  0  0  0  0  0  0  0  0
  1  2  3  0
  2  3  1  0
  3  4  1  0
  3  5  1  0
  5  6  2  0
  6  7  1  0
  7  8  2  0
  7  9  1  0
  9  3  1  0
  1 10  1  0
  4 11  1  0
  4 12  1  0
  4 13  1  0
  5 14  1  0
  6 15  1  0
M  END
