
     RDKit          3D

 21 22  0  0  0  0  0  0  0  0999 V2000
    1.9123    0.6633   -2.3128 C   0  0  0  0  0  0  0  0  0  0  0  0
    1.5900    0.6665   -1.4196 C   0  0  0  0  0  0  0  0  0  0  0  0
    1.0731    0.6971    0.0172 C   0  0  0  0  0  0  0  0  0  0  0  0
    0.6089    1.9133    0.6636 C   0  0  0  0  0  0  0  0  0  0  0  0
   -0.7330    1.1516    0.8921 C   0  0  0  0  0  0  0  0  0  0  0  0
   -0.0476   -0.1150    0.4092 C   0  0  0  0  0  0  0  0  0  0  0  0
   -0.7496   -1.0666   -0.5252 C   0  0  0  0  0  0  0  0  0  0  0  0
   -1.8381   -1.8207    0.2829 C   0  0  0  0  0  0  0  0  0  0  0  0
    1.3118   -0.5136    0.8641 C   0  0  0  0  0  0  0  0  0  0  0  0
    2.3330    0.6622   -3.4169 H   0  0  0  0  0  0  0  0  0  0  0  0
    1.1077    2.1540    1.6351 H   0  0  0  0  0  0  0  0  0  0  0  0
    0.4490    2.8079    0.0652 H   0  0  0  0  0  0  0  0  0  0  0  0
   -1.4528    1.5125    0.1132 H   0  0  0  0  0  0  0  0  0  0  0  0
   -1.0428    1.0887    1.9390 H   0  0  0  0  0  0  0  0  0  0  0  0
   -0.1160   -1.7018   -1.1099 H   0  0  0  0  0  0  0  0  0  0  0  0
   -1.3573   -0.4160   -1.2686 H   0  0  0  0  0  0  0  0  0  0  0  0
   -1.3777   -2.7699    0.6844 H   0  0  0  0  0  0  0  0  0  0  0  0
   -2.1814   -1.1585    1.0911 H   0  0  0  0  0  0  0  0  0  0  0  0
   -2.6985   -2.0872   -0.3433 H   0  0  0  0  0  0  0  0  0  0  0  0
    1.7733   -1.3735    0.4170 H   0  0  0  0  0  0  0  0  0  0  0  0
    1.4357   -0.2945    1.9910 H   0  0  0  0  0  0  0  0  0  0  0  0
  1  2  3  0
  2  3  1  0
  3  4  1  0
  4  5  1  0
  5  6  1  0
  6  7  1  0
  7  8  1  0
  6  9  1  0
  6  3  1  0
  9  3  1  0
  1 10  1  0
  4 11  1  0
  4 12  1  0
  5 13  1  0
  5 14  1  0
  7 15  1  0
  7 16  1  0
  8 17  1  0
  8 18  1  0
  8 19  1  0
  9 20  1  0
  9 21  1  0
M  END
