
     RDKit          3D

 19 20  0  0  0  0  0  0  0  0999 V2000
    3.1466    0.4235    0.1294 C   0  0  0  0  0  0  0  0  0  0  0  0
    2.0422   -0.0108    0.0335 C   0  0  0  0  0  0  0  0  0  0  0  0
    0.6926   -0.5368   -0.0590 C   0  0  0  0  0  0  0  0  0  0  0  0
    0.1209   -0.8633   -1.4209 C   0  0  0  0  0  0  0  0  0  0  0  0
   -1.1846   -0.2254   -0.9797 C   0  0  0  0  0  0  0  0  0  0  0  0
   -2.1997   -1.1471   -0.6909 O   0  0  0  0  0  0  0  0  0  0  0  0
   -0.4991    0.1746    0.3101 C   0  0  0  0  0  0  0  0  0  0  0  0
   -0.5794    1.5771    0.7912 C   0  0  0  0  0  0  0  0  0  0  0  0
   -0.0583   -0.9467    1.1673 C   0  0  0  0  0  0  0  0  0  0  0  0
    4.1325    0.8104    0.2030 H   0  0  0  0  0  0  0  0  0  0  0  0
    0.6317   -0.3510   -2.2386 H   0  0  0  0  0  0  0  0  0  0  0  0
    0.0586   -1.9655   -1.5886 H   0  0  0  0  0  0  0  0  0  0  0  0
   -1.5134    0.6194   -1.5823 H   0  0  0  0  0  0  0  0  0  0  0  0
   -2.6245   -0.8276    0.1458 H   0  0  0  0  0  0  0  0  0  0  0  0
   -0.6652    2.2457   -0.1123 H   0  0  0  0  0  0  0  0  0  0  0  0
   -1.5659    1.6965    1.3201 H   0  0  0  0  0  0  0  0  0  0  0  0
    0.2725    1.9113    1.3866 H   0  0  0  0  0  0  0  0  0  0  0  0
   -0.6164   -1.9041    1.0651 H   0  0  0  0  0  0  0  0  0  0  0  0
    0.4091   -0.6801    2.1202 H   0  0  0  0  0  0  0  0  0  0  0  0
  1  2  3  0
  2  3  1  0
  3  4  1  0
  4  5  1  0
  5  6  1  0
  5  7  1  0
  7  8  1  0
  7  9  1  0
  7  3  1  0
  9  3  1  0
  1 10  1  0
  4 11  1  0
  4 12  1  0
  5 13  1  0
  6 14  1  0
  8 15  1  0
  8 16  1  0
  8 17  1  0
  9 18  1  0
  9 19  1  0
M  END
