
     RDKit          3D

 21 20  0  0  0  0  0  0  0  0999 V2000
    2.8288    0.4572    2.4473 C   0  0  0  0  0  0  0  0  0  0  0  0
    1.7197    0.1374    1.9460 C   0  0  0  0  0  0  0  0  0  0  0  0
    0.5351   -0.2059    1.4243 C   0  0  0  0  0  0  0  0  0  0  0  0
    0.9155   -0.2001   -0.1614 C   0  0  0  0  0  0  0  0  0  0  0  0
    1.9458   -1.0557   -0.3355 O   0  0  0  0  0  0  0  0  0  0  0  0
   -0.2054   -0.3381   -1.0905 C   0  0  0  0  0  0  0  0  0  0  0  0
   -0.6931   -1.6569   -0.9888 O   0  0  0  0  0  0  0  0  0  0  0  0
   -1.3680    0.5599   -1.0276 C   0  0  0  0  0  0  0  0  0  0  0  0
   -2.3089    0.5795    0.1081 C   0  0  0  0  0  0  0  0  0  0  0  0
    4.0650    0.7923    3.0042 H   0  0  0  0  0  0  0  0  0  0  0  0
   -0.0545    0.8477    1.3788 H   0  0  0  0  0  0  0  0  0  0  0  0
   -0.0389   -1.0108    1.6228 H   0  0  0  0  0  0  0  0  0  0  0  0
    1.3510    0.8810   -0.2076 H   0  0  0  0  0  0  0  0  0  0  0  0
    2.5204   -1.1171    0.4585 H   0  0  0  0  0  0  0  0  0  0  0  0
    0.2459   -0.1990   -2.1255 H   0  0  0  0  0  0  0  0  0  0  0  0
   -0.5760   -2.1335   -1.8359 H   0  0  0  0  0  0  0  0  0  0  0  0
   -2.0079    0.4403   -1.9764 H   0  0  0  0  0  0  0  0  0  0  0  0
   -1.0079    1.6601   -1.1936 H   0  0  0  0  0  0  0  0  0  0  0  0
   -2.3436   -0.4601    0.5767 H   0  0  0  0  0  0  0  0  0  0  0  0
   -3.3851    0.7549   -0.2683 H   0  0  0  0  0  0  0  0  0  0  0  0
   -2.1377    1.2670    0.9315 H   0  0  0  0  0  0  0  0  0  0  0  0
  1  2  3  0
  2  3  1  0
  3  4  1  0
  4  5  1  0
  4  6  1  0
  6  7  1  0
  6  8  1  0
  8  9  1  0
  1 10  1  0
  3 11  1  0
  3 12  1  0
  4 13  1  0
  5 14  1  0
  6 15  1  0
  7 16  1  0
  8 17  1  0
  8 18  1  0
  9 19  1  0
  9 20  1  0
  9 21  1  0
M  END
