
     RDKit          3D

 19 19  0  0  0  0  0  0  0  0999 V2000
    2.1486   -1.5151    2.1415 C   0  0  0  0  0  0  0  0  0  0  0  0
    1.4366   -1.2416    1.4169 C   0  0  0  0  0  0  0  0  0  0  0  0
    0.4525   -0.8401    0.3893 C   0  0  0  0  0  0  0  0  0  0  0  0
    0.7854   -0.7330   -0.8796 C   0  0  0  0  0  0  0  0  0  0  0  0
   -0.1860   -0.3353   -1.9273 C   0  0  0  0  0  0  0  0  0  0  0  0
   -1.1891    0.4303   -1.4811 O   0  0  0  0  0  0  0  0  0  0  0  0
   -1.2498    0.7037   -0.1518 C   0  0  0  0  0  0  0  0  0  0  0  0
   -0.3565    1.8451    0.2016 C   0  0  0  0  0  0  0  0  0  0  0  0
   -0.9648   -0.5185    0.7236 C   0  0  0  0  0  0  0  0  0  0  0  0
    2.9401   -1.8286    2.9760 H   0  0  0  0  0  0  0  0  0  0  0  0
    1.8312   -0.9471   -1.1573 H   0  0  0  0  0  0  0  0  0  0  0  0
   -0.5395   -1.2475   -2.4926 H   0  0  0  0  0  0  0  0  0  0  0  0
    0.4157    0.3163   -2.6472 H   0  0  0  0  0  0  0  0  0  0  0  0
   -2.3188    1.0188    0.0472 H   0  0  0  0  0  0  0  0  0  0  0  0
    0.1063    2.2418   -0.7405 H   0  0  0  0  0  0  0  0  0  0  0  0
    0.4369    1.6143    0.9415 H   0  0  0  0  0  0  0  0  0  0  0  0
   -0.9800    2.7176    0.5529 H   0  0  0  0  0  0  0  0  0  0  0  0
   -1.6227   -1.3297    0.3123 H   0  0  0  0  0  0  0  0  0  0  0  0
   -1.1463   -0.3515    1.7747 H   0  0  0  0  0  0  0  0  0  0  0  0
  1  2  3  0
  2  3  1  0
  3  4  2  0
  4  5  1  0
  5  6  1  0
  6  7  1  0
  7  8  1  0
  7  9  1  0
  9  3  1  0
  1 10  1  0
  4 11  1  0
  5 12  1  0
  5 13  1  0
  7 14  1  0
  8 15  1  0
  8 16  1  0
  8 17  1  0
  9 18  1  0
  9 19  1  0
M  END
