
     RDKit          3D

 21 22  0  0  0  0  0  0  0  0999 V2000
    3.7410   -0.7106    1.3260 C   0  0  0  0  0  0  0  0  0  0  0  0
    2.5775   -0.4647    1.2550 C   0  0  0  0  0  0  0  0  0  0  0  0
    1.1698   -0.1899    1.1582 C   0  0  0  0  0  0  0  0  0  0  0  0
    0.3821   -1.2827    0.4171 C   0  0  0  0  0  0  0  0  0  0  0  0
   -0.4366   -0.1515   -0.0970 C   0  0  0  0  0  0  0  0  0  0  0  0
    0.7678    0.7112   -0.0244 C   0  0  0  0  0  0  0  0  0  0  0  0
   -1.7502    0.2187    0.4165 C   0  0  0  0  0  0  0  0  0  0  0  0
   -1.4759   -0.1736   -1.0525 C   0  0  0  0  0  0  0  0  0  0  0  0
   -1.7539    0.9356   -2.0334 C   0  0  0  0  0  0  0  0  0  0  0  0
    4.7838   -0.9174    1.3767 H   0  0  0  0  0  0  0  0  0  0  0  0
    0.6791    0.1408    2.1019 H   0  0  0  0  0  0  0  0  0  0  0  0
   -0.0880   -2.0247    1.0549 H   0  0  0  0  0  0  0  0  0  0  0  0
    1.0557   -1.6658   -0.3916 H   0  0  0  0  0  0  0  0  0  0  0  0
    0.6035    1.7557    0.2350 H   0  0  0  0  0  0  0  0  0  0  0  0
    1.4848    0.5138   -0.8489 H   0  0  0  0  0  0  0  0  0  0  0  0
   -2.2658   -0.5221    1.0528 H   0  0  0  0  0  0  0  0  0  0  0  0
   -1.9286    1.2888    0.6280 H   0  0  0  0  0  0  0  0  0  0  0  0
   -1.9581   -1.1360   -1.3371 H   0  0  0  0  0  0  0  0  0  0  0  0
   -2.7782    1.3247   -1.7976 H   0  0  0  0  0  0  0  0  0  0  0  0
   -1.7702    0.5788   -3.0700 H   0  0  0  0  0  0  0  0  0  0  0  0
   -1.0395    1.7710   -1.9548 H   0  0  0  0  0  0  0  0  0  0  0  0
  1  2  3  0
  2  3  1  0
  3  4  1  0
  4  5  1  0
  5  6  1  0
  5  7  1  0
  7  8  1  0
  8  9  1  0
  6  3  1  0
  8  5  1  0
  1 10  1  0
  3 11  1  0
  4 12  1  0
  4 13  1  0
  6 14  1  0
  6 15  1  0
  7 16  1  0
  7 17  1  0
  8 18  1  0
  9 19  1  0
  9 20  1  0
  9 21  1  0
M  END
