
     RDKit          3D

 15 16  0  0  0  0  0  0  0  0999 V2000
    4.4350   -0.5974   -0.1782 C   0  0  0  0  0  0  0  0  0  0  0  0
    3.2827   -0.2818   -0.1184 C   0  0  0  0  0  0  0  0  0  0  0  0
    1.9101    0.1091   -0.0491 C   0  0  0  0  0  0  0  0  0  0  0  0
    0.7628    0.4234    0.0245 C   0  0  0  0  0  0  0  0  0  0  0  0
   -0.6595    0.7877    0.1106 C   0  0  0  0  0  0  0  0  0  0  0  0
   -1.4064    0.5247   -1.1803 C   0  0  0  0  0  0  0  0  0  0  0  0
   -2.0148   -0.7215   -0.6186 C   0  0  0  0  0  0  0  0  0  0  0  0
   -1.2993   -1.5574    0.2141 O   0  0  0  0  0  0  0  0  0  0  0  0
   -1.4706   -0.3056    0.7381 C   0  0  0  0  0  0  0  0  0  0  0  0
    5.4747   -0.8742   -0.2411 H   0  0  0  0  0  0  0  0  0  0  0  0
   -0.8007    1.7959    0.5422 H   0  0  0  0  0  0  0  0  0  0  0  0
   -2.1886    1.3278   -1.2958 H   0  0  0  0  0  0  0  0  0  0  0  0
   -0.7303    0.4183   -2.0304 H   0  0  0  0  0  0  0  0  0  0  0  0
   -3.0667   -0.9628   -0.7393 H   0  0  0  0  0  0  0  0  0  0  0  0
   -2.2283   -0.0861    1.5032 H   0  0  0  0  0  0  0  0  0  0  0  0
  1  2  3  0
  2  3  1  0
  3  4  3  0
  4  5  1  0
  5  6  1  0
  6  7  1  0
  7  8  1  0
  8  9  1  0
  9  5  1  0
  9  7  1  0
  1 10  1  0
  5 11  1  0
  6 12  1  0
  6 13  1  0
  7 14  1  0
  9 15  1  0
M  END
