
     RDKit          3D

 23 23  0  0  0  0  0  0  0  0999 V2000
    3.0005   -1.5290    0.5643 C   0  0  0  0  0  0  0  0  0  0  0  0
    2.0858   -1.1959   -0.1664 C   0  0  0  0  0  0  0  0  0  0  0  0
    0.9852   -0.7727   -1.0450 C   0  0  0  0  0  0  0  0  0  0  0  0
    0.7161    0.6328   -1.2961 C   0  0  0  0  0  0  0  0  0  0  0  0
   -0.1950   -0.0823   -0.3714 C   0  0  0  0  0  0  0  0  0  0  0  0
   -1.5231   -0.6113   -0.8636 C   0  0  0  0  0  0  0  0  0  0  0  0
   -2.7169    0.0315   -0.2329 C   0  0  0  0  0  0  0  0  0  0  0  0
   -0.1007    0.2986    1.0776 C   0  0  0  0  0  0  0  0  0  0  0  0
    0.9888    1.2466    1.4279 C   0  0  0  0  0  0  0  0  0  0  0  0
    3.8021   -1.8304    1.1868 H   0  0  0  0  0  0  0  0  0  0  0  0
    0.7884   -1.5184   -1.8451 H   0  0  0  0  0  0  0  0  0  0  0  0
    1.3511    1.4425   -0.9582 H   0  0  0  0  0  0  0  0  0  0  0  0
    0.2415    0.8602   -2.2982 H   0  0  0  0  0  0  0  0  0  0  0  0
   -1.5574   -0.4272   -1.9607 H   0  0  0  0  0  0  0  0  0  0  0  0
   -1.5399   -1.7098   -0.7366 H   0  0  0  0  0  0  0  0  0  0  0  0
   -3.6187   -0.3741   -0.7659 H   0  0  0  0  0  0  0  0  0  0  0  0
   -2.7473    1.1263   -0.4208 H   0  0  0  0  0  0  0  0  0  0  0  0
   -2.8231   -0.1241    0.8405 H   0  0  0  0  0  0  0  0  0  0  0  0
   -1.0713    0.6828    1.4376 H   0  0  0  0  0  0  0  0  0  0  0  0
    0.0700   -0.6576    1.6465 H   0  0  0  0  0  0  0  0  0  0  0  0
    1.2137    1.0772    2.5258 H   0  0  0  0  0  0  0  0  0  0  0  0
    1.9465    1.1168    0.9330 H   0  0  0  0  0  0  0  0  0  0  0  0
    0.7038    2.3174    1.3209 H   0  0  0  0  0  0  0  0  0  0  0  0
  1  2  3  0
  2  3  1  0
  3  4  1  0
  4  5  1  0
  5  6  1  0
  6  7  1  0
  5  8  1  0
  8  9  1  0
  5  3  1  0
  1 10  1  0
  3 11  1  0
  4 12  1  0
  4 13  1  0
  6 14  1  0
  6 15  1  0
  7 16  1  0
  7 17  1  0
  7 18  1  0
  8 19  1  0
  8 20  1  0
  9 21  1  0
  9 22  1  0
  9 23  1  0
M  END
