
     RDKit          3D

 19 19  0  0  0  0  0  0  0  0999 V2000
    3.0631   -1.4931    0.0979 C   0  0  0  0  0  0  0  0  0  0  0  0
    2.1999   -0.6357    0.1940 C   0  0  0  0  0  0  0  0  0  0  0  0
    1.1764    0.4089    0.2966 C   0  0  0  0  0  0  0  0  0  0  0  0
    1.4947    1.1980    1.3774 O   0  0  0  0  0  0  0  0  0  0  0  0
   -0.1920   -0.2339    0.4290 C   0  0  0  0  0  0  0  0  0  0  0  0
   -0.5907   -1.1133   -0.7144 C   0  0  0  0  0  0  0  0  0  0  0  0
   -1.7619   -0.1785   -0.9767 C   0  0  0  0  0  0  0  0  0  0  0  0
   -1.3544    0.6761    0.2074 C   0  0  0  0  0  0  0  0  0  0  0  0
   -0.9857    1.9762   -0.1446 O   0  0  0  0  0  0  0  0  0  0  0  0
    3.8158   -2.2412    0.0325 H   0  0  0  0  0  0  0  0  0  0  0  0
    1.1721    1.0648   -0.6034 H   0  0  0  0  0  0  0  0  0  0  0  0
    0.7653    1.8039    1.5991 H   0  0  0  0  0  0  0  0  0  0  0  0
   -0.2597   -0.8260    1.3881 H   0  0  0  0  0  0  0  0  0  0  0  0
    0.1536   -1.0697   -1.5391 H   0  0  0  0  0  0  0  0  0  0  0  0
   -0.8735   -2.1501   -0.4551 H   0  0  0  0  0  0  0  0  0  0  0  0
   -1.6995    0.3686   -1.9382 H   0  0  0  0  0  0  0  0  0  0  0  0
   -2.7196   -0.7216   -0.8605 H   0  0  0  0  0  0  0  0  0  0  0  0
   -2.1146    0.6111    0.9997 H   0  0  0  0  0  0  0  0  0  0  0  0
   -1.2894    2.5555    0.6104 H   0  0  0  0  0  0  0  0  0  0  0  0
  1  2  3  0
  2  3  1  0
  3  4  1  0
  3  5  1  0
  5  6  1  0
  6  7  1  0
  7  8  1  0
  8  9  1  0
  8  5  1  0
  1 10  1  0
  3 11  1  0
  4 12  1  0
  5 13  1  0
  6 14  1  0
  6 15  1  0
  7 16  1  0
  7 17  1  0
  8 18  1  0
  9 19  1  0
M  END
