
     RDKit          3D

 19 19  0  0  0  0  0  0  0  0999 V2000
    1.2318   -0.6578   -2.7146 C   0  0  0  0  0  0  0  0  0  0  0  0
    1.1195   -0.4842   -1.6124 C   0  0  0  0  0  0  0  0  0  0  0  0
    0.9579   -0.2736   -0.1383 C   0  0  0  0  0  0  0  0  0  0  0  0
    0.8439    1.1208    0.2500 C   0  0  0  0  0  0  0  0  0  0  0  0
   -0.5763    1.5806    0.3555 C   0  0  0  0  0  0  0  0  0  0  0  0
   -1.3342    0.6496    1.2559 C   0  0  0  0  0  0  0  0  0  0  0  0
   -1.0567   -0.6413    1.2584 C   0  0  0  0  0  0  0  0  0  0  0  0
   -0.0322   -1.2233    0.4149 C   0  0  0  0  0  0  0  0  0  0  0  0
   -0.7496   -1.7997   -0.6981 O   0  0  0  0  0  0  0  0  0  0  0  0
    1.3424   -0.8127   -3.8241 H   0  0  0  0  0  0  0  0  0  0  0  0
    2.0071   -0.6064    0.2962 H   0  0  0  0  0  0  0  0  0  0  0  0
    1.4244    1.3632    1.1896 H   0  0  0  0  0  0  0  0  0  0  0  0
    1.3960    1.7246   -0.5551 H   0  0  0  0  0  0  0  0  0  0  0  0
   -1.0540    1.7045   -0.6368 H   0  0  0  0  0  0  0  0  0  0  0  0
   -0.5663    2.5802    0.8611 H   0  0  0  0  0  0  0  0  0  0  0  0
   -2.0911    1.0696    1.8829 H   0  0  0  0  0  0  0  0  0  0  0  0
   -1.6449   -1.2300    1.9416 H   0  0  0  0  0  0  0  0  0  0  0  0
    0.4773   -2.1125    0.9230 H   0  0  0  0  0  0  0  0  0  0  0  0
   -1.6952   -1.9515   -0.4495 H   0  0  0  0  0  0  0  0  0  0  0  0
  1  2  3  0
  2  3  1  0
  3  4  1  0
  4  5  1  0
  5  6  1  0
  6  7  2  0
  7  8  1  0
  8  9  1  0
  8  3  1  0
  1 10  1  0
  3 11  1  0
  4 12  1  0
  4 13  1  0
  5 14  1  0
  5 15  1  0
  6 16  1  0
  7 17  1  0
  8 18  1  0
  9 19  1  0
M  END
