
     RDKit          3D

 19 19  0  0  0  0  0  0  0  0999 V2000
    1.7559   -1.7888   -1.0760 C   0  0  0  0  0  0  0  0  0  0  0  0
    1.2470   -0.9210   -1.0016 C   0  0  0  0  0  0  0  0  0  0  0  0
    0.5505    0.2747   -0.8855 C   0  0  0  0  0  0  0  0  0  0  0  0
    1.4360    1.2365    0.1106 C   0  0  0  0  0  0  0  0  0  0  0  0
   -0.7601    0.1429    0.0277 C   0  0  0  0  0  0  0  0  0  0  0  0
   -1.7681    1.2111   -0.2622 C   0  0  0  0  0  0  0  0  0  0  0  0
   -2.5959    0.9529   -1.1231 O   0  0  0  0  0  0  0  0  0  0  0  0
   -0.6082   -0.4087    1.4061 C   0  0  0  0  0  0  0  0  0  0  0  0
   -1.2258   -1.2248    0.2580 C   0  0  0  0  0  0  0  0  0  0  0  0
    2.2759   -2.6432   -1.1550 H   0  0  0  0  0  0  0  0  0  0  0  0
    0.3176    0.9677   -1.6973 H   0  0  0  0  0  0  0  0  0  0  0  0
    0.8147    2.0622    0.5406 H   0  0  0  0  0  0  0  0  0  0  0  0
    1.7691    0.5698    0.9596 H   0  0  0  0  0  0  0  0  0  0  0  0
    2.3159    1.6515   -0.4356 H   0  0  0  0  0  0  0  0  0  0  0  0
   -1.7426    2.1896    0.2202 H   0  0  0  0  0  0  0  0  0  0  0  0
    0.3750   -0.7607    1.6804 H   0  0  0  0  0  0  0  0  0  0  0  0
   -1.2422   -0.0724    2.2239 H   0  0  0  0  0  0  0  0  0  0  0  0
   -2.3075   -1.4256    0.4342 H   0  0  0  0  0  0  0  0  0  0  0  0
   -0.6073   -2.0136   -0.2251 H   0  0  0  0  0  0  0  0  0  0  0  0
  1  2  3  0
  2  3  1  0
  3  4  1  0
  3  5  1  0
  5  6  1  0
  6  7  2  0
  5  8  1  0
  8  9  1  0
  9  5  1  0
  1 10  1  0
  3 11  1  0
  4 12  1  0
  4 13  1  0
  4 14  1  0
  6 15  1  0
  8 16  1  0
  8 17  1  0
  9 18  1  0
  9 19  1  0
M  END
