
     RDKit          3D

 15 14  0  0  0  0  0  0  0  0999 V2000
    3.2240    0.2052   -2.9311 C   0  0  0  0  0  0  0  0  0  0  0  0
    2.3978    0.1884   -2.1816 C   0  0  0  0  0  0  0  0  0  0  0  0
    1.1369    0.1756   -1.0197 C   0  0  0  0  0  0  0  0  0  0  0  0
    0.4332    0.1810   -0.3696 C   0  0  0  0  0  0  0  0  0  0  0  0
   -0.4362    0.1678    0.4241 C   0  0  0  0  0  0  0  0  0  0  0  0
   -0.5091   -1.1013    1.4354 C   0  0  0  0  0  0  0  0  0  0  0  0
   -0.3131    1.2924    1.3868 O   0  0  0  0  0  0  0  0  0  0  0  0
   -1.9037    0.2685    0.0074 C   0  0  0  0  0  0  0  0  0  0  0  0
   -2.6019   -0.4988   -0.5174 O   0  0  0  0  0  0  0  0  0  0  0  0
    3.9520    0.2254   -3.5867 H   0  0  0  0  0  0  0  0  0  0  0  0
    0.4156   -1.2838    1.8250 H   0  0  0  0  0  0  0  0  0  0  0  0
   -1.1616   -1.7939    1.0095 H   0  0  0  0  0  0  0  0  0  0  0  0
   -1.1617   -0.5683    2.3289 H   0  0  0  0  0  0  0  0  0  0  0  0
   -1.1446    1.2269    1.9698 H   0  0  0  0  0  0  0  0  0  0  0  0
   -2.3275    1.3148    0.2810 H   0  0  0  0  0  0  0  0  0  0  0  0
  1  2  3  0
  2  3  1  0
  3  4  3  0
  4  5  1  0
  5  6  1  0
  5  7  1  0
  5  8  1  0
  8  9  2  0
  1 10  1  0
  6 11  1  0
  6 12  1  0
  6 13  1  0
  7 14  1  0
  8 15  1  0
M  END
