
     RDKit          3D

 19 20  0  0  0  0  0  0  0  0999 V2000
    0.9371    2.0437   -2.4049 C   0  0  0  0  0  0  0  0  0  0  0  0
    0.4712    1.3479   -1.5333 C   0  0  0  0  0  0  0  0  0  0  0  0
   -0.0769    0.4959   -0.5035 C   0  0  0  0  0  0  0  0  0  0  0  0
   -1.0541   -0.5392   -0.9537 C   0  0  0  0  0  0  0  0  0  0  0  0
   -0.1959   -1.6230   -1.2626 O   0  0  0  0  0  0  0  0  0  0  0  0
    0.4052   -1.7677    0.0054 C   0  0  0  0  0  0  0  0  0  0  0  0
    0.9787   -0.4057    0.2085 C   0  0  0  0  0  0  0  0  0  0  0  0
    0.2873    0.6664    0.9228 C   0  0  0  0  0  0  0  0  0  0  0  0
   -0.7059    0.4252    2.0194 C   0  0  0  0  0  0  0  0  0  0  0  0
    1.3576    2.6553   -3.1767 H   0  0  0  0  0  0  0  0  0  0  0  0
   -1.6200   -0.2194   -1.8492 H   0  0  0  0  0  0  0  0  0  0  0  0
   -1.7091   -0.9272   -0.1442 H   0  0  0  0  0  0  0  0  0  0  0  0
    1.2061   -2.5281   -0.0159 H   0  0  0  0  0  0  0  0  0  0  0  0
   -0.4169   -2.0316    0.6963 H   0  0  0  0  0  0  0  0  0  0  0  0
    2.0252   -0.2929   -0.1304 H   0  0  0  0  0  0  0  0  0  0  0  0
    0.9198    1.5831    1.1142 H   0  0  0  0  0  0  0  0  0  0  0  0
   -1.6078    1.0653    1.9437 H   0  0  0  0  0  0  0  0  0  0  0  0
   -0.9720   -0.6320    2.0696 H   0  0  0  0  0  0  0  0  0  0  0  0
   -0.2297    0.6839    2.9944 H   0  0  0  0  0  0  0  0  0  0  0  0
  1  2  3  0
  2  3  1  0
  3  4  1  0
  4  5  1  0
  5  6  1  0
  6  7  1  0
  7  8  1  0
  8  9  1  0
  7  3  1  0
  8  3  1  0
  1 10  1  0
  4 11  1  0
  4 12  1  0
  6 13  1  0
  6 14  1  0
  7 15  1  0
  8 16  1  0
  9 17  1  0
  9 18  1  0
  9 19  1  0
M  END
