
     RDKit          3D

 17 18  0  0  0  0  0  0  0  0999 V2000
    1.0414   -2.1783   -1.1691 C   0  0  0  0  0  0  0  0  0  0  0  0
    0.8130   -1.1340   -0.6296 C   0  0  0  0  0  0  0  0  0  0  0  0
    0.5271    0.1114   -0.0076 C   0  0  0  0  0  0  0  0  0  0  0  0
    1.7283    0.6598    0.7194 C   0  0  0  0  0  0  0  0  0  0  0  0
   -0.2177    1.1469   -0.8242 C   0  0  0  0  0  0  0  0  0  0  0  0
   -0.0132    2.2098   -1.3412 O   0  0  0  0  0  0  0  0  0  0  0  0
   -1.3456    0.1861   -0.6694 C   0  0  0  0  0  0  0  0  0  0  0  0
   -2.0445   -0.2361    0.5030 C   0  0  0  0  0  0  0  0  0  0  0  0
   -0.7450    0.2432    0.7954 C   0  0  0  0  0  0  0  0  0  0  0  0
    1.2584   -3.0920   -1.6348 H   0  0  0  0  0  0  0  0  0  0  0  0
    1.7456    1.7465    0.5908 H   0  0  0  0  0  0  0  0  0  0  0  0
    2.6765    0.2382    0.3772 H   0  0  0  0  0  0  0  0  0  0  0  0
    1.5501    0.4648    1.8109 H   0  0  0  0  0  0  0  0  0  0  0  0
   -1.0364   -0.7117   -1.2905 H   0  0  0  0  0  0  0  0  0  0  0  0
   -2.2426   -1.3199    0.7711 H   0  0  0  0  0  0  0  0  0  0  0  0
   -2.9632    0.3596    0.7866 H   0  0  0  0  0  0  0  0  0  0  0  0
   -0.7322    1.3057    1.2120 H   0  0  0  0  0  0  0  0  0  0  0  0
  1  2  3  0
  2  3  1  0
  3  4  1  0
  3  5  1  0
  5  6  2  0
  5  7  1  0
  7  8  1  0
  8  9  1  0
  9  3  1  0
  9  7  1  0
  1 10  1  0
  4 11  1  0
  4 12  1  0
  4 13  1  0
  7 14  1  0
  8 15  1  0
  8 16  1  0
  9 17  1  0
M  END
