
     RDKit          3D

 19 19  0  0  0  0  0  0  0  0999 V2000
    2.0342    2.0097    0.8426 C   0  0  0  0  0  0  0  0  0  0  0  0
    1.9720    0.9327    0.3013 C   0  0  0  0  0  0  0  0  0  0  0  0
    1.9061   -0.3930   -0.3385 C   0  0  0  0  0  0  0  0  0  0  0  0
    0.4560   -0.7745   -0.4342 C   0  0  0  0  0  0  0  0  0  0  0  0
   -0.2486    0.2624   -1.2645 C   0  0  0  0  0  0  0  0  0  0  0  0
   -1.5440    0.4405   -1.0351 C   0  0  0  0  0  0  0  0  0  0  0  0
   -2.3081   -0.3181   -0.0225 C   0  0  0  0  0  0  0  0  0  0  0  0
   -1.5441   -1.1853    0.7101 O   0  0  0  0  0  0  0  0  0  0  0  0
   -0.2369   -0.8023    0.8978 C   0  0  0  0  0  0  0  0  0  0  0  0
    2.0712    2.9726    1.3237 H   0  0  0  0  0  0  0  0  0  0  0  0
    2.3110   -0.3090   -1.3690 H   0  0  0  0  0  0  0  0  0  0  0  0
    2.4750   -1.1577    0.2195 H   0  0  0  0  0  0  0  0  0  0  0  0
    0.2876   -1.7392   -0.9381 H   0  0  0  0  0  0  0  0  0  0  0  0
    0.2595    0.8422   -2.0144 H   0  0  0  0  0  0  0  0  0  0  0  0
   -2.0530    1.1883   -1.6335 H   0  0  0  0  0  0  0  0  0  0  0  0
   -3.0938   -0.9250   -0.5459 H   0  0  0  0  0  0  0  0  0  0  0  0
   -2.8568    0.3540    0.6794 H   0  0  0  0  0  0  0  0  0  0  0  0
    0.2539   -1.5880    1.5150 H   0  0  0  0  0  0  0  0  0  0  0  0
   -0.1411    0.1898    1.4084 H   0  0  0  0  0  0  0  0  0  0  0  0
  1  2  3  0
  2  3  1  0
  3  4  1  0
  4  5  1  0
  5  6  2  0
  6  7  1  0
  7  8  1  0
  8  9  1  0
  9  4  1  0
  1 10  1  0
  3 11  1  0
  3 12  1  0
  4 13  1  0
  5 14  1  0
  6 15  1  0
  7 16  1  0
  7 17  1  0
  9 18  1  0
  9 19  1  0
M  END
