
     RDKit          3D

 18 18  0  0  0  0  0  0  0  0999 V2000
    1.7559    1.4715    1.3743 C   0  0  0  0  0  0  0  0  0  0  0  0
    1.1639    1.2958    0.3155 C   0  0  0  0  0  0  0  0  0  0  0  0
    0.4459    1.0677   -0.9347 C   0  0  0  0  0  0  0  0  0  0  0  0
    0.9032   -0.0514   -1.6050 O   0  0  0  0  0  0  0  0  0  0  0  0
   -0.0765   -0.9048   -1.0532 C   0  0  0  0  0  0  0  0  0  0  0  0
    0.4426   -1.7059    0.0947 C   0  0  0  0  0  0  0  0  0  0  0  0
   -0.8432    0.3441   -0.6754 C   0  0  0  0  0  0  0  0  0  0  0  0
   -1.3677    0.3881    0.7242 C   0  0  0  0  0  0  0  0  0  0  0  0
    2.2515    1.6268    2.2964 H   0  0  0  0  0  0  0  0  0  0  0  0
    0.2923    1.9774   -1.5535 H   0  0  0  0  0  0  0  0  0  0  0  0
   -0.5549   -1.5358   -1.8138 H   0  0  0  0  0  0  0  0  0  0  0  0
    1.5066   -1.4457    0.3146 H   0  0  0  0  0  0  0  0  0  0  0  0
   -0.1146   -1.4878    1.0272 H   0  0  0  0  0  0  0  0  0  0  0  0
    0.4363   -2.7761   -0.1567 H   0  0  0  0  0  0  0  0  0  0  0  0
   -1.6093    0.5451   -1.4451 H   0  0  0  0  0  0  0  0  0  0  0  0
   -1.9272   -0.5617    0.8995 H   0  0  0  0  0  0  0  0  0  0  0  0
   -0.5546    0.5628    1.4320 H   0  0  0  0  0  0  0  0  0  0  0  0
   -2.1503    1.1899    0.7588 H   0  0  0  0  0  0  0  0  0  0  0  0
  1  2  3  0
  2  3  1  0
  3  4  1  0
  4  5  1  0
  5  6  1  0
  5  7  1  0
  7  8  1  0
  7  3  1  0
  1  9  1  0
  3 10  1  0
  5 11  1  0
  6 12  1  0
  6 13  1  0
  6 14  1  0
  7 15  1  0
  8 16  1  0
  8 17  1  0
  8 18  1  0
M  END
