
     RDKit          3D

 19 19  0  0  0  0  0  0  0  0999 V2000
    2.5976    1.7355    0.3086 C   0  0  0  0  0  0  0  0  0  0  0  0
    1.4615    0.4290    0.6999 C   0  0  0  0  0  0  0  0  0  0  0  0
    0.7968   -0.3248    0.9443 C   0  0  0  0  0  0  0  0  0  0  0  0
    0.1551   -0.2105    2.3049 O   0  0  0  0  0  0  0  0  0  0  0  0
   -0.5912   -0.3480    0.0735 C   0  0  0  0  0  0  0  0  0  0  0  0
   -1.5921    0.7196    0.2255 C   0  0  0  0  0  0  0  0  0  0  0  0
    0.1016    0.1708   -1.3803 C   0  0  0  0  0  0  0  0  0  0  0  0
   -0.9737   -0.4730   -1.9444 O   0  0  0  0  0  0  0  0  0  0  0  0
   -0.7303   -1.4604   -0.8867 C   0  0  0  0  0  0  0  0  0  0  0  0
    3.2394    2.4706    0.0953 H   0  0  0  0  0  0  0  0  0  0  0  0
    1.0663   -1.4655    0.9342 H   0  0  0  0  0  0  0  0  0  0  0  0
    0.2507   -1.1309    2.7305 H   0  0  0  0  0  0  0  0  0  0  0  0
   -2.2345    0.6832   -0.7011 H   0  0  0  0  0  0  0  0  0  0  0  0
   -1.1446    1.7885    0.3046 H   0  0  0  0  0  0  0  0  0  0  0  0
   -2.2189    0.5525    1.1273 H   0  0  0  0  0  0  0  0  0  0  0  0
    1.0758   -0.2905   -1.4578 H   0  0  0  0  0  0  0  0  0  0  0  0
   -0.0407    1.2464   -1.4296 H   0  0  0  0  0  0  0  0  0  0  0  0
    0.2956   -1.9410   -1.0886 H   0  0  0  0  0  0  0  0  0  0  0  0
   -1.5144   -2.1516   -0.7419 H   0  0  0  0  0  0  0  0  0  0  0  0
  1  2  3  0
  2  3  1  0
  3  4  1  0
  3  5  1  0
  5  6  1  0
  5  7  1  0
  7  8  1  0
  8  9  1  0
  9  5  1  0
  1 10  1  0
  3 11  1  0
  4 12  1  0
  6 13  1  0
  6 14  1  0
  6 15  1  0
  7 16  1  0
  7 17  1  0
  9 18  1  0
  9 19  1  0
M  END
