
     RDKit          3D

 14 14  0  0  0  0  0  0  0  0999 V2000
   -0.8792    2.8561    0.9020 C   0  0  0  0  0  0  0  0  0  0  0  0
   -0.6777    1.6536    0.9075 C   0  0  0  0  0  0  0  0  0  0  0  0
   -0.4106    0.2121    0.9112 C   0  0  0  0  0  0  0  0  0  0  0  0
   -1.3496   -0.6858    0.1802 C   0  0  0  0  0  0  0  0  0  0  0  0
   -0.0119   -0.4573   -0.3865 C   0  0  0  0  0  0  0  0  0  0  0  0
    1.0393   -1.3972   -0.2227 O   0  0  0  0  0  0  0  0  0  0  0  0
    2.1054   -1.4705   -1.0955 C   0  0  0  0  0  0  0  0  0  0  0  0
    2.1068   -0.6604   -2.0533 O   0  0  0  0  0  0  0  0  0  0  0  0
   -1.0692    3.8979    0.8868 H   0  0  0  0  0  0  0  0  0  0  0  0
    0.0330   -0.1410    1.8655 H   0  0  0  0  0  0  0  0  0  0  0  0
   -2.2186   -0.2194   -0.3418 H   0  0  0  0  0  0  0  0  0  0  0  0
   -1.6344   -1.6339    0.6836 H   0  0  0  0  0  0  0  0  0  0  0  0
    0.0438    0.2463   -1.2674 H   0  0  0  0  0  0  0  0  0  0  0  0
    2.9228   -2.2003   -0.9696 H   0  0  0  0  0  0  0  0  0  0  0  0
  1  2  3  0
  2  3  1  0
  3  4  1  0
  4  5  1  0
  5  6  1  0
  6  7  1  0
  7  8  2  0
  5  3  1  0
  1  9  1  0
  3 10  1  0
  4 11  1  0
  4 12  1  0
  5 13  1  0
  7 14  1  0
M  END
