
     RDKit          3D

 15 15  0  0  0  0  0  0  0  0999 V2000
    2.8575   -0.7845   -1.1708 C   0  0  0  0  0  0  0  0  0  0  0  0
    1.8347   -0.5889   -0.5387 C   0  0  0  0  0  0  0  0  0  0  0  0
    0.5949   -0.3561    0.1975 C   0  0  0  0  0  0  0  0  0  0  0  0
   -0.2008   -1.4901    0.3496 O   0  0  0  0  0  0  0  0  0  0  0  0
   -0.9892   -1.1195   -0.7286 C   0  0  0  0  0  0  0  0  0  0  0  0
   -0.5126    0.2892   -0.5731 C   0  0  0  0  0  0  0  0  0  0  0  0
   -0.1399    0.9506   -1.7312 O   0  0  0  0  0  0  0  0  0  0  0  0
   -1.3426    1.1250    0.2907 C   0  0  0  0  0  0  0  0  0  0  0  0
   -2.0209    1.8371    1.0072 C   0  0  0  0  0  0  0  0  0  0  0  0
    3.7603   -0.9630   -1.7088 H   0  0  0  0  0  0  0  0  0  0  0  0
    0.7676    0.1030    1.2003 H   0  0  0  0  0  0  0  0  0  0  0  0
   -2.0631   -1.3053   -0.4656 H   0  0  0  0  0  0  0  0  0  0  0  0
   -0.6438   -1.6353   -1.6375 H   0  0  0  0  0  0  0  0  0  0  0  0
    0.6970    1.4703   -1.6376 H   0  0  0  0  0  0  0  0  0  0  0  0
   -2.5992    2.4673    1.6386 H   0  0  0  0  0  0  0  0  0  0  0  0
  1  2  3  0
  2  3  1  0
  3  4  1  0
  4  5  1  0
  5  6  1  0
  6  7  1  0
  6  8  1  0
  8  9  3  0
  6  3  1  0
  1 10  1  0
  3 11  1  0
  5 12  1  0
  5 13  1  0
  7 14  1  0
  9 15  1  0
M  END
