
     RDKit          3D

 19 19  0  0  0  0  0  0  0  0999 V2000
    2.7400    1.2211    0.0044 C   0  0  0  0  0  0  0  0  0  0  0  0
    2.0405    0.2361    0.0674 C   0  0  0  0  0  0  0  0  0  0  0  0
    1.1812   -0.9612    0.1343 C   0  0  0  0  0  0  0  0  0  0  0  0
    0.3942   -1.0906   -1.1179 C   0  0  0  0  0  0  0  0  0  0  0  0
   -0.7318   -0.5111   -1.4360 C   0  0  0  0  0  0  0  0  0  0  0  0
   -1.6154    0.4207   -0.7659 C   0  0  0  0  0  0  0  0  0  0  0  0
   -1.1473    1.0041    0.5240 C   0  0  0  0  0  0  0  0  0  0  0  0
   -0.7044   -0.0319    1.4872 C   0  0  0  0  0  0  0  0  0  0  0  0
    0.3139   -0.9022    1.3337 C   0  0  0  0  0  0  0  0  0  0  0  0
    3.3555    2.0883   -0.0380 H   0  0  0  0  0  0  0  0  0  0  0  0
    1.8833   -1.8212    0.2554 H   0  0  0  0  0  0  0  0  0  0  0  0
    0.8590   -1.7714   -1.8377 H   0  0  0  0  0  0  0  0  0  0  0  0
   -1.0869   -0.7952   -2.4371 H   0  0  0  0  0  0  0  0  0  0  0  0
   -1.7452    1.3032   -1.4687 H   0  0  0  0  0  0  0  0  0  0  0  0
   -2.6587    0.0442   -0.6313 H   0  0  0  0  0  0  0  0  0  0  0  0
   -2.0054    1.5308    0.9906 H   0  0  0  0  0  0  0  0  0  0  0  0
   -0.3681    1.7899    0.3636 H   0  0  0  0  0  0  0  0  0  0  0  0
   -1.2120   -0.1520    2.4318 H   0  0  0  0  0  0  0  0  0  0  0  0
    0.5076   -1.6015    2.1401 H   0  0  0  0  0  0  0  0  0  0  0  0
  1  2  3  0
  2  3  1  0
  3  4  1  0
  4  5  2  0
  5  6  1  0
  6  7  1  0
  7  8  1  0
  8  9  2  0
  9  3  1  0
  1 10  1  0
  3 11  1  0
  4 12  1  0
  5 13  1  0
  6 14  1  0
  6 15  1  0
  7 16  1  0
  7 17  1  0
  8 18  1  0
  9 19  1  0
M  END
