
     RDKit          3D

 21 22  0  0  0  0  0  0  0  0999 V2000
   -2.9792   -2.0844    0.0527 C   0  0  0  0  0  0  0  0  0  0  0  0
   -1.9498   -1.4695    0.2559 C   0  0  0  0  0  0  0  0  0  0  0  0
   -0.6997   -0.7525    0.4986 C   0  0  0  0  0  0  0  0  0  0  0  0
   -0.8267    0.7581    0.4332 C   0  0  0  0  0  0  0  0  0  0  0  0
   -0.6390    1.3463    1.8087 C   0  0  0  0  0  0  0  0  0  0  0  0
    0.3266    0.8627   -0.4998 C   0  0  0  0  0  0  0  0  0  0  0  0
    1.5171    0.0017   -0.4272 C   0  0  0  0  0  0  0  0  0  0  0  0
    2.4664    0.0171   -1.5895 C   0  0  0  0  0  0  0  0  0  0  0  0
    0.2199   -0.6684   -0.6851 C   0  0  0  0  0  0  0  0  0  0  0  0
   -3.8880   -2.6080   -0.1222 H   0  0  0  0  0  0  0  0  0  0  0  0
   -0.1322   -1.1293    1.3818 H   0  0  0  0  0  0  0  0  0  0  0  0
   -1.7917    1.0538   -0.0269 H   0  0  0  0  0  0  0  0  0  0  0  0
   -1.2816    0.7732    2.5170 H   0  0  0  0  0  0  0  0  0  0  0  0
   -1.0395    2.3991    1.7526 H   0  0  0  0  0  0  0  0  0  0  0  0
    0.3958    1.3115    2.1536 H   0  0  0  0  0  0  0  0  0  0  0  0
    0.1983    1.4858   -1.3917 H   0  0  0  0  0  0  0  0  0  0  0  0
    2.0076   -0.2491    0.5444 H   0  0  0  0  0  0  0  0  0  0  0  0
    1.9710    0.2449   -2.5453 H   0  0  0  0  0  0  0  0  0  0  0  0
    3.2828    0.7480   -1.3852 H   0  0  0  0  0  0  0  0  0  0  0  0
    2.9286   -1.0098   -1.6780 H   0  0  0  0  0  0  0  0  0  0  0  0
   -0.0868   -1.0311   -1.6669 H   0  0  0  0  0  0  0  0  0  0  0  0
  1  2  3  0
  2  3  1  0
  3  4  1  0
  4  5  1  0
  4  6  1  0
  6  7  1  0
  7  8  1  0
  7  9  1  0
  9  3  1  0
  9  6  1  0
  1 10  1  0
  3 11  1  0
  4 12  1  0
  5 13  1  0
  5 14  1  0
  5 15  1  0
  6 16  1  0
  7 17  1  0
  8 18  1  0
  8 19  1  0
  8 20  1  0
  9 21  1  0
M  END
