
     RDKit          3D

 17 16  0  0  0  0  0  0  0  0999 V2000
    1.8103   -2.1959   -2.1464 C   0  0  0  0  0  0  0  0  0  0  0  0
    1.2811   -1.1126   -1.7136 C   0  0  0  0  0  0  0  0  0  0  0  0
    0.7520    0.0243   -1.2616 C   0  0  0  0  0  0  0  0  0  0  0  0
    0.4070    0.9275   -2.1276 O   0  0  0  0  0  0  0  0  0  0  0  0
    0.5089    0.3774    0.1893 C   0  0  0  0  0  0  0  0  0  0  0  0
    0.0036    1.7603    0.2036 C   0  0  0  0  0  0  0  0  0  0  0  0
   -0.4254    2.9277    0.2373 C   0  0  0  0  0  0  0  0  0  0  0  0
   -0.6888   -0.4805    0.6148 C   0  0  0  0  0  0  0  0  0  0  0  0
   -1.0522   -0.3857    2.0274 C   0  0  0  0  0  0  0  0  0  0  0  0
    2.2743   -3.1332   -2.5023 H   0  0  0  0  0  0  0  0  0  0  0  0
    1.3756    0.2539    0.7686 H   0  0  0  0  0  0  0  0  0  0  0  0
   -0.7740    3.9036    0.2810 H   0  0  0  0  0  0  0  0  0  0  0  0
   -1.5999   -0.1227   -0.0149 H   0  0  0  0  0  0  0  0  0  0  0  0
   -0.5222   -1.4949    0.1744 H   0  0  0  0  0  0  0  0  0  0  0  0
   -1.1036   -1.4612    2.4377 H   0  0  0  0  0  0  0  0  0  0  0  0
   -0.2488    0.0901    2.6838 H   0  0  0  0  0  0  0  0  0  0  0  0
   -1.9979    0.1220    2.2692 H   0  0  0  0  0  0  0  0  0  0  0  0
  1  2  3  0
  2  3  1  0
  3  4  2  0
  3  5  1  0
  5  6  1  0
  6  7  3  0
  5  8  1  0
  8  9  1  0
  1 10  1  0
  5 11  1  0
  7 12  1  0
  8 13  1  0
  8 14  1  0
  9 15  1  0
  9 16  1  0
  9 17  1  0
M  END
