
     RDKit          3D

 13 12  0  0  0  0  0  0  0  0999 V2000
   -2.6838    0.7328   -0.0704 C   0  0  0  0  0  0  0  0  0  0  0  0
   -1.7990    0.0245    0.3910 C   0  0  0  0  0  0  0  0  0  0  0  0
   -0.7361   -0.8056    0.9490 C   0  0  0  0  0  0  0  0  0  0  0  0
    0.4779   -0.8005    0.0459 C   0  0  0  0  0  0  0  0  0  0  0  0
    0.9664    0.5208   -0.0995 O   0  0  0  0  0  0  0  0  0  0  0  0
    2.0732    0.7789   -0.8808 C   0  0  0  0  0  0  0  0  0  0  0  0
    2.6134   -0.2234   -1.4485 O   0  0  0  0  0  0  0  0  0  0  0  0
   -3.4507    1.3536   -0.4536 H   0  0  0  0  0  0  0  0  0  0  0  0
   -0.4422   -0.4740    1.9577 H   0  0  0  0  0  0  0  0  0  0  0  0
   -1.0535   -1.8748    1.0518 H   0  0  0  0  0  0  0  0  0  0  0  0
    0.2691   -1.2480   -0.9391 H   0  0  0  0  0  0  0  0  0  0  0  0
    1.2775   -1.4040    0.5208 H   0  0  0  0  0  0  0  0  0  0  0  0
    2.4875    1.7772   -1.0243 H   0  0  0  0  0  0  0  0  0  0  0  0
  1  2  3  0
  2  3  1  0
  3  4  1  0
  4  5  1  0
  5  6  1  0
  6  7  2  0
  1  8  1  0
  3  9  1  0
  3 10  1  0
  4 11  1  0
  4 12  1  0
  6 13  1  0
M  END
