
     RDKit          3D

 23 22  0  0  0  0  0  0  0  0999 V2000
    1.9979    2.0933    0.3711 C   0  0  0  0  0  0  0  0  0  0  0  0
    1.1738    1.3117    0.7598 C   0  0  0  0  0  0  0  0  0  0  0  0
    0.1733    0.3951    1.2334 C   0  0  0  0  0  0  0  0  0  0  0  0
   -0.9739    1.0153    1.7191 O   0  0  0  0  0  0  0  0  0  0  0  0
   -0.2010   -0.6055    0.1694 C   0  0  0  0  0  0  0  0  0  0  0  0
    1.0398   -1.3610   -0.1986 C   0  0  0  0  0  0  0  0  0  0  0  0
   -1.1575   -1.6095    0.8322 C   0  0  0  0  0  0  0  0  0  0  0  0
   -0.9383   -0.0212   -0.9789 C   0  0  0  0  0  0  0  0  0  0  0  0
   -0.2299    1.0412   -1.7473 C   0  0  0  0  0  0  0  0  0  0  0  0
    2.7281    2.7867    0.0069 H   0  0  0  0  0  0  0  0  0  0  0  0
    0.5913   -0.2121    2.0898 H   0  0  0  0  0  0  0  0  0  0  0  0
   -0.7084    1.7788    2.2727 H   0  0  0  0  0  0  0  0  0  0  0  0
    0.8028   -2.4206   -0.3118 H   0  0  0  0  0  0  0  0  0  0  0  0
    1.8981   -1.1435    0.4654 H   0  0  0  0  0  0  0  0  0  0  0  0
    1.3491   -0.9876   -1.2153 H   0  0  0  0  0  0  0  0  0  0  0  0
   -1.1656   -2.5659    0.2626 H   0  0  0  0  0  0  0  0  0  0  0  0
   -0.7757   -1.8737    1.8546 H   0  0  0  0  0  0  0  0  0  0  0  0
   -2.1939   -1.2297    0.8502 H   0  0  0  0  0  0  0  0  0  0  0  0
   -1.8890    0.4156   -0.5795 H   0  0  0  0  0  0  0  0  0  0  0  0
   -1.2405   -0.8158   -1.6755 H   0  0  0  0  0  0  0  0  0  0  0  0
   -0.7541    1.1092   -2.7488 H   0  0  0  0  0  0  0  0  0  0  0  0
   -0.3508    2.0617   -1.3167 H   0  0  0  0  0  0  0  0  0  0  0  0
    0.8246    0.8376   -1.9561 H   0  0  0  0  0  0  0  0  0  0  0  0
  1  2  3  0
  2  3  1  0
  3  4  1  0
  3  5  1  0
  5  6  1  0
  5  7  1  0
  5  8  1  0
  8  9  1  0
  1 10  1  0
  3 11  1  0
  4 12  1  0
  6 13  1  0
  6 14  1  0
  6 15  1  0
  7 16  1  0
  7 17  1  0
  7 18  1  0
  8 19  1  0
  8 20  1  0
  9 21  1  0
  9 22  1  0
  9 23  1  0
M  END
