
     RDKit          3D

 17 16  0  0  0  0  0  0  0  0999 V2000
    2.6714    1.0695    0.4890 C   0  0  0  0  0  0  0  0  0  0  0  0
    1.9199    0.2634   -0.0494 C   0  0  0  0  0  0  0  0  0  0  0  0
    1.0389   -0.6690   -0.6915 C   0  0  0  0  0  0  0  0  0  0  0  0
    1.4481   -1.4001   -1.6503 O   0  0  0  0  0  0  0  0  0  0  0  0
   -0.3460   -0.8054   -0.2654 C   0  0  0  0  0  0  0  0  0  0  0  0
   -0.4092   -1.1960    1.1999 C   0  0  0  0  0  0  0  0  0  0  0  0
   -1.2729    0.3090   -0.6020 C   0  0  0  0  0  0  0  0  0  0  0  0
   -0.9583    1.6241   -0.0640 C   0  0  0  0  0  0  0  0  0  0  0  0
   -1.6525    2.5889   -0.3233 O   0  0  0  0  0  0  0  0  0  0  0  0
    3.3212    1.7560    0.9672 H   0  0  0  0  0  0  0  0  0  0  0  0
   -0.7791   -1.7087   -0.7991 H   0  0  0  0  0  0  0  0  0  0  0  0
    0.5140   -0.7999    1.7030 H   0  0  0  0  0  0  0  0  0  0  0  0
   -0.3597   -2.2910    1.3214 H   0  0  0  0  0  0  0  0  0  0  0  0
   -1.3166   -0.8266    1.7025 H   0  0  0  0  0  0  0  0  0  0  0  0
   -2.2800    0.0067   -0.1814 H   0  0  0  0  0  0  0  0  0  0  0  0
   -1.4307    0.2883   -1.7006 H   0  0  0  0  0  0  0  0  0  0  0  0
   -0.1086    1.7909    0.5771 H   0  0  0  0  0  0  0  0  0  0  0  0
  1  2  3  0
  2  3  1  0
  3  4  2  0
  3  5  1  0
  5  6  1  0
  5  7  1  0
  7  8  1  0
  8  9  2  0
  1 10  1  0
  5 11  1  0
  6 12  1  0
  6 13  1  0
  6 14  1  0
  7 15  1  0
  7 16  1  0
  8 17  1  0
M  END
