
     RDKit          3D

 17 18  0  0  0  0  0  0  0  0999 V2000
    2.7016   -1.0320    0.6128 C   0  0  0  0  0  0  0  0  0  0  0  0
    1.5954   -0.5960    0.4302 C   0  0  0  0  0  0  0  0  0  0  0  0
    0.2221   -0.0802    0.2150 C   0  0  0  0  0  0  0  0  0  0  0  0
   -0.8283   -1.0806    0.5184 C   0  0  0  0  0  0  0  0  0  0  0  0
   -0.7224   -2.2270   -0.2805 O   0  0  0  0  0  0  0  0  0  0  0  0
    0.1566    0.7512   -0.9980 C   0  0  0  0  0  0  0  0  0  0  0  0
   -0.9741    1.5088   -0.4130 C   0  0  0  0  0  0  0  0  0  0  0  0
    0.0040    1.3108    0.6589 C   0  0  0  0  0  0  0  0  0  0  0  0
    0.9695    1.6515   -0.3001 O   0  0  0  0  0  0  0  0  0  0  0  0
    3.6719   -1.4224    0.7906 H   0  0  0  0  0  0  0  0  0  0  0  0
   -1.8295   -0.6560    0.5530 H   0  0  0  0  0  0  0  0  0  0  0  0
   -0.6072   -1.4417    1.5706 H   0  0  0  0  0  0  0  0  0  0  0  0
   -1.6511   -2.4514   -0.5999 H   0  0  0  0  0  0  0  0  0  0  0  0
    0.2918    0.4839   -1.9625 H   0  0  0  0  0  0  0  0  0  0  0  0
   -1.0588    2.5816   -0.7168 H   0  0  0  0  0  0  0  0  0  0  0  0
   -1.9433    1.0334   -0.4283 H   0  0  0  0  0  0  0  0  0  0  0  0
    0.0017    1.6660    1.6082 H   0  0  0  0  0  0  0  0  0  0  0  0
  1  2  3  0
  2  3  1  0
  3  4  1  0
  4  5  1  0
  3  6  1  0
  6  7  1  0
  7  8  1  0
  8  9  1  0
  8  3  1  0
  9  6  1  0
  1 10  1  0
  4 11  1  0
  4 12  1  0
  5 13  1  0
  6 14  1  0
  7 15  1  0
  7 16  1  0
  8 17  1  0
M  END
