
     RDKit          3D

 13 13  0  0  0  0  0  0  0  0999 V2000
    2.3131   -1.0713   -0.0423 C   0  0  0  0  0  0  0  0  0  0  0  0
    1.1790   -0.6438    0.0166 C   0  0  0  0  0  0  0  0  0  0  0  0
   -0.2013   -0.0958    0.0900 C   0  0  0  0  0  0  0  0  0  0  0  0
   -1.2288   -1.0465   -0.3157 C   0  0  0  0  0  0  0  0  0  0  0  0
   -1.4259   -1.2804   -1.5007 O   0  0  0  0  0  0  0  0  0  0  0  0
   -0.2628    1.2727   -0.4941 C   0  0  0  0  0  0  0  0  0  0  0  0
   -1.0929    1.6238    0.5910 O   0  0  0  0  0  0  0  0  0  0  0  0
   -0.4474    0.6670    1.3436 C   0  0  0  0  0  0  0  0  0  0  0  0
   -0.1404    0.4250    2.5283 O   0  0  0  0  0  0  0  0  0  0  0  0
    3.3027   -1.4404   -0.0756 H   0  0  0  0  0  0  0  0  0  0  0  0
   -1.8416   -1.5696    0.4027 H   0  0  0  0  0  0  0  0  0  0  0  0
   -0.8678    1.3395   -1.4283 H   0  0  0  0  0  0  0  0  0  0  0  0
    0.7141    1.8199   -0.5442 H   0  0  0  0  0  0  0  0  0  0  0  0
  1  2  3  0
  2  3  1  0
  3  4  1  0
  4  5  2  0
  3  6  1  0
  6  7  1  0
  7  8  1  0
  8  9  2  0
  8  3  1  0
  1 10  1  0
  4 11  1  0
  6 12  1  0
  6 13  1  0
M  END
