
     RDKit          3D

 21 21  0  0  0  0  0  0  0  0999 V2000
    0.1501   -2.2712    2.9695 C   0  0  0  0  0  0  0  0  0  0  0  0
    0.3378   -2.1480    1.7910 C   0  0  0  0  0  0  0  0  0  0  0  0
    0.5585   -1.9964    0.3467 C   0  0  0  0  0  0  0  0  0  0  0  0
    0.7668   -0.5516   -0.0177 C   0  0  0  0  0  0  0  0  0  0  0  0
   -0.4242    0.2977    0.3623 C   0  0  0  0  0  0  0  0  0  0  0  0
   -0.1458    1.5320   -0.4437 C   0  0  0  0  0  0  0  0  0  0  0  0
   -1.3952    2.1804   -0.9744 C   0  0  0  0  0  0  0  0  0  0  0  0
    0.7667    1.0304   -1.5205 C   0  0  0  0  0  0  0  0  0  0  0  0
    0.8100   -0.3582   -1.3949 O   0  0  0  0  0  0  0  0  0  0  0  0
   -0.0279   -2.3879    4.0097 H   0  0  0  0  0  0  0  0  0  0  0  0
    1.4988   -2.5330    0.1024 H   0  0  0  0  0  0  0  0  0  0  0  0
   -0.2526   -2.4758   -0.1950 H   0  0  0  0  0  0  0  0  0  0  0  0
    1.6626   -0.1083    0.4390 H   0  0  0  0  0  0  0  0  0  0  0  0
   -0.4468    0.4940    1.4541 H   0  0  0  0  0  0  0  0  0  0  0  0
   -1.3499   -0.1922    0.0032 H   0  0  0  0  0  0  0  0  0  0  0  0
    0.4380    2.2379    0.1958 H   0  0  0  0  0  0  0  0  0  0  0  0
   -2.2803    1.5492   -0.7016 H   0  0  0  0  0  0  0  0  0  0  0  0
   -1.5416    3.1421   -0.4254 H   0  0  0  0  0  0  0  0  0  0  0  0
   -1.3263    2.3271   -2.0671 H   0  0  0  0  0  0  0  0  0  0  0  0
    0.3860    1.3559   -2.5056 H   0  0  0  0  0  0  0  0  0  0  0  0
    1.8153    1.4171   -1.4279 H   0  0  0  0  0  0  0  0  0  0  0  0
  1  2  3  0
  2  3  1  0
  3  4  1  0
  4  5  1  0
  5  6  1  0
  6  7  1  0
  6  8  1  0
  8  9  1  0
  9  4  1  0
  1 10  1  0
  3 11  1  0
  3 12  1  0
  4 13  1  0
  5 14  1  0
  5 15  1  0
  6 16  1  0
  7 17  1  0
  7 18  1  0
  7 19  1  0
  8 20  1  0
  8 21  1  0
M  END
