
     RDKit          3D

 21 21  0  0  0  0  0  0  0  0999 V2000
   -3.0464    1.6575   -0.2325 C   0  0  0  0  0  0  0  0  0  0  0  0
   -2.6223    0.5229   -0.3335 C   0  0  0  0  0  0  0  0  0  0  0  0
   -2.1108   -0.8495   -0.4300 C   0  0  0  0  0  0  0  0  0  0  0  0
   -0.8931   -0.8722   -1.2840 C   0  0  0  0  0  0  0  0  0  0  0  0
    0.2307   -0.0321   -0.7921 C   0  0  0  0  0  0  0  0  0  0  0  0
    0.6924   -0.4696    0.5806 C   0  0  0  0  0  0  0  0  0  0  0  0
    1.8193    0.3321    1.1307 C   0  0  0  0  0  0  0  0  0  0  0  0
    3.0678    0.4241    0.4840 C   0  0  0  0  0  0  0  0  0  0  0  0
    2.0484    1.5091    0.2523 O   0  0  0  0  0  0  0  0  0  0  0  0
   -3.4082    2.6594   -0.1562 H   0  0  0  0  0  0  0  0  0  0  0  0
   -2.9089   -1.5168   -0.8519 H   0  0  0  0  0  0  0  0  0  0  0  0
   -1.9602   -1.2132    0.6057 H   0  0  0  0  0  0  0  0  0  0  0  0
   -0.5334   -1.9390   -1.3809 H   0  0  0  0  0  0  0  0  0  0  0  0
   -1.1799   -0.5819   -2.3154 H   0  0  0  0  0  0  0  0  0  0  0  0
    1.1000   -0.1486   -1.5034 H   0  0  0  0  0  0  0  0  0  0  0  0
   -0.0244    1.0442   -0.8183 H   0  0  0  0  0  0  0  0  0  0  0  0
    1.0420   -1.5332    0.5179 H   0  0  0  0  0  0  0  0  0  0  0  0
   -0.1806   -0.5069    1.2814 H   0  0  0  0  0  0  0  0  0  0  0  0
    1.6629    0.7270    2.1586 H   0  0  0  0  0  0  0  0  0  0  0  0
    3.9458    0.9308    0.9146 H   0  0  0  0  0  0  0  0  0  0  0  0
    3.2588   -0.1442   -0.4564 H   0  0  0  0  0  0  0  0  0  0  0  0
  1  2  3  0
  2  3  1  0
  3  4  1  0
  4  5  1  0
  5  6  1  0
  6  7  1  0
  7  8  1  0
  8  9  1  0
  9  7  1  0
  1 10  1  0
  3 11  1  0
  3 12  1  0
  4 13  1  0
  4 14  1  0
  5 15  1  0
  5 16  1  0
  6 17  1  0
  6 18  1  0
  7 19  1  0
  8 20  1  0
  8 21  1  0
M  END
