
     RDKit          3D

 21 22  0  0  0  0  0  0  0  0999 V2000
   -3.3672    0.2122    1.4519 C   0  0  0  0  0  0  0  0  0  0  0  0
   -2.4083   -0.2944    0.8751 C   0  0  0  0  0  0  0  0  0  0  0  0
   -1.2434   -0.8916    0.2016 C   0  0  0  0  0  0  0  0  0  0  0  0
   -0.8453   -0.2006   -1.0332 C   0  0  0  0  0  0  0  0  0  0  0  0
   -0.9045    1.3243   -0.8838 C   0  0  0  0  0  0  0  0  0  0  0  0
    0.3575    1.1636   -0.0210 C   0  0  0  0  0  0  0  0  0  0  0  0
    0.0759   -0.2758    0.2337 C   0  0  0  0  0  0  0  0  0  0  0  0
    1.2974   -1.1805    0.0848 C   0  0  0  0  0  0  0  0  0  0  0  0
    2.5704   -0.3744    0.1477 C   0  0  0  0  0  0  0  0  0  0  0  0
   -4.1720    0.6453    1.9571 H   0  0  0  0  0  0  0  0  0  0  0  0
   -1.2874   -2.0027    0.1268 H   0  0  0  0  0  0  0  0  0  0  0  0
   -0.3987   -0.6444   -1.9125 H   0  0  0  0  0  0  0  0  0  0  0  0
   -1.7756    1.6463   -0.2730 H   0  0  0  0  0  0  0  0  0  0  0  0
   -0.7852    1.9093   -1.7912 H   0  0  0  0  0  0  0  0  0  0  0  0
    1.2290    1.3440   -0.6969 H   0  0  0  0  0  0  0  0  0  0  0  0
    0.3813    1.8061    0.8623 H   0  0  0  0  0  0  0  0  0  0  0  0
    1.2216   -1.7565   -0.8647 H   0  0  0  0  0  0  0  0  0  0  0  0
    1.2799   -1.8610    0.9630 H   0  0  0  0  0  0  0  0  0  0  0  0
    2.4236    0.5515    0.7555 H   0  0  0  0  0  0  0  0  0  0  0  0
    2.9816   -0.1396   -0.8433 H   0  0  0  0  0  0  0  0  0  0  0  0
    3.3694   -0.9809    0.6601 H   0  0  0  0  0  0  0  0  0  0  0  0
  1  2  3  0
  2  3  1  0
  3  4  1  0
  4  5  1  0
  5  6  1  0
  6  7  1  0
  7  8  1  0
  8  9  1  0
  7  3  1  0
  7  4  1  0
  1 10  1  0
  3 11  1  0
  4 12  1  0
  5 13  1  0
  5 14  1  0
  6 15  1  0
  6 16  1  0
  8 17  1  0
  8 18  1  0
  9 19  1  0
  9 20  1  0
  9 21  1  0
M  END
