
     RDKit          3D

 21 22  0  0  0  0  0  0  0  0999 V2000
    3.1590   -0.4881    1.5408 C   0  0  0  0  0  0  0  0  0  0  0  0
    2.3478   -0.3193    0.6845 C   0  0  0  0  0  0  0  0  0  0  0  0
    1.3702   -0.0909   -0.3608 C   0  0  0  0  0  0  0  0  0  0  0  0
    0.4024    1.0260    0.0797 C   0  0  0  0  0  0  0  0  0  0  0  0
   -0.8925    0.2966   -0.1063 C   0  0  0  0  0  0  0  0  0  0  0  0
   -2.1607    0.9466    0.0895 C   0  0  0  0  0  0  0  0  0  0  0  0
   -0.6714   -0.5038   -1.4013 C   0  0  0  0  0  0  0  0  0  0  0  0
    0.3989   -1.1991   -0.5533 C   0  0  0  0  0  0  0  0  0  0  0  0
   -0.5996   -1.0203    0.5950 C   0  0  0  0  0  0  0  0  0  0  0  0
    3.8898   -0.6347    2.2997 H   0  0  0  0  0  0  0  0  0  0  0  0
    1.8191    0.2612   -1.3163 H   0  0  0  0  0  0  0  0  0  0  0  0
    0.5780    1.2694    1.1495 H   0  0  0  0  0  0  0  0  0  0  0  0
    0.4555    1.8939   -0.5712 H   0  0  0  0  0  0  0  0  0  0  0  0
   -2.0759    2.0496   -0.0397 H   0  0  0  0  0  0  0  0  0  0  0  0
   -2.8941    0.6222   -0.7073 H   0  0  0  0  0  0  0  0  0  0  0  0
   -2.5775    0.7647    1.1014 H   0  0  0  0  0  0  0  0  0  0  0  0
   -0.2900    0.1603   -2.1733 H   0  0  0  0  0  0  0  0  0  0  0  0
   -1.4835   -1.1856   -1.6560 H   0  0  0  0  0  0  0  0  0  0  0  0
    0.6928   -2.1758   -0.8175 H   0  0  0  0  0  0  0  0  0  0  0  0
   -0.0520   -0.9164    1.5515 H   0  0  0  0  0  0  0  0  0  0  0  0
   -1.4161   -1.7383    0.6115 H   0  0  0  0  0  0  0  0  0  0  0  0
  1  2  3  0
  2  3  1  0
  3  4  1  0
  4  5  1  0
  5  6  1  0
  5  7  1  0
  7  8  1  0
  8  9  1  0
  8  3  1  0
  9  5  1  0
  1 10  1  0
  3 11  1  0
  4 12  1  0
  4 13  1  0
  6 14  1  0
  6 15  1  0
  6 16  1  0
  7 17  1  0
  7 18  1  0
  8 19  1  0
  9 20  1  0
  9 21  1  0
M  END
