
     RDKit          3D

 15 16  0  0  0  0  0  0  0  0999 V2000
    2.9905    1.5395    0.4111 C   0  0  0  0  0  0  0  0  0  0  0  0
    1.9298    1.0370    0.1267 C   0  0  0  0  0  0  0  0  0  0  0  0
    0.6448    0.4536   -0.2064 C   0  0  0  0  0  0  0  0  0  0  0  0
    0.2833    0.0603   -1.4113 C   0  0  0  0  0  0  0  0  0  0  0  0
   -1.0606   -0.4820   -1.4305 C   0  0  0  0  0  0  0  0  0  0  0  0
   -1.7016   -0.9733   -2.4137 O   0  0  0  0  0  0  0  0  0  0  0  0
   -1.5706   -0.3550   -0.0443 C   0  0  0  0  0  0  0  0  0  0  0  0
   -0.9390   -1.1963    0.9751 C   0  0  0  0  0  0  0  0  0  0  0  0
   -0.4550    0.2063    0.7318 C   0  0  0  0  0  0  0  0  0  0  0  0
    3.9193    1.9743    0.6770 H   0  0  0  0  0  0  0  0  0  0  0  0
    0.8965    0.1208   -2.3093 H   0  0  0  0  0  0  0  0  0  0  0  0
   -2.5780    0.0919    0.0866 H   0  0  0  0  0  0  0  0  0  0  0  0
   -1.5012   -1.3846    1.8953 H   0  0  0  0  0  0  0  0  0  0  0  0
   -0.2456   -2.0092    0.6118 H   0  0  0  0  0  0  0  0  0  0  0  0
   -0.6128    0.9167    1.5745 H   0  0  0  0  0  0  0  0  0  0  0  0
  1  2  3  0
  2  3  1  0
  3  4  2  0
  4  5  1  0
  5  6  2  0
  5  7  1  0
  7  8  1  0
  8  9  1  0
  9  3  1  0
  9  7  1  0
  1 10  1  0
  4 11  1  0
  7 12  1  0
  8 13  1  0
  8 14  1  0
  9 15  1  0
M  END
