
     RDKit          3D

 15 14  0  0  0  0  0  0  0  0999 V2000
   -0.0497    1.8435   -1.6688 C   0  0  0  0  0  0  0  0  0  0  0  0
   -0.0789    1.0210   -0.9348 C   0  0  0  0  0  0  0  0  0  0  0  0
   -0.1282   -0.2584    0.2462 C   0  0  0  0  0  0  0  0  0  0  0  0
   -0.6584    0.5672    1.2645 C   0  0  0  0  0  0  0  0  0  0  0  0
   -1.1257    1.2857    2.1689 C   0  0  0  0  0  0  0  0  0  0  0  0
   -0.9959   -1.0352   -0.3632 C   0  0  0  0  0  0  0  0  0  0  0  0
   -1.8391   -1.7808   -0.9288 C   0  0  0  0  0  0  0  0  0  0  0  0
    1.3274   -0.4923    0.3188 C   0  0  0  0  0  0  0  0  0  0  0  0
    1.9202   -1.0344   -0.8427 O   0  0  0  0  0  0  0  0  0  0  0  0
   -0.0088    2.6936   -2.4426 H   0  0  0  0  0  0  0  0  0  0  0  0
   -1.5494    1.9491    2.9737 H   0  0  0  0  0  0  0  0  0  0  0  0
   -2.5674   -2.4500   -1.4179 H   0  0  0  0  0  0  0  0  0  0  0  0
    1.8284    0.5838    0.2932 H   0  0  0  0  0  0  0  0  0  0  0  0
    1.6610   -0.9438    1.2317 H   0  0  0  0  0  0  0  0  0  0  0  0
    2.2647   -1.9491   -0.5257 H   0  0  0  0  0  0  0  0  0  0  0  0
  1  2  3  0
  2  3  1  0
  3  4  1  0
  4  5  3  0
  3  6  1  0
  6  7  3  0
  3  8  1  0
  8  9  1  0
  1 10  1  0
  5 11  1  0
  7 12  1  0
  8 13  1  0
  8 14  1  0
  9 15  1  0
M  END
