
     RDKit          3D

 21 22  0  0  0  0  0  0  0  0999 V2000
    2.1131   -1.7780    0.1257 C   0  0  0  0  0  0  0  0  0  0  0  0
    1.7320   -0.8886   -0.1106 C   0  0  0  0  0  0  0  0  0  0  0  0
    1.1371    0.4727   -0.4989 C   0  0  0  0  0  0  0  0  0  0  0  0
   -0.0785    0.2384   -1.2544 C   0  0  0  0  0  0  0  0  0  0  0  0
   -0.8605   -0.5477   -0.1879 C   0  0  0  0  0  0  0  0  0  0  0  0
   -2.3205   -0.3167   -0.2255 C   0  0  0  0  0  0  0  0  0  0  0  0
   -0.2486   -0.1304    1.1473 C   0  0  0  0  0  0  0  0  0  0  0  0
    0.3934    1.1174    0.7607 C   0  0  0  0  0  0  0  0  0  0  0  0
    1.6661    1.5338    0.3120 C   0  0  0  0  0  0  0  0  0  0  0  0
    2.5813   -2.8979    0.4231 H   0  0  0  0  0  0  0  0  0  0  0  0
   -0.6777    1.1093   -1.5203 H   0  0  0  0  0  0  0  0  0  0  0  0
    0.0957   -0.4580   -2.1331 H   0  0  0  0  0  0  0  0  0  0  0  0
   -0.6143   -1.6470   -0.3365 H   0  0  0  0  0  0  0  0  0  0  0  0
   -2.5379    0.7302    0.1084 H   0  0  0  0  0  0  0  0  0  0  0  0
   -2.8366   -1.0181    0.4627 H   0  0  0  0  0  0  0  0  0  0  0  0
   -2.7647   -0.4209   -1.2409 H   0  0  0  0  0  0  0  0  0  0  0  0
   -1.0791    0.0646    1.8706 H   0  0  0  0  0  0  0  0  0  0  0  0
    0.4031   -0.9122    1.5799 H   0  0  0  0  0  0  0  0  0  0  0  0
   -0.4363    1.8673    0.5187 H   0  0  0  0  0  0  0  0  0  0  0  0
    2.5367    1.3414    1.0011 H   0  0  0  0  0  0  0  0  0  0  0  0
    1.7960    2.5403   -0.1605 H   0  0  0  0  0  0  0  0  0  0  0  0
  1  2  3  0
  2  3  1  0
  3  4  1  0
  4  5  1  0
  5  6  1  0
  5  7  1  0
  7  8  1  0
  8  9  1  0
  8  3  1  0
  9  3  1  0
  1 10  1  0
  4 11  1  0
  4 12  1  0
  5 13  1  0
  6 14  1  0
  6 15  1  0
  6 16  1  0
  7 17  1  0
  7 18  1  0
  8 19  1  0
  9 20  1  0
  9 21  1  0
M  END
