
     RDKit          3D

 17 17  0  0  0  0  0  0  0  0999 V2000
    1.1669    2.1787   -1.4951 C   0  0  0  0  0  0  0  0  0  0  0  0
    1.2934    1.1363   -0.7713 C   0  0  0  0  0  0  0  0  0  0  0  0
    1.4161    0.0609   -0.0505 C   0  0  0  0  0  0  0  0  0  0  0  0
    0.5765   -1.1499   -0.3548 C   0  0  0  0  0  0  0  0  0  0  0  0
   -0.2859   -0.7688    0.8297 C   0  0  0  0  0  0  0  0  0  0  0  0
   -1.5715   -0.0731    0.4423 C   0  0  0  0  0  0  0  0  0  0  0  0
   -2.3470   -0.8960   -0.4099 O   0  0  0  0  0  0  0  0  0  0  0  0
    0.7589    0.1296    1.3390 C   0  0  0  0  0  0  0  0  0  0  0  0
    0.9525    0.6542    2.4009 O   0  0  0  0  0  0  0  0  0  0  0  0
    1.0539    3.1347   -2.1799 H   0  0  0  0  0  0  0  0  0  0  0  0
    2.5277   -0.3169    0.1700 H   0  0  0  0  0  0  0  0  0  0  0  0
    0.0367   -1.1621   -1.3357 H   0  0  0  0  0  0  0  0  0  0  0  0
    1.1043   -2.1069   -0.1641 H   0  0  0  0  0  0  0  0  0  0  0  0
   -0.5031   -1.6487    1.4748 H   0  0  0  0  0  0  0  0  0  0  0  0
   -2.2358    0.1746    1.2772 H   0  0  0  0  0  0  0  0  0  0  0  0
   -1.2748    0.8769   -0.0514 H   0  0  0  0  0  0  0  0  0  0  0  0
   -2.6687   -0.2235   -1.1213 H   0  0  0  0  0  0  0  0  0  0  0  0
  1  2  3  0
  2  3  1  0
  3  4  1  0
  4  5  1  0
  5  6  1  0
  6  7  1  0
  5  8  1  0
  8  9  2  0
  8  3  1  0
  1 10  1  0
  3 11  1  0
  4 12  1  0
  4 13  1  0
  5 14  1  0
  6 15  1  0
  6 16  1  0
  7 17  1  0
M  END
