
     RDKit          3D

 19 19  0  0  0  0  0  0  0  0999 V2000
   -3.4230   -0.9625    1.1677 C   0  0  0  0  0  0  0  0  0  0  0  0
   -2.3327   -0.6589    1.3880 C   0  0  0  0  0  0  0  0  0  0  0  0
   -0.9243   -0.2715    1.6489 C   0  0  0  0  0  0  0  0  0  0  0  0
   -0.2789   -0.1030    0.2489 C   0  0  0  0  0  0  0  0  0  0  0  0
   -0.9674    0.7327   -0.6043 O   0  0  0  0  0  0  0  0  0  0  0  0
    0.8644   -1.0133   -0.0811 C   0  0  0  0  0  0  0  0  0  0  0  0
    1.1851    0.3986    0.3671 C   0  0  0  0  0  0  0  0  0  0  0  0
    1.5818    1.3199   -0.7753 C   0  0  0  0  0  0  0  0  0  0  0  0
    1.4857    0.4882   -1.9420 O   0  0  0  0  0  0  0  0  0  0  0  0
   -4.4927   -1.2600    0.9313 H   0  0  0  0  0  0  0  0  0  0  0  0
   -0.4131   -1.0965    2.1320 H   0  0  0  0  0  0  0  0  0  0  0  0
   -0.8583    0.6778    2.2444 H   0  0  0  0  0  0  0  0  0  0  0  0
   -0.7900    0.4580   -1.5570 H   0  0  0  0  0  0  0  0  0  0  0  0
    1.0481   -1.3001   -1.1459 H   0  0  0  0  0  0  0  0  0  0  0  0
    1.0436   -1.8744    0.6227 H   0  0  0  0  0  0  0  0  0  0  0  0
    1.5050    0.6405    1.3561 H   0  0  0  0  0  0  0  0  0  0  0  0
    0.7836    2.0778   -0.8859 H   0  0  0  0  0  0  0  0  0  0  0  0
    2.5718    1.6900   -0.7869 H   0  0  0  0  0  0  0  0  0  0  0  0
    2.4113    0.0566   -2.0266 H   0  0  0  0  0  0  0  0  0  0  0  0
  1  2  3  0
  2  3  1  0
  3  4  1  0
  4  5  1  0
  4  6  1  0
  6  7  1  0
  7  8  1  0
  8  9  1  0
  7  4  1  0
  1 10  1  0
  3 11  1  0
  3 12  1  0
  5 13  1  0
  6 14  1  0
  6 15  1  0
  7 16  1  0
  8 17  1  0
  8 18  1  0
  9 19  1  0
M  END
