
     RDKit          3D

 19 19  0  0  0  0  0  0  0  0999 V2000
    3.0309   -0.7618    1.4963 C   0  0  0  0  0  0  0  0  0  0  0  0
    1.8828   -0.0918    0.8637 C   0  0  0  0  0  0  0  0  0  0  0  0
    0.8444    0.5231    0.2647 C   0  0  0  0  0  0  0  0  0  0  0  0
    0.4282   -0.4268   -1.0081 C   0  0  0  0  0  0  0  0  0  0  0  0
   -0.5079   -1.3676   -0.3366 C   0  0  0  0  0  0  0  0  0  0  0  0
   -1.2431   -0.5066    0.6883 C   0  0  0  0  0  0  0  0  0  0  0  0
   -0.3179    0.7260    1.0312 C   0  0  0  0  0  0  0  0  0  0  0  0
   -1.1523    1.5559   -0.4197 C   0  0  0  0  0  0  0  0  0  0  0  0
   -1.7386    2.1507   -1.4845 C   0  0  0  0  0  0  0  0  0  0  0  0
    3.7480   -1.1664    1.8974 H   0  0  0  0  0  0  0  0  0  0  0  0
    1.2906    1.4274   -0.3398 H   0  0  0  0  0  0  0  0  0  0  0  0
    1.3110   -0.8995   -1.4772 H   0  0  0  0  0  0  0  0  0  0  0  0
   -0.1218    0.2217   -1.6792 H   0  0  0  0  0  0  0  0  0  0  0  0
    0.0998   -2.1217    0.2460 H   0  0  0  0  0  0  0  0  0  0  0  0
   -1.1740   -1.8207   -1.1007 H   0  0  0  0  0  0  0  0  0  0  0  0
   -1.4407   -1.0931    1.6308 H   0  0  0  0  0  0  0  0  0  0  0  0
   -2.2908   -0.2065    0.2989 H   0  0  0  0  0  0  0  0  0  0  0  0
   -0.6934    1.4901    1.5111 H   0  0  0  0  0  0  0  0  0  0  0  0
   -1.9551    2.3676   -1.8619 H   0  0  0  0  0  0  0  0  0  0  0  0
  1  2  3  0
  2  3  1  0
  3  4  1  0
  4  5  1  0
  5  6  1  0
  6  7  1  0
  7  8  1  0
  8  9  3  0
  7  3  1  0
  1 10  1  0
  3 11  1  0
  4 12  1  0
  4 13  1  0
  5 14  1  0
  5 15  1  0
  6 16  1  0
  6 17  1  0
  7 18  1  0
  9 19  1  0
M  END
