
     RDKit          3D

 13 13  0  0  0  0  0  0  0  0999 V2000
    2.8364    0.5820    1.5817 C   0  0  0  0  0  0  0  0  0  0  0  0
    1.8999    0.5646    0.7895 C   0  0  0  0  0  0  0  0  0  0  0  0
    0.7922    0.5441   -0.1157 C   0  0  0  0  0  0  0  0  0  0  0  0
    0.7241    1.3697   -1.0576 O   0  0  0  0  0  0  0  0  0  0  0  0
   -0.3096   -0.4347    0.0113 C   0  0  0  0  0  0  0  0  0  0  0  0
   -1.1012   -0.8595   -1.1651 C   0  0  0  0  0  0  0  0  0  0  0  0
   -1.7034    0.1423   -0.2774 C   0  0  0  0  0  0  0  0  0  0  0  0
    3.6469    0.6148    2.2629 H   0  0  0  0  0  0  0  0  0  0  0  0
   -0.2044   -1.1404    0.8563 H   0  0  0  0  0  0  0  0  0  0  0  0
   -1.4874   -1.9131   -1.1285 H   0  0  0  0  0  0  0  0  0  0  0  0
   -0.8469   -0.5346   -2.1979 H   0  0  0  0  0  0  0  0  0  0  0  0
   -1.7637    1.2073   -0.5855 H   0  0  0  0  0  0  0  0  0  0  0  0
   -2.4829   -0.1424    0.4867 H   0  0  0  0  0  0  0  0  0  0  0  0
  1  2  3  0
  2  3  1  0
  3  4  2  0
  3  5  1  0
  5  6  1  0
  6  7  1  0
  7  5  1  0
  1  8  1  0
  5  9  1  0
  6 10  1  0
  6 11  1  0
  7 12  1  0
  7 13  1  0
M  END
