
     RDKit          3D

 16 16  0  0  0  0  0  0  0  0999 V2000
    2.6192    1.5651    0.5124 C   0  0  0  0  0  0  0  0  0  0  0  0
    1.7152    0.7724    0.3921 C   0  0  0  0  0  0  0  0  0  0  0  0
    0.6358   -0.1630    0.2255 C   0  0  0  0  0  0  0  0  0  0  0  0
   -0.5989    0.0944   -0.1735 C   0  0  0  0  0  0  0  0  0  0  0  0
   -1.1316    1.4316   -0.5384 C   0  0  0  0  0  0  0  0  0  0  0  0
   -1.3995   -1.1468   -0.2099 C   0  0  0  0  0  0  0  0  0  0  0  0
   -0.6193   -2.0854    0.4583 O   0  0  0  0  0  0  0  0  0  0  0  0
    0.6716   -1.6191    0.4641 C   0  0  0  0  0  0  0  0  0  0  0  0
    3.4093    2.2805    0.6270 H   0  0  0  0  0  0  0  0  0  0  0  0
   -1.6232    1.3650   -1.5328 H   0  0  0  0  0  0  0  0  0  0  0  0
   -0.3362    2.2008   -0.6058 H   0  0  0  0  0  0  0  0  0  0  0  0
   -1.8855    1.7930    0.1894 H   0  0  0  0  0  0  0  0  0  0  0  0
   -2.3327   -1.0308    0.3496 H   0  0  0  0  0  0  0  0  0  0  0  0
   -1.5397   -1.5053   -1.2410 H   0  0  0  0  0  0  0  0  0  0  0  0
    1.2444   -2.1172   -0.3468 H   0  0  0  0  0  0  0  0  0  0  0  0
    1.1713   -1.8353    1.4298 H   0  0  0  0  0  0  0  0  0  0  0  0
  1  2  3  0
  2  3  1  0
  3  4  2  0
  4  5  1  0
  4  6  1  0
  6  7  1  0
  7  8  1  0
  8  3  1  0
  1  9  1  0
  5 10  1  0
  5 11  1  0
  5 12  1  0
  6 13  1  0
  6 14  1  0
  8 15  1  0
  8 16  1  0
M  END
