
     RDKit          3D

 19 20  0  0  0  0  0  0  0  0999 V2000
    2.5527   -1.6848   -2.3458 C   0  0  0  0  0  0  0  0  0  0  0  0
    1.8295   -0.8162   -1.9341 C   0  0  0  0  0  0  0  0  0  0  0  0
    0.9725    0.2367   -1.4345 C   0  0  0  0  0  0  0  0  0  0  0  0
    0.0967   -0.3046   -0.3335 C   0  0  0  0  0  0  0  0  0  0  0  0
   -0.8487    0.7112    0.2703 C   0  0  0  0  0  0  0  0  0  0  0  0
   -2.2663    0.5899   -0.1460 C   0  0  0  0  0  0  0  0  0  0  0  0
   -0.4720    0.2705    1.6419 C   0  0  0  0  0  0  0  0  0  0  0  0
   -0.1215   -1.0137    1.9553 O   0  0  0  0  0  0  0  0  0  0  0  0
    0.7125   -0.4399    1.0108 C   0  0  0  0  0  0  0  0  0  0  0  0
    3.1799   -2.4620   -2.7205 H   0  0  0  0  0  0  0  0  0  0  0  0
    1.5028    1.1528   -1.1557 H   0  0  0  0  0  0  0  0  0  0  0  0
    0.2844    0.5240   -2.2812 H   0  0  0  0  0  0  0  0  0  0  0  0
   -0.3864   -1.2489   -0.6490 H   0  0  0  0  0  0  0  0  0  0  0  0
   -0.4502    1.7288    0.0596 H   0  0  0  0  0  0  0  0  0  0  0  0
   -2.4739    1.3238   -0.9493 H   0  0  0  0  0  0  0  0  0  0  0  0
   -2.5827   -0.4303   -0.4225 H   0  0  0  0  0  0  0  0  0  0  0  0
   -2.9070    0.8809    0.7317 H   0  0  0  0  0  0  0  0  0  0  0  0
   -0.3056    1.0216    2.4254 H   0  0  0  0  0  0  0  0  0  0  0  0
    1.6830   -0.0398    1.2729 H   0  0  0  0  0  0  0  0  0  0  0  0
  1  2  3  0
  2  3  1  0
  3  4  1  0
  4  5  1  0
  5  6  1  0
  5  7  1  0
  7  8  1  0
  8  9  1  0
  9  4  1  0
  9  7  1  0
  1 10  1  0
  3 11  1  0
  3 12  1  0
  4 13  1  0
  5 14  1  0
  6 15  1  0
  6 16  1  0
  6 17  1  0
  7 18  1  0
  9 19  1  0
M  END
