
     RDKit          3D

 21 21  0  0  0  0  0  0  0  0999 V2000
   -2.9937    1.3304   -0.2871 C   0  0  0  0  0  0  0  0  0  0  0  0
   -2.0168    0.6474   -0.0524 C   0  0  0  0  0  0  0  0  0  0  0  0
   -0.8435   -0.1951    0.2148 C   0  0  0  0  0  0  0  0  0  0  0  0
   -0.9224   -1.4860   -0.5791 C   0  0  0  0  0  0  0  0  0  0  0  0
    0.1166   -1.4972   -1.4763 O   0  0  0  0  0  0  0  0  0  0  0  0
    0.4307   -0.1848   -1.7401 C   0  0  0  0  0  0  0  0  0  0  0  0
    0.4179    0.4201   -0.3449 C   0  0  0  0  0  0  0  0  0  0  0  0
    1.6383    0.0206    0.4495 C   0  0  0  0  0  0  0  0  0  0  0  0
    1.4909    0.4723    1.8636 C   0  0  0  0  0  0  0  0  0  0  0  0
   -3.8565    1.9231   -0.5088 H   0  0  0  0  0  0  0  0  0  0  0  0
   -0.7971   -0.3615    1.2900 H   0  0  0  0  0  0  0  0  0  0  0  0
   -1.8793   -1.4929   -1.1141 H   0  0  0  0  0  0  0  0  0  0  0  0
   -0.8370   -2.3812    0.0945 H   0  0  0  0  0  0  0  0  0  0  0  0
   -0.4204    0.2822   -2.2876 H   0  0  0  0  0  0  0  0  0  0  0  0
    1.3970   -0.0643   -2.2475 H   0  0  0  0  0  0  0  0  0  0  0  0
    0.3483    1.5173   -0.4781 H   0  0  0  0  0  0  0  0  0  0  0  0
    1.6750   -1.1024    0.4614 H   0  0  0  0  0  0  0  0  0  0  0  0
    2.5451    0.3929   -0.0331 H   0  0  0  0  0  0  0  0  0  0  0  0
    2.4959    0.4429    2.3650 H   0  0  0  0  0  0  0  0  0  0  0  0
    1.1589    1.5224    1.9351 H   0  0  0  0  0  0  0  0  0  0  0  0
    0.8522   -0.2062    2.4754 H   0  0  0  0  0  0  0  0  0  0  0  0
  1  2  3  0
  2  3  1  0
  3  4  1  0
  4  5  1  0
  5  6  1  0
  6  7  1  0
  7  8  1  0
  8  9  1  0
  7  3  1  0
  1 10  1  0
  3 11  1  0
  4 12  1  0
  4 13  1  0
  6 14  1  0
  6 15  1  0
  7 16  1  0
  8 17  1  0
  8 18  1  0
  9 19  1  0
  9 20  1  0
  9 21  1  0
M  END
