
     RDKit          3D

 19 18  0  0  0  0  0  0  0  0999 V2000
    2.9051   -1.4910    2.4737 C   0  0  0  0  0  0  0  0  0  0  0  0
    2.2517   -1.1187    1.5053 C   0  0  0  0  0  0  0  0  0  0  0  0
    1.4908   -0.6703    0.3625 C   0  0  0  0  0  0  0  0  0  0  0  0
    1.9830   -0.6963   -0.7936 O   0  0  0  0  0  0  0  0  0  0  0  0
    0.1979   -0.1941    0.4719 O   0  0  0  0  0  0  0  0  0  0  0  0
   -0.5717    0.2540   -0.6416 C   0  0  0  0  0  0  0  0  0  0  0  0
    0.0580    1.3929   -1.3567 C   0  0  0  0  0  0  0  0  0  0  0  0
   -0.9166   -0.8509   -1.5827 C   0  0  0  0  0  0  0  0  0  0  0  0
   -1.8835    0.7593   -0.0356 C   0  0  0  0  0  0  0  0  0  0  0  0
    3.4576   -1.8034    3.3209 H   0  0  0  0  0  0  0  0  0  0  0  0
   -0.7321    2.1011   -1.6787 H   0  0  0  0  0  0  0  0  0  0  0  0
    0.6143    1.1178   -2.2713 H   0  0  0  0  0  0  0  0  0  0  0  0
    0.6992    1.9796   -0.6400 H   0  0  0  0  0  0  0  0  0  0  0  0
   -0.9145   -1.8532   -1.1090 H   0  0  0  0  0  0  0  0  0  0  0  0
   -1.9405   -0.6759   -1.9717 H   0  0  0  0  0  0  0  0  0  0  0  0
   -0.2607   -0.8751   -2.4871 H   0  0  0  0  0  0  0  0  0  0  0  0
   -1.5763    1.4479    0.7950 H   0  0  0  0  0  0  0  0  0  0  0  0
   -2.3736   -0.1003    0.4342 H   0  0  0  0  0  0  0  0  0  0  0  0
   -2.4881    1.2762   -0.8028 H   0  0  0  0  0  0  0  0  0  0  0  0
  1  2  3  0
  2  3  1  0
  3  4  2  0
  3  5  1  0
  5  6  1  0
  6  7  1  0
  6  8  1  0
  6  9  1  0
  1 10  1  0
  7 11  1  0
  7 12  1  0
  7 13  1  0
  8 14  1  0
  8 15  1  0
  8 16  1  0
  9 17  1  0
  9 18  1  0
  9 19  1  0
M  END
