
     RDKit          3D

 23 22  0  0  0  0  0  0  0  0999 V2000
    3.9430    0.6130   -0.2216 C   0  0  0  0  0  0  0  0  0  0  0  0
    2.8320    0.2379    0.0587 C   0  0  0  0  0  0  0  0  0  0  0  0
    1.4755   -0.1952    0.3941 C   0  0  0  0  0  0  0  0  0  0  0  0
    1.2557   -0.0202    1.7518 O   0  0  0  0  0  0  0  0  0  0  0  0
    0.4984    0.5509   -0.4597 C   0  0  0  0  0  0  0  0  0  0  0  0
   -0.9353    0.1619   -0.1765 C   0  0  0  0  0  0  0  0  0  0  0  0
   -1.1403   -1.3272   -0.4396 C   0  0  0  0  0  0  0  0  0  0  0  0
   -1.8629    0.8804   -1.1354 C   0  0  0  0  0  0  0  0  0  0  0  0
   -1.3393    0.5491    1.2205 C   0  0  0  0  0  0  0  0  0  0  0  0
    4.9372    0.9345   -0.4848 H   0  0  0  0  0  0  0  0  0  0  0  0
    1.3783   -1.2876    0.1348 H   0  0  0  0  0  0  0  0  0  0  0  0
    1.9012    0.6804    2.0669 H   0  0  0  0  0  0  0  0  0  0  0  0
    0.6104    1.6300   -0.3079 H   0  0  0  0  0  0  0  0  0  0  0  0
    0.6935    0.2983   -1.5187 H   0  0  0  0  0  0  0  0  0  0  0  0
   -0.6931   -1.9569    0.3426 H   0  0  0  0  0  0  0  0  0  0  0  0
   -0.7499   -1.5593   -1.4302 H   0  0  0  0  0  0  0  0  0  0  0  0
   -2.2478   -1.4938   -0.4172 H   0  0  0  0  0  0  0  0  0  0  0  0
   -1.6748    0.5524   -2.1840 H   0  0  0  0  0  0  0  0  0  0  0  0
   -2.8959    0.4865   -0.9011 H   0  0  0  0  0  0  0  0  0  0  0  0
   -1.8330    1.9767   -1.0126 H   0  0  0  0  0  0  0  0  0  0  0  0
   -0.6317    1.3682    1.5340 H   0  0  0  0  0  0  0  0  0  0  0  0
   -1.1747   -0.2657    1.9518 H   0  0  0  0  0  0  0  0  0  0  0  0
   -2.3465    0.9595    1.2342 H   0  0  0  0  0  0  0  0  0  0  0  0
  1  2  3  0
  2  3  1  0
  3  4  1  0
  3  5  1  0
  5  6  1  0
  6  7  1  0
  6  8  1  0
  6  9  1  0
  1 10  1  0
  3 11  1  0
  4 12  1  0
  5 13  1  0
  5 14  1  0
  7 15  1  0
  7 16  1  0
  7 17  1  0
  8 18  1  0
  8 19  1  0
  8 20  1  0
  9 21  1  0
  9 22  1  0
  9 23  1  0
M  END
