
     RDKit          3D

 19 20  0  0  0  0  0  0  0  0999 V2000
    2.9096   -0.7436   -0.2681 C   0  0  0  0  0  0  0  0  0  0  0  0
    1.7155   -0.6205   -0.1516 C   0  0  0  0  0  0  0  0  0  0  0  0
    0.2524   -0.4452   -0.0171 C   0  0  0  0  0  0  0  0  0  0  0  0
   -0.4735   -1.6528   -0.5613 C   0  0  0  0  0  0  0  0  0  0  0  0
   -0.2262    0.8865   -0.5546 C   0  0  0  0  0  0  0  0  0  0  0  0
    0.8452    1.7153   -0.8954 O   0  0  0  0  0  0  0  0  0  0  0  0
   -0.8299    1.2681    0.7668 C   0  0  0  0  0  0  0  0  0  0  0  0
   -1.5648    0.2860    1.5906 C   0  0  0  0  0  0  0  0  0  0  0  0
   -0.1409   -0.0028    1.3481 C   0  0  0  0  0  0  0  0  0  0  0  0
    3.9729   -0.8390   -0.3594 H   0  0  0  0  0  0  0  0  0  0  0  0
    0.0672   -2.1334   -1.3828 H   0  0  0  0  0  0  0  0  0  0  0  0
   -1.4974   -1.4246   -0.9121 H   0  0  0  0  0  0  0  0  0  0  0  0
   -0.5844   -2.3807    0.2887 H   0  0  0  0  0  0  0  0  0  0  0  0
   -0.9411    0.8123   -1.4002 H   0  0  0  0  0  0  0  0  0  0  0  0
    0.5491    2.5792   -1.2330 H   0  0  0  0  0  0  0  0  0  0  0  0
   -0.5477    2.2306    1.2057 H   0  0  0  0  0  0  0  0  0  0  0  0
   -2.3134   -0.3595    1.0961 H   0  0  0  0  0  0  0  0  0  0  0  0
   -1.8337    0.6155    2.6078 H   0  0  0  0  0  0  0  0  0  0  0  0
    0.6411    0.2087    2.1018 H   0  0  0  0  0  0  0  0  0  0  0  0
  1  2  3  0
  2  3  1  0
  3  4  1  0
  3  5  1  0
  5  6  1  0
  5  7  1  0
  7  8  1  0
  8  9  1  0
  9  3  1  0
  9  7  1  0
  1 10  1  0
  4 11  1  0
  4 12  1  0
  4 13  1  0
  5 14  1  0
  6 15  1  0
  7 16  1  0
  8 17  1  0
  8 18  1  0
  9 19  1  0
M  END
