
     RDKit          3D

 23 22  0  0  0  0  0  0  0  0999 V2000
   -0.0577    2.0313   -1.6509 C   0  0  0  0  0  0  0  0  0  0  0  0
   -0.1540    1.0126   -0.9372 C   0  0  0  0  0  0  0  0  0  0  0  0
   -0.2827   -0.1844   -0.0726 C   0  0  0  0  0  0  0  0  0  0  0  0
   -1.5127   -0.1460    0.7489 C   0  0  0  0  0  0  0  0  0  0  0  0
   -0.1692   -1.4020   -0.9653 C   0  0  0  0  0  0  0  0  0  0  0  0
   -1.2188   -1.4862   -2.0325 C   0  0  0  0  0  0  0  0  0  0  0  0
    0.8225   -0.2402    0.7775 O   0  0  0  0  0  0  0  0  0  0  0  0
    0.9692    0.8684    1.5868 C   0  0  0  0  0  0  0  0  0  0  0  0
    2.2482    0.6371    2.3984 C   0  0  0  0  0  0  0  0  0  0  0  0
    0.0066    2.8564   -2.2386 H   0  0  0  0  0  0  0  0  0  0  0  0
   -1.3660   -0.3831    1.8317 H   0  0  0  0  0  0  0  0  0  0  0  0
   -2.3103   -0.8461    0.4190 H   0  0  0  0  0  0  0  0  0  0  0  0
   -1.9735    0.8682    0.6942 H   0  0  0  0  0  0  0  0  0  0  0  0
    0.8658   -1.4079   -1.3730 H   0  0  0  0  0  0  0  0  0  0  0  0
   -0.2192   -2.3025   -0.3064 H   0  0  0  0  0  0  0  0  0  0  0  0
   -1.9456   -2.2931   -1.9469 H   0  0  0  0  0  0  0  0  0  0  0  0
   -0.7125   -1.4694   -3.0509 H   0  0  0  0  0  0  0  0  0  0  0  0
   -1.8033   -0.5153   -1.9993 H   0  0  0  0  0  0  0  0  0  0  0  0
    1.0391    1.7834    0.9693 H   0  0  0  0  0  0  0  0  0  0  0  0
    0.1043    0.9429    2.2452 H   0  0  0  0  0  0  0  0  0  0  0  0
    3.1614    0.8481    1.8167 H   0  0  0  0  0  0  0  0  0  0  0  0
    2.2170    1.2597    3.3196 H   0  0  0  0  0  0  0  0  0  0  0  0
    2.2913   -0.4318    2.7410 H   0  0  0  0  0  0  0  0  0  0  0  0
  1  2  3  0
  2  3  1  0
  3  4  1  0
  3  5  1  0
  5  6  1  0
  3  7  1  0
  7  8  1  0
  8  9  1  0
  1 10  1  0
  4 11  1  0
  4 12  1  0
  4 13  1  0
  5 14  1  0
  5 15  1  0
  6 16  1  0
  6 17  1  0
  6 18  1  0
  8 19  1  0
  8 20  1  0
  9 21  1  0
  9 22  1  0
  9 23  1  0
M  END
