
     RDKit          3D

 16 16  0  0  0  0  0  0  0  0999 V2000
    2.2498   -1.5380    0.3156 C   0  0  0  0  0  0  0  0  0  0  0  0
    1.2151   -1.1218   -0.1765 C   0  0  0  0  0  0  0  0  0  0  0  0
   -0.0419   -0.6428   -0.7637 C   0  0  0  0  0  0  0  0  0  0  0  0
   -1.1252   -1.4184   -0.3615 O   0  0  0  0  0  0  0  0  0  0  0  0
   -1.9875   -0.5858    0.3323 C   0  0  0  0  0  0  0  0  0  0  0  0
   -1.1334    0.3789    0.9131 O   0  0  0  0  0  0  0  0  0  0  0  0
   -0.3692    0.7162   -0.2105 C   0  0  0  0  0  0  0  0  0  0  0  0
    0.8538    1.4995    0.1973 C   0  0  0  0  0  0  0  0  0  0  0  0
    3.1610   -1.8964    0.7325 H   0  0  0  0  0  0  0  0  0  0  0  0
   -0.0000   -0.6457   -1.8695 H   0  0  0  0  0  0  0  0  0  0  0  0
   -2.6659   -0.0142   -0.3535 H   0  0  0  0  0  0  0  0  0  0  0  0
   -2.5560   -1.1208    1.1251 H   0  0  0  0  0  0  0  0  0  0  0  0
   -0.9866    1.2399   -0.9544 H   0  0  0  0  0  0  0  0  0  0  0  0
    1.5668    0.8634    0.7231 H   0  0  0  0  0  0  0  0  0  0  0  0
    0.5046    2.3341    0.8423 H   0  0  0  0  0  0  0  0  0  0  0  0
    1.3145    1.9519   -0.7072 H   0  0  0  0  0  0  0  0  0  0  0  0
  1  2  3  0
  2  3  1  0
  3  4  1  0
  4  5  1  0
  5  6  1  0
  6  7  1  0
  7  8  1  0
  7  3  1  0
  1  9  1  0
  3 10  1  0
  5 11  1  0
  5 12  1  0
  7 13  1  0
  8 14  1  0
  8 15  1  0
  8 16  1  0
M  END
