
     RDKit          3D

 23 22  0  0  0  0  0  0  0  0999 V2000
   -3.0895    0.5679    0.6060 C   0  0  0  0  0  0  0  0  0  0  0  0
   -2.3518   -0.0871   -0.0740 C   0  0  0  0  0  0  0  0  0  0  0  0
   -1.4374   -0.8994   -0.8878 C   0  0  0  0  0  0  0  0  0  0  0  0
   -0.0663   -0.7741   -0.2470 C   0  0  0  0  0  0  0  0  0  0  0  0
    0.9816   -1.5687   -0.9867 C   0  0  0  0  0  0  0  0  0  0  0  0
   -0.1637   -1.1051    1.1979 C   0  0  0  0  0  0  0  0  0  0  0  0
    0.3492    0.6903   -0.4100 C   0  0  0  0  0  0  0  0  0  0  0  0
    1.5904    0.9257    0.1423 O   0  0  0  0  0  0  0  0  0  0  0  0
    1.9591    2.2447    0.0020 C   0  0  0  0  0  0  0  0  0  0  0  0
   -3.7743    1.1613    1.2117 H   0  0  0  0  0  0  0  0  0  0  0  0
   -1.4432   -0.5647   -1.9321 H   0  0  0  0  0  0  0  0  0  0  0  0
   -1.7738   -1.9707   -0.8001 H   0  0  0  0  0  0  0  0  0  0  0  0
    0.7921   -2.6437   -0.7256 H   0  0  0  0  0  0  0  0  0  0  0  0
    0.9594   -1.3742   -2.0517 H   0  0  0  0  0  0  0  0  0  0  0  0
    1.9638   -1.2639   -0.5872 H   0  0  0  0  0  0  0  0  0  0  0  0
   -0.3637   -0.1398    1.7477 H   0  0  0  0  0  0  0  0  0  0  0  0
    0.7091   -1.5847    1.6446 H   0  0  0  0  0  0  0  0  0  0  0  0
   -1.0500   -1.7748    1.3489 H   0  0  0  0  0  0  0  0  0  0  0  0
   -0.3892    1.3710    0.0514 H   0  0  0  0  0  0  0  0  0  0  0  0
    0.4348    0.9502   -1.4925 H   0  0  0  0  0  0  0  0  0  0  0  0
    1.2019    2.8830    0.5250 H   0  0  0  0  0  0  0  0  0  0  0  0
    2.0181    2.5354   -1.0617 H   0  0  0  0  0  0  0  0  0  0  0  0
    2.9435    2.4213    0.5064 H   0  0  0  0  0  0  0  0  0  0  0  0
  1  2  3  0
  2  3  1  0
  3  4  1  0
  4  5  1  0
  4  6  1  0
  4  7  1  0
  7  8  1  0
  8  9  1  0
  1 10  1  0
  3 11  1  0
  3 12  1  0
  5 13  1  0
  5 14  1  0
  5 15  1  0
  6 16  1  0
  6 17  1  0
  6 18  1  0
  7 19  1  0
  7 20  1  0
  9 21  1  0
  9 22  1  0
  9 23  1  0
M  END
