
     RDKit          3D

 17 17  0  0  0  0  0  0  0  0999 V2000
   -0.5442    2.5206    1.1553 C   0  0  0  0  0  0  0  0  0  0  0  0
   -0.1030    1.4277    0.6769 C   0  0  0  0  0  0  0  0  0  0  0  0
    0.3675    0.2032    0.1561 C   0  0  0  0  0  0  0  0  0  0  0  0
    1.8501   -0.0365    0.4131 C   0  0  0  0  0  0  0  0  0  0  0  0
   -0.4198   -0.9873    0.7122 C   0  0  0  0  0  0  0  0  0  0  0  0
   -1.5845   -1.0569   -0.2296 C   0  0  0  0  0  0  0  0  0  0  0  0
   -1.2289   -0.3264   -1.3957 O   0  0  0  0  0  0  0  0  0  0  0  0
    0.0742    0.1195   -1.2885 C   0  0  0  0  0  0  0  0  0  0  0  0
    0.8160    0.3854   -2.2546 O   0  0  0  0  0  0  0  0  0  0  0  0
   -0.9186    3.4105    1.5353 H   0  0  0  0  0  0  0  0  0  0  0  0
    2.4108    0.7262   -0.1265 H   0  0  0  0  0  0  0  0  0  0  0  0
    2.0241    0.0287    1.4882 H   0  0  0  0  0  0  0  0  0  0  0  0
    2.0517   -1.0756    0.0427 H   0  0  0  0  0  0  0  0  0  0  0  0
    0.1676   -1.9179    0.6858 H   0  0  0  0  0  0  0  0  0  0  0  0
   -0.7028   -0.6990    1.7523 H   0  0  0  0  0  0  0  0  0  0  0  0
   -1.7692   -2.1241   -0.4578 H   0  0  0  0  0  0  0  0  0  0  0  0
   -2.4910   -0.5982    0.1940 H   0  0  0  0  0  0  0  0  0  0  0  0
  1  2  3  0
  2  3  1  0
  3  4  1  0
  3  5  1  0
  5  6  1  0
  6  7  1  0
  7  8  1  0
  8  9  2  0
  8  3  1  0
  1 10  1  0
  4 11  1  0
  4 12  1  0
  4 13  1  0
  5 14  1  0
  5 15  1  0
  6 16  1  0
  6 17  1  0
M  END
