
     RDKit          3D

 21 21  0  0  0  0  0  0  0  0999 V2000
    2.9853    1.4650   -1.1314 C   0  0  0  0  0  0  0  0  0  0  0  0
    2.0222    0.7536   -1.2694 C   0  0  0  0  0  0  0  0  0  0  0  0
    0.8518   -0.1398   -1.4509 C   0  0  0  0  0  0  0  0  0  0  0  0
    0.4873   -0.6394   -0.0600 C   0  0  0  0  0  0  0  0  0  0  0  0
   -0.7062   -1.5529   -0.2288 C   0  0  0  0  0  0  0  0  0  0  0  0
   -1.8622   -0.6051    0.0197 C   0  0  0  0  0  0  0  0  0  0  0  0
   -1.3572    0.1125    1.2785 C   0  0  0  0  0  0  0  0  0  0  0  0
    0.0446    0.5064    0.8127 C   0  0  0  0  0  0  0  0  0  0  0  0
   -0.1090    1.6793    0.0708 O   0  0  0  0  0  0  0  0  0  0  0  0
    3.8344    2.0857   -1.0024 H   0  0  0  0  0  0  0  0  0  0  0  0
    1.1109   -1.0210   -2.0700 H   0  0  0  0  0  0  0  0  0  0  0  0
    0.0323    0.4240   -1.8959 H   0  0  0  0  0  0  0  0  0  0  0  0
    1.3648   -1.1792    0.3642 H   0  0  0  0  0  0  0  0  0  0  0  0
   -0.7526   -2.3244    0.5777 H   0  0  0  0  0  0  0  0  0  0  0  0
   -0.7384   -2.0198   -1.2269 H   0  0  0  0  0  0  0  0  0  0  0  0
   -2.7780   -1.1651    0.2159 H   0  0  0  0  0  0  0  0  0  0  0  0
   -1.9499    0.1121   -0.8351 H   0  0  0  0  0  0  0  0  0  0  0  0
   -1.2807   -0.6562    2.0553 H   0  0  0  0  0  0  0  0  0  0  0  0
   -1.9630    0.9757    1.5396 H   0  0  0  0  0  0  0  0  0  0  0  0
    0.7184    0.7247    1.6442 H   0  0  0  0  0  0  0  0  0  0  0  0
    0.0453    2.4638    0.6675 H   0  0  0  0  0  0  0  0  0  0  0  0
  1  2  3  0
  2  3  1  0
  3  4  1  0
  4  5  1  0
  5  6  1  0
  6  7  1  0
  7  8  1  0
  8  9  1  0
  8  4  1  0
  1 10  1  0
  3 11  1  0
  3 12  1  0
  4 13  1  0
  5 14  1  0
  5 15  1  0
  6 16  1  0
  6 17  1  0
  7 18  1  0
  7 19  1  0
  8 20  1  0
  9 21  1  0
M  END
