
     RDKit          3D

 15 15  0  0  0  0  0  0  0  0999 V2000
    2.6098   -0.0607    1.7377 C   0  0  0  0  0  0  0  0  0  0  0  0
    1.4723   -0.2597    1.3522 C   0  0  0  0  0  0  0  0  0  0  0  0
    0.0933   -0.4908    0.8887 C   0  0  0  0  0  0  0  0  0  0  0  0
    0.1186   -1.0503   -0.5077 C   0  0  0  0  0  0  0  0  0  0  0  0
    0.1051   -0.0768   -1.4927 O   0  0  0  0  0  0  0  0  0  0  0  0
   -1.0183    0.7328   -1.4494 C   0  0  0  0  0  0  0  0  0  0  0  0
   -1.3630    1.1470   -0.0680 C   0  0  0  0  0  0  0  0  0  0  0  0
   -2.3098    1.9469    0.0978 O   0  0  0  0  0  0  0  0  0  0  0  0
   -0.6674    0.6710    1.0076 O   0  0  0  0  0  0  0  0  0  0  0  0
    3.5968    0.1283    2.0709 H   0  0  0  0  0  0  0  0  0  0  0  0
   -0.3345   -1.2462    1.5778 H   0  0  0  0  0  0  0  0  0  0  0  0
   -0.7126   -1.7838   -0.6245 H   0  0  0  0  0  0  0  0  0  0  0  0
    1.0834   -1.5983   -0.6167 H   0  0  0  0  0  0  0  0  0  0  0  0
   -1.8984    0.2802   -1.9658 H   0  0  0  0  0  0  0  0  0  0  0  0
   -0.7753    1.6605   -2.0080 H   0  0  0  0  0  0  0  0  0  0  0  0
  1  2  3  0
  2  3  1  0
  3  4  1  0
  4  5  1  0
  5  6  1  0
  6  7  1  0
  7  8  2  0
  7  9  1  0
  9  3  1  0
  1 10  1  0
  3 11  1  0
  4 12  1  0
  4 13  1  0
  6 14  1  0
  6 15  1  0
M  END
