
     RDKit          3D

 17 16  0  0  0  0  0  0  0  0999 V2000
   -1.8635    1.4796    2.6755 C   0  0  0  0  0  0  0  0  0  0  0  0
   -1.8889    0.5559    2.0170 C   0  0  0  0  0  0  0  0  0  0  0  0
   -1.9287   -0.6674    1.1641 C   0  0  0  0  0  0  0  0  0  0  0  0
   -0.6432   -1.2632    0.7018 C   0  0  0  0  0  0  0  0  0  0  0  0
    0.0017   -0.7293   -0.1420 C   0  0  0  0  0  0  0  0  0  0  0  0
    0.7195   -0.1062   -1.1119 C   0  0  0  0  0  0  0  0  0  0  0  0
    1.4989    0.5485   -2.1251 C   0  0  0  0  0  0  0  0  0  0  0  0
    2.9209    0.6841   -1.6208 C   0  0  0  0  0  0  0  0  0  0  0  0
    3.5983   -0.3443   -1.9345 O   0  0  0  0  0  0  0  0  0  0  0  0
   -1.8437    2.4358    3.3771 H   0  0  0  0  0  0  0  0  0  0  0  0
   -2.3354   -0.2264    0.1225 H   0  0  0  0  0  0  0  0  0  0  0  0
   -2.7691   -1.3733    1.3886 H   0  0  0  0  0  0  0  0  0  0  0  0
   -0.1880   -1.7698    1.7116 H   0  0  0  0  0  0  0  0  0  0  0  0
   -1.1161   -2.3846    0.3073 H   0  0  0  0  0  0  0  0  0  0  0  0
    1.1082    1.6310   -2.3249 H   0  0  0  0  0  0  0  0  0  0  0  0
    1.4434    0.0169   -3.1013 H   0  0  0  0  0  0  0  0  0  0  0  0
    3.2858    1.5127   -1.1051 H   0  0  0  0  0  0  0  0  0  0  0  0
  1  2  3  0
  2  3  1  0
  3  4  1  0
  4  5  1  0
  5  6  3  0
  6  7  1  0
  7  8  1  0
  8  9  2  0
  1 10  1  0
  3 11  1  0
  3 12  1  0
  4 13  1  0
  4 14  1  0
  7 15  1  0
  7 16  1  0
  8 17  1  0
M  END
