
     RDKit          3D

 19 19  0  0  0  0  0  0  0  0999 V2000
   -3.3681   -0.5929   -1.1699 C   0  0  0  0  0  0  0  0  0  0  0  0
   -2.7554   -0.2264   -0.1966 C   0  0  0  0  0  0  0  0  0  0  0  0
   -2.0113    0.2361    0.9710 C   0  0  0  0  0  0  0  0  0  0  0  0
   -0.6358    0.0139    0.8124 O   0  0  0  0  0  0  0  0  0  0  0  0
   -0.1338    0.6765   -0.2850 C   0  0  0  0  0  0  0  0  0  0  0  0
    1.3417    0.3806   -0.3750 C   0  0  0  0  0  0  0  0  0  0  0  0
    1.8397   -0.9972   -0.5275 C   0  0  0  0  0  0  0  0  0  0  0  0
    1.9795   -0.3926    0.8037 C   0  0  0  0  0  0  0  0  0  0  0  0
    3.1471    0.1568    1.2676 O   0  0  0  0  0  0  0  0  0  0  0  0
   -3.8953   -0.9119   -2.0221 H   0  0  0  0  0  0  0  0  0  0  0  0
   -2.3854   -0.1619    1.9230 H   0  0  0  0  0  0  0  0  0  0  0  0
   -2.1248    1.3563    0.9917 H   0  0  0  0  0  0  0  0  0  0  0  0
   -0.2485    1.7787   -0.0825 H   0  0  0  0  0  0  0  0  0  0  0  0
   -0.6676    0.4591   -1.2220 H   0  0  0  0  0  0  0  0  0  0  0  0
    1.9637    1.1748   -0.8441 H   0  0  0  0  0  0  0  0  0  0  0  0
    1.0818   -1.8180   -0.6184 H   0  0  0  0  0  0  0  0  0  0  0  0
    2.7101   -1.1748   -1.1981 H   0  0  0  0  0  0  0  0  0  0  0  0
    1.2485   -0.6746    1.5889 H   0  0  0  0  0  0  0  0  0  0  0  0
    2.9139    0.7177    2.0737 H   0  0  0  0  0  0  0  0  0  0  0  0
  1  2  3  0
  2  3  1  0
  3  4  1  0
  4  5  1  0
  5  6  1  0
  6  7  1  0
  7  8  1  0
  8  9  1  0
  8  6  1  0
  1 10  1  0
  3 11  1  0
  3 12  1  0
  5 13  1  0
  5 14  1  0
  6 15  1  0
  7 16  1  0
  7 17  1  0
  8 18  1  0
  9 19  1  0
M  END
