
     RDKit          3D

 13 13  0  0  0  0  0  0  0  0999 V2000
    1.7766   -1.9291   -0.7871 C   0  0  0  0  0  0  0  0  0  0  0  0
    1.1814   -0.8600   -0.7333 C   0  0  0  0  0  0  0  0  0  0  0  0
    0.4500    0.4073   -0.6806 C   0  0  0  0  0  0  0  0  0  0  0  0
    1.0325    1.2604    0.2543 O   0  0  0  0  0  0  0  0  0  0  0  0
   -0.9901    0.1240   -0.2519 C   0  0  0  0  0  0  0  0  0  0  0  0
   -1.3983    0.5989    1.1021 C   0  0  0  0  0  0  0  0  0  0  0  0
   -1.8494    1.1944   -0.1387 O   0  0  0  0  0  0  0  0  0  0  0  0
    2.2984   -2.8477   -0.8465 H   0  0  0  0  0  0  0  0  0  0  0  0
    0.4696    0.8557   -1.7022 H   0  0  0  0  0  0  0  0  0  0  0  0
    1.2398    0.7419    1.0655 H   0  0  0  0  0  0  0  0  0  0  0  0
   -1.3561   -0.8579   -0.5996 H   0  0  0  0  0  0  0  0  0  0  0  0
   -0.6562    1.2227    1.6446 H   0  0  0  0  0  0  0  0  0  0  0  0
   -2.1981    0.0894    1.6734 H   0  0  0  0  0  0  0  0  0  0  0  0
  1  2  3  0
  2  3  1  0
  3  4  1  0
  3  5  1  0
  5  6  1  0
  6  7  1  0
  7  5  1  0
  1  8  1  0
  3  9  1  0
  4 10  1  0
  5 11  1  0
  6 12  1  0
  6 13  1  0
M  END
