
     RDKit          3D

 16 15  0  0  0  0  0  0  0  0999 V2000
   -2.7425    0.7707    1.0922 C   0  0  0  0  0  0  0  0  0  0  0  0
   -1.5679    0.7780    1.4207 C   0  0  0  0  0  0  0  0  0  0  0  0
   -0.1654    0.7984    1.8364 C   0  0  0  0  0  0  0  0  0  0  0  0
    0.6695    1.0082    0.7155 O   0  0  0  0  0  0  0  0  0  0  0  0
    0.3927   -0.0781   -0.1366 C   0  0  0  0  0  0  0  0  0  0  0  0
    1.1970   -0.0048   -1.3751 C   0  0  0  0  0  0  0  0  0  0  0  0
    1.0286   -1.0773   -2.3875 C   0  0  0  0  0  0  0  0  0  0  0  0
    1.9638    0.9161   -1.5324 O   0  0  0  0  0  0  0  0  0  0  0  0
   -3.7842    0.7724    0.8182 H   0  0  0  0  0  0  0  0  0  0  0  0
    0.0060    1.5202    2.6308 H   0  0  0  0  0  0  0  0  0  0  0  0
    0.1501   -0.2183    2.2192 H   0  0  0  0  0  0  0  0  0  0  0  0
   -0.7112   -0.0435   -0.3424 H   0  0  0  0  0  0  0  0  0  0  0  0
    0.5941   -1.0492    0.3481 H   0  0  0  0  0  0  0  0  0  0  0  0
    0.2000   -0.8420   -3.0729 H   0  0  0  0  0  0  0  0  0  0  0  0
    2.0043   -1.2277   -2.9333 H   0  0  0  0  0  0  0  0  0  0  0  0
    0.7649   -2.0232   -1.8747 H   0  0  0  0  0  0  0  0  0  0  0  0
  1  2  3  0
  2  3  1  0
  3  4  1  0
  4  5  1  0
  5  6  1  0
  6  7  1  0
  6  8  2  0
  1  9  1  0
  3 10  1  0
  3 11  1  0
  5 12  1  0
  5 13  1  0
  7 14  1  0
  7 15  1  0
  7 16  1  0
M  END
