
     RDKit          3D

 21 21  0  0  0  0  0  0  0  0999 V2000
    2.4365    0.6067   -1.0717 C   0  0  0  0  0  0  0  0  0  0  0  0
    1.5144    0.1410   -0.4752 C   0  0  0  0  0  0  0  0  0  0  0  0
    0.3859   -0.4027    0.2402 C   0  0  0  0  0  0  0  0  0  0  0  0
    0.6171   -0.1449    1.7303 C   0  0  0  0  0  0  0  0  0  0  0  0
    0.3349   -1.9079    0.0660 C   0  0  0  0  0  0  0  0  0  0  0  0
   -0.9319    0.1798   -0.2104 C   0  0  0  0  0  0  0  0  0  0  0  0
   -2.0477   -0.3229    0.4601 O   0  0  0  0  0  0  0  0  0  0  0  0
   -0.9945    1.6895   -0.4468 C   0  0  0  0  0  0  0  0  0  0  0  0
   -1.1539    0.6715   -1.5675 C   0  0  0  0  0  0  0  0  0  0  0  0
    3.2594    1.0382   -1.6224 H   0  0  0  0  0  0  0  0  0  0  0  0
   -0.1034   -0.7234    2.3398 H   0  0  0  0  0  0  0  0  0  0  0  0
    0.5369    0.9432    1.9593 H   0  0  0  0  0  0  0  0  0  0  0  0
    1.6516   -0.5073    1.9409 H   0  0  0  0  0  0  0  0  0  0  0  0
    1.3013   -2.3246   -0.2485 H   0  0  0  0  0  0  0  0  0  0  0  0
    0.0366   -2.3858    1.0248 H   0  0  0  0  0  0  0  0  0  0  0  0
   -0.4637   -2.1503   -0.6812 H   0  0  0  0  0  0  0  0  0  0  0  0
   -1.9206   -0.0924    1.4271 H   0  0  0  0  0  0  0  0  0  0  0  0
   -0.0325    2.2503   -0.4502 H   0  0  0  0  0  0  0  0  0  0  0  0
   -1.8922    2.2371   -0.0953 H   0  0  0  0  0  0  0  0  0  0  0  0
   -0.3529    0.5924   -2.3220 H   0  0  0  0  0  0  0  0  0  0  0  0
   -2.1812    0.6126   -1.9972 H   0  0  0  0  0  0  0  0  0  0  0  0
  1  2  3  0
  2  3  1  0
  3  4  1  0
  3  5  1  0
  3  6  1  0
  6  7  1  0
  6  8  1  0
  8  9  1  0
  9  6  1  0
  1 10  1  0
  4 11  1  0
  4 12  1  0
  4 13  1  0
  5 14  1  0
  5 15  1  0
  5 16  1  0
  7 17  1  0
  8 18  1  0
  8 19  1  0
  9 20  1  0
  9 21  1  0
M  END
