
     RDKit          3D

 19 18  0  0  0  0  0  0  0  0999 V2000
   -2.8278    0.1930    0.6496 C   0  0  0  0  0  0  0  0  0  0  0  0
   -1.8086   -0.4611    0.8780 C   0  0  0  0  0  0  0  0  0  0  0  0
   -0.6198   -1.2542    1.1459 C   0  0  0  0  0  0  0  0  0  0  0  0
    0.2884   -1.2936   -0.0238 C   0  0  0  0  0  0  0  0  0  0  0  0
    1.3956   -2.1723    0.3553 O   0  0  0  0  0  0  0  0  0  0  0  0
    1.0087   -0.0408   -0.3881 C   0  0  0  0  0  0  0  0  0  0  0  0
    0.1146    1.0900   -0.6996 C   0  0  0  0  0  0  0  0  0  0  0  0
    0.8777    2.3076   -1.1280 C   0  0  0  0  0  0  0  0  0  0  0  0
    2.0859    2.2834   -1.1851 O   0  0  0  0  0  0  0  0  0  0  0  0
   -3.6942    0.7630    0.4395 H   0  0  0  0  0  0  0  0  0  0  0  0
   -0.9173   -2.3317    1.3439 H   0  0  0  0  0  0  0  0  0  0  0  0
   -0.1020   -0.8559    2.0760 H   0  0  0  0  0  0  0  0  0  0  0  0
   -0.2024   -1.8058   -0.8667 H   0  0  0  0  0  0  0  0  0  0  0  0
    1.6702   -1.8795    1.2681 H   0  0  0  0  0  0  0  0  0  0  0  0
    1.7414   -0.2358   -1.2284 H   0  0  0  0  0  0  0  0  0  0  0  0
    1.7042    0.2758    0.4518 H   0  0  0  0  0  0  0  0  0  0  0  0
   -0.3914    1.4085    0.2594 H   0  0  0  0  0  0  0  0  0  0  0  0
   -0.6584    0.8115   -1.4105 H   0  0  0  0  0  0  0  0  0  0  0  0
    0.3352    3.1979   -1.3825 H   0  0  0  0  0  0  0  0  0  0  0  0
  1  2  3  0
  2  3  1  0
  3  4  1  0
  4  5  1  0
  4  6  1  0
  6  7  1  0
  7  8  1  0
  8  9  2  0
  1 10  1  0
  3 11  1  0
  3 12  1  0
  4 13  1  0
  5 14  1  0
  6 15  1  0
  6 16  1  0
  7 17  1  0
  7 18  1  0
  8 19  1  0
M  END
