
     RDKit          3D

 20 19  0  0  0  0  0  0  0  0999 V2000
    1.0748    1.9110    2.0941 C   0  0  0  0  0  0  0  0  0  0  0  0
    1.2782    0.7753    1.1763 C   0  0  0  0  0  0  0  0  0  0  0  0
    1.4710   -0.2305    0.3761 C   0  0  0  0  0  0  0  0  0  0  0  0
    2.6734   -1.0062    0.3963 C   0  0  0  0  0  0  0  0  0  0  0  0
    0.1615   -0.8629    0.1341 O   0  0  0  0  0  0  0  0  0  0  0  0
   -0.3986    0.0344   -0.7809 C   0  0  0  0  0  0  0  0  0  0  0  0
   -1.7412   -0.2878   -1.3191 C   0  0  0  0  0  0  0  0  0  0  0  0
   -2.9096   -0.1355   -0.3856 C   0  0  0  0  0  0  0  0  0  0  0  0
    0.9482    2.6213    2.6474 H   0  0  0  0  0  0  0  0  0  0  0  0
    1.5574    0.3460   -0.7519 H   0  0  0  0  0  0  0  0  0  0  0  0
    3.1327   -1.4998   -0.4587 H   0  0  0  0  0  0  0  0  0  0  0  0
    3.4851   -0.0742    0.5721 H   0  0  0  0  0  0  0  0  0  0  0  0
    2.9254   -1.5525    1.3449 H   0  0  0  0  0  0  0  0  0  0  0  0
   -0.5298    0.9878   -0.0413 H   0  0  0  0  0  0  0  0  0  0  0  0
    0.3079    0.4271   -1.5233 H   0  0  0  0  0  0  0  0  0  0  0  0
   -1.7657   -1.4289   -1.4931 H   0  0  0  0  0  0  0  0  0  0  0  0
   -1.9890    0.1475   -2.3115 H   0  0  0  0  0  0  0  0  0  0  0  0
   -2.5783    0.1468    0.6519 H   0  0  0  0  0  0  0  0  0  0  0  0
   -3.5060    0.7198   -0.8346 H   0  0  0  0  0  0  0  0  0  0  0  0
   -3.5974   -1.0389   -0.4065 H   0  0  0  0  0  0  0  0  0  0  0  0
  1  2  3  0
  2  3  1  0
  3  4  1  0
  3  5  1  0
  5  6  1  0
  6  7  1  0
  7  8  1  0
  1  9  1  0
  3 10  1  0
  4 11  1  0
  4 12  1  0
  4 13  1  0
  6 14  1  0
  6 15  1  0
  7 16  1  0
  7 17  1  0
  8 18  1  0
  8 19  1  0
  8 20  1  0
M  END
