
     RDKit          3D

 15 14  0  0  0  0  0  0  0  0999 V2000
    3.2005    0.3480   -2.0326 C   0  0  0  0  0  0  0  0  0  0  0  0
    2.2359   -0.2783   -1.5208 C   0  0  0  0  0  0  0  0  0  0  0  0
    1.1821   -0.9715   -0.9348 C   0  0  0  0  0  0  0  0  0  0  0  0
    0.2126   -0.2227   -0.3149 O   0  0  0  0  0  0  0  0  0  0  0  0
   -0.5292   -0.6320    0.6509 C   0  0  0  0  0  0  0  0  0  0  0  0
   -0.3399   -1.8736    1.2105 O   0  0  0  0  0  0  0  0  0  0  0  0
   -1.6851   -0.0895    1.4779 C   0  0  0  0  0  0  0  0  0  0  0  0
   -2.0371    1.2680    1.2154 C   0  0  0  0  0  0  0  0  0  0  0  0
   -2.3189    2.2993    1.0026 C   0  0  0  0  0  0  0  0  0  0  0  0
    4.1715    0.9750   -2.5510 H   0  0  0  0  0  0  0  0  0  0  0  0
    1.6636   -1.7203   -0.1874 H   0  0  0  0  0  0  0  0  0  0  0  0
    0.6947   -1.6694   -1.7275 H   0  0  0  0  0  0  0  0  0  0  0  0
   -1.3088   -0.1433    2.5712 H   0  0  0  0  0  0  0  0  0  0  0  0
   -2.5116   -0.8114    1.3157 H   0  0  0  0  0  0  0  0  0  0  0  0
   -2.6305    3.5214    0.7500 H   0  0  0  0  0  0  0  0  0  0  0  0
  1  2  3  0
  2  3  1  0
  3  4  1  0
  4  5  1  0
  5  6  2  0
  5  7  1  0
  7  8  1  0
  8  9  3  0
  1 10  1  0
  3 11  1  0
  3 12  1  0
  7 13  1  0
  7 14  1  0
  9 15  1  0
M  END
