
     RDKit          3D

 19 18  0  0  0  0  0  0  0  0999 V2000
    3.3125   -0.8257    0.9744 C   0  0  0  0  0  0  0  0  0  0  0  0
    2.6157   -0.8847   -0.1039 C   0  0  0  0  0  0  0  0  0  0  0  0
    1.4523   -0.9604   -1.8485 C   0  0  0  0  0  0  0  0  0  0  0  0
    0.2313   -1.3850   -0.5101 O   0  0  0  0  0  0  0  0  0  0  0  0
   -0.3574   -0.4071   -0.0875 C   0  0  0  0  0  0  0  0  0  0  0  0
   -0.5001    0.5584   -1.3919 C   0  0  0  0  0  0  0  0  0  0  0  0
   -0.6044    1.4041   -2.5244 C   0  0  0  0  0  0  0  0  0  0  0  0
   -1.3469    0.1037    0.6868 C   0  0  0  0  0  0  0  0  0  0  0  0
   -1.7097    0.1894    2.1278 C   0  0  0  0  0  0  0  0  0  0  0  0
    3.6209   -0.7977    1.4707 H   0  0  0  0  0  0  0  0  0  0  0  0
    1.2876   -0.0982   -1.8988 H   0  0  0  0  0  0  0  0  0  0  0  0
    1.5946   -1.9697   -1.8453 H   0  0  0  0  0  0  0  0  0  0  0  0
    0.5745    0.5370    0.3028 H   0  0  0  0  0  0  0  0  0  0  0  0
   -0.6711    2.0517   -3.4125 H   0  0  0  0  0  0  0  0  0  0  0  0
   -1.5566    1.3068    0.3105 H   0  0  0  0  0  0  0  0  0  0  0  0
   -2.3548   -0.2540    0.0990 H   0  0  0  0  0  0  0  0  0  0  0  0
   -1.7854    1.4349    2.3891 H   0  0  0  0  0  0  0  0  0  0  0  0
   -2.8030   -0.0345    2.3482 H   0  0  0  0  0  0  0  0  0  0  0  0
   -1.0001    0.0310    2.9137 H   0  0  0  0  0  0  0  0  0  0  0  0
  1  2  3  0
  2  3  1  0
  3  4  1  0
  4  5  1  0
  5  6  1  0
  6  7  3  0
  5  8  1  0
  8  9  1  0
  1 10  1  0
  3 11  1  0
  3 12  1  0
  5 13  1  0
  7 14  1  0
  8 15  1  0
  8 16  1  0
  9 17  1  0
  9 18  1  0
  9 19  1  0
M  END
