
     RDKit          3D

 17 17  0  0  0  0  0  0  0  0999 V2000
    2.7711   -0.5569   -1.1046 C   0  0  0  0  0  0  0  0  0  0  0  0
    1.7531   -0.5454   -0.4520 C   0  0  0  0  0  0  0  0  0  0  0  0
    0.5253   -0.5275    0.3451 C   0  0  0  0  0  0  0  0  0  0  0  0
   -0.6158   -1.0525   -0.4784 C   0  0  0  0  0  0  0  0  0  0  0  0
   -1.4808   -1.8632    0.2391 O   0  0  0  0  0  0  0  0  0  0  0  0
   -1.3471    0.1813   -0.8490 C   0  0  0  0  0  0  0  0  0  0  0  0
   -0.9255    1.2504   -0.2191 C   0  0  0  0  0  0  0  0  0  0  0  0
    0.1872    0.8949    0.7006 C   0  0  0  0  0  0  0  0  0  0  0  0
   -0.2576    0.9540    2.0280 O   0  0  0  0  0  0  0  0  0  0  0  0
    3.6689   -0.5568   -1.6926 H   0  0  0  0  0  0  0  0  0  0  0  0
    0.7157   -1.1355    1.2501 H   0  0  0  0  0  0  0  0  0  0  0  0
   -0.2956   -1.5928   -1.3797 H   0  0  0  0  0  0  0  0  0  0  0  0
   -2.2083   -1.3793    0.6835 H   0  0  0  0  0  0  0  0  0  0  0  0
   -2.1593    0.1898   -1.5791 H   0  0  0  0  0  0  0  0  0  0  0  0
   -1.3428    2.2668   -0.3579 H   0  0  0  0  0  0  0  0  0  0  0  0
    1.0628    1.5822    0.5380 H   0  0  0  0  0  0  0  0  0  0  0  0
   -0.0513    1.8907    2.3280 H   0  0  0  0  0  0  0  0  0  0  0  0
  1  2  3  0
  2  3  1  0
  3  4  1  0
  4  5  1  0
  4  6  1  0
  6  7  2  0
  7  8  1  0
  8  9  1  0
  8  3  1  0
  1 10  1  0
  3 11  1  0
  4 12  1  0
  5 13  1  0
  6 14  1  0
  7 15  1  0
  8 16  1  0
  9 17  1  0
M  END
