
     RDKit          3D

  9  8  0  0  0  0  0  0  0  0999 V2000
    3.1341   -0.3727    0.1310 C   0  0  0  0  0  0  0  0  0  0  0  0
    2.1887   -0.2001    0.0047 C   0  0  0  0  0  0  0  0  0  0  0  0
    0.5749    0.0945   -0.2370 C   0  0  0  0  0  0  0  0  0  0  0  0
   -0.6760    0.3148   -0.4130 C   0  0  0  0  0  0  0  0  0  0  0  0
   -2.1821    0.5760   -0.5984 C   0  0  0  0  0  0  0  0  0  0  0  0
    4.2705   -0.5973    0.2871 H   0  0  0  0  0  0  0  0  0  0  0  0
   -2.6390    0.7506    0.2352 H   0  0  0  0  0  0  0  0  0  0  0  0
   -2.3684    0.2472   -1.6750 H   0  0  0  0  0  0  0  0  0  0  0  0
   -2.3027   -0.8129   -0.3804 H   0  0  0  0  0  0  0  0  0  0  0  0
  1  2  3  0
  2  3  1  0
  3  4  3  0
  4  5  1  0
  1  6  1  0
  5  7  1  0
  5  8  1  0
  5  9  1  0
M  END
