
     RDKit          3D

 17 16  0  0  0  0  0  0  0  0999 V2000
   -3.2111   -0.1759   -1.1037 C   0  0  0  0  0  0  0  0  0  0  0  0
   -2.3641    0.1974   -0.4691 C   0  0  0  0  0  0  0  0  0  0  0  0
   -1.3694    0.6604    0.2897 C   0  0  0  0  0  0  0  0  0  0  0  0
   -0.5868    1.7743   -0.0080 O   0  0  0  0  0  0  0  0  0  0  0  0
   -0.4015   -0.4803    0.8859 C   0  0  0  0  0  0  0  0  0  0  0  0
   -0.0887    0.1908    2.2781 O   0  0  0  0  0  0  0  0  0  0  0  0
    0.9310   -0.4698    0.2456 C   0  0  0  0  0  0  0  0  0  0  0  0
    1.9302   -0.4526   -0.2383 C   0  0  0  0  0  0  0  0  0  0  0  0
    3.1906   -0.4131   -0.8299 C   0  0  0  0  0  0  0  0  0  0  0  0
   -4.1249   -0.5854   -1.7717 H   0  0  0  0  0  0  0  0  0  0  0  0
   -1.9180    1.0583    1.3468 H   0  0  0  0  0  0  0  0  0  0  0  0
   -1.4003    2.5017   -0.1852 H   0  0  0  0  0  0  0  0  0  0  0  0
   -0.7999   -1.3397    1.1500 H   0  0  0  0  0  0  0  0  0  0  0  0
   -0.9125    0.0023    2.8413 H   0  0  0  0  0  0  0  0  0  0  0  0
    3.4100   -1.3039   -1.7202 H   0  0  0  0  0  0  0  0  0  0  0  0
    3.9267    0.2626   -0.8497 H   0  0  0  0  0  0  0  0  0  0  0  0
    3.7883   -1.4272   -0.1047 H   0  0  0  0  0  0  0  0  0  0  0  0
  1  2  3  0
  2  3  1  0
  3  4  1  0
  3  5  1  0
  5  6  1  0
  5  7  1  0
  7  8  3  0
  8  9  1  0
  1 10  1  0
  3 11  1  0
  4 12  1  0
  5 13  1  0
  6 14  1  0
  9 15  1  0
  9 16  1  0
  9 17  1  0
M  END
