
     RDKit          3D

 23 22  0  0  0  0  0  0  0  0999 V2000
   -0.6518    2.5017   -1.8936 C   0  0  0  0  0  0  0  0  0  0  0  0
   -0.5510    1.6688   -1.0501 C   0  0  0  0  0  0  0  0  0  0  0  0
   -0.4586    0.7493   -0.1023 C   0  0  0  0  0  0  0  0  0  0  0  0
   -0.8463    0.8806    1.2909 C   0  0  0  0  0  0  0  0  0  0  0  0
   -2.3107    1.2970    1.5245 C   0  0  0  0  0  0  0  0  0  0  0  0
    0.4802   -0.4137   -0.4915 C   0  0  0  0  0  0  0  0  0  0  0  0
    1.8753    0.1515   -0.6307 O   0  0  0  0  0  0  0  0  0  0  0  0
    0.6357   -1.6788    0.1532 C   0  0  0  0  0  0  0  0  0  0  0  0
    1.6659   -2.4974   -0.6510 C   0  0  0  0  0  0  0  0  0  0  0  0
   -0.7371    3.3619   -2.7691 H   0  0  0  0  0  0  0  0  0  0  0  0
    0.7590    1.4285    0.2617 H   0  0  0  0  0  0  0  0  0  0  0  0
   -0.2285    1.5613    1.8939 H   0  0  0  0  0  0  0  0  0  0  0  0
   -0.7027   -0.1474    1.8034 H   0  0  0  0  0  0  0  0  0  0  0  0
   -2.3751    1.8753    2.4526 H   0  0  0  0  0  0  0  0  0  0  0  0
   -2.7022    1.8389    0.6455 H   0  0  0  0  0  0  0  0  0  0  0  0
   -2.9631    0.3882    1.6221 H   0  0  0  0  0  0  0  0  0  0  0  0
    0.3278   -0.5480   -1.6234 H   0  0  0  0  0  0  0  0  0  0  0  0
    2.2951   -0.4976   -1.2952 H   0  0  0  0  0  0  0  0  0  0  0  0
   -0.2546   -2.2877    0.2370 H   0  0  0  0  0  0  0  0  0  0  0  0
    1.1628   -1.5484    1.1545 H   0  0  0  0  0  0  0  0  0  0  0  0
    1.4145   -2.3133   -1.7207 H   0  0  0  0  0  0  0  0  0  0  0  0
    2.6663   -2.2037   -0.3725 H   0  0  0  0  0  0  0  0  0  0  0  0
    1.4990   -3.5669   -0.4394 H   0  0  0  0  0  0  0  0  0  0  0  0
  1  2  3  0
  2  3  1  0
  3  4  1  0
  4  5  1  0
  3  6  1  0
  6  7  1  0
  6  8  1  0
  8  9  1  0
  1 10  1  0
  3 11  1  0
  4 12  1  0
  4 13  1  0
  5 14  1  0
  5 15  1  0
  5 16  1  0
  6 17  1  0
  7 18  1  0
  8 19  1  0
  8 20  1  0
  9 21  1  0
  9 22  1  0
  9 23  1  0
M  END
