
     RDKit          3D

 15 15  0  0  0  0  0  0  0  0999 V2000
    4.7533    0.7004    0.0262 C   0  0  0  0  0  0  0  0  0  0  0  0
    3.5683    0.4875    0.1224 C   0  0  0  0  0  0  0  0  0  0  0  0
    2.1804    0.2450    0.2538 C   0  0  0  0  0  0  0  0  0  0  0  0
    0.9833    0.0491    0.3502 C   0  0  0  0  0  0  0  0  0  0  0  0
   -0.4492   -0.1640    0.4658 C   0  0  0  0  0  0  0  0  0  0  0  0
   -1.2344    0.8538   -0.3021 C   0  0  0  0  0  0  0  0  0  0  0  0
   -2.3174    0.2301   -0.7444 C   0  0  0  0  0  0  0  0  0  0  0  0
   -2.2227   -1.1765   -0.2611 C   0  0  0  0  0  0  0  0  0  0  0  0
   -0.8350   -1.3387   -0.1687 O   0  0  0  0  0  0  0  0  0  0  0  0
    5.8052    0.8838   -0.0744 H   0  0  0  0  0  0  0  0  0  0  0  0
   -0.7755   -0.1972    1.5334 H   0  0  0  0  0  0  0  0  0  0  0  0
   -0.9627    1.8817   -0.4564 H   0  0  0  0  0  0  0  0  0  0  0  0
   -3.1104    0.6477   -1.3343 H   0  0  0  0  0  0  0  0  0  0  0  0
   -2.7054   -1.2502    0.7434 H   0  0  0  0  0  0  0  0  0  0  0  0
   -2.6778   -1.8525   -1.0080 H   0  0  0  0  0  0  0  0  0  0  0  0
  1  2  3  0
  2  3  1  0
  3  4  3  0
  4  5  1  0
  5  6  1  0
  6  7  2  0
  7  8  1  0
  8  9  1  0
  9  5  1  0
  1 10  1  0
  5 11  1  0
  6 12  1  0
  7 13  1  0
  8 14  1  0
  8 15  1  0
M  END
