
     RDKit          3D

 17 18  0  0  0  0  0  0  0  0999 V2000
    2.4685   -1.7378   -0.9703 C   0  0  0  0  0  0  0  0  0  0  0  0
    1.5623   -1.0980   -0.4524 C   0  0  0  0  0  0  0  0  0  0  0  0
    0.4827   -0.3136    0.1507 C   0  0  0  0  0  0  0  0  0  0  0  0
   -0.6878   -1.0317    0.7338 C   0  0  0  0  0  0  0  0  0  0  0  0
   -1.8815   -0.4075    0.1123 C   0  0  0  0  0  0  0  0  0  0  0  0
   -1.5512    0.5913   -0.6816 C   0  0  0  0  0  0  0  0  0  0  0  0
   -0.0922    0.8085   -0.7301 C   0  0  0  0  0  0  0  0  0  0  0  0
    0.7118    1.1158    0.4560 C   0  0  0  0  0  0  0  0  0  0  0  0
    0.0517    1.7098    1.5237 O   0  0  0  0  0  0  0  0  0  0  0  0
    3.2620   -2.2774   -1.4198 H   0  0  0  0  0  0  0  0  0  0  0  0
   -0.6525   -2.1115    0.4758 H   0  0  0  0  0  0  0  0  0  0  0  0
   -0.7628   -0.8904    1.8342 H   0  0  0  0  0  0  0  0  0  0  0  0
   -2.8921   -0.7359    0.2924 H   0  0  0  0  0  0  0  0  0  0  0  0
   -2.2599    1.1927   -1.2410 H   0  0  0  0  0  0  0  0  0  0  0  0
    0.3746    0.9349   -1.7400 H   0  0  0  0  0  0  0  0  0  0  0  0
    1.7157    1.5461    0.2723 H   0  0  0  0  0  0  0  0  0  0  0  0
    0.1506    2.7047    1.3840 H   0  0  0  0  0  0  0  0  0  0  0  0
  1  2  3  0
  2  3  1  0
  3  4  1  0
  4  5  1  0
  5  6  2  0
  6  7  1  0
  7  8  1  0
  8  9  1  0
  7  3  1  0
  8  3  1  0
  1 10  1  0
  4 11  1  0
  4 12  1  0
  5 13  1  0
  6 14  1  0
  7 15  1  0
  8 16  1  0
  9 17  1  0
M  END
