
     RDKit          3D

 19 18  0  0  0  0  0  0  0  0999 V2000
    2.7602   -0.4650    1.1048 C   0  0  0  0  0  0  0  0  0  0  0  0
    1.9229   -0.0163    0.3508 C   0  0  0  0  0  0  0  0  0  0  0  0
    0.8993    0.5436   -0.5450 C   0  0  0  0  0  0  0  0  0  0  0  0
    0.8098    1.9331   -0.4165 O   0  0  0  0  0  0  0  0  0  0  0  0
   -0.4277   -0.0517   -0.1209 C   0  0  0  0  0  0  0  0  0  0  0  0
   -1.4943    0.4972   -1.0129 C   0  0  0  0  0  0  0  0  0  0  0  0
   -0.3566   -1.5687   -0.1516 C   0  0  0  0  0  0  0  0  0  0  0  0
   -0.7181    0.3407    1.2867 C   0  0  0  0  0  0  0  0  0  0  0  0
    0.1868    0.5093    2.0841 O   0  0  0  0  0  0  0  0  0  0  0  0
    3.4899   -0.8423    1.7736 H   0  0  0  0  0  0  0  0  0  0  0  0
    1.0985    0.2288   -1.5774 H   0  0  0  0  0  0  0  0  0  0  0  0
   -0.1132    2.2087   -0.2099 H   0  0  0  0  0  0  0  0  0  0  0  0
   -2.0508    1.3210   -0.4900 H   0  0  0  0  0  0  0  0  0  0  0  0
   -2.2745   -0.2700   -1.2583 H   0  0  0  0  0  0  0  0  0  0  0  0
   -1.0668    0.9163   -1.9313 H   0  0  0  0  0  0  0  0  0  0  0  0
   -1.3675   -1.9789   -0.0656 H   0  0  0  0  0  0  0  0  0  0  0  0
    0.2912   -1.8664    0.6985 H   0  0  0  0  0  0  0  0  0  0  0  0
    0.1720   -1.9047   -1.0753 H   0  0  0  0  0  0  0  0  0  0  0  0
   -1.7612    0.4653    1.5562 H   0  0  0  0  0  0  0  0  0  0  0  0
  1  2  3  0
  2  3  1  0
  3  4  1  0
  3  5  1  0
  5  6  1  0
  5  7  1  0
  5  8  1  0
  8  9  2  0
  1 10  1  0
  3 11  1  0
  4 12  1  0
  6 13  1  0
  6 14  1  0
  6 15  1  0
  7 16  1  0
  7 17  1  0
  7 18  1  0
  8 19  1  0
M  END
