
     RDKit          3D

 19 20  0  0  0  0  0  0  0  0999 V2000
    2.1391    1.7737    0.0809 C   0  0  0  0  0  0  0  0  0  0  0  0
    1.3851    0.8469    0.1286 C   0  0  0  0  0  0  0  0  0  0  0  0
    0.4538   -0.2622    0.1981 C   0  0  0  0  0  0  0  0  0  0  0  0
    1.1241   -1.5783    0.5186 C   0  0  0  0  0  0  0  0  0  0  0  0
   -0.5917    0.0042    1.2578 C   0  0  0  0  0  0  0  0  0  0  0  0
   -1.6203    0.8206    0.5482 C   0  0  0  0  0  0  0  0  0  0  0  0
   -2.6042    0.0541   -0.1018 O   0  0  0  0  0  0  0  0  0  0  0  0
   -1.5703    0.4460   -0.9171 C   0  0  0  0  0  0  0  0  0  0  0  0
   -0.3395   -0.3972   -1.0749 C   0  0  0  0  0  0  0  0  0  0  0  0
    2.8236    2.6054    0.0461 H   0  0  0  0  0  0  0  0  0  0  0  0
    0.6756   -2.4111   -0.0852 H   0  0  0  0  0  0  0  0  0  0  0  0
    2.1887   -1.5402    0.2211 H   0  0  0  0  0  0  0  0  0  0  0  0
    1.0189   -1.7833    1.6209 H   0  0  0  0  0  0  0  0  0  0  0  0
   -0.1698    0.6370    2.0767 H   0  0  0  0  0  0  0  0  0  0  0  0
   -0.9840   -0.9314    1.7018 H   0  0  0  0  0  0  0  0  0  0  0  0
   -1.8835    1.8334    0.8569 H   0  0  0  0  0  0  0  0  0  0  0  0
   -1.7962    1.2412   -1.6496 H   0  0  0  0  0  0  0  0  0  0  0  0
    0.2765    0.0720   -1.8922 H   0  0  0  0  0  0  0  0  0  0  0  0
   -0.5259   -1.4308   -1.3657 H   0  0  0  0  0  0  0  0  0  0  0  0
  1  2  3  0
  2  3  1  0
  3  4  1  0
  3  5  1  0
  5  6  1  0
  6  7  1  0
  7  8  1  0
  8  9  1  0
  9  3  1  0
  8  6  1  0
  1 10  1  0
  4 11  1  0
  4 12  1  0
  4 13  1  0
  5 14  1  0
  5 15  1  0
  6 16  1  0
  8 17  1  0
  9 18  1  0
  9 19  1  0
M  END
