
     RDKit          3D

 21 21  0  0  0  0  0  0  0  0999 V2000
    4.0376    0.2720   -2.2369 C   0  0  0  0  0  0  0  0  0  0  0  0
    3.1868   -0.1650   -1.2103 C   0  0  0  0  0  0  0  0  0  0  0  0
    2.4076   -0.5454   -0.2722 C   0  0  0  0  0  0  0  0  0  0  0  0
    1.1228    0.3370   -0.3459 O   0  0  0  0  0  0  0  0  0  0  0  0
    0.2307   -0.3462    0.5074 C   0  0  0  0  0  0  0  0  0  0  0  0
   -1.1671    0.2730    0.3784 C   0  0  0  0  0  0  0  0  0  0  0  0
   -1.7441    0.2027   -1.0486 C   0  0  0  0  0  0  0  0  0  0  0  0
   -2.2081   -0.3657    1.3219 C   0  0  0  0  0  0  0  0  0  0  0  0
   -1.7472    1.0945    1.3990 C   0  0  0  0  0  0  0  0  0  0  0  0
    4.6546    0.6018   -2.9861 H   0  0  0  0  0  0  0  0  0  0  0  0
    2.7172   -0.0605    0.7781 H   0  0  0  0  0  0  0  0  0  0  0  0
    2.0490   -1.5177   -0.1180 H   0  0  0  0  0  0  0  0  0  0  0  0
    0.5688   -0.4152    1.5203 H   0  0  0  0  0  0  0  0  0  0  0  0
    0.1665   -1.3930    0.0924 H   0  0  0  0  0  0  0  0  0  0  0  0
   -1.4340   -0.7935   -1.4485 H   0  0  0  0  0  0  0  0  0  0  0  0
   -1.2718    0.9355   -1.7103 H   0  0  0  0  0  0  0  0  0  0  0  0
   -2.8333    0.2806   -1.0801 H   0  0  0  0  0  0  0  0  0  0  0  0
   -1.8414   -1.1086    2.0533 H   0  0  0  0  0  0  0  0  0  0  0  0
   -3.2383   -0.4546    1.0046 H   0  0  0  0  0  0  0  0  0  0  0  0
   -2.4707    1.8916    1.0876 H   0  0  0  0  0  0  0  0  0  0  0  0
   -1.1857    1.2767    2.3141 H   0  0  0  0  0  0  0  0  0  0  0  0
  1  2  3  0
  2  3  1  0
  3  4  1  0
  4  5  1  0
  5  6  1  0
  6  7  1  0
  6  8  1  0
  8  9  1  0
  9  6  1  0
  1 10  1  0
  3 11  1  0
  3 12  1  0
  5 13  1  0
  5 14  1  0
  7 15  1  0
  7 16  1  0
  7 17  1  0
  8 18  1  0
  8 19  1  0
  9 20  1  0
  9 21  1  0
M  END
