
     RDKit          3D

 17 18  0  0  0  0  0  0  0  0999 V2000
    1.9233   -1.0543    1.8945 C   0  0  0  0  0  0  0  0  0  0  0  0
    1.3400   -0.3065    1.1915 C   0  0  0  0  0  0  0  0  0  0  0  0
    0.6265    0.6171    0.3314 C   0  0  0  0  0  0  0  0  0  0  0  0
    1.2344    0.7604   -1.0647 C   0  0  0  0  0  0  0  0  0  0  0  0
    0.0196    0.5280   -1.6727 O   0  0  0  0  0  0  0  0  0  0  0  0
   -0.4912    0.1404   -0.4590 C   0  0  0  0  0  0  0  0  0  0  0  0
   -1.8278    0.6546   -0.0672 C   0  0  0  0  0  0  0  0  0  0  0  0
   -2.3495   -0.6194   -0.3391 O   0  0  0  0  0  0  0  0  0  0  0  0
   -1.0582   -1.2018   -0.3141 C   0  0  0  0  0  0  0  0  0  0  0  0
    2.4382   -1.7228    2.5417 H   0  0  0  0  0  0  0  0  0  0  0  0
    0.5634    1.6230    0.7967 H   0  0  0  0  0  0  0  0  0  0  0  0
    1.5946    1.7793   -1.3034 H   0  0  0  0  0  0  0  0  0  0  0  0
    1.9916   -0.0220   -1.2224 H   0  0  0  0  0  0  0  0  0  0  0  0
   -1.9345    0.9393    1.0027 H   0  0  0  0  0  0  0  0  0  0  0  0
   -2.2500    1.4654   -0.6910 H   0  0  0  0  0  0  0  0  0  0  0  0
   -0.9544   -1.8079   -1.2385 H   0  0  0  0  0  0  0  0  0  0  0  0
   -0.8663   -1.7729    0.6134 H   0  0  0  0  0  0  0  0  0  0  0  0
  1  2  3  0
  2  3  1  0
  3  4  1  0
  4  5  1  0
  5  6  1  0
  6  7  1  0
  7  8  1  0
  8  9  1  0
  6  3  1  0
  9  6  1  0
  1 10  1  0
  3 11  1  0
  4 12  1  0
  4 13  1  0
  7 14  1  0
  7 15  1  0
  9 16  1  0
  9 17  1  0
M  END
