
     RDKit          3D

 21 21  0  0  0  0  0  0  0  0999 V2000
    2.2092   -1.0716   -2.1427 C   0  0  0  0  0  0  0  0  0  0  0  0
    1.0328   -0.6338   -1.5497 C   0  0  0  0  0  0  0  0  0  0  0  0
   -0.0686   -0.2195   -0.9881 C   0  0  0  0  0  0  0  0  0  0  0  0
   -0.4796    1.1845   -1.5036 C   0  0  0  0  0  0  0  0  0  0  0  0
   -0.0849   -0.2113    0.5494 C   0  0  0  0  0  0  0  0  0  0  0  0
    0.2100   -1.5093    1.1854 C   0  0  0  0  0  0  0  0  0  0  0  0
    0.3371    1.0481    1.2391 C   0  0  0  0  0  0  0  0  0  0  0  0
   -0.4912    0.6209    2.2861 O   0  0  0  0  0  0  0  0  0  0  0  0
   -1.3976    0.2947    1.1782 C   0  0  0  0  0  0  0  0  0  0  0  0
    3.0045   -1.3603   -2.5299 H   0  0  0  0  0  0  0  0  0  0  0  0
   -1.0094   -0.8146   -1.1765 H   0  0  0  0  0  0  0  0  0  0  0  0
    0.2887    1.9306   -1.1921 H   0  0  0  0  0  0  0  0  0  0  0  0
   -0.4000    1.1820   -2.6317 H   0  0  0  0  0  0  0  0  0  0  0  0
   -1.4667    1.4931   -1.2048 H   0  0  0  0  0  0  0  0  0  0  0  0
    1.1716   -1.9915    0.7967 H   0  0  0  0  0  0  0  0  0  0  0  0
    0.2891   -1.4632    2.2782 H   0  0  0  0  0  0  0  0  0  0  0  0
   -0.6743   -2.2698    0.9346 H   0  0  0  0  0  0  0  0  0  0  0  0
   -0.0502    1.9703    0.7207 H   0  0  0  0  0  0  0  0  0  0  0  0
    1.3694    1.1059    1.5369 H   0  0  0  0  0  0  0  0  0  0  0  0
   -1.7531    1.2609    0.8282 H   0  0  0  0  0  0  0  0  0  0  0  0
   -2.0369   -0.5460    1.3854 H   0  0  0  0  0  0  0  0  0  0  0  0
  1  2  3  0
  2  3  1  0
  3  4  1  0
  3  5  1  0
  5  6  1  0
  5  7  1  0
  7  8  1  0
  8  9  1  0
  9  5  1  0
  1 10  1  0
  3 11  1  0
  4 12  1  0
  4 13  1  0
  4 14  1  0
  6 15  1  0
  6 16  1  0
  6 17  1  0
  7 18  1  0
  7 19  1  0
  9 20  1  0
  9 21  1  0
M  END
