
     RDKit          3D

 17 17  0  0  0  0  0  0  0  0999 V2000
   -2.3437    0.6913   -1.0598 C   0  0  0  0  0  0  0  0  0  0  0  0
   -1.1802    0.6887   -1.0268 C   0  0  0  0  0  0  0  0  0  0  0  0
    0.3402    0.6904   -0.9574 C   0  0  0  0  0  0  0  0  0  0  0  0
    0.8272    1.2693    0.3269 C   0  0  0  0  0  0  0  0  0  0  0  0
    1.6900   -0.0542    0.4317 C   0  0  0  0  0  0  0  0  0  0  0  0
    2.7420   -0.0099    1.0660 O   0  0  0  0  0  0  0  0  0  0  0  0
    0.7000   -0.6751   -0.3433 C   0  0  0  0  0  0  0  0  0  0  0  0
   -0.4494   -1.3632    0.3898 C   0  0  0  0  0  0  0  0  0  0  0  0
   -0.9128   -0.5883    1.4400 O   0  0  0  0  0  0  0  0  0  0  0  0
   -3.4124    0.7109   -1.0842 H   0  0  0  0  0  0  0  0  0  0  0  0
    0.8429    0.9265   -1.8645 H   0  0  0  0  0  0  0  0  0  0  0  0
    1.4927    2.1441    0.1704 H   0  0  0  0  0  0  0  0  0  0  0  0
    0.1750    1.4075    1.1668 H   0  0  0  0  0  0  0  0  0  0  0  0
    1.0908   -1.3269   -1.1749 H   0  0  0  0  0  0  0  0  0  0  0  0
   -0.1409   -2.3717    0.7065 H   0  0  0  0  0  0  0  0  0  0  0  0
   -1.2519   -1.4504   -0.3578 H   0  0  0  0  0  0  0  0  0  0  0  0
   -0.2097   -0.6888    2.1704 H   0  0  0  0  0  0  0  0  0  0  0  0
  1  2  3  0
  2  3  1  0
  3  4  1  0
  4  5  1  0
  5  6  2  0
  5  7  1  0
  7  8  1  0
  8  9  1  0
  7  3  1  0
  1 10  1  0
  3 11  1  0
  4 12  1  0
  4 13  1  0
  7 14  1  0
  8 15  1  0
  8 16  1  0
  9 17  1  0
M  END
