
     RDKit          3D

 17 17  0  0  0  0  0  0  0  0999 V2000
    1.9957   -0.8847   -2.1577 C   0  0  0  0  0  0  0  0  0  0  0  0
    1.0796   -0.7684   -1.3514 C   0  0  0  0  0  0  0  0  0  0  0  0
   -0.0456   -0.6405   -0.3910 C   0  0  0  0  0  0  0  0  0  0  0  0
    0.2705   -1.5068    0.7445 C   0  0  0  0  0  0  0  0  0  0  0  0
    0.0175   -0.8930    1.8672 C   0  0  0  0  0  0  0  0  0  0  0  0
   -0.4933    0.4493    1.5800 C   0  0  0  0  0  0  0  0  0  0  0  0
   -1.1534    1.2270    2.2748 O   0  0  0  0  0  0  0  0  0  0  0  0
   -0.0333    0.7361    0.1731 C   0  0  0  0  0  0  0  0  0  0  0  0
   -1.1012    1.5497   -0.5436 C   0  0  0  0  0  0  0  0  0  0  0  0
    2.7704   -0.9827   -2.8635 H   0  0  0  0  0  0  0  0  0  0  0  0
   -1.0040   -0.9073   -0.8911 H   0  0  0  0  0  0  0  0  0  0  0  0
    0.6556   -2.5050    0.6635 H   0  0  0  0  0  0  0  0  0  0  0  0
    0.1521   -1.2852    2.8947 H   0  0  0  0  0  0  0  0  0  0  0  0
    0.9321    1.2326    0.1743 H   0  0  0  0  0  0  0  0  0  0  0  0
   -1.9476    0.8813   -0.7260 H   0  0  0  0  0  0  0  0  0  0  0  0
   -0.6824    1.8586   -1.5114 H   0  0  0  0  0  0  0  0  0  0  0  0
   -1.4128    2.4391    0.0635 H   0  0  0  0  0  0  0  0  0  0  0  0
  1  2  3  0
  2  3  1  0
  3  4  1  0
  4  5  2  0
  5  6  1  0
  6  7  2  0
  6  8  1  0
  8  9  1  0
  8  3  1  0
  1 10  1  0
  3 11  1  0
  4 12  1  0
  5 13  1  0
  8 14  1  0
  9 15  1  0
  9 16  1  0
  9 17  1  0
M  END
