
     RDKit          3D

 14 15  0  0  0  0  0  0  0  0999 V2000
    2.6543   -0.4912   -0.5938 C   0  0  0  0  0  0  0  0  0  0  0  0
    1.5491   -0.4227   -0.1258 C   0  0  0  0  0  0  0  0  0  0  0  0
    0.1855   -0.3376    0.4239 C   0  0  0  0  0  0  0  0  0  0  0  0
   -0.0544   -1.1831    1.4998 O   0  0  0  0  0  0  0  0  0  0  0  0
   -0.8463   -0.3793   -0.6646 C   0  0  0  0  0  0  0  0  0  0  0  0
   -1.3088    1.0036   -0.1805 C   0  0  0  0  0  0  0  0  0  0  0  0
   -1.5182    1.2113    1.1760 O   0  0  0  0  0  0  0  0  0  0  0  0
   -0.2493    1.1110    0.6382 C   0  0  0  0  0  0  0  0  0  0  0  0
    3.6419   -0.5642   -1.0277 H   0  0  0  0  0  0  0  0  0  0  0  0
   -0.5278   -1.9934    1.1715 H   0  0  0  0  0  0  0  0  0  0  0  0
   -0.4088   -0.3241   -1.6802 H   0  0  0  0  0  0  0  0  0  0  0  0
   -1.6647   -1.1139   -0.5579 H   0  0  0  0  0  0  0  0  0  0  0  0
   -1.9494    1.5941   -0.8267 H   0  0  0  0  0  0  0  0  0  0  0  0
    0.4969    1.8896    0.7478 H   0  0  0  0  0  0  0  0  0  0  0  0
  1  2  3  0
  2  3  1  0
  3  4  1  0
  3  5  1  0
  5  6  1  0
  6  7  1  0
  7  8  1  0
  8  3  1  0
  8  6  1  0
  1  9  1  0
  4 10  1  0
  5 11  1  0
  5 12  1  0
  6 13  1  0
  8 14  1  0
M  END
