
     RDKit          3D

 19 18  0  0  0  0  0  0  0  0999 V2000
    2.2150   -0.0859    1.2958 C   0  0  0  0  0  0  0  0  0  0  0  0
    1.5917    0.5378    0.4504 C   0  0  0  0  0  0  0  0  0  0  0  0
    0.8252    1.2700   -0.5568 C   0  0  0  0  0  0  0  0  0  0  0  0
   -0.5734    0.7250   -0.6569 C   0  0  0  0  0  0  0  0  0  0  0  0
   -1.3225    0.8307    0.6493 C   0  0  0  0  0  0  0  0  0  0  0  0
   -0.6717    0.1285    1.6265 O   0  0  0  0  0  0  0  0  0  0  0  0
   -0.5934   -0.6414   -1.2207 C   0  0  0  0  0  0  0  0  0  0  0  0
    0.1306   -1.7797   -0.5579 C   0  0  0  0  0  0  0  0  0  0  0  0
   -1.2155   -0.8384   -2.2486 O   0  0  0  0  0  0  0  0  0  0  0  0
    2.7675   -0.6164    2.0311 H   0  0  0  0  0  0  0  0  0  0  0  0
    1.3275    1.1440   -1.5283 H   0  0  0  0  0  0  0  0  0  0  0  0
    0.7785    2.3375   -0.2650 H   0  0  0  0  0  0  0  0  0  0  0  0
   -1.1044    1.4029   -1.3735 H   0  0  0  0  0  0  0  0  0  0  0  0
   -1.4189    1.8889    0.9615 H   0  0  0  0  0  0  0  0  0  0  0  0
   -2.3511    0.4668    0.4496 H   0  0  0  0  0  0  0  0  0  0  0  0
   -1.2843   -0.4447    2.1845 H   0  0  0  0  0  0  0  0  0  0  0  0
    1.1916   -1.7910   -0.8138 H   0  0  0  0  0  0  0  0  0  0  0  0
   -0.3043   -2.7289   -0.9511 H   0  0  0  0  0  0  0  0  0  0  0  0
    0.0120   -1.8058    0.5240 H   0  0  0  0  0  0  0  0  0  0  0  0
  1  2  3  0
  2  3  1  0
  3  4  1  0
  4  5  1  0
  5  6  1  0
  4  7  1  0
  7  8  1  0
  7  9  2  0
  1 10  1  0
  3 11  1  0
  3 12  1  0
  4 13  1  0
  5 14  1  0
  5 15  1  0
  6 16  1  0
  8 17  1  0
  8 18  1  0
  8 19  1  0
M  END
