
     RDKit          3D

 19 18  0  0  0  0  0  0  0  0999 V2000
    4.3678    0.0943    1.3493 C   0  0  0  0  0  0  0  0  0  0  0  0
    3.4960    0.1431    1.2215 C   0  0  0  0  0  0  0  0  0  0  0  0
    2.1479    0.2101    1.0407 C   0  0  0  0  0  0  0  0  0  0  0  0
    0.9595    0.2492    0.8828 C   0  0  0  0  0  0  0  0  0  0  0  0
   -0.6624    0.2823    0.6880 C   0  0  0  0  0  0  0  0  0  0  0  0
   -0.8367    0.5689   -0.6196 C   0  0  0  0  0  0  0  0  0  0  0  0
   -0.3797    1.9845   -0.9985 C   0  0  0  0  0  0  0  0  0  0  0  0
   -2.1344    0.2425   -0.9507 O   0  0  0  0  0  0  0  0  0  0  0  0
   -2.4608   -1.0285   -0.9221 C   0  0  0  0  0  0  0  0  0  0  0  0
    5.8113    0.0334    1.5478 H   0  0  0  0  0  0  0  0  0  0  0  0
   -0.9513    0.5897    1.7461 H   0  0  0  0  0  0  0  0  0  0  0  0
   -0.7650   -0.9593    0.9714 H   0  0  0  0  0  0  0  0  0  0  0  0
    0.0751   -0.1620   -1.0832 H   0  0  0  0  0  0  0  0  0  0  0  0
    0.7471    2.0562   -1.0444 H   0  0  0  0  0  0  0  0  0  0  0  0
   -0.9644    2.5525   -1.6683 H   0  0  0  0  0  0  0  0  0  0  0  0
   -0.5466    2.5676    0.0472 H   0  0  0  0  0  0  0  0  0  0  0  0
   -2.0324   -1.8573   -1.4617 H   0  0  0  0  0  0  0  0  0  0  0  0
   -3.5815   -1.2175   -1.0190 H   0  0  0  0  0  0  0  0  0  0  0  0
   -2.2896   -1.3166    0.2728 H   0  0  0  0  0  0  0  0  0  0  0  0
  1  2  3  0
  2  3  1  0
  3  4  3  0
  4  5  1  0
  5  6  1  0
  6  7  1  0
  6  8  1  0
  8  9  1  0
  1 10  1  0
  5 11  1  0
  5 12  1  0
  6 13  1  0
  7 14  1  0
  7 15  1  0
  7 16  1  0
  9 17  1  0
  9 18  1  0
  9 19  1  0
M  END
