
     RDKit          3D

 15 17  0  0  0  0  0  0  0  0999 V2000
    2.3859   -1.9678    1.7427 C   0  0  0  0  0  0  0  0  0  0  0  0
    1.5415   -1.2594    1.2576 C   0  0  0  0  0  0  0  0  0  0  0  0
    0.5332   -0.4102    0.6500 C   0  0  0  0  0  0  0  0  0  0  0  0
    0.1362    0.7582    1.1284 C   0  0  0  0  0  0  0  0  0  0  0  0
   -0.9084    1.3305    0.2372 C   0  0  0  0  0  0  0  0  0  0  0  0
   -0.6159    1.1820   -1.2117 C   0  0  0  0  0  0  0  0  0  0  0  0
    0.2343    0.1738   -1.6292 O   0  0  0  0  0  0  0  0  0  0  0  0
   -0.2095   -0.7017   -0.6096 C   0  0  0  0  0  0  0  0  0  0  0  0
   -1.4045    0.1665   -0.4923 C   0  0  0  0  0  0  0  0  0  0  0  0
    3.1457   -2.5897    2.1907 H   0  0  0  0  0  0  0  0  0  0  0  0
    0.5375    1.1973    2.0367 H   0  0  0  0  0  0  0  0  0  0  0  0
   -1.5332    2.1477    0.6049 H   0  0  0  0  0  0  0  0  0  0  0  0
   -1.1197    1.8212   -1.9661 H   0  0  0  0  0  0  0  0  0  0  0  0
   -0.3126   -1.7346   -0.8977 H   0  0  0  0  0  0  0  0  0  0  0  0
   -2.4104   -0.1139   -0.7051 H   0  0  0  0  0  0  0  0  0  0  0  0
  1  2  3  0
  2  3  1  0
  3  4  2  0
  4  5  1  0
  5  6  1  0
  6  7  1  0
  7  8  1  0
  8  9  1  0
  8  3  1  0
  9  5  1  0
  9  6  1  0
  1 10  1  0
  4 11  1  0
  5 12  1  0
  6 13  1  0
  8 14  1  0
  9 15  1  0
M  END
