
     RDKit          3D

 16 16  0  0  0  0  0  0  0  0999 V2000
    2.7304   -1.2138   -0.1807 C   0  0  0  0  0  0  0  0  0  0  0  0
    1.7853   -0.4756    0.0559 C   0  0  0  0  0  0  0  0  0  0  0  0
    0.6606    0.3791    0.3418 C   0  0  0  0  0  0  0  0  0  0  0  0
   -0.2093   -0.0655    1.3354 O   0  0  0  0  0  0  0  0  0  0  0  0
   -0.8126   -0.8558    0.3549 C   0  0  0  0  0  0  0  0  0  0  0  0
   -0.4652    0.1953   -0.6492 C   0  0  0  0  0  0  0  0  0  0  0  0
   -1.3296    1.4118   -0.6861 C   0  0  0  0  0  0  0  0  0  0  0  0
   -0.0759   -0.2586   -1.8972 O   0  0  0  0  0  0  0  0  0  0  0  0
    3.5401   -1.8644   -0.3977 H   0  0  0  0  0  0  0  0  0  0  0  0
    0.8996    1.4424    0.5289 H   0  0  0  0  0  0  0  0  0  0  0  0
   -1.9241   -0.8667    0.5116 H   0  0  0  0  0  0  0  0  0  0  0  0
   -0.3611   -1.8272    0.1638 H   0  0  0  0  0  0  0  0  0  0  0  0
   -2.0173    1.4180    0.1887 H   0  0  0  0  0  0  0  0  0  0  0  0
   -0.6763    2.3179   -0.5494 H   0  0  0  0  0  0  0  0  0  0  0  0
   -1.8947    1.4840   -1.6468 H   0  0  0  0  0  0  0  0  0  0  0  0
    0.1500   -1.2210   -1.8132 H   0  0  0  0  0  0  0  0  0  0  0  0
  1  2  3  0
  2  3  1  0
  3  4  1  0
  4  5  1  0
  5  6  1  0
  6  7  1  0
  6  8  1  0
  6  3  1  0
  1  9  1  0
  3 10  1  0
  5 11  1  0
  5 12  1  0
  7 13  1  0
  7 14  1  0
  7 15  1  0
  8 16  1  0
M  END
