
     RDKit          3D

 19 20  0  0  0  0  0  0  0  0999 V2000
    3.1462    1.9613   -1.5235 C   0  0  0  0  0  0  0  0  0  0  0  0
    2.4565    1.1798   -1.6913 C   0  0  0  0  0  0  0  0  0  0  0  0
    1.4433    0.0570   -1.9531 C   0  0  0  0  0  0  0  0  0  0  0  0
    1.1949   -0.4653   -0.7238 O   0  0  0  0  0  0  0  0  0  0  0  0
   -0.1508   -0.6898   -0.3730 C   0  0  0  0  0  0  0  0  0  0  0  0
   -0.5303   -1.2435    0.9011 C   0  0  0  0  0  0  0  0  0  0  0  0
   -1.9172   -1.1516    1.4716 C   0  0  0  0  0  0  0  0  0  0  0  0
   -1.9303    0.3191    1.1967 C   0  0  0  0  0  0  0  0  0  0  0  0
   -0.5072    0.2824    0.7496 C   0  0  0  0  0  0  0  0  0  0  0  0
    3.9425    2.8375   -1.3326 H   0  0  0  0  0  0  0  0  0  0  0  0
    0.5494    0.5018   -2.4563 H   0  0  0  0  0  0  0  0  0  0  0  0
    1.8696   -0.6860   -2.6167 H   0  0  0  0  0  0  0  0  0  0  0  0
   -0.8382   -0.5310   -1.2145 H   0  0  0  0  0  0  0  0  0  0  0  0
    0.2595   -1.6554    1.6095 H   0  0  0  0  0  0  0  0  0  0  0  0
   -1.9447   -1.4109    2.5823 H   0  0  0  0  0  0  0  0  0  0  0  0
   -2.5951   -1.7964    0.8962 H   0  0  0  0  0  0  0  0  0  0  0  0
   -2.0617    0.9317    2.1271 H   0  0  0  0  0  0  0  0  0  0  0  0
   -2.6615    0.6893    0.4379 H   0  0  0  0  0  0  0  0  0  0  0  0
    0.2754    0.8701    1.2039 H   0  0  0  0  0  0  0  0  0  0  0  0
  1  2  3  0
  2  3  1  0
  3  4  1  0
  4  5  1  0
  5  6  1  0
  6  7  1  0
  7  8  1  0
  8  9  1  0
  9  5  1  0
  9  6  1  0
  1 10  1  0
  3 11  1  0
  3 12  1  0
  5 13  1  0
  6 14  1  0
  7 15  1  0
  7 16  1  0
  8 17  1  0
  8 18  1  0
  9 19  1  0
M  END
