
     RDKit          3D

 19 19  0  0  0  0  0  0  0  0999 V2000
   -3.2624    0.8543    0.9553 C   0  0  0  0  0  0  0  0  0  0  0  0
   -2.1890    0.6123    0.4614 C   0  0  0  0  0  0  0  0  0  0  0  0
   -0.8878    0.3353   -0.1493 C   0  0  0  0  0  0  0  0  0  0  0  0
    0.0648    1.5344   -0.0346 C   0  0  0  0  0  0  0  0  0  0  0  0
    1.1470    0.5396    0.3281 C   0  0  0  0  0  0  0  0  0  0  0  0
    1.8246    0.1026   -0.8996 C   0  0  0  0  0  0  0  0  0  0  0  0
    2.3626   -0.2562   -1.9179 C   0  0  0  0  0  0  0  0  0  0  0  0
    0.0504   -0.4190    0.7225 C   0  0  0  0  0  0  0  0  0  0  0  0
    0.3516   -1.8420    0.3137 C   0  0  0  0  0  0  0  0  0  0  0  0
   -4.2169    1.0577    1.4096 H   0  0  0  0  0  0  0  0  0  0  0  0
   -0.9556   -0.0037   -1.2126 H   0  0  0  0  0  0  0  0  0  0  0  0
   -0.2409    2.2239    0.7602 H   0  0  0  0  0  0  0  0  0  0  0  0
    0.2555    2.0584   -0.9752 H   0  0  0  0  0  0  0  0  0  0  0  0
    1.7814    0.7897    1.1691 H   0  0  0  0  0  0  0  0  0  0  0  0
    2.8245   -0.5765   -2.8322 H   0  0  0  0  0  0  0  0  0  0  0  0
   -0.2141   -0.3700    1.7914 H   0  0  0  0  0  0  0  0  0  0  0  0
    0.6495   -1.9460   -0.7301 H   0  0  0  0  0  0  0  0  0  0  0  0
   -0.5305   -2.4716    0.5610 H   0  0  0  0  0  0  0  0  0  0  0  0
    1.1852   -2.2231    0.9389 H   0  0  0  0  0  0  0  0  0  0  0  0
  1  2  3  0
  2  3  1  0
  3  4  1  0
  4  5  1  0
  5  6  1  0
  6  7  3  0
  5  8  1  0
  8  9  1  0
  8  3  1  0
  1 10  1  0
  3 11  1  0
  4 12  1  0
  4 13  1  0
  5 14  1  0
  7 15  1  0
  8 16  1  0
  9 17  1  0
  9 18  1  0
  9 19  1  0
M  END
