
     RDKit          3D

 19 19  0  0  0  0  0  0  0  0999 V2000
   -1.6115   -1.5965    1.5803 C   0  0  0  0  0  0  0  0  0  0  0  0
   -1.0771   -0.7589    0.9550 C   0  0  0  0  0  0  0  0  0  0  0  0
   -0.4238    0.2943    0.1984 C   0  0  0  0  0  0  0  0  0  0  0  0
    1.0698    0.3187    0.2442 C   0  0  0  0  0  0  0  0  0  0  0  0
    1.7513   -0.8988   -0.2672 C   0  0  0  0  0  0  0  0  0  0  0  0
    1.4080   -1.1121   -1.6040 O   0  0  0  0  0  0  0  0  0  0  0  0
   -1.0375    1.6658    0.5312 C   0  0  0  0  0  0  0  0  0  0  0  0
   -2.0350    1.3581   -0.3898 O   0  0  0  0  0  0  0  0  0  0  0  0
   -1.0681    0.6469   -1.1012 C   0  0  0  0  0  0  0  0  0  0  0  0
   -2.0958   -2.3912    2.1679 H   0  0  0  0  0  0  0  0  0  0  0  0
    1.4279    1.2069   -0.3394 H   0  0  0  0  0  0  0  0  0  0  0  0
    1.4113    0.5231    1.2791 H   0  0  0  0  0  0  0  0  0  0  0  0
    1.5819   -1.7961    0.3280 H   0  0  0  0  0  0  0  0  0  0  0  0
    2.8609   -0.6836   -0.2534 H   0  0  0  0  0  0  0  0  0  0  0  0
    1.4454   -2.0801   -1.7601 H   0  0  0  0  0  0  0  0  0  0  0  0
   -1.3784    1.7075    1.5902 H   0  0  0  0  0  0  0  0  0  0  0  0
   -0.3499    2.4550    0.2182 H   0  0  0  0  0  0  0  0  0  0  0  0
   -0.4156    1.3376   -1.6778 H   0  0  0  0  0  0  0  0  0  0  0  0
   -1.4636   -0.1968   -1.6994 H   0  0  0  0  0  0  0  0  0  0  0  0
  1  2  3  0
  2  3  1  0
  3  4  1  0
  4  5  1  0
  5  6  1  0
  3  7  1  0
  7  8  1  0
  8  9  1  0
  9  3  1  0
  1 10  1  0
  4 11  1  0
  4 12  1  0
  5 13  1  0
  5 14  1  0
  6 15  1  0
  7 16  1  0
  7 17  1  0
  9 18  1  0
  9 19  1  0
M  END
