
     RDKit          3D

 19 19  0  0  0  0  0  0  0  0999 V2000
    2.5952   -0.5985    1.3612 C   0  0  0  0  0  0  0  0  0  0  0  0
    1.7735   -0.3751    0.4837 C   0  0  0  0  0  0  0  0  0  0  0  0
    0.7958   -0.0970   -0.5729 C   0  0  0  0  0  0  0  0  0  0  0  0
    0.5508   -1.3930   -1.3025 C   0  0  0  0  0  0  0  0  0  0  0  0
   -0.4621    0.4607    0.0438 C   0  0  0  0  0  0  0  0  0  0  0  0
   -0.2433    1.7069    0.7827 C   0  0  0  0  0  0  0  0  0  0  0  0
   -0.0684    2.7584    1.3831 C   0  0  0  0  0  0  0  0  0  0  0  0
   -1.5126   -0.4672    0.5430 C   0  0  0  0  0  0  0  0  0  0  0  0
   -1.7626    0.3721   -0.6623 C   0  0  0  0  0  0  0  0  0  0  0  0
    3.3038   -0.7746    2.1269 H   0  0  0  0  0  0  0  0  0  0  0  0
    1.2254    0.6342   -1.2706 H   0  0  0  0  0  0  0  0  0  0  0  0
    0.3008   -2.1987   -0.5810 H   0  0  0  0  0  0  0  0  0  0  0  0
    1.5240   -1.6707   -1.7840 H   0  0  0  0  0  0  0  0  0  0  0  0
   -0.2310   -1.2921   -2.0829 H   0  0  0  0  0  0  0  0  0  0  0  0
    0.0929    3.6530    1.8978 H   0  0  0  0  0  0  0  0  0  0  0  0
   -2.0768   -0.1986    1.4539 H   0  0  0  0  0  0  0  0  0  0  0  0
   -1.4260   -1.5666    0.3812 H   0  0  0  0  0  0  0  0  0  0  0  0
   -1.8651   -0.1591   -1.6272 H   0  0  0  0  0  0  0  0  0  0  0  0
   -2.5145    1.2058   -0.5739 H   0  0  0  0  0  0  0  0  0  0  0  0
  1  2  3  0
  2  3  1  0
  3  4  1  0
  3  5  1  0
  5  6  1  0
  6  7  3  0
  5  8  1  0
  8  9  1  0
  9  5  1  0
  1 10  1  0
  3 11  1  0
  4 12  1  0
  4 13  1  0
  4 14  1  0
  7 15  1  0
  8 16  1  0
  8 17  1  0
  9 18  1  0
  9 19  1  0
M  END
