
     RDKit          3D

 25 24  0  0  0  0  0  0  0  0999 V2000
   -2.8868    1.6663   -0.7721 C   0  0  0  0  0  0  0  0  0  0  0  0
   -2.0160    1.1552   -0.1129 C   0  0  0  0  0  0  0  0  0  0  0  0
   -0.9610    0.5255    0.7182 C   0  0  0  0  0  0  0  0  0  0  0  0
   -1.5297   -0.6153    1.4837 C   0  0  0  0  0  0  0  0  0  0  0  0
    0.2265    0.1189   -0.1575 C   0  0  0  0  0  0  0  0  0  0  0  0
   -0.1680   -0.8590   -1.2153 C   0  0  0  0  0  0  0  0  0  0  0  0
    0.7068    1.3634   -0.8350 C   0  0  0  0  0  0  0  0  0  0  0  0
    1.2388   -0.5066    0.7585 C   0  0  0  0  0  0  0  0  0  0  0  0
    2.4807   -0.9737    0.0915 C   0  0  0  0  0  0  0  0  0  0  0  0
   -3.6417    2.1192   -1.3629 H   0  0  0  0  0  0  0  0  0  0  0  0
   -0.6568    1.3128    1.4385 H   0  0  0  0  0  0  0  0  0  0  0  0
   -2.6573   -0.5466    1.4572 H   0  0  0  0  0  0  0  0  0  0  0  0
   -1.2699   -1.6078    1.1287 H   0  0  0  0  0  0  0  0  0  0  0  0
   -1.2808   -0.5714    2.5811 H   0  0  0  0  0  0  0  0  0  0  0  0
   -1.1735   -0.5978   -1.6533 H   0  0  0  0  0  0  0  0  0  0  0  0
    0.5434   -0.7099   -2.0778 H   0  0  0  0  0  0  0  0  0  0  0  0
   -0.1000   -1.9080   -0.9302 H   0  0  0  0  0  0  0  0  0  0  0  0
    1.6652    1.2543   -1.3651 H   0  0  0  0  0  0  0  0  0  0  0  0
    0.6961    2.2486   -0.1464 H   0  0  0  0  0  0  0  0  0  0  0  0
   -0.0520    1.6047   -1.6296 H   0  0  0  0  0  0  0  0  0  0  0  0
    0.7466   -1.3471    1.2907 H   0  0  0  0  0  0  0  0  0  0  0  0
    1.5296    0.2203    1.5613 H   0  0  0  0  0  0  0  0  0  0  0  0
    2.4676   -0.9184   -1.0117 H   0  0  0  0  0  0  0  0  0  0  0  0
    2.7016   -2.0318    0.3500 H   0  0  0  0  0  0  0  0  0  0  0  0
    3.3908   -0.3957    0.4105 H   0  0  0  0  0  0  0  0  0  0  0  0
  1  2  3  0
  2  3  1  0
  3  4  1  0
  3  5  1  0
  5  6  1  0
  5  7  1  0
  5  8  1  0
  8  9  1  0
  1 10  1  0
  3 11  1  0
  4 12  1  0
  4 13  1  0
  4 14  1  0
  6 15  1  0
  6 16  1  0
  6 17  1  0
  7 18  1  0
  7 19  1  0
  7 20  1  0
  8 21  1  0
  8 22  1  0
  9 23  1  0
  9 24  1  0
  9 25  1  0
M  END
