
     RDKit          3D

 17 16  0  0  0  0  0  0  0  0999 V2000
    3.3909    0.4256    0.1294 C   0  0  0  0  0  0  0  0  0  0  0  0
    2.4095   -0.1689   -0.2746 C   0  0  0  0  0  0  0  0  0  0  0  0
    1.2021   -0.8790   -0.7721 C   0  0  0  0  0  0  0  0  0  0  0  0
    0.1373   -0.7295    0.2542 C   0  0  0  0  0  0  0  0  0  0  0  0
    0.3584   -1.0751    1.4297 O   0  0  0  0  0  0  0  0  0  0  0  0
   -1.2168   -0.1801    0.0070 C   0  0  0  0  0  0  0  0  0  0  0  0
   -1.1001    1.2548   -0.4802 C   0  0  0  0  0  0  0  0  0  0  0  0
   -2.1044   -0.2986    1.1820 C   0  0  0  0  0  0  0  0  0  0  0  0
   -1.7984   -0.9138    2.1812 O   0  0  0  0  0  0  0  0  0  0  0  0
    4.2568    0.9572    0.4729 H   0  0  0  0  0  0  0  0  0  0  0  0
    0.8633   -0.5060   -1.7517 H   0  0  0  0  0  0  0  0  0  0  0  0
    1.5387   -1.9472   -0.8637 H   0  0  0  0  0  0  0  0  0  0  0  0
   -1.6646   -0.7899   -0.8144 H   0  0  0  0  0  0  0  0  0  0  0  0
   -2.0844    1.7129   -0.4701 H   0  0  0  0  0  0  0  0  0  0  0  0
   -0.3643    1.7716    0.1766 H   0  0  0  0  0  0  0  0  0  0  0  0
   -0.7548    1.1776   -1.5462 H   0  0  0  0  0  0  0  0  0  0  0  0
   -3.0691    0.1883    1.1399 H   0  0  0  0  0  0  0  0  0  0  0  0
  1  2  3  0
  2  3  1  0
  3  4  1  0
  4  5  2  0
  4  6  1  0
  6  7  1  0
  6  8  1  0
  8  9  2  0
  1 10  1  0
  3 11  1  0
  3 12  1  0
  6 13  1  0
  7 14  1  0
  7 15  1  0
  7 16  1  0
  8 17  1  0
M  END
