
     RDKit          3D

 17 18  0  0  0  0  0  0  0  0999 V2000
    1.9326    2.4875    0.1656 C   0  0  0  0  0  0  0  0  0  0  0  0
    0.8974    1.8131    0.5922 C   0  0  0  0  0  0  0  0  0  0  0  0
   -0.2985    1.0409    1.0920 C   0  0  0  0  0  0  0  0  0  0  0  0
   -0.2530   -0.4321    1.2394 C   0  0  0  0  0  0  0  0  0  0  0  0
   -0.8521   -0.6576   -0.1596 C   0  0  0  0  0  0  0  0  0  0  0  0
   -0.4515   -1.8984   -0.8185 C   0  0  0  0  0  0  0  0  0  0  0  0
    0.8508   -2.2936   -0.7599 O   0  0  0  0  0  0  0  0  0  0  0  0
   -0.9220    0.7148   -0.3631 C   0  0  0  0  0  0  0  0  0  0  0  0
   -1.4439    1.6284    0.5562 O   0  0  0  0  0  0  0  0  0  0  0  0
    2.9855    3.1907   -0.2784 H   0  0  0  0  0  0  0  0  0  0  0  0
   -0.7420   -0.9151    2.0646 H   0  0  0  0  0  0  0  0  0  0  0  0
    0.8332   -0.7886    1.1983 H   0  0  0  0  0  0  0  0  0  0  0  0
   -2.0710   -0.9388    0.1155 H   0  0  0  0  0  0  0  0  0  0  0  0
   -1.2686   -2.6035   -1.0342 H   0  0  0  0  0  0  0  0  0  0  0  0
   -0.3733   -1.5141   -2.0143 H   0  0  0  0  0  0  0  0  0  0  0  0
    1.4883   -1.6366   -0.4442 H   0  0  0  0  0  0  0  0  0  0  0  0
   -0.3119    1.2607   -1.1518 H   0  0  0  0  0  0  0  0  0  0  0  0
  1  2  3  0
  2  3  1  0
  3  4  1  0
  4  5  1  0
  5  6  1  0
  6  7  1  0
  5  8  1  0
  8  9  1  0
  8  3  1  0
  9  3  1  0
  1 10  1  0
  4 11  1  0
  4 12  1  0
  5 13  1  0
  6 14  1  0
  6 15  1  0
  7 16  1  0
  8 17  1  0
M  END
