
     RDKit          3D

 16 17  0  0  0  0  0  0  0  0999 V2000
    2.1454    2.1461   -0.0196 C   0  0  0  0  0  0  0  0  0  0  0  0
    1.6945    1.0167    0.0432 C   0  0  0  0  0  0  0  0  0  0  0  0
    1.1762   -0.3447    0.1243 C   0  0  0  0  0  0  0  0  0  0  0  0
   -0.3042   -0.3302    0.2647 C   0  0  0  0  0  0  0  0  0  0  0  0
   -1.0205   -1.6554    0.3638 C   0  0  0  0  0  0  0  0  0  0  0  0
   -1.6090   -1.4016   -0.8681 O   0  0  0  0  0  0  0  0  0  0  0  0
   -1.0817   -0.1316   -1.0534 C   0  0  0  0  0  0  0  0  0  0  0  0
   -1.1365    0.8597    0.1034 C   0  0  0  0  0  0  0  0  0  0  0  0
    2.5261    3.1409   -0.0643 H   0  0  0  0  0  0  0  0  0  0  0  0
    1.6393   -0.9116    0.9713 H   0  0  0  0  0  0  0  0  0  0  0  0
    1.4234   -0.9411   -0.7884 H   0  0  0  0  0  0  0  0  0  0  0  0
   -0.3374   -2.5334    0.3361 H   0  0  0  0  0  0  0  0  0  0  0  0
   -1.7602   -1.7318    1.1923 H   0  0  0  0  0  0  0  0  0  0  0  0
   -0.5079    0.1164   -1.9504 H   0  0  0  0  0  0  0  0  0  0  0  0
   -0.7135    1.8458   -0.1745 H   0  0  0  0  0  0  0  0  0  0  0  0
   -2.1341    0.8558    0.6175 H   0  0  0  0  0  0  0  0  0  0  0  0
  1  2  3  0
  2  3  1  0
  3  4  1  0
  4  5  1  0
  5  6  1  0
  6  7  1  0
  7  8  1  0
  7  4  1  0
  8  4  1  0
  1  9  1  0
  3 10  1  0
  3 11  1  0
  5 12  1  0
  5 13  1  0
  7 14  1  0
  8 15  1  0
  8 16  1  0
M  END
