
     RDKit          3D

 17 17  0  0  0  0  0  0  0  0999 V2000
   -1.1608   -2.2673   -1.3326 C   0  0  0  0  0  0  0  0  0  0  0  0
   -0.8212   -1.4008   -0.5716 C   0  0  0  0  0  0  0  0  0  0  0  0
   -0.3886   -0.3582    0.3620 C   0  0  0  0  0  0  0  0  0  0  0  0
   -1.4448    0.7256    0.4862 C   0  0  0  0  0  0  0  0  0  0  0  0
   -0.6544    1.9833    0.4249 C   0  0  0  0  0  0  0  0  0  0  0  0
   -1.1908    3.1414    0.4578 O   0  0  0  0  0  0  0  0  0  0  0  0
    0.7038    1.6763    0.3302 O   0  0  0  0  0  0  0  0  0  0  0  0
    0.7829    0.3981   -0.2258 C   0  0  0  0  0  0  0  0  0  0  0  0
    2.0539   -0.3287    0.1431 C   0  0  0  0  0  0  0  0  0  0  0  0
   -1.4700   -3.0310   -2.0184 H   0  0  0  0  0  0  0  0  0  0  0  0
   -0.0801   -0.7498    1.3395 H   0  0  0  0  0  0  0  0  0  0  0  0
   -1.8854    0.6269    1.5016 H   0  0  0  0  0  0  0  0  0  0  0  0
   -2.1906    0.6927   -0.3205 H   0  0  0  0  0  0  0  0  0  0  0  0
    0.6637    0.4716   -1.3161 H   0  0  0  0  0  0  0  0  0  0  0  0
    2.8528    0.3910    0.4100 H   0  0  0  0  0  0  0  0  0  0  0  0
    1.9013   -0.9799    1.0331 H   0  0  0  0  0  0  0  0  0  0  0  0
    2.3284   -0.9911   -0.7033 H   0  0  0  0  0  0  0  0  0  0  0  0
  1  2  3  0
  2  3  1  0
  3  4  1  0
  4  5  1  0
  5  6  2  0
  5  7  1  0
  7  8  1  0
  8  9  1  0
  8  3  1  0
  1 10  1  0
  3 11  1  0
  4 12  1  0
  4 13  1  0
  8 14  1  0
  9 15  1  0
  9 16  1  0
  9 17  1  0
M  END
