
     RDKit          3D

 19 19  0  0  0  0  0  0  0  0999 V2000
    2.0925   -1.4993    1.3067 C   0  0  0  0  0  0  0  0  0  0  0  0
    1.0367   -0.9319    1.2080 C   0  0  0  0  0  0  0  0  0  0  0  0
   -0.2385   -0.2241    1.1012 C   0  0  0  0  0  0  0  0  0  0  0  0
   -0.1982    1.1752    1.6454 C   0  0  0  0  0  0  0  0  0  0  0  0
   -0.9689    1.9700    0.8276 O   0  0  0  0  0  0  0  0  0  0  0  0
   -1.3629    1.2748   -0.2834 C   0  0  0  0  0  0  0  0  0  0  0  0
   -0.5428    0.0076   -0.3620 C   0  0  0  0  0  0  0  0  0  0  0  0
    0.6063    0.1629   -1.1164 O   0  0  0  0  0  0  0  0  0  0  0  0
    0.5781   -0.7764   -2.1424 C   0  0  0  0  0  0  0  0  0  0  0  0
    3.0442   -2.0078    1.3768 H   0  0  0  0  0  0  0  0  0  0  0  0
   -1.0222   -0.8594    1.5611 H   0  0  0  0  0  0  0  0  0  0  0  0
   -0.6733    1.1558    2.6479 H   0  0  0  0  0  0  0  0  0  0  0  0
    0.8596    1.4904    1.7033 H   0  0  0  0  0  0  0  0  0  0  0  0
   -1.2930    1.8771   -1.2360 H   0  0  0  0  0  0  0  0  0  0  0  0
   -2.4388    0.9954   -0.1877 H   0  0  0  0  0  0  0  0  0  0  0  0
   -1.1519   -0.8042   -0.7759 H   0  0  0  0  0  0  0  0  0  0  0  0
    0.5406   -1.8084   -1.7081 H   0  0  0  0  0  0  0  0  0  0  0  0
    1.4530   -0.5969   -2.7737 H   0  0  0  0  0  0  0  0  0  0  0  0
   -0.3205   -0.6007   -2.7926 H   0  0  0  0  0  0  0  0  0  0  0  0
  1  2  3  0
  2  3  1  0
  3  4  1  0
  4  5  1  0
  5  6  1  0
  6  7  1  0
  7  8  1  0
  8  9  1  0
  7  3  1  0
  1 10  1  0
  3 11  1  0
  4 12  1  0
  4 13  1  0
  6 14  1  0
  6 15  1  0
  7 16  1  0
  9 17  1  0
  9 18  1  0
  9 19  1  0
M  END
