
     RDKit          3D

 17 18  0  0  0  0  0  0  0  0999 V2000
    2.6601    0.1998   -0.5436 C   0  0  0  0  0  0  0  0  0  0  0  0
    1.7033    0.2192    0.1656 C   0  0  0  0  0  0  0  0  0  0  0  0
    0.5538    0.2340    1.0283 C   0  0  0  0  0  0  0  0  0  0  0  0
   -0.6461    0.9974    0.5682 C   0  0  0  0  0  0  0  0  0  0  0  0
   -0.7775    0.9441   -0.9236 C   0  0  0  0  0  0  0  0  0  0  0  0
   -0.6614   -0.3067   -1.4327 O   0  0  0  0  0  0  0  0  0  0  0  0
   -0.6464   -1.3332   -0.5178 C   0  0  0  0  0  0  0  0  0  0  0  0
   -0.4265   -0.8896    0.8919 C   0  0  0  0  0  0  0  0  0  0  0  0
   -1.4486    0.0411    1.1864 O   0  0  0  0  0  0  0  0  0  0  0  0
    3.5142    0.1892   -1.1982 H   0  0  0  0  0  0  0  0  0  0  0  0
    0.7842    0.3958    2.1127 H   0  0  0  0  0  0  0  0  0  0  0  0
   -0.8293    1.9764    1.0149 H   0  0  0  0  0  0  0  0  0  0  0  0
   -0.0221    1.5992   -1.3875 H   0  0  0  0  0  0  0  0  0  0  0  0
   -1.7732    1.4118   -1.1787 H   0  0  0  0  0  0  0  0  0  0  0  0
   -1.6790   -1.7940   -0.5410 H   0  0  0  0  0  0  0  0  0  0  0  0
    0.0344   -2.1588   -0.8211 H   0  0  0  0  0  0  0  0  0  0  0  0
   -0.3399   -1.7255    1.5762 H   0  0  0  0  0  0  0  0  0  0  0  0
  1  2  3  0
  2  3  1  0
  3  4  1  0
  4  5  1  0
  5  6  1  0
  6  7  1  0
  7  8  1  0
  8  9  1  0
  8  3  1  0
  9  4  1  0
  1 10  1  0
  3 11  1  0
  4 12  1  0
  5 13  1  0
  5 14  1  0
  7 15  1  0
  7 16  1  0
  8 17  1  0
M  END
