
     RDKit          3D

  6  5  0  0  0  0  0  0  0  0999 V2000
    2.0195    0.7742    0.0540 C   0  0  0  0  0  0  0  0  0  0  0  0
    0.4910    0.2090    0.1513 C   0  0  0  0  0  0  0  0  0  0  0  0
   -0.8040   -0.2955    0.2384 C   0  0  0  0  0  0  0  0  0  0  0  0
   -1.4772   -0.5659    0.2755 C   0  0  0  0  0  0  0  0  0  0  0  0
    2.4685    0.9388    0.0273 H   0  0  0  0  0  0  0  0  0  0  0  0
   -2.6978   -1.0606    0.3204 H   0  0  0  0  0  0  0  0  0  0  0  0
  1  2  3  0
  2  3  1  0
  3  4  3  0
  1  5  1  0
  4  6  1  0
M  END
