
     RDKit          3D

 19 20  0  0  0  0  0  0  0  0999 V2000
   -0.7084    2.6959    0.6718 C   0  0  0  0  0  0  0  0  0  0  0  0
   -0.3284    1.6550    0.2076 C   0  0  0  0  0  0  0  0  0  0  0  0
    0.1257    0.3710   -0.3562 C   0  0  0  0  0  0  0  0  0  0  0  0
   -0.6964   -0.3130   -1.3745 C   0  0  0  0  0  0  0  0  0  0  0  0
   -0.7011   -0.7986    0.0141 C   0  0  0  0  0  0  0  0  0  0  0  0
   -1.9032   -0.6668    0.9036 C   0  0  0  0  0  0  0  0  0  0  0  0
    0.4011   -1.4252    0.5237 O   0  0  0  0  0  0  0  0  0  0  0  0
    1.2339   -0.3319    0.3688 C   0  0  0  0  0  0  0  0  0  0  0  0
    2.4311   -0.5658   -0.5270 C   0  0  0  0  0  0  0  0  0  0  0  0
   -1.0387    3.6172    1.0719 H   0  0  0  0  0  0  0  0  0  0  0  0
   -1.5564    0.2525   -1.7608 H   0  0  0  0  0  0  0  0  0  0  0  0
   -0.1247   -0.8548   -2.1687 H   0  0  0  0  0  0  0  0  0  0  0  0
   -2.5858   -1.5333    0.6867 H   0  0  0  0  0  0  0  0  0  0  0  0
   -2.4917    0.2463    0.6988 H   0  0  0  0  0  0  0  0  0  0  0  0
   -1.6463   -0.6514    1.9823 H   0  0  0  0  0  0  0  0  0  0  0  0
    1.4842    0.1428    1.3182 H   0  0  0  0  0  0  0  0  0  0  0  0
    3.1262    0.2760   -0.3571 H   0  0  0  0  0  0  0  0  0  0  0  0
    2.8833   -1.5458   -0.3203 H   0  0  0  0  0  0  0  0  0  0  0  0
    2.0954   -0.5703   -1.5829 H   0  0  0  0  0  0  0  0  0  0  0  0
  1  2  3  0
  2  3  1  0
  3  4  1  0
  4  5  1  0
  5  6  1  0
  5  7  1  0
  7  8  1  0
  8  9  1  0
  5  3  1  0
  8  3  1  0
  1 10  1  0
  4 11  1  0
  4 12  1  0
  6 13  1  0
  6 14  1  0
  6 15  1  0
  8 16  1  0
  9 17  1  0
  9 18  1  0
  9 19  1  0
M  END
