
     RDKit          3D

 15 15  0  0  0  0  0  0  0  0999 V2000
    2.8733    0.7659   -0.0564 C   0  0  0  0  0  0  0  0  0  0  0  0
    1.7704    0.5233    0.3525 C   0  0  0  0  0  0  0  0  0  0  0  0
    0.4301    0.2496    0.8329 C   0  0  0  0  0  0  0  0  0  0  0  0
    0.2015   -1.1876    1.1024 C   0  0  0  0  0  0  0  0  0  0  0  0
    1.0745   -1.9929    1.4821 O   0  0  0  0  0  0  0  0  0  0  0  0
   -1.1381   -1.4257    0.8496 O   0  0  0  0  0  0  0  0  0  0  0  0
   -1.7757   -0.2154    0.4385 C   0  0  0  0  0  0  0  0  0  0  0  0
   -0.6191    0.4832   -0.2532 C   0  0  0  0  0  0  0  0  0  0  0  0
   -0.2752   -0.1953   -1.4244 O   0  0  0  0  0  0  0  0  0  0  0  0
    3.8688    0.9845   -0.4089 H   0  0  0  0  0  0  0  0  0  0  0  0
    0.1273    0.8997    1.6796 H   0  0  0  0  0  0  0  0  0  0  0  0
   -2.0440    0.4088    1.3128 H   0  0  0  0  0  0  0  0  0  0  0  0
   -2.6215   -0.4093   -0.2377 H   0  0  0  0  0  0  0  0  0  0  0  0
   -0.8010    1.5550   -0.4112 H   0  0  0  0  0  0  0  0  0  0  0  0
   -1.0712   -0.4438   -1.9576 H   0  0  0  0  0  0  0  0  0  0  0  0
  1  2  3  0
  2  3  1  0
  3  4  1  0
  4  5  2  0
  4  6  1  0
  6  7  1  0
  7  8  1  0
  8  9  1  0
  8  3  1  0
  1 10  1  0
  3 11  1  0
  7 12  1  0
  7 13  1  0
  8 14  1  0
  9 15  1  0
M  END
