
     RDKit          3D

 15 15  0  0  0  0  0  0  0  0999 V2000
   -1.8191    1.3723   -2.2951 C   0  0  0  0  0  0  0  0  0  0  0  0
   -1.4224    0.5377   -1.9411 C   0  0  0  0  0  0  0  0  0  0  0  0
   -0.8158   -0.7386   -1.3716 C   0  0  0  0  0  0  0  0  0  0  0  0
    0.3769   -0.4323   -0.5353 C   0  0  0  0  0  0  0  0  0  0  0  0
    1.0081   -1.5653    0.1377 O   0  0  0  0  0  0  0  0  0  0  0  0
    0.3552   -0.4504    0.9096 C   0  0  0  0  0  0  0  0  0  0  0  0
    1.3517    0.4113    1.6372 C   0  0  0  0  0  0  0  0  0  0  0  0
   -2.2853    2.3843   -2.7099 H   0  0  0  0  0  0  0  0  0  0  0  0
   -1.6423   -1.2396   -0.7784 H   0  0  0  0  0  0  0  0  0  0  0  0
   -0.5316   -1.3793   -2.2194 H   0  0  0  0  0  0  0  0  0  0  0  0
    1.1781    0.1091   -1.0712 H   0  0  0  0  0  0  0  0  0  0  0  0
   -0.4824   -0.9279    1.4658 H   0  0  0  0  0  0  0  0  0  0  0  0
    1.7717    1.2085    0.9468 H   0  0  0  0  0  0  0  0  0  0  0  0
    2.1300   -0.2188    2.1065 H   0  0  0  0  0  0  0  0  0  0  0  0
    0.8272    0.9291    2.4818 H   0  0  0  0  0  0  0  0  0  0  0  0
  1  2  3  0
  2  3  1  0
  3  4  1  0
  4  5  1  0
  5  6  1  0
  6  7  1  0
  6  4  1  0
  1  8  1  0
  3  9  1  0
  3 10  1  0
  4 11  1  0
  6 12  1  0
  7 13  1  0
  7 14  1  0
  7 15  1  0
M  END
