
     RDKit          3D

 19 20  0  0  0  0  0  0  0  0999 V2000
    3.1310   -0.2174    0.9009 C   0  0  0  0  0  0  0  0  0  0  0  0
    2.0805   -0.4540    0.3755 C   0  0  0  0  0  0  0  0  0  0  0  0
    0.8130   -0.7440   -0.2865 C   0  0  0  0  0  0  0  0  0  0  0  0
   -0.0601   -1.4562    0.5811 O   0  0  0  0  0  0  0  0  0  0  0  0
   -1.3617   -1.0989    0.2301 C   0  0  0  0  0  0  0  0  0  0  0  0
   -1.1854   -0.3326   -1.0139 C   0  0  0  0  0  0  0  0  0  0  0  0
   -0.9168    1.0011   -1.3350 C   0  0  0  0  0  0  0  0  0  0  0  0
    0.0141    0.5094   -0.4138 C   0  0  0  0  0  0  0  0  0  0  0  0
   -0.1504    1.0595    0.9802 C   0  0  0  0  0  0  0  0  0  0  0  0
    4.0732   -0.0140    1.3532 H   0  0  0  0  0  0  0  0  0  0  0  0
    0.9305   -1.2999   -1.2278 H   0  0  0  0  0  0  0  0  0  0  0  0
   -1.9303   -0.6259    1.0291 H   0  0  0  0  0  0  0  0  0  0  0  0
   -1.8908   -2.0760    0.0430 H   0  0  0  0  0  0  0  0  0  0  0  0
   -0.8993   -1.0558   -1.8445 H   0  0  0  0  0  0  0  0  0  0  0  0
   -0.5345    1.2997   -2.3560 H   0  0  0  0  0  0  0  0  0  0  0  0
   -1.6961    1.7664   -1.0452 H   0  0  0  0  0  0  0  0  0  0  0  0
    0.8077    1.5846    1.1903 H   0  0  0  0  0  0  0  0  0  0  0  0
   -0.9392    1.8336    1.0745 H   0  0  0  0  0  0  0  0  0  0  0  0
   -0.2853    0.3204    1.7647 H   0  0  0  0  0  0  0  0  0  0  0  0
  1  2  3  0
  2  3  1  0
  3  4  1  0
  4  5  1  0
  5  6  1  0
  6  7  1  0
  7  8  1  0
  8  9  1  0
  8  3  1  0
  8  6  1  0
  1 10  1  0
  3 11  1  0
  5 12  1  0
  5 13  1  0
  6 14  1  0
  7 15  1  0
  7 16  1  0
  9 17  1  0
  9 18  1  0
  9 19  1  0
M  END
