
     RDKit          3D

 23 22  0  0  0  0  0  0  0  0999 V2000
    2.8680    1.1960    0.3148 C   0  0  0  0  0  0  0  0  0  0  0  0
    1.9679    0.6496   -0.3126 C   0  0  0  0  0  0  0  0  0  0  0  0
    0.9216    0.0015   -1.0723 C   0  0  0  0  0  0  0  0  0  0  0  0
   -0.1902   -0.4593   -0.1810 C   0  0  0  0  0  0  0  0  0  0  0  0
   -1.2480   -1.1254   -1.0314 C   0  0  0  0  0  0  0  0  0  0  0  0
   -0.7631    0.6397    0.6727 C   0  0  0  0  0  0  0  0  0  0  0  0
   -1.3375    1.7760   -0.1021 C   0  0  0  0  0  0  0  0  0  0  0  0
    0.3607   -1.5189    0.7410 C   0  0  0  0  0  0  0  0  0  0  0  0
    1.3928   -1.0669    1.5325 O   0  0  0  0  0  0  0  0  0  0  0  0
    3.6489    1.6550    0.8633 H   0  0  0  0  0  0  0  0  0  0  0  0
    1.3648   -0.9305   -1.5311 H   0  0  0  0  0  0  0  0  0  0  0  0
    0.5685    0.5999   -1.9347 H   0  0  0  0  0  0  0  0  0  0  0  0
   -1.1814   -0.7387   -2.0690 H   0  0  0  0  0  0  0  0  0  0  0  0
   -1.1379   -2.2286   -1.0181 H   0  0  0  0  0  0  0  0  0  0  0  0
   -2.2760   -0.9154   -0.6557 H   0  0  0  0  0  0  0  0  0  0  0  0
   -1.6014    0.1662    1.2612 H   0  0  0  0  0  0  0  0  0  0  0  0
   -0.0427    1.0076    1.4275 H   0  0  0  0  0  0  0  0  0  0  0  0
   -2.1783    2.2097    0.5056 H   0  0  0  0  0  0  0  0  0  0  0  0
   -0.6271    2.6225   -0.2439 H   0  0  0  0  0  0  0  0  0  0  0  0
   -1.7974    1.4629   -1.0633 H   0  0  0  0  0  0  0  0  0  0  0  0
    0.7110   -2.3879    0.1325 H   0  0  0  0  0  0  0  0  0  0  0  0
   -0.4856   -1.9212    1.3614 H   0  0  0  0  0  0  0  0  0  0  0  0
    1.0623   -0.6938    2.4026 H   0  0  0  0  0  0  0  0  0  0  0  0
  1  2  3  0
  2  3  1  0
  3  4  1  0
  4  5  1  0
  4  6  1  0
  6  7  1  0
  4  8  1  0
  8  9  1  0
  1 10  1  0
  3 11  1  0
  3 12  1  0
  5 13  1  0
  5 14  1  0
  5 15  1  0
  6 16  1  0
  6 17  1  0
  7 18  1  0
  7 19  1  0
  7 20  1  0
  8 21  1  0
  8 22  1  0
  9 23  1  0
M  END
