
     RDKit          3D

 17 18  0  0  0  0  0  0  0  0999 V2000
    1.5984    2.3606   -2.2127 C   0  0  0  0  0  0  0  0  0  0  0  0
    0.5813    1.4846   -1.3784 C   0  0  0  0  0  0  0  0  0  0  0  0
   -0.1509    0.8297   -0.7697 C   0  0  0  0  0  0  0  0  0  0  0  0
   -1.0846    0.8704    0.4007 C   0  0  0  0  0  0  0  0  0  0  0  0
   -0.3544   -0.2494    0.6477 C   0  0  0  0  0  0  0  0  0  0  0  0
   -0.1644   -1.3110    1.6429 C   0  0  0  0  0  0  0  0  0  0  0  0
    0.8420    0.4443    0.4408 O   0  0  0  0  0  0  0  0  0  0  0  0
   -0.2567   -0.6923   -0.7892 C   0  0  0  0  0  0  0  0  0  0  0  0
    0.8543   -1.4644   -1.1138 O   0  0  0  0  0  0  0  0  0  0  0  0
    2.3006    2.9550   -2.7970 H   0  0  0  0  0  0  0  0  0  0  0  0
   -2.1615    0.9276   -0.0268 H   0  0  0  0  0  0  0  0  0  0  0  0
   -0.9073    1.9606    0.8650 H   0  0  0  0  0  0  0  0  0  0  0  0
    0.9403   -1.4804    1.7331 H   0  0  0  0  0  0  0  0  0  0  0  0
   -0.6511   -1.1005    2.5403 H   0  0  0  0  0  0  0  0  0  0  0  0
   -0.5997   -2.1953    1.0554 H   0  0  0  0  0  0  0  0  0  0  0  0
   -1.2114   -1.0265   -1.2868 H   0  0  0  0  0  0  0  0  0  0  0  0
    0.4251   -2.3130   -1.5279 H   0  0  0  0  0  0  0  0  0  0  0  0
  1  2  3  0
  2  3  1  0
  3  4  1  0
  4  5  1  0
  5  6  1  0
  5  7  1  0
  5  8  1  0
  8  9  1  0
  7  3  1  0
  8  3  1  0
  1 10  1  0
  4 11  1  0
  4 12  1  0
  6 13  1  0
  6 14  1  0
  6 15  1  0
  8 16  1  0
  9 17  1  0
M  END
