
     RDKit          3D

 19 20  0  0  0  0  0  0  0  0999 V2000
    1.9631    0.2605    1.9835 C   0  0  0  0  0  0  0  0  0  0  0  0
    1.5004    0.1827    0.8763 C   0  0  0  0  0  0  0  0  0  0  0  0
    0.9689    0.0920   -0.4605 C   0  0  0  0  0  0  0  0  0  0  0  0
    1.4633    0.9453   -1.4271 O   0  0  0  0  0  0  0  0  0  0  0  0
    0.1861    1.4927   -1.5329 C   0  0  0  0  0  0  0  0  0  0  0  0
   -0.4322    0.4034   -0.7241 C   0  0  0  0  0  0  0  0  0  0  0  0
   -1.4309    0.7323    0.3352 C   0  0  0  0  0  0  0  0  0  0  0  0
    0.0420   -1.0019   -0.7864 C   0  0  0  0  0  0  0  0  0  0  0  0
   -0.3275   -1.9096    0.3764 C   0  0  0  0  0  0  0  0  0  0  0  0
    2.3687    0.3310    2.9721 H   0  0  0  0  0  0  0  0  0  0  0  0
   -0.0997    1.5520   -2.5936 H   0  0  0  0  0  0  0  0  0  0  0  0
    0.1859    2.4745   -0.9851 H   0  0  0  0  0  0  0  0  0  0  0  0
   -1.0436    1.3395    1.1636 H   0  0  0  0  0  0  0  0  0  0  0  0
   -1.9155   -0.2139    0.6890 H   0  0  0  0  0  0  0  0  0  0  0  0
   -2.2677    1.2968   -0.1699 H   0  0  0  0  0  0  0  0  0  0  0  0
    0.0936   -1.5268   -1.7449 H   0  0  0  0  0  0  0  0  0  0  0  0
    0.3979   -2.7357    0.4863 H   0  0  0  0  0  0  0  0  0  0  0  0
   -0.3377   -1.3405    1.3298 H   0  0  0  0  0  0  0  0  0  0  0  0
   -1.3152   -2.3744    0.2123 H   0  0  0  0  0  0  0  0  0  0  0  0
  1  2  3  0
  2  3  1  0
  3  4  1  0
  4  5  1  0
  5  6  1  0
  6  7  1  0
  6  8  1  0
  8  9  1  0
  6  3  1  0
  8  3  1  0
  1 10  1  0
  5 11  1  0
  5 12  1  0
  7 13  1  0
  7 14  1  0
  7 15  1  0
  8 16  1  0
  9 17  1  0
  9 18  1  0
  9 19  1  0
M  END
