
     RDKit          3D

 17 18  0  0  0  0  0  0  0  0999 V2000
    3.4091    0.3497    0.4389 C   0  0  0  0  0  0  0  0  0  0  0  0
    2.1966    0.2866    0.4184 C   0  0  0  0  0  0  0  0  0  0  0  0
    0.7643    0.2217    0.3827 C   0  0  0  0  0  0  0  0  0  0  0  0
   -0.1151    0.5176    1.3368 C   0  0  0  0  0  0  0  0  0  0  0  0
   -1.4074    0.2411    0.7127 C   0  0  0  0  0  0  0  0  0  0  0  0
   -1.1171   -1.0831    0.0050 C   0  0  0  0  0  0  0  0  0  0  0  0
   -0.1069   -0.1984   -0.7455 C   0  0  0  0  0  0  0  0  0  0  0  0
    0.3841   -0.6003   -1.8891 O   0  0  0  0  0  0  0  0  0  0  0  0
   -1.1970    0.8559   -0.6805 C   0  0  0  0  0  0  0  0  0  0  0  0
    4.4760    0.4159    0.4713 H   0  0  0  0  0  0  0  0  0  0  0  0
    0.1007    0.8760    2.3305 H   0  0  0  0  0  0  0  0  0  0  0  0
   -2.3234    0.3797    1.1933 H   0  0  0  0  0  0  0  0  0  0  0  0
   -0.6457   -1.7698    0.7242 H   0  0  0  0  0  0  0  0  0  0  0  0
   -1.9312   -1.4679   -0.6141 H   0  0  0  0  0  0  0  0  0  0  0  0
    0.3663   -1.5760   -2.0706 H   0  0  0  0  0  0  0  0  0  0  0  0
   -2.0005    0.6550   -1.3874 H   0  0  0  0  0  0  0  0  0  0  0  0
   -0.8529    1.8962   -0.6269 H   0  0  0  0  0  0  0  0  0  0  0  0
  1  2  3  0
  2  3  1  0
  3  4  2  0
  4  5  1  0
  5  6  1  0
  6  7  1  0
  7  8  1  0
  7  9  1  0
  7  3  1  0
  9  5  1  0
  1 10  1  0
  4 11  1  0
  5 12  1  0
  6 13  1  0
  6 14  1  0
  8 15  1  0
  9 16  1  0
  9 17  1  0
M  END
