
     RDKit          3D

 15 14  0  0  0  0  0  0  0  0999 V2000
    2.6709    0.6557    0.5156 C   0  0  0  0  0  0  0  0  0  0  0  0
    1.3490   -0.2402    0.6502 C   0  0  0  0  0  0  0  0  0  0  0  0
    0.5026   -0.8323    0.7386 C   0  0  0  0  0  0  0  0  0  0  0  0
   -0.7727   -0.5612    0.0629 C   0  0  0  0  0  0  0  0  0  0  0  0
   -2.0472   -1.1638   -0.2037 O   0  0  0  0  0  0  0  0  0  0  0  0
   -0.4876    0.2294   -0.9387 C   0  0  0  0  0  0  0  0  0  0  0  0
   -0.1445    1.2679   -2.2462 C   0  0  0  0  0  0  0  0  0  0  0  0
   -1.3540    0.6908    0.8972 C   0  0  0  0  0  0  0  0  0  0  0  0
   -2.4762    0.9171    1.1087 O   0  0  0  0  0  0  0  0  0  0  0  0
    3.8625    1.4877    0.4044 H   0  0  0  0  0  0  0  0  0  0  0  0
    0.5748   -1.8834    1.3623 H   0  0  0  0  0  0  0  0  0  0  0  0
    0.8552   -1.6717   -0.4392 H   0  0  0  0  0  0  0  0  0  0  0  0
   -2.1604   -2.1013   -0.1519 H   0  0  0  0  0  0  0  0  0  0  0  0
    0.0562    1.8568   -2.9899 H   0  0  0  0  0  0  0  0  0  0  0  0
   -0.4286    1.3486    1.2297 H   0  0  0  0  0  0  0  0  0  0  0  0
  1  2  3  0
  2  3  1  0
  3  4  1  0
  4  5  1  0
  4  6  1  0
  6  7  3  0
  4  8  1  0
  8  9  2  0
  1 10  1  0
  3 11  1  0
  3 12  1  0
  5 13  1  0
  7 14  1  0
  8 15  1  0
M  END
