
     RDKit          3D

 16 15  0  0  0  0  0  0  0  0999 V2000
    2.4503   -1.0871   -0.1086 C   0  0  0  0  0  0  0  0  0  0  0  0
    1.3854   -0.5196    0.0037 C   0  0  0  0  0  0  0  0  0  0  0  0
    0.0909    0.1628    0.1256 C   0  0  0  0  0  0  0  0  0  0  0  0
    0.0330    1.1763   -1.0028 C   0  0  0  0  0  0  0  0  0  0  0  0
    0.0605    0.8725    1.4123 C   0  0  0  0  0  0  0  0  0  0  0  0
    0.0443    0.2342    2.4495 O   0  0  0  0  0  0  0  0  0  0  0  0
   -0.9800   -0.8883   -0.0084 C   0  0  0  0  0  0  0  0  0  0  0  0
   -2.2557   -0.3866    0.0869 O   0  0  0  0  0  0  0  0  0  0  0  0
    3.3824   -1.5923   -0.2118 H   0  0  0  0  0  0  0  0  0  0  0  0
    1.0264    1.6871   -1.0049 H   0  0  0  0  0  0  0  0  0  0  0  0
   -0.0186    0.6235   -1.9632 H   0  0  0  0  0  0  0  0  0  0  0  0
   -0.7611    1.9152   -0.8716 H   0  0  0  0  0  0  0  0  0  0  0  0
    0.0517    1.9530    1.4860 H   0  0  0  0  0  0  0  0  0  0  0  0
   -0.8210   -1.6241    0.8031 H   0  0  0  0  0  0  0  0  0  0  0  0
   -0.8118   -1.4212   -0.9621 H   0  0  0  0  0  0  0  0  0  0  0  0
   -2.8767   -1.1054   -0.2340 H   0  0  0  0  0  0  0  0  0  0  0  0
  1  2  3  0
  2  3  1  0
  3  4  1  0
  3  5  1  0
  5  6  2  0
  3  7  1  0
  7  8  1  0
  1  9  1  0
  4 10  1  0
  4 11  1  0
  4 12  1  0
  5 13  1  0
  7 14  1  0
  7 15  1  0
  8 16  1  0
M  END
