
     RDKit          3D

 23 22  0  0  0  0  0  0  0  0999 V2000
    2.6707    1.1677    0.8578 C   0  0  0  0  0  0  0  0  0  0  0  0
    1.8291    0.3224    0.6774 C   0  0  0  0  0  0  0  0  0  0  0  0
    0.7925   -0.6848    0.4498 C   0  0  0  0  0  0  0  0  0  0  0  0
    1.2272   -1.7148   -0.5383 C   0  0  0  0  0  0  0  0  0  0  0  0
   -0.4769    0.0247    0.0676 C   0  0  0  0  0  0  0  0  0  0  0  0
   -0.8771    0.9474    1.1947 C   0  0  0  0  0  0  0  0  0  0  0  0
   -1.6217   -0.8937   -0.2137 C   0  0  0  0  0  0  0  0  0  0  0  0
   -0.2099    0.8539   -1.1714 C   0  0  0  0  0  0  0  0  0  0  0  0
   -1.3953    1.5146   -1.5262 O   0  0  0  0  0  0  0  0  0  0  0  0
    3.4288    1.9190    1.0018 H   0  0  0  0  0  0  0  0  0  0  0  0
    0.5773   -1.2186    1.4210 H   0  0  0  0  0  0  0  0  0  0  0  0
    1.9040   -1.2245   -1.2905 H   0  0  0  0  0  0  0  0  0  0  0  0
    1.8674   -2.4894   -0.0349 H   0  0  0  0  0  0  0  0  0  0  0  0
    0.3984   -2.2223   -1.0395 H   0  0  0  0  0  0  0  0  0  0  0  0
   -0.2846    0.7065    2.1111 H   0  0  0  0  0  0  0  0  0  0  0  0
   -1.9508    0.7806    1.5024 H   0  0  0  0  0  0  0  0  0  0  0  0
   -0.7312    2.0116    0.9660 H   0  0  0  0  0  0  0  0  0  0  0  0
   -1.5330   -1.4502   -1.1663 H   0  0  0  0  0  0  0  0  0  0  0  0
   -2.5460   -0.2751   -0.2568 H   0  0  0  0  0  0  0  0  0  0  0  0
   -1.7929   -1.6242    0.6141 H   0  0  0  0  0  0  0  0  0  0  0  0
    0.5244    1.6404   -0.8697 H   0  0  0  0  0  0  0  0  0  0  0  0
    0.1969    0.2577   -1.9991 H   0  0  0  0  0  0  0  0  0  0  0  0
   -1.9974    1.6510   -0.7572 H   0  0  0  0  0  0  0  0  0  0  0  0
  1  2  3  0
  2  3  1  0
  3  4  1  0
  3  5  1  0
  5  6  1  0
  5  7  1  0
  5  8  1  0
  8  9  1  0
  1 10  1  0
  3 11  1  0
  4 12  1  0
  4 13  1  0
  4 14  1  0
  6 15  1  0
  6 16  1  0
  6 17  1  0
  7 18  1  0
  7 19  1  0
  7 20  1  0
  8 21  1  0
  8 22  1  0
  9 23  1  0
M  END
