
     RDKit          3D

 21 21  0  0  0  0  0  0  0  0999 V2000
    3.9846    0.1809   -0.1848 C   0  0  0  0  0  0  0  0  0  0  0  0
    2.5805   -0.0486   -0.1023 C   0  0  0  0  0  0  0  0  0  0  0  0
    1.2549   -0.2578   -0.0452 C   0  0  0  0  0  0  0  0  0  0  0  0
    0.7656   -1.0705   -1.0898 C   0  0  0  0  0  0  0  0  0  0  0  0
   -0.6897   -1.2321   -0.9278 C   0  0  0  0  0  0  0  0  0  0  0  0
   -1.0740   -0.0088   -0.2082 C   0  0  0  0  0  0  0  0  0  0  0  0
   -2.3708   -0.1507    0.5755 C   0  0  0  0  0  0  0  0  0  0  0  0
    0.1392    0.1227    0.7689 C   0  0  0  0  0  0  0  0  0  0  0  0
    0.0965    1.6270    1.1822 C   0  0  0  0  0  0  0  0  0  0  0  0
    4.9994    0.3490   -0.2480 H   0  0  0  0  0  0  0  0  0  0  0  0
    1.3666   -1.4964   -1.8461 H   0  0  0  0  0  0  0  0  0  0  0  0
   -1.0827   -1.3835   -1.9674 H   0  0  0  0  0  0  0  0  0  0  0  0
   -0.9059   -2.1361   -0.2725 H   0  0  0  0  0  0  0  0  0  0  0  0
   -1.0815    0.9164   -0.7766 H   0  0  0  0  0  0  0  0  0  0  0  0
   -2.2502   -0.5395    1.6093 H   0  0  0  0  0  0  0  0  0  0  0  0
   -2.8815   -1.0154    0.0530 H   0  0  0  0  0  0  0  0  0  0  0  0
   -2.9764    0.7432    0.5383 H   0  0  0  0  0  0  0  0  0  0  0  0
   -0.0735   -0.4809    1.6847 H   0  0  0  0  0  0  0  0  0  0  0  0
   -0.6914    2.0720    0.5257 H   0  0  0  0  0  0  0  0  0  0  0  0
   -0.1414    1.7015    2.2247 H   0  0  0  0  0  0  0  0  0  0  0  0
    1.0317    2.1077    0.7942 H   0  0  0  0  0  0  0  0  0  0  0  0
  1  2  3  0
  2  3  1  0
  3  4  2  0
  4  5  1  0
  5  6  1  0
  6  7  1  0
  6  8  1  0
  8  9  1  0
  8  3  1  0
  1 10  1  0
  4 11  1  0
  5 12  1  0
  5 13  1  0
  6 14  1  0
  7 15  1  0
  7 16  1  0
  7 17  1  0
  8 18  1  0
  9 19  1  0
  9 20  1  0
  9 21  1  0
M  END
