
     RDKit          3D

 15 15  0  0  0  0  0  0  0  0999 V2000
    4.3621    0.7406   -0.2891 C   0  0  0  0  0  0  0  0  0  0  0  0
    2.5774    0.2517    0.0068 C   0  0  0  0  0  0  0  0  0  0  0  0
    1.7571    0.0332    0.1303 C   0  0  0  0  0  0  0  0  0  0  0  0
    0.4645   -0.3118    0.3004 C   0  0  0  0  0  0  0  0  0  0  0  0
   -0.6367   -0.6100    0.4404 C   0  0  0  0  0  0  0  0  0  0  0  0
   -0.9011   -1.0672   -1.2173 O   0  0  0  0  0  0  0  0  0  0  0  0
   -1.9969   -0.7871    0.7336 C   0  0  0  0  0  0  0  0  0  0  0  0
   -2.2682    0.5948    1.0796 O   0  0  0  0  0  0  0  0  0  0  0  0
   -1.4417    0.9015   -0.0068 C   0  0  0  0  0  0  0  0  0  0  0  0
    5.4292    1.0401   -0.4615 H   0  0  0  0  0  0  0  0  0  0  0  0
    0.1552   -0.9494   -1.3408 H   0  0  0  0  0  0  0  0  0  0  0  0
   -2.6897   -0.8743   -0.2497 H   0  0  0  0  0  0  0  0  0  0  0  0
   -2.4059   -1.5054    1.4532 H   0  0  0  0  0  0  0  0  0  0  0  0
   -0.6419    1.6499    0.2313 H   0  0  0  0  0  0  0  0  0  0  0  0
   -1.7635    0.8934   -0.9597 H   0  0  0  0  0  0  0  0  0  0  0  0
  1  2  3  0
  2  3  1  0
  3  4  3  0
  4  5  1  0
  5  6  1  0
  5  7  1  0
  7  8  1  0
  8  9  1  0
  9  5  1  0
  1 10  1  0
  6 11  1  0
  7 12  1  0
  7 13  1  0
  9 14  1  0
  9 15  1  0
M  END
