
     RDKit          3D

 17 18  0  0  0  0  0  0  0  0999 V2000
    1.9784    2.3813    0.1325 C   0  0  0  0  0  0  0  0  0  0  0  0
    1.3165    1.3449   -0.1143 C   0  0  0  0  0  0  0  0  0  0  0  0
    0.5369    0.1541   -0.3803 C   0  0  0  0  0  0  0  0  0  0  0  0
   -0.8035    0.3523   -0.9855 C   0  0  0  0  0  0  0  0  0  0  0  0
   -1.7191    0.2382    0.1973 C   0  0  0  0  0  0  0  0  0  0  0  0
   -1.0866   -0.2852    1.2079 C   0  0  0  0  0  0  0  0  0  0  0  0
    0.3160   -0.6005    0.9013 C   0  0  0  0  0  0  0  0  0  0  0  0
    0.4376   -1.8100   -0.0019 C   0  0  0  0  0  0  0  0  0  0  0  0
    1.2477   -0.9686   -0.8277 O   0  0  0  0  0  0  0  0  0  0  0  0
    2.5284    3.2106    0.3361 H   0  0  0  0  0  0  0  0  0  0  0  0
   -1.1078   -0.3423   -1.7649 H   0  0  0  0  0  0  0  0  0  0  0  0
   -0.8761    1.3933   -1.3699 H   0  0  0  0  0  0  0  0  0  0  0  0
   -2.7466    0.5564    0.1615 H   0  0  0  0  0  0  0  0  0  0  0  0
   -1.5449   -0.4660    2.1783 H   0  0  0  0  0  0  0  0  0  0  0  0
    1.0706   -0.4773    1.6824 H   0  0  0  0  0  0  0  0  0  0  0  0
   -0.5338   -2.0560   -0.4721 H   0  0  0  0  0  0  0  0  0  0  0  0
    0.9861   -2.6254    0.4938 H   0  0  0  0  0  0  0  0  0  0  0  0
  1  2  3  0
  2  3  1  0
  3  4  1  0
  4  5  1  0
  5  6  2  0
  6  7  1  0
  7  8  1  0
  8  9  1  0
  7  3  1  0
  9  3  1  0
  1 10  1  0
  4 11  1  0
  4 12  1  0
  5 13  1  0
  6 14  1  0
  7 15  1  0
  8 16  1  0
  8 17  1  0
M  END
