
     RDKit          3D

 21 21  0  0  0  0  0  0  0  0999 V2000
    4.3154   -0.8801   -0.5334 C   0  0  0  0  0  0  0  0  0  0  0  0
    3.1381   -0.6277   -0.6281 C   0  0  0  0  0  0  0  0  0  0  0  0
    1.7138   -0.3140   -0.7603 C   0  0  0  0  0  0  0  0  0  0  0  0
    1.1190   -0.4182    0.4857 O   0  0  0  0  0  0  0  0  0  0  0  0
   -0.2180   -0.1502    0.5088 C   0  0  0  0  0  0  0  0  0  0  0  0
   -1.0694   -1.0441   -0.3571 C   0  0  0  0  0  0  0  0  0  0  0  0
   -0.7657    0.0363    1.9359 C   0  0  0  0  0  0  0  0  0  0  0  0
   -0.7938    1.1419    0.9252 C   0  0  0  0  0  0  0  0  0  0  0  0
   -2.1977    1.4498    0.4055 C   0  0  0  0  0  0  0  0  0  0  0  0
    5.3542   -1.1158   -0.4359 H   0  0  0  0  0  0  0  0  0  0  0  0
    1.3009   -1.0929   -1.4624 H   0  0  0  0  0  0  0  0  0  0  0  0
    1.5872    0.6545   -1.2390 H   0  0  0  0  0  0  0  0  0  0  0  0
   -1.3482   -0.5686   -1.3155 H   0  0  0  0  0  0  0  0  0  0  0  0
   -1.9943   -1.3818    0.1834 H   0  0  0  0  0  0  0  0  0  0  0  0
   -0.5129   -1.9729   -0.6044 H   0  0  0  0  0  0  0  0  0  0  0  0
   -0.0568    0.1780    2.7543 H   0  0  0  0  0  0  0  0  0  0  0  0
   -1.6872   -0.5084    2.2052 H   0  0  0  0  0  0  0  0  0  0  0  0
   -0.1686    2.0290    1.0149 H   0  0  0  0  0  0  0  0  0  0  0  0
   -2.1837    2.3082   -0.2940 H   0  0  0  0  0  0  0  0  0  0  0  0
   -2.6441    0.5524   -0.0948 H   0  0  0  0  0  0  0  0  0  0  0  0
   -2.8883    1.7245    1.2292 H   0  0  0  0  0  0  0  0  0  0  0  0
  1  2  3  0
  2  3  1  0
  3  4  1  0
  4  5  1  0
  5  6  1  0
  5  7  1  0
  7  8  1  0
  8  9  1  0
  8  5  1  0
  1 10  1  0
  3 11  1  0
  3 12  1  0
  6 13  1  0
  6 14  1  0
  6 15  1  0
  7 16  1  0
  7 17  1  0
  8 18  1  0
  9 19  1  0
  9 20  1  0
  9 21  1  0
M  END
