
     RDKit          3D

 19 19  0  0  0  0  0  0  0  0999 V2000
    2.5905   -1.3342    0.5776 C   0  0  0  0  0  0  0  0  0  0  0  0
    1.7473   -0.5510    0.2154 C   0  0  0  0  0  0  0  0  0  0  0  0
    0.7368    0.4093   -0.2056 C   0  0  0  0  0  0  0  0  0  0  0  0
    0.9244    1.0249   -1.4040 O   0  0  0  0  0  0  0  0  0  0  0  0
    0.2995    1.2778    0.9533 C   0  0  0  0  0  0  0  0  0  0  0  0
   -0.4139    0.1506    1.4267 O   0  0  0  0  0  0  0  0  0  0  0  0
   -0.6435   -0.1491    0.0656 C   0  0  0  0  0  0  0  0  0  0  0  0
   -1.7790    0.6961   -0.4377 C   0  0  0  0  0  0  0  0  0  0  0  0
   -0.7121   -1.6125   -0.2483 C   0  0  0  0  0  0  0  0  0  0  0  0
    3.3255   -2.0240    0.9083 H   0  0  0  0  0  0  0  0  0  0  0  0
    1.6963    1.6348   -1.3503 H   0  0  0  0  0  0  0  0  0  0  0  0
   -0.3674    2.1109    0.6979 H   0  0  0  0  0  0  0  0  0  0  0  0
    1.1097    1.6079    1.6338 H   0  0  0  0  0  0  0  0  0  0  0  0
   -2.5655    0.0279   -0.8791 H   0  0  0  0  0  0  0  0  0  0  0  0
   -1.4722    1.4097   -1.2337 H   0  0  0  0  0  0  0  0  0  0  0  0
   -2.3019    1.2519    0.3901 H   0  0  0  0  0  0  0  0  0  0  0  0
   -1.7204   -1.8371   -0.6565 H   0  0  0  0  0  0  0  0  0  0  0  0
   -0.4587   -2.2519    0.6300 H   0  0  0  0  0  0  0  0  0  0  0  0
    0.0046   -1.8418   -1.0835 H   0  0  0  0  0  0  0  0  0  0  0  0
  1  2  3  0
  2  3  1  0
  3  4  1  0
  3  5  1  0
  5  6  1  0
  6  7  1  0
  7  8  1  0
  7  9  1  0
  7  3  1  0
  1 10  1  0
  4 11  1  0
  5 12  1  0
  5 13  1  0
  8 14  1  0
  8 15  1  0
  8 16  1  0
  9 17  1  0
  9 18  1  0
  9 19  1  0
M  END
