
     RDKit          3D

 17 17  0  0  0  0  0  0  0  0999 V2000
    1.7126    2.1012    0.6846 C   0  0  0  0  0  0  0  0  0  0  0  0
    1.6751    0.5954    0.2319 C   0  0  0  0  0  0  0  0  0  0  0  0
    1.6443   -0.6747   -0.1732 C   0  0  0  0  0  0  0  0  0  0  0  0
    0.3034   -1.3651   -0.5030 C   0  0  0  0  0  0  0  0  0  0  0  0
   -0.7818   -1.3219    0.4976 C   0  0  0  0  0  0  0  0  0  0  0  0
   -0.7956   -0.3553    1.6113 O   0  0  0  0  0  0  0  0  0  0  0  0
   -0.6991   -0.3036   -0.8258 C   0  0  0  0  0  0  0  0  0  0  0  0
   -1.1329    0.6100   -0.6584 C   0  0  0  0  0  0  0  0  0  0  0  0
   -1.7045    1.8237   -0.4597 C   0  0  0  0  0  0  0  0  0  0  0  0
    1.7438    3.0317    0.9801 H   0  0  0  0  0  0  0  0  0  0  0  0
    2.4184   -0.9647   -0.9614 H   0  0  0  0  0  0  0  0  0  0  0  0
    2.1180   -1.3213    0.7189 H   0  0  0  0  0  0  0  0  0  0  0  0
    0.3832   -2.3573   -0.9591 H   0  0  0  0  0  0  0  0  0  0  0  0
   -1.7462   -1.7955    0.4066 H   0  0  0  0  0  0  0  0  0  0  0  0
   -1.6445    0.2352    1.5040 H   0  0  0  0  0  0  0  0  0  0  0  0
   -1.1846   -1.0104   -1.8454 H   0  0  0  0  0  0  0  0  0  0  0  0
   -2.3096    3.0725   -0.2491 H   0  0  0  0  0  0  0  0  0  0  0  0
  1  2  3  0
  2  3  1  0
  3  4  1  0
  4  5  1  0
  5  6  1  0
  5  7  1  0
  7  8  1  0
  8  9  3  0
  7  4  1  0
  1 10  1  0
  3 11  1  0
  3 12  1  0
  4 13  1  0
  5 14  1  0
  6 15  1  0
  7 16  1  0
  9 17  1  0
M  END
