
     RDKit          3D

 23 23  0  0  0  0  0  0  0  0999 V2000
   -0.5381    2.9002   -1.9844 C   0  0  0  0  0  0  0  0  0  0  0  0
   -0.1898    1.8322   -1.6149 C   0  0  0  0  0  0  0  0  0  0  0  0
    0.2312    0.5056   -1.1752 C   0  0  0  0  0  0  0  0  0  0  0  0
    0.3284    0.3555    0.3604 C   0  0  0  0  0  0  0  0  0  0  0  0
    1.6205   -0.2788    0.7995 C   0  0  0  0  0  0  0  0  0  0  0  0
    1.6819   -0.4129    2.3057 C   0  0  0  0  0  0  0  0  0  0  0  0
   -0.7042   -0.3303   -0.4240 C   0  0  0  0  0  0  0  0  0  0  0  0
   -0.6298   -1.8643   -0.5625 C   0  0  0  0  0  0  0  0  0  0  0  0
   -2.1362    0.1499   -0.2832 C   0  0  0  0  0  0  0  0  0  0  0  0
   -0.8628    3.9245   -2.3565 H   0  0  0  0  0  0  0  0  0  0  0  0
    1.0132    0.0644   -1.7889 H   0  0  0  0  0  0  0  0  0  0  0  0
    0.0174    1.2497    0.9588 H   0  0  0  0  0  0  0  0  0  0  0  0
    1.8074   -1.2453    0.3320 H   0  0  0  0  0  0  0  0  0  0  0  0
    2.4633    0.3900    0.5130 H   0  0  0  0  0  0  0  0  0  0  0  0
    2.0919    0.5283    2.7248 H   0  0  0  0  0  0  0  0  0  0  0  0
    2.2526   -1.2988    2.5992 H   0  0  0  0  0  0  0  0  0  0  0  0
    0.6157   -0.5928    2.6375 H   0  0  0  0  0  0  0  0  0  0  0  0
   -1.4830   -2.2773   -1.0917 H   0  0  0  0  0  0  0  0  0  0  0  0
    0.3402   -2.0639   -1.1058 H   0  0  0  0  0  0  0  0  0  0  0  0
   -0.5086   -2.3258    0.4333 H   0  0  0  0  0  0  0  0  0  0  0  0
   -2.8404   -0.5634   -0.7768 H   0  0  0  0  0  0  0  0  0  0  0  0
   -2.2161    1.1635   -0.7247 H   0  0  0  0  0  0  0  0  0  0  0  0
   -2.3546    0.1897    0.8088 H   0  0  0  0  0  0  0  0  0  0  0  0
  1  2  3  0
  2  3  1  0
  3  4  1  0
  4  5  1  0
  5  6  1  0
  4  7  1  0
  7  8  1  0
  7  9  1  0
  7  3  1  0
  1 10  1  0
  3 11  1  0
  4 12  1  0
  5 13  1  0
  5 14  1  0
  6 15  1  0
  6 16  1  0
  6 17  1  0
  8 18  1  0
  8 19  1  0
  8 20  1  0
  9 21  1  0
  9 22  1  0
  9 23  1  0
M  END
