
     RDKit          3D

 16 15  0  0  0  0  0  0  0  0999 V2000
    1.5903   -2.1456   -0.9155 C   0  0  0  0  0  0  0  0  0  0  0  0
    1.1878   -1.3060   -0.1444 C   0  0  0  0  0  0  0  0  0  0  0  0
    0.6844   -0.3053    0.8012 C   0  0  0  0  0  0  0  0  0  0  0  0
    1.3030    0.9850    0.6119 C   0  0  0  0  0  0  0  0  0  0  0  0
    1.8192    2.0611    0.4752 C   0  0  0  0  0  0  0  0  0  0  0  0
   -0.7985   -0.1841    0.6024 C   0  0  0  0  0  0  0  0  0  0  0  0
   -1.1922    0.2427   -0.7779 C   0  0  0  0  0  0  0  0  0  0  0  0
   -2.5851    0.3128   -0.8168 O   0  0  0  0  0  0  0  0  0  0  0  0
    1.9357   -2.8980   -1.5979 H   0  0  0  0  0  0  0  0  0  0  0  0
    0.8461   -0.7050    1.8252 H   0  0  0  0  0  0  0  0  0  0  0  0
    2.2911    3.0032    0.3575 H   0  0  0  0  0  0  0  0  0  0  0  0
   -1.2265   -1.2160    0.7383 H   0  0  0  0  0  0  0  0  0  0  0  0
   -1.2867    0.4941    1.3214 H   0  0  0  0  0  0  0  0  0  0  0  0
   -0.8033    1.2626   -0.9688 H   0  0  0  0  0  0  0  0  0  0  0  0
   -0.8322   -0.4692   -1.5580 H   0  0  0  0  0  0  0  0  0  0  0  0
   -2.9330    0.8676   -1.5388 H   0  0  0  0  0  0  0  0  0  0  0  0
  1  2  3  0
  2  3  1  0
  3  4  1  0
  4  5  3  0
  3  6  1  0
  6  7  1  0
  7  8  1  0
  1  9  1  0
  3 10  1  0
  5 11  1  0
  6 12  1  0
  6 13  1  0
  7 14  1  0
  7 15  1  0
  8 16  1  0
M  END
