
     RDKit          3D

 17 17  0  0  0  0  0  0  0  0999 V2000
    1.4818   -2.6422   -0.7073 C   0  0  0  0  0  0  0  0  0  0  0  0
    0.5880   -1.6370   -0.5300 C   0  0  0  0  0  0  0  0  0  0  0  0
   -0.2527   -0.6798   -0.3527 C   0  0  0  0  0  0  0  0  0  0  0  0
   -0.8191   -0.6435    1.1102 C   0  0  0  0  0  0  0  0  0  0  0  0
    0.9128    0.6005   -0.0450 C   0  0  0  0  0  0  0  0  0  0  0  0
   -0.0873    1.2754   -0.9582 C   0  0  0  0  0  0  0  0  0  0  0  0
   -1.0788    2.1360   -0.2136 C   0  0  0  0  0  0  0  0  0  0  0  0
   -1.2552    3.1437    0.1913 O   0  0  0  0  0  0  0  0  0  0  0  0
   -0.6108    0.1212   -1.3506 O   0  0  0  0  0  0  0  0  0  0  0  0
    2.3620   -3.6027   -0.8892 H   0  0  0  0  0  0  0  0  0  0  0  0
   -0.9097    0.3709    1.5368 H   0  0  0  0  0  0  0  0  0  0  0  0
    0.2197   -0.8996    1.7252 H   0  0  0  0  0  0  0  0  0  0  0  0
   -1.4538   -1.4214    1.4537 H   0  0  0  0  0  0  0  0  0  0  0  0
    1.8101    0.1707   -0.2825 H   0  0  0  0  0  0  0  0  0  0  0  0
    0.6191    0.9098    1.0060 H   0  0  0  0  0  0  0  0  0  0  0  0
    0.4983    1.8776   -1.6752 H   0  0  0  0  0  0  0  0  0  0  0  0
   -2.0243    1.3633   -0.0190 H   0  0  0  0  0  0  0  0  0  0  0  0
  1  2  3  0
  2  3  1  0
  3  4  1  0
  3  5  1  0
  5  6  1  0
  6  7  1  0
  7  8  2  0
  6  9  1  0
  9  3  1  0
  1 10  1  0
  4 11  1  0
  4 12  1  0
  4 13  1  0
  5 14  1  0
  5 15  1  0
  6 16  1  0
  7 17  1  0
M  END
