
     RDKit          3D

 16 17  0  0  0  0  0  0  0  0999 V2000
    1.5692    2.7840   -2.0316 C   0  0  0  0  0  0  0  0  0  0  0  0
    0.8687    1.9169   -1.2000 C   0  0  0  0  0  0  0  0  0  0  0  0
    0.1840    1.0327   -0.3574 C   0  0  0  0  0  0  0  0  0  0  0  0
   -0.5999   -0.0401   -0.9541 C   0  0  0  0  0  0  0  0  0  0  0  0
    0.1192   -0.7529    0.1873 C   0  0  0  0  0  0  0  0  0  0  0  0
   -0.2806   -2.0563    0.6389 C   0  0  0  0  0  0  0  0  0  0  0  0
   -0.6555   -0.8594    1.4661 C   0  0  0  0  0  0  0  0  0  0  0  0
    1.2120   -0.0114   -0.0009 O   0  0  0  0  0  0  0  0  0  0  0  0
    2.0771    3.4195   -2.6550 H   0  0  0  0  0  0  0  0  0  0  0  0
   -0.2240    1.5140    0.5508 H   0  0  0  0  0  0  0  0  0  0  0  0
   -0.3175   -0.4663   -1.8899 H   0  0  0  0  0  0  0  0  0  0  0  0
   -1.6881    0.1560   -0.7898 H   0  0  0  0  0  0  0  0  0  0  0  0
   -1.1018   -2.6555    0.1943 H   0  0  0  0  0  0  0  0  0  0  0  0
    0.5640   -2.7420    0.9422 H   0  0  0  0  0  0  0  0  0  0  0  0
   -1.6865   -0.4683    1.4751 H   0  0  0  0  0  0  0  0  0  0  0  0
   -0.0403   -0.7710    2.3700 H   0  0  0  0  0  0  0  0  0  0  0  0
  1  2  3  0
  2  3  1  0
  3  4  1  0
  4  5  1  0
  5  6  1  0
  6  7  1  0
  5  8  1  0
  8  3  1  0
  7  5  1  0
  1  9  1  0
  3 10  1  0
  4 11  1  0
  4 12  1  0
  6 13  1  0
  6 14  1  0
  7 15  1  0
  7 16  1  0
M  END
