
     RDKit          3D

 17 17  0  0  0  0  0  0  0  0999 V2000
    3.2237   -0.6990   -0.4084 C   0  0  0  0  0  0  0  0  0  0  0  0
    2.0926   -0.3096   -0.4313 C   0  0  0  0  0  0  0  0  0  0  0  0
    0.7002    0.1785   -0.4416 C   0  0  0  0  0  0  0  0  0  0  0  0
   -0.0379   -0.4605   -1.3973 O   0  0  0  0  0  0  0  0  0  0  0  0
   -1.3743   -0.5986   -1.1824 C   0  0  0  0  0  0  0  0  0  0  0  0
   -1.9667    0.3085   -0.1734 C   0  0  0  0  0  0  0  0  0  0  0  0
   -1.2399    0.6068    0.8874 C   0  0  0  0  0  0  0  0  0  0  0  0
    0.1059   -0.0123    0.9430 C   0  0  0  0  0  0  0  0  0  0  0  0
    0.9022    0.4997    1.9343 O   0  0  0  0  0  0  0  0  0  0  0  0
    4.2435   -1.0456   -0.3946 H   0  0  0  0  0  0  0  0  0  0  0  0
    0.6754    1.2718   -0.6535 H   0  0  0  0  0  0  0  0  0  0  0  0
   -1.5783   -1.6560   -0.9144 H   0  0  0  0  0  0  0  0  0  0  0  0
   -1.9658   -0.4292   -2.1302 H   0  0  0  0  0  0  0  0  0  0  0  0
   -2.9706    0.7347   -0.2732 H   0  0  0  0  0  0  0  0  0  0  0  0
   -1.5915    1.2548    1.6649 H   0  0  0  0  0  0  0  0  0  0  0  0
   -0.0646   -1.1177    1.0463 H   0  0  0  0  0  0  0  0  0  0  0  0
    0.8460    1.4736    1.9243 H   0  0  0  0  0  0  0  0  0  0  0  0
  1  2  3  0
  2  3  1  0
  3  4  1  0
  4  5  1  0
  5  6  1  0
  6  7  2  0
  7  8  1  0
  8  9  1  0
  8  3  1  0
  1 10  1  0
  3 11  1  0
  5 12  1  0
  5 13  1  0
  6 14  1  0
  7 15  1  0
  8 16  1  0
  9 17  1  0
M  END
