
     RDKit          3D

 19 19  0  0  0  0  0  0  0  0999 V2000
    3.0416    0.4627   -0.4734 C   0  0  0  0  0  0  0  0  0  0  0  0
    1.8653    0.2227   -0.3518 C   0  0  0  0  0  0  0  0  0  0  0  0
    0.4354   -0.0762   -0.2284 C   0  0  0  0  0  0  0  0  0  0  0  0
    0.0233   -1.0485   -1.3054 C   0  0  0  0  0  0  0  0  0  0  0  0
   -0.3896    1.1782   -0.2300 C   0  0  0  0  0  0  0  0  0  0  0  0
   -1.6909    0.7669    0.3930 C   0  0  0  0  0  0  0  0  0  0  0  0
   -1.3296   -0.3927    1.2558 C   0  0  0  0  0  0  0  0  0  0  0  0
   -2.0574   -1.0819    1.9509 O   0  0  0  0  0  0  0  0  0  0  0  0
    0.1444   -0.6327    1.1638 C   0  0  0  0  0  0  0  0  0  0  0  0
    4.0908    0.6750   -0.5786 H   0  0  0  0  0  0  0  0  0  0  0  0
    0.8827   -1.3798   -1.9193 H   0  0  0  0  0  0  0  0  0  0  0  0
   -0.7845   -0.6206   -1.9316 H   0  0  0  0  0  0  0  0  0  0  0  0
   -0.3655   -1.9553   -0.7982 H   0  0  0  0  0  0  0  0  0  0  0  0
   -0.5061    1.6159   -1.2438 H   0  0  0  0  0  0  0  0  0  0  0  0
    0.0988    1.9037    0.4475 H   0  0  0  0  0  0  0  0  0  0  0  0
   -2.4584    0.4837   -0.3635 H   0  0  0  0  0  0  0  0  0  0  0  0
   -2.0839    1.5678    1.0696 H   0  0  0  0  0  0  0  0  0  0  0  0
    0.6799    0.0078    1.9002 H   0  0  0  0  0  0  0  0  0  0  0  0
    0.4038   -1.6967    1.2431 H   0  0  0  0  0  0  0  0  0  0  0  0
  1  2  3  0
  2  3  1  0
  3  4  1  0
  3  5  1  0
  5  6  1  0
  6  7  1  0
  7  8  2  0
  7  9  1  0
  9  3  1  0
  1 10  1  0
  4 11  1  0
  4 12  1  0
  4 13  1  0
  5 14  1  0
  5 15  1  0
  6 16  1  0
  6 17  1  0
  9 18  1  0
  9 19  1  0
M  END
