
     RDKit          3D

 23 23  0  0  0  0  0  0  0  0999 V2000
    2.9846    1.5883   -1.3450 C   0  0  0  0  0  0  0  0  0  0  0  0
    2.2962    0.6150   -1.2185 C   0  0  0  0  0  0  0  0  0  0  0  0
    1.4705   -0.5768   -1.0811 C   0  0  0  0  0  0  0  0  0  0  0  0
    0.0234   -0.2416   -0.7940 C   0  0  0  0  0  0  0  0  0  0  0  0
   -0.7028   -1.5882   -0.6789 C   0  0  0  0  0  0  0  0  0  0  0  0
   -1.7733   -1.3954    0.3562 C   0  0  0  0  0  0  0  0  0  0  0  0
   -1.5825   -0.0636    0.9919 C   0  0  0  0  0  0  0  0  0  0  0  0
   -0.1715    0.3090    0.5933 C   0  0  0  0  0  0  0  0  0  0  0  0
   -0.0147    1.7878    0.6871 C   0  0  0  0  0  0  0  0  0  0  0  0
    3.5884    2.4730   -1.4538 H   0  0  0  0  0  0  0  0  0  0  0  0
    1.8331   -1.1906   -0.2182 H   0  0  0  0  0  0  0  0  0  0  0  0
    1.4873   -1.1527   -2.0214 H   0  0  0  0  0  0  0  0  0  0  0  0
   -0.4299    0.3528   -1.5861 H   0  0  0  0  0  0  0  0  0  0  0  0
   -1.0827   -1.9396   -1.6358 H   0  0  0  0  0  0  0  0  0  0  0  0
    0.0041   -2.3642   -0.2775 H   0  0  0  0  0  0  0  0  0  0  0  0
   -1.7641   -2.1764    1.1477 H   0  0  0  0  0  0  0  0  0  0  0  0
   -2.8018   -1.4202   -0.0930 H   0  0  0  0  0  0  0  0  0  0  0  0
   -2.3012    0.7027    0.6110 H   0  0  0  0  0  0  0  0  0  0  0  0
   -1.6129   -0.0813    2.1003 H   0  0  0  0  0  0  0  0  0  0  0  0
    0.5698   -0.1922    1.2488 H   0  0  0  0  0  0  0  0  0  0  0  0
   -0.5603    2.3238   -0.1094 H   0  0  0  0  0  0  0  0  0  0  0  0
   -0.5006    2.1110    1.6523 H   0  0  0  0  0  0  0  0  0  0  0  0
    1.0410    2.1193    0.7741 H   0  0  0  0  0  0  0  0  0  0  0  0
  1  2  3  0
  2  3  1  0
  3  4  1  0
  4  5  1  0
  5  6  1  0
  6  7  1  0
  7  8  1  0
  8  9  1  0
  8  4  1  0
  1 10  1  0
  3 11  1  0
  3 12  1  0
  4 13  1  0
  5 14  1  0
  5 15  1  0
  6 16  1  0
  6 17  1  0
  7 18  1  0
  7 19  1  0
  8 20  1  0
  9 21  1  0
  9 22  1  0
  9 23  1  0
M  END
