
     RDKit          3D

 15 15  0  0  0  0  0  0  0  0999 V2000
    2.1272    0.0065   -1.7961 C   0  0  0  0  0  0  0  0  0  0  0  0
    1.0726   -0.4532   -1.3817 C   0  0  0  0  0  0  0  0  0  0  0  0
   -0.1984   -1.0102   -0.9090 C   0  0  0  0  0  0  0  0  0  0  0  0
   -0.3368   -1.2219    0.6140 C   0  0  0  0  0  0  0  0  0  0  0  0
   -1.0959   -0.1658   -0.0766 C   0  0  0  0  0  0  0  0  0  0  0  0
   -0.6590    1.2830    0.1684 C   0  0  0  0  0  0  0  0  0  0  0  0
    0.5834    1.2877    0.8237 O   0  0  0  0  0  0  0  0  0  0  0  0
    3.0351    0.4217   -2.1502 H   0  0  0  0  0  0  0  0  0  0  0  0
   -0.6197   -1.8074   -1.5577 H   0  0  0  0  0  0  0  0  0  0  0  0
    0.5610   -0.8819    1.1950 H   0  0  0  0  0  0  0  0  0  0  0  0
   -0.7941   -2.1795    0.9019 H   0  0  0  0  0  0  0  0  0  0  0  0
   -2.1966   -0.2514   -0.1813 H   0  0  0  0  0  0  0  0  0  0  0  0
   -0.5111    1.8108   -0.7855 H   0  0  0  0  0  0  0  0  0  0  0  0
   -1.4318    1.7863    0.7849 H   0  0  0  0  0  0  0  0  0  0  0  0
    0.4641    1.3752    1.8143 H   0  0  0  0  0  0  0  0  0  0  0  0
  1  2  3  0
  2  3  1  0
  3  4  1  0
  4  5  1  0
  5  6  1  0
  6  7  1  0
  5  3  1  0
  1  8  1  0
  3  9  1  0
  4 10  1  0
  4 11  1  0
  5 12  1  0
  6 13  1  0
  6 14  1  0
  7 15  1  0
M  END
