
     RDKit          3D

 23 23  0  0  0  0  0  0  0  0999 V2000
   -2.4309    2.8554    0.6312 C   0  0  0  0  0  0  0  0  0  0  0  0
   -1.9564    1.7871    0.3371 C   0  0  0  0  0  0  0  0  0  0  0  0
   -1.3941    0.4893   -0.0346 C   0  0  0  0  0  0  0  0  0  0  0  0
   -2.4295   -0.5610   -0.3291 C   0  0  0  0  0  0  0  0  0  0  0  0
   -0.3366    0.5932   -1.1224 C   0  0  0  0  0  0  0  0  0  0  0  0
   -0.0134    0.1937    0.3155 C   0  0  0  0  0  0  0  0  0  0  0  0
    0.5556   -1.1595    0.4870 C   0  0  0  0  0  0  0  0  0  0  0  0
    2.0400   -1.0804    0.8541 C   0  0  0  0  0  0  0  0  0  0  0  0
    2.7822   -0.3733   -0.2434 C   0  0  0  0  0  0  0  0  0  0  0  0
   -2.8411    3.8041    0.8949 H   0  0  0  0  0  0  0  0  0  0  0  0
   -2.8657   -1.0202    0.5700 H   0  0  0  0  0  0  0  0  0  0  0  0
   -3.2747   -0.0364   -0.8459 H   0  0  0  0  0  0  0  0  0  0  0  0
   -2.0706   -1.3247   -1.0679 H   0  0  0  0  0  0  0  0  0  0  0  0
   -0.0093    1.5891   -1.4662 H   0  0  0  0  0  0  0  0  0  0  0  0
   -0.2849   -0.1780   -1.9050 H   0  0  0  0  0  0  0  0  0  0  0  0
    0.5061    0.9815    0.9390 H   0  0  0  0  0  0  0  0  0  0  0  0
    0.0099   -1.7914    1.2188 H   0  0  0  0  0  0  0  0  0  0  0  0
    0.5156   -1.7072   -0.4745 H   0  0  0  0  0  0  0  0  0  0  0  0
    2.4538   -2.0913    1.0176 H   0  0  0  0  0  0  0  0  0  0  0  0
    2.1361   -0.4634    1.7736 H   0  0  0  0  0  0  0  0  0  0  0  0
    2.6256   -0.8397   -1.2394 H   0  0  0  0  0  0  0  0  0  0  0  0
    3.8613   -0.3565   -0.0173 H   0  0  0  0  0  0  0  0  0  0  0  0
    2.4208    0.6893   -0.2932 H   0  0  0  0  0  0  0  0  0  0  0  0
  1  2  3  0
  2  3  1  0
  3  4  1  0
  3  5  1  0
  5  6  1  0
  6  7  1  0
  7  8  1  0
  8  9  1  0
  6  3  1  0
  1 10  1  0
  4 11  1  0
  4 12  1  0
  4 13  1  0
  5 14  1  0
  5 15  1  0
  6 16  1  0
  7 17  1  0
  7 18  1  0
  8 19  1  0
  8 20  1  0
  9 21  1  0
  9 22  1  0
  9 23  1  0
M  END
