
     RDKit          3D

 14 14  0  0  0  0  0  0  0  0999 V2000
   -0.4316    2.5075    0.3256 C   0  0  0  0  0  0  0  0  0  0  0  0
   -0.2990    1.3088    0.3370 C   0  0  0  0  0  0  0  0  0  0  0  0
   -0.1419   -0.1506    0.3497 C   0  0  0  0  0  0  0  0  0  0  0  0
   -0.1623   -0.8025    1.7104 C   0  0  0  0  0  0  0  0  0  0  0  0
   -1.1417   -0.7969   -0.5254 O   0  0  0  0  0  0  0  0  0  0  0  0
    0.2822   -0.8540   -0.7832 C   0  0  0  0  0  0  0  0  0  0  0  0
    0.6297   -0.1361   -2.0252 C   0  0  0  0  0  0  0  0  0  0  0  0
    1.2686   -0.6823   -2.8897 O   0  0  0  0  0  0  0  0  0  0  0  0
   -0.5462    3.5605    0.3170 H   0  0  0  0  0  0  0  0  0  0  0  0
   -0.9968   -0.4242    2.3279 H   0  0  0  0  0  0  0  0  0  0  0  0
   -0.2507   -1.8960    1.5684 H   0  0  0  0  0  0  0  0  0  0  0  0
    0.8281   -0.6132    2.1721 H   0  0  0  0  0  0  0  0  0  0  0  0
    0.6505   -1.8992   -0.7265 H   0  0  0  0  0  0  0  0  0  0  0  0
    0.3111    0.8783   -2.1583 H   0  0  0  0  0  0  0  0  0  0  0  0
  1  2  3  0
  2  3  1  0
  3  4  1  0
  3  5  1  0
  5  6  1  0
  6  7  1  0
  7  8  2  0
  6  3  1  0
  1  9  1  0
  4 10  1  0
  4 11  1  0
  4 12  1  0
  6 13  1  0
  7 14  1  0
M  END
