
     RDKit          3D

 16 16  0  0  0  0  0  0  0  0999 V2000
    1.9297    1.5157   -0.8181 C   0  0  0  0  0  0  0  0  0  0  0  0
    1.2668    0.7032   -0.1984 C   0  0  0  0  0  0  0  0  0  0  0  0
    0.4594   -0.2553    0.5607 C   0  0  0  0  0  0  0  0  0  0  0  0
    0.8431   -0.2367    1.8913 O   0  0  0  0  0  0  0  0  0  0  0  0
    0.3612   -1.6199   -0.0731 C   0  0  0  0  0  0  0  0  0  0  0  0
   -0.9618   -1.3512   -0.4306 O   0  0  0  0  0  0  0  0  0  0  0  0
   -1.0108   -0.1676    0.2895 C   0  0  0  0  0  0  0  0  0  0  0  0
   -1.4516    0.9646   -0.6067 C   0  0  0  0  0  0  0  0  0  0  0  0
    2.5084    2.2261   -1.3549 H   0  0  0  0  0  0  0  0  0  0  0  0
    1.0163   -1.1213    2.2563 H   0  0  0  0  0  0  0  0  0  0  0  0
    1.0681   -1.6843   -0.9258 H   0  0  0  0  0  0  0  0  0  0  0  0
    0.4015   -2.4681    0.6412 H   0  0  0  0  0  0  0  0  0  0  0  0
   -1.6146   -0.2337    1.2050 H   0  0  0  0  0  0  0  0  0  0  0  0
   -1.2713    1.9546   -0.1189 H   0  0  0  0  0  0  0  0  0  0  0  0
   -0.9878    0.8966   -1.6112 H   0  0  0  0  0  0  0  0  0  0  0  0
   -2.5567    0.8774   -0.7063 H   0  0  0  0  0  0  0  0  0  0  0  0
  1  2  3  0
  2  3  1  0
  3  4  1  0
  3  5  1  0
  5  6  1  0
  6  7  1  0
  7  8  1  0
  7  3  1  0
  1  9  1  0
  4 10  1  0
  5 11  1  0
  5 12  1  0
  7 13  1  0
  8 14  1  0
  8 15  1  0
  8 16  1  0
M  END
