
     RDKit          3D

 19 18  0  0  0  0  0  0  0  0999 V2000
   -2.3713   -0.1864    2.5092 C   0  0  0  0  0  0  0  0  0  0  0  0
   -1.8066   -0.7010    1.4993 C   0  0  0  0  0  0  0  0  0  0  0  0
   -1.1597   -1.2627    0.3582 C   0  0  0  0  0  0  0  0  0  0  0  0
    0.1419   -0.7031    0.1114 C   0  0  0  0  0  0  0  0  0  0  0  0
    1.2689   -0.2218   -0.0940 C   0  0  0  0  0  0  0  0  0  0  0  0
    2.5890    0.3192   -0.3346 C   0  0  0  0  0  0  0  0  0  0  0  0
    2.5072    1.8317   -0.2103 C   0  0  0  0  0  0  0  0  0  0  0  0
   -2.0159   -1.1608   -0.8918 C   0  0  0  0  0  0  0  0  0  0  0  0
   -2.3063    0.1826   -1.2034 O   0  0  0  0  0  0  0  0  0  0  0  0
   -2.8264    0.2489    3.3589 H   0  0  0  0  0  0  0  0  0  0  0  0
   -1.0536   -2.4230    0.4970 H   0  0  0  0  0  0  0  0  0  0  0  0
    3.3296   -0.0259    0.4295 H   0  0  0  0  0  0  0  0  0  0  0  0
    3.0003    0.0870   -1.3417 H   0  0  0  0  0  0  0  0  0  0  0  0
    1.8251    2.3124   -0.9081 H   0  0  0  0  0  0  0  0  0  0  0  0
    2.3086    2.1787    0.8310 H   0  0  0  0  0  0  0  0  0  0  0  0
    3.5807    2.1610   -0.4321 H   0  0  0  0  0  0  0  0  0  0  0  0
   -2.9835   -1.6861   -0.7156 H   0  0  0  0  0  0  0  0  0  0  0  0
   -1.5251   -1.6648   -1.7358 H   0  0  0  0  0  0  0  0  0  0  0  0
   -2.5029    0.7139   -0.3789 H   0  0  0  0  0  0  0  0  0  0  0  0
  1  2  3  0
  2  3  1  0
  3  4  1  0
  4  5  3  0
  5  6  1  0
  6  7  1  0
  3  8  1  0
  8  9  1  0
  1 10  1  0
  3 11  1  0
  6 12  1  0
  6 13  1  0
  7 14  1  0
  7 15  1  0
  7 16  1  0
  8 17  1  0
  8 18  1  0
  9 19  1  0
M  END
