
     RDKit          3D

 19 20  0  0  0  0  0  0  0  0999 V2000
    3.6724    1.2177   -0.7813 C   0  0  0  0  0  0  0  0  0  0  0  0
    2.2692    0.4559   -0.1444 C   0  0  0  0  0  0  0  0  0  0  0  0
    1.2756   -0.0850    0.2842 C   0  0  0  0  0  0  0  0  0  0  0  0
    0.4393   -0.8683   -0.6199 C   0  0  0  0  0  0  0  0  0  0  0  0
   -0.8910   -0.5201    0.1607 C   0  0  0  0  0  0  0  0  0  0  0  0
   -2.2543   -0.7382   -0.2184 C   0  0  0  0  0  0  0  0  0  0  0  0
   -1.7542    0.7002   -0.3866 C   0  0  0  0  0  0  0  0  0  0  0  0
   -0.3716   -0.1422    1.5894 C   0  0  0  0  0  0  0  0  0  0  0  0
    0.4616    0.9029    0.9891 O   0  0  0  0  0  0  0  0  0  0  0  0
    4.7566    1.7999   -1.2480 H   0  0  0  0  0  0  0  0  0  0  0  0
    1.5729   -0.6422    1.2842 H   0  0  0  0  0  0  0  0  0  0  0  0
    0.2181   -0.2715   -1.6115 H   0  0  0  0  0  0  0  0  0  0  0  0
    0.4314   -1.8736   -0.7760 H   0  0  0  0  0  0  0  0  0  0  0  0
   -2.7942   -0.9264    0.8666 H   0  0  0  0  0  0  0  0  0  0  0  0
   -2.8416   -1.1940   -0.9512 H   0  0  0  0  0  0  0  0  0  0  0  0
   -1.9548    1.4380    0.3349 H   0  0  0  0  0  0  0  0  0  0  0  0
   -1.2879    1.0155   -1.3816 H   0  0  0  0  0  0  0  0  0  0  0  0
    0.1120   -0.8305    2.1621 H   0  0  0  0  0  0  0  0  0  0  0  0
   -1.0593    0.5619    2.0740 H   0  0  0  0  0  0  0  0  0  0  0  0
  1  2  3  0
  2  3  1  0
  3  4  1  0
  4  5  1  0
  5  6  1  0
  6  7  1  0
  5  8  1  0
  8  9  1  0
  9  3  1  0
  7  5  1  0
  1 10  1  0
  3 11  1  0
  4 12  1  0
  4 13  1  0
  6 14  1  0
  6 15  1  0
  7 16  1  0
  7 17  1  0
  8 18  1  0
  8 19  1  0
M  END
