
     RDKit          3D

 17 18  0  0  0  0  0  0  0  0999 V2000
    2.6513   -1.5031   -0.5631 C   0  0  0  0  0  0  0  0  0  0  0  0
    1.7896   -0.8449   -0.0358 C   0  0  0  0  0  0  0  0  0  0  0  0
    0.7365   -0.0477    0.5914 C   0  0  0  0  0  0  0  0  0  0  0  0
    0.1406   -0.5734    1.7208 O   0  0  0  0  0  0  0  0  0  0  0  0
   -1.1301   -0.3405    1.2239 C   0  0  0  0  0  0  0  0  0  0  0  0
   -0.5418    0.2070   -0.0411 C   0  0  0  0  0  0  0  0  0  0  0  0
   -0.9658   -0.3136   -1.3664 C   0  0  0  0  0  0  0  0  0  0  0  0
    0.4217    1.3163    0.1099 C   0  0  0  0  0  0  0  0  0  0  0  0
    0.1338    2.2513    1.0822 O   0  0  0  0  0  0  0  0  0  0  0  0
    3.4166   -2.0751   -1.0396 H   0  0  0  0  0  0  0  0  0  0  0  0
   -1.7667   -1.2317    1.0817 H   0  0  0  0  0  0  0  0  0  0  0  0
   -1.6336    0.4766    1.7850 H   0  0  0  0  0  0  0  0  0  0  0  0
   -0.2227   -0.2394   -2.1596 H   0  0  0  0  0  0  0  0  0  0  0  0
   -1.3652   -1.3405   -1.2217 H   0  0  0  0  0  0  0  0  0  0  0  0
   -1.8605    0.2945   -1.6925 H   0  0  0  0  0  0  0  0  0  0  0  0
    1.0308    1.6890   -0.7202 H   0  0  0  0  0  0  0  0  0  0  0  0
   -0.8345    2.2753    1.2451 H   0  0  0  0  0  0  0  0  0  0  0  0
  1  2  3  0
  2  3  1  0
  3  4  1  0
  4  5  1  0
  5  6  1  0
  6  7  1  0
  6  8  1  0
  8  9  1  0
  6  3  1  0
  8  3  1  0
  1 10  1  0
  5 11  1  0
  5 12  1  0
  7 13  1  0
  7 14  1  0
  7 15  1  0
  8 16  1  0
  9 17  1  0
M  END
