
     RDKit          3D

 19 20  0  0  0  0  0  0  0  0999 V2000
    2.7064   -1.3897   -0.2009 C   0  0  0  0  0  0  0  0  0  0  0  0
    1.7950   -0.6071   -0.0722 C   0  0  0  0  0  0  0  0  0  0  0  0
    0.6863    0.3368    0.0960 C   0  0  0  0  0  0  0  0  0  0  0  0
    1.0409    1.7651   -0.1719 C   0  0  0  0  0  0  0  0  0  0  0  0
   -0.0885    1.9915   -0.9340 O   0  0  0  0  0  0  0  0  0  0  0  0
   -0.1628    0.6348   -1.1592 C   0  0  0  0  0  0  0  0  0  0  0  0
   -0.6882   -0.1748   -0.0288 C   0  0  0  0  0  0  0  0  0  0  0  0
   -1.7375    0.5489    0.8230 C   0  0  0  0  0  0  0  0  0  0  0  0
   -0.9822   -1.6065   -0.3389 C   0  0  0  0  0  0  0  0  0  0  0  0
    3.5064   -2.0997   -0.3116 H   0  0  0  0  0  0  0  0  0  0  0  0
    1.9459    1.8836   -0.8375 H   0  0  0  0  0  0  0  0  0  0  0  0
    1.1482    2.3793    0.7397 H   0  0  0  0  0  0  0  0  0  0  0  0
    0.1750    0.1831   -2.0989 H   0  0  0  0  0  0  0  0  0  0  0  0
   -2.5930    0.8135    0.1501 H   0  0  0  0  0  0  0  0  0  0  0  0
   -2.1370   -0.1099    1.5921 H   0  0  0  0  0  0  0  0  0  0  0  0
   -1.2979    1.4385    1.3014 H   0  0  0  0  0  0  0  0  0  0  0  0
   -2.0836   -1.7843   -0.2084 H   0  0  0  0  0  0  0  0  0  0  0  0
   -0.7902   -1.8708   -1.4162 H   0  0  0  0  0  0  0  0  0  0  0  0
   -0.4434   -2.3326    0.2690 H   0  0  0  0  0  0  0  0  0  0  0  0
  1  2  3  0
  2  3  1  0
  3  4  1  0
  4  5  1  0
  5  6  1  0
  6  7  1  0
  7  8  1  0
  7  9  1  0
  6  3  1  0
  7  3  1  0
  1 10  1  0
  4 11  1  0
  4 12  1  0
  6 13  1  0
  8 14  1  0
  8 15  1  0
  8 16  1  0
  9 17  1  0
  9 18  1  0
  9 19  1  0
M  END
