
     RDKit          3D

 15 15  0  0  0  0  0  0  0  0999 V2000
    2.5582    1.0608    1.1361 C   0  0  0  0  0  0  0  0  0  0  0  0
    1.7252    0.4033    0.5658 C   0  0  0  0  0  0  0  0  0  0  0  0
    0.6872   -0.3946   -0.1315 C   0  0  0  0  0  0  0  0  0  0  0  0
   -0.0185    0.4132   -1.1379 C   0  0  0  0  0  0  0  0  0  0  0  0
   -1.3127    0.7397   -0.9091 O   0  0  0  0  0  0  0  0  0  0  0  0
   -2.0642   -0.0745   -0.1238 C   0  0  0  0  0  0  0  0  0  0  0  0
   -1.4419   -0.5821    1.0119 O   0  0  0  0  0  0  0  0  0  0  0  0
   -0.1352   -1.0243    0.9027 C   0  0  0  0  0  0  0  0  0  0  0  0
    0.3281   -1.9103    1.6395 O   0  0  0  0  0  0  0  0  0  0  0  0
    3.3027    1.6295    1.6295 H   0  0  0  0  0  0  0  0  0  0  0  0
    1.2700   -1.2183   -0.6385 H   0  0  0  0  0  0  0  0  0  0  0  0
    0.0349   -0.0895   -2.1495 H   0  0  0  0  0  0  0  0  0  0  0  0
    0.5583    1.3674   -1.2910 H   0  0  0  0  0  0  0  0  0  0  0  0
   -2.5578   -0.8645   -0.7557 H   0  0  0  0  0  0  0  0  0  0  0  0
   -2.9342    0.5443    0.2516 H   0  0  0  0  0  0  0  0  0  0  0  0
  1  2  3  0
  2  3  1  0
  3  4  1  0
  4  5  1  0
  5  6  1  0
  6  7  1  0
  7  8  1  0
  8  9  2  0
  8  3  1  0
  1 10  1  0
  3 11  1  0
  4 12  1  0
  4 13  1  0
  6 14  1  0
  6 15  1  0
M  END
