
     RDKit          3D

 17 17  0  0  0  0  0  0  0  0999 V2000
    1.2196    2.1644   -2.8320 C   0  0  0  0  0  0  0  0  0  0  0  0
    0.7226    1.4350   -1.9972 C   0  0  0  0  0  0  0  0  0  0  0  0
    0.1526    0.5732   -0.9912 C   0  0  0  0  0  0  0  0  0  0  0  0
   -0.9198    1.1633   -0.3909 O   0  0  0  0  0  0  0  0  0  0  0  0
   -1.2585    0.6695    0.8318 C   0  0  0  0  0  0  0  0  0  0  0  0
   -0.3121   -0.3405    1.4041 C   0  0  0  0  0  0  0  0  0  0  0  0
    0.2073   -1.3036    0.6318 C   0  0  0  0  0  0  0  0  0  0  0  0
    0.1134   -1.6911   -0.7404 C   0  0  0  0  0  0  0  0  0  0  0  0
   -0.2326   -0.6365   -1.5983 O   0  0  0  0  0  0  0  0  0  0  0  0
    1.6855    2.8199   -3.5782 H   0  0  0  0  0  0  0  0  0  0  0  0
    0.9883    0.3854   -0.2612 H   0  0  0  0  0  0  0  0  0  0  0  0
   -2.2386    0.1450    0.7329 H   0  0  0  0  0  0  0  0  0  0  0  0
   -1.4021    1.4530    1.6204 H   0  0  0  0  0  0  0  0  0  0  0  0
   -0.0866   -0.2558    2.4192 H   0  0  0  0  0  0  0  0  0  0  0  0
    0.8652   -1.9530    1.2360 H   0  0  0  0  0  0  0  0  0  0  0  0
    1.1098   -2.1269   -1.0578 H   0  0  0  0  0  0  0  0  0  0  0  0
   -0.6141   -2.5014   -0.8919 H   0  0  0  0  0  0  0  0  0  0  0  0
  1  2  3  0
  2  3  1  0
  3  4  1  0
  4  5  1  0
  5  6  1  0
  6  7  2  0
  7  8  1  0
  8  9  1  0
  9  3  1  0
  1 10  1  0
  3 11  1  0
  5 12  1  0
  5 13  1  0
  6 14  1  0
  7 15  1  0
  8 16  1  0
  8 17  1  0
M  END
