
     RDKit          3D

 17 18  0  0  0  0  0  0  0  0999 V2000
    2.5450    0.2922    1.6242 C   0  0  0  0  0  0  0  0  0  0  0  0
    1.7164   -0.1304    0.8976 C   0  0  0  0  0  0  0  0  0  0  0  0
    0.7003   -0.6271   -0.0064 C   0  0  0  0  0  0  0  0  0  0  0  0
    0.9012   -1.7839   -0.7326 O   0  0  0  0  0  0  0  0  0  0  0  0
    0.6660   -0.5856   -1.3862 C   0  0  0  0  0  0  0  0  0  0  0  0
   -0.7675   -0.0435   -1.3836 C   0  0  0  0  0  0  0  0  0  0  0  0
   -0.7202   -0.1989    0.1430 C   0  0  0  0  0  0  0  0  0  0  0  0
   -0.9870    1.1057    0.8006 C   0  0  0  0  0  0  0  0  0  0  0  0
   -1.4968   -1.2806    0.6013 O   0  0  0  0  0  0  0  0  0  0  0  0
    3.2974    0.6805    2.2628 H   0  0  0  0  0  0  0  0  0  0  0  0
    1.4044   -0.1397   -2.0532 H   0  0  0  0  0  0  0  0  0  0  0  0
   -0.8187    0.9920   -1.7195 H   0  0  0  0  0  0  0  0  0  0  0  0
   -1.5143   -0.7244   -1.8096 H   0  0  0  0  0  0  0  0  0  0  0  0
   -0.9038    1.9792    0.1029 H   0  0  0  0  0  0  0  0  0  0  0  0
   -0.3578    1.3241    1.6668 H   0  0  0  0  0  0  0  0  0  0  0  0
   -2.0738    1.1080    1.1093 H   0  0  0  0  0  0  0  0  0  0  0  0
   -1.5909   -1.9677   -0.1174 H   0  0  0  0  0  0  0  0  0  0  0  0
  1  2  3  0
  2  3  1  0
  3  4  1  0
  4  5  1  0
  5  6  1  0
  6  7  1  0
  7  8  1  0
  7  9  1  0
  5  3  1  0
  7  3  1  0
  1 10  1  0
  5 11  1  0
  6 12  1  0
  6 13  1  0
  8 14  1  0
  8 15  1  0
  8 16  1  0
  9 17  1  0
M  END
