
     RDKit          3D

 19 18  0  0  0  0  0  0  0  0999 V2000
    2.4252    1.1283    1.5284 C   0  0  0  0  0  0  0  0  0  0  0  0
    2.1656    0.2889    0.9554 C   0  0  0  0  0  0  0  0  0  0  0  0
    1.7737   -0.9121    0.1419 C   0  0  0  0  0  0  0  0  0  0  0  0
    0.2563   -1.0772    0.3292 C   0  0  0  0  0  0  0  0  0  0  0  0
    0.0066   -1.2962    1.6548 O   0  0  0  0  0  0  0  0  0  0  0  0
   -0.2711    0.2947   -0.1083 C   0  0  0  0  0  0  0  0  0  0  0  0
   -1.6683    0.4844   -0.1421 C   0  0  0  0  0  0  0  0  0  0  0  0
   -2.0664    0.5574   -1.7813 C   0  0  0  0  0  0  0  0  0  0  0  0
   -2.6404    0.6030    0.4396 O   0  0  0  0  0  0  0  0  0  0  0  0
    2.7357    2.1892    2.2369 H   0  0  0  0  0  0  0  0  0  0  0  0
    2.3186   -1.7897    0.4952 H   0  0  0  0  0  0  0  0  0  0  0  0
    1.8990   -0.6636   -0.9177 H   0  0  0  0  0  0  0  0  0  0  0  0
   -0.0525   -1.8760   -0.3601 H   0  0  0  0  0  0  0  0  0  0  0  0
   -0.9857   -1.2401    1.8822 H   0  0  0  0  0  0  0  0  0  0  0  0
    0.2515    0.4986   -1.0546 H   0  0  0  0  0  0  0  0  0  0  0  0
    0.1572    0.9888    0.7008 H   0  0  0  0  0  0  0  0  0  0  0  0
   -2.8831    1.2630   -1.7565 H   0  0  0  0  0  0  0  0  0  0  0  0
   -2.2359   -0.4540   -2.0299 H   0  0  0  0  0  0  0  0  0  0  0  0
   -1.1861    1.0127   -2.2140 H   0  0  0  0  0  0  0  0  0  0  0  0
  1  2  3  0
  2  3  1  0
  3  4  1  0
  4  5  1  0
  4  6  1  0
  6  7  1  0
  7  8  1  0
  7  9  2  0
  1 10  1  0
  3 11  1  0
  3 12  1  0
  4 13  1  0
  5 14  1  0
  6 15  1  0
  6 16  1  0
  8 17  1  0
  8 18  1  0
  8 19  1  0
M  END
