
     RDKit          3D

 19 19  0  0  0  0  0  0  0  0999 V2000
    3.0828   -0.4009    0.5207 C   0  0  0  0  0  0  0  0  0  0  0  0
    1.8702   -0.5705    0.5261 C   0  0  0  0  0  0  0  0  0  0  0  0
    0.4245   -0.7796    0.5080 C   0  0  0  0  0  0  0  0  0  0  0  0
    0.0285   -1.8191   -0.5194 C   0  0  0  0  0  0  0  0  0  0  0  0
   -0.0203   -0.8169   -1.4789 O   0  0  0  0  0  0  0  0  0  0  0  0
   -0.2721    0.1171   -0.4756 C   0  0  0  0  0  0  0  0  0  0  0  0
    0.3777    1.4581   -0.6567 C   0  0  0  0  0  0  0  0  0  0  0  0
   -1.7574    0.2718   -0.2873 C   0  0  0  0  0  0  0  0  0  0  0  0
   -2.0728    1.1973    0.7081 O   0  0  0  0  0  0  0  0  0  0  0  0
    4.1295   -0.2372    0.5228 H   0  0  0  0  0  0  0  0  0  0  0  0
   -0.0223   -0.8894    1.4950 H   0  0  0  0  0  0  0  0  0  0  0  0
   -0.9578   -2.2537   -0.2563 H   0  0  0  0  0  0  0  0  0  0  0  0
    0.8110   -2.5557   -0.7534 H   0  0  0  0  0  0  0  0  0  0  0  0
    0.1433    1.8623   -1.6657 H   0  0  0  0  0  0  0  0  0  0  0  0
    1.4834    1.4203   -0.4806 H   0  0  0  0  0  0  0  0  0  0  0  0
   -0.0378    2.1404    0.1062 H   0  0  0  0  0  0  0  0  0  0  0  0
   -2.1570    0.7013   -1.2349 H   0  0  0  0  0  0  0  0  0  0  0  0
   -2.2803   -0.6938   -0.1483 H   0  0  0  0  0  0  0  0  0  0  0  0
   -2.7731    1.8481    0.4097 H   0  0  0  0  0  0  0  0  0  0  0  0
  1  2  3  0
  2  3  1  0
  3  4  1  0
  4  5  1  0
  5  6  1  0
  6  7  1  0
  6  8  1  0
  8  9  1  0
  6  3  1  0
  1 10  1  0
  3 11  1  0
  4 12  1  0
  4 13  1  0
  7 14  1  0
  7 15  1  0
  7 16  1  0
  8 17  1  0
  8 18  1  0
  9 19  1  0
M  END
