
     RDKit          3D

 21 21  0  0  0  0  0  0  0  0999 V2000
    4.0355    0.6839   -0.4000 C   0  0  0  0  0  0  0  0  0  0  0  0
    2.9260    0.3865   -0.0266 C   0  0  0  0  0  0  0  0  0  0  0  0
    1.5699    0.0182    0.4567 C   0  0  0  0  0  0  0  0  0  0  0  0
    0.5698    0.3746   -0.5888 C   0  0  0  0  0  0  0  0  0  0  0  0
   -0.8405    0.0675   -0.2397 C   0  0  0  0  0  0  0  0  0  0  0  0
   -1.7785    0.4092   -1.2330 O   0  0  0  0  0  0  0  0  0  0  0  0
   -1.0870   -1.3514    0.2311 C   0  0  0  0  0  0  0  0  0  0  0  0
   -2.1939   -0.7503    1.1113 C   0  0  0  0  0  0  0  0  0  0  0  0
   -1.3414    0.5300    1.0875 C   0  0  0  0  0  0  0  0  0  0  0  0
    5.0181    0.9348   -0.7150 H   0  0  0  0  0  0  0  0  0  0  0  0
    1.6362   -1.0856    0.6107 H   0  0  0  0  0  0  0  0  0  0  0  0
    1.4052    0.5298    1.4040 H   0  0  0  0  0  0  0  0  0  0  0  0
    0.8795   -0.0309   -1.5738 H   0  0  0  0  0  0  0  0  0  0  0  0
    0.6341    1.4961   -0.7219 H   0  0  0  0  0  0  0  0  0  0  0  0
   -1.7264    1.3646   -1.4702 H   0  0  0  0  0  0  0  0  0  0  0  0
   -0.2726   -1.6864    0.8657 H   0  0  0  0  0  0  0  0  0  0  0  0
   -1.4615   -2.0508   -0.5326 H   0  0  0  0  0  0  0  0  0  0  0  0
   -2.2971   -1.2105    2.0923 H   0  0  0  0  0  0  0  0  0  0  0  0
   -3.1210   -0.5499    0.5375 H   0  0  0  0  0  0  0  0  0  0  0  0
   -1.9245    1.4569    1.0919 H   0  0  0  0  0  0  0  0  0  0  0  0
   -0.6300    0.4637    1.9361 H   0  0  0  0  0  0  0  0  0  0  0  0
  1  2  3  0
  2  3  1  0
  3  4  1  0
  4  5  1  0
  5  6  1  0
  5  7  1  0
  7  8  1  0
  8  9  1  0
  9  5  1  0
  1 10  1  0
  3 11  1  0
  3 12  1  0
  4 13  1  0
  4 14  1  0
  6 15  1  0
  7 16  1  0
  7 17  1  0
  8 18  1  0
  8 19  1  0
  9 20  1  0
  9 21  1  0
M  END
