
     RDKit          3D

 19 19  0  0  0  0  0  0  0  0999 V2000
    3.7848    0.0315   -0.2924 C   0  0  0  0  0  0  0  0  0  0  0  0
    2.5812   -0.0303   -0.3415 C   0  0  0  0  0  0  0  0  0  0  0  0
    1.1251   -0.0811   -0.3990 C   0  0  0  0  0  0  0  0  0  0  0  0
    0.4762   -1.1899   -0.6651 C   0  0  0  0  0  0  0  0  0  0  0  0
   -0.9732   -0.9147   -0.6509 C   0  0  0  0  0  0  0  0  0  0  0  0
   -1.1021    0.3678    0.0898 C   0  0  0  0  0  0  0  0  0  0  0  0
   -1.2761    0.0988    1.5839 C   0  0  0  0  0  0  0  0  0  0  0  0
   -2.1846    1.1045   -0.3691 O   0  0  0  0  0  0  0  0  0  0  0  0
    0.2234    1.0657   -0.1689 C   0  0  0  0  0  0  0  0  0  0  0  0
    4.8422    0.0919   -0.2666 H   0  0  0  0  0  0  0  0  0  0  0  0
    0.9402   -2.1847   -0.8702 H   0  0  0  0  0  0  0  0  0  0  0  0
   -1.5131   -1.7563   -0.1644 H   0  0  0  0  0  0  0  0  0  0  0  0
   -1.3204   -0.7666   -1.7075 H   0  0  0  0  0  0  0  0  0  0  0  0
   -0.2851   -0.3200    1.9239 H   0  0  0  0  0  0  0  0  0  0  0  0
   -2.0257   -0.6972    1.7490 H   0  0  0  0  0  0  0  0  0  0  0  0
   -1.5195    1.0293    2.1339 H   0  0  0  0  0  0  0  0  0  0  0  0
   -2.3700    0.7976   -1.2998 H   0  0  0  0  0  0  0  0  0  0  0  0
    0.1322    1.7253   -1.0390 H   0  0  0  0  0  0  0  0  0  0  0  0
    0.4645    1.6285    0.7539 H   0  0  0  0  0  0  0  0  0  0  0  0
  1  2  3  0
  2  3  1  0
  3  4  2  0
  4  5  1  0
  5  6  1  0
  6  7  1  0
  6  8  1  0
  6  9  1  0
  9  3  1  0
  1 10  1  0
  4 11  1  0
  5 12  1  0
  5 13  1  0
  7 14  1  0
  7 15  1  0
  7 16  1  0
  8 17  1  0
  9 18  1  0
  9 19  1  0
M  END
