
     RDKit          3D

 19 19  0  0  0  0  0  0  0  0999 V2000
    2.4847    2.4330   -1.0356 C   0  0  0  0  0  0  0  0  0  0  0  0
    2.0620    1.3107   -0.9134 C   0  0  0  0  0  0  0  0  0  0  0  0
    1.5319   -0.0577   -0.7423 C   0  0  0  0  0  0  0  0  0  0  0  0
    0.3737   -0.0531    0.2250 C   0  0  0  0  0  0  0  0  0  0  0  0
   -0.1646   -1.4588    0.3957 C   0  0  0  0  0  0  0  0  0  0  0  0
   -1.4572   -1.0878   -0.3127 C   0  0  0  0  0  0  0  0  0  0  0  0
   -2.5512   -1.2924    0.5353 O   0  0  0  0  0  0  0  0  0  0  0  0
   -0.9563    0.3247   -0.3831 C   0  0  0  0  0  0  0  0  0  0  0  0
   -1.6637    1.2457    0.3580 O   0  0  0  0  0  0  0  0  0  0  0  0
    2.8546    3.4360   -1.1619 H   0  0  0  0  0  0  0  0  0  0  0  0
    2.3169   -0.7358   -0.3032 H   0  0  0  0  0  0  0  0  0  0  0  0
    1.1576   -0.4329   -1.7093 H   0  0  0  0  0  0  0  0  0  0  0  0
    0.6215    0.4637    1.1716 H   0  0  0  0  0  0  0  0  0  0  0  0
    0.3628   -2.2404   -0.1662 H   0  0  0  0  0  0  0  0  0  0  0  0
   -0.2970   -1.7265    1.4685 H   0  0  0  0  0  0  0  0  0  0  0  0
   -1.6259   -1.5973   -1.2671 H   0  0  0  0  0  0  0  0  0  0  0  0
   -2.7738   -0.3831    0.9080 H   0  0  0  0  0  0  0  0  0  0  0  0
   -0.8936    0.6544   -1.4508 H   0  0  0  0  0  0  0  0  0  0  0  0
   -1.3826    1.1976    1.3239 H   0  0  0  0  0  0  0  0  0  0  0  0
  1  2  3  0
  2  3  1  0
  3  4  1  0
  4  5  1  0
  5  6  1  0
  6  7  1  0
  6  8  1  0
  8  9  1  0
  8  4  1  0
  1 10  1  0
  3 11  1  0
  3 12  1  0
  4 13  1  0
  5 14  1  0
  5 15  1  0
  6 16  1  0
  7 17  1  0
  8 18  1  0
  9 19  1  0
M  END
