
     RDKit          3D

 19 18  0  0  0  0  0  0  0  0999 V2000
    3.6672    1.5216   -0.0392 C   0  0  0  0  0  0  0  0  0  0  0  0
    2.6771    0.8567    0.1519 C   0  0  0  0  0  0  0  0  0  0  0  0
    1.4834    0.0410    0.4045 C   0  0  0  0  0  0  0  0  0  0  0  0
    0.4069    0.7008   -0.1195 O   0  0  0  0  0  0  0  0  0  0  0  0
   -0.8016    0.0397    0.0477 C   0  0  0  0  0  0  0  0  0  0  0  0
   -1.1515   -0.1918    1.4962 C   0  0  0  0  0  0  0  0  0  0  0  0
   -0.7954   -1.3309   -0.6237 C   0  0  0  0  0  0  0  0  0  0  0  0
   -1.8973    0.8064   -0.6046 C   0  0  0  0  0  0  0  0  0  0  0  0
   -3.0418    0.3980   -0.5743 O   0  0  0  0  0  0  0  0  0  0  0  0
    4.5388    2.1275   -0.2157 H   0  0  0  0  0  0  0  0  0  0  0  0
    1.3223   -0.0317    1.5196 H   0  0  0  0  0  0  0  0  0  0  0  0
    1.6439   -0.9749   -0.0375 H   0  0  0  0  0  0  0  0  0  0  0  0
   -0.8199    0.6513    2.1336 H   0  0  0  0  0  0  0  0  0  0  0  0
   -2.2684   -0.2197    1.5989 H   0  0  0  0  0  0  0  0  0  0  0  0
   -0.7470   -1.1738    1.8284 H   0  0  0  0  0  0  0  0  0  0  0  0
   -0.1562   -2.0277   -0.0707 H   0  0  0  0  0  0  0  0  0  0  0  0
   -0.5306   -1.2235   -1.6907 H   0  0  0  0  0  0  0  0  0  0  0  0
   -1.8413   -1.7050   -0.5878 H   0  0  0  0  0  0  0  0  0  0  0  0
   -1.6885    1.7361   -1.1133 H   0  0  0  0  0  0  0  0  0  0  0  0
  1  2  3  0
  2  3  1  0
  3  4  1  0
  4  5  1  0
  5  6  1  0
  5  7  1  0
  5  8  1  0
  8  9  2  0
  1 10  1  0
  3 11  1  0
  3 12  1  0
  6 13  1  0
  6 14  1  0
  6 15  1  0
  7 16  1  0
  7 17  1  0
  7 18  1  0
  8 19  1  0
M  END
