
     RDKit          3D

 16 16  0  0  0  0  0  0  0  0999 V2000
    4.0816    0.5198    0.3804 C   0  0  0  0  0  0  0  0  0  0  0  0
    3.0467    0.4075   -0.5576 C   0  0  0  0  0  0  0  0  0  0  0  0
    1.9907    0.2698   -1.5182 C   0  0  0  0  0  0  0  0  0  0  0  0
    0.5607    0.3838   -0.8924 C   0  0  0  0  0  0  0  0  0  0  0  0
   -0.4162    0.4603   -0.4446 C   0  0  0  0  0  0  0  0  0  0  0  0
   -1.8081    0.5421    0.1938 C   0  0  0  0  0  0  0  0  0  0  0  0
   -1.8174   -1.0461    0.4909 C   0  0  0  0  0  0  0  0  0  0  0  0
   -2.9752   -0.2205    0.4989 C   0  0  0  0  0  0  0  0  0  0  0  0
    4.7921    0.5936    1.0219 H   0  0  0  0  0  0  0  0  0  0  0  0
    2.1460   -0.7423   -2.0161 H   0  0  0  0  0  0  0  0  0  0  0  0
    2.0690    1.1240   -2.1870 H   0  0  0  0  0  0  0  0  0  0  0  0
   -1.4790    1.0748    1.3120 H   0  0  0  0  0  0  0  0  0  0  0  0
   -1.6067   -1.6813   -0.3522 H   0  0  0  0  0  0  0  0  0  0  0  0
   -1.3157   -1.3276    1.4303 H   0  0  0  0  0  0  0  0  0  0  0  0
   -3.8076   -0.3293   -0.2608 H   0  0  0  0  0  0  0  0  0  0  0  0
   -3.4609   -0.0285    1.5425 H   0  0  0  0  0  0  0  0  0  0  0  0
  1  2  3  0
  2  3  1  0
  3  4  1  0
  4  5  3  0
  5  6  1  0
  6  7  1  0
  7  8  1  0
  8  6  1  0
  1  9  1  0
  3 10  1  0
  3 11  1  0
  6 12  1  0
  7 13  1  0
  7 14  1  0
  8 15  1  0
  8 16  1  0
M  END
