
     RDKit          3D

 21 22  0  0  0  0  0  0  0  0999 V2000
   -2.7004    1.9154    0.5617 C   0  0  0  0  0  0  0  0  0  0  0  0
   -1.9490    0.8849    0.5479 C   0  0  0  0  0  0  0  0  0  0  0  0
   -1.1084   -0.3078    0.5422 C   0  0  0  0  0  0  0  0  0  0  0  0
   -1.0172   -0.8651    1.9474 C   0  0  0  0  0  0  0  0  0  0  0  0
    0.2543    0.1130    0.0557 C   0  0  0  0  0  0  0  0  0  0  0  0
    1.2820   -0.9961   -0.0352 C   0  0  0  0  0  0  0  0  0  0  0  0
    1.9290    0.0909   -0.8797 C   0  0  0  0  0  0  0  0  0  0  0  0
    1.5530    0.5746   -2.1802 C   0  0  0  0  0  0  0  0  0  0  0  0
    0.4309    0.0701   -1.4297 C   0  0  0  0  0  0  0  0  0  0  0  0
   -3.2919    2.7485    0.5601 H   0  0  0  0  0  0  0  0  0  0  0  0
   -1.5178   -1.0486   -0.1217 H   0  0  0  0  0  0  0  0  0  0  0  0
   -1.1295   -1.9420    1.9468 H   0  0  0  0  0  0  0  0  0  0  0  0
   -1.9088   -0.4656    2.4854 H   0  0  0  0  0  0  0  0  0  0  0  0
   -0.1047   -0.4628    2.4504 H   0  0  0  0  0  0  0  0  0  0  0  0
    0.6510    1.0240    0.5518 H   0  0  0  0  0  0  0  0  0  0  0  0
    0.9599   -1.8388   -0.6833 H   0  0  0  0  0  0  0  0  0  0  0  0
    1.8499   -1.2297    0.8658 H   0  0  0  0  0  0  0  0  0  0  0  0
    2.1272    0.9297   -0.1467 H   0  0  0  0  0  0  0  0  0  0  0  0
    2.0482    0.0726   -3.0428 H   0  0  0  0  0  0  0  0  0  0  0  0
    1.5192    1.6966   -2.3726 H   0  0  0  0  0  0  0  0  0  0  0  0
    0.1231   -0.9639   -1.7743 H   0  0  0  0  0  0  0  0  0  0  0  0
  1  2  3  0
  2  3  1  0
  3  4  1  0
  3  5  1  0
  5  6  1  0
  6  7  1  0
  7  8  1  0
  8  9  1  0
  9  5  1  0
  9  7  1  0
  1 10  1  0
  3 11  1  0
  4 12  1  0
  4 13  1  0
  4 14  1  0
  5 15  1  0
  6 16  1  0
  6 17  1  0
  7 18  1  0
  8 19  1  0
  8 20  1  0
  9 21  1  0
M  END
