
     RDKit          3D

 15 16  0  0  0  0  0  0  0  0999 V2000
    3.2465    0.8026    0.8565 C   0  0  0  0  0  0  0  0  0  0  0  0
    2.3225    0.2793    0.2951 C   0  0  0  0  0  0  0  0  0  0  0  0
    1.1958   -0.3588   -0.3617 C   0  0  0  0  0  0  0  0  0  0  0  0
    0.5286    0.4787   -1.2980 O   0  0  0  0  0  0  0  0  0  0  0  0
   -0.4951   -0.4475   -1.1069 C   0  0  0  0  0  0  0  0  0  0  0  0
   -1.4366   -0.5439   -0.0470 C   0  0  0  0  0  0  0  0  0  0  0  0
   -2.6113    0.3946   -0.0906 C   0  0  0  0  0  0  0  0  0  0  0  0
   -2.4368    1.5341   -0.4897 O   0  0  0  0  0  0  0  0  0  0  0  0
   -0.1209   -0.1293    0.3970 C   0  0  0  0  0  0  0  0  0  0  0  0
    4.0671    1.2742    1.3622 H   0  0  0  0  0  0  0  0  0  0  0  0
    1.3337   -1.3916   -0.6535 H   0  0  0  0  0  0  0  0  0  0  0  0
   -0.1091   -1.4456   -1.4835 H   0  0  0  0  0  0  0  0  0  0  0  0
   -1.7594   -1.5561    0.3439 H   0  0  0  0  0  0  0  0  0  0  0  0
   -3.6079    0.1282    0.2093 H   0  0  0  0  0  0  0  0  0  0  0  0
   -0.1171    0.9810    0.6410 H   0  0  0  0  0  0  0  0  0  0  0  0
  1  2  3  0
  2  3  1  0
  3  4  1  0
  4  5  1  0
  5  6  1  0
  6  7  1  0
  7  8  2  0
  6  9  1  0
  9  3  1  0
  9  5  1  0
  1 10  1  0
  3 11  1  0
  5 12  1  0
  6 13  1  0
  7 14  1  0
  9 15  1  0
M  END
