
     RDKit          3D

 19 18  0  0  0  0  0  0  0  0999 V2000
   -1.4963    1.8737   -1.8831 C   0  0  0  0  0  0  0  0  0  0  0  0
   -0.8676    1.0255   -1.2929 C   0  0  0  0  0  0  0  0  0  0  0  0
   -0.1272   -0.0106   -0.5666 C   0  0  0  0  0  0  0  0  0  0  0  0
    1.3332    0.3868   -0.5440 C   0  0  0  0  0  0  0  0  0  0  0  0
    2.1850   -0.6157    0.1824 C   0  0  0  0  0  0  0  0  0  0  0  0
   -0.6600   -0.1285    0.8667 C   0  0  0  0  0  0  0  0  0  0  0  0
    0.0307   -1.1030    1.5615 O   0  0  0  0  0  0  0  0  0  0  0  0
   -2.1148   -0.3906    0.7958 C   0  0  0  0  0  0  0  0  0  0  0  0
   -2.5992   -1.3740    1.3118 O   0  0  0  0  0  0  0  0  0  0  0  0
   -2.0574    2.6256   -2.4044 H   0  0  0  0  0  0  0  0  0  0  0  0
   -0.2398   -0.9429   -1.1177 H   0  0  0  0  0  0  0  0  0  0  0  0
    1.4058    1.3652   -0.0463 H   0  0  0  0  0  0  0  0  0  0  0  0
    1.7006    0.5060   -1.5689 H   0  0  0  0  0  0  0  0  0  0  0  0
    2.2551   -0.4162    1.2737 H   0  0  0  0  0  0  0  0  0  0  0  0
    3.2356   -0.5687   -0.1972 H   0  0  0  0  0  0  0  0  0  0  0  0
    1.8471   -1.6518    0.0658 H   0  0  0  0  0  0  0  0  0  0  0  0
   -0.5037    0.8520    1.3598 H   0  0  0  0  0  0  0  0  0  0  0  0
   -0.6006   -1.7634    1.9382 H   0  0  0  0  0  0  0  0  0  0  0  0
   -2.7266    0.3305    0.2655 H   0  0  0  0  0  0  0  0  0  0  0  0
  1  2  3  0
  2  3  1  0
  3  4  1  0
  4  5  1  0
  3  6  1  0
  6  7  1  0
  6  8  1  0
  8  9  2  0
  1 10  1  0
  3 11  1  0
  4 12  1  0
  4 13  1  0
  5 14  1  0
  5 15  1  0
  5 16  1  0
  6 17  1  0
  7 18  1  0
  8 19  1  0
M  END
