
     RDKit          3D

 19 18  0  0  0  0  0  0  0  0999 V2000
    3.4214   -1.6795   -0.5932 C   0  0  0  0  0  0  0  0  0  0  0  0
    2.2197   -1.5134   -0.4135 C   0  0  0  0  0  0  0  0  0  0  0  0
    0.7897   -1.2910   -0.1982 C   0  0  0  0  0  0  0  0  0  0  0  0
    0.5057    0.1618    0.1373 C   0  0  0  0  0  0  0  0  0  0  0  0
   -0.9669    0.3932    0.3599 C   0  0  0  0  0  0  0  0  0  0  0  0
   -1.1510    1.8783    0.6902 C   0  0  0  0  0  0  0  0  0  0  0  0
   -1.7221    0.1249   -0.7666 O   0  0  0  0  0  0  0  0  0  0  0  0
   -1.4826   -0.3888    1.4931 C   0  0  0  0  0  0  0  0  0  0  0  0
   -0.9600   -0.2961    2.5681 O   0  0  0  0  0  0  0  0  0  0  0  0
    4.4625   -1.8076   -0.7386 H   0  0  0  0  0  0  0  0  0  0  0  0
    0.4758   -1.8834    0.6730 H   0  0  0  0  0  0  0  0  0  0  0  0
    0.2793   -1.5773   -1.1310 H   0  0  0  0  0  0  0  0  0  0  0  0
    1.0810    0.4881    1.0098 H   0  0  0  0  0  0  0  0  0  0  0  0
    0.8093    0.7586   -0.7504 H   0  0  0  0  0  0  0  0  0  0  0  0
   -2.1587    2.2289    0.3343 H   0  0  0  0  0  0  0  0  0  0  0  0
   -1.0518    2.0613    1.7846 H   0  0  0  0  0  0  0  0  0  0  0  0
   -0.3797    2.4250    0.1101 H   0  0  0  0  0  0  0  0  0  0  0  0
   -1.8438    0.9592   -1.2820 H   0  0  0  0  0  0  0  0  0  0  0  0
   -2.3279   -1.0422    1.3534 H   0  0  0  0  0  0  0  0  0  0  0  0
  1  2  3  0
  2  3  1  0
  3  4  1  0
  4  5  1  0
  5  6  1  0
  5  7  1  0
  5  8  1  0
  8  9  2  0
  1 10  1  0
  3 11  1  0
  3 12  1  0
  4 13  1  0
  4 14  1  0
  6 15  1  0
  6 16  1  0
  6 17  1  0
  7 18  1  0
  8 19  1  0
M  END
