
     RDKit          3D

 19 19  0  0  0  0  0  0  0  0999 V2000
    2.4482   -2.0117   -1.3027 C   0  0  0  0  0  0  0  0  0  0  0  0
    1.6520   -1.0926   -1.1567 C   0  0  0  0  0  0  0  0  0  0  0  0
    0.6919   -0.0066   -0.9963 C   0  0  0  0  0  0  0  0  0  0  0  0
    1.4254    1.2446   -1.2219 C   0  0  0  0  0  0  0  0  0  0  0  0
    2.0369    2.2845   -1.3991 C   0  0  0  0  0  0  0  0  0  0  0  0
    0.0674   -0.0089    0.3860 C   0  0  0  0  0  0  0  0  0  0  0  0
   -0.9367    1.1123    0.5799 C   0  0  0  0  0  0  0  0  0  0  0  0
   -1.3652   -0.3567    0.5018 C   0  0  0  0  0  0  0  0  0  0  0  0
   -1.9295   -0.8778    1.8057 C   0  0  0  0  0  0  0  0  0  0  0  0
    3.1293   -2.8156   -1.4149 H   0  0  0  0  0  0  0  0  0  0  0  0
   -0.1310   -0.0938   -1.7337 H   0  0  0  0  0  0  0  0  0  0  0  0
    2.5688    3.1964   -1.5365 H   0  0  0  0  0  0  0  0  0  0  0  0
    0.7848   -0.1813    1.2046 H   0  0  0  0  0  0  0  0  0  0  0  0
   -1.2601    1.7083   -0.2848 H   0  0  0  0  0  0  0  0  0  0  0  0
   -0.9852    1.6272    1.5473 H   0  0  0  0  0  0  0  0  0  0  0  0
   -1.8532   -0.7201   -0.4044 H   0  0  0  0  0  0  0  0  0  0  0  0
   -2.0940   -1.9705    1.7148 H   0  0  0  0  0  0  0  0  0  0  0  0
   -1.3047   -0.6031    2.6732 H   0  0  0  0  0  0  0  0  0  0  0  0
   -2.9452   -0.4347    2.0192 H   0  0  0  0  0  0  0  0  0  0  0  0
  1  2  3  0
  2  3  1  0
  3  4  1  0
  4  5  3  0
  3  6  1  0
  6  7  1  0
  7  8  1  0
  8  9  1  0
  8  6  1  0
  1 10  1  0
  3 11  1  0
  5 12  1  0
  6 13  1  0
  7 14  1  0
  7 15  1  0
  8 16  1  0
  9 17  1  0
  9 18  1  0
  9 19  1  0
M  END
