
     RDKit          3D

 21 21  0  0  0  0  0  0  0  0999 V2000
    3.6791   -0.1808   -1.2278 C   0  0  0  0  0  0  0  0  0  0  0  0
    2.7287    0.1615   -0.5728 C   0  0  0  0  0  0  0  0  0  0  0  0
    1.5941    0.5731    0.2377 C   0  0  0  0  0  0  0  0  0  0  0  0
    0.2834    0.3139   -0.4507 C   0  0  0  0  0  0  0  0  0  0  0  0
    0.0051   -1.1243   -0.7993 C   0  0  0  0  0  0  0  0  0  0  0  0
   -1.4296   -0.8684   -0.3116 C   0  0  0  0  0  0  0  0  0  0  0  0
   -1.9282   -1.9282    0.4282 O   0  0  0  0  0  0  0  0  0  0  0  0
   -0.8388    0.1965    0.5884 C   0  0  0  0  0  0  0  0  0  0  0  0
   -1.6464    1.4384    0.7467 C   0  0  0  0  0  0  0  0  0  0  0  0
    4.5134   -0.4973   -1.8193 H   0  0  0  0  0  0  0  0  0  0  0  0
    1.5805    0.1462    1.2421 H   0  0  0  0  0  0  0  0  0  0  0  0
    1.6770    1.6829    0.3581 H   0  0  0  0  0  0  0  0  0  0  0  0
    0.0224    0.9811   -1.2683 H   0  0  0  0  0  0  0  0  0  0  0  0
    0.5259   -1.8225   -0.0933 H   0  0  0  0  0  0  0  0  0  0  0  0
    0.0462   -1.3920   -1.8583 H   0  0  0  0  0  0  0  0  0  0  0  0
   -2.0860   -0.4916   -1.1212 H   0  0  0  0  0  0  0  0  0  0  0  0
   -2.7904   -2.2867    0.0532 H   0  0  0  0  0  0  0  0  0  0  0  0
   -0.4620   -0.2616    1.5174 H   0  0  0  0  0  0  0  0  0  0  0  0
   -1.0846    2.3219    0.3223 H   0  0  0  0  0  0  0  0  0  0  0  0
   -2.6661    1.3830    0.3409 H   0  0  0  0  0  0  0  0  0  0  0  0
   -1.7235    1.6549    1.8448 H   0  0  0  0  0  0  0  0  0  0  0  0
  1  2  3  0
  2  3  1  0
  3  4  1  0
  4  5  1  0
  5  6  1  0
  6  7  1  0
  6  8  1  0
  8  9  1  0
  8  4  1  0
  1 10  1  0
  3 11  1  0
  3 12  1  0
  4 13  1  0
  5 14  1  0
  5 15  1  0
  6 16  1  0
  7 17  1  0
  8 18  1  0
  9 19  1  0
  9 20  1  0
  9 21  1  0
M  END
