
     RDKit          3D

 17 18  0  0  0  0  0  0  0  0999 V2000
    3.6271   -0.4538    0.3618 C   0  0  0  0  0  0  0  0  0  0  0  0
    2.4368   -0.3404    0.3038 C   0  0  0  0  0  0  0  0  0  0  0  0
    1.1008   -0.2354    0.2325 C   0  0  0  0  0  0  0  0  0  0  0  0
    0.2119   -0.7454   -0.8261 C   0  0  0  0  0  0  0  0  0  0  0  0
   -0.6457   -0.0930    0.1952 C   0  0  0  0  0  0  0  0  0  0  0  0
   -2.0166   -0.0344    0.2578 C   0  0  0  0  0  0  0  0  0  0  0  0
   -2.6080    0.6265   -0.8175 O   0  0  0  0  0  0  0  0  0  0  0  0
    0.3266    1.0381    0.2228 C   0  0  0  0  0  0  0  0  0  0  0  0
    0.1885   -0.7034    1.1534 O   0  0  0  0  0  0  0  0  0  0  0  0
    4.7027   -0.5738    0.4212 H   0  0  0  0  0  0  0  0  0  0  0  0
    0.2855   -0.1666   -1.7722 H   0  0  0  0  0  0  0  0  0  0  0  0
    0.1520   -1.8383   -0.9328 H   0  0  0  0  0  0  0  0  0  0  0  0
   -2.5140   -1.0320    0.3092 H   0  0  0  0  0  0  0  0  0  0  0  0
   -2.3907    0.4961    1.1839 H   0  0  0  0  0  0  0  0  0  0  0  0
   -3.5820    0.7963   -0.6571 H   0  0  0  0  0  0  0  0  0  0  0  0
    0.3591    1.5917   -0.7431 H   0  0  0  0  0  0  0  0  0  0  0  0
    0.3657    1.6679    1.1072 H   0  0  0  0  0  0  0  0  0  0  0  0
  1  2  3  0
  2  3  1  0
  3  4  1  0
  4  5  1  0
  5  6  1  0
  6  7  1  0
  5  8  1  0
  5  9  1  0
  8  3  1  0
  9  3  1  0
  1 10  1  0
  4 11  1  0
  4 12  1  0
  6 13  1  0
  6 14  1  0
  7 15  1  0
  8 16  1  0
  8 17  1  0
M  END
