
     RDKit          3D

 17 18  0  0  0  0  0  0  0  0999 V2000
    2.4783    0.5304   -1.3456 C   0  0  0  0  0  0  0  0  0  0  0  0
    1.6809    0.2381   -0.4619 C   0  0  0  0  0  0  0  0  0  0  0  0
    0.7462   -0.1004    0.5892 C   0  0  0  0  0  0  0  0  0  0  0  0
    0.2908   -1.5182    0.4506 C   0  0  0  0  0  0  0  0  0  0  0  0
   -0.9000   -1.5037   -0.2302 O   0  0  0  0  0  0  0  0  0  0  0  0
   -1.4868   -0.2694   -0.1038 C   0  0  0  0  0  0  0  0  0  0  0  0
   -1.7404    0.2994    1.2315 C   0  0  0  0  0  0  0  0  0  0  0  0
   -0.5347    0.6923    0.4759 C   0  0  0  0  0  0  0  0  0  0  0  0
   -0.4146    1.9902    0.0112 O   0  0  0  0  0  0  0  0  0  0  0  0
    3.1597    0.7661   -2.1139 H   0  0  0  0  0  0  0  0  0  0  0  0
    1.2647    0.0694    1.5685 H   0  0  0  0  0  0  0  0  0  0  0  0
    0.2325   -1.9683    1.4617 H   0  0  0  0  0  0  0  0  0  0  0  0
    1.0035   -2.1441   -0.1306 H   0  0  0  0  0  0  0  0  0  0  0  0
   -2.0541    0.1061   -0.9954 H   0  0  0  0  0  0  0  0  0  0  0  0
   -1.5483   -0.3832    2.1011 H   0  0  0  0  0  0  0  0  0  0  0  0
   -2.5237    1.0778    1.3222 H   0  0  0  0  0  0  0  0  0  0  0  0
    0.3460    2.1175   -0.5883 H   0  0  0  0  0  0  0  0  0  0  0  0
  1  2  3  0
  2  3  1  0
  3  4  1  0
  4  5  1  0
  5  6  1  0
  6  7  1  0
  7  8  1  0
  8  9  1  0
  8  3  1  0
  8  6  1  0
  1 10  1  0
  3 11  1  0
  4 12  1  0
  4 13  1  0
  6 14  1  0
  7 15  1  0
  7 16  1  0
  9 17  1  0
M  END
