
     RDKit          3D

 15 15  0  0  0  0  0  0  0  0999 V2000
   -0.7001    2.2322   -1.1274 C   0  0  0  0  0  0  0  0  0  0  0  0
   -0.2401    1.1493   -0.7948 C   0  0  0  0  0  0  0  0  0  0  0  0
    0.2967   -0.1564   -0.4155 C   0  0  0  0  0  0  0  0  0  0  0  0
    1.1044   -0.8801   -1.4759 C   0  0  0  0  0  0  0  0  0  0  0  0
    1.2205    0.0682    0.7534 O   0  0  0  0  0  0  0  0  0  0  0  0
   -0.0268   -0.7531    0.8181 C   0  0  0  0  0  0  0  0  0  0  0  0
   -0.9657   -0.0830    1.7739 C   0  0  0  0  0  0  0  0  0  0  0  0
   -1.1138    3.1636   -1.4223 H   0  0  0  0  0  0  0  0  0  0  0  0
    1.2145   -1.9359   -1.2323 H   0  0  0  0  0  0  0  0  0  0  0  0
    0.5917   -0.6914   -2.4401 H   0  0  0  0  0  0  0  0  0  0  0  0
    2.0913   -0.3645   -1.5541 H   0  0  0  0  0  0  0  0  0  0  0  0
    0.1904   -1.8208    1.0148 H   0  0  0  0  0  0  0  0  0  0  0  0
   -1.6803   -0.8755    2.1312 H   0  0  0  0  0  0  0  0  0  0  0  0
   -0.3972    0.2492    2.6585 H   0  0  0  0  0  0  0  0  0  0  0  0
   -1.5855    0.6981    1.3124 H   0  0  0  0  0  0  0  0  0  0  0  0
  1  2  3  0
  2  3  1  0
  3  4  1  0
  3  5  1  0
  5  6  1  0
  6  7  1  0
  6  3  1  0
  1  8  1  0
  4  9  1  0
  4 10  1  0
  4 11  1  0
  6 12  1  0
  7 13  1  0
  7 14  1  0
  7 15  1  0
M  END
