
     RDKit          3D

 21 21  0  0  0  0  0  0  0  0999 V2000
    2.6303    1.7158   -0.2105 C   0  0  0  0  0  0  0  0  0  0  0  0
    1.8187    0.8024   -0.4272 C   0  0  0  0  0  0  0  0  0  0  0  0
    0.8823   -0.2793   -0.6633 C   0  0  0  0  0  0  0  0  0  0  0  0
    1.4702   -1.5569   -0.0515 C   0  0  0  0  0  0  0  0  0  0  0  0
   -0.4422   -0.0562   -0.0295 C   0  0  0  0  0  0  0  0  0  0  0  0
   -1.3944   -1.1839   -0.2733 C   0  0  0  0  0  0  0  0  0  0  0  0
   -1.1272    1.2672   -0.2776 C   0  0  0  0  0  0  0  0  0  0  0  0
   -1.4504    1.1040    1.1994 C   0  0  0  0  0  0  0  0  0  0  0  0
   -0.3480    0.2172    1.3404 O   0  0  0  0  0  0  0  0  0  0  0  0
    3.3146    2.5139   -0.0257 H   0  0  0  0  0  0  0  0  0  0  0  0
    0.7682   -0.4486   -1.7597 H   0  0  0  0  0  0  0  0  0  0  0  0
    2.5755   -1.4359   -0.1216 H   0  0  0  0  0  0  0  0  0  0  0  0
    1.2175   -2.4587   -0.6001 H   0  0  0  0  0  0  0  0  0  0  0  0
    1.2371   -1.5797    1.0296 H   0  0  0  0  0  0  0  0  0  0  0  0
   -1.7483   -1.6320    0.7023 H   0  0  0  0  0  0  0  0  0  0  0  0
   -0.8915   -2.0545   -0.7706 H   0  0  0  0  0  0  0  0  0  0  0  0
   -2.2912   -0.8527   -0.8248 H   0  0  0  0  0  0  0  0  0  0  0  0
   -2.0434    1.2275   -0.8999 H   0  0  0  0  0  0  0  0  0  0  0  0
   -0.4649    2.0948   -0.5431 H   0  0  0  0  0  0  0  0  0  0  0  0
   -1.3087    1.9899    1.8159 H   0  0  0  0  0  0  0  0  0  0  0  0
   -2.4043    0.6058    1.3908 H   0  0  0  0  0  0  0  0  0  0  0  0
  1  2  3  0
  2  3  1  0
  3  4  1  0
  3  5  1  0
  5  6  1  0
  5  7  1  0
  7  8  1  0
  8  9  1  0
  9  5  1  0
  1 10  1  0
  3 11  1  0
  4 12  1  0
  4 13  1  0
  4 14  1  0
  6 15  1  0
  6 16  1  0
  6 17  1  0
  7 18  1  0
  7 19  1  0
  8 20  1  0
  8 21  1  0
M  END
