
     RDKit          3D

 15 14  0  0  0  0  0  0  0  0999 V2000
    2.7800    0.3294    0.8420 C   0  0  0  0  0  0  0  0  0  0  0  0
    1.9153    0.0237    0.0628 C   0  0  0  0  0  0  0  0  0  0  0  0
    0.9002   -0.3522   -0.8730 C   0  0  0  0  0  0  0  0  0  0  0  0
    1.3126   -1.5045   -1.5380 O   0  0  0  0  0  0  0  0  0  0  0  0
   -0.4471   -0.4330   -0.3174 C   0  0  0  0  0  0  0  0  0  0  0  0
   -1.1035   -1.4604   -0.5639 O   0  0  0  0  0  0  0  0  0  0  0  0
   -1.0971    0.6024    0.4876 C   0  0  0  0  0  0  0  0  0  0  0  0
   -2.5183    0.7005    0.1742 C   0  0  0  0  0  0  0  0  0  0  0  0
   -3.0365   -0.1605   -0.5534 O   0  0  0  0  0  0  0  0  0  0  0  0
    3.5590    0.5873    1.5508 H   0  0  0  0  0  0  0  0  0  0  0  0
    0.8198    0.5063   -1.6622 H   0  0  0  0  0  0  0  0  0  0  0  0
    1.7762   -2.0568   -0.8141 H   0  0  0  0  0  0  0  0  0  0  0  0
   -1.1300    0.1426    1.5652 H   0  0  0  0  0  0  0  0  0  0  0  0
   -0.5445    1.5377    0.5756 H   0  0  0  0  0  0  0  0  0  0  0  0
   -3.1862    1.5376    0.5337 H   0  0  0  0  0  0  0  0  0  0  0  0
  1  2  3  0
  2  3  1  0
  3  4  1  0
  3  5  1  0
  5  6  2  0
  5  7  1  0
  7  8  1  0
  8  9  2  0
  1 10  1  0
  3 11  1  0
  4 12  1  0
  7 13  1  0
  7 14  1  0
  8 15  1  0
M  END
