
     RDKit          3D

 21 20  0  0  0  0  0  0  0  0999 V2000
   -1.1767    2.9578    1.5242 C   0  0  0  0  0  0  0  0  0  0  0  0
   -0.4004    2.1458    1.1365 C   0  0  0  0  0  0  0  0  0  0  0  0
    0.5640    1.1630    0.6783 C   0  0  0  0  0  0  0  0  0  0  0  0
   -0.0189    0.1098   -0.2046 C   0  0  0  0  0  0  0  0  0  0  0  0
   -1.1103   -0.6940    0.4625 C   0  0  0  0  0  0  0  0  0  0  0  0
   -1.6654   -1.7428   -0.4692 C   0  0  0  0  0  0  0  0  0  0  0  0
    1.0697   -0.7839   -0.6476 C   0  0  0  0  0  0  0  0  0  0  0  0
    2.2085   -0.2463   -1.4186 C   0  0  0  0  0  0  0  0  0  0  0  0
    1.0209   -1.9576   -0.3742 O   0  0  0  0  0  0  0  0  0  0  0  0
   -1.8770    3.6857    1.8923 H   0  0  0  0  0  0  0  0  0  0  0  0
    1.3383    1.7027    0.0944 H   0  0  0  0  0  0  0  0  0  0  0  0
    1.1015    0.7065    1.5412 H   0  0  0  0  0  0  0  0  0  0  0  0
   -0.5107    0.6307   -1.0682 H   0  0  0  0  0  0  0  0  0  0  0  0
   -0.6811   -1.2542    1.3453 H   0  0  0  0  0  0  0  0  0  0  0  0
   -1.9175   -0.0743    0.8586 H   0  0  0  0  0  0  0  0  0  0  0  0
   -2.7830   -1.6576   -0.5383 H   0  0  0  0  0  0  0  0  0  0  0  0
   -1.4438   -2.7774   -0.1317 H   0  0  0  0  0  0  0  0  0  0  0  0
   -1.2361   -1.6639   -1.5028 H   0  0  0  0  0  0  0  0  0  0  0  0
    2.6856   -1.0107   -2.0609 H   0  0  0  0  0  0  0  0  0  0  0  0
    1.8567    0.6083   -2.0321 H   0  0  0  0  0  0  0  0  0  0  0  0
    2.9758    0.1522   -0.6979 H   0  0  0  0  0  0  0  0  0  0  0  0
  1  2  3  0
  2  3  1  0
  3  4  1  0
  4  5  1  0
  5  6  1  0
  4  7  1  0
  7  8  1  0
  7  9  2  0
  1 10  1  0
  3 11  1  0
  3 12  1  0
  4 13  1  0
  5 14  1  0
  5 15  1  0
  6 16  1  0
  6 17  1  0
  6 18  1  0
  8 19  1  0
  8 20  1  0
  8 21  1  0
M  END
