
     RDKit          3D

 17 17  0  0  0  0  0  0  0  0999 V2000
    2.4716   -0.3741    1.1960 C   0  0  0  0  0  0  0  0  0  0  0  0
    1.4607   -0.1040    0.5890 C   0  0  0  0  0  0  0  0  0  0  0  0
    0.2524    0.2406   -0.1562 C   0  0  0  0  0  0  0  0  0  0  0  0
    0.3912    1.5510   -0.9104 C   0  0  0  0  0  0  0  0  0  0  0  0
   -0.3145   -0.8714   -1.0091 C   0  0  0  0  0  0  0  0  0  0  0  0
   -1.3870   -1.1488    0.0271 C   0  0  0  0  0  0  0  0  0  0  0  0
   -0.9761    0.1370    0.7116 C   0  0  0  0  0  0  0  0  0  0  0  0
    3.3494   -0.6108    1.7426 H   0  0  0  0  0  0  0  0  0  0  0  0
    0.8886    1.3641   -1.8902 H   0  0  0  0  0  0  0  0  0  0  0  0
   -0.6413    1.8839   -1.1457 H   0  0  0  0  0  0  0  0  0  0  0  0
    0.8819    2.3222   -0.3161 H   0  0  0  0  0  0  0  0  0  0  0  0
   -0.7074   -0.4619   -1.9665 H   0  0  0  0  0  0  0  0  0  0  0  0
    0.3800   -1.7061   -1.2081 H   0  0  0  0  0  0  0  0  0  0  0  0
   -1.1867   -2.0726    0.5867 H   0  0  0  0  0  0  0  0  0  0  0  0
   -2.3782   -1.0766   -0.4334 H   0  0  0  0  0  0  0  0  0  0  0  0
   -0.7906   -0.0452    1.7807 H   0  0  0  0  0  0  0  0  0  0  0  0
   -1.6937    0.9727    0.5753 H   0  0  0  0  0  0  0  0  0  0  0  0
  1  2  3  0
  2  3  1  0
  3  4  1  0
  3  5  1  0
  5  6  1  0
  6  7  1  0
  7  3  1  0
  1  8  1  0
  4  9  1  0
  4 10  1  0
  4 11  1  0
  5 12  1  0
  5 13  1  0
  6 14  1  0
  6 15  1  0
  7 16  1  0
  7 17  1  0
M  END
