
     RDKit          3D

 19 19  0  0  0  0  0  0  0  0999 V2000
   -2.7859    1.9912    0.1394 C   0  0  0  0  0  0  0  0  0  0  0  0
   -1.9336    1.4595   -0.5402 C   0  0  0  0  0  0  0  0  0  0  0  0
   -0.9066    0.8372   -1.3771 C   0  0  0  0  0  0  0  0  0  0  0  0
   -0.9539   -0.6893   -1.4969 C   0  0  0  0  0  0  0  0  0  0  0  0
    0.1141    0.0407   -0.6699 C   0  0  0  0  0  0  0  0  0  0  0  0
    0.0823   -0.1932    0.7995 C   0  0  0  0  0  0  0  0  0  0  0  0
    1.2573   -1.0386    1.2275 C   0  0  0  0  0  0  0  0  0  0  0  0
    2.5721   -0.4127    0.9376 C   0  0  0  0  0  0  0  0  0  0  0  0
    2.6843    0.6783    0.4306 O   0  0  0  0  0  0  0  0  0  0  0  0
   -3.5456    2.4767    0.7301 H   0  0  0  0  0  0  0  0  0  0  0  0
   -0.6106    1.3805   -2.2966 H   0  0  0  0  0  0  0  0  0  0  0  0
   -0.6389   -1.1089   -2.4826 H   0  0  0  0  0  0  0  0  0  0  0  0
   -1.7386   -1.2302   -0.9644 H   0  0  0  0  0  0  0  0  0  0  0  0
    1.1255    0.0109   -1.1311 H   0  0  0  0  0  0  0  0  0  0  0  0
   -0.8396   -0.7060    1.1254 H   0  0  0  0  0  0  0  0  0  0  0  0
    0.1945    0.7855    1.3094 H   0  0  0  0  0  0  0  0  0  0  0  0
    1.2530   -2.0413    0.7231 H   0  0  0  0  0  0  0  0  0  0  0  0
    1.2245   -1.2522    2.3304 H   0  0  0  0  0  0  0  0  0  0  0  0
    3.4457   -0.9882    1.2058 H   0  0  0  0  0  0  0  0  0  0  0  0
  1  2  3  0
  2  3  1  0
  3  4  1  0
  4  5  1  0
  5  6  1  0
  6  7  1  0
  7  8  1  0
  8  9  2  0
  5  3  1  0
  1 10  1  0
  3 11  1  0
  4 12  1  0
  4 13  1  0
  5 14  1  0
  6 15  1  0
  6 16  1  0
  7 17  1  0
  7 18  1  0
  8 19  1  0
M  END
