
     RDKit          3D

 21 20  0  0  0  0  0  0  0  0999 V2000
    2.5558    1.7161    0.9743 C   0  0  0  0  0  0  0  0  0  0  0  0
    1.8266    1.3097    0.0804 C   0  0  0  0  0  0  0  0  0  0  0  0
    0.9688    0.8290   -0.9673 C   0  0  0  0  0  0  0  0  0  0  0  0
    0.3725   -0.5142   -0.5549 C   0  0  0  0  0  0  0  0  0  0  0  0
   -0.5256   -1.0414   -1.6246 C   0  0  0  0  0  0  0  0  0  0  0  0
   -0.3051   -0.2962    0.7625 C   0  0  0  0  0  0  0  0  0  0  0  0
   -1.4068    0.7526    0.6655 C   0  0  0  0  0  0  0  0  0  0  0  0
   -0.7799   -1.5333    1.4112 C   0  0  0  0  0  0  0  0  0  0  0  0
   -0.7885   -2.5973    0.8025 O   0  0  0  0  0  0  0  0  0  0  0  0
    3.1878    2.0578    1.7673 H   0  0  0  0  0  0  0  0  0  0  0  0
    1.5110    0.6666   -1.9391 H   0  0  0  0  0  0  0  0  0  0  0  0
    0.1200    1.5449   -1.0907 H   0  0  0  0  0  0  0  0  0  0  0  0
    1.2313   -1.1942   -0.3962 H   0  0  0  0  0  0  0  0  0  0  0  0
    0.0542   -1.5745   -2.4069 H   0  0  0  0  0  0  0  0  0  0  0  0
   -1.3537   -1.6772   -1.2704 H   0  0  0  0  0  0  0  0  0  0  0  0
   -0.9950   -0.1620   -2.1287 H   0  0  0  0  0  0  0  0  0  0  0  0
    0.4654    0.1535    1.4453 H   0  0  0  0  0  0  0  0  0  0  0  0
   -1.9906    0.6663    1.6076 H   0  0  0  0  0  0  0  0  0  0  0  0
   -2.0455    0.5845   -0.2301 H   0  0  0  0  0  0  0  0  0  0  0  0
   -0.9844    1.7776    0.6560 H   0  0  0  0  0  0  0  0  0  0  0  0
   -1.1184   -1.4685    2.4363 H   0  0  0  0  0  0  0  0  0  0  0  0
  1  2  3  0
  2  3  1  0
  3  4  1  0
  4  5  1  0
  4  6  1  0
  6  7  1  0
  6  8  1  0
  8  9  2  0
  1 10  1  0
  3 11  1  0
  3 12  1  0
  4 13  1  0
  5 14  1  0
  5 15  1  0
  5 16  1  0
  6 17  1  0
  7 18  1  0
  7 19  1  0
  7 20  1  0
  8 21  1  0
M  END
