
     RDKit          3D

 17 17  0  0  0  0  0  0  0  0999 V2000
    2.1338   -0.4173    1.7601 C   0  0  0  0  0  0  0  0  0  0  0  0
    1.4195   -0.6122    0.8228 C   0  0  0  0  0  0  0  0  0  0  0  0
    0.5375   -0.8432   -0.2961 C   0  0  0  0  0  0  0  0  0  0  0  0
    0.7727    0.0077   -1.5200 C   0  0  0  0  0  0  0  0  0  0  0  0
   -0.6279    0.1778   -1.6336 O   0  0  0  0  0  0  0  0  0  0  0  0
   -0.7206   -0.0092   -0.2618 C   0  0  0  0  0  0  0  0  0  0  0  0
   -0.5591    1.3335    0.4354 C   0  0  0  0  0  0  0  0  0  0  0  0
   -1.9371   -0.7375    0.1080 C   0  0  0  0  0  0  0  0  0  0  0  0
   -2.7147   -1.0957   -0.7524 O   0  0  0  0  0  0  0  0  0  0  0  0
    2.7668   -0.2278    2.6116 H   0  0  0  0  0  0  0  0  0  0  0  0
    0.3245   -1.8881   -0.5343 H   0  0  0  0  0  0  0  0  0  0  0  0
    1.1256   -0.5537   -2.3940 H   0  0  0  0  0  0  0  0  0  0  0  0
    1.3255    0.9113   -1.2504 H   0  0  0  0  0  0  0  0  0  0  0  0
   -0.0216    2.0378   -0.2122 H   0  0  0  0  0  0  0  0  0  0  0  0
   -0.0192    1.1957    1.3766 H   0  0  0  0  0  0  0  0  0  0  0  0
   -1.6012    1.7119    0.5991 H   0  0  0  0  0  0  0  0  0  0  0  0
   -2.2047   -0.9909    1.1411 H   0  0  0  0  0  0  0  0  0  0  0  0
  1  2  3  0
  2  3  1  0
  3  4  1  0
  4  5  1  0
  5  6  1  0
  6  7  1  0
  6  8  1  0
  8  9  2  0
  6  3  1  0
  1 10  1  0
  3 11  1  0
  4 12  1  0
  4 13  1  0
  7 14  1  0
  7 15  1  0
  7 16  1  0
  8 17  1  0
M  END
