
     RDKit          3D

 21 22  0  0  0  0  0  0  0  0999 V2000
    1.1763   -0.2040   -3.4469 C   0  0  0  0  0  0  0  0  0  0  0  0
    0.6211   -0.0990   -2.3939 C   0  0  0  0  0  0  0  0  0  0  0  0
   -0.0576    0.0338   -1.1294 C   0  0  0  0  0  0  0  0  0  0  0  0
    0.6263    0.9229   -0.1476 C   0  0  0  0  0  0  0  0  0  0  0  0
   -0.3460    1.3656    0.9461 C   0  0  0  0  0  0  0  0  0  0  0  0
   -1.4067    0.3260    1.1177 C   0  0  0  0  0  0  0  0  0  0  0  0
   -0.9468   -1.0914    0.8918 C   0  0  0  0  0  0  0  0  0  0  0  0
    0.1583   -1.1131   -0.1727 C   0  0  0  0  0  0  0  0  0  0  0  0
    1.3093   -0.3353    0.4148 C   0  0  0  0  0  0  0  0  0  0  0  0
    1.6847   -0.3198   -4.4202 H   0  0  0  0  0  0  0  0  0  0  0  0
   -1.1563    0.2829   -1.2710 H   0  0  0  0  0  0  0  0  0  0  0  0
    1.2956    1.6957   -0.5049 H   0  0  0  0  0  0  0  0  0  0  0  0
   -0.8087    2.3322    0.6965 H   0  0  0  0  0  0  0  0  0  0  0  0
    0.2600    1.4234    1.8973 H   0  0  0  0  0  0  0  0  0  0  0  0
   -1.7463    0.3482    2.2020 H   0  0  0  0  0  0  0  0  0  0  0  0
   -2.3114    0.6010    0.5501 H   0  0  0  0  0  0  0  0  0  0  0  0
   -0.5052   -1.5167    1.8066 H   0  0  0  0  0  0  0  0  0  0  0  0
   -1.8133   -1.6819    0.5384 H   0  0  0  0  0  0  0  0  0  0  0  0
    0.3707   -2.0849   -0.6080 H   0  0  0  0  0  0  0  0  0  0  0  0
    1.3263   -0.3328    1.5337 H   0  0  0  0  0  0  0  0  0  0  0  0
    2.2700   -0.5527   -0.0848 H   0  0  0  0  0  0  0  0  0  0  0  0
  1  2  3  0
  2  3  1  0
  3  4  1  0
  4  5  1  0
  5  6  1  0
  6  7  1  0
  7  8  1  0
  8  9  1  0
  8  3  1  0
  9  4  1  0
  1 10  1  0
  3 11  1  0
  4 12  1  0
  5 13  1  0
  5 14  1  0
  6 15  1  0
  6 16  1  0
  7 17  1  0
  7 18  1  0
  8 19  1  0
  9 20  1  0
  9 21  1  0
M  END
