
     RDKit          3D

 13 13  0  0  0  0  0  0  0  0999 V2000
    3.7657   -0.2477    0.2518 C   0  0  0  0  0  0  0  0  0  0  0  0
    2.7725   -0.4356    0.2486 C   0  0  0  0  0  0  0  0  0  0  0  0
    0.8872   -0.8248    0.2272 C   0  0  0  0  0  0  0  0  0  0  0  0
   -0.2665   -1.0836    0.2095 C   0  0  0  0  0  0  0  0  0  0  0  0
   -1.5678   -1.3978    0.1793 C   0  0  0  0  0  0  0  0  0  0  0  0
   -2.3531   -2.0979    0.3682 O   0  0  0  0  0  0  0  0  0  0  0  0
   -1.7433    0.2737   -0.5788 C   0  0  0  0  0  0  0  0  0  0  0  0
   -0.8220    1.2057   -0.2313 C   0  0  0  0  0  0  0  0  0  0  0  0
   -1.9424    0.9666    0.7523 O   0  0  0  0  0  0  0  0  0  0  0  0
    4.8443   -0.0627    0.2483 H   0  0  0  0  0  0  0  0  0  0  0  0
   -2.5722    0.0863   -1.1187 H   0  0  0  0  0  0  0  0  0  0  0  0
    0.1171    1.3098    0.3298 H   0  0  0  0  0  0  0  0  0  0  0  0
   -1.1195    2.3079   -0.5851 H   0  0  0  0  0  0  0  0  0  0  0  0
  1  2  3  0
  2  3  1  0
  3  4  3  0
  4  5  1  0
  5  6  2  0
  5  7  1  0
  7  8  1  0
  8  9  1  0
  9  7  1  0
  1 10  1  0
  7 11  1  0
  8 12  1  0
  8 13  1  0
M  END
