
     RDKit          3D

 17 17  0  0  0  0  0  0  0  0999 V2000
    2.7145   -1.1131   -0.8851 C   0  0  0  0  0  0  0  0  0  0  0  0
    1.7237   -0.5013   -0.6099 C   0  0  0  0  0  0  0  0  0  0  0  0
    0.5196    0.2669   -0.2874 C   0  0  0  0  0  0  0  0  0  0  0  0
    0.7793    1.3290    0.7110 C   0  0  0  0  0  0  0  0  0  0  0  0
    1.0076    2.2006    1.5133 C   0  0  0  0  0  0  0  0  0  0  0  0
   -0.5847    0.4187   -1.2467 C   0  0  0  0  0  0  0  0  0  0  0  0
   -0.7131   -0.5418   -0.1272 C   0  0  0  0  0  0  0  0  0  0  0  0
   -1.5551   -0.2663    1.0756 C   0  0  0  0  0  0  0  0  0  0  0  0
   -0.6700   -1.8971   -0.5170 O   0  0  0  0  0  0  0  0  0  0  0  0
    3.5985   -1.6473   -1.1134 H   0  0  0  0  0  0  0  0  0  0  0  0
    1.2227    2.9707    2.2119 H   0  0  0  0  0  0  0  0  0  0  0  0
   -1.1362    1.3990   -1.2075 H   0  0  0  0  0  0  0  0  0  0  0  0
   -0.4934    0.0587   -2.2951 H   0  0  0  0  0  0  0  0  0  0  0  0
   -2.0355    0.7205    1.0591 H   0  0  0  0  0  0  0  0  0  0  0  0
   -0.9235   -0.3884    2.0038 H   0  0  0  0  0  0  0  0  0  0  0  0
   -2.3528   -1.0558    1.1388 H   0  0  0  0  0  0  0  0  0  0  0  0
   -1.1014   -1.9531   -1.4243 H   0  0  0  0  0  0  0  0  0  0  0  0
  1  2  3  0
  2  3  1  0
  3  4  1  0
  4  5  3  0
  3  6  1  0
  6  7  1  0
  7  8  1  0
  7  9  1  0
  7  3  1  0
  1 10  1  0
  5 11  1  0
  6 12  1  0
  6 13  1  0
  8 14  1  0
  8 15  1  0
  8 16  1  0
  9 17  1  0
M  END
