
     RDKit          3D

 15 15  0  0  0  0  0  0  0  0999 V2000
    1.3081    1.7300    2.2839 C   0  0  0  0  0  0  0  0  0  0  0  0
    0.7784    0.8306    1.7658 C   0  0  0  0  0  0  0  0  0  0  0  0
    0.0965   -0.3269    1.1273 C   0  0  0  0  0  0  0  0  0  0  0  0
    1.0938   -1.2488    0.7277 O   0  0  0  0  0  0  0  0  0  0  0  0
    1.4051   -0.3291   -0.2521 C   0  0  0  0  0  0  0  0  0  0  0  0
    2.4373    0.0938   -0.7932 O   0  0  0  0  0  0  0  0  0  0  0  0
   -0.0406   -0.0604   -0.3814 C   0  0  0  0  0  0  0  0  0  0  0  0
   -0.6398   -1.0658   -1.0843 O   0  0  0  0  0  0  0  0  0  0  0  0
   -1.5682   -0.6716   -2.0107 C   0  0  0  0  0  0  0  0  0  0  0  0
    1.8238    2.5679    2.7712 H   0  0  0  0  0  0  0  0  0  0  0  0
   -0.7860   -0.6943    1.6287 H   0  0  0  0  0  0  0  0  0  0  0  0
   -0.3438    0.9700   -0.6117 H   0  0  0  0  0  0  0  0  0  0  0  0
   -2.4135   -0.1089   -1.5746 H   0  0  0  0  0  0  0  0  0  0  0  0
   -1.9808   -1.6090   -2.4741 H   0  0  0  0  0  0  0  0  0  0  0  0
   -1.1702   -0.0773   -2.8571 H   0  0  0  0  0  0  0  0  0  0  0  0
  1  2  3  0
  2  3  1  0
  3  4  1  0
  4  5  1  0
  5  6  2  0
  5  7  1  0
  7  8  1  0
  8  9  1  0
  7  3  1  0
  1 10  1  0
  3 11  1  0
  7 12  1  0
  9 13  1  0
  9 14  1  0
  9 15  1  0
M  END
