
     RDKit          3D

 19 20  0  0  0  0  0  0  0  0999 V2000
   -0.8309    3.1464   -0.7540 C   0  0  0  0  0  0  0  0  0  0  0  0
   -0.8307    1.9589   -0.5268 C   0  0  0  0  0  0  0  0  0  0  0  0
   -0.8051    0.5255   -0.2522 C   0  0  0  0  0  0  0  0  0  0  0  0
    0.0468   -0.2981   -1.1731 C   0  0  0  0  0  0  0  0  0  0  0  0
    0.2271   -1.2227    0.0035 C   0  0  0  0  0  0  0  0  0  0  0  0
   -1.0440   -1.9414    0.3330 C   0  0  0  0  0  0  0  0  0  0  0  0
    0.3710    0.1613    0.5961 C   0  0  0  0  0  0  0  0  0  0  0  0
    1.2225    0.4514   -0.6090 C   0  0  0  0  0  0  0  0  0  0  0  0
    2.3973   -0.2829   -0.6926 O   0  0  0  0  0  0  0  0  0  0  0  0
   -0.8445    4.1994   -0.9652 H   0  0  0  0  0  0  0  0  0  0  0  0
   -1.7630    0.0869    0.0523 H   0  0  0  0  0  0  0  0  0  0  0  0
   -0.1255   -0.5465   -2.1215 H   0  0  0  0  0  0  0  0  0  0  0  0
    1.1517   -1.8294   -0.0132 H   0  0  0  0  0  0  0  0  0  0  0  0
   -0.8287   -3.0323    0.5224 H   0  0  0  0  0  0  0  0  0  0  0  0
   -1.4409   -1.5146    1.2757 H   0  0  0  0  0  0  0  0  0  0  0  0
   -1.7955   -1.8757   -0.5044 H   0  0  0  0  0  0  0  0  0  0  0  0
    0.5541    0.3895    1.5482 H   0  0  0  0  0  0  0  0  0  0  0  0
    1.2817    1.5173   -0.8137 H   0  0  0  0  0  0  0  0  0  0  0  0
    3.0565    0.1072   -0.0724 H   0  0  0  0  0  0  0  0  0  0  0  0
  1  2  3  0
  2  3  1  0
  3  4  1  0
  4  5  1  0
  5  6  1  0
  5  7  1  0
  7  8  1  0
  8  9  1  0
  7  3  1  0
  8  4  1  0
  1 10  1  0
  3 11  1  0
  4 12  1  0
  5 13  1  0
  6 14  1  0
  6 15  1  0
  6 16  1  0
  7 17  1  0
  8 18  1  0
  9 19  1  0
M  END
