
     RDKit          3D

 17 17  0  0  0  0  0  0  0  0999 V2000
    2.8653    1.5167    0.4475 C   0  0  0  0  0  0  0  0  0  0  0  0
    1.8436    1.0368    0.0247 C   0  0  0  0  0  0  0  0  0  0  0  0
    0.5749    0.4695   -0.4955 C   0  0  0  0  0  0  0  0  0  0  0  0
   -0.5311    1.2734    0.0536 C   0  0  0  0  0  0  0  0  0  0  0  0
   -1.6968    0.7818    0.4197 C   0  0  0  0  0  0  0  0  0  0  0  0
   -1.9019   -0.6606    0.2692 C   0  0  0  0  0  0  0  0  0  0  0  0
   -3.0466   -1.1358    0.0475 O   0  0  0  0  0  0  0  0  0  0  0  0
   -0.7175   -1.5195    0.3882 C   0  0  0  0  0  0  0  0  0  0  0  0
    0.5333   -0.9815   -0.2081 C   0  0  0  0  0  0  0  0  0  0  0  0
    3.7565    1.9539    0.8274 H   0  0  0  0  0  0  0  0  0  0  0  0
    0.5626    0.6515   -1.6110 H   0  0  0  0  0  0  0  0  0  0  0  0
   -0.3852    2.3338    0.1663 H   0  0  0  0  0  0  0  0  0  0  0  0
   -2.5070    1.3919    0.8239 H   0  0  0  0  0  0  0  0  0  0  0  0
   -0.5787   -1.7893    1.4768 H   0  0  0  0  0  0  0  0  0  0  0  0
   -0.9424   -2.5102   -0.1060 H   0  0  0  0  0  0  0  0  0  0  0  0
    1.3767   -1.2706    0.4876 H   0  0  0  0  0  0  0  0  0  0  0  0
    0.7943   -1.5417   -1.1559 H   0  0  0  0  0  0  0  0  0  0  0  0
  1  2  3  0
  2  3  1  0
  3  4  1  0
  4  5  2  0
  5  6  1  0
  6  7  2  0
  6  8  1  0
  8  9  1  0
  9  3  1  0
  1 10  1  0
  3 11  1  0
  4 12  1  0
  5 13  1  0
  8 14  1  0
  8 15  1  0
  9 16  1  0
  9 17  1  0
M  END
