
     RDKit          3D

 15 15  0  0  0  0  0  0  0  0999 V2000
   -3.2334   -1.8386    0.6006 C   0  0  0  0  0  0  0  0  0  0  0  0
   -2.0454   -1.5223    0.4814 C   0  0  0  0  0  0  0  0  0  0  0  0
   -0.5981   -1.1143    0.3206 C   0  0  0  0  0  0  0  0  0  0  0  0
   -0.3270   -0.9700   -1.1872 C   0  0  0  0  0  0  0  0  0  0  0  0
   -0.4595    0.2352   -0.1876 C   0  0  0  0  0  0  0  0  0  0  0  0
    0.7757    0.9779   -0.0738 C   0  0  0  0  0  0  0  0  0  0  0  0
    1.7993    1.6176    0.0170 C   0  0  0  0  0  0  0  0  0  0  0  0
    3.0486    2.4250    0.1158 C   0  0  0  0  0  0  0  0  0  0  0  0
    3.5213    2.4779    1.3136 O   0  0  0  0  0  0  0  0  0  0  0  0
   -4.2408   -2.0884    0.6997 H   0  0  0  0  0  0  0  0  0  0  0  0
    0.1253   -1.6563    0.9120 H   0  0  0  0  0  0  0  0  0  0  0  0
   -1.1579   -1.0059   -1.9054 H   0  0  0  0  0  0  0  0  0  0  0  0
    0.6825   -1.2985   -1.4507 H   0  0  0  0  0  0  0  0  0  0  0  0
   -1.3872    0.8642   -0.3287 H   0  0  0  0  0  0  0  0  0  0  0  0
    3.4964    2.8966   -0.6933 H   0  0  0  0  0  0  0  0  0  0  0  0
  1  2  3  0
  2  3  1  0
  3  4  1  0
  4  5  1  0
  5  6  1  0
  6  7  3  0
  7  8  1  0
  8  9  2  0
  5  3  1  0
  1 10  1  0
  3 11  1  0
  4 12  1  0
  4 13  1  0
  5 14  1  0
  8 15  1  0
M  END
