
     RDKit          3D

 21 21  0  0  0  0  0  0  0  0999 V2000
    1.3628    2.6820   -2.3353 C   0  0  0  0  0  0  0  0  0  0  0  0
    0.9069    1.6413   -1.9366 C   0  0  0  0  0  0  0  0  0  0  0  0
    0.3398    0.3848   -1.4718 C   0  0  0  0  0  0  0  0  0  0  0  0
    0.8401   -0.6954   -2.2061 O   0  0  0  0  0  0  0  0  0  0  0  0
    0.6876   -1.4514   -1.0248 C   0  0  0  0  0  0  0  0  0  0  0  0
    1.0207   -0.2099   -0.2586 C   0  0  0  0  0  0  0  0  0  0  0  0
    0.2965    0.0128    1.0277 C   0  0  0  0  0  0  0  0  0  0  0  0
   -1.0770   -0.5521    1.0821 C   0  0  0  0  0  0  0  0  0  0  0  0
   -1.6419   -0.2228    2.4605 C   0  0  0  0  0  0  0  0  0  0  0  0
    1.7778    3.5883   -2.6940 H   0  0  0  0  0  0  0  0  0  0  0  0
   -0.7505    0.3297   -1.4108 H   0  0  0  0  0  0  0  0  0  0  0  0
   -0.3386   -1.8283   -0.9613 H   0  0  0  0  0  0  0  0  0  0  0  0
    1.4278   -2.2688   -0.9791 H   0  0  0  0  0  0  0  0  0  0  0  0
    2.0981   -0.0508   -0.2004 H   0  0  0  0  0  0  0  0  0  0  0  0
    0.2164    1.1282    1.1714 H   0  0  0  0  0  0  0  0  0  0  0  0
    0.8960   -0.4346    1.8484 H   0  0  0  0  0  0  0  0  0  0  0  0
   -1.0187   -1.6524    0.9533 H   0  0  0  0  0  0  0  0  0  0  0  0
   -1.7419   -0.0847    0.3255 H   0  0  0  0  0  0  0  0  0  0  0  0
   -0.8116   -0.1921    3.1699 H   0  0  0  0  0  0  0  0  0  0  0  0
   -2.0456    0.8107    2.3771 H   0  0  0  0  0  0  0  0  0  0  0  0
   -2.4447   -0.9347    2.7400 H   0  0  0  0  0  0  0  0  0  0  0  0
  1  2  3  0
  2  3  1  0
  3  4  1  0
  4  5  1  0
  5  6  1  0
  6  7  1  0
  7  8  1  0
  8  9  1  0
  6  3  1  0
  1 10  1  0
  3 11  1  0
  5 12  1  0
  5 13  1  0
  6 14  1  0
  7 15  1  0
  7 16  1  0
  8 17  1  0
  8 18  1  0
  9 19  1  0
  9 20  1  0
  9 21  1  0
M  END
