
     RDKit          3D

 13 12  0  0  0  0  0  0  0  0999 V2000
   -3.3501    1.0031    1.3399 C   0  0  0  0  0  0  0  0  0  0  0  0
   -2.3183    0.9571    0.7113 C   0  0  0  0  0  0  0  0  0  0  0  0
   -1.0549    0.9247   -0.0552 C   0  0  0  0  0  0  0  0  0  0  0  0
   -0.3618   -0.3288    0.3652 C   0  0  0  0  0  0  0  0  0  0  0  0
   -0.8416   -1.1138    1.2080 O   0  0  0  0  0  0  0  0  0  0  0  0
    0.9260   -0.6032   -0.2650 C   0  0  0  0  0  0  0  0  0  0  0  0
    2.0070   -0.8278   -0.7709 C   0  0  0  0  0  0  0  0  0  0  0  0
    3.2855   -1.0904   -1.3415 C   0  0  0  0  0  0  0  0  0  0  0  0
    3.5449   -2.2084   -1.9061 O   0  0  0  0  0  0  0  0  0  0  0  0
   -4.2619    1.0472    1.8763 H   0  0  0  0  0  0  0  0  0  0  0  0
   -0.4373    1.8234    0.1810 H   0  0  0  0  0  0  0  0  0  0  0  0
   -1.2599    0.8141   -1.1268 H   0  0  0  0  0  0  0  0  0  0  0  0
    4.1225   -0.3971   -1.3522 H   0  0  0  0  0  0  0  0  0  0  0  0
  1  2  3  0
  2  3  1  0
  3  4  1  0
  4  5  2  0
  4  6  1  0
  6  7  3  0
  7  8  1  0
  8  9  2  0
  1 10  1  0
  3 11  1  0
  3 12  1  0
  8 13  1  0
M  END
