
     RDKit          3D

 13 13  0  0  0  0  0  0  0  0999 V2000
    2.8362   -1.0017    0.6459 C   0  0  0  0  0  0  0  0  0  0  0  0
    1.7121   -0.9797    0.1810 C   0  0  0  0  0  0  0  0  0  0  0  0
    0.3660   -0.9685   -0.3981 C   0  0  0  0  0  0  0  0  0  0  0  0
    0.1577   -0.0581   -1.4120 O   0  0  0  0  0  0  0  0  0  0  0  0
   -0.5166    0.1805   -0.1925 C   0  0  0  0  0  0  0  0  0  0  0  0
   -1.9593   -0.0558   -0.1666 C   0  0  0  0  0  0  0  0  0  0  0  0
   -3.1626   -0.2360   -0.1417 C   0  0  0  0  0  0  0  0  0  0  0  0
   -0.0330    1.2910    0.6350 C   0  0  0  0  0  0  0  0  0  0  0  0
    0.3684    2.2202    1.3190 C   0  0  0  0  0  0  0  0  0  0  0  0
    3.8098   -1.0305    1.0657 H   0  0  0  0  0  0  0  0  0  0  0  0
   -0.0621   -1.9854   -0.6224 H   0  0  0  0  0  0  0  0  0  0  0  0
   -4.2171   -0.3989   -0.1219 H   0  0  0  0  0  0  0  0  0  0  0  0
    0.7005    3.0229    1.9213 H   0  0  0  0  0  0  0  0  0  0  0  0
  1  2  3  0
  2  3  1  0
  3  4  1  0
  4  5  1  0
  5  6  1  0
  6  7  3  0
  5  8  1  0
  8  9  3  0
  5  3  1  0
  1 10  1  0
  3 11  1  0
  7 12  1  0
  9 13  1  0
M  END
