
     RDKit          3D

 14 13  0  0  0  0  0  0  0  0999 V2000
    1.5411    0.5251    1.7865 C   0  0  0  0  0  0  0  0  0  0  0  0
    1.6332   -0.2520    0.9542 C   0  0  0  0  0  0  0  0  0  0  0  0
    1.7420   -1.3044   -0.1627 C   0  0  0  0  0  0  0  0  0  0  0  0
    1.0353   -0.6855   -1.3458 C   0  0  0  0  0  0  0  0  0  0  0  0
    1.6344   -0.7662   -2.4170 O   0  0  0  0  0  0  0  0  0  0  0  0
   -0.2267   -0.0948   -1.0826 C   0  0  0  0  0  0  0  0  0  0  0  0
   -1.3194    0.4241   -0.8333 C   0  0  0  0  0  0  0  0  0  0  0  0
   -2.6429    1.0236   -0.5306 C   0  0  0  0  0  0  0  0  0  0  0  0
    1.4773    1.2137    2.5221 H   0  0  0  0  0  0  0  0  0  0  0  0
    1.2261   -2.2098    0.1809 H   0  0  0  0  0  0  0  0  0  0  0  0
    2.7950   -1.5066   -0.3471 H   0  0  0  0  0  0  0  0  0  0  0  0
   -3.2933    0.2184   -0.1766 H   0  0  0  0  0  0  0  0  0  0  0  0
   -2.5617    1.8152    0.2730 H   0  0  0  0  0  0  0  0  0  0  0  0
   -3.0404    1.5992   -1.4277 H   0  0  0  0  0  0  0  0  0  0  0  0
  1  2  3  0
  2  3  1  0
  3  4  1  0
  4  5  2  0
  4  6  1  0
  6  7  3  0
  7  8  1  0
  1  9  1  0
  3 10  1  0
  3 11  1  0
  8 12  1  0
  8 13  1  0
  8 14  1  0
M  END
