
     RDKit          3D

 19 20  0  0  0  0  0  0  0  0999 V2000
    3.3775   -0.4889    0.5954 C   0  0  0  0  0  0  0  0  0  0  0  0
    2.2715   -0.0543    0.8128 C   0  0  0  0  0  0  0  0  0  0  0  0
    0.9197    0.4792    1.0929 C   0  0  0  0  0  0  0  0  0  0  0  0
    0.0080    0.0825   -0.0208 C   0  0  0  0  0  0  0  0  0  0  0  0
    0.3219    0.5327   -1.3986 C   0  0  0  0  0  0  0  0  0  0  0  0
   -0.8647    1.0904   -0.7071 C   0  0  0  0  0  0  0  0  0  0  0  0
   -2.0515    0.1570   -0.6141 C   0  0  0  0  0  0  0  0  0  0  0  0
   -1.2023   -0.7207    0.3027 C   0  0  0  0  0  0  0  0  0  0  0  0
   -1.1904   -2.0568   -0.0075 O   0  0  0  0  0  0  0  0  0  0  0  0
    4.3511   -0.8672    0.3912 H   0  0  0  0  0  0  0  0  0  0  0  0
    0.5995    0.0853    2.0615 H   0  0  0  0  0  0  0  0  0  0  0  0
    1.0327    1.5861    1.2026 H   0  0  0  0  0  0  0  0  0  0  0  0
    0.1974   -0.1540   -2.2662 H   0  0  0  0  0  0  0  0  0  0  0  0
    1.2178    1.1703   -1.4937 H   0  0  0  0  0  0  0  0  0  0  0  0
   -0.9350    2.1192   -0.3602 H   0  0  0  0  0  0  0  0  0  0  0  0
   -2.1685   -0.3707   -1.5975 H   0  0  0  0  0  0  0  0  0  0  0  0
   -2.9599    0.5620   -0.1703 H   0  0  0  0  0  0  0  0  0  0  0  0
   -1.5627   -0.5427    1.3558 H   0  0  0  0  0  0  0  0  0  0  0  0
   -1.3622   -2.6094    0.8210 H   0  0  0  0  0  0  0  0  0  0  0  0
  1  2  3  0
  2  3  1  0
  3  4  1  0
  4  5  1  0
  5  6  1  0
  6  7  1  0
  7  8  1  0
  8  9  1  0
  6  4  1  0
  8  4  1  0
  1 10  1  0
  3 11  1  0
  3 12  1  0
  5 13  1  0
  5 14  1  0
  6 15  1  0
  7 16  1  0
  7 17  1  0
  8 18  1  0
  9 19  1  0
M  END
