
     RDKit          3D

 16 15  0  0  0  0  0  0  0  0999 V2000
    3.3440    1.2218    1.4613 C   0  0  0  0  0  0  0  0  0  0  0  0
    2.2828    0.1127    0.6616 C   0  0  0  0  0  0  0  0  0  0  0  0
    1.7211   -0.4628    0.2269 C   0  0  0  0  0  0  0  0  0  0  0  0
    0.1808   -0.1856    0.0339 C   0  0  0  0  0  0  0  0  0  0  0  0
   -0.2682    0.6103    0.9900 O   0  0  0  0  0  0  0  0  0  0  0  0
   -0.7393   -0.6289   -0.9565 C   0  0  0  0  0  0  0  0  0  0  0  0
   -2.1508   -0.2672   -0.4144 C   0  0  0  0  0  0  0  0  0  0  0  0
   -2.3669   -0.9288    0.7710 O   0  0  0  0  0  0  0  0  0  0  0  0
    4.1722    2.0967    2.0643 H   0  0  0  0  0  0  0  0  0  0  0  0
    2.0314    0.0049   -1.1610 H   0  0  0  0  0  0  0  0  0  0  0  0
    1.4375    1.2785   -0.1757 H   0  0  0  0  0  0  0  0  0  0  0  0
   -0.6386   -0.1004   -1.9511 H   0  0  0  0  0  0  0  0  0  0  0  0
   -0.6494   -1.7085   -1.1442 H   0  0  0  0  0  0  0  0  0  0  0  0
   -2.8923   -0.5756   -1.1508 H   0  0  0  0  0  0  0  0  0  0  0  0
   -2.1537    0.8395   -0.2313 H   0  0  0  0  0  0  0  0  0  0  0  0
   -3.3106   -1.3066    0.7591 H   0  0  0  0  0  0  0  0  0  0  0  0
  1  2  3  0
  2  3  1  0
  3  4  1  0
  4  5  2  0
  4  6  1  0
  6  7  1  0
  7  8  1  0
  1  9  1  0
  3 10  1  0
  3 11  1  0
  6 12  1  0
  6 13  1  0
  7 14  1  0
  7 15  1  0
  8 16  1  0
M  END
