
     RDKit          3D

 17 16  0  0  0  0  0  0  0  0999 V2000
   -2.0101   -2.5426   -0.3890 C   0  0  0  0  0  0  0  0  0  0  0  0
   -1.3258   -1.6887    0.1204 C   0  0  0  0  0  0  0  0  0  0  0  0
   -0.4898   -0.6262    0.7259 C   0  0  0  0  0  0  0  0  0  0  0  0
    0.6121   -0.2635   -0.1670 C   0  0  0  0  0  0  0  0  0  0  0  0
    1.5199    0.0420   -0.9297 C   0  0  0  0  0  0  0  0  0  0  0  0
    2.6112    0.4115   -1.8148 C   0  0  0  0  0  0  0  0  0  0  0  0
   -1.3943    0.5643    0.9759 C   0  0  0  0  0  0  0  0  0  0  0  0
   -0.6730    1.6934    1.5805 C   0  0  0  0  0  0  0  0  0  0  0  0
    0.5289    1.5562    1.8073 O   0  0  0  0  0  0  0  0  0  0  0  0
   -2.6295   -3.2876   -0.8351 H   0  0  0  0  0  0  0  0  0  0  0  0
   -0.0537   -1.0231    1.6585 H   0  0  0  0  0  0  0  0  0  0  0  0
    3.0081   -0.4889   -2.3300 H   0  0  0  0  0  0  0  0  0  0  0  0
    2.1914    1.0905   -2.6108 H   0  0  0  0  0  0  0  0  0  0  0  0
    3.4145    0.9680   -1.3037 H   0  0  0  0  0  0  0  0  0  0  0  0
   -1.8968    0.7975    0.0308 H   0  0  0  0  0  0  0  0  0  0  0  0
   -2.1958    0.2046    1.6792 H   0  0  0  0  0  0  0  0  0  0  0  0
   -1.2172    2.5927    1.8016 H   0  0  0  0  0  0  0  0  0  0  0  0
  1  2  3  0
  2  3  1  0
  3  4  1  0
  4  5  3  0
  5  6  1  0
  3  7  1  0
  7  8  1  0
  8  9  2  0
  1 10  1  0
  3 11  1  0
  6 12  1  0
  6 13  1  0
  6 14  1  0
  7 15  1  0
  7 16  1  0
  8 17  1  0
M  END
