
     RDKit          3D

 17 16  0  0  0  0  0  0  0  0999 V2000
    5.5216    0.1088    1.8752 C   0  0  0  0  0  0  0  0  0  0  0  0
    4.2502   -0.1863    1.0165 C   0  0  0  0  0  0  0  0  0  0  0  0
    3.0545   -0.4719    0.1979 C   0  0  0  0  0  0  0  0  0  0  0  0
    2.1107   -0.4493    0.0239 C   0  0  0  0  0  0  0  0  0  0  0  0
    0.8754   -0.4154   -0.1819 C   0  0  0  0  0  0  0  0  0  0  0  0
   -0.6141   -0.3544   -0.4381 C   0  0  0  0  0  0  0  0  0  0  0  0
   -1.8149   -0.2953   -0.6254 C   0  0  0  0  0  0  0  0  0  0  0  0
   -2.8509   -0.2357   -0.7909 C   0  0  0  0  0  0  0  0  0  0  0  0
   -4.0525   -0.1867    0.1281 C   0  0  0  0  0  0  0  0  0  0  0  0
    6.2436    0.2736    2.3761 H   0  0  0  0  0  0  0  0  0  0  0  0
    3.6565   -1.6073   -0.3640 H   0  0  0  0  0  0  0  0  0  0  0  0
    3.7059    0.0945   -0.9416 H   0  0  0  0  0  0  0  0  0  0  0  0
   -3.3402   -1.2126   -1.5559 H   0  0  0  0  0  0  0  0  0  0  0  0
   -3.2767    0.5665   -1.6865 H   0  0  0  0  0  0  0  0  0  0  0  0
   -3.8932   -0.0633    1.2003 H   0  0  0  0  0  0  0  0  0  0  0  0
   -4.8871   -0.9591   -0.1308 H   0  0  0  0  0  0  0  0  0  0  0  0
   -4.6889    0.7627   -0.1029 H   0  0  0  0  0  0  0  0  0  0  0  0
  1  2  3  0
  2  3  1  0
  3  4  1  0
  4  5  3  0
  5  6  1  0
  6  7  3  0
  7  8  1  0
  8  9  1  0
  1 10  1  0
  3 11  1  0
  3 12  1  0
  8 13  1  0
  8 14  1  0
  9 15  1  0
  9 16  1  0
  9 17  1  0
M  END
