
     RDKit          3D

 16 16  0  0  0  0  0  0  0  0999 V2000
   -0.6585   -1.2629   -2.1791 C   0  0  0  0  0  0  0  0  0  0  0  0
   -0.6025   -0.5870   -1.0978 C   0  0  0  0  0  0  0  0  0  0  0  0
   -0.5318    0.1220    0.0666 C   0  0  0  0  0  0  0  0  0  0  0  0
   -1.0872    1.5970    0.0106 C   0  0  0  0  0  0  0  0  0  0  0  0
   -0.5121    2.0715   -1.1762 O   0  0  0  0  0  0  0  0  0  0  0  0
   -0.9662   -0.5392    1.2714 O   0  0  0  0  0  0  0  0  0  0  0  0
    0.3869   -0.1570    1.1313 C   0  0  0  0  0  0  0  0  0  0  0  0
    1.4249   -1.2307    1.1635 C   0  0  0  0  0  0  0  0  0  0  0  0
   -0.6890   -1.8724   -3.1529 H   0  0  0  0  0  0  0  0  0  0  0  0
   -0.8363    2.1358    0.9009 H   0  0  0  0  0  0  0  0  0  0  0  0
   -2.1666    1.4444   -0.1422 H   0  0  0  0  0  0  0  0  0  0  0  0
    0.4914    1.9933   -1.1146 H   0  0  0  0  0  0  0  0  0  0  0  0
    0.6270    0.7279    1.8076 H   0  0  0  0  0  0  0  0  0  0  0  0
    1.8374   -1.3689    2.1875 H   0  0  0  0  0  0  0  0  0  0  0  0
    2.2576   -0.9215    0.4674 H   0  0  0  0  0  0  0  0  0  0  0  0
    1.0251   -2.1521    0.6856 H   0  0  0  0  0  0  0  0  0  0  0  0
  1  2  3  0
  2  3  1  0
  3  4  1  0
  4  5  1  0
  3  6  1  0
  6  7  1  0
  7  8  1  0
  7  3  1  0
  1  9  1  0
  4 10  1  0
  4 11  1  0
  5 12  1  0
  7 13  1  0
  8 14  1  0
  8 15  1  0
  8 16  1  0
M  END
