
     RDKit          3D

 19 18  0  0  0  0  0  0  0  0999 V2000
    3.1420   -0.0503    0.7456 C   0  0  0  0  0  0  0  0  0  0  0  0
    1.9554   -0.2455    0.8391 C   0  0  0  0  0  0  0  0  0  0  0  0
    0.5255   -0.4934    0.9390 C   0  0  0  0  0  0  0  0  0  0  0  0
   -0.2239   -0.1416   -0.3217 C   0  0  0  0  0  0  0  0  0  0  0  0
    0.2894   -0.9200   -1.3519 O   0  0  0  0  0  0  0  0  0  0  0  0
   -1.6820   -0.4307   -0.0825 C   0  0  0  0  0  0  0  0  0  0  0  0
   -1.7828   -1.7956    0.2584 O   0  0  0  0  0  0  0  0  0  0  0  0
   -0.0225    1.3103   -0.7069 C   0  0  0  0  0  0  0  0  0  0  0  0
   -0.5188    2.1387    0.2902 O   0  0  0  0  0  0  0  0  0  0  0  0
    4.2009    0.1300    0.6591 H   0  0  0  0  0  0  0  0  0  0  0  0
    0.1585    0.0730    1.8216 H   0  0  0  0  0  0  0  0  0  0  0  0
    0.3423   -1.5757    1.1261 H   0  0  0  0  0  0  0  0  0  0  0  0
   -0.2004   -0.6638   -2.1789 H   0  0  0  0  0  0  0  0  0  0  0  0
   -2.0301    0.1396    0.7848 H   0  0  0  0  0  0  0  0  0  0  0  0
   -2.3267   -0.1815   -0.9372 H   0  0  0  0  0  0  0  0  0  0  0  0
   -2.3166   -2.2798   -0.4260 H   0  0  0  0  0  0  0  0  0  0  0  0
   -0.5976    1.4644   -1.6466 H   0  0  0  0  0  0  0  0  0  0  0  0
    1.0283    1.5447   -0.9103 H   0  0  0  0  0  0  0  0  0  0  0  0
    0.0589    1.9773    1.0978 H   0  0  0  0  0  0  0  0  0  0  0  0
  1  2  3  0
  2  3  1  0
  3  4  1  0
  4  5  1  0
  4  6  1  0
  6  7  1  0
  4  8  1  0
  8  9  1  0
  1 10  1  0
  3 11  1  0
  3 12  1  0
  5 13  1  0
  6 14  1  0
  6 15  1  0
  7 16  1  0
  8 17  1  0
  8 18  1  0
  9 19  1  0
M  END
