
     RDKit          3D

 17 18  0  0  0  0  0  0  0  0999 V2000
    0.3030    2.6171    0.2946 C   0  0  0  0  0  0  0  0  0  0  0  0
   -0.5979    1.2456    0.3396 C   0  0  0  0  0  0  0  0  0  0  0  0
   -1.2880    0.2056    0.3936 C   0  0  0  0  0  0  0  0  0  0  0  0
    0.0031   -0.8258    0.5896 C   0  0  0  0  0  0  0  0  0  0  0  0
    1.2484   -0.2049   -0.4701 C   0  0  0  0  0  0  0  0  0  0  0  0
    2.2822   -1.2126   -0.4528 C   0  0  0  0  0  0  0  0  0  0  0  0
    1.2125   -1.0559   -1.5184 O   0  0  0  0  0  0  0  0  0  0  0  0
   -2.6649    0.2321    0.3530 C   0  0  0  0  0  0  0  0  0  0  0  0
   -1.9359   -0.0912   -0.9166 O   0  0  0  0  0  0  0  0  0  0  0  0
    0.8852    3.4942    0.2642 H   0  0  0  0  0  0  0  0  0  0  0  0
    0.5432   -0.3736    1.5458 H   0  0  0  0  0  0  0  0  0  0  0  0
    0.1090   -1.7680    0.4564 H   0  0  0  0  0  0  0  0  0  0  0  0
    1.0616    0.8313   -0.5105 H   0  0  0  0  0  0  0  0  0  0  0  0
    2.1112   -2.2699    0.0706 H   0  0  0  0  0  0  0  0  0  0  0  0
    3.1395   -1.3054   -1.1706 H   0  0  0  0  0  0  0  0  0  0  0  0
   -3.1647    1.2164    0.2356 H   0  0  0  0  0  0  0  0  0  0  0  0
   -3.2475   -0.7350    0.4958 H   0  0  0  0  0  0  0  0  0  0  0  0
  1  2  3  0
  2  3  1  0
  3  4  1  0
  4  5  1  0
  5  6  1  0
  6  7  1  0
  3  8  1  0
  8  9  1  0
  9  3  1  0
  7  5  1  0
  1 10  1  0
  4 11  1  0
  4 12  1  0
  5 13  1  0
  6 14  1  0
  6 15  1  0
  8 16  1  0
  8 17  1  0
M  END
