
     RDKit          3D

 21 22  0  0  0  0  0  0  0  0999 V2000
    3.4506    1.6190   -1.5051 C   0  0  0  0  0  0  0  0  0  0  0  0
    2.0969    1.5301   -0.9457 C   0  0  0  0  0  0  0  0  0  0  0  0
    0.9215    1.4334   -0.4493 C   0  0  0  0  0  0  0  0  0  0  0  0
    0.3883    0.0833   -0.2043 C   0  0  0  0  0  0  0  0  0  0  0  0
    0.6809   -1.1231    0.4819 C   0  0  0  0  0  0  0  0  0  0  0  0
   -0.6719   -1.7587    0.9140 C   0  0  0  0  0  0  0  0  0  0  0  0
   -1.7691   -0.8285    0.5594 C   0  0  0  0  0  0  0  0  0  0  0  0
   -2.0475    0.0254   -0.6693 C   0  0  0  0  0  0  0  0  0  0  0  0
   -1.0816    0.4649    0.4108 C   0  0  0  0  0  0  0  0  0  0  0  0
    4.4045    1.6782   -1.9001 H   0  0  0  0  0  0  0  0  0  0  0  0
    0.6610    2.1903    0.3791 H   0  0  0  0  0  0  0  0  0  0  0  0
    0.1684    1.7604   -1.3862 H   0  0  0  0  0  0  0  0  0  0  0  0
    0.0665   -0.2415   -1.3166 H   0  0  0  0  0  0  0  0  0  0  0  0
    1.1614   -1.9359   -0.1912 H   0  0  0  0  0  0  0  0  0  0  0  0
    1.4022   -1.1247    1.3773 H   0  0  0  0  0  0  0  0  0  0  0  0
   -0.5805   -1.6654    2.0853 H   0  0  0  0  0  0  0  0  0  0  0  0
   -0.7149   -2.7824    0.6621 H   0  0  0  0  0  0  0  0  0  0  0  0
   -2.6851   -0.9465    1.2621 H   0  0  0  0  0  0  0  0  0  0  0  0
   -3.0346    0.4726   -0.7085 H   0  0  0  0  0  0  0  0  0  0  0  0
   -1.6365   -0.2710   -1.6813 H   0  0  0  0  0  0  0  0  0  0  0  0
   -1.1806    1.4201    0.7523 H   0  0  0  0  0  0  0  0  0  0  0  0
  1  2  3  0
  2  3  1  0
  3  4  1  0
  4  5  1  0
  5  6  1  0
  6  7  1  0
  7  8  1  0
  8  9  1  0
  9  4  1  0
  9  7  1  0
  1 10  1  0
  3 11  1  0
  3 12  1  0
  4 13  1  0
  5 14  1  0
  5 15  1  0
  6 16  1  0
  6 17  1  0
  7 18  1  0
  8 19  1  0
  8 20  1  0
  9 21  1  0
M  END
