
     RDKit          3D

 19 19  0  0  0  0  0  0  0  0999 V2000
    3.4404   -0.2324   -0.4811 C   0  0  0  0  0  0  0  0  0  0  0  0
    2.2602   -0.4104   -0.3186 C   0  0  0  0  0  0  0  0  0  0  0  0
    0.8247   -0.6048   -0.1083 C   0  0  0  0  0  0  0  0  0  0  0  0
    0.0373    0.2837    0.4667 C   0  0  0  0  0  0  0  0  0  0  0  0
    0.4578    1.6119    0.9919 C   0  0  0  0  0  0  0  0  0  0  0  0
   -1.3291   -0.2958    0.4897 C   0  0  0  0  0  0  0  0  0  0  0  0
   -2.1563    0.3412   -0.5882 C   0  0  0  0  0  0  0  0  0  0  0  0
   -1.1299   -1.6560    0.2598 O   0  0  0  0  0  0  0  0  0  0  0  0
    0.0164   -1.7666   -0.4803 C   0  0  0  0  0  0  0  0  0  0  0  0
    4.4785   -0.0711   -0.6126 H   0  0  0  0  0  0  0  0  0  0  0  0
   -0.4279    2.0750    1.4712 H   0  0  0  0  0  0  0  0  0  0  0  0
    0.7760    2.3045    0.1822 H   0  0  0  0  0  0  0  0  0  0  0  0
    1.3126    1.5320    1.6915 H   0  0  0  0  0  0  0  0  0  0  0  0
   -1.7952   -0.1271    1.4896 H   0  0  0  0  0  0  0  0  0  0  0  0
   -3.0872   -0.2797   -0.6988 H   0  0  0  0  0  0  0  0  0  0  0  0
   -1.5706    0.3159   -1.5228 H   0  0  0  0  0  0  0  0  0  0  0  0
   -2.3941    1.3714   -0.3070 H   0  0  0  0  0  0  0  0  0  0  0  0
   -0.2544   -1.6586   -1.5707 H   0  0  0  0  0  0  0  0  0  0  0  0
    0.5407   -2.7330   -0.3544 H   0  0  0  0  0  0  0  0  0  0  0  0
  1  2  3  0
  2  3  1  0
  3  4  2  0
  4  5  1  0
  4  6  1  0
  6  7  1  0
  6  8  1  0
  8  9  1  0
  9  3  1  0
  1 10  1  0
  5 11  1  0
  5 12  1  0
  5 13  1  0
  6 14  1  0
  7 15  1  0
  7 16  1  0
  7 17  1  0
  9 18  1  0
  9 19  1  0
M  END
