
     RDKit          3D

 15 15  0  0  0  0  0  0  0  0999 V2000
    3.9452   -1.5813    1.0651 C   0  0  0  0  0  0  0  0  0  0  0  0
    2.9313   -1.1413    0.5182 C   0  0  0  0  0  0  0  0  0  0  0  0
    1.7064   -0.6248   -0.1152 C   0  0  0  0  0  0  0  0  0  0  0  0
    0.7165   -0.2278   -0.6179 C   0  0  0  0  0  0  0  0  0  0  0  0
   -0.4138    0.2325   -1.2019 C   0  0  0  0  0  0  0  0  0  0  0  0
   -1.1914    1.4914   -0.9113 C   0  0  0  0  0  0  0  0  0  0  0  0
   -1.7106    0.1027   -0.4612 C   0  0  0  0  0  0  0  0  0  0  0  0
   -1.7926   -0.0219    1.0099 C   0  0  0  0  0  0  0  0  0  0  0  0
   -0.7737    0.0647    1.7463 O   0  0  0  0  0  0  0  0  0  0  0  0
    4.8895   -2.0116    1.5820 H   0  0  0  0  0  0  0  0  0  0  0  0
   -0.5109   -0.0735   -2.3321 H   0  0  0  0  0  0  0  0  0  0  0  0
   -1.7558    1.9606   -1.7557 H   0  0  0  0  0  0  0  0  0  0  0  0
   -0.7216    2.1939   -0.2071 H   0  0  0  0  0  0  0  0  0  0  0  0
   -2.6052   -0.1762   -1.1040 H   0  0  0  0  0  0  0  0  0  0  0  0
   -2.7130   -0.1874    1.5689 H   0  0  0  0  0  0  0  0  0  0  0  0
  1  2  3  0
  2  3  1  0
  3  4  3  0
  4  5  1  0
  5  6  1  0
  6  7  1  0
  7  8  1  0
  8  9  2  0
  7  5  1  0
  1 10  1  0
  5 11  1  0
  6 12  1  0
  6 13  1  0
  7 14  1  0
  8 15  1  0
M  END
