
     RDKit          3D

 19 20  0  0  0  0  0  0  0  0999 V2000
    3.9021    0.1784    0.5589 C   0  0  0  0  0  0  0  0  0  0  0  0
    2.7323   -0.0171    0.3515 C   0  0  0  0  0  0  0  0  0  0  0  0
    1.2763   -0.2377    0.1082 C   0  0  0  0  0  0  0  0  0  0  0  0
    0.4714    0.8166    0.0367 C   0  0  0  0  0  0  0  0  0  0  0  0
   -0.9420    0.3898   -0.2133 C   0  0  0  0  0  0  0  0  0  0  0  0
   -2.0488    1.2901    0.1892 C   0  0  0  0  0  0  0  0  0  0  0  0
   -1.1423   -0.3081   -1.5354 C   0  0  0  0  0  0  0  0  0  0  0  0
   -0.8823   -1.0472   -0.2646 C   0  0  0  0  0  0  0  0  0  0  0  0
    0.5802   -1.4718   -0.0437 C   0  0  0  0  0  0  0  0  0  0  0  0
    4.9251    0.3643    0.7294 H   0  0  0  0  0  0  0  0  0  0  0  0
    0.7730    1.8389    0.1366 H   0  0  0  0  0  0  0  0  0  0  0  0
   -1.9459    1.7356    1.1999 H   0  0  0  0  0  0  0  0  0  0  0  0
   -2.1364    2.1642   -0.5360 H   0  0  0  0  0  0  0  0  0  0  0  0
   -3.0202    0.7728    0.1215 H   0  0  0  0  0  0  0  0  0  0  0  0
   -0.3295   -0.2048   -2.2869 H   0  0  0  0  0  0  0  0  0  0  0  0
   -2.1304   -0.3273   -1.9434 H   0  0  0  0  0  0  0  0  0  0  0  0
   -1.6443   -1.7384    0.1666 H   0  0  0  0  0  0  0  0  0  0  0  0
    0.9342   -2.0018   -0.9823 H   0  0  0  0  0  0  0  0  0  0  0  0
    0.6274   -2.1964    0.8022 H   0  0  0  0  0  0  0  0  0  0  0  0
  1  2  3  0
  2  3  1  0
  3  4  2  0
  4  5  1  0
  5  6  1  0
  5  7  1  0
  7  8  1  0
  8  9  1  0
  9  3  1  0
  8  5  1  0
  1 10  1  0
  4 11  1  0
  6 12  1  0
  6 13  1  0
  6 14  1  0
  7 15  1  0
  7 16  1  0
  8 17  1  0
  9 18  1  0
  9 19  1  0
M  END
