
     RDKit          3D

 19 18  0  0  0  0  0  0  0  0999 V2000
    0.8026    2.4916    1.5340 C   0  0  0  0  0  0  0  0  0  0  0  0
    0.7308    1.7079    0.5876 C   0  0  0  0  0  0  0  0  0  0  0  0
    0.6352    0.7831   -0.5264 C   0  0  0  0  0  0  0  0  0  0  0  0
    1.0433   -0.5526   -0.1304 C   0  0  0  0  0  0  0  0  0  0  0  0
    1.4024   -1.6783    0.2148 C   0  0  0  0  0  0  0  0  0  0  0  0
    1.8446   -3.0002    0.6387 C   0  0  0  0  0  0  0  0  0  0  0  0
   -0.7087    0.8457   -1.1880 C   0  0  0  0  0  0  0  0  0  0  0  0
   -1.8746    0.5156   -0.3367 C   0  0  0  0  0  0  0  0  0  0  0  0
   -3.0195    0.6731   -1.1565 O   0  0  0  0  0  0  0  0  0  0  0  0
    0.8639    3.1774    2.3332 H   0  0  0  0  0  0  0  0  0  0  0  0
    1.3565    1.1844   -1.3160 H   0  0  0  0  0  0  0  0  0  0  0  0
    2.9336   -3.1483    0.4644 H   0  0  0  0  0  0  0  0  0  0  0  0
    1.5649   -3.1449    1.7016 H   0  0  0  0  0  0  0  0  0  0  0  0
    1.2768   -3.8077    0.0908 H   0  0  0  0  0  0  0  0  0  0  0  0
   -0.8228    1.8347   -1.6657 H   0  0  0  0  0  0  0  0  0  0  0  0
   -0.6792    0.0928   -2.0201 H   0  0  0  0  0  0  0  0  0  0  0  0
   -2.0133    1.0736    0.5760 H   0  0  0  0  0  0  0  0  0  0  0  0
   -1.8688   -0.5937   -0.1207 H   0  0  0  0  0  0  0  0  0  0  0  0
   -3.4677    1.5459   -0.9381 H   0  0  0  0  0  0  0  0  0  0  0  0
  1  2  3  0
  2  3  1  0
  3  4  1  0
  4  5  3  0
  5  6  1  0
  3  7  1  0
  7  8  1  0
  8  9  1  0
  1 10  1  0
  3 11  1  0
  6 12  1  0
  6 13  1  0
  6 14  1  0
  7 15  1  0
  7 16  1  0
  8 17  1  0
  8 18  1  0
  9 19  1  0
M  END
