
     RDKit          3D

 17 18  0  0  0  0  0  0  0  0999 V2000
    2.6850   -0.7363    1.5551 C   0  0  0  0  0  0  0  0  0  0  0  0
    1.6267   -0.5713    0.9974 C   0  0  0  0  0  0  0  0  0  0  0  0
    0.3259   -0.3584    0.3379 C   0  0  0  0  0  0  0  0  0  0  0  0
   -0.7306    0.3990    1.0656 C   0  0  0  0  0  0  0  0  0  0  0  0
   -1.2524    1.3549    0.0724 C   0  0  0  0  0  0  0  0  0  0  0  0
   -1.9047    2.3457    0.3468 O   0  0  0  0  0  0  0  0  0  0  0  0
   -0.8540    0.9113   -1.2964 C   0  0  0  0  0  0  0  0  0  0  0  0
    0.2464   -0.0908   -1.0962 C   0  0  0  0  0  0  0  0  0  0  0  0
   -0.1707   -1.4252   -0.6159 C   0  0  0  0  0  0  0  0  0  0  0  0
    3.6232   -0.8772    2.0292 H   0  0  0  0  0  0  0  0  0  0  0  0
   -0.3364    0.9824    1.9255 H   0  0  0  0  0  0  0  0  0  0  0  0
   -1.5110   -0.2862    1.4153 H   0  0  0  0  0  0  0  0  0  0  0  0
   -0.4357    1.7985   -1.8466 H   0  0  0  0  0  0  0  0  0  0  0  0
   -1.7391    0.5037   -1.8188 H   0  0  0  0  0  0  0  0  0  0  0  0
    1.1589    0.0492   -1.7070 H   0  0  0  0  0  0  0  0  0  0  0  0
    0.5181   -2.2948   -0.7642 H   0  0  0  0  0  0  0  0  0  0  0  0
   -1.2497   -1.7047   -0.6000 H   0  0  0  0  0  0  0  0  0  0  0  0
  1  2  3  0
  2  3  1  0
  3  4  1  0
  4  5  1  0
  5  6  2  0
  5  7  1  0
  7  8  1  0
  8  9  1  0
  8  3  1  0
  9  3  1  0
  1 10  1  0
  4 11  1  0
  4 12  1  0
  7 13  1  0
  7 14  1  0
  8 15  1  0
  9 16  1  0
  9 17  1  0
M  END
