
     RDKit          3D

 19 18  0  0  0  0  0  0  0  0999 V2000
   -2.6291    2.0725   -1.4234 C   0  0  0  0  0  0  0  0  0  0  0  0
   -2.5539    0.9782   -0.9193 C   0  0  0  0  0  0  0  0  0  0  0  0
   -2.4371   -0.3651   -0.3091 C   0  0  0  0  0  0  0  0  0  0  0  0
   -0.9531   -0.6816   -0.2794 C   0  0  0  0  0  0  0  0  0  0  0  0
   -0.6820   -1.9151    0.2681 O   0  0  0  0  0  0  0  0  0  0  0  0
   -0.3100    0.3629    0.6240 C   0  0  0  0  0  0  0  0  0  0  0  0
    1.1429    0.1521    0.7277 C   0  0  0  0  0  0  0  0  0  0  0  0
    2.3367   -0.0027    0.8022 C   0  0  0  0  0  0  0  0  0  0  0  0
    3.8006   -0.2086    0.9138 C   0  0  0  0  0  0  0  0  0  0  0  0
   -2.7026    3.0345   -1.8857 H   0  0  0  0  0  0  0  0  0  0  0  0
   -3.0142   -1.1088   -0.8721 H   0  0  0  0  0  0  0  0  0  0  0  0
   -2.7687   -0.2950    0.7464 H   0  0  0  0  0  0  0  0  0  0  0  0
   -0.5391   -0.5427   -1.2966 H   0  0  0  0  0  0  0  0  0  0  0  0
    0.1381   -2.3263   -0.0676 H   0  0  0  0  0  0  0  0  0  0  0  0
   -0.7556    0.3489    1.6360 H   0  0  0  0  0  0  0  0  0  0  0  0
   -0.5474    1.3463    0.1794 H   0  0  0  0  0  0  0  0  0  0  0  0
    4.0339   -1.3083    0.8528 H   0  0  0  0  0  0  0  0  0  0  0  0
    4.1186    0.2174    1.8793 H   0  0  0  0  0  0  0  0  0  0  0  0
    4.3220    0.2414    0.0435 H   0  0  0  0  0  0  0  0  0  0  0  0
  1  2  3  0
  2  3  1  0
  3  4  1  0
  4  5  1  0
  4  6  1  0
  6  7  1  0
  7  8  3  0
  8  9  1  0
  1 10  1  0
  3 11  1  0
  3 12  1  0
  4 13  1  0
  5 14  1  0
  6 15  1  0
  6 16  1  0
  9 17  1  0
  9 18  1  0
  9 19  1  0
M  END
