
     RDKit          3D

 12 14  0  0  0  0  0  0  0  0999 V2000
    2.3304   -0.2240    1.7852 C   0  0  0  0  0  0  0  0  0  0  0  0
    1.3873    0.1002    1.1125 C   0  0  0  0  0  0  0  0  0  0  0  0
    0.2449    0.4802    0.3271 C   0  0  0  0  0  0  0  0  0  0  0  0
   -0.5395    1.5154    0.7947 O   0  0  0  0  0  0  0  0  0  0  0  0
   -1.1186    0.2687    0.7142 C   0  0  0  0  0  0  0  0  0  0  0  0
   -1.4143   -0.3095   -0.6725 C   0  0  0  0  0  0  0  0  0  0  0  0
   -0.6490   -1.3570   -1.1189 O   0  0  0  0  0  0  0  0  0  0  0  0
   -0.0165   -0.1311   -1.0214 C   0  0  0  0  0  0  0  0  0  0  0  0
    3.1610   -0.4901    2.3755 H   0  0  0  0  0  0  0  0  0  0  0  0
   -1.4970   -0.2422    1.5965 H   0  0  0  0  0  0  0  0  0  0  0  0
   -2.2630    0.0834   -1.2310 H   0  0  0  0  0  0  0  0  0  0  0  0
    0.3743    0.3060   -1.9368 H   0  0  0  0  0  0  0  0  0  0  0  0
  1  2  3  0
  2  3  1  0
  3  4  1  0
  4  5  1  0
  5  6  1  0
  6  7  1  0
  7  8  1  0
  5  3  1  0
  8  6  1  0
  8  3  1  0
  1  9  1  0
  5 10  1  0
  6 11  1  0
  8 12  1  0
M  END
