
     RDKit          3D

 18 17  0  0  0  0  0  0  0  0999 V2000
   -1.8561    2.2962   -0.0640 C   0  0  0  0  0  0  0  0  0  0  0  0
   -1.5787    1.1148   -0.1108 C   0  0  0  0  0  0  0  0  0  0  0  0
   -1.2276   -0.3073   -0.1481 C   0  0  0  0  0  0  0  0  0  0  0  0
   -1.9150   -0.9805    0.8491 O   0  0  0  0  0  0  0  0  0  0  0  0
    0.2763   -0.4887    0.0500 C   0  0  0  0  0  0  0  0  0  0  0  0
    0.5243   -2.0012    0.0298 C   0  0  0  0  0  0  0  0  0  0  0  0
    1.0055    0.1594   -0.9129 O   0  0  0  0  0  0  0  0  0  0  0  0
    1.8798    1.1108   -0.4128 C   0  0  0  0  0  0  0  0  0  0  0  0
   -2.0965    3.3361   -0.0044 H   0  0  0  0  0  0  0  0  0  0  0  0
   -1.5433   -0.7730   -1.1159 H   0  0  0  0  0  0  0  0  0  0  0  0
   -2.0537   -0.4712    1.6622 H   0  0  0  0  0  0  0  0  0  0  0  0
    0.5318   -0.1197    1.0582 H   0  0  0  0  0  0  0  0  0  0  0  0
    0.1937   -2.3447   -0.9716 H   0  0  0  0  0  0  0  0  0  0  0  0
   -0.1773   -2.4527    0.7681 H   0  0  0  0  0  0  0  0  0  0  0  0
    1.5694   -2.2522    0.2334 H   0  0  0  0  0  0  0  0  0  0  0  0
    1.3942    1.9083    0.1463 H   0  0  0  0  0  0  0  0  0  0  0  0
    2.6790    0.6850    0.2230 H   0  0  0  0  0  0  0  0  0  0  0  0
    2.3942    1.5806   -1.2796 H   0  0  0  0  0  0  0  0  0  0  0  0
  1  2  3  0
  2  3  1  0
  3  4  1  0
  3  5  1  0
  5  6  1  0
  5  7  1  0
  7  8  1  0
  1  9  1  0
  3 10  1  0
  4 11  1  0
  5 12  1  0
  6 13  1  0
  6 14  1  0
  6 15  1  0
  8 16  1  0
  8 17  1  0
  8 18  1  0
M  END
