
     RDKit          3D

 19 19  0  0  0  0  0  0  0  0999 V2000
    2.4388   -1.2528   -1.3041 C   0  0  0  0  0  0  0  0  0  0  0  0
    1.8144   -0.5580   -0.5274 C   0  0  0  0  0  0  0  0  0  0  0  0
    1.0460    0.2635    0.4041 C   0  0  0  0  0  0  0  0  0  0  0  0
   -0.2842   -0.1799    0.8258 C   0  0  0  0  0  0  0  0  0  0  0  0
   -0.8468   -1.5163    0.3875 C   0  0  0  0  0  0  0  0  0  0  0  0
   -0.9506   -1.6185   -0.9977 O   0  0  0  0  0  0  0  0  0  0  0  0
   -0.2473    0.8778   -0.1895 C   0  0  0  0  0  0  0  0  0  0  0  0
   -0.4448    2.3317    0.1513 C   0  0  0  0  0  0  0  0  0  0  0  0
   -0.5425    0.5277   -1.5154 O   0  0  0  0  0  0  0  0  0  0  0  0
    2.9723   -1.8701   -1.9953 H   0  0  0  0  0  0  0  0  0  0  0  0
    1.6380    0.9091    1.0814 H   0  0  0  0  0  0  0  0  0  0  0  0
   -0.5666    0.0642    1.8917 H   0  0  0  0  0  0  0  0  0  0  0  0
   -0.2280   -2.3603    0.8075 H   0  0  0  0  0  0  0  0  0  0  0  0
   -1.8485   -1.6432    0.8604 H   0  0  0  0  0  0  0  0  0  0  0  0
   -0.8916   -2.6024   -1.2144 H   0  0  0  0  0  0  0  0  0  0  0  0
    0.4270    2.9580   -0.1375 H   0  0  0  0  0  0  0  0  0  0  0  0
   -1.3900    2.6625   -0.3349 H   0  0  0  0  0  0  0  0  0  0  0  0
   -0.5794    2.4586    1.2513 H   0  0  0  0  0  0  0  0  0  0  0  0
   -1.5160    0.5483   -1.6708 H   0  0  0  0  0  0  0  0  0  0  0  0
  1  2  3  0
  2  3  1  0
  3  4  1  0
  4  5  1  0
  5  6  1  0
  4  7  1  0
  7  8  1  0
  7  9  1  0
  7  3  1  0
  1 10  1  0
  3 11  1  0
  4 12  1  0
  5 13  1  0
  5 14  1  0
  6 15  1  0
  8 16  1  0
  8 17  1  0
  8 18  1  0
  9 19  1  0
M  END
