
     RDKit          3D

 18 17  0  0  0  0  0  0  0  0999 V2000
    2.8373    1.2985   -0.5481 C   0  0  0  0  0  0  0  0  0  0  0  0
    1.9764    0.4538   -0.4176 C   0  0  0  0  0  0  0  0  0  0  0  0
    0.9552   -0.5783   -0.2481 C   0  0  0  0  0  0  0  0  0  0  0  0
    1.0946   -1.5052   -1.2456 O   0  0  0  0  0  0  0  0  0  0  0  0
   -0.4318    0.0007   -0.1540 C   0  0  0  0  0  0  0  0  0  0  0  0
   -1.3954   -1.1476    0.0179 C   0  0  0  0  0  0  0  0  0  0  0  0
   -0.4979    0.9825    0.9870 C   0  0  0  0  0  0  0  0  0  0  0  0
   -1.7458    1.5486    1.1257 O   0  0  0  0  0  0  0  0  0  0  0  0
    3.5744    2.0448   -0.6649 H   0  0  0  0  0  0  0  0  0  0  0  0
    1.1764   -1.0839    0.7207 H   0  0  0  0  0  0  0  0  0  0  0  0
    0.2078   -1.5897   -1.7020 H   0  0  0  0  0  0  0  0  0  0  0  0
   -0.6635    0.4729   -1.1243 H   0  0  0  0  0  0  0  0  0  0  0  0
   -2.2047   -0.9150    0.7358 H   0  0  0  0  0  0  0  0  0  0  0  0
   -0.8531   -2.0395    0.4437 H   0  0  0  0  0  0  0  0  0  0  0  0
   -1.8161   -1.5027   -0.9512 H   0  0  0  0  0  0  0  0  0  0  0  0
   -0.2003    0.4651    1.9116 H   0  0  0  0  0  0  0  0  0  0  0  0
    0.2781    1.7579    0.7834 H   0  0  0  0  0  0  0  0  0  0  0  0
   -2.2915    1.3369    0.3301 H   0  0  0  0  0  0  0  0  0  0  0  0
  1  2  3  0
  2  3  1  0
  3  4  1  0
  3  5  1  0
  5  6  1  0
  5  7  1  0
  7  8  1  0
  1  9  1  0
  3 10  1  0
  4 11  1  0
  5 12  1  0
  6 13  1  0
  6 14  1  0
  6 15  1  0
  7 16  1  0
  7 17  1  0
  8 18  1  0
M  END
