
     RDKit          3D

 17 18  0  0  0  0  0  0  0  0999 V2000
    2.7899   -0.5359   -1.1714 C   0  0  0  0  0  0  0  0  0  0  0  0
    1.7255   -0.1244   -0.7783 C   0  0  0  0  0  0  0  0  0  0  0  0
    0.4323    0.3805   -0.2733 C   0  0  0  0  0  0  0  0  0  0  0  0
   -0.3584    1.1698   -1.2652 C   0  0  0  0  0  0  0  0  0  0  0  0
   -1.4930    0.4328   -0.9312 O   0  0  0  0  0  0  0  0  0  0  0  0
   -0.7015   -0.5717   -0.4148 C   0  0  0  0  0  0  0  0  0  0  0  0
   -1.0224   -0.9218    1.0228 C   0  0  0  0  0  0  0  0  0  0  0  0
   -0.4904    0.2776    1.7617 C   0  0  0  0  0  0  0  0  0  0  0  0
    0.5001    0.8381    1.0031 O   0  0  0  0  0  0  0  0  0  0  0  0
    3.7419   -0.8845   -1.5229 H   0  0  0  0  0  0  0  0  0  0  0  0
   -0.0554    0.9286   -2.3086 H   0  0  0  0  0  0  0  0  0  0  0  0
   -0.4572    2.2500   -1.0683 H   0  0  0  0  0  0  0  0  0  0  0  0
   -0.5072   -1.4318   -1.0737 H   0  0  0  0  0  0  0  0  0  0  0  0
   -0.5138   -1.8408    1.3049 H   0  0  0  0  0  0  0  0  0  0  0  0
   -2.1345   -0.9750    1.1013 H   0  0  0  0  0  0  0  0  0  0  0  0
   -0.1365   -0.0279    2.7541 H   0  0  0  0  0  0  0  0  0  0  0  0
   -1.3193    1.0364    1.8598 H   0  0  0  0  0  0  0  0  0  0  0  0
  1  2  3  0
  2  3  1  0
  3  4  1  0
  4  5  1  0
  5  6  1  0
  6  7  1  0
  7  8  1  0
  8  9  1  0
  6  3  1  0
  9  3  1  0
  1 10  1  0
  4 11  1  0
  4 12  1  0
  6 13  1  0
  7 14  1  0
  7 15  1  0
  8 16  1  0
  8 17  1  0
M  END
