
     RDKit          3D

 19 18  0  0  0  0  0  0  0  0999 V2000
   -1.1655    2.6250    0.5205 C   0  0  0  0  0  0  0  0  0  0  0  0
   -0.7951    1.4986    0.2114 C   0  0  0  0  0  0  0  0  0  0  0  0
   -0.3519    0.1591   -0.1754 C   0  0  0  0  0  0  0  0  0  0  0  0
    0.4261   -0.4178    0.9479 C   0  0  0  0  0  0  0  0  0  0  0  0
   -0.5144   -0.4714    2.1625 C   0  0  0  0  0  0  0  0  0  0  0  0
    0.3737    0.1932   -1.4898 C   0  0  0  0  0  0  0  0  0  0  0  0
    0.8633   -1.1181   -1.9683 C   0  0  0  0  0  0  0  0  0  0  0  0
   -1.4777    3.6010    0.7844 H   0  0  0  0  0  0  0  0  0  0  0  0
   -1.2694   -0.4594   -0.3180 H   0  0  0  0  0  0  0  0  0  0  0  0
    1.2583    0.2621    1.2645 H   0  0  0  0  0  0  0  0  0  0  0  0
    0.7666   -1.4492    0.7998 H   0  0  0  0  0  0  0  0  0  0  0  0
   -1.4914   -0.8452    1.7340 H   0  0  0  0  0  0  0  0  0  0  0  0
   -0.6416    0.5334    2.6047 H   0  0  0  0  0  0  0  0  0  0  0  0
   -0.0913   -1.2144    2.8714 H   0  0  0  0  0  0  0  0  0  0  0  0
    1.2759    0.8557   -1.3311 H   0  0  0  0  0  0  0  0  0  0  0  0
   -0.2259    0.7155   -2.2620 H   0  0  0  0  0  0  0  0  0  0  0  0
    1.0344   -1.0818   -3.0660 H   0  0  0  0  0  0  0  0  0  0  0  0
    0.1851   -1.9735   -1.7923 H   0  0  0  0  0  0  0  0  0  0  0  0
    1.8408   -1.4129   -1.4981 H   0  0  0  0  0  0  0  0  0  0  0  0
  1  2  3  0
  2  3  1  0
  3  4  1  0
  4  5  1  0
  3  6  1  0
  6  7  1  0
  1  8  1  0
  3  9  1  0
  4 10  1  0
  4 11  1  0
  5 12  1  0
  5 13  1  0
  5 14  1  0
  6 15  1  0
  6 16  1  0
  7 17  1  0
  7 18  1  0
  7 19  1  0
M  END
