
     RDKit          3D

 18 18  0  0  0  0  0  0  0  0999 V2000
    1.8176    2.5364    1.5715 C   0  0  0  0  0  0  0  0  0  0  0  0
    0.9760    2.0150    0.8168 C   0  0  0  0  0  0  0  0  0  0  0  0
   -0.0234    1.4242   -0.0582 C   0  0  0  0  0  0  0  0  0  0  0  0
    0.5007    0.0573   -0.4703 C   0  0  0  0  0  0  0  0  0  0  0  0
   -0.4527   -0.7172   -1.3496 C   0  0  0  0  0  0  0  0  0  0  0  0
   -0.1631   -1.1973    0.0287 C   0  0  0  0  0  0  0  0  0  0  0  0
   -1.0795   -0.9850    1.1783 C   0  0  0  0  0  0  0  0  0  0  0  0
    0.6031   -2.3733    0.0726 O   0  0  0  0  0  0  0  0  0  0  0  0
    2.5305    2.9949    2.2026 H   0  0  0  0  0  0  0  0  0  0  0  0
   -0.9578    1.3498    0.4786 H   0  0  0  0  0  0  0  0  0  0  0  0
   -0.1028    2.0414   -1.0104 H   0  0  0  0  0  0  0  0  0  0  0  0
    1.5789   -0.0050   -0.6790 H   0  0  0  0  0  0  0  0  0  0  0  0
    0.0255   -1.2213   -2.2033 H   0  0  0  0  0  0  0  0  0  0  0  0
   -1.4259   -0.2711   -1.5767 H   0  0  0  0  0  0  0  0  0  0  0  0
   -1.1963   -1.8471    1.8605 H   0  0  0  0  0  0  0  0  0  0  0  0
   -0.7070   -0.1159    1.7932 H   0  0  0  0  0  0  0  0  0  0  0  0
   -2.1183   -0.6998    0.8610 H   0  0  0  0  0  0  0  0  0  0  0  0
    0.1946   -2.9859    0.7302 H   0  0  0  0  0  0  0  0  0  0  0  0
  1  2  3  0
  2  3  1  0
  3  4  1  0
  4  5  1  0
  5  6  1  0
  6  7  1  0
  6  8  1  0
  6  4  1  0
  1  9  1  0
  3 10  1  0
  3 11  1  0
  4 12  1  0
  5 13  1  0
  5 14  1  0
  7 15  1  0
  7 16  1  0
  7 17  1  0
  8 18  1  0
M  END
