
     RDKit          3D

 21 21  0  0  0  0  0  0  0  0999 V2000
    3.8368   -1.1632   -0.5232 C   0  0  0  0  0  0  0  0  0  0  0  0
    2.6668   -1.3088   -0.7758 C   0  0  0  0  0  0  0  0  0  0  0  0
    1.2553   -1.4940   -1.1025 C   0  0  0  0  0  0  0  0  0  0  0  0
    0.4654   -0.5248   -0.3064 C   0  0  0  0  0  0  0  0  0  0  0  0
    0.9507    0.3568    0.5524 C   0  0  0  0  0  0  0  0  0  0  0  0
   -0.1338    1.1668    1.1703 C   0  0  0  0  0  0  0  0  0  0  0  0
   -1.3540    0.3375    0.8974 C   0  0  0  0  0  0  0  0  0  0  0  0
   -2.5321    1.2578    0.7327 C   0  0  0  0  0  0  0  0  0  0  0  0
   -1.0260   -0.4123   -0.3711 C   0  0  0  0  0  0  0  0  0  0  0  0
    4.8633   -1.0473   -0.2909 H   0  0  0  0  0  0  0  0  0  0  0  0
    1.1203   -1.2704   -2.2018 H   0  0  0  0  0  0  0  0  0  0  0  0
    0.9503   -2.5437   -0.9151 H   0  0  0  0  0  0  0  0  0  0  0  0
    1.9888    0.5163    0.8140 H   0  0  0  0  0  0  0  0  0  0  0  0
   -0.0174    1.2609    2.2662 H   0  0  0  0  0  0  0  0  0  0  0  0
   -0.1855    2.1220    0.6518 H   0  0  0  0  0  0  0  0  0  0  0  0
   -1.4711   -0.3793    1.7346 H   0  0  0  0  0  0  0  0  0  0  0  0
   -2.2461    2.2768    0.4025 H   0  0  0  0  0  0  0  0  0  0  0  0
   -3.0271    1.3375    1.7204 H   0  0  0  0  0  0  0  0  0  0  0  0
   -3.2906    0.8635    0.0193 H   0  0  0  0  0  0  0  0  0  0  0  0
   -1.3689    0.1057   -1.2836 H   0  0  0  0  0  0  0  0  0  0  0  0
   -1.4453   -1.4578   -0.2982 H   0  0  0  0  0  0  0  0  0  0  0  0
  1  2  3  0
  2  3  1  0
  3  4  1  0
  4  5  2  0
  5  6  1  0
  6  7  1  0
  7  8  1  0
  7  9  1  0
  9  4  1  0
  1 10  1  0
  3 11  1  0
  3 12  1  0
  5 13  1  0
  6 14  1  0
  6 15  1  0
  7 16  1  0
  8 17  1  0
  8 18  1  0
  8 19  1  0
  9 20  1  0
  9 21  1  0
M  END
