
     RDKit          3D

 19 21  0  0  0  0  0  0  0  0999 V2000
    2.4753    1.1003   -0.9424 C   0  0  0  0  0  0  0  0  0  0  0  0
    1.8956    0.2188   -0.6203 C   0  0  0  0  0  0  0  0  0  0  0  0
    1.1315   -0.9702   -0.1688 C   0  0  0  0  0  0  0  0  0  0  0  0
    0.1420   -0.2617    1.0852 C   0  0  0  0  0  0  0  0  0  0  0  0
   -0.7260   -1.4485    0.6022 C   0  0  0  0  0  0  0  0  0  0  0  0
   -0.2427   -1.0220   -0.7394 C   0  0  0  0  0  0  0  0  0  0  0  0
   -0.7593    0.3953   -0.9312 C   0  0  0  0  0  0  0  0  0  0  0  0
   -1.7737    1.0014   -0.0498 C   0  0  0  0  0  0  0  0  0  0  0  0
   -0.3599    0.9768    0.4111 C   0  0  0  0  0  0  0  0  0  0  0  0
    3.1526    2.1446   -1.3050 H   0  0  0  0  0  0  0  0  0  0  0  0
    1.5991   -1.7442    0.3409 H   0  0  0  0  0  0  0  0  0  0  0  0
    0.4379   -0.1771    2.0924 H   0  0  0  0  0  0  0  0  0  0  0  0
   -0.1544   -2.3566    0.9767 H   0  0  0  0  0  0  0  0  0  0  0  0
   -1.7763   -1.4366    0.8489 H   0  0  0  0  0  0  0  0  0  0  0  0
   -0.1808   -1.5194   -1.6693 H   0  0  0  0  0  0  0  0  0  0  0  0
   -0.4502    0.8775   -1.8548 H   0  0  0  0  0  0  0  0  0  0  0  0
   -2.2095    1.9576   -0.4074 H   0  0  0  0  0  0  0  0  0  0  0  0
   -2.4824    0.4120    0.5762 H   0  0  0  0  0  0  0  0  0  0  0  0
    0.2812    1.8520    0.3931 H   0  0  0  0  0  0  0  0  0  0  0  0
  1  2  3  0
  2  3  1  0
  3  4  1  0
  4  5  1  0
  5  6  1  0
  6  7  1  0
  7  8  1  0
  8  9  1  0
  6  3  1  0
  9  7  1  0
  9  4  1  0
  1 10  1  0
  3 11  1  0
  4 12  1  0
  5 13  1  0
  5 14  1  0
  6 15  1  0
  7 16  1  0
  8 17  1  0
  8 18  1  0
  9 19  1  0
M  END
