
     RDKit          3D

 19 20  0  0  0  0  0  0  0  0999 V2000
    2.7779    0.9048    0.5472 C   0  0  0  0  0  0  0  0  0  0  0  0
    1.7060    0.3921    0.3658 C   0  0  0  0  0  0  0  0  0  0  0  0
    0.4610   -0.1772    0.1618 C   0  0  0  0  0  0  0  0  0  0  0  0
    0.1839   -1.5898    0.6566 C   0  0  0  0  0  0  0  0  0  0  0  0
   -0.9404   -1.4841   -0.3867 C   0  0  0  0  0  0  0  0  0  0  0  0
    0.1110   -0.7363   -1.2243 C   0  0  0  0  0  0  0  0  0  0  0  0
   -1.7411   -0.4687    0.0719 O   0  0  0  0  0  0  0  0  0  0  0  0
   -0.8044    0.4998    0.5287 C   0  0  0  0  0  0  0  0  0  0  0  0
   -1.0342    1.8227   -0.1182 C   0  0  0  0  0  0  0  0  0  0  0  0
    3.7443    1.3575    0.7081 H   0  0  0  0  0  0  0  0  0  0  0  0
    0.9423   -2.3300    0.4363 H   0  0  0  0  0  0  0  0  0  0  0  0
   -0.2556   -1.5945    1.6812 H   0  0  0  0  0  0  0  0  0  0  0  0
   -1.3349   -2.3812   -0.7795 H   0  0  0  0  0  0  0  0  0  0  0  0
   -0.3294    0.0268   -1.8815 H   0  0  0  0  0  0  0  0  0  0  0  0
    0.8833   -1.3766   -1.6563 H   0  0  0  0  0  0  0  0  0  0  0  0
   -0.9878    0.5896    1.6105 H   0  0  0  0  0  0  0  0  0  0  0  0
   -0.6505    1.9151   -1.1397 H   0  0  0  0  0  0  0  0  0  0  0  0
   -2.1427    2.0117   -0.0945 H   0  0  0  0  0  0  0  0  0  0  0  0
   -0.5889    2.6184    0.5125 H   0  0  0  0  0  0  0  0  0  0  0  0
  1  2  3  0
  2  3  1  0
  3  4  1  0
  4  5  1  0
  5  6  1  0
  5  7  1  0
  7  8  1  0
  8  9  1  0
  6  3  1  0
  8  3  1  0
  1 10  1  0
  4 11  1  0
  4 12  1  0
  5 13  1  0
  6 14  1  0
  6 15  1  0
  8 16  1  0
  9 17  1  0
  9 18  1  0
  9 19  1  0
M  END
