
     RDKit          3D

 19 20  0  0  0  0  0  0  0  0999 V2000
    2.6488    0.8109   -0.5592 C   0  0  0  0  0  0  0  0  0  0  0  0
    1.7181    0.5689    0.1310 C   0  0  0  0  0  0  0  0  0  0  0  0
    0.5796    0.2472    0.9864 C   0  0  0  0  0  0  0  0  0  0  0  0
   -0.0965   -1.0834    0.6422 C   0  0  0  0  0  0  0  0  0  0  0  0
    0.0517   -1.2618   -0.8415 C   0  0  0  0  0  0  0  0  0  0  0  0
   -0.6504   -0.3438   -1.5804 O   0  0  0  0  0  0  0  0  0  0  0  0
   -0.7851    0.8954   -0.9983 C   0  0  0  0  0  0  0  0  0  0  0  0
   -0.7269    0.8774    0.4962 C   0  0  0  0  0  0  0  0  0  0  0  0
   -1.4081   -0.3870    1.0023 C   0  0  0  0  0  0  0  0  0  0  0  0
    3.5053    1.0424   -1.1754 H   0  0  0  0  0  0  0  0  0  0  0  0
    0.7048    0.3760    2.0590 H   0  0  0  0  0  0  0  0  0  0  0  0
    0.1821   -1.9323    1.2447 H   0  0  0  0  0  0  0  0  0  0  0  0
   -0.2718   -2.2781   -1.1347 H   0  0  0  0  0  0  0  0  0  0  0  0
    1.1317   -1.1512   -1.0744 H   0  0  0  0  0  0  0  0  0  0  0  0
   -0.0170    1.5843   -1.4116 H   0  0  0  0  0  0  0  0  0  0  0  0
   -1.7724    1.3072   -1.2911 H   0  0  0  0  0  0  0  0  0  0  0  0
   -1.0131    1.8031    0.9674 H   0  0  0  0  0  0  0  0  0  0  0  0
   -2.2749   -0.7145    0.4297 H   0  0  0  0  0  0  0  0  0  0  0  0
   -1.5060   -0.3607    2.1079 H   0  0  0  0  0  0  0  0  0  0  0  0
  1  2  3  0
  2  3  1  0
  3  4  1  0
  4  5  1  0
  5  6  1  0
  6  7  1  0
  7  8  1  0
  8  9  1  0
  8  3  1  0
  9  4  1  0
  1 10  1  0
  3 11  1  0
  4 12  1  0
  5 13  1  0
  5 14  1  0
  7 15  1  0
  7 16  1  0
  8 17  1  0
  9 18  1  0
  9 19  1  0
M  END
