
     RDKit          3D

 17 17  0  0  0  0  0  0  0  0999 V2000
    3.0774    1.9412    0.4390 C   0  0  0  0  0  0  0  0  0  0  0  0
    2.1475    1.1800    0.5262 C   0  0  0  0  0  0  0  0  0  0  0  0
    1.0222    0.2301    0.6202 C   0  0  0  0  0  0  0  0  0  0  0  0
    1.3341   -1.1292    0.0391 C   0  0  0  0  0  0  0  0  0  0  0  0
    0.3571   -0.1743   -0.6429 C   0  0  0  0  0  0  0  0  0  0  0  0
   -1.0907   -0.6392   -0.5626 C   0  0  0  0  0  0  0  0  0  0  0  0
   -1.8319    0.4399   -0.0341 O   0  0  0  0  0  0  0  0  0  0  0  0
   -3.2033    0.3532    0.1728 C   0  0  0  0  0  0  0  0  0  0  0  0
   -3.7343   -0.7448   -0.1408 O   0  0  0  0  0  0  0  0  0  0  0  0
    3.9009    2.6317    0.3749 H   0  0  0  0  0  0  0  0  0  0  0  0
    0.5154    0.1715    1.6001 H   0  0  0  0  0  0  0  0  0  0  0  0
    2.2868   -1.2676   -0.5093 H   0  0  0  0  0  0  0  0  0  0  0  0
    0.9355   -2.0389    0.5200 H   0  0  0  0  0  0  0  0  0  0  0  0
    0.6810    0.3243   -1.5744 H   0  0  0  0  0  0  0  0  0  0  0  0
   -1.2055   -1.4924    0.1391 H   0  0  0  0  0  0  0  0  0  0  0  0
   -1.4548   -0.9792   -1.5443 H   0  0  0  0  0  0  0  0  0  0  0  0
   -3.7375    1.1936    0.5769 H   0  0  0  0  0  0  0  0  0  0  0  0
  1  2  3  0
  2  3  1  0
  3  4  1  0
  4  5  1  0
  5  6  1  0
  6  7  1  0
  7  8  1  0
  8  9  2  0
  5  3  1  0
  1 10  1  0
  3 11  1  0
  4 12  1  0
  4 13  1  0
  5 14  1  0
  6 15  1  0
  6 16  1  0
  8 17  1  0
M  END
