
     RDKit          3D

 15 14  0  0  0  0  0  0  0  0999 V2000
    4.4358    1.3473   -0.7722 C   0  0  0  0  0  0  0  0  0  0  0  0
    3.3964    0.6349   -0.5307 C   0  0  0  0  0  0  0  0  0  0  0  0
    2.3415   -0.0764   -0.2657 C   0  0  0  0  0  0  0  0  0  0  0  0
    1.2529   -0.7824    0.0037 C   0  0  0  0  0  0  0  0  0  0  0  0
    0.0740   -1.5515    0.2991 C   0  0  0  0  0  0  0  0  0  0  0  0
    0.0951   -2.7890    0.3465 O   0  0  0  0  0  0  0  0  0  0  0  0
   -1.2382   -0.8868    0.5525 C   0  0  0  0  0  0  0  0  0  0  0  0
   -1.1294    0.4939    0.6634 O   0  0  0  0  0  0  0  0  0  0  0  0
   -2.4697    0.9429    0.8220 C   0  0  0  0  0  0  0  0  0  0  0  0
    5.2706    1.9335   -0.9822 H   0  0  0  0  0  0  0  0  0  0  0  0
   -1.7361   -1.2608    1.4623 H   0  0  0  0  0  0  0  0  0  0  0  0
   -1.9066   -1.1106   -0.3762 H   0  0  0  0  0  0  0  0  0  0  0  0
   -2.4808    2.0187    0.9531 H   0  0  0  0  0  0  0  0  0  0  0  0
   -3.0202    0.7004   -0.1566 H   0  0  0  0  0  0  0  0  0  0  0  0
   -2.8854    0.3860    1.6742 H   0  0  0  0  0  0  0  0  0  0  0  0
  1  2  3  0
  2  3  1  0
  3  4  3  0
  4  5  1  0
  5  6  2  0
  5  7  1  0
  7  8  1  0
  8  9  1  0
  1 10  1  0
  7 11  1  0
  7 12  1  0
  9 13  1  0
  9 14  1  0
  9 15  1  0
M  END
