
     RDKit          3D

 15 16  0  0  0  0  0  0  0  0999 V2000
    2.5428    1.1010    0.2820 C   0  0  0  0  0  0  0  0  0  0  0  0
    1.6469    0.4233   -0.1962 C   0  0  0  0  0  0  0  0  0  0  0  0
    0.5519   -0.3945   -0.8042 C   0  0  0  0  0  0  0  0  0  0  0  0
    0.1040   -1.5510   -0.0349 C   0  0  0  0  0  0  0  0  0  0  0  0
   -0.7454   -0.3663   -0.0630 C   0  0  0  0  0  0  0  0  0  0  0  0
   -0.8470    0.4683    1.1670 C   0  0  0  0  0  0  0  0  0  0  0  0
   -1.6066    1.4274    1.1311 O   0  0  0  0  0  0  0  0  0  0  0  0
   -1.3186    0.2128   -1.3185 C   0  0  0  0  0  0  0  0  0  0  0  0
   -0.0596    0.1115   -1.9126 O   0  0  0  0  0  0  0  0  0  0  0  0
    3.3075    1.6694    0.7052 H   0  0  0  0  0  0  0  0  0  0  0  0
   -0.1302   -2.4583   -0.6497 H   0  0  0  0  0  0  0  0  0  0  0  0
    0.6241   -1.7860    0.9046 H   0  0  0  0  0  0  0  0  0  0  0  0
   -0.3086    0.2996    2.0863 H   0  0  0  0  0  0  0  0  0  0  0  0
   -1.6587    1.2796   -1.1762 H   0  0  0  0  0  0  0  0  0  0  0  0
   -2.1025   -0.4369   -1.7517 H   0  0  0  0  0  0  0  0  0  0  0  0
  1  2  3  0
  2  3  1  0
  3  4  1  0
  4  5  1  0
  5  6  1  0
  6  7  2  0
  5  8  1  0
  8  9  1  0
  5  3  1  0
  9  3  1  0
  1 10  1  0
  4 11  1  0
  4 12  1  0
  6 13  1  0
  8 14  1  0
  8 15  1  0
M  END
