
     RDKit          3D

 17 16  0  0  0  0  0  0  0  0999 V2000
   -1.1281   -0.3573    2.8578 C   0  0  0  0  0  0  0  0  0  0  0  0
   -0.9386   -0.0022    1.6715 C   0  0  0  0  0  0  0  0  0  0  0  0
   -0.7143    0.3907    0.2730 C   0  0  0  0  0  0  0  0  0  0  0  0
   -0.7599    1.9403    0.2973 C   0  0  0  0  0  0  0  0  0  0  0  0
   -1.7931   -0.0398   -0.5543 C   0  0  0  0  0  0  0  0  0  0  0  0
   -2.7277   -0.4215   -1.2622 C   0  0  0  0  0  0  0  0  0  0  0  0
    0.5474   -0.0451   -0.2298 C   0  0  0  0  0  0  0  0  0  0  0  0
    1.6685   -0.4287   -0.6527 C   0  0  0  0  0  0  0  0  0  0  0  0
    2.9314   -0.8726   -1.1532 C   0  0  0  0  0  0  0  0  0  0  0  0
   -1.2693   -0.6501    3.8522 H   0  0  0  0  0  0  0  0  0  0  0  0
   -0.6608    2.1864   -0.7969 H   0  0  0  0  0  0  0  0  0  0  0  0
   -1.6991    2.3155    0.6575 H   0  0  0  0  0  0  0  0  0  0  0  0
    0.1670    2.3110    0.7814 H   0  0  0  0  0  0  0  0  0  0  0  0
   -3.5611   -0.7548   -1.8969 H   0  0  0  0  0  0  0  0  0  0  0  0
    2.8811   -1.3255   -2.1614 H   0  0  0  0  0  0  0  0  0  0  0  0
    3.4140   -1.6403   -0.4956 H   0  0  0  0  0  0  0  0  0  0  0  0
    3.6425   -0.0210   -1.1876 H   0  0  0  0  0  0  0  0  0  0  0  0
  1  2  3  0
  2  3  1  0
  3  4  1  0
  3  5  1  0
  5  6  3  0
  3  7  1  0
  7  8  3  0
  8  9  1  0
  1 10  1  0
  4 11  1  0
  4 12  1  0
  4 13  1  0
  6 14  1  0
  9 15  1  0
  9 16  1  0
  9 17  1  0
M  END
