
     RDKit          3D

 18 17  0  0  0  0  0  0  0  0999 V2000
   -0.3969    2.5561    0.7767 C   0  0  0  0  0  0  0  0  0  0  0  0
   -0.3818    1.3937    0.4263 C   0  0  0  0  0  0  0  0  0  0  0  0
   -0.3881   -0.0063   -0.0015 C   0  0  0  0  0  0  0  0  0  0  0  0
   -1.0175   -0.7793    0.9640 O   0  0  0  0  0  0  0  0  0  0  0  0
   -2.0528   -1.4789    0.3429 C   0  0  0  0  0  0  0  0  0  0  0  0
    1.0828   -0.4048   -0.1559 C   0  0  0  0  0  0  0  0  0  0  0  0
    1.6627    0.5633   -1.1659 C   0  0  0  0  0  0  0  0  0  0  0  0
    1.6685   -0.1926    1.1099 O   0  0  0  0  0  0  0  0  0  0  0  0
   -0.3967    3.5676    1.0949 H   0  0  0  0  0  0  0  0  0  0  0  0
   -0.8382   -0.1235   -0.9940 H   0  0  0  0  0  0  0  0  0  0  0  0
   -2.8025   -0.8350   -0.1202 H   0  0  0  0  0  0  0  0  0  0  0  0
   -1.6016   -2.1656   -0.4257 H   0  0  0  0  0  0  0  0  0  0  0  0
   -2.5605   -2.0584    1.1513 H   0  0  0  0  0  0  0  0  0  0  0  0
    1.1610   -1.4526   -0.4578 H   0  0  0  0  0  0  0  0  0  0  0  0
    1.3032    0.2129   -2.1744 H   0  0  0  0  0  0  0  0  0  0  0  0
    1.2433    1.5797   -0.9519 H   0  0  0  0  0  0  0  0  0  0  0  0
    2.7805    0.5775   -1.1213 H   0  0  0  0  0  0  0  0  0  0  0  0
    1.5347   -0.9536    1.7026 H   0  0  0  0  0  0  0  0  0  0  0  0
  1  2  3  0
  2  3  1  0
  3  4  1  0
  4  5  1  0
  3  6  1  0
  6  7  1  0
  6  8  1  0
  1  9  1  0
  3 10  1  0
  5 11  1  0
  5 12  1  0
  5 13  1  0
  6 14  1  0
  7 15  1  0
  7 16  1  0
  7 17  1  0
  8 18  1  0
M  END
