
     RDKit          3D

 17 18  0  0  0  0  0  0  0  0999 V2000
    3.4608   -0.2733   -0.4153 C   0  0  0  0  0  0  0  0  0  0  0  0
    2.2702   -0.4922   -0.3463 C   0  0  0  0  0  0  0  0  0  0  0  0
    0.8257   -0.7741   -0.2440 C   0  0  0  0  0  0  0  0  0  0  0  0
    0.2425   -0.1257    0.9573 C   0  0  0  0  0  0  0  0  0  0  0  0
   -0.7494    0.8454    0.4088 C   0  0  0  0  0  0  0  0  0  0  0  0
   -1.9249    0.3273   -0.3960 C   0  0  0  0  0  0  0  0  0  0  0  0
   -2.2594   -0.9780   -0.1441 O   0  0  0  0  0  0  0  0  0  0  0  0
   -0.6472    0.7052   -1.0479 C   0  0  0  0  0  0  0  0  0  0  0  0
    0.2344   -0.2810   -1.3704 O   0  0  0  0  0  0  0  0  0  0  0  0
    4.5082   -0.0649   -0.4681 H   0  0  0  0  0  0  0  0  0  0  0  0
    0.7029   -1.8853   -0.2525 H   0  0  0  0  0  0  0  0  0  0  0  0
    0.9979    0.4436    1.5341 H   0  0  0  0  0  0  0  0  0  0  0  0
   -0.2019   -0.8826    1.6352 H   0  0  0  0  0  0  0  0  0  0  0  0
   -0.9272    1.7780    0.9301 H   0  0  0  0  0  0  0  0  0  0  0  0
   -2.7669    1.0106   -0.5620 H   0  0  0  0  0  0  0  0  0  0  0  0
   -3.1459   -0.9918    0.2972 H   0  0  0  0  0  0  0  0  0  0  0  0
   -0.6198    1.6389   -1.6488 H   0  0  0  0  0  0  0  0  0  0  0  0
  1  2  3  0
  2  3  1  0
  3  4  1  0
  4  5  1  0
  5  6  1  0
  6  7  1  0
  6  8  1  0
  8  9  1  0
  9  3  1  0
  8  5  1  0
  1 10  1  0
  3 11  1  0
  4 12  1  0
  4 13  1  0
  5 14  1  0
  6 15  1  0
  7 16  1  0
  8 17  1  0
M  END
