
     RDKit          3D

 15 14  0  0  0  0  0  0  0  0999 V2000
    3.2561   -1.3644    0.2870 C   0  0  0  0  0  0  0  0  0  0  0  0
    2.2805   -0.8430   -0.0897 C   0  0  0  0  0  0  0  0  0  0  0  0
    1.2769   -0.3174   -0.4701 C   0  0  0  0  0  0  0  0  0  0  0  0
    1.7290    1.2615   -0.0599 O   0  0  0  0  0  0  0  0  0  0  0  0
    0.0385    0.2532   -0.9513 C   0  0  0  0  0  0  0  0  0  0  0  0
   -0.4409    0.6378    0.4423 C   0  0  0  0  0  0  0  0  0  0  0  0
   -0.8214    0.9171    1.5049 C   0  0  0  0  0  0  0  0  0  0  0  0
   -1.0008   -0.6095   -1.3702 O   0  0  0  0  0  0  0  0  0  0  0  0
   -2.0542   -0.1610   -0.4961 C   0  0  0  0  0  0  0  0  0  0  0  0
    4.3170   -1.9268    0.6778 H   0  0  0  0  0  0  0  0  0  0  0  0
    0.0413    1.2801   -1.3804 H   0  0  0  0  0  0  0  0  0  0  0  0
   -1.2427    1.2524    2.6984 H   0  0  0  0  0  0  0  0  0  0  0  0
   -2.2962    0.8948   -0.3393 H   0  0  0  0  0  0  0  0  0  0  0  0
   -2.0190   -0.7491    0.4876 H   0  0  0  0  0  0  0  0  0  0  0  0
   -3.0643   -0.5257   -0.9410 H   0  0  0  0  0  0  0  0  0  0  0  0
  1  2  3  0
  2  3  1  0
  3  4  2  0
  3  5  1  0
  5  6  1  0
  6  7  3  0
  5  8  1  0
  8  9  1  0
  1 10  1  0
  5 11  1  0
  7 12  1  0
  9 13  1  0
  9 14  1  0
  9 15  1  0
M  END
