
     RDKit          3D

 15 17  0  0  0  0  0  0  0  0999 V2000
    3.0932   -0.2013    0.6113 C   0  0  0  0  0  0  0  0  0  0  0  0
    1.9037   -0.0811    0.4584 C   0  0  0  0  0  0  0  0  0  0  0  0
    0.4783    0.0480    0.2876 C   0  0  0  0  0  0  0  0  0  0  0  0
   -0.4359   -0.9064    0.9749 C   0  0  0  0  0  0  0  0  0  0  0  0
   -1.6308   -0.8800    0.3996 C   0  0  0  0  0  0  0  0  0  0  0  0
   -1.6080    0.1124   -0.7377 C   0  0  0  0  0  0  0  0  0  0  0  0
   -1.4995    1.4126   -0.2042 O   0  0  0  0  0  0  0  0  0  0  0  0
   -0.1040    1.3250   -0.1376 C   0  0  0  0  0  0  0  0  0  0  0  0
   -0.1556    0.1793   -1.0322 C   0  0  0  0  0  0  0  0  0  0  0  0
    4.1387   -0.2905    0.7542 H   0  0  0  0  0  0  0  0  0  0  0  0
   -0.1412   -1.5153    1.8138 H   0  0  0  0  0  0  0  0  0  0  0  0
   -2.5183   -1.4546    0.6592 H   0  0  0  0  0  0  0  0  0  0  0  0
   -2.3221   -0.0384   -1.5255 H   0  0  0  0  0  0  0  0  0  0  0  0
    0.5012    2.2321   -0.3355 H   0  0  0  0  0  0  0  0  0  0  0  0
    0.3006    0.0580   -1.9862 H   0  0  0  0  0  0  0  0  0  0  0  0
  1  2  3  0
  2  3  1  0
  3  4  1  0
  4  5  2  0
  5  6  1  0
  6  7  1  0
  7  8  1  0
  8  9  1  0
  8  3  1  0
  9  3  1  0
  9  6  1  0
  1 10  1  0
  4 11  1  0
  5 12  1  0
  6 13  1  0
  8 14  1  0
  9 15  1  0
M  END
