
     RDKit          3D

 21 21  0  0  0  0  0  0  0  0999 V2000
   -0.4654    2.0450   -2.5584 C   0  0  0  0  0  0  0  0  0  0  0  0
   -0.1690    0.8887   -1.8272 C   0  0  0  0  0  0  0  0  0  0  0  0
    0.1087   -0.2527   -1.1209 C   0  0  0  0  0  0  0  0  0  0  0  0
   -1.0148   -1.1656   -0.8847 C   0  0  0  0  0  0  0  0  0  0  0  0
    1.2081   -0.9616   -1.6803 O   0  0  0  0  0  0  0  0  0  0  0  0
    0.7185    0.2236    0.2464 C   0  0  0  0  0  0  0  0  0  0  0  0
   -0.1740    1.1072    1.0103 C   0  0  0  0  0  0  0  0  0  0  0  0
    0.1823    0.3445    2.2518 C   0  0  0  0  0  0  0  0  0  0  0  0
    0.7401   -0.7544    1.3512 C   0  0  0  0  0  0  0  0  0  0  0  0
   -0.6815    2.9042   -3.1119 H   0  0  0  0  0  0  0  0  0  0  0  0
   -1.4053   -0.9996    0.1729 H   0  0  0  0  0  0  0  0  0  0  0  0
   -1.8585   -1.0207   -1.5457 H   0  0  0  0  0  0  0  0  0  0  0  0
   -0.7086   -2.2536   -0.9569 H   0  0  0  0  0  0  0  0  0  0  0  0
    0.9200   -1.9009   -1.8356 H   0  0  0  0  0  0  0  0  0  0  0  0
    1.7645    0.6281    0.0726 H   0  0  0  0  0  0  0  0  0  0  0  0
   -1.2374    0.8907    0.7493 H   0  0  0  0  0  0  0  0  0  0  0  0
    0.0447    2.1967    0.9892 H   0  0  0  0  0  0  0  0  0  0  0  0
   -0.7148    0.0202    2.8408 H   0  0  0  0  0  0  0  0  0  0  0  0
    0.9873    0.7942    2.8065 H   0  0  0  0  0  0  0  0  0  0  0  0
    1.7566   -1.1434    1.6174 H   0  0  0  0  0  0  0  0  0  0  0  0
   -0.0013   -1.5908    1.4128 H   0  0  0  0  0  0  0  0  0  0  0  0
  1  2  3  0
  2  3  1  0
  3  4  1  0
  3  5  1  0
  3  6  1  0
  6  7  1  0
  7  8  1  0
  8  9  1  0
  9  6  1  0
  1 10  1  0
  4 11  1  0
  4 12  1  0
  4 13  1  0
  5 14  1  0
  6 15  1  0
  7 16  1  0
  7 17  1  0
  8 18  1  0
  8 19  1  0
  9 20  1  0
  9 21  1  0
M  END
