
     RDKit          3D

 21 21  0  0  0  0  0  0  0  0999 V2000
    2.7304   -1.0594   -0.1767 C   0  0  0  0  0  0  0  0  0  0  0  0
    1.7826   -0.3897   -0.5865 C   0  0  0  0  0  0  0  0  0  0  0  0
    0.6508    0.3858   -1.0879 C   0  0  0  0  0  0  0  0  0  0  0  0
   -0.1931   -0.4483   -2.0010 C   0  0  0  0  0  0  0  0  0  0  0  0
   -0.1244    0.8887    0.1017 C   0  0  0  0  0  0  0  0  0  0  0  0
    0.6295    1.7158    0.9589 O   0  0  0  0  0  0  0  0  0  0  0  0
   -0.2183    1.2790    1.9781 C   0  0  0  0  0  0  0  0  0  0  0  0
   -0.1961   -0.0786    1.2784 C   0  0  0  0  0  0  0  0  0  0  0  0
   -1.5017   -0.7759    1.4163 C   0  0  0  0  0  0  0  0  0  0  0  0
    3.5491   -1.6287    0.1578 H   0  0  0  0  0  0  0  0  0  0  0  0
    0.9993    1.3063   -1.6319 H   0  0  0  0  0  0  0  0  0  0  0  0
   -0.6651   -1.2797   -1.4374 H   0  0  0  0  0  0  0  0  0  0  0  0
   -0.9734    0.1201   -2.5273 H   0  0  0  0  0  0  0  0  0  0  0  0
    0.5063   -0.8738   -2.7790 H   0  0  0  0  0  0  0  0  0  0  0  0
   -1.1130    1.3127   -0.0785 H   0  0  0  0  0  0  0  0  0  0  0  0
   -1.2318    1.7386    1.8056 H   0  0  0  0  0  0  0  0  0  0  0  0
    0.1636    1.3011    2.9920 H   0  0  0  0  0  0  0  0  0  0  0  0
    0.7166   -0.6654    1.4204 H   0  0  0  0  0  0  0  0  0  0  0  0
   -1.3345   -1.8703    1.4343 H   0  0  0  0  0  0  0  0  0  0  0  0
   -2.0142   -0.4156    2.3561 H   0  0  0  0  0  0  0  0  0  0  0  0
   -2.1626   -0.5629    0.5450 H   0  0  0  0  0  0  0  0  0  0  0  0
  1  2  3  0
  2  3  1  0
  3  4  1  0
  3  5  1  0
  5  6  1  0
  6  7  1  0
  7  8  1  0
  8  9  1  0
  8  5  1  0
  1 10  1  0
  3 11  1  0
  4 12  1  0
  4 13  1  0
  4 14  1  0
  5 15  1  0
  7 16  1  0
  7 17  1  0
  8 18  1  0
  9 19  1  0
  9 20  1  0
  9 21  1  0
M  END
