
     RDKit          3D

 25 24  0  0  0  0  0  0  0  0999 V2000
   -0.8845    2.8809    0.3286 C   0  0  0  0  0  0  0  0  0  0  0  0
   -0.8596    1.6703    0.2374 C   0  0  0  0  0  0  0  0  0  0  0  0
   -0.8401    0.2093    0.1506 C   0  0  0  0  0  0  0  0  0  0  0  0
   -2.1944   -0.1912   -0.4323 C   0  0  0  0  0  0  0  0  0  0  0  0
   -0.7145   -0.3974    1.5001 C   0  0  0  0  0  0  0  0  0  0  0  0
    0.2061   -0.1878   -0.8381 C   0  0  0  0  0  0  0  0  0  0  0  0
    0.3247   -1.6853   -1.0167 C   0  0  0  0  0  0  0  0  0  0  0  0
    1.5432    0.4338   -0.6334 C   0  0  0  0  0  0  0  0  0  0  0  0
    2.1848    0.1328    0.6835 C   0  0  0  0  0  0  0  0  0  0  0  0
   -0.8960    3.9447    0.3952 H   0  0  0  0  0  0  0  0  0  0  0  0
   -2.2251   -1.2864   -0.6335 H   0  0  0  0  0  0  0  0  0  0  0  0
   -2.9390   -0.0033    0.3690 H   0  0  0  0  0  0  0  0  0  0  0  0
   -2.4332    0.3896   -1.3471 H   0  0  0  0  0  0  0  0  0  0  0  0
    0.0516   -1.1840    1.5949 H   0  0  0  0  0  0  0  0  0  0  0  0
   -1.6784   -0.8963    1.8203 H   0  0  0  0  0  0  0  0  0  0  0  0
   -0.5773    0.4072    2.2835 H   0  0  0  0  0  0  0  0  0  0  0  0
   -0.1590    0.1913   -1.8427 H   0  0  0  0  0  0  0  0  0  0  0  0
   -0.5440   -2.0731   -1.6061 H   0  0  0  0  0  0  0  0  0  0  0  0
    0.5010   -2.2332   -0.0964 H   0  0  0  0  0  0  0  0  0  0  0  0
    1.2146   -1.8475   -1.6766 H   0  0  0  0  0  0  0  0  0  0  0  0
    2.2193    0.0189   -1.4266 H   0  0  0  0  0  0  0  0  0  0  0  0
    1.4688    1.5112   -0.8398 H   0  0  0  0  0  0  0  0  0  0  0  0
    2.3125   -0.9537    0.8303 H   0  0  0  0  0  0  0  0  0  0  0  0
    1.7018    0.5568    1.5550 H   0  0  0  0  0  0  0  0  0  0  0  0
    3.2167    0.5925    0.6409 H   0  0  0  0  0  0  0  0  0  0  0  0
  1  2  3  0
  2  3  1  0
  3  4  1  0
  3  5  1  0
  3  6  1  0
  6  7  1  0
  6  8  1  0
  8  9  1  0
  1 10  1  0
  4 11  1  0
  4 12  1  0
  4 13  1  0
  5 14  1  0
  5 15  1  0
  5 16  1  0
  6 17  1  0
  7 18  1  0
  7 19  1  0
  7 20  1  0
  8 21  1  0
  8 22  1  0
  9 23  1  0
  9 24  1  0
  9 25  1  0
M  END
