
     RDKit          3D

 21 22  0  0  0  0  0  0  0  0999 V2000
    4.0214    1.6724   -0.3155 C   0  0  0  0  0  0  0  0  0  0  0  0
    2.8448    1.2628    0.0690 C   0  0  0  0  0  0  0  0  0  0  0  0
    1.5856    0.8202    0.4886 C   0  0  0  0  0  0  0  0  0  0  0  0
    0.7966    0.1554   -0.5856 C   0  0  0  0  0  0  0  0  0  0  0  0
   -0.5101   -0.3980   -0.2818 C   0  0  0  0  0  0  0  0  0  0  0  0
   -1.3754   -1.0543   -1.3356 C   0  0  0  0  0  0  0  0  0  0  0  0
   -2.5761   -0.5392   -0.5442 C   0  0  0  0  0  0  0  0  0  0  0  0
   -1.6374    0.0642    0.4638 C   0  0  0  0  0  0  0  0  0  0  0  0
   -0.7218   -0.9454    1.1289 C   0  0  0  0  0  0  0  0  0  0  0  0
    4.9131    1.9991   -0.6166 H   0  0  0  0  0  0  0  0  0  0  0  0
    0.9725    1.7876    0.7978 H   0  0  0  0  0  0  0  0  0  0  0  0
    1.5262    0.2760    1.4373 H   0  0  0  0  0  0  0  0  0  0  0  0
    0.6548    0.9188   -1.4335 H   0  0  0  0  0  0  0  0  0  0  0  0
    1.4060   -0.6359   -1.0996 H   0  0  0  0  0  0  0  0  0  0  0  0
   -1.2364   -2.1552   -1.3231 H   0  0  0  0  0  0  0  0  0  0  0  0
   -1.2811   -0.6259   -2.3244 H   0  0  0  0  0  0  0  0  0  0  0  0
   -3.2075    0.2134   -1.0862 H   0  0  0  0  0  0  0  0  0  0  0  0
   -3.2051   -1.3276   -0.0692 H   0  0  0  0  0  0  0  0  0  0  0  0
   -1.8122    1.0349    0.9284 H   0  0  0  0  0  0  0  0  0  0  0  0
   -0.1608   -0.5100    1.9621 H   0  0  0  0  0  0  0  0  0  0  0  0
   -0.9971   -2.0135    1.1255 H   0  0  0  0  0  0  0  0  0  0  0  0
  1  2  3  0
  2  3  1  0
  3  4  1  0
  4  5  1  0
  5  6  1  0
  6  7  1  0
  7  8  1  0
  8  9  1  0
  8  5  1  0
  9  5  1  0
  1 10  1  0
  3 11  1  0
  3 12  1  0
  4 13  1  0
  4 14  1  0
  6 15  1  0
  6 16  1  0
  7 17  1  0
  7 18  1  0
  8 19  1  0
  9 20  1  0
  9 21  1  0
M  END
