
     RDKit          3D

 19 19  0  0  0  0  0  0  0  0999 V2000
    2.1631    2.1268   -0.7076 C   0  0  0  0  0  0  0  0  0  0  0  0
    1.5963    1.2385   -0.1257 C   0  0  0  0  0  0  0  0  0  0  0  0
    0.9038    0.1596    0.5584 C   0  0  0  0  0  0  0  0  0  0  0  0
    0.8695   -1.1916   -0.1982 C   0  0  0  0  0  0  0  0  0  0  0  0
    1.1366   -2.3286    0.5384 O   0  0  0  0  0  0  0  0  0  0  0  0
   -0.3812   -0.3676    0.1704 C   0  0  0  0  0  0  0  0  0  0  0  0
   -1.2247   -1.0306    1.2644 C   0  0  0  0  0  0  0  0  0  0  0  0
   -1.1393   -0.0477   -0.9093 O   0  0  0  0  0  0  0  0  0  0  0  0
   -1.5449    1.2550   -1.0254 C   0  0  0  0  0  0  0  0  0  0  0  0
    2.6510    2.9251   -1.2197 H   0  0  0  0  0  0  0  0  0  0  0  0
    1.2009    0.0603    1.6231 H   0  0  0  0  0  0  0  0  0  0  0  0
    1.2199   -1.1441   -1.2480 H   0  0  0  0  0  0  0  0  0  0  0  0
    1.8004   -2.8536    0.0288 H   0  0  0  0  0  0  0  0  0  0  0  0
   -2.2714   -0.6764    1.2394 H   0  0  0  0  0  0  0  0  0  0  0  0
   -1.1559   -2.1191    1.0776 H   0  0  0  0  0  0  0  0  0  0  0  0
   -0.7720   -0.8351    2.2772 H   0  0  0  0  0  0  0  0  0  0  0  0
   -2.1652    1.6177   -0.1788 H   0  0  0  0  0  0  0  0  0  0  0  0
   -0.6765    1.8935   -1.2455 H   0  0  0  0  0  0  0  0  0  0  0  0
   -2.2104    1.3181   -1.9196 H   0  0  0  0  0  0  0  0  0  0  0  0
  1  2  3  0
  2  3  1  0
  3  4  1  0
  4  5  1  0
  4  6  1  0
  6  7  1  0
  6  8  1  0
  8  9  1  0
  6  3  1  0
  1 10  1  0
  3 11  1  0
  4 12  1  0
  5 13  1  0
  7 14  1  0
  7 15  1  0
  7 16  1  0
  9 17  1  0
  9 18  1  0
  9 19  1  0
M  END
