
     RDKit          3D

 19 19  0  0  0  0  0  0  0  0999 V2000
   -3.2457    0.6195   -0.6967 C   0  0  0  0  0  0  0  0  0  0  0  0
   -2.1715    0.3629   -0.3124 C   0  0  0  0  0  0  0  0  0  0  0  0
   -0.8496    0.0479    0.1765 C   0  0  0  0  0  0  0  0  0  0  0  0
   -0.5385   -1.3509    0.5520 C   0  0  0  0  0  0  0  0  0  0  0  0
   -1.4286   -1.7383    1.5846 O   0  0  0  0  0  0  0  0  0  0  0  0
   -0.4929    0.8985    1.3702 O   0  0  0  0  0  0  0  0  0  0  0  0
    0.1130    1.1240    0.0063 C   0  0  0  0  0  0  0  0  0  0  0  0
    1.5764    1.0512    0.0435 C   0  0  0  0  0  0  0  0  0  0  0  0
    2.1561    0.1152   -1.0009 C   0  0  0  0  0  0  0  0  0  0  0  0
   -4.3019    0.8642   -1.0747 H   0  0  0  0  0  0  0  0  0  0  0  0
   -0.5797   -2.0743   -0.2562 H   0  0  0  0  0  0  0  0  0  0  0  0
    0.4912   -1.4308    1.0806 H   0  0  0  0  0  0  0  0  0  0  0  0
   -1.3284   -2.7476    1.5683 H   0  0  0  0  0  0  0  0  0  0  0  0
   -0.3296    2.1027   -0.3227 H   0  0  0  0  0  0  0  0  0  0  0  0
    2.0081    0.7440    1.0086 H   0  0  0  0  0  0  0  0  0  0  0  0
    2.0244    2.0563   -0.1753 H   0  0  0  0  0  0  0  0  0  0  0  0
    3.2328    0.2598   -1.1797 H   0  0  0  0  0  0  0  0  0  0  0  0
    1.5374   -0.0093   -1.8885 H   0  0  0  0  0  0  0  0  0  0  0  0
    2.1270   -0.8951   -0.4837 H   0  0  0  0  0  0  0  0  0  0  0  0
  1  2  3  0
  2  3  1  0
  3  4  1  0
  4  5  1  0
  3  6  1  0
  6  7  1  0
  7  8  1  0
  8  9  1  0
  7  3  1  0
  1 10  1  0
  4 11  1  0
  4 12  1  0
  5 13  1  0
  7 14  1  0
  8 15  1  0
  8 16  1  0
  9 17  1  0
  9 18  1  0
  9 19  1  0
M  END
