
     RDKit          3D

 17 18  0  0  0  0  0  0  0  0999 V2000
    2.9331    0.4952   -0.3419 C   0  0  0  0  0  0  0  0  0  0  0  0
    1.7873    0.2948   -0.0443 C   0  0  0  0  0  0  0  0  0  0  0  0
    0.4045    0.0408    0.3369 C   0  0  0  0  0  0  0  0  0  0  0  0
   -0.4650    1.1199    0.8491 C   0  0  0  0  0  0  0  0  0  0  0  0
   -1.8055    0.9540    0.2587 C   0  0  0  0  0  0  0  0  0  0  0  0
   -1.8110   -0.0656   -0.5638 C   0  0  0  0  0  0  0  0  0  0  0  0
   -0.4791   -0.6965   -0.6178 C   0  0  0  0  0  0  0  0  0  0  0  0
    0.1033   -0.9446   -1.8594 O   0  0  0  0  0  0  0  0  0  0  0  0
    0.0731   -1.3754    0.6013 C   0  0  0  0  0  0  0  0  0  0  0  0
    3.9599    0.6897   -0.5973 H   0  0  0  0  0  0  0  0  0  0  0  0
   -0.5723    1.0219    1.9592 H   0  0  0  0  0  0  0  0  0  0  0  0
   -0.0058    2.1003    0.5982 H   0  0  0  0  0  0  0  0  0  0  0  0
   -2.6840    1.5721    0.4571 H   0  0  0  0  0  0  0  0  0  0  0  0
   -2.6600   -0.4185   -1.1373 H   0  0  0  0  0  0  0  0  0  0  0  0
    1.0633   -1.0776   -1.7188 H   0  0  0  0  0  0  0  0  0  0  0  0
   -0.6554   -1.5468    1.4274 H   0  0  0  0  0  0  0  0  0  0  0  0
    0.8137   -2.1637    0.3927 H   0  0  0  0  0  0  0  0  0  0  0  0
  1  2  3  0
  2  3  1  0
  3  4  1  0
  4  5  1  0
  5  6  2  0
  6  7  1  0
  7  8  1  0
  7  9  1  0
  7  3  1  0
  9  3  1  0
  1 10  1  0
  4 11  1  0
  4 12  1  0
  5 13  1  0
  6 14  1  0
  8 15  1  0
  9 16  1  0
  9 17  1  0
M  END
