
     RDKit          3D

 19 20  0  0  0  0  0  0  0  0999 V2000
    3.0572    0.8091    1.5106 C   0  0  0  0  0  0  0  0  0  0  0  0
    2.3598    0.7548    0.5275 C   0  0  0  0  0  0  0  0  0  0  0  0
    1.4968    0.6803   -0.6478 C   0  0  0  0  0  0  0  0  0  0  0  0
    0.5444   -0.4577   -0.4588 C   0  0  0  0  0  0  0  0  0  0  0  0
   -0.4303   -0.6444   -1.6421 C   0  0  0  0  0  0  0  0  0  0  0  0
   -0.8782   -0.3340   -0.3081 C   0  0  0  0  0  0  0  0  0  0  0  0
   -1.7673   -1.1360    0.5442 C   0  0  0  0  0  0  0  0  0  0  0  0
   -2.3035    0.0478    1.0582 O   0  0  0  0  0  0  0  0  0  0  0  0
   -1.6444    0.8448    0.1208 C   0  0  0  0  0  0  0  0  0  0  0  0
    3.6924    0.8671    2.3787 H   0  0  0  0  0  0  0  0  0  0  0  0
    0.9612    1.6416   -0.8345 H   0  0  0  0  0  0  0  0  0  0  0  0
    2.1507    0.5440   -1.5572 H   0  0  0  0  0  0  0  0  0  0  0  0
    1.0527   -1.4091   -0.1427 H   0  0  0  0  0  0  0  0  0  0  0  0
   -0.5572   -1.6792   -2.0183 H   0  0  0  0  0  0  0  0  0  0  0  0
   -0.4642    0.1457   -2.4074 H   0  0  0  0  0  0  0  0  0  0  0  0
   -2.4780   -1.7434   -0.0601 H   0  0  0  0  0  0  0  0  0  0  0  0
   -1.3100   -1.7874    1.3117 H   0  0  0  0  0  0  0  0  0  0  0  0
   -2.3936    1.1487   -0.6673 H   0  0  0  0  0  0  0  0  0  0  0  0
   -1.0882    1.7072    0.5481 H   0  0  0  0  0  0  0  0  0  0  0  0
  1  2  3  0
  2  3  1  0
  3  4  1  0
  4  5  1  0
  5  6  1  0
  6  7  1  0
  7  8  1  0
  8  9  1  0
  6  4  1  0
  9  6  1  0
  1 10  1  0
  3 11  1  0
  3 12  1  0
  4 13  1  0
  5 14  1  0
  5 15  1  0
  7 16  1  0
  7 17  1  0
  9 18  1  0
  9 19  1  0
M  END
