
     RDKit          3D

 19 18  0  0  0  0  0  0  0  0999 V2000
   -2.7832   -0.7674   -0.6842 C   0  0  0  0  0  0  0  0  0  0  0  0
   -1.8502   -0.0881   -0.8202 C   0  0  0  0  0  0  0  0  0  0  0  0
   -0.8830    0.5969   -0.9726 C   0  0  0  0  0  0  0  0  0  0  0  0
   -0.1131    0.6314   -2.1400 O   0  0  0  0  0  0  0  0  0  0  0  0
    0.2275    0.0235    0.1200 C   0  0  0  0  0  0  0  0  0  0  0  0
   -0.6542   -0.3787    1.2441 C   0  0  0  0  0  0  0  0  0  0  0  0
    0.0450   -0.7058    2.3987 O   0  0  0  0  0  0  0  0  0  0  0  0
    1.1599    1.0222    0.3340 O   0  0  0  0  0  0  0  0  0  0  0  0
    2.4306    0.5238   -0.0415 C   0  0  0  0  0  0  0  0  0  0  0  0
   -3.9112   -1.5642   -0.5360 H   0  0  0  0  0  0  0  0  0  0  0  0
   -0.9067    1.6855   -0.5417 H   0  0  0  0  0  0  0  0  0  0  0  0
    0.0388   -0.3510   -2.4115 H   0  0  0  0  0  0  0  0  0  0  0  0
    0.6966   -0.7691   -0.4391 H   0  0  0  0  0  0  0  0  0  0  0  0
   -1.3740    0.5027    1.3805 H   0  0  0  0  0  0  0  0  0  0  0  0
   -1.2989   -1.2680    0.9368 H   0  0  0  0  0  0  0  0  0  0  0  0
    0.8487   -0.1509    2.3937 H   0  0  0  0  0  0  0  0  0  0  0  0
    3.1752    1.3004    0.0572 H   0  0  0  0  0  0  0  0  0  0  0  0
    2.4288    0.0155   -1.0223 H   0  0  0  0  0  0  0  0  0  0  0  0
    2.7233   -0.2589    0.7443 H   0  0  0  0  0  0  0  0  0  0  0  0
  1  2  3  0
  2  3  1  0
  3  4  1  0
  3  5  1  0
  5  6  1  0
  6  7  1  0
  5  8  1  0
  8  9  1  0
  1 10  1  0
  3 11  1  0
  4 12  1  0
  5 13  1  0
  6 14  1  0
  6 15  1  0
  7 16  1  0
  9 17  1  0
  9 18  1  0
  9 19  1  0
M  END
