
     RDKit          3D

 15 16  0  0  0  0  0  0  0  0999 V2000
    2.4398    1.2513    0.1468 C   0  0  0  0  0  0  0  0  0  0  0  0
    1.3827    0.7708   -0.2287 C   0  0  0  0  0  0  0  0  0  0  0  0
    0.0955    0.2124   -0.6913 C   0  0  0  0  0  0  0  0  0  0  0  0
   -1.1580    0.9466   -0.6334 C   0  0  0  0  0  0  0  0  0  0  0  0
   -0.8230    0.0299    0.4745 C   0  0  0  0  0  0  0  0  0  0  0  0
   -0.5171    0.5925    1.7312 O   0  0  0  0  0  0  0  0  0  0  0  0
   -0.7315   -1.4288    0.3093 C   0  0  0  0  0  0  0  0  0  0  0  0
    0.0583   -1.2702   -0.9168 C   0  0  0  0  0  0  0  0  0  0  0  0
    0.5155   -1.9653   -1.7966 O   0  0  0  0  0  0  0  0  0  0  0  0
    3.3558    1.6797    0.4585 H   0  0  0  0  0  0  0  0  0  0  0  0
   -1.0549    2.0529   -0.4992 H   0  0  0  0  0  0  0  0  0  0  0  0
   -2.0180    0.6115   -1.2737 H   0  0  0  0  0  0  0  0  0  0  0  0
    0.4527    0.3548    1.8587 H   0  0  0  0  0  0  0  0  0  0  0  0
   -1.7498   -1.8352    0.0300 H   0  0  0  0  0  0  0  0  0  0  0  0
   -0.2480   -2.0031    1.1280 H   0  0  0  0  0  0  0  0  0  0  0  0
  1  2  3  0
  2  3  1  0
  3  4  1  0
  4  5  1  0
  5  6  1  0
  5  7  1  0
  7  8  1  0
  8  9  2  0
  5  3  1  0
  8  3  1  0
  1 10  1  0
  4 11  1  0
  4 12  1  0
  6 13  1  0
  7 14  1  0
  7 15  1  0
M  END
