
     RDKit          3D

 19 18  0  0  0  0  0  0  0  0999 V2000
    4.0148    0.8128   -0.2469 C   0  0  0  0  0  0  0  0  0  0  0  0
    2.7801    0.5418    0.4431 C   0  0  0  0  0  0  0  0  0  0  0  0
    1.4489    0.2348    1.2157 C   0  0  0  0  0  0  0  0  0  0  0  0
    0.4888    0.6252    0.1263 C   0  0  0  0  0  0  0  0  0  0  0  0
   -0.9614    0.7193    0.2905 C   0  0  0  0  0  0  0  0  0  0  0  0
   -1.1992   -0.8627    0.9047 C   0  0  0  0  0  0  0  0  0  0  0  0
   -1.3665   -1.9820    1.3165 C   0  0  0  0  0  0  0  0  0  0  0  0
   -0.9788   -0.0290   -1.2295 O   0  0  0  0  0  0  0  0  0  0  0  0
   -2.2542   -0.0593   -1.5680 C   0  0  0  0  0  0  0  0  0  0  0  0
    4.7225    0.9828   -0.6417 H   0  0  0  0  0  0  0  0  0  0  0  0
    1.5748   -0.6640    1.5500 H   0  0  0  0  0  0  0  0  0  0  0  0
    1.5347    1.1798    1.8672 H   0  0  0  0  0  0  0  0  0  0  0  0
    0.8146    1.5444   -0.4758 H   0  0  0  0  0  0  0  0  0  0  0  0
    0.7472   -0.2290   -0.7297 H   0  0  0  0  0  0  0  0  0  0  0  0
   -1.8951    0.8935    0.0773 H   0  0  0  0  0  0  0  0  0  0  0  0
   -1.5438   -3.1196    1.7140 H   0  0  0  0  0  0  0  0  0  0  0  0
   -2.2723   -0.5302   -2.6026 H   0  0  0  0  0  0  0  0  0  0  0  0
   -2.8441    0.8393   -1.5467 H   0  0  0  0  0  0  0  0  0  0  0  0
   -2.8112   -0.8979   -0.9540 H   0  0  0  0  0  0  0  0  0  0  0  0
  1  2  3  0
  2  3  1  0
  3  4  1  0
  4  5  1  0
  5  6  1  0
  6  7  3  0
  5  8  1  0
  8  9  1  0
  1 10  1  0
  3 11  1  0
  3 12  1  0
  4 13  1  0
  4 14  1  0
  5 15  1  0
  7 16  1  0
  9 17  1  0
  9 18  1  0
  9 19  1  0
M  END
