
     RDKit          3D

 21 20  0  0  0  0  0  0  0  0999 V2000
    3.1503    0.9023   -1.8871 C   0  0  0  0  0  0  0  0  0  0  0  0
    2.0542    0.4773   -1.6240 C   0  0  0  0  0  0  0  0  0  0  0  0
    0.7044   -0.0639   -1.3189 C   0  0  0  0  0  0  0  0  0  0  0  0
    0.4236    0.1729    0.1427 C   0  0  0  0  0  0  0  0  0  0  0  0
    1.3889   -0.4749    1.0307 C   0  0  0  0  0  0  0  0  0  0  0  0
    1.6338   -1.6531    0.8938 O   0  0  0  0  0  0  0  0  0  0  0  0
   -0.9775   -0.3667    0.4084 C   0  0  0  0  0  0  0  0  0  0  0  0
   -1.9791    0.3662   -0.4551 C   0  0  0  0  0  0  0  0  0  0  0  0
   -1.3433   -0.3801    1.8541 C   0  0  0  0  0  0  0  0  0  0  0  0
    4.1243    1.2606   -2.1147 H   0  0  0  0  0  0  0  0  0  0  0  0
    0.6173   -1.1298   -1.5832 H   0  0  0  0  0  0  0  0  0  0  0  0
   -0.0304    0.4921   -1.9342 H   0  0  0  0  0  0  0  0  0  0  0  0
    0.4070    1.2643    0.3495 H   0  0  0  0  0  0  0  0  0  0  0  0
    1.8947    0.0666    1.8109 H   0  0  0  0  0  0  0  0  0  0  0  0
   -0.9757   -1.4212    0.0536 H   0  0  0  0  0  0  0  0  0  0  0  0
   -1.9694   -0.0743   -1.4738 H   0  0  0  0  0  0  0  0  0  0  0  0
   -2.9925    0.2451   -0.0137 H   0  0  0  0  0  0  0  0  0  0  0  0
   -1.7222    1.4226   -0.5628 H   0  0  0  0  0  0  0  0  0  0  0  0
   -0.4577   -0.4743    2.5061 H   0  0  0  0  0  0  0  0  0  0  0  0
   -1.9081    0.5670    2.0956 H   0  0  0  0  0  0  0  0  0  0  0  0
   -2.0426   -1.1987    2.1219 H   0  0  0  0  0  0  0  0  0  0  0  0
  1  2  3  0
  2  3  1  0
  3  4  1  0
  4  5  1  0
  5  6  2  0
  4  7  1  0
  7  8  1  0
  7  9  1  0
  1 10  1  0
  3 11  1  0
  3 12  1  0
  4 13  1  0
  5 14  1  0
  7 15  1  0
  8 16  1  0
  8 17  1  0
  8 18  1  0
  9 19  1  0
  9 20  1  0
  9 21  1  0
M  END
