
     RDKit          3D

 17 17  0  0  0  0  0  0  0  0999 V2000
    3.0764   -0.3810    1.1579 C   0  0  0  0  0  0  0  0  0  0  0  0
    1.2196    0.1998    0.5656 C   0  0  0  0  0  0  0  0  0  0  0  0
    0.4121    0.4432    0.3177 C   0  0  0  0  0  0  0  0  0  0  0  0
   -0.0588    1.6472    0.8860 C   0  0  0  0  0  0  0  0  0  0  0  0
   -0.0985    2.7051    0.4048 O   0  0  0  0  0  0  0  0  0  0  0  0
    0.2803    0.1831   -1.3228 C   0  0  0  0  0  0  0  0  0  0  0  0
   -0.4979   -0.6756   -0.3805 C   0  0  0  0  0  0  0  0  0  0  0  0
   -1.9511   -0.4238   -0.4490 C   0  0  0  0  0  0  0  0  0  0  0  0
   -0.1167   -1.9674   -0.1288 O   0  0  0  0  0  0  0  0  0  0  0  0
    4.2531   -0.7309    1.5166 H   0  0  0  0  0  0  0  0  0  0  0  0
   -0.3975    1.5500    1.9004 H   0  0  0  0  0  0  0  0  0  0  0  0
    1.1838   -0.3562   -1.7784 H   0  0  0  0  0  0  0  0  0  0  0  0
   -0.1213    0.9803   -1.9104 H   0  0  0  0  0  0  0  0  0  0  0  0
   -2.1626    0.6516   -0.7280 H   0  0  0  0  0  0  0  0  0  0  0  0
   -2.5358   -0.6350    0.4523 H   0  0  0  0  0  0  0  0  0  0  0  0
   -2.3228   -1.0312   -1.3427 H   0  0  0  0  0  0  0  0  0  0  0  0
   -0.1623   -2.1592    0.8393 H   0  0  0  0  0  0  0  0  0  0  0  0
  1  2  3  0
  2  3  1  0
  3  4  1  0
  4  5  2  0
  3  6  1  0
  6  7  1  0
  7  8  1  0
  7  9  1  0
  7  3  1  0
  1 10  1  0
  4 11  1  0
  6 12  1  0
  6 13  1  0
  8 14  1  0
  8 15  1  0
  8 16  1  0
  9 17  1  0
M  END
