
     RDKit          3D

 16 16  0  0  0  0  0  0  0  0999 V2000
    2.6723   -0.5184    1.3988 C   0  0  0  0  0  0  0  0  0  0  0  0
    1.3601   -0.2101    0.2024 C   0  0  0  0  0  0  0  0  0  0  0  0
    0.6735   -0.0563   -0.4030 C   0  0  0  0  0  0  0  0  0  0  0  0
   -0.3351   -1.3522   -0.6656 C   0  0  0  0  0  0  0  0  0  0  0  0
   -1.4855   -1.0317   -0.1929 O   0  0  0  0  0  0  0  0  0  0  0  0
   -1.7143    0.2618    0.0693 C   0  0  0  0  0  0  0  0  0  0  0  0
   -0.4869    1.0135   -0.2676 C   0  0  0  0  0  0  0  0  0  0  0  0
   -0.0874    1.9619    0.6896 O   0  0  0  0  0  0  0  0  0  0  0  0
    3.0364   -0.6070    1.7297 H   0  0  0  0  0  0  0  0  0  0  0  0
    0.8796    0.1530   -1.6532 H   0  0  0  0  0  0  0  0  0  0  0  0
   -0.1642   -1.7032   -1.6719 H   0  0  0  0  0  0  0  0  0  0  0  0
    0.2237   -2.1059    0.0341 H   0  0  0  0  0  0  0  0  0  0  0  0
   -1.9337    0.5605    1.1469 H   0  0  0  0  0  0  0  0  0  0  0  0
   -2.6603    0.5717   -0.4468 H   0  0  0  0  0  0  0  0  0  0  0  0
   -0.6324    1.5525   -1.1881 H   0  0  0  0  0  0  0  0  0  0  0  0
    0.6542    1.5098    1.2183 H   0  0  0  0  0  0  0  0  0  0  0  0
  1  2  3  0
  2  3  1  0
  3  4  1  0
  4  5  1  0
  5  6  1  0
  6  7  1  0
  7  8  1  0
  7  3  1  0
  1  9  1  0
  3 10  1  0
  4 11  1  0
  4 12  1  0
  6 13  1  0
  6 14  1  0
  7 15  1  0
  8 16  1  0
M  END
