
     RDKit          3D

 15 14  0  0  0  0  0  0  0  0999 V2000
    2.1271   -1.7510   -0.3379 C   0  0  0  0  0  0  0  0  0  0  0  0
    1.3438   -0.8307   -0.4108 C   0  0  0  0  0  0  0  0  0  0  0  0
    0.3953    0.2940   -0.5226 C   0  0  0  0  0  0  0  0  0  0  0  0
    0.6743    1.1227   -1.7127 C   0  0  0  0  0  0  0  0  0  0  0  0
    1.7351    1.6725   -1.8352 O   0  0  0  0  0  0  0  0  0  0  0  0
   -0.8920   -0.2541   -0.5754 O   0  0  0  0  0  0  0  0  0  0  0  0
   -1.6376    0.1623    0.5029 C   0  0  0  0  0  0  0  0  0  0  0  0
   -1.0150   -0.2544    1.7908 C   0  0  0  0  0  0  0  0  0  0  0  0
   -1.5254    0.0201    2.8608 O   0  0  0  0  0  0  0  0  0  0  0  0
    2.8267   -2.5528   -0.2851 H   0  0  0  0  0  0  0  0  0  0  0  0
    0.5357    0.9393    0.3680 H   0  0  0  0  0  0  0  0  0  0  0  0
   -0.0634    1.2546   -2.4976 H   0  0  0  0  0  0  0  0  0  0  0  0
   -2.6502   -0.2784    0.4383 H   0  0  0  0  0  0  0  0  0  0  0  0
   -1.7510    1.2607    0.4293 H   0  0  0  0  0  0  0  0  0  0  0  0
   -0.1035   -0.8048    1.7873 H   0  0  0  0  0  0  0  0  0  0  0  0
  1  2  3  0
  2  3  1  0
  3  4  1  0
  4  5  2  0
  3  6  1  0
  6  7  1  0
  7  8  1  0
  8  9  2  0
  1 10  1  0
  3 11  1  0
  4 12  1  0
  7 13  1  0
  7 14  1  0
  8 15  1  0
M  END
