
     RDKit          3D

 17 18  0  0  0  0  0  0  0  0999 V2000
    1.8739   -2.1236   -0.2571 C   0  0  0  0  0  0  0  0  0  0  0  0
    0.8720   -1.4715   -0.4059 C   0  0  0  0  0  0  0  0  0  0  0  0
   -0.3096   -0.6762   -0.5786 C   0  0  0  0  0  0  0  0  0  0  0  0
   -1.5812   -0.9857    0.1565 C   0  0  0  0  0  0  0  0  0  0  0  0
   -2.1667    0.2166    0.5130 O   0  0  0  0  0  0  0  0  0  0  0  0
   -1.1269    1.0861    0.6948 C   0  0  0  0  0  0  0  0  0  0  0  0
   -0.1398    0.8314   -0.3884 C   0  0  0  0  0  0  0  0  0  0  0  0
    1.2653    1.3564   -0.2244 C   0  0  0  0  0  0  0  0  0  0  0  0
   -0.4423    0.2526   -1.5754 O   0  0  0  0  0  0  0  0  0  0  0  0
    2.7741   -2.6952   -0.1115 H   0  0  0  0  0  0  0  0  0  0  0  0
   -2.2786   -1.4639   -0.5834 H   0  0  0  0  0  0  0  0  0  0  0  0
   -1.4310   -1.6818    0.9867 H   0  0  0  0  0  0  0  0  0  0  0  0
   -1.4182    2.1430    0.7499 H   0  0  0  0  0  0  0  0  0  0  0  0
   -0.6374    0.8419    1.6678 H   0  0  0  0  0  0  0  0  0  0  0  0
    1.4870    1.3726    0.8555 H   0  0  0  0  0  0  0  0  0  0  0  0
    1.3220    2.3361   -0.7111 H   0  0  0  0  0  0  0  0  0  0  0  0
    1.9375    0.6612   -0.7883 H   0  0  0  0  0  0  0  0  0  0  0  0
  1  2  3  0
  2  3  1  0
  3  4  1  0
  4  5  1  0
  5  6  1  0
  6  7  1  0
  7  8  1  0
  7  9  1  0
  7  3  1  0
  9  3  1  0
  1 10  1  0
  4 11  1  0
  4 12  1  0
  6 13  1  0
  6 14  1  0
  8 15  1  0
  8 16  1  0
  8 17  1  0
M  END
