
     RDKit          3D

 21 21  0  0  0  0  0  0  0  0999 V2000
   -1.1723    0.4199   -2.9461 C   0  0  0  0  0  0  0  0  0  0  0  0
   -1.1367    0.4390   -1.7401 C   0  0  0  0  0  0  0  0  0  0  0  0
   -1.1156    0.4497   -0.2585 C   0  0  0  0  0  0  0  0  0  0  0  0
   -1.9646    1.3210    0.3778 O   0  0  0  0  0  0  0  0  0  0  0  0
   -0.7526   -0.8711    0.4306 C   0  0  0  0  0  0  0  0  0  0  0  0
   -1.5609   -1.1728    1.6615 C   0  0  0  0  0  0  0  0  0  0  0  0
    0.2060    0.2276    0.4307 C   0  0  0  0  0  0  0  0  0  0  0  0
    1.3991    0.2760   -0.4800 C   0  0  0  0  0  0  0  0  0  0  0  0
    2.7002    0.0500    0.2437 C   0  0  0  0  0  0  0  0  0  0  0  0
   -1.2213    0.4079   -4.0045 H   0  0  0  0  0  0  0  0  0  0  0  0
   -1.6685    2.2773    0.2758 H   0  0  0  0  0  0  0  0  0  0  0  0
   -0.6804   -1.7353   -0.2735 H   0  0  0  0  0  0  0  0  0  0  0  0
   -1.1433   -0.6127    2.5180 H   0  0  0  0  0  0  0  0  0  0  0  0
   -2.6316   -0.8731    1.5053 H   0  0  0  0  0  0  0  0  0  0  0  0
   -1.5732   -2.2550    1.9227 H   0  0  0  0  0  0  0  0  0  0  0  0
    0.3854    0.7548    1.4075 H   0  0  0  0  0  0  0  0  0  0  0  0
    1.4490    1.3305   -0.8824 H   0  0  0  0  0  0  0  0  0  0  0  0
    1.3174   -0.4075   -1.3211 H   0  0  0  0  0  0  0  0  0  0  0  0
    3.5110    0.4119   -0.4526 H   0  0  0  0  0  0  0  0  0  0  0  0
    2.9125   -1.0368    0.3772 H   0  0  0  0  0  0  0  0  0  0  0  0
    2.7403    0.5986    1.2081 H   0  0  0  0  0  0  0  0  0  0  0  0
  1  2  3  0
  2  3  1  0
  3  4  1  0
  3  5  1  0
  5  6  1  0
  5  7  1  0
  7  8  1  0
  8  9  1  0
  7  3  1  0
  1 10  1  0
  4 11  1  0
  5 12  1  0
  6 13  1  0
  6 14  1  0
  6 15  1  0
  7 16  1  0
  8 17  1  0
  8 18  1  0
  9 19  1  0
  9 20  1  0
  9 21  1  0
M  END
