
     RDKit          3D

 17 19  0  0  0  0  0  0  0  0999 V2000
    2.4132    0.9569    0.2698 C   0  0  0  0  0  0  0  0  0  0  0  0
    1.6176    0.1845   -0.2538 C   0  0  0  0  0  0  0  0  0  0  0  0
    0.6692   -0.7725   -0.8920 C   0  0  0  0  0  0  0  0  0  0  0  0
    0.6619   -2.0543   -0.2972 C   0  0  0  0  0  0  0  0  0  0  0  0
   -0.4718   -1.2262    0.0696 C   0  0  0  0  0  0  0  0  0  0  0  0
   -0.6750    0.2419   -0.1876 C   0  0  0  0  0  0  0  0  0  0  0  0
   -1.8817    0.9431    0.2243 C   0  0  0  0  0  0  0  0  0  0  0  0
   -0.4236    1.3561    0.6229 C   0  0  0  0  0  0  0  0  0  0  0  0
   -0.3496   -0.0567   -1.4848 O   0  0  0  0  0  0  0  0  0  0  0  0
    3.0922    1.6002    0.7264 H   0  0  0  0  0  0  0  0  0  0  0  0
    0.6204   -2.9529   -0.9829 H   0  0  0  0  0  0  0  0  0  0  0  0
    1.3509   -2.3078    0.5612 H   0  0  0  0  0  0  0  0  0  0  0  0
   -1.4047   -1.6871   -0.3952 H   0  0  0  0  0  0  0  0  0  0  0  0
   -2.5070    0.5574    1.0593 H   0  0  0  0  0  0  0  0  0  0  0  0
   -2.3761    1.5848   -0.5335 H   0  0  0  0  0  0  0  0  0  0  0  0
   -0.2173    1.2957    1.6905 H   0  0  0  0  0  0  0  0  0  0  0  0
   -0.1189    2.3370    0.1762 H   0  0  0  0  0  0  0  0  0  0  0  0
  1  2  3  0
  2  3  1  0
  3  4  1  0
  4  5  1  0
  5  6  1  0
  6  7  1  0
  7  8  1  0
  6  9  1  0
  5  3  1  0
  8  6  1  0
  9  3  1  0
  1 10  1  0
  4 11  1  0
  4 12  1  0
  5 13  1  0
  7 14  1  0
  7 15  1  0
  8 16  1  0
  8 17  1  0
M  END
