
     RDKit          3D

 23 23  0  0  0  0  0  0  0  0999 V2000
   -2.0731   -1.5338   -0.6795 C   0  0  0  0  0  0  0  0  0  0  0  0
   -1.4175   -0.7285   -0.1183 C   0  0  0  0  0  0  0  0  0  0  0  0
   -0.5701    0.2898    0.6213 C   0  0  0  0  0  0  0  0  0  0  0  0
    0.8323   -0.3033    0.5700 C   0  0  0  0  0  0  0  0  0  0  0  0
    1.2443   -1.4611    1.2828 C   0  0  0  0  0  0  0  0  0  0  0  0
    2.8076   -1.5903    1.0337 C   0  0  0  0  0  0  0  0  0  0  0  0
   -0.5843    1.5716   -0.0768 C   0  0  0  0  0  0  0  0  0  0  0  0
   -1.7435    2.5000   -0.1520 C   0  0  0  0  0  0  0  0  0  0  0  0
   -1.5107    1.6313   -1.3078 C   0  0  0  0  0  0  0  0  0  0  0  0
   -2.7736   -2.3818   -1.2519 H   0  0  0  0  0  0  0  0  0  0  0  0
   -0.9892    0.2852    1.5957 H   0  0  0  0  0  0  0  0  0  0  0  0
    1.6290    0.4509    0.2519 H   0  0  0  0  0  0  0  0  0  0  0  0
    0.8364   -0.8180   -0.6335 H   0  0  0  0  0  0  0  0  0  0  0  0
    1.1917   -1.5193    2.3720 H   0  0  0  0  0  0  0  0  0  0  0  0
    0.8336   -2.4675    0.9252 H   0  0  0  0  0  0  0  0  0  0  0  0
    3.1865   -2.2030    1.8293 H   0  0  0  0  0  0  0  0  0  0  0  0
    3.1444   -0.5166    1.1313 H   0  0  0  0  0  0  0  0  0  0  0  0
    2.9035   -1.9576    0.0160 H   0  0  0  0  0  0  0  0  0  0  0  0
    0.4426    2.0467   -0.2887 H   0  0  0  0  0  0  0  0  0  0  0  0
   -1.5291    3.5821   -0.2357 H   0  0  0  0  0  0  0  0  0  0  0  0
   -2.6549    2.3207    0.5071 H   0  0  0  0  0  0  0  0  0  0  0  0
   -0.9751    2.0122   -2.2024 H   0  0  0  0  0  0  0  0  0  0  0  0
   -2.2309    0.7903   -1.4052 H   0  0  0  0  0  0  0  0  0  0  0  0
  1  2  3  0
  2  3  1  0
  3  4  1  0
  4  5  1  0
  5  6  1  0
  3  7  1  0
  7  8  1  0
  8  9  1  0
  9  7  1  0
  1 10  1  0
  3 11  1  0
  4 12  1  0
  4 13  1  0
  5 14  1  0
  5 15  1  0
  6 16  1  0
  6 17  1  0
  6 18  1  0
  7 19  1  0
  8 20  1  0
  8 21  1  0
  9 22  1  0
  9 23  1  0
M  END
