
     RDKit          3D

 15 16  0  0  0  0  0  0  0  0999 V2000
    2.5808    0.0171   -0.7944 C   0  0  0  0  0  0  0  0  0  0  0  0
    1.4568    0.1872   -0.3299 C   0  0  0  0  0  0  0  0  0  0  0  0
    0.1018    0.3931    0.2516 C   0  0  0  0  0  0  0  0  0  0  0  0
   -0.2837   -0.8173    0.9814 C   0  0  0  0  0  0  0  0  0  0  0  0
   -0.4687   -1.2015    2.0967 O   0  0  0  0  0  0  0  0  0  0  0  0
   -0.3470   -1.4000   -0.3928 C   0  0  0  0  0  0  0  0  0  0  0  0
   -1.0981   -0.1213   -0.6495 C   0  0  0  0  0  0  0  0  0  0  0  0
   -0.6969    1.2405   -0.6032 C   0  0  0  0  0  0  0  0  0  0  0  0
   -0.2116    1.7597   -1.8258 O   0  0  0  0  0  0  0  0  0  0  0  0
    3.5517   -0.1415   -1.1809 H   0  0  0  0  0  0  0  0  0  0  0  0
   -0.9545   -2.2955   -0.5169 H   0  0  0  0  0  0  0  0  0  0  0  0
    0.6066   -1.5395   -0.9140 H   0  0  0  0  0  0  0  0  0  0  0  0
   -2.0769   -0.2418   -0.0677 H   0  0  0  0  0  0  0  0  0  0  0  0
   -1.2435    2.0657   -0.0546 H   0  0  0  0  0  0  0  0  0  0  0  0
   -0.9167    2.0950   -2.3933 H   0  0  0  0  0  0  0  0  0  0  0  0
  1  2  3  0
  2  3  1  0
  3  4  1  0
  4  5  2  0
  4  6  1  0
  6  7  1  0
  7  8  1  0
  8  9  1  0
  7  3  1  0
  8  3  1  0
  1 10  1  0
  6 11  1  0
  6 12  1  0
  7 13  1  0
  8 14  1  0
  9 15  1  0
M  END
