
     RDKit          3D

 19 19  0  0  0  0  0  0  0  0999 V2000
   -1.5557    2.1242   -0.3285 C   0  0  0  0  0  0  0  0  0  0  0  0
   -1.1140    1.0996    0.1136 C   0  0  0  0  0  0  0  0  0  0  0  0
   -0.5856   -0.1503    0.6769 C   0  0  0  0  0  0  0  0  0  0  0  0
   -1.3336   -1.3086    0.0731 C   0  0  0  0  0  0  0  0  0  0  0  0
   -0.8113   -0.1562    2.0600 O   0  0  0  0  0  0  0  0  0  0  0  0
    0.8772   -0.2923    0.3740 C   0  0  0  0  0  0  0  0  0  0  0  0
    1.4455   -1.4738    0.8626 O   0  0  0  0  0  0  0  0  0  0  0  0
    1.7496    0.8819    0.1729 C   0  0  0  0  0  0  0  0  0  0  0  0
    1.3363    0.0630   -1.0195 C   0  0  0  0  0  0  0  0  0  0  0  0
   -1.9324    3.0295   -0.7305 H   0  0  0  0  0  0  0  0  0  0  0  0
   -1.7336   -1.0971   -0.9289 H   0  0  0  0  0  0  0  0  0  0  0  0
   -0.7056   -2.2432    0.0681 H   0  0  0  0  0  0  0  0  0  0  0  0
   -2.2266   -1.5147    0.7274 H   0  0  0  0  0  0  0  0  0  0  0  0
   -1.7859   -0.2446    2.1963 H   0  0  0  0  0  0  0  0  0  0  0  0
    1.4934   -1.4430    1.8555 H   0  0  0  0  0  0  0  0  0  0  0  0
    2.8140    0.7909    0.4820 H   0  0  0  0  0  0  0  0  0  0  0  0
    1.3427    1.9217    0.2872 H   0  0  0  0  0  0  0  0  0  0  0  0
    0.6529    0.5911   -1.7065 H   0  0  0  0  0  0  0  0  0  0  0  0
    2.0728   -0.5779   -1.5355 H   0  0  0  0  0  0  0  0  0  0  0  0
  1  2  3  0
  2  3  1  0
  3  4  1  0
  3  5  1  0
  3  6  1  0
  6  7  1  0
  6  8  1  0
  8  9  1  0
  9  6  1  0
  1 10  1  0
  4 11  1  0
  4 12  1  0
  4 13  1  0
  5 14  1  0
  7 15  1  0
  8 16  1  0
  8 17  1  0
  9 18  1  0
  9 19  1  0
M  END
