
     RDKit          3D

 21 21  0  0  0  0  0  0  0  0999 V2000
    0.4921   -2.0184    2.1272 C   0  0  0  0  0  0  0  0  0  0  0  0
    0.1077   -1.1318    1.3235 C   0  0  0  0  0  0  0  0  0  0  0  0
   -0.3421   -0.1529    0.4165 C   0  0  0  0  0  0  0  0  0  0  0  0
   -1.8164   -0.2199    0.2504 C   0  0  0  0  0  0  0  0  0  0  0  0
    0.0491    1.2500    0.9908 C   0  0  0  0  0  0  0  0  0  0  0  0
    0.0773    2.0550   -0.2658 C   0  0  0  0  0  0  0  0  0  0  0  0
    0.7867    1.0663   -1.2232 C   0  0  0  0  0  0  0  0  0  0  0  0
    0.4994   -0.1455   -0.7686 C   0  0  0  0  0  0  0  0  0  0  0  0
    1.0401   -1.3534   -1.5290 C   0  0  0  0  0  0  0  0  0  0  0  0
    0.8294   -2.8461    2.8687 H   0  0  0  0  0  0  0  0  0  0  0  0
   -2.2025    0.2407   -0.6568 H   0  0  0  0  0  0  0  0  0  0  0  0
   -2.0852   -1.3168    0.1571 H   0  0  0  0  0  0  0  0  0  0  0  0
   -2.3083    0.1194    1.1965 H   0  0  0  0  0  0  0  0  0  0  0  0
   -0.7562    1.5338    1.7010 H   0  0  0  0  0  0  0  0  0  0  0  0
    1.0388    1.1997    1.5248 H   0  0  0  0  0  0  0  0  0  0  0  0
    0.8524    2.8509   -0.1530 H   0  0  0  0  0  0  0  0  0  0  0  0
   -0.8703    2.3575   -0.6789 H   0  0  0  0  0  0  0  0  0  0  0  0
    1.3600    1.4302   -2.0473 H   0  0  0  0  0  0  0  0  0  0  0  0
    1.3203   -2.1467   -0.8372 H   0  0  0  0  0  0  0  0  0  0  0  0
    1.7989   -1.0697   -2.2651 H   0  0  0  0  0  0  0  0  0  0  0  0
    0.1289   -1.7023   -2.1316 H   0  0  0  0  0  0  0  0  0  0  0  0
  1  2  3  0
  2  3  1  0
  3  4  1  0
  3  5  1  0
  5  6  1  0
  6  7  1  0
  7  8  2  0
  8  9  1  0
  8  3  1  0
  1 10  1  0
  4 11  1  0
  4 12  1  0
  4 13  1  0
  5 14  1  0
  5 15  1  0
  6 16  1  0
  6 17  1  0
  7 18  1  0
  9 19  1  0
  9 20  1  0
  9 21  1  0
M  END
