
     RDKit          3D

 17 17  0  0  0  0  0  0  0  0999 V2000
    2.9150    1.8077   -1.6329 C   0  0  0  0  0  0  0  0  0  0  0  0
    1.8621    1.2747   -1.2382 C   0  0  0  0  0  0  0  0  0  0  0  0
    0.7864    0.7544   -0.8441 C   0  0  0  0  0  0  0  0  0  0  0  0
    0.4556   -0.0811    0.3065 C   0  0  0  0  0  0  0  0  0  0  0  0
    1.0602   -1.3171    0.5461 O   0  0  0  0  0  0  0  0  0  0  0  0
   -0.2251   -1.6885    1.0937 C   0  0  0  0  0  0  0  0  0  0  0  0
   -0.8005   -0.9666   -0.0446 C   0  0  0  0  0  0  0  0  0  0  0  0
   -2.0184   -0.2357    0.0883 C   0  0  0  0  0  0  0  0  0  0  0  0
   -3.0153    0.3522    0.2042 C   0  0  0  0  0  0  0  0  0  0  0  0
    3.9098    2.2972   -2.0199 H   0  0  0  0  0  0  0  0  0  0  0  0
   -0.0510    1.6544   -0.6846 H   0  0  0  0  0  0  0  0  0  0  0  0
    0.1404    0.3031   -1.7802 H   0  0  0  0  0  0  0  0  0  0  0  0
    0.2000    0.4958    1.2538 H   0  0  0  0  0  0  0  0  0  0  0  0
   -0.3014   -2.7987    0.9835 H   0  0  0  0  0  0  0  0  0  0  0  0
   -0.3563   -1.3040    2.1042 H   0  0  0  0  0  0  0  0  0  0  0  0
   -0.6425   -1.4241   -1.0636 H   0  0  0  0  0  0  0  0  0  0  0  0
   -3.9192    0.8761    0.3070 H   0  0  0  0  0  0  0  0  0  0  0  0
  1  2  3  0
  2  3  1  0
  3  4  1  0
  4  5  1  0
  5  6  1  0
  6  7  1  0
  7  8  1  0
  8  9  3  0
  7  4  1  0
  1 10  1  0
  3 11  1  0
  3 12  1  0
  4 13  1  0
  6 14  1  0
  6 15  1  0
  7 16  1  0
  9 17  1  0
M  END
