
     RDKit          3D

 19 19  0  0  0  0  0  0  0  0999 V2000
   -2.5311    1.5993   -1.5367 C   0  0  0  0  0  0  0  0  0  0  0  0
   -1.7741    1.0932   -0.7177 C   0  0  0  0  0  0  0  0  0  0  0  0
   -0.8704    0.4906    0.2255 C   0  0  0  0  0  0  0  0  0  0  0  0
    0.2493    1.3118    0.4991 O   0  0  0  0  0  0  0  0  0  0  0  0
    1.0632    0.4104    1.1618 C   0  0  0  0  0  0  0  0  0  0  0  0
    2.5147    0.7975    1.1359 C   0  0  0  0  0  0  0  0  0  0  0  0
    0.9385   -0.8163    0.5282 O   0  0  0  0  0  0  0  0  0  0  0  0
   -0.1545   -0.7296   -0.3294 C   0  0  0  0  0  0  0  0  0  0  0  0
   -0.9740   -1.9703   -0.2501 C   0  0  0  0  0  0  0  0  0  0  0  0
   -3.1979    2.0409   -2.2316 H   0  0  0  0  0  0  0  0  0  0  0  0
   -1.3741    0.1903    1.1633 H   0  0  0  0  0  0  0  0  0  0  0  0
    0.7097    0.3299    2.2107 H   0  0  0  0  0  0  0  0  0  0  0  0
    3.0407    0.3729    0.2374 H   0  0  0  0  0  0  0  0  0  0  0  0
    2.5891    1.9004    1.0415 H   0  0  0  0  0  0  0  0  0  0  0  0
    3.0673    0.3975    2.0093 H   0  0  0  0  0  0  0  0  0  0  0  0
    0.2364   -0.5405   -1.3360 H   0  0  0  0  0  0  0  0  0  0  0  0
   -2.0462   -1.7474   -0.4183 H   0  0  0  0  0  0  0  0  0  0  0  0
   -0.5778   -2.7286   -0.9443 H   0  0  0  0  0  0  0  0  0  0  0  0
   -0.9091   -2.4019    0.7738 H   0  0  0  0  0  0  0  0  0  0  0  0
  1  2  3  0
  2  3  1  0
  3  4  1  0
  4  5  1  0
  5  6  1  0
  5  7  1  0
  7  8  1  0
  8  9  1  0
  8  3  1  0
  1 10  1  0
  3 11  1  0
  5 12  1  0
  6 13  1  0
  6 14  1  0
  6 15  1  0
  8 16  1  0
  9 17  1  0
  9 18  1  0
  9 19  1  0
M  END
