
     RDKit          3D

 16 15  0  0  0  0  0  0  0  0999 V2000
   -1.3761    2.6709   -0.0737 C   0  0  0  0  0  0  0  0  0  0  0  0
   -1.1300    1.5050   -0.2628 C   0  0  0  0  0  0  0  0  0  0  0  0
   -0.8231    0.0701   -0.4697 C   0  0  0  0  0  0  0  0  0  0  0  0
   -1.7688   -0.7926    0.3182 C   0  0  0  0  0  0  0  0  0  0  0  0
   -0.9142   -0.1929   -1.8354 O   0  0  0  0  0  0  0  0  0  0  0  0
    0.5501   -0.2240   -0.0538 C   0  0  0  0  0  0  0  0  0  0  0  0
    1.6919   -0.4890    0.3013 C   0  0  0  0  0  0  0  0  0  0  0  0
    3.0615   -0.7931    0.7088 C   0  0  0  0  0  0  0  0  0  0  0  0
   -1.6072    3.7007    0.0921 H   0  0  0  0  0  0  0  0  0  0  0  0
   -2.4949   -0.1467    0.8461 H   0  0  0  0  0  0  0  0  0  0  0  0
   -2.3831   -1.3971   -0.4062 H   0  0  0  0  0  0  0  0  0  0  0  0
   -1.2475   -1.5107    0.9632 H   0  0  0  0  0  0  0  0  0  0  0  0
   -1.7372    0.1947   -2.2323 H   0  0  0  0  0  0  0  0  0  0  0  0
    3.0974   -1.7958    1.1574 H   0  0  0  0  0  0  0  0  0  0  0  0
    3.7619   -0.7467   -0.1438 H   0  0  0  0  0  0  0  0  0  0  0  0
    3.3192   -0.0529    1.5153 H   0  0  0  0  0  0  0  0  0  0  0  0
  1  2  3  0
  2  3  1  0
  3  4  1  0
  3  5  1  0
  3  6  1  0
  6  7  3  0
  7  8  1  0
  1  9  1  0
  4 10  1  0
  4 11  1  0
  4 12  1  0
  5 13  1  0
  8 14  1  0
  8 15  1  0
  8 16  1  0
M  END
