
     RDKit          3D

 17 17  0  0  0  0  0  0  0  0999 V2000
    1.6477    0.6175   -1.9585 C   0  0  0  0  0  0  0  0  0  0  0  0
    0.9650    0.7939   -0.8786 C   0  0  0  0  0  0  0  0  0  0  0  0
    0.1698    1.0185    0.4182 C   0  0  0  0  0  0  0  0  0  0  0  0
    0.0959   -0.3367    0.9986 C   0  0  0  0  0  0  0  0  0  0  0  0
   -0.5597   -1.1884   -0.1288 C   0  0  0  0  0  0  0  0  0  0  0  0
   -1.3255   -2.3205    0.5742 C   0  0  0  0  0  0  0  0  0  0  0  0
   -2.2827   -2.6720   -0.1952 O   0  0  0  0  0  0  0  0  0  0  0  0
   -0.1223    2.3506    0.6167 C   0  0  0  0  0  0  0  0  0  0  0  0
    0.9559    1.8279    1.3827 O   0  0  0  0  0  0  0  0  0  0  0  0
    2.3286    0.4505   -3.0344 H   0  0  0  0  0  0  0  0  0  0  0  0
   -0.3359   -0.4525    1.9674 H   0  0  0  0  0  0  0  0  0  0  0  0
    1.1666   -0.7567    1.1557 H   0  0  0  0  0  0  0  0  0  0  0  0
   -1.1298   -0.7312   -0.8509 H   0  0  0  0  0  0  0  0  0  0  0  0
    0.3217   -1.7254   -0.5900 H   0  0  0  0  0  0  0  0  0  0  0  0
   -1.1157   -2.7061    1.4819 H   0  0  0  0  0  0  0  0  0  0  0  0
    0.2426    3.1352   -0.0666 H   0  0  0  0  0  0  0  0  0  0  0  0
   -1.0223    2.6955    1.1563 H   0  0  0  0  0  0  0  0  0  0  0  0
  1  2  3  0
  2  3  1  0
  3  4  1  0
  4  5  1  0
  5  6  1  0
  6  7  2  0
  3  8  1  0
  8  9  1  0
  9  3  1  0
  1 10  1  0
  4 11  1  0
  4 12  1  0
  5 13  1  0
  5 14  1  0
  6 15  1  0
  8 16  1  0
  8 17  1  0
M  END
