
     RDKit          3D

 19 19  0  0  0  0  0  0  0  0999 V2000
    3.4142   -0.6014    0.8834 C   0  0  0  0  0  0  0  0  0  0  0  0
    2.0026   -1.3197    0.1144 C   0  0  0  0  0  0  0  0  0  0  0  0
    1.2588   -1.6820   -0.2957 C   0  0  0  0  0  0  0  0  0  0  0  0
    0.3889   -0.2681   -0.6862 C   0  0  0  0  0  0  0  0  0  0  0  0
   -0.6218    0.2746   -1.3620 C   0  0  0  0  0  0  0  0  0  0  0  0
   -0.7760   -0.3764    0.1937 C   0  0  0  0  0  0  0  0  0  0  0  0
   -0.4732    0.9679    1.2755 C   0  0  0  0  0  0  0  0  0  0  0  0
   -2.2015    0.1459    0.1823 C   0  0  0  0  0  0  0  0  0  0  0  0
   -3.3706    0.5601    0.1557 C   0  0  0  0  0  0  0  0  0  0  0  0
    4.5504   -0.0504    1.4908 H   0  0  0  0  0  0  0  0  0  0  0  0
    0.9030   -2.4855   -0.8700 H   0  0  0  0  0  0  0  0  0  0  0  0
    1.9128   -1.3776   -1.6632 H   0  0  0  0  0  0  0  0  0  0  0  0
    1.1489    0.6208   -0.3554 H   0  0  0  0  0  0  0  0  0  0  0  0
   -1.2969   -0.2172   -2.1340 H   0  0  0  0  0  0  0  0  0  0  0  0
   -0.8036    1.4105   -1.4961 H   0  0  0  0  0  0  0  0  0  0  0  0
   -1.2683    0.7985    2.1041 H   0  0  0  0  0  0  0  0  0  0  0  0
    0.4649    0.7420    1.5461 H   0  0  0  0  0  0  0  0  0  0  0  0
   -0.8040    1.9145    0.8019 H   0  0  0  0  0  0  0  0  0  0  0  0
   -4.4287    0.9434    0.1147 H   0  0  0  0  0  0  0  0  0  0  0  0
  1  2  3  0
  2  3  1  0
  3  4  1  0
  4  5  1  0
  5  6  1  0
  6  7  1  0
  6  8  1  0
  8  9  3  0
  6  4  1  0
  1 10  1  0
  3 11  1  0
  3 12  1  0
  4 13  1  0
  5 14  1  0
  5 15  1  0
  7 16  1  0
  7 17  1  0
  7 18  1  0
  9 19  1  0
M  END
