
     RDKit          3D

 15 16  0  0  0  0  0  0  0  0999 V2000
    2.9483   -0.0964   -0.3232 C   0  0  0  0  0  0  0  0  0  0  0  0
    1.7384   -0.1551   -0.2938 C   0  0  0  0  0  0  0  0  0  0  0  0
    0.2582   -0.2028   -0.2482 C   0  0  0  0  0  0  0  0  0  0  0  0
   -0.2162   -1.6610   -0.3864 C   0  0  0  0  0  0  0  0  0  0  0  0
   -0.4723    0.8605   -0.8422 C   0  0  0  0  0  0  0  0  0  0  0  0
   -0.8032    2.1484   -0.3038 O   0  0  0  0  0  0  0  0  0  0  0  0
   -1.7059    1.3920    0.4297 C   0  0  0  0  0  0  0  0  0  0  0  0
   -2.8940    1.3042    0.7623 O   0  0  0  0  0  0  0  0  0  0  0  0
   -0.4968    0.5831    0.7176 C   0  0  0  0  0  0  0  0  0  0  0  0
    4.0046   -0.0364   -0.3375 H   0  0  0  0  0  0  0  0  0  0  0  0
   -0.3393   -2.0775    0.6420 H   0  0  0  0  0  0  0  0  0  0  0  0
    0.4631   -2.2396   -1.0177 H   0  0  0  0  0  0  0  0  0  0  0  0
   -1.2601   -1.5996   -0.8040 H   0  0  0  0  0  0  0  0  0  0  0  0
   -1.4173    0.5181   -1.3753 H   0  0  0  0  0  0  0  0  0  0  0  0
    0.1926    1.2622    1.3154 H   0  0  0  0  0  0  0  0  0  0  0  0
  1  2  3  0
  2  3  1  0
  3  4  1  0
  3  5  1  0
  5  6  1  0
  6  7  1  0
  7  8  2  0
  7  9  1  0
  9  3  1  0
  9  5  1  0
  1 10  1  0
  4 11  1  0
  4 12  1  0
  4 13  1  0
  5 14  1  0
  9 15  1  0
M  END
