
     RDKit          3D

 23 23  0  0  0  0  0  0  0  0999 V2000
    0.8184    2.3488    2.3140 C   0  0  0  0  0  0  0  0  0  0  0  0
    0.5346    1.2092    2.0220 C   0  0  0  0  0  0  0  0  0  0  0  0
    0.1907   -0.1774    1.6570 C   0  0  0  0  0  0  0  0  0  0  0  0
   -1.2743   -0.4099    1.8261 C   0  0  0  0  0  0  0  0  0  0  0  0
    0.6490   -0.3571    0.2266 C   0  0  0  0  0  0  0  0  0  0  0  0
    0.3995   -1.7085   -0.3647 C   0  0  0  0  0  0  0  0  0  0  0  0
   -0.5066   -1.0927   -1.3876 C   0  0  0  0  0  0  0  0  0  0  0  0
   -0.2329    0.2632   -0.8086 C   0  0  0  0  0  0  0  0  0  0  0  0
    0.4692    1.2131   -1.7610 C   0  0  0  0  0  0  0  0  0  0  0  0
    1.0793    3.3655    2.5596 H   0  0  0  0  0  0  0  0  0  0  0  0
    0.7345   -0.8976    2.3029 H   0  0  0  0  0  0  0  0  0  0  0  0
   -1.6390   -1.1698    1.1355 H   0  0  0  0  0  0  0  0  0  0  0  0
   -1.8675    0.5260    1.7728 H   0  0  0  0  0  0  0  0  0  0  0  0
   -1.4368   -0.8112    2.8679 H   0  0  0  0  0  0  0  0  0  0  0  0
    1.7344   -0.0885    0.0725 H   0  0  0  0  0  0  0  0  0  0  0  0
   -0.1818   -2.3577    0.3523 H   0  0  0  0  0  0  0  0  0  0  0  0
    1.3000   -2.2238   -0.7772 H   0  0  0  0  0  0  0  0  0  0  0  0
   -0.0539   -1.1854   -2.3998 H   0  0  0  0  0  0  0  0  0  0  0  0
   -1.5598   -1.4360   -1.3227 H   0  0  0  0  0  0  0  0  0  0  0  0
   -1.1079    0.7440   -0.2998 H   0  0  0  0  0  0  0  0  0  0  0  0
   -0.1736    1.4735   -2.6213 H   0  0  0  0  0  0  0  0  0  0  0  0
    1.3423    0.6749   -2.1777 H   0  0  0  0  0  0  0  0  0  0  0  0
    0.7820    2.0974   -1.1823 H   0  0  0  0  0  0  0  0  0  0  0  0
  1  2  3  0
  2  3  1  0
  3  4  1  0
  3  5  1  0
  5  6  1  0
  6  7  1  0
  7  8  1  0
  8  9  1  0
  8  5  1  0
  1 10  1  0
  3 11  1  0
  4 12  1  0
  4 13  1  0
  4 14  1  0
  5 15  1  0
  6 16  1  0
  6 17  1  0
  7 18  1  0
  7 19  1  0
  8 20  1  0
  9 21  1  0
  9 22  1  0
  9 23  1  0
M  END
