
     RDKit          3D

 18 17  0  0  0  0  0  0  0  0999 V2000
    2.9168    1.3404   -1.7087 C   0  0  0  0  0  0  0  0  0  0  0  0
    2.0677    0.2901   -1.3776 C   0  0  0  0  0  0  0  0  0  0  0  0
    1.3488   -0.6220   -1.1086 C   0  0  0  0  0  0  0  0  0  0  0  0
    0.7601   -1.5635   -1.0388 O   0  0  0  0  0  0  0  0  0  0  0  0
    0.7143    0.2139    0.4123 C   0  0  0  0  0  0  0  0  0  0  0  0
   -0.5283   -0.5103    0.6857 C   0  0  0  0  0  0  0  0  0  0  0  0
   -1.5298   -0.7159   -0.4008 C   0  0  0  0  0  0  0  0  0  0  0  0
   -1.3016    0.4399    1.6929 C   0  0  0  0  0  0  0  0  0  0  0  0
    3.6375    2.2350   -2.0117 H   0  0  0  0  0  0  0  0  0  0  0  0
    0.7458    1.1800    0.0309 H   0  0  0  0  0  0  0  0  0  0  0  0
    1.5813   -0.1129    0.9394 H   0  0  0  0  0  0  0  0  0  0  0  0
   -0.3351   -1.4644    1.1799 H   0  0  0  0  0  0  0  0  0  0  0  0
   -1.5964    0.0537   -1.1547 H   0  0  0  0  0  0  0  0  0  0  0  0
   -1.4099   -1.7421   -0.8692 H   0  0  0  0  0  0  0  0  0  0  0  0
   -2.5567   -0.7256    0.0993 H   0  0  0  0  0  0  0  0  0  0  0  0
   -2.3661    0.2257    1.3898 H   0  0  0  0  0  0  0  0  0  0  0  0
   -1.0096    1.4572    1.5071 H   0  0  0  0  0  0  0  0  0  0  0  0
   -1.1387    0.0208    2.6999 H   0  0  0  0  0  0  0  0  0  0  0  0
  1  2  3  0
  2  3  1  0
  3  4  2  0
  3  5  1  0
  5  6  1  0
  6  7  1  0
  6  8  1  0
  1  9  1  0
  5 10  1  0
  5 11  1  0
  6 12  1  0
  7 13  1  0
  7 14  1  0
  7 15  1  0
  8 16  1  0
  8 17  1  0
  8 18  1  0
M  END
