
     RDKit          3D

 17 17  0  0  0  0  0  0  0  0999 V2000
    2.7770   -0.0984   -0.4600 C   0  0  0  0  0  0  0  0  0  0  0  0
    1.7468   -0.7641   -0.4061 C   0  0  0  0  0  0  0  0  0  0  0  0
    0.5315   -1.5748   -0.3560 C   0  0  0  0  0  0  0  0  0  0  0  0
   -0.6755   -0.7278   -0.1057 C   0  0  0  0  0  0  0  0  0  0  0  0
   -0.9462    0.3205   -1.1198 C   0  0  0  0  0  0  0  0  0  0  0  0
   -0.7773    0.4471   -2.3072 O   0  0  0  0  0  0  0  0  0  0  0  0
   -1.5137    1.1335   -0.0166 C   0  0  0  0  0  0  0  0  0  0  0  0
   -0.5513    0.3727    0.9112 C   0  0  0  0  0  0  0  0  0  0  0  0
    0.6793    0.9915    0.9433 O   0  0  0  0  0  0  0  0  0  0  0  0
    3.6576    0.4849   -0.4951 H   0  0  0  0  0  0  0  0  0  0  0  0
    0.5910   -2.3730    0.4107 H   0  0  0  0  0  0  0  0  0  0  0  0
    0.4744   -2.0973   -1.3430 H   0  0  0  0  0  0  0  0  0  0  0  0
   -1.6150   -1.2958    0.0999 H   0  0  0  0  0  0  0  0  0  0  0  0
   -1.3219    2.2085   -0.0533 H   0  0  0  0  0  0  0  0  0  0  0  0
   -2.5605    0.8238    0.1666 H   0  0  0  0  0  0  0  0  0  0  0  0
   -1.0159    0.1724    1.8972 H   0  0  0  0  0  0  0  0  0  0  0  0
    0.5198    1.9764    0.9167 H   0  0  0  0  0  0  0  0  0  0  0  0
  1  2  3  0
  2  3  1  0
  3  4  1  0
  4  5  1  0
  5  6  2  0
  5  7  1  0
  7  8  1  0
  8  9  1  0
  8  4  1  0
  1 10  1  0
  3 11  1  0
  3 12  1  0
  4 13  1  0
  7 14  1  0
  7 15  1  0
  8 16  1  0
  9 17  1  0
M  END
