
     RDKit          3D

 21 21  0  0  0  0  0  0  0  0999 V2000
    3.5550   -0.2217   -0.6813 C   0  0  0  0  0  0  0  0  0  0  0  0
    2.4225   -0.0747   -0.3117 C   0  0  0  0  0  0  0  0  0  0  0  0
    1.0645    0.1100    0.1320 C   0  0  0  0  0  0  0  0  0  0  0  0
    0.5651    1.5342   -0.0492 C   0  0  0  0  0  0  0  0  0  0  0  0
   -0.6927    1.6352    0.8151 C   0  0  0  0  0  0  0  0  0  0  0  0
   -1.2345    0.3833    1.0429 O   0  0  0  0  0  0  0  0  0  0  0  0
   -1.3083   -0.4057   -0.0824 C   0  0  0  0  0  0  0  0  0  0  0  0
   -1.9738   -1.7065    0.2865 C   0  0  0  0  0  0  0  0  0  0  0  0
    0.0734   -0.7635   -0.6315 C   0  0  0  0  0  0  0  0  0  0  0  0
    4.5649   -0.3660   -1.0247 H   0  0  0  0  0  0  0  0  0  0  0  0
    0.9263   -0.1395    1.2192 H   0  0  0  0  0  0  0  0  0  0  0  0
    0.2081    1.6625   -1.1086 H   0  0  0  0  0  0  0  0  0  0  0  0
    1.3072    2.2908    0.1917 H   0  0  0  0  0  0  0  0  0  0  0  0
   -0.3367    2.0589    1.7941 H   0  0  0  0  0  0  0  0  0  0  0  0
   -1.4120    2.3651    0.4192 H   0  0  0  0  0  0  0  0  0  0  0  0
   -1.9092    0.1532   -0.8408 H   0  0  0  0  0  0  0  0  0  0  0  0
   -2.0027   -2.3201   -0.6599 H   0  0  0  0  0  0  0  0  0  0  0  0
   -2.9554   -1.5975    0.7441 H   0  0  0  0  0  0  0  0  0  0  0  0
   -1.2454   -2.2608    0.9433 H   0  0  0  0  0  0  0  0  0  0  0  0
    0.0691   -0.5196   -1.7015 H   0  0  0  0  0  0  0  0  0  0  0  0
    0.3147   -1.8177   -0.4965 H   0  0  0  0  0  0  0  0  0  0  0  0
  1  2  3  0
  2  3  1  0
  3  4  1  0
  4  5  1  0
  5  6  1  0
  6  7  1  0
  7  8  1  0
  7  9  1  0
  9  3  1  0
  1 10  1  0
  3 11  1  0
  4 12  1  0
  4 13  1  0
  5 14  1  0
  5 15  1  0
  7 16  1  0
  8 17  1  0
  8 18  1  0
  8 19  1  0
  9 20  1  0
  9 21  1  0
M  END
