
     RDKit          3D

 16 17  0  0  0  0  0  0  0  0999 V2000
    0.2544    1.8488    1.9001 C   0  0  0  0  0  0  0  0  0  0  0  0
    0.5876    1.4869    0.6721 C   0  0  0  0  0  0  0  0  0  0  0  0
    0.9795    1.0580   -0.7080 C   0  0  0  0  0  0  0  0  0  0  0  0
    0.2010   -0.0863   -0.9983 C   0  0  0  0  0  0  0  0  0  0  0  0
    0.3193   -1.4288   -0.3145 C   0  0  0  0  0  0  0  0  0  0  0  0
   -1.0246   -1.3626   -0.9085 C   0  0  0  0  0  0  0  0  0  0  0  0
   -1.2178   -0.1101   -0.1841 C   0  0  0  0  0  0  0  0  0  0  0  0
   -0.4908   -0.6274   -1.9549 O   0  0  0  0  0  0  0  0  0  0  0  0
    0.0180    2.1071    2.8201 H   0  0  0  0  0  0  0  0  0  0  0  0
    1.4151    1.7664   -1.2234 H   0  0  0  0  0  0  0  0  0  0  0  0
    2.0206    0.4140   -0.2699 H   0  0  0  0  0  0  0  0  0  0  0  0
    0.3411   -1.3784    0.7706 H   0  0  0  0  0  0  0  0  0  0  0  0
    1.0654   -2.1077   -0.8013 H   0  0  0  0  0  0  0  0  0  0  0  0
   -1.6993   -2.1376   -1.0216 H   0  0  0  0  0  0  0  0  0  0  0  0
   -0.9286   -0.1364    0.8592 H   0  0  0  0  0  0  0  0  0  0  0  0
   -1.8408    0.6942   -0.5539 H   0  0  0  0  0  0  0  0  0  0  0  0
  1  2  3  0
  2  3  1  0
  3  4  1  0
  4  5  1  0
  5  6  1  0
  6  7  1  0
  6  8  1  0
  7  4  1  0
  8  4  1  0
  1  9  1  0
  3 10  1  0
  3 11  1  0
  5 12  1  0
  5 13  1  0
  6 14  1  0
  7 15  1  0
  7 16  1  0
M  END
