
     RDKit          3D

 17 17  0  0  0  0  0  0  0  0999 V2000
   -0.6992    2.3893    1.0857 C   0  0  0  0  0  0  0  0  0  0  0  0
   -0.7246    1.2819    0.5995 C   0  0  0  0  0  0  0  0  0  0  0  0
   -0.7304   -0.0574    0.0057 C   0  0  0  0  0  0  0  0  0  0  0  0
   -2.0564   -0.5066   -0.1981 O   0  0  0  0  0  0  0  0  0  0  0  0
   -0.0641   -0.0750   -1.3357 C   0  0  0  0  0  0  0  0  0  0  0  0
    1.1212   -0.7827   -1.3090 O   0  0  0  0  0  0  0  0  0  0  0  0
    1.7944   -0.3992   -0.1376 C   0  0  0  0  0  0  0  0  0  0  0  0
    1.2472   -1.1178    0.8987 O   0  0  0  0  0  0  0  0  0  0  0  0
   -0.1176   -1.0000    0.9972 C   0  0  0  0  0  0  0  0  0  0  0  0
   -0.6651    3.3749    1.5108 H   0  0  0  0  0  0  0  0  0  0  0  0
   -2.1243   -1.0268   -1.0331 H   0  0  0  0  0  0  0  0  0  0  0  0
    0.2159    0.9891   -1.5962 H   0  0  0  0  0  0  0  0  0  0  0  0
   -0.7418   -0.3900   -2.1640 H   0  0  0  0  0  0  0  0  0  0  0  0
    1.6150    0.6959    0.0528 H   0  0  0  0  0  0  0  0  0  0  0  0
    2.8435   -0.6435   -0.2784 H   0  0  0  0  0  0  0  0  0  0  0  0
   -0.5462   -2.0321    0.8694 H   0  0  0  0  0  0  0  0  0  0  0  0
   -0.3675   -0.7001    2.0322 H   0  0  0  0  0  0  0  0  0  0  0  0
  1  2  3  0
  2  3  1  0
  3  4  1  0
  3  5  1  0
  5  6  1  0
  6  7  1  0
  7  8  1  0
  8  9  1  0
  9  3  1  0
  1 10  1  0
  4 11  1  0
  5 12  1  0
  5 13  1  0
  7 14  1  0
  7 15  1  0
  9 16  1  0
  9 17  1  0
M  END
