
     RDKit          3D

 15 15  0  0  0  0  0  0  0  0999 V2000
    2.5755   -0.2612   -0.7041 C   0  0  0  0  0  0  0  0  0  0  0  0
    1.7181   -0.5301   -0.5615 C   0  0  0  0  0  0  0  0  0  0  0  0
    0.5658   -0.8704   -0.3785 C   0  0  0  0  0  0  0  0  0  0  0  0
    0.0903   -1.5609    0.5697 O   0  0  0  0  0  0  0  0  0  0  0  0
   -1.1425   -0.9776    0.9828 C   0  0  0  0  0  0  0  0  0  0  0  0
   -0.5833    0.2740    1.4193 O   0  0  0  0  0  0  0  0  0  0  0  0
   -0.1101    0.6806    0.1308 C   0  0  0  0  0  0  0  0  0  0  0  0
   -1.1021    1.3995   -0.4264 C   0  0  0  0  0  0  0  0  0  0  0  0
   -1.5587    1.9953   -1.2634 O   0  0  0  0  0  0  0  0  0  0  0  0
    4.2812    0.2862   -1.0190 H   0  0  0  0  0  0  0  0  0  0  0  0
   -0.1250   -0.8664   -1.4003 H   0  0  0  0  0  0  0  0  0  0  0  0
   -1.6316   -1.5084    1.7833 H   0  0  0  0  0  0  0  0  0  0  0  0
   -1.7295   -0.8368    0.0537 H   0  0  0  0  0  0  0  0  0  0  0  0
    0.8179    1.3347    0.3430 H   0  0  0  0  0  0  0  0  0  0  0  0
   -2.0659    1.4414    0.4448 H   0  0  0  0  0  0  0  0  0  0  0  0
  1  2  3  0
  2  3  1  0
  3  4  1  0
  4  5  1  0
  5  6  1  0
  6  7  1  0
  7  8  1  0
  8  9  2  0
  7  3  1  0
  1 10  1  0
  3 11  1  0
  5 12  1  0
  5 13  1  0
  7 14  1  0
  8 15  1  0
M  END
