
     RDKit          3D

 10  9  0  0  0  0  0  0  0  0999 V2000
    1.8289   -1.1480    0.0360 C   0  0  0  0  0  0  0  0  0  0  0  0
    0.9335   -0.3290    0.0648 C   0  0  0  0  0  0  0  0  0  0  0  0
   -0.1442    0.6766    0.1194 C   0  0  0  0  0  0  0  0  0  0  0  0
   -0.6918    0.6416    1.4046 O   0  0  0  0  0  0  0  0  0  0  0  0
   -1.1395    0.2942   -0.9015 C   0  0  0  0  0  0  0  0  0  0  0  0
   -2.2540    0.0085   -0.5453 O   0  0  0  0  0  0  0  0  0  0  0  0
    2.6086   -1.8744    0.0056 H   0  0  0  0  0  0  0  0  0  0  0  0
    0.2523    1.7075   -0.0343 H   0  0  0  0  0  0  0  0  0  0  0  0
   -0.5297   -0.2522    1.7842 H   0  0  0  0  0  0  0  0  0  0  0  0
   -0.8641    0.2752   -1.9337 H   0  0  0  0  0  0  0  0  0  0  0  0
  1  2  3  0
  2  3  1  0
  3  4  1  0
  3  5  1  0
  5  6  2  0
  1  7  1  0
  3  8  1  0
  4  9  1  0
  5 10  1  0
M  END
