
     RDKit          3D

 17 18  0  0  0  0  0  0  0  0999 V2000
    2.9126    0.2530    0.1230 C   0  0  0  0  0  0  0  0  0  0  0  0
    1.7257    0.0231    0.1227 C   0  0  0  0  0  0  0  0  0  0  0  0
    0.3058   -0.2724    0.1074 C   0  0  0  0  0  0  0  0  0  0  0  0
   -0.0803   -1.4229    0.9823 C   0  0  0  0  0  0  0  0  0  0  0  0
   -0.5729    0.9479    0.3108 C   0  0  0  0  0  0  0  0  0  0  0  0
   -1.7773    0.5543    0.9100 O   0  0  0  0  0  0  0  0  0  0  0  0
   -0.7297    1.1222   -1.1474 C   0  0  0  0  0  0  0  0  0  0  0  0
    0.2040    0.7463   -2.0743 O   0  0  0  0  0  0  0  0  0  0  0  0
   -0.1982   -0.3116   -1.3102 C   0  0  0  0  0  0  0  0  0  0  0  0
    3.9709    0.4414    0.1138 H   0  0  0  0  0  0  0  0  0  0  0  0
   -0.4419   -2.3061    0.4480 H   0  0  0  0  0  0  0  0  0  0  0  0
    0.7625   -1.7218    1.6358 H   0  0  0  0  0  0  0  0  0  0  0  0
   -0.9009   -1.1040    1.6716 H   0  0  0  0  0  0  0  0  0  0  0  0
   -0.0016    1.7138    0.8663 H   0  0  0  0  0  0  0  0  0  0  0  0
   -2.4905    1.0264    0.3890 H   0  0  0  0  0  0  0  0  0  0  0  0
   -1.7363    1.3429   -1.5191 H   0  0  0  0  0  0  0  0  0  0  0  0
   -0.9521   -1.0326   -1.6297 H   0  0  0  0  0  0  0  0  0  0  0  0
  1  2  3  0
  2  3  1  0
  3  4  1  0
  3  5  1  0
  5  6  1  0
  5  7  1  0
  7  8  1  0
  8  9  1  0
  9  3  1  0
  9  7  1  0
  1 10  1  0
  4 11  1  0
  4 12  1  0
  4 13  1  0
  5 14  1  0
  6 15  1  0
  7 16  1  0
  9 17  1  0
M  END
