
     RDKit          3D

 19 19  0  0  0  0  0  0  0  0999 V2000
   -2.0447    1.9486   -0.5460 C   0  0  0  0  0  0  0  0  0  0  0  0
   -1.3897    0.9708   -0.3498 C   0  0  0  0  0  0  0  0  0  0  0  0
   -0.6103   -0.1660   -0.1394 C   0  0  0  0  0  0  0  0  0  0  0  0
   -0.9441   -1.2774   -1.1237 C   0  0  0  0  0  0  0  0  0  0  0  0
   -0.6109   -0.5997    1.2480 C   0  0  0  0  0  0  0  0  0  0  0  0
    0.6383   -0.5376    1.8309 C   0  0  0  0  0  0  0  0  0  0  0  0
    1.5749   -0.0618    0.8290 C   0  0  0  0  0  0  0  0  0  0  0  0
    2.3516    1.0387    1.2725 O   0  0  0  0  0  0  0  0  0  0  0  0
    0.8740    0.2287   -0.4526 C   0  0  0  0  0  0  0  0  0  0  0  0
   -2.7280    2.9817   -0.7667 H   0  0  0  0  0  0  0  0  0  0  0  0
   -1.1599   -2.2513   -0.7118 H   0  0  0  0  0  0  0  0  0  0  0  0
   -0.0667   -1.3824   -1.8484 H   0  0  0  0  0  0  0  0  0  0  0  0
   -1.8150   -0.8975   -1.7494 H   0  0  0  0  0  0  0  0  0  0  0  0
   -1.4621   -0.9275    1.7974 H   0  0  0  0  0  0  0  0  0  0  0  0
    0.7581   -0.8716    2.8325 H   0  0  0  0  0  0  0  0  0  0  0  0
    2.3403   -0.9092    0.5640 H   0  0  0  0  0  0  0  0  0  0  0  0
    2.1672    1.8217    0.6692 H   0  0  0  0  0  0  0  0  0  0  0  0
    0.8581    1.2728   -0.7182 H   0  0  0  0  0  0  0  0  0  0  0  0
    1.2689   -0.3810   -1.3005 H   0  0  0  0  0  0  0  0  0  0  0  0
  1  2  3  0
  2  3  1  0
  3  4  1  0
  3  5  1  0
  5  6  2  0
  6  7  1  0
  7  8  1  0
  7  9  1  0
  9  3  1  0
  1 10  1  0
  4 11  1  0
  4 12  1  0
  4 13  1  0
  5 14  1  0
  6 15  1  0
  7 16  1  0
  8 17  1  0
  9 18  1  0
  9 19  1  0
M  END
