
     RDKit          3D

 16 15  0  0  0  0  0  0  0  0999 V2000
    2.3946    1.8250   -0.2260 C   0  0  0  0  0  0  0  0  0  0  0  0
    1.6099    1.0321    0.3338 C   0  0  0  0  0  0  0  0  0  0  0  0
    0.6865    0.1134    0.9620 C   0  0  0  0  0  0  0  0  0  0  0  0
   -0.2637   -0.4271   -0.0548 C   0  0  0  0  0  0  0  0  0  0  0  0
   -1.0831    0.6676   -0.7018 C   0  0  0  0  0  0  0  0  0  0  0  0
    0.4136   -1.0610   -1.1127 O   0  0  0  0  0  0  0  0  0  0  0  0
   -1.1280   -1.4189    0.6181 C   0  0  0  0  0  0  0  0  0  0  0  0
   -1.8469   -1.1635    1.5573 O   0  0  0  0  0  0  0  0  0  0  0  0
    3.0705    2.4832   -0.6931 H   0  0  0  0  0  0  0  0  0  0  0  0
    0.0942    0.5822    1.7756 H   0  0  0  0  0  0  0  0  0  0  0  0
    1.2533   -0.7243    1.4717 H   0  0  0  0  0  0  0  0  0  0  0  0
   -1.9992    0.8102   -0.0901 H   0  0  0  0  0  0  0  0  0  0  0  0
   -0.5284    1.6294   -0.5953 H   0  0  0  0  0  0  0  0  0  0  0  0
   -1.3484    0.4245   -1.7441 H   0  0  0  0  0  0  0  0  0  0  0  0
   -0.1982   -1.4688   -1.7523 H   0  0  0  0  0  0  0  0  0  0  0  0
   -1.1266   -2.4526    0.2515 H   0  0  0  0  0  0  0  0  0  0  0  0
  1  2  3  0
  2  3  1  0
  3  4  1  0
  4  5  1  0
  4  6  1  0
  4  7  1  0
  7  8  2  0
  1  9  1  0
  3 10  1  0
  3 11  1  0
  5 12  1  0
  5 13  1  0
  5 14  1  0
  6 15  1  0
  7 16  1  0
M  END
