
     RDKit          3D

 14 15  0  0  0  0  0  0  0  0999 V2000
    3.2071    0.4051   -0.9951 C   0  0  0  0  0  0  0  0  0  0  0  0
    2.0310    0.2430   -0.6913 C   0  0  0  0  0  0  0  0  0  0  0  0
    0.6520    0.0515   -0.3603 C   0  0  0  0  0  0  0  0  0  0  0  0
    0.1754   -0.9652    0.3225 C   0  0  0  0  0  0  0  0  0  0  0  0
   -1.2839   -0.8477    0.4814 C   0  0  0  0  0  0  0  0  0  0  0  0
   -1.7251    0.3258   -0.3435 C   0  0  0  0  0  0  0  0  0  0  0  0
   -1.3274    0.4778   -1.6528 O   0  0  0  0  0  0  0  0  0  0  0  0
   -0.4336    0.9763   -0.7425 C   0  0  0  0  0  0  0  0  0  0  0  0
    4.2315    0.5494   -1.2410 H   0  0  0  0  0  0  0  0  0  0  0  0
    0.7711   -1.7647    0.7066 H   0  0  0  0  0  0  0  0  0  0  0  0
   -1.5754   -0.6381    1.5338 H   0  0  0  0  0  0  0  0  0  0  0  0
   -1.7982   -1.7938    0.1763 H   0  0  0  0  0  0  0  0  0  0  0  0
   -2.5528    0.9359    0.0538 H   0  0  0  0  0  0  0  0  0  0  0  0
   -0.3718    2.0446   -0.4911 H   0  0  0  0  0  0  0  0  0  0  0  0
  1  2  3  0
  2  3  1  0
  3  4  2  0
  4  5  1  0
  5  6  1  0
  6  7  1  0
  7  8  1  0
  8  3  1  0
  8  6  1  0
  1  9  1  0
  4 10  1  0
  5 11  1  0
  5 12  1  0
  6 13  1  0
  8 14  1  0
M  END
