
     RDKit          3D

 15 17  0  0  0  0  0  0  0  0999 V2000
    2.8599   -0.1485   -0.5691 C   0  0  0  0  0  0  0  0  0  0  0  0
    1.7686   -0.5775   -0.2505 C   0  0  0  0  0  0  0  0  0  0  0  0
    0.4374   -1.0957    0.1114 C   0  0  0  0  0  0  0  0  0  0  0  0
    0.1468   -0.6312    1.3696 O   0  0  0  0  0  0  0  0  0  0  0  0
   -0.6784    0.4684    1.2681 C   0  0  0  0  0  0  0  0  0  0  0  0
   -0.7055    1.3128    0.0444 C   0  0  0  0  0  0  0  0  0  0  0  0
   -0.1413    0.8352   -1.1337 O   0  0  0  0  0  0  0  0  0  0  0  0
   -0.5782   -0.4605   -0.8465 C   0  0  0  0  0  0  0  0  0  0  0  0
   -1.5387    0.1285    0.1149 C   0  0  0  0  0  0  0  0  0  0  0  0
    3.7975    0.2391   -0.8458 H   0  0  0  0  0  0  0  0  0  0  0  0
    0.3800   -2.1929   -0.0009 H   0  0  0  0  0  0  0  0  0  0  0  0
   -1.2027    0.8091    2.1530 H   0  0  0  0  0  0  0  0  0  0  0  0
   -1.0315    2.3461    0.1428 H   0  0  0  0  0  0  0  0  0  0  0  0
   -0.9199   -1.0726   -1.6612 H   0  0  0  0  0  0  0  0  0  0  0  0
   -2.5940    0.0396    0.1037 H   0  0  0  0  0  0  0  0  0  0  0  0
  1  2  3  0
  2  3  1  0
  3  4  1  0
  4  5  1  0
  5  6  1  0
  6  7  1  0
  7  8  1  0
  8  9  1  0
  8  3  1  0
  9  5  1  0
  9  6  1  0
  1 10  1  0
  3 11  1  0
  5 12  1  0
  6 13  1  0
  8 14  1  0
  9 15  1  0
M  END
