
     RDKit          3D

 19 20  0  0  0  0  0  0  0  0999 V2000
    1.8784    2.1427   -1.2887 C   0  0  0  0  0  0  0  0  0  0  0  0
    1.4522    1.0574   -1.0392 C   0  0  0  0  0  0  0  0  0  0  0  0
    0.9045   -0.2673   -0.7303 C   0  0  0  0  0  0  0  0  0  0  0  0
    1.1826   -0.7878    0.6513 C   0  0  0  0  0  0  0  0  0  0  0  0
   -0.0792   -1.5889    0.4841 C   0  0  0  0  0  0  0  0  0  0  0  0
   -0.4341   -0.2032   -0.0581 C   0  0  0  0  0  0  0  0  0  0  0  0
   -1.6383    0.1622   -0.5810 C   0  0  0  0  0  0  0  0  0  0  0  0
   -2.6923    0.1080    0.3417 O   0  0  0  0  0  0  0  0  0  0  0  0
    0.2806    0.3200    1.1389 C   0  0  0  0  0  0  0  0  0  0  0  0
    2.2618    3.1368   -1.5350 H   0  0  0  0  0  0  0  0  0  0  0  0
    0.9660   -0.9881   -1.5495 H   0  0  0  0  0  0  0  0  0  0  0  0
    2.0491   -1.0839    1.0473 H   0  0  0  0  0  0  0  0  0  0  0  0
    0.0120   -2.3771   -0.2594 H   0  0  0  0  0  0  0  0  0  0  0  0
   -0.6259   -1.8614    1.3986 H   0  0  0  0  0  0  0  0  0  0  0  0
   -1.6804    1.1839   -1.0129 H   0  0  0  0  0  0  0  0  0  0  0  0
   -1.9903   -0.5106   -1.4207 H   0  0  0  0  0  0  0  0  0  0  0  0
   -2.4011    0.0740    1.2707 H   0  0  0  0  0  0  0  0  0  0  0  0
    0.7403    1.3359    1.0129 H   0  0  0  0  0  0  0  0  0  0  0  0
   -0.1860    0.1475    2.1293 H   0  0  0  0  0  0  0  0  0  0  0  0
  1  2  3  0
  2  3  1  0
  3  4  1  0
  4  5  1  0
  5  6  1  0
  6  7  1  0
  7  8  1  0
  6  9  1  0
  6  3  1  0
  9  4  1  0
  1 10  1  0
  3 11  1  0
  4 12  1  0
  5 13  1  0
  5 14  1  0
  7 15  1  0
  7 16  1  0
  8 17  1  0
  9 18  1  0
  9 19  1  0
M  END
