
     RDKit          3D

 21 21  0  0  0  0  0  0  0  0999 V2000
    3.7548    0.7578   -0.1392 C   0  0  0  0  0  0  0  0  0  0  0  0
    2.5800    0.9338    0.3286 C   0  0  0  0  0  0  0  0  0  0  0  0
    1.2812    1.1069    0.8575 C   0  0  0  0  0  0  0  0  0  0  0  0
    0.3874   -0.0564    0.5067 C   0  0  0  0  0  0  0  0  0  0  0  0
   -0.9009    0.1994    1.1652 C   0  0  0  0  0  0  0  0  0  0  0  0
   -2.0425   -0.1012    0.6252 C   0  0  0  0  0  0  0  0  0  0  0  0
   -2.1854   -0.7299   -0.6921 C   0  0  0  0  0  0  0  0  0  0  0  0
   -0.8855   -1.1181   -1.3277 C   0  0  0  0  0  0  0  0  0  0  0  0
    0.2057   -0.1243   -1.0070 C   0  0  0  0  0  0  0  0  0  0  0  0
    4.7789    0.6238   -0.5427 H   0  0  0  0  0  0  0  0  0  0  0  0
    1.2771    1.1837    1.9844 H   0  0  0  0  0  0  0  0  0  0  0  0
    0.7790    2.0530    0.4951 H   0  0  0  0  0  0  0  0  0  0  0  0
    0.8415   -0.9648    0.9259 H   0  0  0  0  0  0  0  0  0  0  0  0
   -0.8852    0.6554    2.1649 H   0  0  0  0  0  0  0  0  0  0  0  0
   -2.9979    0.1194    1.1624 H   0  0  0  0  0  0  0  0  0  0  0  0
   -2.8188   -1.6294   -0.5623 H   0  0  0  0  0  0  0  0  0  0  0  0
   -2.7729   -0.0291   -1.3243 H   0  0  0  0  0  0  0  0  0  0  0  0
   -0.5746   -2.1144   -0.9582 H   0  0  0  0  0  0  0  0  0  0  0  0
   -0.9988   -1.1680   -2.4019 H   0  0  0  0  0  0  0  0  0  0  0  0
    0.0214    0.8902   -1.3639 H   0  0  0  0  0  0  0  0  0  0  0  0
    1.1554   -0.4880   -1.4086 H   0  0  0  0  0  0  0  0  0  0  0  0
  1  2  3  0
  2  3  1  0
  3  4  1  0
  4  5  1  0
  5  6  2  0
  6  7  1  0
  7  8  1  0
  8  9  1  0
  9  4  1  0
  1 10  1  0
  3 11  1  0
  3 12  1  0
  4 13  1  0
  5 14  1  0
  6 15  1  0
  7 16  1  0
  7 17  1  0
  8 18  1  0
  8 19  1  0
  9 20  1  0
  9 21  1  0
M  END
