
     RDKit          3D

 19 19  0  0  0  0  0  0  0  0999 V2000
   -2.6606    1.8753    0.8754 C   0  0  0  0  0  0  0  0  0  0  0  0
   -2.1022    1.0620    0.6863 C   0  0  0  0  0  0  0  0  0  0  0  0
   -1.3532   -0.0392    0.4545 C   0  0  0  0  0  0  0  0  0  0  0  0
   -1.5592   -1.3762    0.0691 C   0  0  0  0  0  0  0  0  0  0  0  0
   -0.2212    0.4871   -0.0936 O   0  0  0  0  0  0  0  0  0  0  0  0
    0.7710    0.9459   -0.5491 C   0  0  0  0  0  0  0  0  0  0  0  0
    2.1370    0.3496   -0.2209 C   0  0  0  0  0  0  0  0  0  0  0  0
    2.2530   -1.1571   -0.0546 C   0  0  0  0  0  0  0  0  0  0  0  0
    2.6971   -0.4412   -1.1610 O   0  0  0  0  0  0  0  0  0  0  0  0
   -3.6511    3.2876    1.1864 H   0  0  0  0  0  0  0  0  0  0  0  0
   -1.0500   -0.2546    1.8085 H   0  0  0  0  0  0  0  0  0  0  0  0
   -0.6760   -1.4570   -0.7891 H   0  0  0  0  0  0  0  0  0  0  0  0
   -2.4314   -1.8661   -0.2716 H   0  0  0  0  0  0  0  0  0  0  0  0
   -1.0095   -2.2128    0.7270 H   0  0  0  0  0  0  0  0  0  0  0  0
    0.7724    2.1621   -0.3765 H   0  0  0  0  0  0  0  0  0  0  0  0
    0.8229    1.0232   -1.7686 H   0  0  0  0  0  0  0  0  0  0  0  0
    2.7682    0.9111    0.5092 H   0  0  0  0  0  0  0  0  0  0  0  0
    3.0421   -1.4327    0.7453 H   0  0  0  0  0  0  0  0  0  0  0  0
    1.4505   -1.8670   -0.2244 H   0  0  0  0  0  0  0  0  0  0  0  0
  1  2  3  0
  2  3  1  0
  3  4  1  0
  3  5  1  0
  5  6  1  0
  6  7  1  0
  7  8  1  0
  8  9  1  0
  9  7  1  0
  1 10  1  0
  3 11  1  0
  4 12  1  0
  4 13  1  0
  4 14  1  0
  6 15  1  0
  6 16  1  0
  7 17  1  0
  8 18  1  0
  8 19  1  0
M  END
