
     RDKit          3D

 19 19  0  0  0  0  0  0  0  0999 V2000
   -1.6642   -2.2505   -0.5824 C   0  0  0  0  0  0  0  0  0  0  0  0
   -0.9267   -1.3258   -0.3440 C   0  0  0  0  0  0  0  0  0  0  0  0
   -0.0208   -0.1848   -0.0680 C   0  0  0  0  0  0  0  0  0  0  0  0
    1.0807   -0.2311   -1.1047 C   0  0  0  0  0  0  0  0  0  0  0  0
    1.7660   -1.4281   -1.0068 O   0  0  0  0  0  0  0  0  0  0  0  0
   -0.7470    1.1153   -0.1774 C   0  0  0  0  0  0  0  0  0  0  0  0
   -0.4719    1.7878    1.1170 C   0  0  0  0  0  0  0  0  0  0  0  0
    0.4012    1.0506    1.8607 O   0  0  0  0  0  0  0  0  0  0  0  0
    0.4800   -0.2237    1.3252 C   0  0  0  0  0  0  0  0  0  0  0  0
   -2.3239   -3.0505   -0.7983 H   0  0  0  0  0  0  0  0  0  0  0  0
    1.8018    0.5839   -0.9328 H   0  0  0  0  0  0  0  0  0  0  0  0
    0.5678   -0.1351   -2.1042 H   0  0  0  0  0  0  0  0  0  0  0  0
    2.3445   -1.5151   -1.8031 H   0  0  0  0  0  0  0  0  0  0  0  0
   -1.8416    0.9210   -0.2502 H   0  0  0  0  0  0  0  0  0  0  0  0
   -0.4058    1.6769   -1.0664 H   0  0  0  0  0  0  0  0  0  0  0  0
   -1.4120    1.9745    1.7138 H   0  0  0  0  0  0  0  0  0  0  0  0
    0.0053    2.7878    0.9188 H   0  0  0  0  0  0  0  0  0  0  0  0
    1.5143   -0.6227    1.3797 H   0  0  0  0  0  0  0  0  0  0  0  0
   -0.1480   -0.9303    1.9230 H   0  0  0  0  0  0  0  0  0  0  0  0
  1  2  3  0
  2  3  1  0
  3  4  1  0
  4  5  1  0
  3  6  1  0
  6  7  1  0
  7  8  1  0
  8  9  1  0
  9  3  1  0
  1 10  1  0
  4 11  1  0
  4 12  1  0
  5 13  1  0
  6 14  1  0
  6 15  1  0
  7 16  1  0
  7 17  1  0
  9 18  1  0
  9 19  1  0
M  END
