
     RDKit          3D

 16 16  0  0  0  0  0  0  0  0999 V2000
    3.1485   -0.2916   -0.6112 C   0  0  0  0  0  0  0  0  0  0  0  0
    2.1694   -0.7770   -0.0689 C   0  0  0  0  0  0  0  0  0  0  0  0
    1.0275   -1.3647    0.5748 C   0  0  0  0  0  0  0  0  0  0  0  0
    1.2269   -2.3593    1.3389 O   0  0  0  0  0  0  0  0  0  0  0  0
   -0.3522   -0.8348    0.3621 C   0  0  0  0  0  0  0  0  0  0  0  0
   -0.5767   -0.2706   -1.0219 C   0  0  0  0  0  0  0  0  0  0  0  0
   -0.4719    0.6308    0.2196 C   0  0  0  0  0  0  0  0  0  0  0  0
   -1.7944    1.3198    0.5499 C   0  0  0  0  0  0  0  0  0  0  0  0
    3.9923    0.1439   -1.0873 H   0  0  0  0  0  0  0  0  0  0  0  0
   -1.1471   -1.3498    0.8947 H   0  0  0  0  0  0  0  0  0  0  0  0
   -1.5572   -0.4418   -1.4675 H   0  0  0  0  0  0  0  0  0  0  0  0
    0.2639   -0.2549   -1.7401 H   0  0  0  0  0  0  0  0  0  0  0  0
    0.3989    1.3054    0.2180 H   0  0  0  0  0  0  0  0  0  0  0  0
   -2.6454    0.6291    0.3928 H   0  0  0  0  0  0  0  0  0  0  0  0
   -1.9038    2.1368   -0.1984 H   0  0  0  0  0  0  0  0  0  0  0  0
   -1.7787    1.7786    1.5538 H   0  0  0  0  0  0  0  0  0  0  0  0
  1  2  3  0
  2  3  1  0
  3  4  2  0
  3  5  1  0
  5  6  1  0
  6  7  1  0
  7  8  1  0
  7  5  1  0
  1  9  1  0
  5 10  1  0
  6 11  1  0
  6 12  1  0
  7 13  1  0
  8 14  1  0
  8 15  1  0
  8 16  1  0
M  END
