
     RDKit          3D

 21 21  0  0  0  0  0  0  0  0999 V2000
   -0.5800    3.2641   -1.0914 C   0  0  0  0  0  0  0  0  0  0  0  0
   -0.7925    2.0942   -0.9536 C   0  0  0  0  0  0  0  0  0  0  0  0
   -1.0718    0.6427   -0.7615 C   0  0  0  0  0  0  0  0  0  0  0  0
   -2.4297    0.5140   -0.1535 C   0  0  0  0  0  0  0  0  0  0  0  0
    0.0336    0.0745    0.0946 C   0  0  0  0  0  0  0  0  0  0  0  0
   -0.0301   -1.3909    0.4289 C   0  0  0  0  0  0  0  0  0  0  0  0
    0.9695   -0.8562   -0.5748 C   0  0  0  0  0  0  0  0  0  0  0  0
    2.4093   -0.9558   -0.2060 C   0  0  0  0  0  0  0  0  0  0  0  0
    2.6299   -1.3235    1.1179 O   0  0  0  0  0  0  0  0  0  0  0  0
   -0.3780    4.3152   -1.2000 H   0  0  0  0  0  0  0  0  0  0  0  0
   -1.0849    0.1845   -1.7874 H   0  0  0  0  0  0  0  0  0  0  0  0
   -2.7736    1.4935    0.2630 H   0  0  0  0  0  0  0  0  0  0  0  0
   -2.4842   -0.2353    0.6590 H   0  0  0  0  0  0  0  0  0  0  0  0
   -3.1911    0.2610   -0.9467 H   0  0  0  0  0  0  0  0  0  0  0  0
    0.3850    0.7884    0.8695 H   0  0  0  0  0  0  0  0  0  0  0  0
    0.3877   -1.7303    1.3989 H   0  0  0  0  0  0  0  0  0  0  0  0
   -0.8882   -1.9943    0.0365 H   0  0  0  0  0  0  0  0  0  0  0  0
    0.7575   -1.1197   -1.6430 H   0  0  0  0  0  0  0  0  0  0  0  0
    2.9022    0.0010   -0.4281 H   0  0  0  0  0  0  0  0  0  0  0  0
    2.8789   -1.7667   -0.8223 H   0  0  0  0  0  0  0  0  0  0  0  0
    2.3506   -2.2606    1.2741 H   0  0  0  0  0  0  0  0  0  0  0  0
  1  2  3  0
  2  3  1  0
  3  4  1  0
  3  5  1  0
  5  6  1  0
  6  7  1  0
  7  8  1  0
  8  9  1  0
  7  5  1  0
  1 10  1  0
  3 11  1  0
  4 12  1  0
  4 13  1  0
  4 14  1  0
  5 15  1  0
  6 16  1  0
  6 17  1  0
  7 18  1  0
  8 19  1  0
  8 20  1  0
  9 21  1  0
M  END
