
     RDKit          3D

 13 13  0  0  0  0  0  0  0  0999 V2000
    3.0475   -0.5222    0.3958 C   0  0  0  0  0  0  0  0  0  0  0  0
    1.7400   -0.0995    0.1539 C   0  0  0  0  0  0  0  0  0  0  0  0
    0.6317    0.2549   -0.0421 C   0  0  0  0  0  0  0  0  0  0  0  0
    0.2408    0.0419   -1.4342 O   0  0  0  0  0  0  0  0  0  0  0  0
   -0.8607    0.0159   -0.4139 C   0  0  0  0  0  0  0  0  0  0  0  0
   -1.4270    0.7342   -0.0649 C   0  0  0  0  0  0  0  0  0  0  0  0
   -2.1435    1.6553    0.3825 C   0  0  0  0  0  0  0  0  0  0  0  0
   -1.0117   -1.5548   -0.0357 C   0  0  0  0  0  0  0  0  0  0  0  0
   -2.0514   -1.9956   -0.0159 O   0  0  0  0  0  0  0  0  0  0  0  0
    4.4206   -0.9516    0.6346 H   0  0  0  0  0  0  0  0  0  0  0  0
    0.6398    1.5663    0.1261 H   0  0  0  0  0  0  0  0  0  0  0  0
   -3.1008    2.9124    1.0136 H   0  0  0  0  0  0  0  0  0  0  0  0
   -0.1254   -2.0570    0.2156 H   0  0  0  0  0  0  0  0  0  0  0  0
  1  2  3  0
  2  3  1  0
  3  4  1  0
  4  5  1  0
  5  6  1  0
  6  7  3  0
  5  8  1  0
  8  9  2  0
  5  3  1  0
  1 10  1  0
  3 11  1  0
  7 12  1  0
  8 13  1  0
M  END
