
     RDKit          3D

 16 16  0  0  0  0  0  0  0  0999 V2000
   -1.3937    2.5070   -0.4498 C   0  0  0  0  0  0  0  0  0  0  0  0
   -0.8434    1.3806   -0.8029 C   0  0  0  0  0  0  0  0  0  0  0  0
   -0.1589   -0.0356   -1.2348 C   0  0  0  0  0  0  0  0  0  0  0  0
   -0.6896   -1.0411   -0.2892 C   0  0  0  0  0  0  0  0  0  0  0  0
   -0.6860   -0.9589    1.2037 C   0  0  0  0  0  0  0  0  0  0  0  0
    0.5443   -1.5094    0.5498 C   0  0  0  0  0  0  0  0  0  0  0  0
    1.5294   -0.1975    0.4562 C   0  0  0  0  0  0  0  0  0  0  0  0
    2.3858    0.9344    0.3792 C   0  0  0  0  0  0  0  0  0  0  0  0
   -1.7211    3.1659   -0.2297 H   0  0  0  0  0  0  0  0  0  0  0  0
   -0.4653   -0.1100   -2.2888 H   0  0  0  0  0  0  0  0  0  0  0  0
    0.8926    0.1570   -1.2244 H   0  0  0  0  0  0  0  0  0  0  0  0
   -1.2098   -1.9160   -0.7707 H   0  0  0  0  0  0  0  0  0  0  0  0
   -1.3930   -1.6599    1.7167 H   0  0  0  0  0  0  0  0  0  0  0  0
   -0.6940    0.0720    1.6716 H   0  0  0  0  0  0  0  0  0  0  0  0
    1.0331   -2.3820    0.4913 H   0  0  0  0  0  0  0  0  0  0  0  0
    2.8697    1.5937    0.3293 H   0  0  0  0  0  0  0  0  0  0  0  0
  1  2  3  0
  2  3  1  0
  3  4  1  0
  4  5  1  0
  5  6  1  0
  6  7  1  0
  7  8  3  0
  6  4  1  0
  1  9  1  0
  3 10  1  0
  3 11  1  0
  4 12  1  0
  5 13  1  0
  5 14  1  0
  6 15  1  0
  8 16  1  0
M  END
