
     RDKit          3D

 19 20  0  0  0  0  0  0  0  0999 V2000
    2.7422    0.3176    1.8468 C   0  0  0  0  0  0  0  0  0  0  0  0
    2.1118   -0.1057    0.9060 C   0  0  0  0  0  0  0  0  0  0  0  0
    1.3411   -0.5926   -0.2271 C   0  0  0  0  0  0  0  0  0  0  0  0
    0.4409   -1.6052    0.1363 O   0  0  0  0  0  0  0  0  0  0  0  0
   -0.6595   -0.9350   -0.3365 C   0  0  0  0  0  0  0  0  0  0  0  0
   -1.8985   -0.8934    0.5003 C   0  0  0  0  0  0  0  0  0  0  0  0
   -0.7069   -0.3312   -1.6860 C   0  0  0  0  0  0  0  0  0  0  0  0
    0.1652    0.2460   -0.6130 C   0  0  0  0  0  0  0  0  0  0  0  0
   -0.0750    1.5865   -0.0415 C   0  0  0  0  0  0  0  0  0  0  0  0
    3.3116    0.6810    2.6784 H   0  0  0  0  0  0  0  0  0  0  0  0
    1.9673   -0.9696   -1.0645 H   0  0  0  0  0  0  0  0  0  0  0  0
   -1.9954    0.0202    1.1129 H   0  0  0  0  0  0  0  0  0  0  0  0
   -1.8708   -1.7600    1.1952 H   0  0  0  0  0  0  0  0  0  0  0  0
   -2.7835   -1.0368   -0.1812 H   0  0  0  0  0  0  0  0  0  0  0  0
   -1.6113    0.2500   -1.9203 H   0  0  0  0  0  0  0  0  0  0  0  0
   -0.1171   -0.7547   -2.5361 H   0  0  0  0  0  0  0  0  0  0  0  0
   -0.7903    2.1338   -0.7045 H   0  0  0  0  0  0  0  0  0  0  0  0
   -0.4580    1.5911    0.9966 H   0  0  0  0  0  0  0  0  0  0  0  0
    0.8864    2.1579   -0.0618 H   0  0  0  0  0  0  0  0  0  0  0  0
  1  2  3  0
  2  3  1  0
  3  4  1  0
  4  5  1  0
  5  6  1  0
  5  7  1  0
  7  8  1  0
  8  9  1  0
  8  3  1  0
  8  5  1  0
  1 10  1  0
  3 11  1  0
  6 12  1  0
  6 13  1  0
  6 14  1  0
  7 15  1  0
  7 16  1  0
  9 17  1  0
  9 18  1  0
  9 19  1  0
M  END
