
     RDKit          3D

 19 18  0  0  0  0  0  0  0  0999 V2000
    3.1315   -0.2351    0.0245 C   0  0  0  0  0  0  0  0  0  0  0  0
    2.0564   -0.1304    0.5449 C   0  0  0  0  0  0  0  0  0  0  0  0
    0.7534    0.0113    1.1587 C   0  0  0  0  0  0  0  0  0  0  0  0
   -0.2317    0.6635    0.2263 C   0  0  0  0  0  0  0  0  0  0  0  0
    0.2113    2.0264   -0.1822 C   0  0  0  0  0  0  0  0  0  0  0  0
   -0.5360    2.9757   -0.1775 O   0  0  0  0  0  0  0  0  0  0  0  0
   -0.3649   -0.1757   -1.0146 C   0  0  0  0  0  0  0  0  0  0  0  0
   -0.7939   -1.4275   -0.6813 O   0  0  0  0  0  0  0  0  0  0  0  0
   -2.0144   -1.4430   -0.0805 C   0  0  0  0  0  0  0  0  0  0  0  0
    4.0880   -0.3468   -0.4419 H   0  0  0  0  0  0  0  0  0  0  0  0
    0.8850    0.5940    2.0934 H   0  0  0  0  0  0  0  0  0  0  0  0
    0.3554   -1.0000    1.3935 H   0  0  0  0  0  0  0  0  0  0  0  0
   -1.2041    0.6988    0.7383 H   0  0  0  0  0  0  0  0  0  0  0  0
    1.2332    2.1575   -0.4897 H   0  0  0  0  0  0  0  0  0  0  0  0
   -1.0481    0.3409   -1.7336 H   0  0  0  0  0  0  0  0  0  0  0  0
    0.6556   -0.1857   -1.5033 H   0  0  0  0  0  0  0  0  0  0  0  0
   -2.7845   -0.9663   -0.7586 H   0  0  0  0  0  0  0  0  0  0  0  0
   -2.1066   -0.9971    0.8988 H   0  0  0  0  0  0  0  0  0  0  0  0
   -2.2855   -2.5605   -0.0150 H   0  0  0  0  0  0  0  0  0  0  0  0
  1  2  3  0
  2  3  1  0
  3  4  1  0
  4  5  1  0
  5  6  2  0
  4  7  1  0
  7  8  1  0
  8  9  1  0
  1 10  1  0
  3 11  1  0
  3 12  1  0
  4 13  1  0
  5 14  1  0
  7 15  1  0
  7 16  1  0
  9 17  1  0
  9 18  1  0
  9 19  1  0
M  END
