
     RDKit          3D

 10  9  0  0  0  0  0  0  0  0999 V2000
    3.0519   -0.6130   -2.0486 C   0  0  0  0  0  0  0  0  0  0  0  0
    1.6350   -0.4980   -1.2279 C   0  0  0  0  0  0  0  0  0  0  0  0
    0.8168   -0.4184   -0.7571 C   0  0  0  0  0  0  0  0  0  0  0  0
    0.1398   -0.3644   -0.3748 C   0  0  0  0  0  0  0  0  0  0  0  0
   -1.4681   -0.2549    0.5213 C   0  0  0  0  0  0  0  0  0  0  0  0
   -1.5457   -1.3956    0.7784 O   0  0  0  0  0  0  0  0  0  0  0  0
   -1.9397    0.9312    0.6368 C   0  0  0  0  0  0  0  0  0  0  0  0
   -2.4904    1.7683   -0.1610 O   0  0  0  0  0  0  0  0  0  0  0  0
    3.7069   -0.6634   -2.4133 H   0  0  0  0  0  0  0  0  0  0  0  0
   -1.9066    1.5082    1.6746 H   0  0  0  0  0  0  0  0  0  0  0  0
  1  2  3  0
  2  3  1  0
  3  4  3  0
  4  5  1  0
  5  6  2  0
  5  7  1  0
  7  8  2  0
  1  9  1  0
  7 10  1  0
M  END
