
     RDKit          3D

 17 18  0  0  0  0  0  0  0  0999 V2000
    3.2277    0.9410    1.0208 C   0  0  0  0  0  0  0  0  0  0  0  0
    2.1461    0.4136    0.9176 C   0  0  0  0  0  0  0  0  0  0  0  0
    0.8327   -0.2248    0.8174 C   0  0  0  0  0  0  0  0  0  0  0  0
   -0.3303    0.7801    0.9088 C   0  0  0  0  0  0  0  0  0  0  0  0
   -0.0094    2.1376    0.9630 O   0  0  0  0  0  0  0  0  0  0  0  0
    0.0054    0.0369   -0.3742 C   0  0  0  0  0  0  0  0  0  0  0  0
   -1.0350   -0.8889   -0.8675 C   0  0  0  0  0  0  0  0  0  0  0  0
   -2.1986   -1.2997   -0.0587 C   0  0  0  0  0  0  0  0  0  0  0  0
   -1.1623   -2.1824   -0.3883 O   0  0  0  0  0  0  0  0  0  0  0  0
    4.1849    1.4213    1.1270 H   0  0  0  0  0  0  0  0  0  0  0  0
    0.7097   -1.0987    1.4603 H   0  0  0  0  0  0  0  0  0  0  0  0
   -1.1911    0.5034    1.5183 H   0  0  0  0  0  0  0  0  0  0  0  0
    0.9697    2.2270    1.0001 H   0  0  0  0  0  0  0  0  0  0  0  0
    0.5140    0.6838   -1.1515 H   0  0  0  0  0  0  0  0  0  0  0  0
   -1.2317   -0.8512   -1.9773 H   0  0  0  0  0  0  0  0  0  0  0  0
   -3.1852   -1.4478   -0.5738 H   0  0  0  0  0  0  0  0  0  0  0  0
   -2.2465   -1.1511    1.0404 H   0  0  0  0  0  0  0  0  0  0  0  0
  1  2  3  0
  2  3  1  0
  3  4  1  0
  4  5  1  0
  4  6  1  0
  6  7  1  0
  7  8  1  0
  8  9  1  0
  6  3  1  0
  9  7  1  0
  1 10  1  0
  3 11  1  0
  4 12  1  0
  5 13  1  0
  6 14  1  0
  7 15  1  0
  8 16  1  0
  8 17  1  0
M  END
