
     RDKit          3D

 19 19  0  0  0  0  0  0  0  0999 V2000
    2.8529   -0.8754    0.3137 C   0  0  0  0  0  0  0  0  0  0  0  0
    1.8091   -0.3190    0.6279 C   0  0  0  0  0  0  0  0  0  0  0  0
    0.5529    0.3263    1.0172 C   0  0  0  0  0  0  0  0  0  0  0  0
    0.7272    1.7197    1.0957 O   0  0  0  0  0  0  0  0  0  0  0  0
   -0.4912   -0.0350    0.0105 C   0  0  0  0  0  0  0  0  0  0  0  0
   -0.1648    0.4046   -1.4150 C   0  0  0  0  0  0  0  0  0  0  0  0
   -0.0226    1.7905   -1.4527 O   0  0  0  0  0  0  0  0  0  0  0  0
   -1.9117   -0.2145    0.3842 C   0  0  0  0  0  0  0  0  0  0  0  0
   -1.0481   -1.4430    0.1719 C   0  0  0  0  0  0  0  0  0  0  0  0
    3.7666   -1.3442    0.0504 H   0  0  0  0  0  0  0  0  0  0  0  0
    0.2606   -0.0765    2.0050 H   0  0  0  0  0  0  0  0  0  0  0  0
    1.6754    1.9618    0.8521 H   0  0  0  0  0  0  0  0  0  0  0  0
   -0.9961    0.0542   -2.0627 H   0  0  0  0  0  0  0  0  0  0  0  0
    0.8054   -0.0435   -1.7259 H   0  0  0  0  0  0  0  0  0  0  0  0
   -0.9042    2.1825   -1.2608 H   0  0  0  0  0  0  0  0  0  0  0  0
   -2.6483   -0.0262   -0.4108 H   0  0  0  0  0  0  0  0  0  0  0  0
   -2.2431   -0.0001    1.4280 H   0  0  0  0  0  0  0  0  0  0  0  0
   -0.8009   -2.0019    1.0961 H   0  0  0  0  0  0  0  0  0  0  0  0
   -1.2192   -2.0602   -0.7249 H   0  0  0  0  0  0  0  0  0  0  0  0
  1  2  3  0
  2  3  1  0
  3  4  1  0
  3  5  1  0
  5  6  1  0
  6  7  1  0
  5  8  1  0
  8  9  1  0
  9  5  1  0
  1 10  1  0
  3 11  1  0
  4 12  1  0
  6 13  1  0
  6 14  1  0
  7 15  1  0
  8 16  1  0
  8 17  1  0
  9 18  1  0
  9 19  1  0
M  END
