
     RDKit          3D

 19 20  0  0  0  0  0  0  0  0999 V2000
    2.6626   -1.9708    0.7209 C   0  0  0  0  0  0  0  0  0  0  0  0
    1.5611   -1.7007    0.3306 C   0  0  0  0  0  0  0  0  0  0  0  0
    0.2204   -1.3854   -0.1666 C   0  0  0  0  0  0  0  0  0  0  0  0
    0.2493   -0.6089   -1.3473 O   0  0  0  0  0  0  0  0  0  0  0  0
   -0.6845    0.2144   -0.7569 C   0  0  0  0  0  0  0  0  0  0  0  0
   -1.9692    0.5576   -1.3008 C   0  0  0  0  0  0  0  0  0  0  0  0
   -0.9218    1.5969   -1.1269 C   0  0  0  0  0  0  0  0  0  0  0  0
   -0.3647   -0.2094    0.6150 C   0  0  0  0  0  0  0  0  0  0  0  0
    0.7345    0.6408    1.2242 C   0  0  0  0  0  0  0  0  0  0  0  0
    3.6364   -2.2026    1.0476 H   0  0  0  0  0  0  0  0  0  0  0  0
   -0.4716   -2.2423   -0.2348 H   0  0  0  0  0  0  0  0  0  0  0  0
   -2.8562    0.5825   -0.6419 H   0  0  0  0  0  0  0  0  0  0  0  0
   -2.1959    0.2833   -2.3590 H   0  0  0  0  0  0  0  0  0  0  0  0
   -1.1090    2.3169   -0.2864 H   0  0  0  0  0  0  0  0  0  0  0  0
   -0.3582    2.0219   -1.9529 H   0  0  0  0  0  0  0  0  0  0  0  0
   -1.1794   -0.4799    1.2993 H   0  0  0  0  0  0  0  0  0  0  0  0
    1.5512    0.0197    1.6595 H   0  0  0  0  0  0  0  0  0  0  0  0
    0.3365    1.2416    2.0773 H   0  0  0  0  0  0  0  0  0  0  0  0
    1.1588    1.3243    0.4713 H   0  0  0  0  0  0  0  0  0  0  0  0
  1  2  3  0
  2  3  1  0
  3  4  1  0
  4  5  1  0
  5  6  1  0
  6  7  1  0
  5  8  1  0
  8  9  1  0
  8  3  1  0
  7  5  1  0
  1 10  1  0
  3 11  1  0
  6 12  1  0
  6 13  1  0
  7 14  1  0
  7 15  1  0
  8 16  1  0
  9 17  1  0
  9 18  1  0
  9 19  1  0
M  END
