
     RDKit          3D

 18 18  0  0  0  0  0  0  0  0999 V2000
   -2.1559    2.6884    0.1049 C   0  0  0  0  0  0  0  0  0  0  0  0
   -1.5747    1.6549    0.3604 C   0  0  0  0  0  0  0  0  0  0  0  0
   -0.8742    0.3997    0.6445 C   0  0  0  0  0  0  0  0  0  0  0  0
   -0.6764   -0.5673   -0.5370 C   0  0  0  0  0  0  0  0  0  0  0  0
   -1.0076   -1.9897   -0.2174 C   0  0  0  0  0  0  0  0  0  0  0  0
    0.4664    0.1466    0.0465 C   0  0  0  0  0  0  0  0  0  0  0  0
    1.4158   -0.4810    0.8254 O   0  0  0  0  0  0  0  0  0  0  0  0
    2.6868    0.1038    0.6612 C   0  0  0  0  0  0  0  0  0  0  0  0
   -2.6707    3.5930   -0.1377 H   0  0  0  0  0  0  0  0  0  0  0  0
   -1.0545   -0.0083    1.6331 H   0  0  0  0  0  0  0  0  0  0  0  0
   -1.1048   -0.1841   -1.5046 H   0  0  0  0  0  0  0  0  0  0  0  0
   -1.5618   -2.0717    0.7409 H   0  0  0  0  0  0  0  0  0  0  0  0
   -0.1013   -2.6363   -0.1267 H   0  0  0  0  0  0  0  0  0  0  0  0
   -1.6740   -2.4279   -0.9911 H   0  0  0  0  0  0  0  0  0  0  0  0
    0.8736    0.9983   -0.5687 H   0  0  0  0  0  0  0  0  0  0  0  0
    2.6695    1.1699    0.9471 H   0  0  0  0  0  0  0  0  0  0  0  0
    3.4224   -0.4363    1.2570 H   0  0  0  0  0  0  0  0  0  0  0  0
    2.9214    0.0482   -0.4326 H   0  0  0  0  0  0  0  0  0  0  0  0
  1  2  3  0
  2  3  1  0
  3  4  1  0
  4  5  1  0
  4  6  1  0
  6  7  1  0
  7  8  1  0
  6  3  1  0
  1  9  1  0
  3 10  1  0
  4 11  1  0
  5 12  1  0
  5 13  1  0
  5 14  1  0
  6 15  1  0
  8 16  1  0
  8 17  1  0
  8 18  1  0
M  END
