
     RDKit          3D

 23 22  0  0  0  0  0  0  0  0999 V2000
    2.1412   -0.7105    2.6024 C   0  0  0  0  0  0  0  0  0  0  0  0
    1.2154   -1.2081    1.9324 C   0  0  0  0  0  0  0  0  0  0  0  0
    0.1935   -1.7797    1.1772 C   0  0  0  0  0  0  0  0  0  0  0  0
    0.1484   -1.6195   -0.2923 C   0  0  0  0  0  0  0  0  0  0  0  0
    0.0778   -0.2065   -0.8348 C   0  0  0  0  0  0  0  0  0  0  0  0
    1.2825    0.5851   -0.5138 C   0  0  0  0  0  0  0  0  0  0  0  0
   -1.1752    0.4769   -0.3576 C   0  0  0  0  0  0  0  0  0  0  0  0
   -1.2567    1.8580   -0.9378 C   0  0  0  0  0  0  0  0  0  0  0  0
   -2.4381    2.5166   -0.5522 O   0  0  0  0  0  0  0  0  0  0  0  0
    2.9636   -0.2765    3.2032 H   0  0  0  0  0  0  0  0  0  0  0  0
   -0.8192   -1.3170    1.5942 H   0  0  0  0  0  0  0  0  0  0  0  0
    0.0276   -2.8546    1.5082 H   0  0  0  0  0  0  0  0  0  0  0  0
    1.1008   -2.0376   -0.7028 H   0  0  0  0  0  0  0  0  0  0  0  0
   -0.6602   -2.2044   -0.8056 H   0  0  0  0  0  0  0  0  0  0  0  0
   -0.0011   -0.3316   -1.9433 H   0  0  0  0  0  0  0  0  0  0  0  0
    2.1551    0.0328   -0.9664 H   0  0  0  0  0  0  0  0  0  0  0  0
    1.2194    1.5996   -1.0187 H   0  0  0  0  0  0  0  0  0  0  0  0
    1.4306    0.8187    0.5460 H   0  0  0  0  0  0  0  0  0  0  0  0
   -2.0462   -0.1814   -0.5968 H   0  0  0  0  0  0  0  0  0  0  0  0
   -1.1451    0.5957    0.7710 H   0  0  0  0  0  0  0  0  0  0  0  0
   -1.1822    1.8764   -2.0272 H   0  0  0  0  0  0  0  0  0  0  0  0
   -0.3822    2.4435   -0.5187 H   0  0  0  0  0  0  0  0  0  0  0  0
   -2.8498    1.9240    0.1219 H   0  0  0  0  0  0  0  0  0  0  0  0
  1  2  3  0
  2  3  1  0
  3  4  1  0
  4  5  1  0
  5  6  1  0
  5  7  1  0
  7  8  1  0
  8  9  1  0
  1 10  1  0
  3 11  1  0
  3 12  1  0
  4 13  1  0
  4 14  1  0
  5 15  1  0
  6 16  1  0
  6 17  1  0
  6 18  1  0
  7 19  1  0
  7 20  1  0
  8 21  1  0
  8 22  1  0
  9 23  1  0
M  END
