
     RDKit          3D

 19 19  0  0  0  0  0  0  0  0999 V2000
    2.5511    0.3741   -2.0607 C   0  0  0  0  0  0  0  0  0  0  0  0
    1.6773   -0.5383   -1.2139 C   0  0  0  0  0  0  0  0  0  0  0  0
    1.0115   -1.2408   -0.5765 C   0  0  0  0  0  0  0  0  0  0  0  0
   -0.4379   -1.4128   -0.6808 C   0  0  0  0  0  0  0  0  0  0  0  0
   -1.2830   -0.4576   -0.0120 C   0  0  0  0  0  0  0  0  0  0  0  0
   -0.7776    0.5706    0.7103 C   0  0  0  0  0  0  0  0  0  0  0  0
   -1.7647    1.5091    1.4035 C   0  0  0  0  0  0  0  0  0  0  0  0
    0.6948    0.6045    0.7904 C   0  0  0  0  0  0  0  0  0  0  0  0
    1.1805   -0.7651    0.9121 O   0  0  0  0  0  0  0  0  0  0  0  0
    3.2055    1.0480   -2.6750 H   0  0  0  0  0  0  0  0  0  0  0  0
    1.4680   -2.3453   -0.2807 H   0  0  0  0  0  0  0  0  0  0  0  0
   -0.5757   -2.3594    0.1082 H   0  0  0  0  0  0  0  0  0  0  0  0
   -0.8878   -1.7963   -1.5591 H   0  0  0  0  0  0  0  0  0  0  0  0
   -2.3868   -0.5707   -0.0324 H   0  0  0  0  0  0  0  0  0  0  0  0
   -2.3775    0.9185    2.1597 H   0  0  0  0  0  0  0  0  0  0  0  0
   -1.0691    2.1709    1.9901 H   0  0  0  0  0  0  0  0  0  0  0  0
   -2.3917    2.0688    0.7376 H   0  0  0  0  0  0  0  0  0  0  0  0
    1.0105    1.1986    1.6916 H   0  0  0  0  0  0  0  0  0  0  0  0
    1.1527    1.0231   -0.0990 H   0  0  0  0  0  0  0  0  0  0  0  0
  1  2  3  0
  2  3  1  0
  3  4  1  0
  4  5  1  0
  5  6  2  0
  6  7  1  0
  6  8  1  0
  8  9  1  0
  9  3  1  0
  1 10  1  0
  3 11  1  0
  4 12  1  0
  4 13  1  0
  5 14  1  0
  7 15  1  0
  7 16  1  0
  7 17  1  0
  8 18  1  0
  8 19  1  0
M  END
