
     RDKit          3D

  8  7  0  0  0  0  0  0  0  0999 V2000
   -2.4032   -0.0563   -0.1443 C   0  0  0  0  0  0  0  0  0  0  0  0
   -1.1942   -0.3921   -0.0480 C   0  0  0  0  0  0  0  0  0  0  0  0
    0.2004   -0.7712    0.0872 C   0  0  0  0  0  0  0  0  0  0  0  0
    0.4585   -1.9426    0.3697 O   0  0  0  0  0  0  0  0  0  0  0  0
    1.2475    0.1972   -0.1025 C   0  0  0  0  0  0  0  0  0  0  0  0
    2.1372    1.0087   -0.2767 C   0  0  0  0  0  0  0  0  0  0  0  0
   -3.3634    0.2273   -0.2144 H   0  0  0  0  0  0  0  0  0  0  0  0
    2.9172    1.7291   -0.4481 H   0  0  0  0  0  0  0  0  0  0  0  0
  1  2  3  0
  2  3  1  0
  3  4  2  0
  3  5  1  0
  5  6  3  0
  1  7  1  0
  6  8  1  0
M  END
