
     RDKit          3D

 21 21  0  0  0  0  0  0  0  0999 V2000
    0.7898   -3.3374   -0.5500 C   0  0  0  0  0  0  0  0  0  0  0  0
    0.4656   -2.0934   -0.5071 C   0  0  0  0  0  0  0  0  0  0  0  0
    0.1123   -0.8281   -0.4618 C   0  0  0  0  0  0  0  0  0  0  0  0
    0.8475    0.1882    0.0614 C   0  0  0  0  0  0  0  0  0  0  0  0
    2.1787   -0.1368    0.6286 C   0  0  0  0  0  0  0  0  0  0  0  0
    0.2978    1.5719    0.1247 C   0  0  0  0  0  0  0  0  0  0  0  0
   -1.1132    1.5033    0.6981 C   0  0  0  0  0  0  0  0  0  0  0  0
   -1.9270    0.4617   -0.0001 C   0  0  0  0  0  0  0  0  0  0  0  0
   -1.1927   -0.2705   -1.0575 C   0  0  0  0  0  0  0  0  0  0  0  0
    1.0889   -4.4162   -0.5786 H   0  0  0  0  0  0  0  0  0  0  0  0
    2.6467    0.7439    1.1118 H   0  0  0  0  0  0  0  0  0  0  0  0
    2.1573   -1.0028    1.2821 H   0  0  0  0  0  0  0  0  0  0  0  0
    2.8412   -0.4060   -0.2520 H   0  0  0  0  0  0  0  0  0  0  0  0
    0.8794    2.1421    0.9124 H   0  0  0  0  0  0  0  0  0  0  0  0
    0.3868    2.0958   -0.8047 H   0  0  0  0  0  0  0  0  0  0  0  0
   -1.0669    1.2408    1.7895 H   0  0  0  0  0  0  0  0  0  0  0  0
   -1.5718    2.5132    0.6299 H   0  0  0  0  0  0  0  0  0  0  0  0
   -2.3477   -0.2108    0.7691 H   0  0  0  0  0  0  0  0  0  0  0  0
   -2.8098    0.9802   -0.5213 H   0  0  0  0  0  0  0  0  0  0  0  0
   -0.9140    0.4152   -1.8797 H   0  0  0  0  0  0  0  0  0  0  0  0
   -1.7489   -1.1545   -1.3946 H   0  0  0  0  0  0  0  0  0  0  0  0
  1  2  3  0
  2  3  1  0
  3  4  2  0
  4  5  1  0
  4  6  1  0
  6  7  1  0
  7  8  1  0
  8  9  1  0
  9  3  1  0
  1 10  1  0
  5 11  1  0
  5 12  1  0
  5 13  1  0
  6 14  1  0
  6 15  1  0
  7 16  1  0
  7 17  1  0
  8 18  1  0
  8 19  1  0
  9 20  1  0
  9 21  1  0
M  END
