
     RDKit          3D

 19 20  0  0  0  0  0  0  0  0999 V2000
   -2.7450   -1.3532    2.0282 C   0  0  0  0  0  0  0  0  0  0  0  0
   -1.6719   -1.5074    1.4772 C   0  0  0  0  0  0  0  0  0  0  0  0
   -0.3860   -1.7061    0.8231 C   0  0  0  0  0  0  0  0  0  0  0  0
    0.4395   -0.4310    0.9735 C   0  0  0  0  0  0  0  0  0  0  0  0
   -0.2888    0.7149    0.3319 C   0  0  0  0  0  0  0  0  0  0  0  0
    0.4847    0.5576   -0.9341 C   0  0  0  0  0  0  0  0  0  0  0  0
    0.9189    1.7996   -1.6468 C   0  0  0  0  0  0  0  0  0  0  0  0
    1.0168   -0.6196   -1.3550 O   0  0  0  0  0  0  0  0  0  0  0  0
    1.4749   -0.2524   -0.1317 C   0  0  0  0  0  0  0  0  0  0  0  0
   -3.6884   -1.2163    2.5085 H   0  0  0  0  0  0  0  0  0  0  0  0
   -0.5660   -1.9340   -0.2474 H   0  0  0  0  0  0  0  0  0  0  0  0
    0.1411   -2.5879    1.2534 H   0  0  0  0  0  0  0  0  0  0  0  0
    0.8450   -0.2812    1.9704 H   0  0  0  0  0  0  0  0  0  0  0  0
   -1.3713    0.5942    0.1913 H   0  0  0  0  0  0  0  0  0  0  0  0
    0.0064    1.6808    0.8315 H   0  0  0  0  0  0  0  0  0  0  0  0
    0.9110    2.6346   -0.8968 H   0  0  0  0  0  0  0  0  0  0  0  0
    1.8788    1.7288   -2.1593 H   0  0  0  0  0  0  0  0  0  0  0  0
    0.1354    2.0719   -2.3873 H   0  0  0  0  0  0  0  0  0  0  0  0
    2.4647    0.1068    0.0878 H   0  0  0  0  0  0  0  0  0  0  0  0
  1  2  3  0
  2  3  1  0
  3  4  1  0
  4  5  1  0
  5  6  1  0
  6  7  1  0
  6  8  1  0
  8  9  1  0
  9  4  1  0
  9  6  1  0
  1 10  1  0
  3 11  1  0
  3 12  1  0
  4 13  1  0
  5 14  1  0
  5 15  1  0
  7 16  1  0
  7 17  1  0
  7 18  1  0
  9 19  1  0
M  END
