
     RDKit          3D

 19 20  0  0  0  0  0  0  0  0999 V2000
    1.9209   -0.0033   -2.2803 C   0  0  0  0  0  0  0  0  0  0  0  0
    1.3790   -0.0444   -1.2017 C   0  0  0  0  0  0  0  0  0  0  0  0
    0.7016   -0.1022    0.0928 C   0  0  0  0  0  0  0  0  0  0  0  0
    0.6837   -1.4483    0.7503 C   0  0  0  0  0  0  0  0  0  0  0  0
   -0.8309   -1.5008    0.6462 C   0  0  0  0  0  0  0  0  0  0  0  0
   -0.7799   -0.2049   -0.1131 C   0  0  0  0  0  0  0  0  0  0  0  0
   -1.2880    0.9862    0.6910 C   0  0  0  0  0  0  0  0  0  0  0  0
   -0.0501    1.8837    0.5521 C   0  0  0  0  0  0  0  0  0  0  0  0
    0.9461    0.9788    0.9122 O   0  0  0  0  0  0  0  0  0  0  0  0
    2.4178    0.0422   -3.2339 H   0  0  0  0  0  0  0  0  0  0  0  0
    1.0038   -1.3972    1.8122 H   0  0  0  0  0  0  0  0  0  0  0  0
    1.2065   -2.2242    0.1799 H   0  0  0  0  0  0  0  0  0  0  0  0
   -1.2301   -2.3724    0.1116 H   0  0  0  0  0  0  0  0  0  0  0  0
   -1.3412   -1.3723    1.6332 H   0  0  0  0  0  0  0  0  0  0  0  0
   -1.1249   -0.2340   -1.1566 H   0  0  0  0  0  0  0  0  0  0  0  0
   -1.3671    0.6892    1.7448 H   0  0  0  0  0  0  0  0  0  0  0  0
   -2.1810    1.4414    0.2690 H   0  0  0  0  0  0  0  0  0  0  0  0
    0.0337    2.1193   -0.5273 H   0  0  0  0  0  0  0  0  0  0  0  0
   -0.1001    2.7632    1.1878 H   0  0  0  0  0  0  0  0  0  0  0  0
  1  2  3  0
  2  3  1  0
  3  4  1  0
  4  5  1  0
  5  6  1  0
  6  7  1  0
  7  8  1  0
  8  9  1  0
  6  3  1  0
  9  3  1  0
  1 10  1  0
  4 11  1  0
  4 12  1  0
  5 13  1  0
  5 14  1  0
  6 15  1  0
  7 16  1  0
  7 17  1  0
  8 18  1  0
  8 19  1  0
M  END
