
     RDKit          3D

 19 19  0  0  0  0  0  0  0  0999 V2000
    3.0413    0.2647    0.6893 C   0  0  0  0  0  0  0  0  0  0  0  0
    2.1474   -0.1159   -0.0251 C   0  0  0  0  0  0  0  0  0  0  0  0
    1.0510   -0.5625   -0.9178 C   0  0  0  0  0  0  0  0  0  0  0  0
   -0.2195    0.0172   -0.3441 C   0  0  0  0  0  0  0  0  0  0  0  0
   -0.1665    1.5055   -0.2983 C   0  0  0  0  0  0  0  0  0  0  0  0
   -0.5385   -0.6483    0.9809 C   0  0  0  0  0  0  0  0  0  0  0  0
   -2.0005   -0.5230    0.5333 C   0  0  0  0  0  0  0  0  0  0  0  0
   -1.4738   -0.5779   -0.8732 C   0  0  0  0  0  0  0  0  0  0  0  0
   -1.9224   -0.9526   -1.9274 O   0  0  0  0  0  0  0  0  0  0  0  0
    3.8316    0.6010    1.3236 H   0  0  0  0  0  0  0  0  0  0  0  0
    1.2161   -0.2642   -1.9580 H   0  0  0  0  0  0  0  0  0  0  0  0
    0.9914   -1.6520   -0.8494 H   0  0  0  0  0  0  0  0  0  0  0  0
    0.3670    1.8918   -1.1921 H   0  0  0  0  0  0  0  0  0  0  0  0
   -1.2013    1.8996   -0.2103 H   0  0  0  0  0  0  0  0  0  0  0  0
    0.4457    1.8298    0.5830 H   0  0  0  0  0  0  0  0  0  0  0  0
   -0.2929   -0.0824    1.8778 H   0  0  0  0  0  0  0  0  0  0  0  0
   -0.2290   -1.7038    0.9526 H   0  0  0  0  0  0  0  0  0  0  0  0
   -2.6102   -1.3802    0.8355 H   0  0  0  0  0  0  0  0  0  0  0  0
   -2.4368    0.4532    0.8198 H   0  0  0  0  0  0  0  0  0  0  0  0
  1  2  3  0
  2  3  1  0
  3  4  1  0
  4  5  1  0
  4  6  1  0
  6  7  1  0
  7  8  1  0
  8  9  2  0
  8  4  1  0
  1 10  1  0
  3 11  1  0
  3 12  1  0
  5 13  1  0
  5 14  1  0
  5 15  1  0
  6 16  1  0
  6 17  1  0
  7 18  1  0
  7 19  1  0
M  END
