
     RDKit          3D

 21 20  0  0  0  0  0  0  0  0999 V2000
   -2.4562    2.3232   -0.5905 C   0  0  0  0  0  0  0  0  0  0  0  0
   -1.5966    1.2562   -0.2148 C   0  0  0  0  0  0  0  0  0  0  0  0
   -0.9427    0.4227    0.0753 C   0  0  0  0  0  0  0  0  0  0  0  0
    0.3448    1.3411    0.6962 O   0  0  0  0  0  0  0  0  0  0  0  0
   -0.0093    0.1987   -1.3412 C   0  0  0  0  0  0  0  0  0  0  0  0
   -1.0164   -0.2533   -2.2079 O   0  0  0  0  0  0  0  0  0  0  0  0
   -0.6690   -0.6725    0.9222 C   0  0  0  0  0  0  0  0  0  0  0  0
    0.6349   -1.4136    0.6774 C   0  0  0  0  0  0  0  0  0  0  0  0
    1.9107   -0.6738    0.7719 C   0  0  0  0  0  0  0  0  0  0  0  0
   -3.2283    3.2781   -0.9260 H   0  0  0  0  0  0  0  0  0  0  0  0
    0.2535    1.9836   -0.0357 H   0  0  0  0  0  0  0  0  0  0  0  0
    0.3737    1.1418   -1.5674 H   0  0  0  0  0  0  0  0  0  0  0  0
    0.6551   -0.5850   -1.1366 H   0  0  0  0  0  0  0  0  0  0  0  0
   -0.6015   -0.8170   -2.8918 H   0  0  0  0  0  0  0  0  0  0  0  0
   -0.4626   -0.2387    2.0080 H   0  0  0  0  0  0  0  0  0  0  0  0
   -1.4389   -1.4243    0.9687 H   0  0  0  0  0  0  0  0  0  0  0  0
    0.5712   -2.1881   -0.0910 H   0  0  0  0  0  0  0  0  0  0  0  0
    0.6238   -2.0609    1.6798 H   0  0  0  0  0  0  0  0  0  0  0  0
    2.0527    0.2952    0.3468 H   0  0  0  0  0  0  0  0  0  0  0  0
    2.7602   -1.3244    0.3617 H   0  0  0  0  0  0  0  0  0  0  0  0
    2.2408   -0.5891    1.8756 H   0  0  0  0  0  0  0  0  0  0  0  0
  1  2  3  0
  2  3  1  0
  3  4  1  0
  3  5  1  0
  5  6  1  0
  3  7  1  0
  7  8  1  0
  8  9  1  0
  1 10  1  0
  4 11  1  0
  5 12  1  0
  5 13  1  0
  6 14  1  0
  7 15  1  0
  7 16  1  0
  8 17  1  0
  8 18  1  0
  9 19  1  0
  9 20  1  0
  9 21  1  0
M  END
