
     RDKit          3D

 21 21  0  0  0  0  0  0  0  0999 V2000
    2.9583   -2.1563    1.2211 C   0  0  0  0  0  0  0  0  0  0  0  0
    1.8918   -1.9034    0.6729 C   0  0  0  0  0  0  0  0  0  0  0  0
    0.6279   -1.6199    0.0358 C   0  0  0  0  0  0  0  0  0  0  0  0
    0.2714   -0.1810    0.3180 C   0  0  0  0  0  0  0  0  0  0  0  0
    1.2771    0.6240   -0.2029 O   0  0  0  0  0  0  0  0  0  0  0  0
    0.6815    1.7837   -0.6554 C   0  0  0  0  0  0  0  0  0  0  0  0
   -0.6609    1.3962   -1.1846 C   0  0  0  0  0  0  0  0  0  0  0  0
   -0.9780    0.1316   -0.4780 C   0  0  0  0  0  0  0  0  0  0  0  0
   -2.1189    0.2336    0.4993 C   0  0  0  0  0  0  0  0  0  0  0  0
    3.8843   -2.3836    1.6811 H   0  0  0  0  0  0  0  0  0  0  0  0
   -0.2072   -2.2402    0.4142 H   0  0  0  0  0  0  0  0  0  0  0  0
    0.7059   -1.7100   -1.0776 H   0  0  0  0  0  0  0  0  0  0  0  0
    0.1435    0.0218    1.3993 H   0  0  0  0  0  0  0  0  0  0  0  0
    0.6270    2.5813    0.1379 H   0  0  0  0  0  0  0  0  0  0  0  0
    1.3334    2.1683   -1.4900 H   0  0  0  0  0  0  0  0  0  0  0  0
   -0.5380    1.1769   -2.2822 H   0  0  0  0  0  0  0  0  0  0  0  0
   -1.4268    2.1855   -1.0873 H   0  0  0  0  0  0  0  0  0  0  0  0
   -1.2332   -0.6750   -1.1939 H   0  0  0  0  0  0  0  0  0  0  0  0
   -3.1025    0.3057   -0.0307 H   0  0  0  0  0  0  0  0  0  0  0  0
   -1.9800    1.0083    1.2623 H   0  0  0  0  0  0  0  0  0  0  0  0
   -2.1568   -0.7473    1.0404 H   0  0  0  0  0  0  0  0  0  0  0  0
  1  2  3  0
  2  3  1  0
  3  4  1  0
  4  5  1  0
  5  6  1  0
  6  7  1  0
  7  8  1  0
  8  9  1  0
  8  4  1  0
  1 10  1  0
  3 11  1  0
  3 12  1  0
  4 13  1  0
  6 14  1  0
  6 15  1  0
  7 16  1  0
  7 17  1  0
  8 18  1  0
  9 19  1  0
  9 20  1  0
  9 21  1  0
M  END
