
     RDKit          3D

 17 17  0  0  0  0  0  0  0  0999 V2000
    2.6953   -1.4440    0.4131 C   0  0  0  0  0  0  0  0  0  0  0  0
    1.6995   -0.7716    0.2757 C   0  0  0  0  0  0  0  0  0  0  0  0
    0.5054    0.0637    0.1008 C   0  0  0  0  0  0  0  0  0  0  0  0
    0.6627    1.3836    0.7843 C   0  0  0  0  0  0  0  0  0  0  0  0
    1.5973    1.4942    1.5609 O   0  0  0  0  0  0  0  0  0  0  0  0
    0.1564    0.1935   -1.3144 C   0  0  0  0  0  0  0  0  0  0  0  0
   -1.1622    0.2216   -1.4561 C   0  0  0  0  0  0  0  0  0  0  0  0
   -1.8236    0.1090   -0.1021 C   0  0  0  0  0  0  0  0  0  0  0  0
   -0.7207   -0.5904    0.6954 C   0  0  0  0  0  0  0  0  0  0  0  0
    3.5719   -2.0538    0.5337 H   0  0  0  0  0  0  0  0  0  0  0  0
   -0.0349    2.1656    0.5720 H   0  0  0  0  0  0  0  0  0  0  0  0
    0.8466    0.2595   -2.1488 H   0  0  0  0  0  0  0  0  0  0  0  0
   -1.6865    0.3123   -2.4065 H   0  0  0  0  0  0  0  0  0  0  0  0
   -2.0349    1.1032    0.2937 H   0  0  0  0  0  0  0  0  0  0  0  0
   -2.7468   -0.4731   -0.1408 H   0  0  0  0  0  0  0  0  0  0  0  0
   -0.7404   -1.6721    0.5784 H   0  0  0  0  0  0  0  0  0  0  0  0
   -0.7852   -0.3011    1.7605 H   0  0  0  0  0  0  0  0  0  0  0  0
  1  2  3  0
  2  3  1  0
  3  4  1  0
  4  5  2  0
  3  6  1  0
  6  7  2  0
  7  8  1  0
  8  9  1  0
  9  3  1  0
  1 10  1  0
  4 11  1  0
  6 12  1  0
  7 13  1  0
  8 14  1  0
  8 15  1  0
  9 16  1  0
  9 17  1  0
M  END
