
     RDKit          3D

 20 19  0  0  0  0  0  0  0  0999 V2000
    0.2063    1.7414   -2.0289 C   0  0  0  0  0  0  0  0  0  0  0  0
    0.2123    1.3874   -0.8485 C   0  0  0  0  0  0  0  0  0  0  0  0
    0.2043    0.9504    0.5377 C   0  0  0  0  0  0  0  0  0  0  0  0
    1.6424    0.6741    0.9183 C   0  0  0  0  0  0  0  0  0  0  0  0
   -0.7131   -0.1784    0.7910 C   0  0  0  0  0  0  0  0  0  0  0  0
   -2.0155    0.2292    0.4390 O   0  0  0  0  0  0  0  0  0  0  0  0
   -0.4238   -1.4753    0.1387 C   0  0  0  0  0  0  0  0  0  0  0  0
   -0.4103   -1.4100   -1.3678 C   0  0  0  0  0  0  0  0  0  0  0  0
    0.2166    2.0465   -3.0447 H   0  0  0  0  0  0  0  0  0  0  0  0
   -0.1128    1.7888    1.2275 H   0  0  0  0  0  0  0  0  0  0  0  0
    1.7625    0.2679    1.9289 H   0  0  0  0  0  0  0  0  0  0  0  0
    2.1500    1.6757    0.9279 H   0  0  0  0  0  0  0  0  0  0  0  0
    2.1832    0.0797    0.1549 H   0  0  0  0  0  0  0  0  0  0  0  0
   -0.7084   -0.3461    1.9134 H   0  0  0  0  0  0  0  0  0  0  0  0
   -2.2453    1.0066    1.0104 H   0  0  0  0  0  0  0  0  0  0  0  0
   -1.2718   -2.1710    0.4208 H   0  0  0  0  0  0  0  0  0  0  0  0
    0.4856   -1.9833    0.5172 H   0  0  0  0  0  0  0  0  0  0  0  0
    0.6081   -1.0899   -1.6739 H   0  0  0  0  0  0  0  0  0  0  0  0
   -0.5682   -2.4461   -1.8003 H   0  0  0  0  0  0  0  0  0  0  0  0
   -1.2020   -0.7476   -1.7390 H   0  0  0  0  0  0  0  0  0  0  0  0
  1  2  3  0
  2  3  1  0
  3  4  1  0
  3  5  1  0
  5  6  1  0
  5  7  1  0
  7  8  1  0
  1  9  1  0
  3 10  1  0
  4 11  1  0
  4 12  1  0
  4 13  1  0
  5 14  1  0
  6 15  1  0
  7 16  1  0
  7 17  1  0
  8 18  1  0
  8 19  1  0
  8 20  1  0
M  END
