
     RDKit          3D

 19 18  0  0  0  0  0  0  0  0999 V2000
   -0.0337   -3.7283    0.4884 C   0  0  0  0  0  0  0  0  0  0  0  0
    0.0937   -2.7192    0.0923 C   0  0  0  0  0  0  0  0  0  0  0  0
    0.2372   -1.3835   -0.4336 C   0  0  0  0  0  0  0  0  0  0  0  0
   -0.8300   -0.9111   -0.6967 C   0  0  0  0  0  0  0  0  0  0  0  0
   -2.4053   -0.1816   -1.0985 C   0  0  0  0  0  0  0  0  0  0  0  0
    0.3982   -0.2666    0.8653 C   0  0  0  0  0  0  0  0  0  0  0  0
    0.4297    0.9360   -0.1690 C   0  0  0  0  0  0  0  0  0  0  0  0
    0.4179    2.2854    0.4462 C   0  0  0  0  0  0  0  0  0  0  0  0
    1.4701    2.6653    1.1874 O   0  0  0  0  0  0  0  0  0  0  0  0
   -0.1826   -4.8832    0.9189 H   0  0  0  0  0  0  0  0  0  0  0  0
    1.1553   -1.0124   -0.9096 H   0  0  0  0  0  0  0  0  0  0  0  0
   -3.1031    0.1548   -1.2839 H   0  0  0  0  0  0  0  0  0  0  0  0
   -0.5574   -0.2915    1.3389 H   0  0  0  0  0  0  0  0  0  0  0  0
    1.2742   -0.4783    1.3165 H   0  0  0  0  0  0  0  0  0  0  0  0
    1.2834    0.6916   -0.8014 H   0  0  0  0  0  0  0  0  0  0  0  0
   -0.4614    0.8593   -0.8274 H   0  0  0  0  0  0  0  0  0  0  0  0
    0.2600    3.0063   -0.4383 H   0  0  0  0  0  0  0  0  0  0  0  0
   -0.5908    2.4094    1.0008 H   0  0  0  0  0  0  0  0  0  0  0  0
    1.1447    2.8473    2.1282 H   0  0  0  0  0  0  0  0  0  0  0  0
  1  2  3  0
  2  3  1  0
  3  4  1  0
  4  5  3  0
  3  6  1  0
  6  7  1  0
  7  8  1  0
  8  9  1  0
  1 10  1  0
  3 11  1  0
  5 12  1  0
  6 13  1  0
  6 14  1  0
  7 15  1  0
  7 16  1  0
  8 17  1  0
  8 18  1  0
  9 19  1  0
M  END
