
     RDKit          3D

 19 19  0  0  0  0  0  0  0  0999 V2000
   -0.6670    2.7361    0.3926 C   0  0  0  0  0  0  0  0  0  0  0  0
   -1.2536    1.6881    0.3289 C   0  0  0  0  0  0  0  0  0  0  0  0
   -1.9881    0.3989    0.2735 C   0  0  0  0  0  0  0  0  0  0  0  0
   -1.0140   -0.7165    0.4646 C   0  0  0  0  0  0  0  0  0  0  0  0
   -1.7354   -1.9259    0.4078 O   0  0  0  0  0  0  0  0  0  0  0  0
    0.0856   -0.7052   -0.5841 C   0  0  0  0  0  0  0  0  0  0  0  0
    1.0146   -1.8331   -0.3378 O   0  0  0  0  0  0  0  0  0  0  0  0
    1.4352   -0.4553   -0.1494 C   0  0  0  0  0  0  0  0  0  0  0  0
    2.5709   -0.1100   -1.0554 C   0  0  0  0  0  0  0  0  0  0  0  0
   -0.1305    3.6616    0.4489 H   0  0  0  0  0  0  0  0  0  0  0  0
   -2.5057    0.2764   -0.6866 H   0  0  0  0  0  0  0  0  0  0  0  0
   -2.7301    0.3537    1.0837 H   0  0  0  0  0  0  0  0  0  0  0  0
   -0.5403   -0.7042    1.4669 H   0  0  0  0  0  0  0  0  0  0  0  0
   -2.6087   -1.7455    0.8363 H   0  0  0  0  0  0  0  0  0  0  0  0
   -0.2472   -0.6583   -1.6361 H   0  0  0  0  0  0  0  0  0  0  0  0
    1.6002   -0.1711    0.9126 H   0  0  0  0  0  0  0  0  0  0  0  0
    2.6329    0.9881   -1.2707 H   0  0  0  0  0  0  0  0  0  0  0  0
    2.5487   -0.6506   -2.0249 H   0  0  0  0  0  0  0  0  0  0  0  0
    3.5325   -0.4271   -0.5630 H   0  0  0  0  0  0  0  0  0  0  0  0
  1  2  3  0
  2  3  1  0
  3  4  1  0
  4  5  1  0
  4  6  1  0
  6  7  1  0
  7  8  1  0
  8  9  1  0
  8  6  1  0
  1 10  1  0
  3 11  1  0
  3 12  1  0
  4 13  1  0
  5 14  1  0
  6 15  1  0
  8 16  1  0
  9 17  1  0
  9 18  1  0
  9 19  1  0
M  END
