
     RDKit          3D

 16 15  0  0  0  0  0  0  0  0999 V2000
   -2.9342    0.2493    2.2742 C   0  0  0  0  0  0  0  0  0  0  0  0
   -2.5787    0.1104    1.0518 C   0  0  0  0  0  0  0  0  0  0  0  0
   -2.1871   -0.0380   -0.3033 C   0  0  0  0  0  0  0  0  0  0  0  0
   -2.3060    1.1510   -1.0568 O   0  0  0  0  0  0  0  0  0  0  0  0
   -0.5783   -0.2733   -0.2189 C   0  0  0  0  0  0  0  0  0  0  0  0
    0.6827   -0.4498   -0.1323 C   0  0  0  0  0  0  0  0  0  0  0  0
    1.9397   -0.6099   -0.0313 C   0  0  0  0  0  0  0  0  0  0  0  0
    2.8289    0.0837   -1.0438 C   0  0  0  0  0  0  0  0  0  0  0  0
   -3.2522    0.3851    3.3665 H   0  0  0  0  0  0  0  0  0  0  0  0
   -2.5402   -0.9334   -0.7432 H   0  0  0  0  0  0  0  0  0  0  0  0
   -3.0739    1.6648   -0.5992 H   0  0  0  0  0  0  0  0  0  0  0  0
    2.3432   -0.2800    1.0815 H   0  0  0  0  0  0  0  0  0  0  0  0
    2.3335   -1.7628   -0.0053 H   0  0  0  0  0  0  0  0  0  0  0  0
    3.9190   -0.1604   -0.6832 H   0  0  0  0  0  0  0  0  0  0  0  0
    2.6440   -0.2931   -2.0560 H   0  0  0  0  0  0  0  0  0  0  0  0
    2.7596    1.1565   -0.9008 H   0  0  0  0  0  0  0  0  0  0  0  0
  1  2  3  0
  2  3  1  0
  3  4  1  0
  3  5  1  0
  5  6  3  0
  6  7  1  0
  7  8  1  0
  1  9  1  0
  3 10  1  0
  4 11  1  0
  7 12  1  0
  7 13  1  0
  8 14  1  0
  8 15  1  0
  8 16  1  0
M  END
