
     RDKit          3D

 21 20  0  0  0  0  0  0  0  0999 V2000
    2.6858   -0.4194   -1.2893 C   0  0  0  0  0  0  0  0  0  0  0  0
    1.6862   -0.5760   -0.5948 C   0  0  0  0  0  0  0  0  0  0  0  0
    0.5044   -0.7846    0.2416 C   0  0  0  0  0  0  0  0  0  0  0  0
    0.9038   -0.7175    1.6774 C   0  0  0  0  0  0  0  0  0  0  0  0
   -0.6037    0.1597   -0.1456 C   0  0  0  0  0  0  0  0  0  0  0  0
   -1.8403   -0.0253    0.6958 C   0  0  0  0  0  0  0  0  0  0  0  0
   -0.1062    1.5775    0.0192 C   0  0  0  0  0  0  0  0  0  0  0  0
   -0.9689   -0.0483   -1.5357 C   0  0  0  0  0  0  0  0  0  0  0  0
   -1.2658   -0.2417   -2.7233 C   0  0  0  0  0  0  0  0  0  0  0  0
    3.5339   -0.2757   -1.8859 H   0  0  0  0  0  0  0  0  0  0  0  0
    0.1348   -1.8192    0.0341 H   0  0  0  0  0  0  0  0  0  0  0  0
    2.0217   -0.5891    1.7903 H   0  0  0  0  0  0  0  0  0  0  0  0
    0.7000   -1.6906    2.2125 H   0  0  0  0  0  0  0  0  0  0  0  0
    0.4500    0.1131    2.2496 H   0  0  0  0  0  0  0  0  0  0  0  0
   -1.5302    0.1081    1.7523 H   0  0  0  0  0  0  0  0  0  0  0  0
   -2.5270    0.8134    0.4563 H   0  0  0  0  0  0  0  0  0  0  0  0
   -2.3794   -0.9525    0.5216 H   0  0  0  0  0  0  0  0  0  0  0  0
   -0.9402    2.2544    0.3399 H   0  0  0  0  0  0  0  0  0  0  0  0
    0.6844    1.5560    0.8108 H   0  0  0  0  0  0  0  0  0  0  0  0
    0.3930    1.9640   -0.8980 H   0  0  0  0  0  0  0  0  0  0  0  0
   -1.5363   -0.4064   -3.7290 H   0  0  0  0  0  0  0  0  0  0  0  0
  1  2  3  0
  2  3  1  0
  3  4  1  0
  3  5  1  0
  5  6  1  0
  5  7  1  0
  5  8  1  0
  8  9  3  0
  1 10  1  0
  3 11  1  0
  4 12  1  0
  4 13  1  0
  4 14  1  0
  6 15  1  0
  6 16  1  0
  6 17  1  0
  7 18  1  0
  7 19  1  0
  7 20  1  0
  9 21  1  0
M  END
