
     RDKit          3D

 19 19  0  0  0  0  0  0  0  0999 V2000
    2.8374   -0.6324   -1.2177 C   0  0  0  0  0  0  0  0  0  0  0  0
    2.0140   -0.0685   -0.5390 C   0  0  0  0  0  0  0  0  0  0  0  0
    1.0358    0.6169    0.2998 C   0  0  0  0  0  0  0  0  0  0  0  0
    0.9293    0.1471    1.7117 C   0  0  0  0  0  0  0  0  0  0  0  0
   -0.4934   -0.2300    1.4982 C   0  0  0  0  0  0  0  0  0  0  0  0
   -1.3510   -0.7196    2.2223 O   0  0  0  0  0  0  0  0  0  0  0  0
   -0.3854    0.2345    0.0974 C   0  0  0  0  0  0  0  0  0  0  0  0
   -0.6310   -0.9258   -0.8424 C   0  0  0  0  0  0  0  0  0  0  0  0
   -2.1264   -1.1476   -0.9061 C   0  0  0  0  0  0  0  0  0  0  0  0
    3.5703   -1.1489   -1.8104 H   0  0  0  0  0  0  0  0  0  0  0  0
    1.1557    1.7302    0.2789 H   0  0  0  0  0  0  0  0  0  0  0  0
    1.5716   -0.7089    2.0048 H   0  0  0  0  0  0  0  0  0  0  0  0
    0.9547    0.9622    2.4911 H   0  0  0  0  0  0  0  0  0  0  0  0
   -1.0533    1.0784   -0.1648 H   0  0  0  0  0  0  0  0  0  0  0  0
   -0.1425   -1.8491   -0.5167 H   0  0  0  0  0  0  0  0  0  0  0  0
   -0.2798   -0.7106   -1.8676 H   0  0  0  0  0  0  0  0  0  0  0  0
   -2.4757   -1.3419   -1.9404 H   0  0  0  0  0  0  0  0  0  0  0  0
   -2.4346   -2.0078   -0.2614 H   0  0  0  0  0  0  0  0  0  0  0  0
   -2.6958   -0.2674   -0.5378 H   0  0  0  0  0  0  0  0  0  0  0  0
  1  2  3  0
  2  3  1  0
  3  4  1  0
  4  5  1  0
  5  6  2  0
  5  7  1  0
  7  8  1  0
  8  9  1  0
  7  3  1  0
  1 10  1  0
  3 11  1  0
  4 12  1  0
  4 13  1  0
  7 14  1  0
  8 15  1  0
  8 16  1  0
  9 17  1  0
  9 18  1  0
  9 19  1  0
M  END
