
     RDKit          3D

 21 21  0  0  0  0  0  0  0  0999 V2000
    1.8217    2.1851   -0.5887 C   0  0  0  0  0  0  0  0  0  0  0  0
    1.6589    1.1388   -0.0243 C   0  0  0  0  0  0  0  0  0  0  0  0
    1.4503   -0.1016    0.6424 C   0  0  0  0  0  0  0  0  0  0  0  0
    0.3562   -0.9637    0.1627 C   0  0  0  0  0  0  0  0  0  0  0  0
    0.3391   -2.2556    1.0227 C   0  0  0  0  0  0  0  0  0  0  0  0
    0.4069   -1.3048   -1.2307 O   0  0  0  0  0  0  0  0  0  0  0  0
   -0.7981   -0.7346   -0.5937 C   0  0  0  0  0  0  0  0  0  0  0  0
   -1.2736    0.4807   -1.2789 C   0  0  0  0  0  0  0  0  0  0  0  0
   -1.4881    1.5863   -0.2621 C   0  0  0  0  0  0  0  0  0  0  0  0
    1.9765    3.1067   -1.0781 H   0  0  0  0  0  0  0  0  0  0  0  0
    1.3370    0.0579    1.7428 H   0  0  0  0  0  0  0  0  0  0  0  0
    2.4043   -0.7108    0.5705 H   0  0  0  0  0  0  0  0  0  0  0  0
    1.3621   -2.6385    1.0144 H   0  0  0  0  0  0  0  0  0  0  0  0
   -0.3592   -2.9826    0.6047 H   0  0  0  0  0  0  0  0  0  0  0  0
    0.0326   -1.9830    2.0702 H   0  0  0  0  0  0  0  0  0  0  0  0
   -1.6132   -1.5245   -0.5572 H   0  0  0  0  0  0  0  0  0  0  0  0
   -2.2504    0.2859   -1.7647 H   0  0  0  0  0  0  0  0  0  0  0  0
   -0.6201    0.8336   -2.1063 H   0  0  0  0  0  0  0  0  0  0  0  0
   -1.0367    2.5473   -0.5794 H   0  0  0  0  0  0  0  0  0  0  0  0
   -1.1151    1.2639    0.7107 H   0  0  0  0  0  0  0  0  0  0  0  0
   -2.5912    1.7134   -0.1548 H   0  0  0  0  0  0  0  0  0  0  0  0
  1  2  3  0
  2  3  1  0
  3  4  1  0
  4  5  1  0
  4  6  1  0
  6  7  1  0
  7  8  1  0
  8  9  1  0
  7  4  1  0
  1 10  1  0
  3 11  1  0
  3 12  1  0
  5 13  1  0
  5 14  1  0
  5 15  1  0
  7 16  1  0
  8 17  1  0
  8 18  1  0
  9 19  1  0
  9 20  1  0
  9 21  1  0
M  END
