
     RDKit          3D

 19 18  0  0  0  0  0  0  0  0999 V2000
    4.4914    1.0702   -2.1824 C   0  0  0  0  0  0  0  0  0  0  0  0
    3.2692    0.5725   -1.1315 C   0  0  0  0  0  0  0  0  0  0  0  0
    2.1611    0.1350   -0.2065 C   0  0  0  0  0  0  0  0  0  0  0  0
    1.3310   -0.1910    0.4613 C   0  0  0  0  0  0  0  0  0  0  0  0
    0.7991   -0.3906    0.8982 C   0  0  0  0  0  0  0  0  0  0  0  0
   -0.2463   -1.3762   -0.2022 O   0  0  0  0  0  0  0  0  0  0  0  0
   -0.6678    0.0968    1.4687 C   0  0  0  0  0  0  0  0  0  0  0  0
   -1.7907   -0.0593    0.6801 C   0  0  0  0  0  0  0  0  0  0  0  0
   -2.1462    0.1278   -0.7095 C   0  0  0  0  0  0  0  0  0  0  0  0
    5.0870    1.3055   -2.7068 H   0  0  0  0  0  0  0  0  0  0  0  0
    0.5711   -1.5904    1.6314 H   0  0  0  0  0  0  0  0  0  0  0  0
    0.1373   -0.6649   -0.8755 H   0  0  0  0  0  0  0  0  0  0  0  0
   -0.6080   -0.1430    2.5285 H   0  0  0  0  0  0  0  0  0  0  0  0
   -0.3564    1.2767    1.4217 H   0  0  0  0  0  0  0  0  0  0  0  0
   -2.3323   -1.1233    0.9599 H   0  0  0  0  0  0  0  0  0  0  0  0
   -2.6364    0.5921    1.2835 H   0  0  0  0  0  0  0  0  0  0  0  0
   -2.1890   -0.9366   -1.2287 H   0  0  0  0  0  0  0  0  0  0  0  0
   -1.6038    0.8459   -1.3838 H   0  0  0  0  0  0  0  0  0  0  0  0
   -3.2704    0.4529   -0.7502 H   0  0  0  0  0  0  0  0  0  0  0  0
  1  2  3  0
  2  3  1  0
  3  4  3  0
  4  5  1  0
  5  6  1  0
  5  7  1  0
  7  8  1  0
  8  9  1  0
  1 10  1  0
  5 11  1  0
  6 12  1  0
  7 13  1  0
  7 14  1  0
  8 15  1  0
  8 16  1  0
  9 17  1  0
  9 18  1  0
  9 19  1  0
M  END
