
     RDKit          3D

 19 20  0  0  0  0  0  0  0  0999 V2000
    1.5861    1.5652   -3.0747 C   0  0  0  0  0  0  0  0  0  0  0  0
    1.1122    0.5878   -2.5148 C   0  0  0  0  0  0  0  0  0  0  0  0
    0.5640   -0.5966   -1.8472 C   0  0  0  0  0  0  0  0  0  0  0  0
    0.1364   -0.1917   -0.5004 C   0  0  0  0  0  0  0  0  0  0  0  0
    0.1736    0.9881    0.1386 C   0  0  0  0  0  0  0  0  0  0  0  0
   -0.4639    0.6732    1.4444 C   0  0  0  0  0  0  0  0  0  0  0  0
   -1.6389   -0.1969    0.9687 C   0  0  0  0  0  0  0  0  0  0  0  0
   -0.4720   -1.0853    0.5012 C   0  0  0  0  0  0  0  0  0  0  0  0
    0.1627   -0.6641    1.8298 C   0  0  0  0  0  0  0  0  0  0  0  0
    2.0118    2.4035   -3.5636 H   0  0  0  0  0  0  0  0  0  0  0  0
    1.3231   -1.4034   -1.7357 H   0  0  0  0  0  0  0  0  0  0  0  0
   -0.2594   -1.0073   -2.4712 H   0  0  0  0  0  0  0  0  0  0  0  0
    0.5674    1.9402   -0.2020 H   0  0  0  0  0  0  0  0  0  0  0  0
   -0.6323    1.4044    2.1695 H   0  0  0  0  0  0  0  0  0  0  0  0
   -2.1901   -0.6866    1.7733 H   0  0  0  0  0  0  0  0  0  0  0  0
   -2.1972    0.2238    0.1292 H   0  0  0  0  0  0  0  0  0  0  0  0
   -0.6557   -2.0979    0.3175 H   0  0  0  0  0  0  0  0  0  0  0  0
   -0.3772   -1.1682    2.6481 H   0  0  0  0  0  0  0  0  0  0  0  0
    1.2492   -0.6879    1.8568 H   0  0  0  0  0  0  0  0  0  0  0  0
  1  2  3  0
  2  3  1  0
  3  4  1  0
  4  5  2  0
  5  6  1  0
  6  7  1  0
  7  8  1  0
  8  9  1  0
  8  4  1  0
  9  6  1  0
  1 10  1  0
  3 11  1  0
  3 12  1  0
  5 13  1  0
  6 14  1  0
  7 15  1  0
  7 16  1  0
  8 17  1  0
  9 18  1  0
  9 19  1  0
M  END
