
     RDKit          3D

 19 19  0  0  0  0  0  0  0  0999 V2000
    3.0524   -1.6703    1.4595 C   0  0  0  0  0  0  0  0  0  0  0  0
    2.1489   -0.8725    1.4717 C   0  0  0  0  0  0  0  0  0  0  0  0
    1.0704    0.1006    1.5051 C   0  0  0  0  0  0  0  0  0  0  0  0
   -0.0456   -0.2835    0.5358 C   0  0  0  0  0  0  0  0  0  0  0  0
    0.4217   -0.3620   -0.8483 C   0  0  0  0  0  0  0  0  0  0  0  0
   -0.2134    0.2209   -1.8487 C   0  0  0  0  0  0  0  0  0  0  0  0
   -1.4612    0.9993   -1.5946 C   0  0  0  0  0  0  0  0  0  0  0  0
   -2.0340    0.5820   -0.2652 C   0  0  0  0  0  0  0  0  0  0  0  0
   -1.0720    0.6202    0.7354 O   0  0  0  0  0  0  0  0  0  0  0  0
    3.8563   -2.3606    1.4575 H   0  0  0  0  0  0  0  0  0  0  0  0
    0.6090    0.1247    2.5141 H   0  0  0  0  0  0  0  0  0  0  0  0
    1.4219    1.1410    1.3064 H   0  0  0  0  0  0  0  0  0  0  0  0
   -0.3747   -1.3074    0.8529 H   0  0  0  0  0  0  0  0  0  0  0  0
    1.3239   -0.9177   -1.0742 H   0  0  0  0  0  0  0  0  0  0  0  0
    0.1254    0.1687   -2.8811 H   0  0  0  0  0  0  0  0  0  0  0  0
   -1.2735    2.0841   -1.6296 H   0  0  0  0  0  0  0  0  0  0  0  0
   -2.1942    0.7433   -2.3914 H   0  0  0  0  0  0  0  0  0  0  0  0
   -2.5683   -0.3772   -0.3274 H   0  0  0  0  0  0  0  0  0  0  0  0
   -2.7930    1.3664    0.0134 H   0  0  0  0  0  0  0  0  0  0  0  0
  1  2  3  0
  2  3  1  0
  3  4  1  0
  4  5  1  0
  5  6  2  0
  6  7  1  0
  7  8  1  0
  8  9  1  0
  9  4  1  0
  1 10  1  0
  3 11  1  0
  3 12  1  0
  4 13  1  0
  5 14  1  0
  6 15  1  0
  7 16  1  0
  7 17  1  0
  8 18  1  0
  8 19  1  0
M  END
