
     RDKit          3D

 19 20  0  0  0  0  0  0  0  0999 V2000
   -2.7782    1.2846    0.1771 C   0  0  0  0  0  0  0  0  0  0  0  0
   -1.8255    0.5729    0.2884 C   0  0  0  0  0  0  0  0  0  0  0  0
   -0.7698   -0.2172    0.4351 C   0  0  0  0  0  0  0  0  0  0  0  0
   -0.1955   -0.7710    1.6789 C   0  0  0  0  0  0  0  0  0  0  0  0
    0.7070   -1.3036    0.5884 C   0  0  0  0  0  0  0  0  0  0  0  0
   -0.5634   -1.5612   -0.1859 C   0  0  0  0  0  0  0  0  0  0  0  0
    0.6414    0.0918    0.0123 C   0  0  0  0  0  0  0  0  0  0  0  0
    0.8398    0.1921   -1.3495 O   0  0  0  0  0  0  0  0  0  0  0  0
    1.5971    1.3502   -1.5914 C   0  0  0  0  0  0  0  0  0  0  0  0
   -3.6367    1.9397    0.0841 H   0  0  0  0  0  0  0  0  0  0  0  0
    0.3782   -0.0852    2.3300 H   0  0  0  0  0  0  0  0  0  0  0  0
   -0.7911   -1.5417    2.2033 H   0  0  0  0  0  0  0  0  0  0  0  0
    1.5015   -1.8925    0.6834 H   0  0  0  0  0  0  0  0  0  0  0  0
   -1.1808   -2.3879    0.1714 H   0  0  0  0  0  0  0  0  0  0  0  0
   -0.4845   -1.4793   -1.2785 H   0  0  0  0  0  0  0  0  0  0  0  0
    1.0766    0.8778    0.6439 H   0  0  0  0  0  0  0  0  0  0  0  0
    1.7697    1.4546   -2.6677 H   0  0  0  0  0  0  0  0  0  0  0  0
    1.1153    2.2411   -1.1373 H   0  0  0  0  0  0  0  0  0  0  0  0
    2.5990    1.2350   -1.0860 H   0  0  0  0  0  0  0  0  0  0  0  0
  1  2  3  0
  2  3  1  0
  3  4  1  0
  4  5  1  0
  5  6  1  0
  5  7  1  0
  7  8  1  0
  8  9  1  0
  6  3  1  0
  7  3  1  0
  1 10  1  0
  4 11  1  0
  4 12  1  0
  5 13  1  0
  6 14  1  0
  6 15  1  0
  7 16  1  0
  9 17  1  0
  9 18  1  0
  9 19  1  0
M  END
