
     RDKit          3D

 21 21  0  0  0  0  0  0  0  0999 V2000
    3.1241    0.2666   -0.5742 C   0  0  0  0  0  0  0  0  0  0  0  0
    2.0112   -0.0472   -0.9152 C   0  0  0  0  0  0  0  0  0  0  0  0
    0.6619   -0.4085   -1.3360 C   0  0  0  0  0  0  0  0  0  0  0  0
    0.1751   -1.6800   -0.6903 C   0  0  0  0  0  0  0  0  0  0  0  0
   -1.2077   -1.5099   -0.7367 O   0  0  0  0  0  0  0  0  0  0  0  0
   -1.4682   -0.1978   -0.3575 C   0  0  0  0  0  0  0  0  0  0  0  0
   -1.7275   -0.1818    1.1166 C   0  0  0  0  0  0  0  0  0  0  0  0
   -0.3254    0.6073   -0.8158 C   0  0  0  0  0  0  0  0  0  0  0  0
    0.2715    1.5287    0.2066 C   0  0  0  0  0  0  0  0  0  0  0  0
    4.1098    0.5529   -0.2541 H   0  0  0  0  0  0  0  0  0  0  0  0
    0.5860   -0.5352   -2.4499 H   0  0  0  0  0  0  0  0  0  0  0  0
    0.4445   -2.5884   -1.2350 H   0  0  0  0  0  0  0  0  0  0  0  0
    0.5418   -1.7533    0.3646 H   0  0  0  0  0  0  0  0  0  0  0  0
   -2.4371    0.0781   -0.8603 H   0  0  0  0  0  0  0  0  0  0  0  0
   -2.0571    0.8028    1.5020 H   0  0  0  0  0  0  0  0  0  0  0  0
   -0.8933   -0.5903    1.7130 H   0  0  0  0  0  0  0  0  0  0  0  0
   -2.5987   -0.8748    1.2966 H   0  0  0  0  0  0  0  0  0  0  0  0
   -0.6336    1.2325   -1.6808 H   0  0  0  0  0  0  0  0  0  0  0  0
    1.1248    0.9780    0.6796 H   0  0  0  0  0  0  0  0  0  0  0  0
   -0.4344    1.9082    0.9443 H   0  0  0  0  0  0  0  0  0  0  0  0
    0.7321    2.4122   -0.2896 H   0  0  0  0  0  0  0  0  0  0  0  0
  1  2  3  0
  2  3  1  0
  3  4  1  0
  4  5  1  0
  5  6  1  0
  6  7  1  0
  6  8  1  0
  8  9  1  0
  8  3  1  0
  1 10  1  0
  3 11  1  0
  4 12  1  0
  4 13  1  0
  6 14  1  0
  7 15  1  0
  7 16  1  0
  7 17  1  0
  8 18  1  0
  9 19  1  0
  9 20  1  0
  9 21  1  0
M  END
