
     RDKit          3D

 18 18  0  0  0  0  0  0  0  0999 V2000
    0.4258    0.4969    3.1177 C   0  0  0  0  0  0  0  0  0  0  0  0
    0.0981    0.6082    1.8922 C   0  0  0  0  0  0  0  0  0  0  0  0
   -0.2694    0.7133    0.5605 C   0  0  0  0  0  0  0  0  0  0  0  0
    1.0870    0.3652   -0.2153 C   0  0  0  0  0  0  0  0  0  0  0  0
    0.7695    0.2777   -1.6458 C   0  0  0  0  0  0  0  0  0  0  0  0
   -0.0802   -0.8011   -1.9048 O   0  0  0  0  0  0  0  0  0  0  0  0
   -0.7458   -1.2674   -0.8425 C   0  0  0  0  0  0  0  0  0  0  0  0
   -1.3077   -0.1248    0.0141 C   0  0  0  0  0  0  0  0  0  0  0  0
    0.7222    0.3775    4.2144 H   0  0  0  0  0  0  0  0  0  0  0  0
   -0.3409    1.8260    0.3186 H   0  0  0  0  0  0  0  0  0  0  0  0
    1.8778    0.9881    0.1296 H   0  0  0  0  0  0  0  0  0  0  0  0
    1.1999   -0.7183    0.1440 H   0  0  0  0  0  0  0  0  0  0  0  0
    1.7723   -0.0594   -2.1758 H   0  0  0  0  0  0  0  0  0  0  0  0
    0.5380    1.1876   -2.2024 H   0  0  0  0  0  0  0  0  0  0  0  0
   -0.1630   -1.9928   -0.2622 H   0  0  0  0  0  0  0  0  0  0  0  0
   -1.6734   -1.8188   -1.1969 H   0  0  0  0  0  0  0  0  0  0  0  0
   -1.9738   -0.5667    0.7423 H   0  0  0  0  0  0  0  0  0  0  0  0
   -1.9364    0.5088   -0.6877 H   0  0  0  0  0  0  0  0  0  0  0  0
  1  2  3  0
  2  3  1  0
  3  4  1  0
  4  5  1  0
  5  6  1  0
  6  7  1  0
  7  8  1  0
  8  3  1  0
  1  9  1  0
  3 10  1  0
  4 11  1  0
  4 12  1  0
  5 13  1  0
  5 14  1  0
  7 15  1  0
  7 16  1  0
  8 17  1  0
  8 18  1  0
M  END
