
     RDKit          3D

 19 19  0  0  0  0  0  0  0  0999 V2000
    3.4949    1.7871   -0.0757 C   0  0  0  0  0  0  0  0  0  0  0  0
    2.3526    0.9738    0.1358 C   0  0  0  0  0  0  0  0  0  0  0  0
    1.2940    0.1967    0.3472 C   0  0  0  0  0  0  0  0  0  0  0  0
    1.1220   -0.8678   -0.5238 O   0  0  0  0  0  0  0  0  0  0  0  0
   -0.1172   -1.3089   -0.8188 C   0  0  0  0  0  0  0  0  0  0  0  0
   -1.2684   -0.6539   -0.1178 C   0  0  0  0  0  0  0  0  0  0  0  0
   -1.7765    0.4286   -1.0488 C   0  0  0  0  0  0  0  0  0  0  0  0
   -0.7926    0.0137    1.1700 C   0  0  0  0  0  0  0  0  0  0  0  0
    0.1962    0.8666    0.7777 O   0  0  0  0  0  0  0  0  0  0  0  0
    4.2622    2.3425   -0.2336 H   0  0  0  0  0  0  0  0  0  0  0  0
    1.5327   -0.4737    1.3595 H   0  0  0  0  0  0  0  0  0  0  0  0
   -0.3297   -1.3351   -1.9416 H   0  0  0  0  0  0  0  0  0  0  0  0
   -0.1690   -2.4230   -0.5235 H   0  0  0  0  0  0  0  0  0  0  0  0
   -2.0748   -1.3589    0.1912 H   0  0  0  0  0  0  0  0  0  0  0  0
   -2.8949    0.4148   -1.0341 H   0  0  0  0  0  0  0  0  0  0  0  0
   -1.3748    0.2682   -2.0865 H   0  0  0  0  0  0  0  0  0  0  0  0
   -1.4333    1.4455   -0.6988 H   0  0  0  0  0  0  0  0  0  0  0  0
   -0.4062   -0.8340    1.8046 H   0  0  0  0  0  0  0  0  0  0  0  0
   -1.6171    0.5176    1.7202 H   0  0  0  0  0  0  0  0  0  0  0  0
  1  2  3  0
  2  3  1  0
  3  4  1  0
  4  5  1  0
  5  6  1  0
  6  7  1  0
  6  8  1  0
  8  9  1  0
  9  3  1  0
  1 10  1  0
  3 11  1  0
  5 12  1  0
  5 13  1  0
  6 14  1  0
  7 15  1  0
  7 16  1  0
  7 17  1  0
  8 18  1  0
  8 19  1  0
M  END
