
     RDKit          3D

 21 21  0  0  0  0  0  0  0  0999 V2000
    1.5301    3.0652    1.5108 C   0  0  0  0  0  0  0  0  0  0  0  0
    0.8883    2.1612    0.9849 C   0  0  0  0  0  0  0  0  0  0  0  0
    0.1182    1.1078    0.3851 C   0  0  0  0  0  0  0  0  0  0  0  0
   -0.4544    0.2596    1.2152 C   0  0  0  0  0  0  0  0  0  0  0  0
   -1.2941   -0.9061    0.8988 C   0  0  0  0  0  0  0  0  0  0  0  0
   -0.5587   -1.9313    0.0821 C   0  0  0  0  0  0  0  0  0  0  0  0
    0.6512   -1.2316   -0.5456 C   0  0  0  0  0  0  0  0  0  0  0  0
    0.1029   -0.3352   -1.6372 C   0  0  0  0  0  0  0  0  0  0  0  0
    0.0412    1.0748   -1.0989 C   0  0  0  0  0  0  0  0  0  0  0  0
    2.0827    3.8498    1.9553 H   0  0  0  0  0  0  0  0  0  0  0  0
   -0.2855    0.4439    2.2659 H   0  0  0  0  0  0  0  0  0  0  0  0
   -2.2285   -0.5894    0.3522 H   0  0  0  0  0  0  0  0  0  0  0  0
   -1.6613   -1.4142    1.8139 H   0  0  0  0  0  0  0  0  0  0  0  0
   -1.2102   -2.3684   -0.6815 H   0  0  0  0  0  0  0  0  0  0  0  0
   -0.1635   -2.7159    0.7437 H   0  0  0  0  0  0  0  0  0  0  0  0
    1.3150   -2.0005   -1.0191 H   0  0  0  0  0  0  0  0  0  0  0  0
    1.1794   -0.6249    0.1873 H   0  0  0  0  0  0  0  0  0  0  0  0
   -0.9292   -0.6557   -1.9404 H   0  0  0  0  0  0  0  0  0  0  0  0
    0.7443   -0.4226   -2.5241 H   0  0  0  0  0  0  0  0  0  0  0  0
    0.9555    1.5921   -1.4684 H   0  0  0  0  0  0  0  0  0  0  0  0
   -0.8235    1.6414   -1.4802 H   0  0  0  0  0  0  0  0  0  0  0  0
  1  2  3  0
  2  3  1  0
  3  4  2  0
  4  5  1  0
  5  6  1  0
  6  7  1  0
  7  8  1  0
  8  9  1  0
  9  3  1  0
  1 10  1  0
  4 11  1  0
  5 12  1  0
  5 13  1  0
  6 14  1  0
  6 15  1  0
  7 16  1  0
  7 17  1  0
  8 18  1  0
  8 19  1  0
  9 20  1  0
  9 21  1  0
M  END
