
     RDKit          3D

 21 20  0  0  0  0  0  0  0  0999 V2000
    3.7477   -0.9507   -0.2542 C   0  0  0  0  0  0  0  0  0  0  0  0
    2.5476   -0.9318   -0.1774 C   0  0  0  0  0  0  0  0  0  0  0  0
    1.0428   -0.9274   -0.0989 C   0  0  0  0  0  0  0  0  0  0  0  0
    0.6405    0.4747   -0.3939 C   0  0  0  0  0  0  0  0  0  0  0  0
    1.2180    1.2982    0.5880 O   0  0  0  0  0  0  0  0  0  0  0  0
   -0.7758    0.7884   -0.6308 C   0  0  0  0  0  0  0  0  0  0  0  0
   -1.7119    0.5110    0.4742 C   0  0  0  0  0  0  0  0  0  0  0  0
   -1.8135   -0.9221    0.8982 C   0  0  0  0  0  0  0  0  0  0  0  0
   -1.4008    1.2582    1.6334 O   0  0  0  0  0  0  0  0  0  0  0  0
    4.8039   -0.9503   -0.3144 H   0  0  0  0  0  0  0  0  0  0  0  0
    0.7648   -1.3038    0.9015 H   0  0  0  0  0  0  0  0  0  0  0  0
    0.6690   -1.6162   -0.8994 H   0  0  0  0  0  0  0  0  0  0  0  0
    1.2139    0.7634   -1.3481 H   0  0  0  0  0  0  0  0  0  0  0  0
    1.5235    2.1652    0.2111 H   0  0  0  0  0  0  0  0  0  0  0  0
   -1.1128    0.1873   -1.5307 H   0  0  0  0  0  0  0  0  0  0  0  0
   -0.8110    1.8896   -0.9373 H   0  0  0  0  0  0  0  0  0  0  0  0
   -2.7364    0.9032    0.1520 H   0  0  0  0  0  0  0  0  0  0  0  0
   -1.4293   -1.6234    0.1569 H   0  0  0  0  0  0  0  0  0  0  0  0
   -1.3080   -1.0497    1.8723 H   0  0  0  0  0  0  0  0  0  0  0  0
   -2.8990   -1.1435    1.1377 H   0  0  0  0  0  0  0  0  0  0  0  0
   -2.1731    1.1798    2.2633 H   0  0  0  0  0  0  0  0  0  0  0  0
  1  2  3  0
  2  3  1  0
  3  4  1  0
  4  5  1  0
  4  6  1  0
  6  7  1  0
  7  8  1  0
  7  9  1  0
  1 10  1  0
  3 11  1  0
  3 12  1  0
  4 13  1  0
  5 14  1  0
  6 15  1  0
  6 16  1  0
  7 17  1  0
  8 18  1  0
  8 19  1  0
  8 20  1  0
  9 21  1  0
M  END
