
     RDKit          3D

 23 23  0  0  0  0  0  0  0  0999 V2000
    3.1539   -0.8266    0.4380 C   0  0  0  0  0  0  0  0  0  0  0  0
    2.3253   -0.1532   -0.1277 C   0  0  0  0  0  0  0  0  0  0  0  0
    1.3145    0.6819   -0.8045 C   0  0  0  0  0  0  0  0  0  0  0  0
    0.6278    1.5307    0.2209 C   0  0  0  0  0  0  0  0  0  0  0  0
   -0.1744    0.5748    1.1165 C   0  0  0  0  0  0  0  0  0  0  0  0
   -1.2711    0.0278    0.2037 C   0  0  0  0  0  0  0  0  0  0  0  0
   -2.3802   -0.6032    0.9921 C   0  0  0  0  0  0  0  0  0  0  0  0
   -0.6317   -0.9055   -0.7734 C   0  0  0  0  0  0  0  0  0  0  0  0
    0.3962   -0.1951   -1.5864 C   0  0  0  0  0  0  0  0  0  0  0  0
    3.8761   -1.4355    0.9466 H   0  0  0  0  0  0  0  0  0  0  0  0
    1.8285    1.3655   -1.5401 H   0  0  0  0  0  0  0  0  0  0  0  0
   -0.0403    2.2762   -0.2449 H   0  0  0  0  0  0  0  0  0  0  0  0
    1.3939    2.0130    0.8371 H   0  0  0  0  0  0  0  0  0  0  0  0
   -0.5692    1.0684    2.0022 H   0  0  0  0  0  0  0  0  0  0  0  0
    0.5142   -0.2690    1.3302 H   0  0  0  0  0  0  0  0  0  0  0  0
   -1.6784    0.9073   -0.3588 H   0  0  0  0  0  0  0  0  0  0  0  0
   -1.9243   -1.3250    1.7018 H   0  0  0  0  0  0  0  0  0  0  0  0
   -2.8803    0.2234    1.5686 H   0  0  0  0  0  0  0  0  0  0  0  0
   -3.0915   -1.0492    0.2920 H   0  0  0  0  0  0  0  0  0  0  0  0
   -0.2481   -1.8024   -0.2454 H   0  0  0  0  0  0  0  0  0  0  0  0
   -1.4479   -1.2378   -1.4800 H   0  0  0  0  0  0  0  0  0  0  0  0
   -0.1337    0.4267   -2.3460 H   0  0  0  0  0  0  0  0  0  0  0  0
    1.0407   -0.9328   -2.1424 H   0  0  0  0  0  0  0  0  0  0  0  0
  1  2  3  0
  2  3  1  0
  3  4  1  0
  4  5  1  0
  5  6  1  0
  6  7  1  0
  6  8  1  0
  8  9  1  0
  9  3  1  0
  1 10  1  0
  3 11  1  0
  4 12  1  0
  4 13  1  0
  5 14  1  0
  5 15  1  0
  6 16  1  0
  7 17  1  0
  7 18  1  0
  7 19  1  0
  8 20  1  0
  8 21  1  0
  9 22  1  0
  9 23  1  0
M  END
