
     RDKit          3D

 17 16  0  0  0  0  0  0  0  0999 V2000
    1.9813    2.0939   -0.4959 C   0  0  0  0  0  0  0  0  0  0  0  0
    1.1556    1.2230   -0.2393 C   0  0  0  0  0  0  0  0  0  0  0  0
    0.2046    0.1883    0.0743 C   0  0  0  0  0  0  0  0  0  0  0  0
    0.6104   -0.6586    1.2616 C   0  0  0  0  0  0  0  0  0  0  0  0
   -1.1053    0.8666    0.4229 C   0  0  0  0  0  0  0  0  0  0  0  0
   -0.0110   -0.6852   -1.1378 C   0  0  0  0  0  0  0  0  0  0  0  0
    0.7357   -0.5089   -2.1144 O   0  0  0  0  0  0  0  0  0  0  0  0
   -1.0354   -1.6696   -1.1361 C   0  0  0  0  0  0  0  0  0  0  0  0
   -1.7676   -1.8399   -0.1260 O   0  0  0  0  0  0  0  0  0  0  0  0
    2.7250    2.8868   -0.7098 H   0  0  0  0  0  0  0  0  0  0  0  0
    0.1247   -0.2262    2.1760 H   0  0  0  0  0  0  0  0  0  0  0  0
    0.2141   -1.6684    1.1124 H   0  0  0  0  0  0  0  0  0  0  0  0
    1.7125   -0.6968    1.3815 H   0  0  0  0  0  0  0  0  0  0  0  0
   -1.8497    0.5267   -0.3541 H   0  0  0  0  0  0  0  0  0  0  0  0
   -1.4617    0.5131    1.4088 H   0  0  0  0  0  0  0  0  0  0  0  0
   -1.0015    1.9550    0.4591 H   0  0  0  0  0  0  0  0  0  0  0  0
   -1.2316   -2.2999   -1.9830 H   0  0  0  0  0  0  0  0  0  0  0  0
  1  2  3  0
  2  3  1  0
  3  4  1  0
  3  5  1  0
  3  6  1  0
  6  7  2  0
  6  8  1  0
  8  9  2  0
  1 10  1  0
  4 11  1  0
  4 12  1  0
  4 13  1  0
  5 14  1  0
  5 15  1  0
  5 16  1  0
  8 17  1  0
M  END
