
     RDKit          3D

 21 21  0  0  0  0  0  0  0  0999 V2000
   -2.4306    2.4973   -0.4545 C   0  0  0  0  0  0  0  0  0  0  0  0
   -1.8457    1.4415   -0.4347 C   0  0  0  0  0  0  0  0  0  0  0  0
   -1.1644    0.1618   -0.4187 C   0  0  0  0  0  0  0  0  0  0  0  0
   -1.5721   -0.7094    0.7781 C   0  0  0  0  0  0  0  0  0  0  0  0
   -0.1258   -1.2229    0.7158 C   0  0  0  0  0  0  0  0  0  0  0  0
   -0.0658   -2.2142   -0.2791 O   0  0  0  0  0  0  0  0  0  0  0  0
    0.2189    0.1733    0.1988 C   0  0  0  0  0  0  0  0  0  0  0  0
    1.3539    0.2106   -0.7820 C   0  0  0  0  0  0  0  0  0  0  0  0
    2.6445    0.2173    0.0107 C   0  0  0  0  0  0  0  0  0  0  0  0
   -2.9347    3.4292   -0.4681 H   0  0  0  0  0  0  0  0  0  0  0  0
   -1.1922   -0.4200   -1.3629 H   0  0  0  0  0  0  0  0  0  0  0  0
   -2.3350   -1.4542    0.5654 H   0  0  0  0  0  0  0  0  0  0  0  0
   -1.6907   -0.0748    1.6613 H   0  0  0  0  0  0  0  0  0  0  0  0
    0.3069   -1.4885    1.6781 H   0  0  0  0  0  0  0  0  0  0  0  0
   -0.9378   -2.6967   -0.2796 H   0  0  0  0  0  0  0  0  0  0  0  0
    0.3417    0.8666    1.0251 H   0  0  0  0  0  0  0  0  0  0  0  0
    1.3038    1.2030   -1.3005 H   0  0  0  0  0  0  0  0  0  0  0  0
    1.3313   -0.5825   -1.5292 H   0  0  0  0  0  0  0  0  0  0  0  0
    3.5266    0.0880   -0.6547 H   0  0  0  0  0  0  0  0  0  0  0  0
    2.5634   -0.5928    0.7690 H   0  0  0  0  0  0  0  0  0  0  0  0
    2.7038    1.1674    0.5618 H   0  0  0  0  0  0  0  0  0  0  0  0
  1  2  3  0
  2  3  1  0
  3  4  1  0
  4  5  1  0
  5  6  1  0
  5  7  1  0
  7  8  1  0
  8  9  1  0
  7  3  1  0
  1 10  1  0
  3 11  1  0
  4 12  1  0
  4 13  1  0
  5 14  1  0
  6 15  1  0
  7 16  1  0
  8 17  1  0
  8 18  1  0
  9 19  1  0
  9 20  1  0
  9 21  1  0
M  END
