
     RDKit          3D

 17 18  0  0  0  0  0  0  0  0999 V2000
    3.1595   -0.2950    0.0334 C   0  0  0  0  0  0  0  0  0  0  0  0
    2.2289    0.4095   -0.2728 C   0  0  0  0  0  0  0  0  0  0  0  0
    1.1373    1.2523   -0.6565 C   0  0  0  0  0  0  0  0  0  0  0  0
    1.3214    2.3825   -1.2000 O   0  0  0  0  0  0  0  0  0  0  0  0
   -0.2446    0.8224   -0.4269 C   0  0  0  0  0  0  0  0  0  0  0  0
   -0.6751   -0.4521   -1.1021 C   0  0  0  0  0  0  0  0  0  0  0  0
   -1.1517   -1.0377    0.2003 C   0  0  0  0  0  0  0  0  0  0  0  0
   -1.8430   -0.2016    1.2146 C   0  0  0  0  0  0  0  0  0  0  0  0
   -0.4384    0.1250    0.9002 C   0  0  0  0  0  0  0  0  0  0  0  0
    3.9794   -0.9263    0.2879 H   0  0  0  0  0  0  0  0  0  0  0  0
   -1.0149    1.6110   -0.5487 H   0  0  0  0  0  0  0  0  0  0  0  0
    0.1482   -0.9982   -1.5853 H   0  0  0  0  0  0  0  0  0  0  0  0
   -1.5268   -0.3538   -1.8067 H   0  0  0  0  0  0  0  0  0  0  0  0
   -0.8249   -2.0637    0.4432 H   0  0  0  0  0  0  0  0  0  0  0  0
   -2.6150    0.5118    0.8037 H   0  0  0  0  0  0  0  0  0  0  0  0
   -2.0460   -0.6784    2.1716 H   0  0  0  0  0  0  0  0  0  0  0  0
    0.4056   -0.1078    1.5440 H   0  0  0  0  0  0  0  0  0  0  0  0
  1  2  3  0
  2  3  1  0
  3  4  2  0
  3  5  1  0
  5  6  1  0
  6  7  1  0
  7  8  1  0
  8  9  1  0
  9  5  1  0
  9  7  1  0
  1 10  1  0
  5 11  1  0
  6 12  1  0
  6 13  1  0
  7 14  1  0
  8 15  1  0
  8 16  1  0
  9 17  1  0
M  END
