
     RDKit          3D

 17 18  0  0  0  0  0  0  0  0999 V2000
    2.0300   -1.9084   -0.8849 C   0  0  0  0  0  0  0  0  0  0  0  0
    1.6811   -0.8352   -0.4165 C   0  0  0  0  0  0  0  0  0  0  0  0
    1.2393    0.4431    0.1500 C   0  0  0  0  0  0  0  0  0  0  0  0
    1.3193    1.4963   -0.7925 O   0  0  0  0  0  0  0  0  0  0  0  0
    0.0675    1.0463   -1.2771 C   0  0  0  0  0  0  0  0  0  0  0  0
   -0.2305    0.5762    0.0972 C   0  0  0  0  0  0  0  0  0  0  0  0
   -1.0851   -0.5955    0.3034 C   0  0  0  0  0  0  0  0  0  0  0  0
   -1.5488    0.2678    1.4606 C   0  0  0  0  0  0  0  0  0  0  0  0
   -0.8716    1.3843    0.9675 O   0  0  0  0  0  0  0  0  0  0  0  0
    2.3306   -2.8391   -1.2978 H   0  0  0  0  0  0  0  0  0  0  0  0
    1.7395    0.7445    1.0750 H   0  0  0  0  0  0  0  0  0  0  0  0
   -0.5983    1.8865   -1.5662 H   0  0  0  0  0  0  0  0  0  0  0  0
    0.1470    0.2590   -2.0441 H   0  0  0  0  0  0  0  0  0  0  0  0
   -1.9338   -0.7708   -0.3836 H   0  0  0  0  0  0  0  0  0  0  0  0
   -0.5737   -1.5182    0.6523 H   0  0  0  0  0  0  0  0  0  0  0  0
   -1.0625   -0.0305    2.4266 H   0  0  0  0  0  0  0  0  0  0  0  0
   -2.6497    0.3936    1.5299 H   0  0  0  0  0  0  0  0  0  0  0  0
  1  2  3  0
  2  3  1  0
  3  4  1  0
  4  5  1  0
  5  6  1  0
  6  7  1  0
  7  8  1  0
  8  9  1  0
  6  3  1  0
  9  6  1  0
  1 10  1  0
  3 11  1  0
  5 12  1  0
  5 13  1  0
  7 14  1  0
  7 15  1  0
  8 16  1  0
  8 17  1  0
M  END
