
     RDKit          3D

 19 18  0  0  0  0  0  0  0  0999 V2000
    0.9235   -2.2128    0.8637 C   0  0  0  0  0  0  0  0  0  0  0  0
    1.0355   -1.1264    0.3078 C   0  0  0  0  0  0  0  0  0  0  0  0
    1.1484    0.1831   -0.3512 C   0  0  0  0  0  0  0  0  0  0  0  0
    2.0968    1.0765    0.4190 C   0  0  0  0  0  0  0  0  0  0  0  0
   -0.2300    0.8337   -0.3359 C   0  0  0  0  0  0  0  0  0  0  0  0
   -0.6729    1.0006    0.9726 O   0  0  0  0  0  0  0  0  0  0  0  0
   -1.2102    0.0266   -1.1077 C   0  0  0  0  0  0  0  0  0  0  0  0
   -2.4402   -0.4581   -0.4236 C   0  0  0  0  0  0  0  0  0  0  0  0
   -1.0346   -0.2498   -2.2868 O   0  0  0  0  0  0  0  0  0  0  0  0
    0.8319   -3.1578    1.3275 H   0  0  0  0  0  0  0  0  0  0  0  0
    1.5059    0.0257   -1.3797 H   0  0  0  0  0  0  0  0  0  0  0  0
    2.6463    0.4286    1.1632 H   0  0  0  0  0  0  0  0  0  0  0  0
    1.5101    1.7812    1.0430 H   0  0  0  0  0  0  0  0  0  0  0  0
    2.8182    1.5867   -0.2518 H   0  0  0  0  0  0  0  0  0  0  0  0
   -0.2082    1.8365   -0.8086 H   0  0  0  0  0  0  0  0  0  0  0  0
   -0.5277    0.1653    1.4852 H   0  0  0  0  0  0  0  0  0  0  0  0
   -3.0233    0.4276   -0.1160 H   0  0  0  0  0  0  0  0  0  0  0  0
   -3.0166   -1.1631   -1.0415 H   0  0  0  0  0  0  0  0  0  0  0  0
   -2.1530   -1.0041    0.5207 H   0  0  0  0  0  0  0  0  0  0  0  0
  1  2  3  0
  2  3  1  0
  3  4  1  0
  3  5  1  0
  5  6  1  0
  5  7  1  0
  7  8  1  0
  7  9  2  0
  1 10  1  0
  3 11  1  0
  4 12  1  0
  4 13  1  0
  4 14  1  0
  5 15  1  0
  6 16  1  0
  8 17  1  0
  8 18  1  0
  8 19  1  0
M  END
