
     RDKit          3D

 16 17  0  0  0  0  0  0  0  0999 V2000
    2.7057    1.3602   -0.0130 C   0  0  0  0  0  0  0  0  0  0  0  0
    1.5741    0.9449    0.0949 C   0  0  0  0  0  0  0  0  0  0  0  0
    0.1849    0.4554    0.2095 C   0  0  0  0  0  0  0  0  0  0  0  0
   -0.1411   -0.5385    1.2502 C   0  0  0  0  0  0  0  0  0  0  0  0
   -0.8136   -1.6484    0.5558 C   0  0  0  0  0  0  0  0  0  0  0  0
   -0.9593   -1.3425   -0.7140 C   0  0  0  0  0  0  0  0  0  0  0  0
   -0.4437   -0.0439   -1.1006 C   0  0  0  0  0  0  0  0  0  0  0  0
   -0.8420    1.2447   -0.4943 C   0  0  0  0  0  0  0  0  0  0  0  0
    3.7031    1.7382   -0.0939 H   0  0  0  0  0  0  0  0  0  0  0  0
    0.7340   -0.8716    1.8506 H   0  0  0  0  0  0  0  0  0  0  0  0
   -0.9290   -0.0868    1.9266 H   0  0  0  0  0  0  0  0  0  0  0  0
   -1.1507   -2.6092    1.0365 H   0  0  0  0  0  0  0  0  0  0  0  0
   -1.4436   -2.0287   -1.4445 H   0  0  0  0  0  0  0  0  0  0  0  0
    0.2277   -0.0059   -2.0104 H   0  0  0  0  0  0  0  0  0  0  0  0
   -1.8735    1.2817   -0.0470 H   0  0  0  0  0  0  0  0  0  0  0  0
   -0.5327    2.1505   -1.0065 H   0  0  0  0  0  0  0  0  0  0  0  0
  1  2  3  0
  2  3  1  0
  3  4  1  0
  4  5  1  0
  5  6  2  0
  6  7  1  0
  7  8  1  0
  7  3  1  0
  8  3  1  0
  1  9  1  0
  4 10  1  0
  4 11  1  0
  5 12  1  0
  6 13  1  0
  7 14  1  0
  8 15  1  0
  8 16  1  0
M  END
