
     RDKit          3D

 17 18  0  0  0  0  0  0  0  0999 V2000
    1.4966   -0.7594    2.2674 C   0  0  0  0  0  0  0  0  0  0  0  0
    1.2943   -0.5059    1.1139 C   0  0  0  0  0  0  0  0  0  0  0  0
    1.0737   -0.1917   -0.2823 C   0  0  0  0  0  0  0  0  0  0  0  0
    1.2991    1.2709   -0.6039 C   0  0  0  0  0  0  0  0  0  0  0  0
    0.0996    1.3056   -1.3551 O   0  0  0  0  0  0  0  0  0  0  0  0
   -0.3122    0.2152   -0.6587 C   0  0  0  0  0  0  0  0  0  0  0  0
   -1.2726   -0.7747   -1.0683 C   0  0  0  0  0  0  0  0  0  0  0  0
   -1.4744    0.1109    0.1863 C   0  0  0  0  0  0  0  0  0  0  0  0
   -1.4873   -0.5164    1.4153 O   0  0  0  0  0  0  0  0  0  0  0  0
    1.6871   -0.9766    3.3048 H   0  0  0  0  0  0  0  0  0  0  0  0
    1.5742   -0.8714   -1.0174 H   0  0  0  0  0  0  0  0  0  0  0  0
    1.3168    1.9583    0.2427 H   0  0  0  0  0  0  0  0  0  0  0  0
    2.1590    1.4085   -1.2877 H   0  0  0  0  0  0  0  0  0  0  0  0
   -2.0126   -0.6797   -1.8778 H   0  0  0  0  0  0  0  0  0  0  0  0
   -1.0649   -1.8461   -0.8066 H   0  0  0  0  0  0  0  0  0  0  0  0
   -2.2898    0.8797    0.0453 H   0  0  0  0  0  0  0  0  0  0  0  0
   -2.0866   -0.0272    2.0527 H   0  0  0  0  0  0  0  0  0  0  0  0
  1  2  3  0
  2  3  1  0
  3  4  1  0
  4  5  1  0
  5  6  1  0
  6  7  1  0
  7  8  1  0
  8  9  1  0
  6  3  1  0
  8  6  1  0
  1 10  1  0
  3 11  1  0
  4 12  1  0
  4 13  1  0
  7 14  1  0
  7 15  1  0
  8 16  1  0
  9 17  1  0
M  END
