
     RDKit          3D

 16 16  0  0  0  0  0  0  0  0999 V2000
    3.1248   -1.8020    1.8551 C   0  0  0  0  0  0  0  0  0  0  0  0
    2.1746   -1.4327    1.3051 C   0  0  0  0  0  0  0  0  0  0  0  0
    0.9344   -0.9443    0.5847 C   0  0  0  0  0  0  0  0  0  0  0  0
    1.2809   -0.4001   -0.7913 C   0  0  0  0  0  0  0  0  0  0  0  0
    0.6994    0.5030    0.3410 C   0  0  0  0  0  0  0  0  0  0  0  0
   -0.7316    0.8426    0.0235 C   0  0  0  0  0  0  0  0  0  0  0  0
   -1.7874    1.0760   -0.1997 C   0  0  0  0  0  0  0  0  0  0  0  0
   -3.2950    1.4209   -0.5448 C   0  0  0  0  0  0  0  0  0  0  0  0
    4.0222   -2.1547    2.3564 H   0  0  0  0  0  0  0  0  0  0  0  0
    0.1144   -1.7229    0.5434 H   0  0  0  0  0  0  0  0  0  0  0  0
    0.5711   -0.6882   -1.6076 H   0  0  0  0  0  0  0  0  0  0  0  0
    2.3177   -0.3082   -1.0614 H   0  0  0  0  0  0  0  0  0  0  0  0
    1.3057    1.1510    0.9589 H   0  0  0  0  0  0  0  0  0  0  0  0
   -3.8609    0.5482   -0.2246 H   0  0  0  0  0  0  0  0  0  0  0  0
   -3.5167    2.3868   -0.0848 H   0  0  0  0  0  0  0  0  0  0  0  0
   -3.3535    1.5247   -1.6260 H   0  0  0  0  0  0  0  0  0  0  0  0
  1  2  3  0
  2  3  1  0
  3  4  1  0
  4  5  1  0
  5  6  1  0
  6  7  3  0
  7  8  1  0
  5  3  1  0
  1  9  1  0
  3 10  1  0
  4 11  1  0
  4 12  1  0
  5 13  1  0
  8 14  1  0
  8 15  1  0
  8 16  1  0
M  END
