
     RDKit          3D

 19 20  0  0  0  0  0  0  0  0999 V2000
    3.8037   -0.7073   -0.4009 C   0  0  0  0  0  0  0  0  0  0  0  0
    2.6976   -0.2389   -0.5727 C   0  0  0  0  0  0  0  0  0  0  0  0
    1.3656    0.3201   -0.8039 C   0  0  0  0  0  0  0  0  0  0  0  0
    0.2032   -0.5760   -0.6862 C   0  0  0  0  0  0  0  0  0  0  0  0
   -1.1953   -0.1491   -0.5012 C   0  0  0  0  0  0  0  0  0  0  0  0
   -1.8609   -0.9809    0.6016 C   0  0  0  0  0  0  0  0  0  0  0  0
   -0.7908    1.1792    0.0958 C   0  0  0  0  0  0  0  0  0  0  0  0
   -1.5031    1.5846    1.1942 O   0  0  0  0  0  0  0  0  0  0  0  0
    0.5370    0.4888    0.3942 C   0  0  0  0  0  0  0  0  0  0  0  0
    4.7659   -1.1347   -0.2480 H   0  0  0  0  0  0  0  0  0  0  0  0
    1.3785    1.1880   -1.5108 H   0  0  0  0  0  0  0  0  0  0  0  0
    0.4326   -1.6234   -0.4469 H   0  0  0  0  0  0  0  0  0  0  0  0
   -1.8629   -0.1113   -1.3629 H   0  0  0  0  0  0  0  0  0  0  0  0
   -2.0870   -1.9704    0.1783 H   0  0  0  0  0  0  0  0  0  0  0  0
   -1.0956   -1.1693    1.4104 H   0  0  0  0  0  0  0  0  0  0  0  0
   -2.7123   -0.4631    1.0487 H   0  0  0  0  0  0  0  0  0  0  0  0
   -0.7176    1.9480   -0.6749 H   0  0  0  0  0  0  0  0  0  0  0  0
   -2.0858    2.3613    0.9348 H   0  0  0  0  0  0  0  0  0  0  0  0
    0.7273    0.0545    1.3641 H   0  0  0  0  0  0  0  0  0  0  0  0
  1  2  3  0
  2  3  1  0
  3  4  1  0
  4  5  1  0
  5  6  1  0
  5  7  1  0
  7  8  1  0
  7  9  1  0
  9  3  1  0
  9  4  1  0
  1 10  1  0
  3 11  1  0
  4 12  1  0
  5 13  1  0
  6 14  1  0
  6 15  1  0
  6 16  1  0
  7 17  1  0
  8 18  1  0
  9 19  1  0
M  END
