
     RDKit          3D

 21 20  0  0  0  0  0  0  0  0999 V2000
    0.2372   -3.1145   -1.3554 C   0  0  0  0  0  0  0  0  0  0  0  0
    0.3028   -1.8462   -1.5151 C   0  0  0  0  0  0  0  0  0  0  0  0
    0.3930   -0.5025   -1.6788 C   0  0  0  0  0  0  0  0  0  0  0  0
    0.5230    0.0662   -0.1223 C   0  0  0  0  0  0  0  0  0  0  0  0
    0.6788    1.3187   -0.0692 O   0  0  0  0  0  0  0  0  0  0  0  0
    0.8353    2.5368   -0.0132 C   0  0  0  0  0  0  0  0  0  0  0  0
   -0.9216   -0.2805    0.5041 C   0  0  0  0  0  0  0  0  0  0  0  0
   -0.6963    0.1740    1.9589 C   0  0  0  0  0  0  0  0  0  0  0  0
   -1.0583   -1.6243    0.4326 O   0  0  0  0  0  0  0  0  0  0  0  0
    0.1633   -4.3127   -1.1869 H   0  0  0  0  0  0  0  0  0  0  0  0
   -0.2494    0.1476   -2.1005 H   0  0  0  0  0  0  0  0  0  0  0  0
    1.5033   -0.2684   -2.0353 H   0  0  0  0  0  0  0  0  0  0  0  0
    1.1355   -0.6549    0.3828 H   0  0  0  0  0  0  0  0  0  0  0  0
    1.8553    3.0059   -0.2695 H   0  0  0  0  0  0  0  0  0  0  0  0
    0.6071    3.1164    0.9474 H   0  0  0  0  0  0  0  0  0  0  0  0
    0.1741    3.0820   -0.8549 H   0  0  0  0  0  0  0  0  0  0  0  0
   -1.6435    0.3302   -0.0148 H   0  0  0  0  0  0  0  0  0  0  0  0
   -1.4885    0.8958    2.3105 H   0  0  0  0  0  0  0  0  0  0  0  0
   -0.7590   -0.7435    2.5926 H   0  0  0  0  0  0  0  0  0  0  0  0
    0.2982    0.6039    2.0885 H   0  0  0  0  0  0  0  0  0  0  0  0
   -1.8901   -1.9298   -0.0015 H   0  0  0  0  0  0  0  0  0  0  0  0
  1  2  3  0
  2  3  1  0
  3  4  1  0
  4  5  1  0
  5  6  1  0
  4  7  1  0
  7  8  1  0
  7  9  1  0
  1 10  1  0
  3 11  1  0
  3 12  1  0
  4 13  1  0
  6 14  1  0
  6 15  1  0
  6 16  1  0
  7 17  1  0
  8 18  1  0
  8 19  1  0
  8 20  1  0
  9 21  1  0
M  END
