
     RDKit          3D

 19 19  0  0  0  0  0  0  0  0999 V2000
   -1.0577    3.2492    1.0522 C   0  0  0  0  0  0  0  0  0  0  0  0
   -0.3799    2.2329    0.9364 C   0  0  0  0  0  0  0  0  0  0  0  0
    0.4183    1.0106    0.7820 C   0  0  0  0  0  0  0  0  0  0  0  0
    1.6498    1.3378    0.1882 O   0  0  0  0  0  0  0  0  0  0  0  0
    1.9678    0.2978   -0.6790 C   0  0  0  0  0  0  0  0  0  0  0  0
    0.7550   -0.1319   -1.2241 O   0  0  0  0  0  0  0  0  0  0  0  0
   -0.1813    0.0750   -0.2158 C   0  0  0  0  0  0  0  0  0  0  0  0
   -0.4856   -1.2890    0.3690 C   0  0  0  0  0  0  0  0  0  0  0  0
   -1.0869   -2.1278   -0.7442 C   0  0  0  0  0  0  0  0  0  0  0  0
   -1.6298    4.1325    1.1401 H   0  0  0  0  0  0  0  0  0  0  0  0
    0.5947    0.5267    1.7591 H   0  0  0  0  0  0  0  0  0  0  0  0
    2.4126   -0.5625   -0.1602 H   0  0  0  0  0  0  0  0  0  0  0  0
    2.6111    0.6672   -1.5084 H   0  0  0  0  0  0  0  0  0  0  0  0
   -1.1365    0.4919   -0.5880 H   0  0  0  0  0  0  0  0  0  0  0  0
    0.4404   -1.7681    0.7692 H   0  0  0  0  0  0  0  0  0  0  0  0
   -1.2315   -1.2261    1.1885 H   0  0  0  0  0  0  0  0  0  0  0  0
   -0.2513   -2.5604   -1.3308 H   0  0  0  0  0  0  0  0  0  0  0  0
   -1.6475   -1.4364   -1.4029 H   0  0  0  0  0  0  0  0  0  0  0  0
   -1.7617   -2.9192   -0.3314 H   0  0  0  0  0  0  0  0  0  0  0  0
  1  2  3  0
  2  3  1  0
  3  4  1  0
  4  5  1  0
  5  6  1  0
  6  7  1  0
  7  8  1  0
  8  9  1  0
  7  3  1  0
  1 10  1  0
  3 11  1  0
  5 12  1  0
  5 13  1  0
  7 14  1  0
  8 15  1  0
  8 16  1  0
  9 17  1  0
  9 18  1  0
  9 19  1  0
M  END
