
     RDKit          3D

 17 17  0  0  0  0  0  0  0  0999 V2000
    2.3641    2.5049    0.6137 C   0  0  0  0  0  0  0  0  0  0  0  0
    1.6046    1.9176   -0.1188 C   0  0  0  0  0  0  0  0  0  0  0  0
    0.7035    1.1949   -1.0188 C   0  0  0  0  0  0  0  0  0  0  0  0
    0.0276    0.0617   -0.3241 C   0  0  0  0  0  0  0  0  0  0  0  0
    0.2076   -0.2641    0.9454 C   0  0  0  0  0  0  0  0  0  0  0  0
   -0.6080   -1.4212    1.2961 C   0  0  0  0  0  0  0  0  0  0  0  0
   -0.4338   -2.1484    2.3088 O   0  0  0  0  0  0  0  0  0  0  0  0
   -1.6404   -1.5312    0.2281 C   0  0  0  0  0  0  0  0  0  0  0  0
   -0.9430   -0.8698   -0.9388 C   0  0  0  0  0  0  0  0  0  0  0  0
    3.0350    3.0345    1.2451 H   0  0  0  0  0  0  0  0  0  0  0  0
    1.2825    0.8343   -1.9088 H   0  0  0  0  0  0  0  0  0  0  0  0
   -0.0172    1.9324   -1.4119 H   0  0  0  0  0  0  0  0  0  0  0  0
    0.8786    0.2712    1.6225 H   0  0  0  0  0  0  0  0  0  0  0  0
   -2.5566   -0.9703    0.4901 H   0  0  0  0  0  0  0  0  0  0  0  0
   -1.8087   -2.5994    0.0371 H   0  0  0  0  0  0  0  0  0  0  0  0
   -1.7267   -0.3479   -1.5263 H   0  0  0  0  0  0  0  0  0  0  0  0
   -0.3691   -1.5991   -1.5393 H   0  0  0  0  0  0  0  0  0  0  0  0
  1  2  3  0
  2  3  1  0
  3  4  1  0
  4  5  2  0
  5  6  1  0
  6  7  2  0
  6  8  1  0
  8  9  1  0
  9  4  1  0
  1 10  1  0
  3 11  1  0
  3 12  1  0
  5 13  1  0
  8 14  1  0
  8 15  1  0
  9 16  1  0
  9 17  1  0
M  END
