
     RDKit          3D

 19 19  0  0  0  0  0  0  0  0999 V2000
    2.0079   -1.4117    2.1924 C   0  0  0  0  0  0  0  0  0  0  0  0
    1.3742   -0.5558    1.5363 C   0  0  0  0  0  0  0  0  0  0  0  0
    0.6522    0.4614    0.7602 C   0  0  0  0  0  0  0  0  0  0  0  0
   -0.7400    0.5862    1.1905 C   0  0  0  0  0  0  0  0  0  0  0  0
   -1.7895    0.4084    0.4322 C   0  0  0  0  0  0  0  0  0  0  0  0
   -1.7544    0.0470   -0.9832 C   0  0  0  0  0  0  0  0  0  0  0  0
   -0.3871    0.5216   -1.5164 C   0  0  0  0  0  0  0  0  0  0  0  0
    0.6913   -0.0756   -0.6846 C   0  0  0  0  0  0  0  0  0  0  0  0
    1.9592    0.0139   -1.2364 O   0  0  0  0  0  0  0  0  0  0  0  0
    2.5556   -2.1465    2.7743 H   0  0  0  0  0  0  0  0  0  0  0  0
    1.2677    1.3750    0.8163 H   0  0  0  0  0  0  0  0  0  0  0  0
   -0.9322    0.8569    2.2644 H   0  0  0  0  0  0  0  0  0  0  0  0
   -2.7942    0.5447    0.8800 H   0  0  0  0  0  0  0  0  0  0  0  0
   -2.5664    0.5781   -1.5669 H   0  0  0  0  0  0  0  0  0  0  0  0
   -1.8014   -1.0414   -1.1893 H   0  0  0  0  0  0  0  0  0  0  0  0
   -0.3700    1.6487   -1.5202 H   0  0  0  0  0  0  0  0  0  0  0  0
   -0.3411    0.1928   -2.5700 H   0  0  0  0  0  0  0  0  0  0  0  0
    0.4749   -1.1870   -0.5956 H   0  0  0  0  0  0  0  0  0  0  0  0
    2.4936   -0.8166   -0.9837 H   0  0  0  0  0  0  0  0  0  0  0  0
  1  2  3  0
  2  3  1  0
  3  4  1  0
  4  5  2  0
  5  6  1  0
  6  7  1  0
  7  8  1  0
  8  9  1  0
  8  3  1  0
  1 10  1  0
  3 11  1  0
  4 12  1  0
  5 13  1  0
  6 14  1  0
  6 15  1  0
  7 16  1  0
  7 17  1  0
  8 18  1  0
  9 19  1  0
M  END
