
     RDKit          3D

 19 20  0  0  0  0  0  0  0  0999 V2000
    2.3727   -0.8748    1.2656 C   0  0  0  0  0  0  0  0  0  0  0  0
    1.5354   -1.0700    0.4230 C   0  0  0  0  0  0  0  0  0  0  0  0
    0.5514   -1.3101   -0.6015 C   0  0  0  0  0  0  0  0  0  0  0  0
    0.4671   -0.1468   -1.6588 C   0  0  0  0  0  0  0  0  0  0  0  0
    1.1165    1.0360   -1.3122 O   0  0  0  0  0  0  0  0  0  0  0  0
   -0.6849   -0.6085   -0.8110 C   0  0  0  0  0  0  0  0  0  0  0  0
   -1.4606    0.2772    0.0604 C   0  0  0  0  0  0  0  0  0  0  0  0
   -0.9770    1.4926    0.7054 C   0  0  0  0  0  0  0  0  0  0  0  0
   -1.1428    0.2523    1.5533 C   0  0  0  0  0  0  0  0  0  0  0  0
    3.0991   -0.7075    2.0215 H   0  0  0  0  0  0  0  0  0  0  0  0
    0.6900   -2.3293   -1.0963 H   0  0  0  0  0  0  0  0  0  0  0  0
    0.5853   -0.4598   -2.7084 H   0  0  0  0  0  0  0  0  0  0  0  0
    1.7751    1.2640   -1.9990 H   0  0  0  0  0  0  0  0  0  0  0  0
   -1.4171   -1.2093   -1.4873 H   0  0  0  0  0  0  0  0  0  0  0  0
   -2.5783    0.2931   -0.1561 H   0  0  0  0  0  0  0  0  0  0  0  0
    0.0586    1.8564    0.6589 H   0  0  0  0  0  0  0  0  0  0  0  0
   -1.7087    2.2870    0.9433 H   0  0  0  0  0  0  0  0  0  0  0  0
   -0.2704   -0.2506    1.9445 H   0  0  0  0  0  0  0  0  0  0  0  0
   -2.0114    0.2080    2.2548 H   0  0  0  0  0  0  0  0  0  0  0  0
  1  2  3  0
  2  3  1  0
  3  4  1  0
  4  5  1  0
  4  6  1  0
  6  7  1  0
  7  8  1  0
  8  9  1  0
  6  3  1  0
  9  7  1  0
  1 10  1  0
  3 11  1  0
  4 12  1  0
  5 13  1  0
  6 14  1  0
  7 15  1  0
  8 16  1  0
  8 17  1  0
  9 18  1  0
  9 19  1  0
M  END
