
     RDKit          3D

 19 20  0  0  0  0  0  0  0  0999 V2000
   -0.5035    1.3422    2.5539 C   0  0  0  0  0  0  0  0  0  0  0  0
   -0.2897    0.8480    1.5133 C   0  0  0  0  0  0  0  0  0  0  0  0
   -0.0051    0.1992    0.2005 C   0  0  0  0  0  0  0  0  0  0  0  0
    1.2517    0.7244   -0.3825 C   0  0  0  0  0  0  0  0  0  0  0  0
    1.8406    0.3223   -1.6193 C   0  0  0  0  0  0  0  0  0  0  0  0
    2.2996   -0.3245   -0.3925 O   0  0  0  0  0  0  0  0  0  0  0  0
   -0.1689   -1.2829    0.2933 C   0  0  0  0  0  0  0  0  0  0  0  0
   -1.5111   -1.1323   -0.4117 C   0  0  0  0  0  0  0  0  0  0  0  0
   -1.1836    0.3063   -0.7472 C   0  0  0  0  0  0  0  0  0  0  0  0
   -0.7034    1.7883    3.5378 H   0  0  0  0  0  0  0  0  0  0  0  0
    1.6142    1.6766    0.0777 H   0  0  0  0  0  0  0  0  0  0  0  0
    1.3007   -0.3439   -2.3206 H   0  0  0  0  0  0  0  0  0  0  0  0
    2.6334    0.9455   -2.0600 H   0  0  0  0  0  0  0  0  0  0  0  0
   -0.2851   -1.6932    1.3225 H   0  0  0  0  0  0  0  0  0  0  0  0
    0.5220   -1.8743   -0.3661 H   0  0  0  0  0  0  0  0  0  0  0  0
   -2.3889   -1.2671    0.2459 H   0  0  0  0  0  0  0  0  0  0  0  0
   -1.6155   -1.7059   -1.3548 H   0  0  0  0  0  0  0  0  0  0  0  0
   -1.9349    1.0019   -0.3642 H   0  0  0  0  0  0  0  0  0  0  0  0
   -0.8725    0.4693   -1.8061 H   0  0  0  0  0  0  0  0  0  0  0  0
  1  2  3  0
  2  3  1  0
  3  4  1  0
  4  5  1  0
  5  6  1  0
  3  7  1  0
  7  8  1  0
  8  9  1  0
  9  3  1  0
  6  4  1  0
  1 10  1  0
  4 11  1  0
  5 12  1  0
  5 13  1  0
  7 14  1  0
  7 15  1  0
  8 16  1  0
  8 17  1  0
  9 18  1  0
  9 19  1  0
M  END
