
     RDKit          3D

 17 18  0  0  0  0  0  0  0  0999 V2000
    2.9777   -0.4584   -0.6184 C   0  0  0  0  0  0  0  0  0  0  0  0
    1.8207   -0.2668   -0.3624 C   0  0  0  0  0  0  0  0  0  0  0  0
    0.4833   -0.0271   -0.0649 C   0  0  0  0  0  0  0  0  0  0  0  0
    0.0925    0.8842    1.0715 C   0  0  0  0  0  0  0  0  0  0  0  0
   -1.3861    0.7594    0.9099 C   0  0  0  0  0  0  0  0  0  0  0  0
   -2.2345    1.3162    1.5396 O   0  0  0  0  0  0  0  0  0  0  0  0
   -1.5259   -0.1891   -0.1824 C   0  0  0  0  0  0  0  0  0  0  0  0
   -0.4842    0.3427   -1.1849 C   0  0  0  0  0  0  0  0  0  0  0  0
   -0.4531   -1.2127    0.1666 C   0  0  0  0  0  0  0  0  0  0  0  0
    4.0109   -0.6467   -0.8554 H   0  0  0  0  0  0  0  0  0  0  0  0
    0.4455    0.5048    2.0494 H   0  0  0  0  0  0  0  0  0  0  0  0
    0.3538    1.9409    0.8857 H   0  0  0  0  0  0  0  0  0  0  0  0
   -2.4504   -0.5167   -0.5580 H   0  0  0  0  0  0  0  0  0  0  0  0
   -0.5642    1.4105   -1.3967 H   0  0  0  0  0  0  0  0  0  0  0  0
   -0.3410   -0.3476   -2.0209 H   0  0  0  0  0  0  0  0  0  0  0  0
   -0.2973   -1.9893   -0.5941 H   0  0  0  0  0  0  0  0  0  0  0  0
   -0.4479   -1.5042    1.2154 H   0  0  0  0  0  0  0  0  0  0  0  0
  1  2  3  0
  2  3  1  0
  3  4  1  0
  4  5  1  0
  5  6  2  0
  5  7  1  0
  7  8  1  0
  7  9  1  0
  8  3  1  0
  9  3  1  0
  1 10  1  0
  4 11  1  0
  4 12  1  0
  7 13  1  0
  8 14  1  0
  8 15  1  0
  9 16  1  0
  9 17  1  0
M  END
