
     RDKit          3D

 17 17  0  0  0  0  0  0  0  0999 V2000
    4.0520    2.0204    2.2667 C   0  0  0  0  0  0  0  0  0  0  0  0
    2.9863    1.8207    1.6809 C   0  0  0  0  0  0  0  0  0  0  0  0
    1.7870    1.5766    1.0079 C   0  0  0  0  0  0  0  0  0  0  0  0
    0.8145    1.3868    0.4838 C   0  0  0  0  0  0  0  0  0  0  0  0
   -0.5030    1.1563   -0.2205 C   0  0  0  0  0  0  0  0  0  0  0  0
   -1.6983    0.9396    0.3061 O   0  0  0  0  0  0  0  0  0  0  0  0
   -0.9912   -0.2310    0.0445 C   0  0  0  0  0  0  0  0  0  0  0  0
   -1.2280   -1.0409   -1.1746 C   0  0  0  0  0  0  0  0  0  0  0  0
   -1.7293   -2.4358   -0.8792 C   0  0  0  0  0  0  0  0  0  0  0  0
    4.9486    2.1992    2.7699 H   0  0  0  0  0  0  0  0  0  0  0  0
   -0.4309    1.4336   -1.3401 H   0  0  0  0  0  0  0  0  0  0  0  0
   -0.4906   -0.7350    0.9350 H   0  0  0  0  0  0  0  0  0  0  0  0
   -1.7847   -0.6114   -1.9894 H   0  0  0  0  0  0  0  0  0  0  0  0
   -0.1655   -1.2492   -1.5926 H   0  0  0  0  0  0  0  0  0  0  0  0
   -2.8252   -2.4553   -1.1068 H   0  0  0  0  0  0  0  0  0  0  0  0
   -1.2024   -3.2145   -1.4166 H   0  0  0  0  0  0  0  0  0  0  0  0
   -1.5393   -2.6269    0.2251 H   0  0  0  0  0  0  0  0  0  0  0  0
  1  2  3  0
  2  3  1  0
  3  4  3  0
  4  5  1  0
  5  6  1  0
  6  7  1  0
  7  8  1  0
  8  9  1  0
  7  5  1  0
  1 10  1  0
  5 11  1  0
  7 12  1  0
  8 13  1  0
  8 14  1  0
  9 15  1  0
  9 16  1  0
  9 17  1  0
M  END
