
     RDKit          3D

 19 19  0  0  0  0  0  0  0  0999 V2000
    2.4690    0.1870    0.7762 C   0  0  0  0  0  0  0  0  0  0  0  0
    1.2846   -0.3209    0.4863 C   0  0  0  0  0  0  0  0  0  0  0  0
    0.0940   -0.8160    0.2147 C   0  0  0  0  0  0  0  0  0  0  0  0
   -0.2742   -1.8973    1.0874 O   0  0  0  0  0  0  0  0  0  0  0  0
    0.1211   -1.2931   -1.2533 C   0  0  0  0  0  0  0  0  0  0  0  0
   -0.0635    0.0292   -1.9541 C   0  0  0  0  0  0  0  0  0  0  0  0
   -0.6947    0.8476   -1.1587 C   0  0  0  0  0  0  0  0  0  0  0  0
   -1.0063    0.1938    0.1789 C   0  0  0  0  0  0  0  0  0  0  0  0
   -0.8858    1.2641    1.2645 C   0  0  0  0  0  0  0  0  0  0  0  0
    3.5540    0.6487    1.0280 H   0  0  0  0  0  0  0  0  0  0  0  0
    0.2419   -1.8152    1.9644 H   0  0  0  0  0  0  0  0  0  0  0  0
   -0.7145   -1.9302   -1.4267 H   0  0  0  0  0  0  0  0  0  0  0  0
    1.1485   -1.7121   -1.4237 H   0  0  0  0  0  0  0  0  0  0  0  0
    0.2736    0.3103   -2.9719 H   0  0  0  0  0  0  0  0  0  0  0  0
   -0.9885    1.8642   -1.4014 H   0  0  0  0  0  0  0  0  0  0  0  0
   -2.0005   -0.2620    0.1908 H   0  0  0  0  0  0  0  0  0  0  0  0
   -0.2794    0.8936    2.0784 H   0  0  0  0  0  0  0  0  0  0  0  0
   -1.8783    1.6412    1.5230 H   0  0  0  0  0  0  0  0  0  0  0  0
   -0.4012    2.1672    0.7972 H   0  0  0  0  0  0  0  0  0  0  0  0
  1  2  3  0
  2  3  1  0
  3  4  1  0
  3  5  1  0
  5  6  1  0
  6  7  2  0
  7  8  1  0
  8  9  1  0
  8  3  1  0
  1 10  1  0
  4 11  1  0
  5 12  1  0
  5 13  1  0
  6 14  1  0
  7 15  1  0
  8 16  1  0
  9 17  1  0
  9 18  1  0
  9 19  1  0
M  END
