
     RDKit          3D

 17 18  0  0  0  0  0  0  0  0999 V2000
    2.7436    1.5826    1.0310 C   0  0  0  0  0  0  0  0  0  0  0  0
    1.7192    1.4976    0.3983 C   0  0  0  0  0  0  0  0  0  0  0  0
    0.4756    1.4140   -0.3502 C   0  0  0  0  0  0  0  0  0  0  0  0
    0.0128   -0.0184   -0.3929 C   0  0  0  0  0  0  0  0  0  0  0  0
    0.8675   -0.9155   -0.9773 O   0  0  0  0  0  0  0  0  0  0  0  0
   -1.4296   -0.1498   -0.7831 C   0  0  0  0  0  0  0  0  0  0  0  0
   -1.4681   -1.4357   -0.0393 C   0  0  0  0  0  0  0  0  0  0  0  0
   -0.7494   -0.4308    0.8127 C   0  0  0  0  0  0  0  0  0  0  0  0
   -1.7244    0.4745    0.4274 O   0  0  0  0  0  0  0  0  0  0  0  0
    3.6497    1.6449    1.5752 H   0  0  0  0  0  0  0  0  0  0  0  0
    0.6399    1.7278   -1.4092 H   0  0  0  0  0  0  0  0  0  0  0  0
   -0.3234    2.0621    0.0594 H   0  0  0  0  0  0  0  0  0  0  0  0
    1.2239   -1.5090   -0.2599 H   0  0  0  0  0  0  0  0  0  0  0  0
   -1.8365    0.0702   -1.6797 H   0  0  0  0  0  0  0  0  0  0  0  0
   -0.8940   -2.2771   -0.4176 H   0  0  0  0  0  0  0  0  0  0  0  0
   -2.5045   -1.6899    0.2574 H   0  0  0  0  0  0  0  0  0  0  0  0
   -0.4024   -0.5769    1.7478 H   0  0  0  0  0  0  0  0  0  0  0  0
  1  2  3  0
  2  3  1  0
  3  4  1  0
  4  5  1  0
  4  6  1  0
  6  7  1  0
  7  8  1  0
  8  9  1  0
  8  4  1  0
  9  6  1  0
  1 10  1  0
  3 11  1  0
  3 12  1  0
  5 13  1  0
  6 14  1  0
  7 15  1  0
  7 16  1  0
  8 17  1  0
M  END
