
     RDKit          3D

 21 21  0  0  0  0  0  0  0  0999 V2000
    3.5367   -0.8252   -0.0777 C   0  0  0  0  0  0  0  0  0  0  0  0
    2.3290   -0.9966   -0.1614 C   0  0  0  0  0  0  0  0  0  0  0  0
    0.8796   -1.1940   -0.2611 C   0  0  0  0  0  0  0  0  0  0  0  0
    0.3267   -0.5631   -1.5229 C   0  0  0  0  0  0  0  0  0  0  0  0
   -1.0080   -0.3961   -1.1925 O   0  0  0  0  0  0  0  0  0  0  0  0
   -0.9198    0.2909    0.0312 C   0  0  0  0  0  0  0  0  0  0  0  0
   -0.6701    1.7568   -0.1820 C   0  0  0  0  0  0  0  0  0  0  0  0
   -2.2496    0.1024    0.7239 C   0  0  0  0  0  0  0  0  0  0  0  0
    0.2128   -0.3544    0.8013 C   0  0  0  0  0  0  0  0  0  0  0  0
    4.5812   -0.6707    0.0120 H   0  0  0  0  0  0  0  0  0  0  0  0
    0.5939   -2.2503   -0.1522 H   0  0  0  0  0  0  0  0  0  0  0  0
    0.5098   -1.2472   -2.3570 H   0  0  0  0  0  0  0  0  0  0  0  0
    0.8431    0.4199   -1.6420 H   0  0  0  0  0  0  0  0  0  0  0  0
   -1.5920    2.3524    0.0799 H   0  0  0  0  0  0  0  0  0  0  0  0
   -0.4954    1.9487   -1.2601 H   0  0  0  0  0  0  0  0  0  0  0  0
    0.1490    2.1509    0.4357 H   0  0  0  0  0  0  0  0  0  0  0  0
   -2.3677    0.7875    1.5849 H   0  0  0  0  0  0  0  0  0  0  0  0
   -3.1041    0.2388    0.0497 H   0  0  0  0  0  0  0  0  0  0  0  0
   -2.2936   -0.9485    1.1356 H   0  0  0  0  0  0  0  0  0  0  0  0
    0.9071    0.4026    1.2179 H   0  0  0  0  0  0  0  0  0  0  0  0
   -0.1686   -1.0048    1.6144 H   0  0  0  0  0  0  0  0  0  0  0  0
  1  2  3  0
  2  3  1  0
  3  4  1  0
  4  5  1  0
  5  6  1  0
  6  7  1  0
  6  8  1  0
  6  9  1  0
  9  3  1  0
  1 10  1  0
  3 11  1  0
  4 12  1  0
  4 13  1  0
  7 14  1  0
  7 15  1  0
  7 16  1  0
  8 17  1  0
  8 18  1  0
  8 19  1  0
  9 20  1  0
  9 21  1  0
M  END
