
     RDKit          3D

 19 20  0  0  0  0  0  0  0  0999 V2000
    3.2445    0.4497    0.4602 C   0  0  0  0  0  0  0  0  0  0  0  0
    2.1452   -0.0254    0.2617 C   0  0  0  0  0  0  0  0  0  0  0  0
    0.8154   -0.6006    0.0473 C   0  0  0  0  0  0  0  0  0  0  0  0
    0.2727   -1.5878    0.9840 C   0  0  0  0  0  0  0  0  0  0  0  0
   -0.2845   -0.1890    0.9401 C   0  0  0  0  0  0  0  0  0  0  0  0
   -1.6270   -0.0997    0.2252 C   0  0  0  0  0  0  0  0  0  0  0  0
   -1.5552    0.7602   -1.0065 C   0  0  0  0  0  0  0  0  0  0  0  0
   -0.1041    0.7893   -1.4439 C   0  0  0  0  0  0  0  0  0  0  0  0
    0.3818   -0.5082   -1.2746 O   0  0  0  0  0  0  0  0  0  0  0  0
    4.2088    0.8608    0.6187 H   0  0  0  0  0  0  0  0  0  0  0  0
    0.9319   -1.8381    1.8577 H   0  0  0  0  0  0  0  0  0  0  0  0
   -0.3531   -2.4341    0.6319 H   0  0  0  0  0  0  0  0  0  0  0  0
   -0.1241    0.4357    1.8407 H   0  0  0  0  0  0  0  0  0  0  0  0
   -2.3610    0.3424    0.9398 H   0  0  0  0  0  0  0  0  0  0  0  0
   -2.0177   -1.0897   -0.0624 H   0  0  0  0  0  0  0  0  0  0  0  0
   -2.1232    0.3120   -1.8622 H   0  0  0  0  0  0  0  0  0  0  0  0
   -1.9216    1.7922   -0.8340 H   0  0  0  0  0  0  0  0  0  0  0  0
    0.0021    1.1139   -2.4987 H   0  0  0  0  0  0  0  0  0  0  0  0
    0.4693    1.5164   -0.8221 H   0  0  0  0  0  0  0  0  0  0  0  0
  1  2  3  0
  2  3  1  0
  3  4  1  0
  4  5  1  0
  5  6  1  0
  6  7  1  0
  7  8  1  0
  8  9  1  0
  5  3  1  0
  9  3  1  0
  1 10  1  0
  4 11  1  0
  4 12  1  0
  5 13  1  0
  6 14  1  0
  6 15  1  0
  7 16  1  0
  7 17  1  0
  8 18  1  0
  8 19  1  0
M  END
