
     RDKit          3D

 17 16  0  0  0  0  0  0  0  0999 V2000
   -2.1274    1.3594   -0.1734 C   0  0  0  0  0  0  0  0  0  0  0  0
   -1.4113    0.5012    0.2922 C   0  0  0  0  0  0  0  0  0  0  0  0
   -0.5229   -0.5386    0.8399 C   0  0  0  0  0  0  0  0  0  0  0  0
   -0.5683   -1.7067   -0.0890 C   0  0  0  0  0  0  0  0  0  0  0  0
    0.8525    0.0719    0.9616 C   0  0  0  0  0  0  0  0  0  0  0  0
    1.4056    0.5410   -0.3425 C   0  0  0  0  0  0  0  0  0  0  0  0
    0.5481    1.5124   -0.8728 O   0  0  0  0  0  0  0  0  0  0  0  0
   -2.7646    2.1272   -0.5688 H   0  0  0  0  0  0  0  0  0  0  0  0
   -0.9477   -0.8228    1.8144 H   0  0  0  0  0  0  0  0  0  0  0  0
    0.1778   -2.4929    0.1492 H   0  0  0  0  0  0  0  0  0  0  0  0
   -0.4850   -1.3766   -1.1612 H   0  0  0  0  0  0  0  0  0  0  0  0
   -1.5646   -2.1928    0.0318 H   0  0  0  0  0  0  0  0  0  0  0  0
    0.8094    0.9458    1.6430 H   0  0  0  0  0  0  0  0  0  0  0  0
    1.5658   -0.6813    1.3893 H   0  0  0  0  0  0  0  0  0  0  0  0
    1.5504   -0.3018   -1.0469 H   0  0  0  0  0  0  0  0  0  0  0  0
    2.4053    0.9783   -0.1465 H   0  0  0  0  0  0  0  0  0  0  0  0
    1.0769    2.0765   -1.5121 H   0  0  0  0  0  0  0  0  0  0  0  0
  1  2  3  0
  2  3  1  0
  3  4  1  0
  3  5  1  0
  5  6  1  0
  6  7  1  0
  1  8  1  0
  3  9  1  0
  4 10  1  0
  4 11  1  0
  4 12  1  0
  5 13  1  0
  5 14  1  0
  6 15  1  0
  6 16  1  0
  7 17  1  0
M  END
