
     RDKit          3D

 17 19  0  0  0  0  0  0  0  0999 V2000
    2.1980    1.6496   -1.1148 C   0  0  0  0  0  0  0  0  0  0  0  0
    1.4313    0.8656   -0.6443 C   0  0  0  0  0  0  0  0  0  0  0  0
    0.5711    0.0037   -0.1097 C   0  0  0  0  0  0  0  0  0  0  0  0
    0.8540   -1.3953    0.3196 C   0  0  0  0  0  0  0  0  0  0  0  0
   -0.6213   -1.2104    0.5919 C   0  0  0  0  0  0  0  0  0  0  0  0
   -0.2544    0.1552    1.1012 C   0  0  0  0  0  0  0  0  0  0  0  0
   -1.3503    1.0560    0.6583 C   0  0  0  0  0  0  0  0  0  0  0  0
   -1.6348    0.5715   -0.5756 C   0  0  0  0  0  0  0  0  0  0  0  0
   -0.6774   -0.5232   -0.7470 C   0  0  0  0  0  0  0  0  0  0  0  0
    2.8979    2.3633   -1.5335 H   0  0  0  0  0  0  0  0  0  0  0  0
    1.4952   -1.4927    1.2111 H   0  0  0  0  0  0  0  0  0  0  0  0
    1.0226   -2.1395   -0.4569 H   0  0  0  0  0  0  0  0  0  0  0  0
   -1.2605   -1.8694    0.9771 H   0  0  0  0  0  0  0  0  0  0  0  0
    0.1621    0.2689    2.0697 H   0  0  0  0  0  0  0  0  0  0  0  0
   -1.8104    1.8799    1.1665 H   0  0  0  0  0  0  0  0  0  0  0  0
   -2.3906    0.9092   -1.2753 H   0  0  0  0  0  0  0  0  0  0  0  0
   -0.6325   -1.0925   -1.6383 H   0  0  0  0  0  0  0  0  0  0  0  0
  1  2  3  0
  2  3  1  0
  3  4  1  0
  4  5  1  0
  5  6  1  0
  6  7  1  0
  7  8  2  0
  8  9  1  0
  6  3  1  0
  9  3  1  0
  9  5  1  0
  1 10  1  0
  4 11  1  0
  4 12  1  0
  5 13  1  0
  6 14  1  0
  7 15  1  0
  8 16  1  0
  9 17  1  0
M  END
