
     RDKit          3D

 19 20  0  0  0  0  0  0  0  0999 V2000
    2.9616   -0.5601    0.8884 C   0  0  0  0  0  0  0  0  0  0  0  0
    1.9098   -0.0550    0.5877 C   0  0  0  0  0  0  0  0  0  0  0  0
    0.6382    0.5597    0.1976 C   0  0  0  0  0  0  0  0  0  0  0  0
    0.1565    1.2860    1.3925 C   0  0  0  0  0  0  0  0  0  0  0  0
   -1.1503    1.2367    1.3553 C   0  0  0  0  0  0  0  0  0  0  0  0
   -1.5271    0.4692    0.1239 C   0  0  0  0  0  0  0  0  0  0  0  0
   -0.3868   -0.3008   -0.3023 C   0  0  0  0  0  0  0  0  0  0  0  0
    0.3410   -1.0508   -1.2917 C   0  0  0  0  0  0  0  0  0  0  0  0
   -1.0012   -1.1660   -1.2808 C   0  0  0  0  0  0  0  0  0  0  0  0
    3.8957   -1.0046    1.1380 H   0  0  0  0  0  0  0  0  0  0  0  0
    0.8627    1.3674   -0.5647 H   0  0  0  0  0  0  0  0  0  0  0  0
    0.7575    1.7802    2.1756 H   0  0  0  0  0  0  0  0  0  0  0  0
   -1.8402    1.6679    2.0744 H   0  0  0  0  0  0  0  0  0  0  0  0
   -2.4599   -0.0888    0.4427 H   0  0  0  0  0  0  0  0  0  0  0  0
   -1.9048    1.2439   -0.5977 H   0  0  0  0  0  0  0  0  0  0  0  0
    0.9960   -1.8694   -0.8504 H   0  0  0  0  0  0  0  0  0  0  0  0
    0.8935   -0.6199   -2.1829 H   0  0  0  0  0  0  0  0  0  0  0  0
   -1.5991   -0.8409   -2.1895 H   0  0  0  0  0  0  0  0  0  0  0  0
   -1.5432   -2.0547   -0.8252 H   0  0  0  0  0  0  0  0  0  0  0  0
  1  2  3  0
  2  3  1  0
  3  4  1  0
  4  5  2  0
  5  6  1  0
  6  7  1  0
  7  8  1  0
  8  9  1  0
  7  3  1  0
  9  7  1  0
  1 10  1  0
  3 11  1  0
  4 12  1  0
  5 13  1  0
  6 14  1  0
  6 15  1  0
  8 16  1  0
  8 17  1  0
  9 18  1  0
  9 19  1  0
M  END
