
     RDKit          3D

 16 16  0  0  0  0  0  0  0  0999 V2000
   -0.9940    1.9392    1.3958 C   0  0  0  0  0  0  0  0  0  0  0  0
   -0.8805    0.9333    0.7596 C   0  0  0  0  0  0  0  0  0  0  0  0
   -0.7171   -0.2928   -0.0226 C   0  0  0  0  0  0  0  0  0  0  0  0
   -1.9825   -0.9015   -0.5888 C   0  0  0  0  0  0  0  0  0  0  0  0
   -0.0265   -1.3525    0.7623 O   0  0  0  0  0  0  0  0  0  0  0  0
    0.5597   -0.7028   -0.4351 C   0  0  0  0  0  0  0  0  0  0  0  0
    1.8011    0.0389   -0.0020 C   0  0  0  0  0  0  0  0  0  0  0  0
    2.4323    0.6835   -1.0345 O   0  0  0  0  0  0  0  0  0  0  0  0
   -1.0912    2.8314    1.9416 H   0  0  0  0  0  0  0  0  0  0  0  0
   -2.6437   -1.1615    0.2738 H   0  0  0  0  0  0  0  0  0  0  0  0
   -2.4899   -0.2265   -1.2902 H   0  0  0  0  0  0  0  0  0  0  0  0
   -1.6714   -1.8635   -1.0749 H   0  0  0  0  0  0  0  0  0  0  0  0
    0.6927   -1.4572   -1.2357 H   0  0  0  0  0  0  0  0  0  0  0  0
    2.4763   -0.7347    0.4648 H   0  0  0  0  0  0  0  0  0  0  0  0
    1.5979    0.7754    0.7999 H   0  0  0  0  0  0  0  0  0  0  0  0
    2.9367    1.4914   -0.7141 H   0  0  0  0  0  0  0  0  0  0  0  0
  1  2  3  0
  2  3  1  0
  3  4  1  0
  3  5  1  0
  5  6  1  0
  6  7  1  0
  7  8  1  0
  6  3  1  0
  1  9  1  0
  4 10  1  0
  4 11  1  0
  4 12  1  0
  6 13  1  0
  7 14  1  0
  7 15  1  0
  8 16  1  0
M  END
