
     RDKit          3D

 19 19  0  0  0  0  0  0  0  0999 V2000
    1.2378    2.9424   -0.2016 C   0  0  0  0  0  0  0  0  0  0  0  0
    1.2555    1.7361   -0.1810 C   0  0  0  0  0  0  0  0  0  0  0  0
    1.2730    0.2987   -0.1787 C   0  0  0  0  0  0  0  0  0  0  0  0
    0.0127   -0.4156   -0.6264 C   0  0  0  0  0  0  0  0  0  0  0  0
   -1.1665   -0.0627    0.2451 C   0  0  0  0  0  0  0  0  0  0  0  0
   -2.4204   -0.7719   -0.1983 C   0  0  0  0  0  0  0  0  0  0  0  0
   -0.8975   -0.4811    1.5591 O   0  0  0  0  0  0  0  0  0  0  0  0
    2.2750   -0.4607    0.4835 C   0  0  0  0  0  0  0  0  0  0  0  0
    2.4255   -0.2136   -0.9659 O   0  0  0  0  0  0  0  0  0  0  0  0
    1.2033    4.0141   -0.2214 H   0  0  0  0  0  0  0  0  0  0  0  0
    0.1520   -1.5151   -0.5805 H   0  0  0  0  0  0  0  0  0  0  0  0
   -0.1586   -0.1221   -1.6731 H   0  0  0  0  0  0  0  0  0  0  0  0
   -1.3507    1.0187    0.3027 H   0  0  0  0  0  0  0  0  0  0  0  0
   -2.6719   -1.6082    0.4884 H   0  0  0  0  0  0  0  0  0  0  0  0
   -2.3228   -1.1866   -1.2242 H   0  0  0  0  0  0  0  0  0  0  0  0
   -3.2606   -0.0510   -0.1713 H   0  0  0  0  0  0  0  0  0  0  0  0
   -0.8533   -1.4805    1.5158 H   0  0  0  0  0  0  0  0  0  0  0  0
    2.1294   -1.5737    0.5899 H   0  0  0  0  0  0  0  0  0  0  0  0
    3.1380   -0.0673    1.0379 H   0  0  0  0  0  0  0  0  0  0  0  0
  1  2  3  0
  2  3  1  0
  3  4  1  0
  4  5  1  0
  5  6  1  0
  5  7  1  0
  3  8  1  0
  8  9  1  0
  9  3  1  0
  1 10  1  0
  4 11  1  0
  4 12  1  0
  5 13  1  0
  6 14  1  0
  6 15  1  0
  6 16  1  0
  7 17  1  0
  8 18  1  0
  8 19  1  0
M  END
