
     RDKit          3D

 21 21  0  0  0  0  0  0  0  0999 V2000
   -1.3707    2.6549    0.6253 C   0  0  0  0  0  0  0  0  0  0  0  0
   -1.4319    1.4801    0.8732 C   0  0  0  0  0  0  0  0  0  0  0  0
   -1.5062    0.0536    1.1482 C   0  0  0  0  0  0  0  0  0  0  0  0
   -0.4975   -0.6729    0.2873 C   0  0  0  0  0  0  0  0  0  0  0  0
   -0.5108   -2.1665    0.5137 C   0  0  0  0  0  0  0  0  0  0  0  0
    0.9100   -0.1431    0.4439 C   0  0  0  0  0  0  0  0  0  0  0  0
    0.9548   -0.2414   -1.0669 C   0  0  0  0  0  0  0  0  0  0  0  0
    1.5264    0.9921   -1.7115 C   0  0  0  0  0  0  0  0  0  0  0  0
   -0.4521   -0.2745   -1.0415 O   0  0  0  0  0  0  0  0  0  0  0  0
   -1.3264    3.7056    0.4191 H   0  0  0  0  0  0  0  0  0  0  0  0
   -1.2543   -0.1918    2.2031 H   0  0  0  0  0  0  0  0  0  0  0  0
   -2.5245   -0.3347    0.9474 H   0  0  0  0  0  0  0  0  0  0  0  0
    0.0582   -2.4452    1.4448 H   0  0  0  0  0  0  0  0  0  0  0  0
   -0.0340   -2.7063   -0.3183 H   0  0  0  0  0  0  0  0  0  0  0  0
   -1.5755   -2.5185    0.5918 H   0  0  0  0  0  0  0  0  0  0  0  0
    1.6071   -0.7984    0.9882 H   0  0  0  0  0  0  0  0  0  0  0  0
    0.8626    0.9104    0.8046 H   0  0  0  0  0  0  0  0  0  0  0  0
    1.4333   -1.1539   -1.4574 H   0  0  0  0  0  0  0  0  0  0  0  0
    2.6245    0.8282   -1.8018 H   0  0  0  0  0  0  0  0  0  0  0  0
    1.1708    1.1101   -2.7753 H   0  0  0  0  0  0  0  0  0  0  0  0
    1.3362    1.9123   -1.1179 H   0  0  0  0  0  0  0  0  0  0  0  0
  1  2  3  0
  2  3  1  0
  3  4  1  0
  4  5  1  0
  4  6  1  0
  6  7  1  0
  7  8  1  0
  7  9  1  0
  9  4  1  0
  1 10  1  0
  3 11  1  0
  3 12  1  0
  5 13  1  0
  5 14  1  0
  5 15  1  0
  6 16  1  0
  6 17  1  0
  7 18  1  0
  8 19  1  0
  8 20  1  0
  8 21  1  0
M  END
