
     RDKit          3D

 19 20  0  0  0  0  0  0  0  0999 V2000
    2.6401    1.6568   -0.3863 C   0  0  0  0  0  0  0  0  0  0  0  0
    2.1037    0.6215   -0.0767 C   0  0  0  0  0  0  0  0  0  0  0  0
    1.4367   -0.6417    0.3210 C   0  0  0  0  0  0  0  0  0  0  0  0
    2.2663   -1.4965    1.0594 O   0  0  0  0  0  0  0  0  0  0  0  0
    0.5611   -1.2737   -0.6695 C   0  0  0  0  0  0  0  0  0  0  0  0
   -0.0110   -0.6359    0.6109 C   0  0  0  0  0  0  0  0  0  0  0  0
   -0.8686    0.5696    0.3442 C   0  0  0  0  0  0  0  0  0  0  0  0
   -2.2979    0.6076    0.6185 C   0  0  0  0  0  0  0  0  0  0  0  0
   -1.8708    0.3633   -0.7985 C   0  0  0  0  0  0  0  0  0  0  0  0
    3.1222    2.5662   -0.6627 H   0  0  0  0  0  0  0  0  0  0  0  0
    2.2696   -1.2835    2.0078 H   0  0  0  0  0  0  0  0  0  0  0  0
    0.5127   -2.4006   -0.6772 H   0  0  0  0  0  0  0  0  0  0  0  0
    0.2940   -0.8379   -1.6330 H   0  0  0  0  0  0  0  0  0  0  0  0
   -0.4191   -1.3197    1.3691 H   0  0  0  0  0  0  0  0  0  0  0  0
   -0.3080    1.5259    0.3741 H   0  0  0  0  0  0  0  0  0  0  0  0
   -2.7549   -0.1809    1.2237 H   0  0  0  0  0  0  0  0  0  0  0  0
   -2.7603    1.6169    0.7751 H   0  0  0  0  0  0  0  0  0  0  0  0
   -1.9182    1.1963   -1.5265 H   0  0  0  0  0  0  0  0  0  0  0  0
   -1.9975   -0.6538   -1.2038 H   0  0  0  0  0  0  0  0  0  0  0  0
  1  2  3  0
  2  3  1  0
  3  4  1  0
  3  5  1  0
  5  6  1  0
  6  7  1  0
  7  8  1  0
  8  9  1  0
  6  3  1  0
  9  7  1  0
  1 10  1  0
  4 11  1  0
  5 12  1  0
  5 13  1  0
  6 14  1  0
  7 15  1  0
  8 16  1  0
  8 17  1  0
  9 18  1  0
  9 19  1  0
M  END
