
     RDKit          3D

 18 18  0  0  0  0  0  0  0  0999 V2000
    2.2944    1.0063   -2.3414 C   0  0  0  0  0  0  0  0  0  0  0  0
    1.5053    0.3849   -1.6698 C   0  0  0  0  0  0  0  0  0  0  0  0
    0.5356   -0.3595   -0.8749 C   0  0  0  0  0  0  0  0  0  0  0  0
    1.0023   -0.4844    0.5595 C   0  0  0  0  0  0  0  0  0  0  0  0
   -0.2943   -0.8856    1.2352 C   0  0  0  0  0  0  0  0  0  0  0  0
   -1.2360    0.1637    0.6801 C   0  0  0  0  0  0  0  0  0  0  0  0
   -2.5338   -0.3185    0.5606 O   0  0  0  0  0  0  0  0  0  0  0  0
   -0.7246    0.4958   -0.6868 C   0  0  0  0  0  0  0  0  0  0  0  0
    2.9883    1.5424   -2.9474 H   0  0  0  0  0  0  0  0  0  0  0  0
    0.3142   -1.3472   -1.2732 H   0  0  0  0  0  0  0  0  0  0  0  0
    1.7289   -1.2806    0.7082 H   0  0  0  0  0  0  0  0  0  0  0  0
    1.3025    0.5009    0.9678 H   0  0  0  0  0  0  0  0  0  0  0  0
   -0.5822   -1.9057    0.8493 H   0  0  0  0  0  0  0  0  0  0  0  0
   -0.2427   -0.8503    2.3308 H   0  0  0  0  0  0  0  0  0  0  0  0
   -1.1751    1.0334    1.3717 H   0  0  0  0  0  0  0  0  0  0  0  0
   -3.0455    0.3838    0.0666 H   0  0  0  0  0  0  0  0  0  0  0  0
   -0.4004    1.5747   -0.6751 H   0  0  0  0  0  0  0  0  0  0  0  0
   -1.4371    0.3459   -1.4983 H   0  0  0  0  0  0  0  0  0  0  0  0
  1  2  3  0
  2  3  1  0
  3  4  1  0
  4  5  1  0
  5  6  1  0
  6  7  1  0
  6  8  1  0
  8  3  1  0
  1  9  1  0
  3 10  1  0
  4 11  1  0
  4 12  1  0
  5 13  1  0
  5 14  1  0
  6 15  1  0
  7 16  1  0
  8 17  1  0
  8 18  1  0
M  END
