
     RDKit          3D

 17 16  0  0  0  0  0  0  0  0999 V2000
   -1.9654    1.7993    0.2451 C   0  0  0  0  0  0  0  0  0  0  0  0
   -1.3801    0.8312    0.7186 C   0  0  0  0  0  0  0  0  0  0  0  0
   -0.6802   -0.2961    1.2940 C   0  0  0  0  0  0  0  0  0  0  0  0
    0.6489   -0.5459    0.6366 C   0  0  0  0  0  0  0  0  0  0  0  0
    1.1844   -1.6668    1.3171 O   0  0  0  0  0  0  0  0  0  0  0  0
    0.5389   -0.9683   -0.8008 C   0  0  0  0  0  0  0  0  0  0  0  0
    0.0290    0.0129   -1.6599 O   0  0  0  0  0  0  0  0  0  0  0  0
    0.6504    1.2436   -1.8421 C   0  0  0  0  0  0  0  0  0  0  0  0
    1.7091    1.4446   -1.1921 O   0  0  0  0  0  0  0  0  0  0  0  0
   -2.4789    2.6381   -0.1483 H   0  0  0  0  0  0  0  0  0  0  0  0
   -1.3138   -1.2079    1.2103 H   0  0  0  0  0  0  0  0  0  0  0  0
   -0.4796   -0.1802    2.3882 H   0  0  0  0  0  0  0  0  0  0  0  0
    1.3546    0.2671    0.7939 H   0  0  0  0  0  0  0  0  0  0  0  0
    0.4279   -2.2840    1.4832 H   0  0  0  0  0  0  0  0  0  0  0  0
    1.5695   -1.2048   -1.1470 H   0  0  0  0  0  0  0  0  0  0  0  0
   -0.0705   -1.8827   -0.8861 H   0  0  0  0  0  0  0  0  0  0  0  0
    0.2557    1.9999   -2.5055 H   0  0  0  0  0  0  0  0  0  0  0  0
  1  2  3  0
  2  3  1  0
  3  4  1  0
  4  5  1  0
  4  6  1  0
  6  7  1  0
  7  8  1  0
  8  9  2  0
  1 10  1  0
  3 11  1  0
  3 12  1  0
  4 13  1  0
  5 14  1  0
  6 15  1  0
  6 16  1  0
  8 17  1  0
M  END
