
     RDKit          3D

 19 19  0  0  0  0  0  0  0  0999 V2000
    3.0713   -0.9786    0.2826 C   0  0  0  0  0  0  0  0  0  0  0  0
    2.2062   -0.5637    0.2241 C   0  0  0  0  0  0  0  0  0  0  0  0
    0.8053    0.1316    0.1368 C   0  0  0  0  0  0  0  0  0  0  0  0
    0.5917    0.8722   -1.1249 C   0  0  0  0  0  0  0  0  0  0  0  0
   -0.8055    1.0262   -1.3360 O   0  0  0  0  0  0  0  0  0  0  0  0
   -1.5464    0.9318   -0.1751 C   0  0  0  0  0  0  0  0  0  0  0  0
   -1.5121   -0.4664    0.4755 C   0  0  0  0  0  0  0  0  0  0  0  0
   -1.5732   -0.3870    1.8652 O   0  0  0  0  0  0  0  0  0  0  0  0
   -0.1799   -1.0395    0.0678 C   0  0  0  0  0  0  0  0  0  0  0  0
    4.1960   -1.5386    0.3706 H   0  0  0  0  0  0  0  0  0  0  0  0
    0.7176    0.7135    1.0145 H   0  0  0  0  0  0  0  0  0  0  0  0
    1.1061    1.8304   -1.1121 H   0  0  0  0  0  0  0  0  0  0  0  0
    0.9791    0.2536   -1.9966 H   0  0  0  0  0  0  0  0  0  0  0  0
   -1.2349    1.7458    0.4683 H   0  0  0  0  0  0  0  0  0  0  0  0
   -2.6570    1.1594   -0.3996 H   0  0  0  0  0  0  0  0  0  0  0  0
   -2.3553   -1.0819    0.0534 H   0  0  0  0  0  0  0  0  0  0  0  0
   -1.7570    0.5764    2.0683 H   0  0  0  0  0  0  0  0  0  0  0  0
   -0.2318   -1.3399   -1.0198 H   0  0  0  0  0  0  0  0  0  0  0  0
    0.1797   -1.8452    0.7008 H   0  0  0  0  0  0  0  0  0  0  0  0
  1  2  3  0
  2  3  1  0
  3  4  1  0
  4  5  1  0
  5  6  1  0
  6  7  1  0
  7  8  1  0
  7  9  1  0
  9  3  1  0
  1 10  1  0
  3 11  1  0
  4 12  1  0
  4 13  1  0
  6 14  1  0
  6 15  1  0
  7 16  1  0
  8 17  1  0
  9 18  1  0
  9 19  1  0
M  END
