
     RDKit          3D

 21 21  0  0  0  0  0  0  0  0999 V2000
   -1.3957    2.9645   -0.4341 C   0  0  0  0  0  0  0  0  0  0  0  0
   -0.9060    1.8995   -0.1629 C   0  0  0  0  0  0  0  0  0  0  0  0
   -0.3240    0.6003    0.1876 C   0  0  0  0  0  0  0  0  0  0  0  0
   -0.0756    0.4237    1.6559 C   0  0  0  0  0  0  0  0  0  0  0  0
   -0.7844   -0.6063   -0.5506 C   0  0  0  0  0  0  0  0  0  0  0  0
   -0.9291   -1.9028    0.2067 C   0  0  0  0  0  0  0  0  0  0  0  0
    0.5413   -0.0219   -0.8365 C   0  0  0  0  0  0  0  0  0  0  0  0
    1.8149   -0.6775   -0.3984 C   0  0  0  0  0  0  0  0  0  0  0  0
    0.6506    0.6378   -2.0722 O   0  0  0  0  0  0  0  0  0  0  0  0
   -1.8427    3.9193   -0.6601 H   0  0  0  0  0  0  0  0  0  0  0  0
    0.6239    1.2208    2.0438 H   0  0  0  0  0  0  0  0  0  0  0  0
    0.2717   -0.5587    1.9487 H   0  0  0  0  0  0  0  0  0  0  0  0
   -1.0558    0.6442    2.1715 H   0  0  0  0  0  0  0  0  0  0  0  0
   -1.6071   -0.4446   -1.2881 H   0  0  0  0  0  0  0  0  0  0  0  0
    0.0376   -2.3545    0.4745 H   0  0  0  0  0  0  0  0  0  0  0  0
   -1.5733   -2.6219   -0.3493 H   0  0  0  0  0  0  0  0  0  0  0  0
   -1.4887   -1.6808    1.1553 H   0  0  0  0  0  0  0  0  0  0  0  0
    2.1108   -1.4286   -1.1853 H   0  0  0  0  0  0  0  0  0  0  0  0
    2.5994    0.1312   -0.3702 H   0  0  0  0  0  0  0  0  0  0  0  0
    1.7694   -1.1666    0.5754 H   0  0  0  0  0  0  0  0  0  0  0  0
    1.5628    1.0227   -2.1118 H   0  0  0  0  0  0  0  0  0  0  0  0
  1  2  3  0
  2  3  1  0
  3  4  1  0
  3  5  1  0
  5  6  1  0
  5  7  1  0
  7  8  1  0
  7  9  1  0
  7  3  1  0
  1 10  1  0
  4 11  1  0
  4 12  1  0
  4 13  1  0
  5 14  1  0
  6 15  1  0
  6 16  1  0
  6 17  1  0
  8 18  1  0
  8 19  1  0
  8 20  1  0
  9 21  1  0
M  END
