
     RDKit          3D

 17 18  0  0  0  0  0  0  0  0999 V2000
    4.5467   -0.7138   -0.9794 C   0  0  0  0  0  0  0  0  0  0  0  0
    3.3839   -0.4138   -0.7617 C   0  0  0  0  0  0  0  0  0  0  0  0
    2.1629   -0.0852   -0.5142 C   0  0  0  0  0  0  0  0  0  0  0  0
    0.8299    0.2589   -0.2308 C   0  0  0  0  0  0  0  0  0  0  0  0
   -0.4282    0.5607    0.0296 C   0  0  0  0  0  0  0  0  0  0  0  0
   -0.8277    0.6637    1.5467 C   0  0  0  0  0  0  0  0  0  0  0  0
   -1.6814   -0.5058    1.3910 C   0  0  0  0  0  0  0  0  0  0  0  0
   -1.4608   -0.5651   -0.0689 C   0  0  0  0  0  0  0  0  0  0  0  0
   -1.6119    0.6373   -0.8777 C   0  0  0  0  0  0  0  0  0  0  0  0
    5.5319   -0.9848   -1.1695 H   0  0  0  0  0  0  0  0  0  0  0  0
    0.0481    0.5393    2.1738 H   0  0  0  0  0  0  0  0  0  0  0  0
   -1.3481    1.6446    1.7333 H   0  0  0  0  0  0  0  0  0  0  0  0
   -2.7816   -0.1578    1.5788 H   0  0  0  0  0  0  0  0  0  0  0  0
   -1.5265   -1.4555    1.9538 H   0  0  0  0  0  0  0  0  0  0  0  0
   -1.1019   -1.5378   -0.5296 H   0  0  0  0  0  0  0  0  0  0  0  0
   -1.3342    0.7487   -1.9551 H   0  0  0  0  0  0  0  0  0  0  0  0
   -2.4012    1.3665   -0.5856 H   0  0  0  0  0  0  0  0  0  0  0  0
  1  2  3  0
  2  3  1  0
  3  4  3  0
  4  5  1  0
  5  6  1  0
  6  7  1  0
  7  8  1  0
  8  9  1  0
  8  5  1  0
  9  5  1  0
  1 10  1  0
  6 11  1  0
  6 12  1  0
  7 13  1  0
  7 14  1  0
  8 15  1  0
  9 16  1  0
  9 17  1  0
M  END
