
     RDKit          3D

 17 19  0  0  0  0  0  0  0  0999 V2000
    2.7203    1.5277   -0.2419 C   0  0  0  0  0  0  0  0  0  0  0  0
    1.7425    0.8031   -0.4179 C   0  0  0  0  0  0  0  0  0  0  0  0
    0.5606   -0.0433   -0.6184 C   0  0  0  0  0  0  0  0  0  0  0  0
    0.9371   -1.4361   -0.4537 C   0  0  0  0  0  0  0  0  0  0  0  0
    0.1018   -0.9435    0.5913 C   0  0  0  0  0  0  0  0  0  0  0  0
   -0.0670    0.3451    1.2651 C   0  0  0  0  0  0  0  0  0  0  0  0
   -0.4919    1.5831    0.8049 O   0  0  0  0  0  0  0  0  0  0  0  0
   -0.6992    0.6236   -0.0896 C   0  0  0  0  0  0  0  0  0  0  0  0
   -2.0382    0.1875   -0.4593 C   0  0  0  0  0  0  0  0  0  0  0  0
    3.5533    2.1490   -0.0737 H   0  0  0  0  0  0  0  0  0  0  0  0
    1.9565   -1.7978   -0.1219 H   0  0  0  0  0  0  0  0  0  0  0  0
    0.6140   -2.0867   -1.3202 H   0  0  0  0  0  0  0  0  0  0  0  0
   -0.9418   -1.3936    0.4316 H   0  0  0  0  0  0  0  0  0  0  0  0
   -0.6875    0.2327    2.2114 H   0  0  0  0  0  0  0  0  0  0  0  0
   -2.6782   -0.2272    0.3302 H   0  0  0  0  0  0  0  0  0  0  0  0
   -1.9740   -0.5688   -1.2901 H   0  0  0  0  0  0  0  0  0  0  0  0
   -2.6084    1.0454   -0.9015 H   0  0  0  0  0  0  0  0  0  0  0  0
  1  2  3  0
  2  3  1  0
  3  4  1  0
  4  5  1  0
  5  6  1  0
  6  7  1  0
  7  8  1  0
  8  9  1  0
  5  3  1  0
  8  6  1  0
  8  3  1  0
  1 10  1  0
  4 11  1  0
  4 12  1  0
  5 13  1  0
  6 14  1  0
  9 15  1  0
  9 16  1  0
  9 17  1  0
M  END
