
     RDKit          3D

 17 17  0  0  0  0  0  0  0  0999 V2000
    3.0403   -1.7983    1.4200 C   0  0  0  0  0  0  0  0  0  0  0  0
    2.1056   -1.2833    1.1152 C   0  0  0  0  0  0  0  0  0  0  0  0
    0.8471   -0.5672    0.7193 C   0  0  0  0  0  0  0  0  0  0  0  0
    1.1418    0.7514    0.3595 O   0  0  0  0  0  0  0  0  0  0  0  0
   -0.0702    1.4436    0.3342 C   0  0  0  0  0  0  0  0  0  0  0  0
   -1.0538    0.8095   -0.6093 C   0  0  0  0  0  0  0  0  0  0  0  0
   -2.3667    1.1403   -0.1667 O   0  0  0  0  0  0  0  0  0  0  0  0
   -0.9728   -0.7007   -0.5619 C   0  0  0  0  0  0  0  0  0  0  0  0
    0.3537   -1.1510   -0.4395 O   0  0  0  0  0  0  0  0  0  0  0  0
    3.9949   -2.3432    1.7232 H   0  0  0  0  0  0  0  0  0  0  0  0
    0.1180   -0.5749    1.5521 H   0  0  0  0  0  0  0  0  0  0  0  0
   -0.4421    1.4017    1.4050 H   0  0  0  0  0  0  0  0  0  0  0  0
    0.0383    2.5268    0.1375 H   0  0  0  0  0  0  0  0  0  0  0  0
   -0.9210    1.2211   -1.6082 H   0  0  0  0  0  0  0  0  0  0  0  0
   -2.9033    1.3509   -0.9735 H   0  0  0  0  0  0  0  0  0  0  0  0
   -1.5039   -1.0418    0.3839 H   0  0  0  0  0  0  0  0  0  0  0  0
   -1.4057   -1.1848   -1.4634 H   0  0  0  0  0  0  0  0  0  0  0  0
  1  2  3  0
  2  3  1  0
  3  4  1  0
  4  5  1  0
  5  6  1  0
  6  7  1  0
  6  8  1  0
  8  9  1  0
  9  3  1  0
  1 10  1  0
  3 11  1  0
  5 12  1  0
  5 13  1  0
  6 14  1  0
  7 15  1  0
  8 16  1  0
  8 17  1  0
M  END
