
     RDKit          3D

 10  9  0  0  0  0  0  0  0  0999 V2000
    1.8786    2.4685    0.8604 C   0  0  0  0  0  0  0  0  0  0  0  0
    1.0664    1.0407    0.3346 C   0  0  0  0  0  0  0  0  0  0  0  0
    0.6454    0.2993    0.0463 C   0  0  0  0  0  0  0  0  0  0  0  0
    0.1229   -0.6064   -0.3134 C   0  0  0  0  0  0  0  0  0  0  0  0
   -0.4151   -1.5345   -0.7027 C   0  0  0  0  0  0  0  0  0  0  0  0
   -1.9285   -0.5004   -0.7935 O   0  0  0  0  0  0  0  0  0  0  0  0
    2.5325    3.5905    1.2967 H   0  0  0  0  0  0  0  0  0  0  0  0
   -0.7452   -1.5822   -1.9415 H   0  0  0  0  0  0  0  0  0  0  0  0
   -1.2381   -2.3230   -0.4003 H   0  0  0  0  0  0  0  0  0  0  0  0
   -1.9189   -0.8525    0.2193 H   0  0  0  0  0  0  0  0  0  0  0  0
  1  2  3  0
  2  3  1  0
  3  4  3  0
  4  5  1  0
  5  6  1  0
  1  7  1  0
  5  8  1  0
  5  9  1  0
  6 10  1  0
M  END
