
     RDKit          3D

 14 14  0  0  0  0  0  0  0  0999 V2000
    3.1336   -0.5179   -0.6735 C   0  0  0  0  0  0  0  0  0  0  0  0
    2.0302   -0.0003   -0.5643 C   0  0  0  0  0  0  0  0  0  0  0  0
    0.7348    0.6034   -0.4284 C   0  0  0  0  0  0  0  0  0  0  0  0
    0.4471    1.5640   -1.1862 O   0  0  0  0  0  0  0  0  0  0  0  0
   -0.2179    0.1040    0.5709 C   0  0  0  0  0  0  0  0  0  0  0  0
   -1.5242    0.8514    0.5758 C   0  0  0  0  0  0  0  0  0  0  0  0
   -2.1474   -0.1048   -0.2065 O   0  0  0  0  0  0  0  0  0  0  0  0
   -1.1254   -0.9985    0.1396 C   0  0  0  0  0  0  0  0  0  0  0  0
    4.0915   -0.9663   -0.7498 H   0  0  0  0  0  0  0  0  0  0  0  0
    0.2075   -0.0630    1.5921 H   0  0  0  0  0  0  0  0  0  0  0  0
   -1.9306    0.9617    1.6084 H   0  0  0  0  0  0  0  0  0  0  0  0
   -1.4416    1.8293    0.0227 H   0  0  0  0  0  0  0  0  0  0  0  0
   -1.4909   -1.6339    0.9727 H   0  0  0  0  0  0  0  0  0  0  0  0
   -0.7667   -1.6291   -0.7002 H   0  0  0  0  0  0  0  0  0  0  0  0
  1  2  3  0
  2  3  1  0
  3  4  2  0
  3  5  1  0
  5  6  1  0
  6  7  1  0
  7  8  1  0
  8  5  1  0
  1  9  1  0
  5 10  1  0
  6 11  1  0
  6 12  1  0
  8 13  1  0
  8 14  1  0
M  END
