
     RDKit          3D

 18 18  0  0  0  0  0  0  0  0999 V2000
    2.6725    1.3167   -1.2211 C   0  0  0  0  0  0  0  0  0  0  0  0
    2.0246    0.4085   -0.7719 C   0  0  0  0  0  0  0  0  0  0  0  0
    1.2389   -0.7067   -0.2486 C   0  0  0  0  0  0  0  0  0  0  0  0
    0.8197   -0.3900    1.1597 O   0  0  0  0  0  0  0  0  0  0  0  0
   -0.1067   -0.6751    0.0777 C   0  0  0  0  0  0  0  0  0  0  0  0
   -0.7701   -2.0400    0.3730 C   0  0  0  0  0  0  0  0  0  0  0  0
   -1.1384    0.3534   -0.1370 C   0  0  0  0  0  0  0  0  0  0  0  0
   -0.8719    1.6897    0.5019 C   0  0  0  0  0  0  0  0  0  0  0  0
    3.2369    2.1346   -1.6121 H   0  0  0  0  0  0  0  0  0  0  0  0
    1.7873   -1.6698   -0.2997 H   0  0  0  0  0  0  0  0  0  0  0  0
   -1.7039   -2.1482   -0.2383 H   0  0  0  0  0  0  0  0  0  0  0  0
   -1.0327   -2.1067    1.4570 H   0  0  0  0  0  0  0  0  0  0  0  0
   -0.1115   -2.8671    0.0582 H   0  0  0  0  0  0  0  0  0  0  0  0
   -2.1112    0.0236    0.2705 H   0  0  0  0  0  0  0  0  0  0  0  0
   -1.3022    0.4659   -1.2430 H   0  0  0  0  0  0  0  0  0  0  0  0
   -1.1826    1.7077    1.5682 H   0  0  0  0  0  0  0  0  0  0  0  0
    0.1241    2.0854    0.3126 H   0  0  0  0  0  0  0  0  0  0  0  0
   -1.5729    2.4180   -0.0071 H   0  0  0  0  0  0  0  0  0  0  0  0
  1  2  3  0
  2  3  1  0
  3  4  1  0
  4  5  1  0
  5  6  1  0
  5  7  1  0
  7  8  1  0
  5  3  1  0
  1  9  1  0
  3 10  1  0
  6 11  1  0
  6 12  1  0
  6 13  1  0
  7 14  1  0
  7 15  1  0
  8 16  1  0
  8 17  1  0
  8 18  1  0
M  END
