
     RDKit          3D

 17 19  0  0  0  0  0  0  0  0999 V2000
    2.0510    1.5716   -0.9896 C   0  0  0  0  0  0  0  0  0  0  0  0
    1.1692    1.0889   -0.2835 C   0  0  0  0  0  0  0  0  0  0  0  0
    0.1025    0.5233    0.5896 C   0  0  0  0  0  0  0  0  0  0  0  0
    0.6519    0.0791    1.8432 C   0  0  0  0  0  0  0  0  0  0  0  0
    0.3159   -1.0015    0.9833 C   0  0  0  0  0  0  0  0  0  0  0  0
    0.2421   -1.1066   -0.5110 C   0  0  0  0  0  0  0  0  0  0  0  0
   -0.9097   -0.1417   -0.2844 C   0  0  0  0  0  0  0  0  0  0  0  0
   -1.8782    0.2868   -1.0965 C   0  0  0  0  0  0  0  0  0  0  0  0
   -2.1296   -0.5543    0.1269 O   0  0  0  0  0  0  0  0  0  0  0  0
    2.7996    2.0020   -1.6001 H   0  0  0  0  0  0  0  0  0  0  0  0
    0.0556    0.4096    2.7482 H   0  0  0  0  0  0  0  0  0  0  0  0
    1.7486    0.1571    2.1166 H   0  0  0  0  0  0  0  0  0  0  0  0
   -0.6377   -1.5051    1.3675 H   0  0  0  0  0  0  0  0  0  0  0  0
   -0.0391   -2.1142   -0.8595 H   0  0  0  0  0  0  0  0  0  0  0  0
    1.0508   -0.7305   -1.1181 H   0  0  0  0  0  0  0  0  0  0  0  0
   -2.3787    1.2808   -1.0112 H   0  0  0  0  0  0  0  0  0  0  0  0
   -2.2142   -0.2452   -2.0215 H   0  0  0  0  0  0  0  0  0  0  0  0
  1  2  3  0
  2  3  1  0
  3  4  1  0
  4  5  1  0
  5  6  1  0
  6  7  1  0
  7  8  1  0
  8  9  1  0
  5  3  1  0
  9  7  1  0
  7  3  1  0
  1 10  1  0
  4 11  1  0
  4 12  1  0
  5 13  1  0
  6 14  1  0
  6 15  1  0
  8 16  1  0
  8 17  1  0
M  END
