
     RDKit          3D

 17 19  0  0  0  0  0  0  0  0999 V2000
   -1.7611   -1.9495   -1.6051 C   0  0  0  0  0  0  0  0  0  0  0  0
   -1.3996   -1.1600   -0.7670 C   0  0  0  0  0  0  0  0  0  0  0  0
   -0.9591   -0.2126    0.2620 C   0  0  0  0  0  0  0  0  0  0  0  0
   -0.8280   -0.6576    1.5753 O   0  0  0  0  0  0  0  0  0  0  0  0
    0.2658   -0.2501    0.8638 C   0  0  0  0  0  0  0  0  0  0  0  0
    1.4249   -1.1509    0.5929 C   0  0  0  0  0  0  0  0  0  0  0  0
    0.4477    1.2555    0.7688 C   0  0  0  0  0  0  0  0  0  0  0  0
    0.4398    1.7968   -0.6065 C   0  0  0  0  0  0  0  0  0  0  0  0
   -0.8832    1.2458   -0.0547 C   0  0  0  0  0  0  0  0  0  0  0  0
   -2.0659   -2.6574   -2.3580 H   0  0  0  0  0  0  0  0  0  0  0  0
    1.1473   -2.1757    0.9117 H   0  0  0  0  0  0  0  0  0  0  0  0
    1.7084   -1.1788   -0.4771 H   0  0  0  0  0  0  0  0  0  0  0  0
    2.3070   -0.7533    1.1414 H   0  0  0  0  0  0  0  0  0  0  0  0
    0.4448    1.8708    1.6671 H   0  0  0  0  0  0  0  0  0  0  0  0
    0.9632    1.1508   -1.3659 H   0  0  0  0  0  0  0  0  0  0  0  0
    0.3970    2.8723   -0.8235 H   0  0  0  0  0  0  0  0  0  0  0  0
   -1.6490    1.9537    0.2748 H   0  0  0  0  0  0  0  0  0  0  0  0
  1  2  3  0
  2  3  1  0
  3  4  1  0
  4  5  1  0
  5  6  1  0
  5  7  1  0
  7  8  1  0
  8  9  1  0
  5  3  1  0
  9  7  1  0
  9  3  1  0
  1 10  1  0
  6 11  1  0
  6 12  1  0
  6 13  1  0
  7 14  1  0
  8 15  1  0
  8 16  1  0
  9 17  1  0
M  END
