
     RDKit          3D

 15 15  0  0  0  0  0  0  0  0999 V2000
    2.9242    0.4145   -1.0183 C   0  0  0  0  0  0  0  0  0  0  0  0
    1.8714   -0.0357   -0.6407 C   0  0  0  0  0  0  0  0  0  0  0  0
    0.5324   -0.6106   -0.1882 C   0  0  0  0  0  0  0  0  0  0  0  0
    0.4288   -1.9628   -0.2441 O   0  0  0  0  0  0  0  0  0  0  0  0
    0.1614    0.0730    1.1474 C   0  0  0  0  0  0  0  0  0  0  0  0
   -0.5682    0.3799   -0.2244 C   0  0  0  0  0  0  0  0  0  0  0  0
   -0.3228    1.6349   -0.7144 O   0  0  0  0  0  0  0  0  0  0  0  0
   -1.9567   -0.1259   -0.1873 C   0  0  0  0  0  0  0  0  0  0  0  0
   -3.1536   -0.5530   -0.1387 C   0  0  0  0  0  0  0  0  0  0  0  0
    3.8856    0.8091   -1.3487 H   0  0  0  0  0  0  0  0  0  0  0  0
   -0.3305   -2.2204    0.3639 H   0  0  0  0  0  0  0  0  0  0  0  0
   -0.4342   -0.5476    1.8741 H   0  0  0  0  0  0  0  0  0  0  0  0
    0.7440    0.9088    1.5215 H   0  0  0  0  0  0  0  0  0  0  0  0
    0.3870    2.0507   -0.1206 H   0  0  0  0  0  0  0  0  0  0  0  0
   -4.1688   -0.9186   -0.0816 H   0  0  0  0  0  0  0  0  0  0  0  0
  1  2  3  0
  2  3  1  0
  3  4  1  0
  3  5  1  0
  5  6  1  0
  6  7  1  0
  6  8  1  0
  8  9  3  0
  6  3  1  0
  1 10  1  0
  4 11  1  0
  5 12  1  0
  5 13  1  0
  7 14  1  0
  9 15  1  0
M  END
