
     RDKit          3D

 17 18  0  0  0  0  0  0  0  0999 V2000
    3.3152    0.9864   -0.1926 C   0  0  0  0  0  0  0  0  0  0  0  0
    2.1877    0.7937   -0.5739 C   0  0  0  0  0  0  0  0  0  0  0  0
    0.7893    0.5517   -1.0199 C   0  0  0  0  0  0  0  0  0  0  0  0
   -0.3183    0.8139   -0.1696 C   0  0  0  0  0  0  0  0  0  0  0  0
   -1.5913    0.0061    0.0112 C   0  0  0  0  0  0  0  0  0  0  0  0
   -2.5026    0.5928    0.8460 O   0  0  0  0  0  0  0  0  0  0  0  0
   -0.5640   -0.8910    0.7468 C   0  0  0  0  0  0  0  0  0  0  0  0
   -1.0995   -2.1354    0.8783 O   0  0  0  0  0  0  0  0  0  0  0  0
    0.1776   -0.6450   -0.5634 C   0  0  0  0  0  0  0  0  0  0  0  0
    4.3096    1.1728    0.1351 H   0  0  0  0  0  0  0  0  0  0  0  0
    0.6741    0.9322   -2.0812 H   0  0  0  0  0  0  0  0  0  0  0  0
   -0.0016    1.1239    0.8799 H   0  0  0  0  0  0  0  0  0  0  0  0
   -1.9357   -0.4227   -0.9274 H   0  0  0  0  0  0  0  0  0  0  0  0
   -2.3225    1.5195    1.0699 H   0  0  0  0  0  0  0  0  0  0  0  0
   -0.1680   -0.3778    1.6170 H   0  0  0  0  0  0  0  0  0  0  0  0
   -0.4853   -2.8833    0.7075 H   0  0  0  0  0  0  0  0  0  0  0  0
   -0.4647   -1.1377   -1.3638 H   0  0  0  0  0  0  0  0  0  0  0  0
  1  2  3  0
  2  3  1  0
  3  4  1  0
  4  5  1  0
  5  6  1  0
  5  7  1  0
  7  8  1  0
  7  9  1  0
  9  3  1  0
  9  4  1  0
  1 10  1  0
  3 11  1  0
  4 12  1  0
  5 13  1  0
  6 14  1  0
  7 15  1  0
  8 16  1  0
  9 17  1  0
M  END
