
     RDKit          3D

 23 22  0  0  0  0  0  0  0  0999 V2000
   -0.2954   -2.5182   -1.4710 C   0  0  0  0  0  0  0  0  0  0  0  0
   -0.4487   -1.7425   -0.5710 C   0  0  0  0  0  0  0  0  0  0  0  0
   -0.6382   -0.7634    0.5257 C   0  0  0  0  0  0  0  0  0  0  0  0
   -1.0406   -1.5156    1.6732 O   0  0  0  0  0  0  0  0  0  0  0  0
   -1.7930    0.1324    0.2634 C   0  0  0  0  0  0  0  0  0  0  0  0
   -1.7657    0.9618   -0.9543 C   0  0  0  0  0  0  0  0  0  0  0  0
    0.6440   -0.1214    0.9032 C   0  0  0  0  0  0  0  0  0  0  0  0
    1.3451    0.6383   -0.1766 C   0  0  0  0  0  0  0  0  0  0  0  0
    2.6586    1.2450    0.3312 C   0  0  0  0  0  0  0  0  0  0  0  0
   -0.1429   -3.2168   -2.2661 H   0  0  0  0  0  0  0  0  0  0  0  0
   -1.6012   -2.2930    1.3773 H   0  0  0  0  0  0  0  0  0  0  0  0
   -1.9221    0.7627    1.1937 H   0  0  0  0  0  0  0  0  0  0  0  0
   -2.7100   -0.4961    0.2393 H   0  0  0  0  0  0  0  0  0  0  0  0
   -1.5953    2.0242   -0.6838 H   0  0  0  0  0  0  0  0  0  0  0  0
   -1.0728    0.6475   -1.7503 H   0  0  0  0  0  0  0  0  0  0  0  0
   -2.7738    0.9889   -1.4753 H   0  0  0  0  0  0  0  0  0  0  0  0
    1.3565   -0.9369    1.2272 H   0  0  0  0  0  0  0  0  0  0  0  0
    0.4777    0.4730    1.8218 H   0  0  0  0  0  0  0  0  0  0  0  0
    0.7237    1.5294   -0.4627 H   0  0  0  0  0  0  0  0  0  0  0  0
    1.6140    0.0070   -1.0440 H   0  0  0  0  0  0  0  0  0  0  0  0
    2.6234    1.3031    1.4282 H   0  0  0  0  0  0  0  0  0  0  0  0
    2.8249    2.2571   -0.0911 H   0  0  0  0  0  0  0  0  0  0  0  0
    3.5319    0.6336   -0.0380 H   0  0  0  0  0  0  0  0  0  0  0  0
  1  2  3  0
  2  3  1  0
  3  4  1  0
  3  5  1  0
  5  6  1  0
  3  7  1  0
  7  8  1  0
  8  9  1  0
  1 10  1  0
  4 11  1  0
  5 12  1  0
  5 13  1  0
  6 14  1  0
  6 15  1  0
  6 16  1  0
  7 17  1  0
  7 18  1  0
  8 19  1  0
  8 20  1  0
  9 21  1  0
  9 22  1  0
  9 23  1  0
M  END
