
     RDKit          3D

 19 19  0  0  0  0  0  0  0  0999 V2000
   -1.5877   -3.1711    0.9053 C   0  0  0  0  0  0  0  0  0  0  0  0
   -0.7564   -2.4649    0.8255 C   0  0  0  0  0  0  0  0  0  0  0  0
    0.4297   -1.4784    0.7343 C   0  0  0  0  0  0  0  0  0  0  0  0
    1.4755   -2.0673    0.0758 O   0  0  0  0  0  0  0  0  0  0  0  0
   -0.1210   -0.3185   -0.0750 C   0  0  0  0  0  0  0  0  0  0  0  0
    0.9602    0.7074   -0.2394 C   0  0  0  0  0  0  0  0  0  0  0  0
    0.3710    1.8265   -1.0526 C   0  0  0  0  0  0  0  0  0  0  0  0
   -0.7661    2.5961   -0.6540 C   0  0  0  0  0  0  0  0  0  0  0  0
    0.5569    3.1198   -0.3556 O   0  0  0  0  0  0  0  0  0  0  0  0
   -2.4604   -3.8943    0.9741 H   0  0  0  0  0  0  0  0  0  0  0  0
    0.6096   -1.1583    1.7482 H   0  0  0  0  0  0  0  0  0  0  0  0
    1.5273   -1.8253   -0.8842 H   0  0  0  0  0  0  0  0  0  0  0  0
   -0.5188   -0.6945   -1.0286 H   0  0  0  0  0  0  0  0  0  0  0  0
   -0.9449    0.1047    0.5513 H   0  0  0  0  0  0  0  0  0  0  0  0
    1.7535    0.2158   -0.8552 H   0  0  0  0  0  0  0  0  0  0  0  0
    1.4212    1.0172    0.6939 H   0  0  0  0  0  0  0  0  0  0  0  0
    0.7069    1.8685   -2.1032 H   0  0  0  0  0  0  0  0  0  0  0  0
   -1.3953    2.3904    0.2325 H   0  0  0  0  0  0  0  0  0  0  0  0
   -1.2615    3.2263   -1.4167 H   0  0  0  0  0  0  0  0  0  0  0  0
  1  2  3  0
  2  3  1  0
  3  4  1  0
  3  5  1  0
  5  6  1  0
  6  7  1  0
  7  8  1  0
  8  9  1  0
  9  7  1  0
  1 10  1  0
  3 11  1  0
  4 12  1  0
  5 13  1  0
  5 14  1  0
  6 15  1  0
  6 16  1  0
  7 17  1  0
  8 18  1  0
  8 19  1  0
M  END
