
     RDKit          3D

 15 17  0  0  0  0  0  0  0  0999 V2000
    2.5081   -0.5097   -1.3869 C   0  0  0  0  0  0  0  0  0  0  0  0
    1.5020   -0.2739   -0.7875 C   0  0  0  0  0  0  0  0  0  0  0  0
    0.3165    0.0064   -0.0806 C   0  0  0  0  0  0  0  0  0  0  0  0
    0.2890    1.0120    0.9974 C   0  0  0  0  0  0  0  0  0  0  0  0
   -1.0752    0.9767    1.3827 O   0  0  0  0  0  0  0  0  0  0  0  0
   -1.6031    0.0182    0.5521 C   0  0  0  0  0  0  0  0  0  0  0  0
   -0.5786   -1.0716    0.3770 C   0  0  0  0  0  0  0  0  0  0  0  0
   -1.0372   -1.1900   -0.9231 O   0  0  0  0  0  0  0  0  0  0  0  0
   -0.9668    0.1848   -0.7958 C   0  0  0  0  0  0  0  0  0  0  0  0
    3.4115   -0.7406   -1.9304 H   0  0  0  0  0  0  0  0  0  0  0  0
    0.9333    0.7543    1.8475 H   0  0  0  0  0  0  0  0  0  0  0  0
    0.5463    2.0277    0.5929 H   0  0  0  0  0  0  0  0  0  0  0  0
   -2.6367   -0.2469    0.6177 H   0  0  0  0  0  0  0  0  0  0  0  0
   -0.3982   -1.8214    1.0281 H   0  0  0  0  0  0  0  0  0  0  0  0
   -1.2108    0.8741   -1.4913 H   0  0  0  0  0  0  0  0  0  0  0  0
  1  2  3  0
  2  3  1  0
  3  4  1  0
  4  5  1  0
  5  6  1  0
  6  7  1  0
  7  8  1  0
  8  9  1  0
  7  3  1  0
  9  3  1  0
  9  6  1  0
  1 10  1  0
  4 11  1  0
  4 12  1  0
  6 13  1  0
  7 14  1  0
  9 15  1  0
M  END
