
     RDKit          3D

 15 14  0  0  0  0  0  0  0  0999 V2000
    4.8267    2.5943   -1.8045 C   0  0  0  0  0  0  0  0  0  0  0  0
    3.8022    1.9121   -1.3234 C   0  0  0  0  0  0  0  0  0  0  0  0
    2.7751    1.2271   -0.8432 C   0  0  0  0  0  0  0  0  0  0  0  0
    1.7805    0.5854   -0.3959 C   0  0  0  0  0  0  0  0  0  0  0  0
    0.5729   -0.2244    0.1445 C   0  0  0  0  0  0  0  0  0  0  0  0
   -0.2806   -0.8037    0.5190 C   0  0  0  0  0  0  0  0  0  0  0  0
   -1.3958   -1.5700    1.0269 C   0  0  0  0  0  0  0  0  0  0  0  0
   -2.6584   -0.8376    0.4973 C   0  0  0  0  0  0  0  0  0  0  0  0
   -2.7938   -0.8316   -0.8530 O   0  0  0  0  0  0  0  0  0  0  0  0
    5.6624    3.1470   -2.1821 H   0  0  0  0  0  0  0  0  0  0  0  0
   -1.4935   -1.7604    2.0094 H   0  0  0  0  0  0  0  0  0  0  0  0
   -1.4745   -2.5467    0.4386 H   0  0  0  0  0  0  0  0  0  0  0  0
   -3.6013   -1.1643    0.9403 H   0  0  0  0  0  0  0  0  0  0  0  0
   -2.4155    0.2513    0.8140 H   0  0  0  0  0  0  0  0  0  0  0  0
   -3.3066    0.0214   -1.1665 H   0  0  0  0  0  0  0  0  0  0  0  0
  1  2  3  0
  2  3  1  0
  3  4  3  0
  4  5  1  0
  5  6  3  0
  6  7  1  0
  7  8  1  0
  8  9  1  0
  1 10  1  0
  7 11  1  0
  7 12  1  0
  8 13  1  0
  8 14  1  0
  9 15  1  0
M  END
