
     RDKit          3D

 21 21  0  0  0  0  0  0  0  0999 V2000
   -1.0465    0.5287    2.8212 C   0  0  0  0  0  0  0  0  0  0  0  0
   -0.3573   -0.2529    2.2324 C   0  0  0  0  0  0  0  0  0  0  0  0
    0.4989   -1.2043    1.4835 C   0  0  0  0  0  0  0  0  0  0  0  0
    1.2560   -0.4281    0.3989 C   0  0  0  0  0  0  0  0  0  0  0  0
    0.2259   -0.8916   -0.5908 C   0  0  0  0  0  0  0  0  0  0  0  0
   -0.8653    0.1561   -0.9265 C   0  0  0  0  0  0  0  0  0  0  0  0
   -0.3692    1.1818   -1.4068 O   0  0  0  0  0  0  0  0  0  0  0  0
    0.1214    2.2223   -1.8926 C   0  0  0  0  0  0  0  0  0  0  0  0
   -0.2104   -1.9427    0.3806 C   0  0  0  0  0  0  0  0  0  0  0  0
   -1.6617    1.2416    3.3552 H   0  0  0  0  0  0  0  0  0  0  0  0
    1.1711   -1.8003    2.1092 H   0  0  0  0  0  0  0  0  0  0  0  0
    2.2690   -0.8798    0.2451 H   0  0  0  0  0  0  0  0  0  0  0  0
    1.2512    0.6521    0.5805 H   0  0  0  0  0  0  0  0  0  0  0  0
    0.6996   -1.2881   -1.5038 H   0  0  0  0  0  0  0  0  0  0  0  0
   -1.4649    0.1877    0.0372 H   0  0  0  0  0  0  0  0  0  0  0  0
   -1.5897   -0.4676   -1.5783 H   0  0  0  0  0  0  0  0  0  0  0  0
    1.2686    2.1472   -1.9862 H   0  0  0  0  0  0  0  0  0  0  0  0
   -0.1635    2.5709   -2.9306 H   0  0  0  0  0  0  0  0  0  0  0  0
    0.0410    3.1391   -1.2007 H   0  0  0  0  0  0  0  0  0  0  0  0
   -1.3045   -1.9347    0.5510 H   0  0  0  0  0  0  0  0  0  0  0  0
    0.2303   -2.9374    0.1797 H   0  0  0  0  0  0  0  0  0  0  0  0
  1  2  3  0
  2  3  1  0
  3  4  1  0
  4  5  1  0
  5  6  1  0
  6  7  1  0
  7  8  1  0
  5  9  1  0
  9  3  1  0
  1 10  1  0
  3 11  1  0
  4 12  1  0
  4 13  1  0
  5 14  1  0
  6 15  1  0
  6 16  1  0
  8 17  1  0
  8 18  1  0
  8 19  1  0
  9 20  1  0
  9 21  1  0
M  END
