
     RDKit          3D

 19 19  0  0  0  0  0  0  0  0999 V2000
    2.0989    1.7816    1.8262 C   0  0  0  0  0  0  0  0  0  0  0  0
    1.6584    1.0674    1.4446 C   0  0  0  0  0  0  0  0  0  0  0  0
    0.9013   -0.1558    0.7817 C   0  0  0  0  0  0  0  0  0  0  0  0
   -0.0257   -0.3624   -0.1080 C   0  0  0  0  0  0  0  0  0  0  0  0
   -0.1409   -1.9791   -0.1403 C   0  0  0  0  0  0  0  0  0  0  0  0
   -1.4215    0.0076    0.0212 C   0  0  0  0  0  0  0  0  0  0  0  0
   -1.8657    0.7129   -0.9028 C   0  0  0  0  0  0  0  0  0  0  0  0
   -0.6107    1.0230   -1.8062 C   0  0  0  0  0  0  0  0  0  0  0  0
    0.3458    0.0248   -1.4530 O   0  0  0  0  0  0  0  0  0  0  0  0
    2.7830    2.9275    2.4461 H   0  0  0  0  0  0  0  0  0  0  0  0
    1.1323   -1.0071    1.6780 H   0  0  0  0  0  0  0  0  0  0  0  0
    1.9111   -0.6226    0.1739 H   0  0  0  0  0  0  0  0  0  0  0  0
    0.5975   -2.4311    0.5371 H   0  0  0  0  0  0  0  0  0  0  0  0
   -0.0082   -2.3061   -1.1681 H   0  0  0  0  0  0  0  0  0  0  0  0
   -1.1480   -2.3273    0.2153 H   0  0  0  0  0  0  0  0  0  0  0  0
   -2.0620   -0.3332    0.9079 H   0  0  0  0  0  0  0  0  0  0  0  0
   -2.9195    0.9139   -1.2329 H   0  0  0  0  0  0  0  0  0  0  0  0
   -0.3081    1.9921   -1.3936 H   0  0  0  0  0  0  0  0  0  0  0  0
   -0.9179    1.0740   -2.8446 H   0  0  0  0  0  0  0  0  0  0  0  0
  1  2  3  0
  2  3  1  0
  3  4  1  0
  4  5  1  0
  4  6  1  0
  6  7  2  0
  7  8  1  0
  8  9  1  0
  9  4  1  0
  1 10  1  0
  3 11  1  0
  3 12  1  0
  5 13  1  0
  5 14  1  0
  5 15  1  0
  6 16  1  0
  7 17  1  0
  8 18  1  0
  8 19  1  0
M  END
