
     RDKit          3D

 15 16  0  0  0  0  0  0  0  0999 V2000
    2.1718   -1.0898    1.1976 C   0  0  0  0  0  0  0  0  0  0  0  0
    1.1062   -1.1653    0.6331 C   0  0  0  0  0  0  0  0  0  0  0  0
   -0.1973   -1.2586   -0.0287 C   0  0  0  0  0  0  0  0  0  0  0  0
   -0.7153    0.0794   -0.4417 C   0  0  0  0  0  0  0  0  0  0  0  0
   -0.0051    0.9657   -1.3764 C   0  0  0  0  0  0  0  0  0  0  0  0
    0.1481    1.2712    0.0628 C   0  0  0  0  0  0  0  0  0  0  0  0
   -0.9461    1.5408    0.8947 O   0  0  0  0  0  0  0  0  0  0  0  0
   -1.8588    0.6565    0.3369 C   0  0  0  0  0  0  0  0  0  0  0  0
   -3.0891    0.3981    0.4036 O   0  0  0  0  0  0  0  0  0  0  0  0
    3.1100   -1.0260    1.7156 H   0  0  0  0  0  0  0  0  0  0  0  0
   -0.1130   -1.9875   -0.8443 H   0  0  0  0  0  0  0  0  0  0  0  0
   -0.9188   -1.6842    0.7269 H   0  0  0  0  0  0  0  0  0  0  0  0
   -0.6657    1.6918   -1.9361 H   0  0  0  0  0  0  0  0  0  0  0  0
    0.8747    0.5759   -1.8919 H   0  0  0  0  0  0  0  0  0  0  0  0
    1.0984    1.0320    0.5479 H   0  0  0  0  0  0  0  0  0  0  0  0
  1  2  3  0
  2  3  1  0
  3  4  1  0
  4  5  1  0
  5  6  1  0
  6  7  1  0
  7  8  1  0
  8  9  2  0
  6  4  1  0
  8  4  1  0
  1 10  1  0
  3 11  1  0
  3 12  1  0
  5 13  1  0
  5 14  1  0
  6 15  1  0
M  END
