
     RDKit          3D

 19 19  0  0  0  0  0  0  0  0999 V2000
    4.1306    1.0252    0.0436 C   0  0  0  0  0  0  0  0  0  0  0  0
    3.1266    0.4128    0.3770 C   0  0  0  0  0  0  0  0  0  0  0  0
    1.9315   -0.3391    0.7614 C   0  0  0  0  0  0  0  0  0  0  0  0
    0.8334    0.2576    0.1633 O   0  0  0  0  0  0  0  0  0  0  0  0
   -0.3610   -0.3544    0.4445 C   0  0  0  0  0  0  0  0  0  0  0  0
   -1.4653    0.3848   -0.2598 C   0  0  0  0  0  0  0  0  0  0  0  0
   -1.2846    0.4026   -1.7617 C   0  0  0  0  0  0  0  0  0  0  0  0
   -2.6847    0.3304   -1.8552 O   0  0  0  0  0  0  0  0  0  0  0  0
   -2.6343   -0.4673   -0.6970 C   0  0  0  0  0  0  0  0  0  0  0  0
    5.0020    1.5404   -0.2559 H   0  0  0  0  0  0  0  0  0  0  0  0
    1.9806   -1.3979    0.4327 H   0  0  0  0  0  0  0  0  0  0  0  0
    1.7813   -0.2968    1.8636 H   0  0  0  0  0  0  0  0  0  0  0  0
   -0.5573   -0.2293    1.5491 H   0  0  0  0  0  0  0  0  0  0  0  0
   -0.3779   -1.4411    0.2490 H   0  0  0  0  0  0  0  0  0  0  0  0
   -1.8167    1.3024    0.2050 H   0  0  0  0  0  0  0  0  0  0  0  0
   -0.8515   -0.5656   -2.0909 H   0  0  0  0  0  0  0  0  0  0  0  0
   -0.8374    1.3094   -2.1787 H   0  0  0  0  0  0  0  0  0  0  0  0
   -2.3787   -1.5018   -1.0075 H   0  0  0  0  0  0  0  0  0  0  0  0
   -3.5367   -0.3724   -0.0506 H   0  0  0  0  0  0  0  0  0  0  0  0
  1  2  3  0
  2  3  1  0
  3  4  1  0
  4  5  1  0
  5  6  1  0
  6  7  1  0
  7  8  1  0
  8  9  1  0
  9  6  1  0
  1 10  1  0
  3 11  1  0
  3 12  1  0
  5 13  1  0
  5 14  1  0
  6 15  1  0
  7 16  1  0
  7 17  1  0
  9 18  1  0
  9 19  1  0
M  END
