
     RDKit          3D

 17 18  0  0  0  0  0  0  0  0999 V2000
    1.5267    0.5912   -2.2639 C   0  0  0  0  0  0  0  0  0  0  0  0
    1.3066    0.5196   -1.0805 C   0  0  0  0  0  0  0  0  0  0  0  0
    1.0660    0.4252    0.3440 C   0  0  0  0  0  0  0  0  0  0  0  0
    1.5640    1.5506    1.0202 O   0  0  0  0  0  0  0  0  0  0  0  0
   -0.1565   -0.1361    0.8510 C   0  0  0  0  0  0  0  0  0  0  0  0
   -0.1645   -1.5879    0.7442 C   0  0  0  0  0  0  0  0  0  0  0  0
   -1.2881   -0.9360    0.1911 C   0  0  0  0  0  0  0  0  0  0  0  0
   -1.5535    0.4145   -0.3317 C   0  0  0  0  0  0  0  0  0  0  0  0
   -1.1511    0.7942    0.9028 O   0  0  0  0  0  0  0  0  0  0  0  0
    1.7106    0.6700   -3.3025 H   0  0  0  0  0  0  0  0  0  0  0  0
    1.8927   -0.3226    0.6918 H   0  0  0  0  0  0  0  0  0  0  0  0
    0.7851    2.0786    1.3317 H   0  0  0  0  0  0  0  0  0  0  0  0
   -0.0855   -2.1242    1.7264 H   0  0  0  0  0  0  0  0  0  0  0  0
    0.4660   -2.1485   -0.0151 H   0  0  0  0  0  0  0  0  0  0  0  0
   -2.1788   -1.1600    0.8905 H   0  0  0  0  0  0  0  0  0  0  0  0
   -1.0885    0.7003   -1.2498 H   0  0  0  0  0  0  0  0  0  0  0  0
   -2.6513    0.6710   -0.4502 H   0  0  0  0  0  0  0  0  0  0  0  0
  1  2  3  0
  2  3  1  0
  3  4  1  0
  3  5  1  0
  5  6  1  0
  6  7  1  0
  7  8  1  0
  8  9  1  0
  7  5  1  0
  9  5  1  0
  1 10  1  0
  3 11  1  0
  4 12  1  0
  6 13  1  0
  6 14  1  0
  7 15  1  0
  8 16  1  0
  8 17  1  0
M  END
