
     RDKit          3D

 15 15  0  0  0  0  0  0  0  0999 V2000
    3.3453    1.2296    0.6852 C   0  0  0  0  0  0  0  0  0  0  0  0
    2.1836    0.9189    0.7662 C   0  0  0  0  0  0  0  0  0  0  0  0
    0.8027    0.5734    0.8712 C   0  0  0  0  0  0  0  0  0  0  0  0
    0.1445    0.8147    1.9070 O   0  0  0  0  0  0  0  0  0  0  0  0
    0.1306   -0.0840   -0.2654 C   0  0  0  0  0  0  0  0  0  0  0  0
   -0.8886   -1.1939    0.1086 C   0  0  0  0  0  0  0  0  0  0  0  0
   -0.8152   -2.3282   -0.6971 O   0  0  0  0  0  0  0  0  0  0  0  0
   -1.3188    0.0773   -0.5040 C   0  0  0  0  0  0  0  0  0  0  0  0
   -2.0971    0.8983    0.3199 O   0  0  0  0  0  0  0  0  0  0  0  0
    4.3750    1.5243    0.6134 H   0  0  0  0  0  0  0  0  0  0  0  0
    0.7467   -0.2755   -1.1504 H   0  0  0  0  0  0  0  0  0  0  0  0
   -1.0543   -1.3680    1.1903 H   0  0  0  0  0  0  0  0  0  0  0  0
   -1.7093   -2.6323   -1.0029 H   0  0  0  0  0  0  0  0  0  0  0  0
   -1.6792    0.0678   -1.5480 H   0  0  0  0  0  0  0  0  0  0  0  0
   -2.1660    1.7777   -0.1401 H   0  0  0  0  0  0  0  0  0  0  0  0
  1  2  3  0
  2  3  1  0
  3  4  2  0
  3  5  1  0
  5  6  1  0
  6  7  1  0
  6  8  1  0
  8  9  1  0
  8  5  1  0
  1 10  1  0
  5 11  1  0
  6 12  1  0
  7 13  1  0
  8 14  1  0
  9 15  1  0
M  END
