
     RDKit          3D

 21 21  0  0  0  0  0  0  0  0999 V2000
   -3.1032   -0.9621    1.6278 C   0  0  0  0  0  0  0  0  0  0  0  0
   -2.0838   -0.5725    1.0969 C   0  0  0  0  0  0  0  0  0  0  0  0
   -0.8573   -0.1050    0.4742 C   0  0  0  0  0  0  0  0  0  0  0  0
   -1.0253    0.0023   -1.0184 C   0  0  0  0  0  0  0  0  0  0  0  0
   -0.2288    1.1529   -1.5138 C   0  0  0  0  0  0  0  0  0  0  0  0
    0.9688    1.4547   -1.0340 C   0  0  0  0  0  0  0  0  0  0  0  0
    1.8070    0.8566   -0.0049 C   0  0  0  0  0  0  0  0  0  0  0  0
    1.6196   -0.5763    0.2951 C   0  0  0  0  0  0  0  0  0  0  0  0
    0.2945   -1.0549    0.6936 C   0  0  0  0  0  0  0  0  0  0  0  0
   -4.0010   -1.3242    2.0917 H   0  0  0  0  0  0  0  0  0  0  0  0
   -0.5436    0.8926    0.8475 H   0  0  0  0  0  0  0  0  0  0  0  0
   -0.6961   -0.9410   -1.5101 H   0  0  0  0  0  0  0  0  0  0  0  0
   -2.1013    0.1081   -1.2610 H   0  0  0  0  0  0  0  0  0  0  0  0
   -0.6809    1.7337   -2.2906 H   0  0  0  0  0  0  0  0  0  0  0  0
    1.4038    2.3190   -1.5032 H   0  0  0  0  0  0  0  0  0  0  0  0
    1.6499    1.4335    0.9333 H   0  0  0  0  0  0  0  0  0  0  0  0
    2.8659    1.0339   -0.2889 H   0  0  0  0  0  0  0  0  0  0  0  0
    1.9121   -1.1384   -0.6464 H   0  0  0  0  0  0  0  0  0  0  0  0
    2.3717   -0.9256    1.0313 H   0  0  0  0  0  0  0  0  0  0  0  0
    0.3478   -1.3486    1.7872 H   0  0  0  0  0  0  0  0  0  0  0  0
    0.0803   -2.0384    0.1928 H   0  0  0  0  0  0  0  0  0  0  0  0
  1  2  3  0
  2  3  1  0
  3  4  1  0
  4  5  1  0
  5  6  2  0
  6  7  1  0
  7  8  1  0
  8  9  1  0
  9  3  1  0
  1 10  1  0
  3 11  1  0
  4 12  1  0
  4 13  1  0
  5 14  1  0
  6 15  1  0
  7 16  1  0
  7 17  1  0
  8 18  1  0
  8 19  1  0
  9 20  1  0
  9 21  1  0
M  END
