
     RDKit          3D

 14 15  0  0  0  0  0  0  0  0999 V2000
    3.3579    0.4639   -0.5937 C   0  0  0  0  0  0  0  0  0  0  0  0
    2.1352    0.4136   -0.5841 C   0  0  0  0  0  0  0  0  0  0  0  0
    0.6770    0.3398   -0.5929 C   0  0  0  0  0  0  0  0  0  0  0  0
    0.0560   -0.7633   -1.1624 O   0  0  0  0  0  0  0  0  0  0  0  0
    0.0624   -0.8077    0.2153 C   0  0  0  0  0  0  0  0  0  0  0  0
   -1.1612   -0.3781    0.9884 C   0  0  0  0  0  0  0  0  0  0  0  0
   -2.2778    0.1372    0.0819 C   0  0  0  0  0  0  0  0  0  0  0  0
   -2.3652   -1.0277    0.8116 O   0  0  0  0  0  0  0  0  0  0  0  0
    4.4248    0.5264   -0.6012 H   0  0  0  0  0  0  0  0  0  0  0  0
    0.1773    1.3028   -0.6030 H   0  0  0  0  0  0  0  0  0  0  0  0
    0.7545   -1.4897    0.7274 H   0  0  0  0  0  0  0  0  0  0  0  0
   -0.9325    0.1531    1.9123 H   0  0  0  0  0  0  0  0  0  0  0  0
   -2.1852   -0.0309   -1.0235 H   0  0  0  0  0  0  0  0  0  0  0  0
   -2.7233    1.0709    0.4238 H   0  0  0  0  0  0  0  0  0  0  0  0
  1  2  3  0
  2  3  1  0
  3  4  1  0
  4  5  1  0
  5  6  1  0
  6  7  1  0
  7  8  1  0
  5  3  1  0
  8  6  1  0
  1  9  1  0
  3 10  1  0
  5 11  1  0
  6 12  1  0
  7 13  1  0
  7 14  1  0
M  END
