
     RDKit          3D

 19 19  0  0  0  0  0  0  0  0999 V2000
    4.4211   -0.5716   -1.0670 C   0  0  0  0  0  0  0  0  0  0  0  0
    3.2584   -0.3423   -1.1616 C   0  0  0  0  0  0  0  0  0  0  0  0
    2.1537   -0.1283   -1.2681 C   0  0  0  0  0  0  0  0  0  0  0  0
    0.7742    0.1149   -1.3989 C   0  0  0  0  0  0  0  0  0  0  0  0
   -0.9447    0.4356   -1.5473 C   0  0  0  0  0  0  0  0  0  0  0  0
   -0.7744    0.9260   -0.0454 C   0  0  0  0  0  0  0  0  0  0  0  0
   -0.2075   -0.2357    0.7497 C   0  0  0  0  0  0  0  0  0  0  0  0
   -1.6215   -0.8042    0.8187 C   0  0  0  0  0  0  0  0  0  0  0  0
   -2.0967    0.6059    0.5305 C   0  0  0  0  0  0  0  0  0  0  0  0
    5.8106   -0.8469   -0.9363 H   0  0  0  0  0  0  0  0  0  0  0  0
   -0.5979    1.2761   -2.2225 H   0  0  0  0  0  0  0  0  0  0  0  0
   -1.1712   -0.4909   -1.7144 H   0  0  0  0  0  0  0  0  0  0  0  0
   -0.3605    1.8930   -0.0106 H   0  0  0  0  0  0  0  0  0  0  0  0
    0.0471    0.1921    1.7906 H   0  0  0  0  0  0  0  0  0  0  0  0
    0.5161   -0.8885    0.3126 H   0  0  0  0  0  0  0  0  0  0  0  0
   -1.8254   -1.1961    1.8602 H   0  0  0  0  0  0  0  0  0  0  0  0
   -1.8459   -1.5739    0.0617 H   0  0  0  0  0  0  0  0  0  0  0  0
   -2.9449    0.4618   -0.3424 H   0  0  0  0  0  0  0  0  0  0  0  0
   -2.5906    1.1728    1.3162 H   0  0  0  0  0  0  0  0  0  0  0  0
  1  2  3  0
  2  3  1  0
  3  4  3  0
  4  5  1  0
  5  6  1  0
  6  7  1  0
  7  8  1  0
  8  9  1  0
  9  6  1  0
  1 10  1  0
  5 11  1  0
  5 12  1  0
  6 13  1  0
  7 14  1  0
  7 15  1  0
  8 16  1  0
  8 17  1  0
  9 18  1  0
  9 19  1  0
M  END
