
     RDKit          3D

 17 19  0  0  0  0  0  0  0  0999 V2000
    2.7667    0.7339    1.6092 C   0  0  0  0  0  0  0  0  0  0  0  0
    1.6957    0.7570    1.0137 C   0  0  0  0  0  0  0  0  0  0  0  0
    0.4473    0.7909    0.2918 C   0  0  0  0  0  0  0  0  0  0  0  0
   -0.0857    1.9610   -0.1781 O   0  0  0  0  0  0  0  0  0  0  0  0
   -0.7351    1.0997    0.8479 C   0  0  0  0  0  0  0  0  0  0  0  0
   -1.4640   -0.0474    0.2387 C   0  0  0  0  0  0  0  0  0  0  0  0
   -0.8895   -1.4080    0.4562 C   0  0  0  0  0  0  0  0  0  0  0  0
   -0.0867   -0.4814   -0.3453 C   0  0  0  0  0  0  0  0  0  0  0  0
   -0.0021   -0.5282   -1.8409 C   0  0  0  0  0  0  0  0  0  0  0  0
    3.7179    0.7086    2.1174 H   0  0  0  0  0  0  0  0  0  0  0  0
   -1.1450    1.7588    1.6047 H   0  0  0  0  0  0  0  0  0  0  0  0
   -2.2409    0.1024   -0.5205 H   0  0  0  0  0  0  0  0  0  0  0  0
   -1.3325   -2.2758   -0.0980 H   0  0  0  0  0  0  0  0  0  0  0  0
   -0.5360   -1.5804    1.5108 H   0  0  0  0  0  0  0  0  0  0  0  0
   -0.3962    0.4517   -2.2304 H   0  0  0  0  0  0  0  0  0  0  0  0
    0.9940   -0.7479   -2.2261 H   0  0  0  0  0  0  0  0  0  0  0  0
   -0.7078   -1.2949   -2.2512 H   0  0  0  0  0  0  0  0  0  0  0  0
  1  2  3  0
  2  3  1  0
  3  4  1  0
  4  5  1  0
  5  6  1  0
  6  7  1  0
  7  8  1  0
  8  9  1  0
  5  3  1  0
  8  6  1  0
  8  3  1  0
  1 10  1  0
  5 11  1  0
  6 12  1  0
  7 13  1  0
  7 14  1  0
  9 15  1  0
  9 16  1  0
  9 17  1  0
M  END
