
     RDKit          3D

 15 15  0  0  0  0  0  0  0  0999 V2000
   -2.0024    1.7583    0.6407 C   0  0  0  0  0  0  0  0  0  0  0  0
   -1.2731    0.5952   -0.2043 C   0  0  0  0  0  0  0  0  0  0  0  0
   -0.7256   -0.2411   -0.8132 C   0  0  0  0  0  0  0  0  0  0  0  0
    0.6856    0.6530   -1.3482 C   0  0  0  0  0  0  0  0  0  0  0  0
    1.4800    1.1768   -1.6564 C   0  0  0  0  0  0  0  0  0  0  0  0
   -0.2168   -1.5203   -0.7258 O   0  0  0  0  0  0  0  0  0  0  0  0
   -0.6338   -1.5348    0.5763 C   0  0  0  0  0  0  0  0  0  0  0  0
    0.4745   -0.4837    0.7001 C   0  0  0  0  0  0  0  0  0  0  0  0
    1.5753   -0.8528   -0.0315 O   0  0  0  0  0  0  0  0  0  0  0  0
   -2.4384    2.4430    1.1362 H   0  0  0  0  0  0  0  0  0  0  0  0
    2.5841    1.9139   -2.0683 H   0  0  0  0  0  0  0  0  0  0  0  0
   -1.6332   -1.0653    0.6791 H   0  0  0  0  0  0  0  0  0  0  0  0
   -0.4811   -2.4706    1.1644 H   0  0  0  0  0  0  0  0  0  0  0  0
    0.2655    0.4489    1.0623 H   0  0  0  0  0  0  0  0  0  0  0  0
    2.3395   -0.8205    0.6520 H   0  0  0  0  0  0  0  0  0  0  0  0
  1  2  3  0
  2  3  1  0
  3  4  1  0
  4  5  3  0
  3  6  1  0
  6  7  1  0
  7  8  1  0
  8  9  1  0
  8  3  1  0
  1 10  1  0
  5 11  1  0
  7 12  1  0
  7 13  1  0
  8 14  1  0
  9 15  1  0
M  END
