
     RDKit          3D

 21 21  0  0  0  0  0  0  0  0999 V2000
   -2.2903    2.0612    0.0326 C   0  0  0  0  0  0  0  0  0  0  0  0
   -1.4370    1.1568   -0.1080 C   0  0  0  0  0  0  0  0  0  0  0  0
   -0.5433    0.1837   -0.2701 C   0  0  0  0  0  0  0  0  0  0  0  0
   -0.4657   -0.0353   -1.7504 O   0  0  0  0  0  0  0  0  0  0  0  0
    0.8802    0.7935    0.0008 C   0  0  0  0  0  0  0  0  0  0  0  0
    1.1639    1.8870   -1.0281 C   0  0  0  0  0  0  0  0  0  0  0  0
   -0.5520   -1.1995    0.3017 C   0  0  0  0  0  0  0  0  0  0  0  0
   -0.5624   -2.4384    0.8576 C   0  0  0  0  0  0  0  0  0  0  0  0
    0.6318   -1.9879    0.0080 C   0  0  0  0  0  0  0  0  0  0  0  0
   -3.0350    2.8758    0.1502 H   0  0  0  0  0  0  0  0  0  0  0  0
   -1.0637    0.5904   -2.1801 H   0  0  0  0  0  0  0  0  0  0  0  0
    1.5871   -0.0043   -0.1640 H   0  0  0  0  0  0  0  0  0  0  0  0
    0.7881    1.1881    1.0055 H   0  0  0  0  0  0  0  0  0  0  0  0
    0.8625    2.8637   -0.6850 H   0  0  0  0  0  0  0  0  0  0  0  0
    0.7692    1.5449   -1.9779 H   0  0  0  0  0  0  0  0  0  0  0  0
    2.2976    1.8249   -1.1314 H   0  0  0  0  0  0  0  0  0  0  0  0
   -0.0908   -0.5652    1.5304 H   0  0  0  0  0  0  0  0  0  0  0  0
   -0.9721   -3.4337    0.4458 H   0  0  0  0  0  0  0  0  0  0  0  0
   -0.2327   -2.7148    1.9206 H   0  0  0  0  0  0  0  0  0  0  0  0
    1.6066   -2.0699    0.4721 H   0  0  0  0  0  0  0  0  0  0  0  0
    0.6578   -2.5210   -1.0093 H   0  0  0  0  0  0  0  0  0  0  0  0
  1  2  3  0
  2  3  1  0
  3  4  1  0
  3  5  1  0
  5  6  1  0
  3  7  1  0
  7  8  1  0
  8  9  1  0
  9  7  1  0
  1 10  1  0
  4 11  1  0
  5 12  1  0
  5 13  1  0
  6 14  1  0
  6 15  1  0
  6 16  1  0
  7 17  1  0
  8 18  1  0
  8 19  1  0
  9 20  1  0
  9 21  1  0
M  END
