
     RDKit          3D

 17 17  0  0  0  0  0  0  0  0999 V2000
   -2.2646   -0.1753   -2.1107 C   0  0  0  0  0  0  0  0  0  0  0  0
   -1.7949   -0.0496   -0.9876 C   0  0  0  0  0  0  0  0  0  0  0  0
   -1.2230    0.0808    0.3537 C   0  0  0  0  0  0  0  0  0  0  0  0
    0.1238    0.6966    0.2516 C   0  0  0  0  0  0  0  0  0  0  0  0
    0.8245    0.8856    1.6036 C   0  0  0  0  0  0  0  0  0  0  0  0
    1.2748   -0.4254    1.4531 O   0  0  0  0  0  0  0  0  0  0  0  0
    1.3170   -0.1927    0.0842 C   0  0  0  0  0  0  0  0  0  0  0  0
    1.1826   -1.3533   -0.7778 C   0  0  0  0  0  0  0  0  0  0  0  0
    1.0361   -2.4529   -0.2890 O   0  0  0  0  0  0  0  0  0  0  0  0
   -2.6794   -0.2996   -3.0772 H   0  0  0  0  0  0  0  0  0  0  0  0
   -1.8847    0.7963    0.9131 H   0  0  0  0  0  0  0  0  0  0  0  0
   -1.2497   -0.8967    0.8328 H   0  0  0  0  0  0  0  0  0  0  0  0
    0.1325    1.6611   -0.2858 H   0  0  0  0  0  0  0  0  0  0  0  0
    0.1116    0.9695    2.4465 H   0  0  0  0  0  0  0  0  0  0  0  0
    1.6701    1.5743    1.5785 H   0  0  0  0  0  0  0  0  0  0  0  0
    2.2141    0.4510   -0.1366 H   0  0  0  0  0  0  0  0  0  0  0  0
    1.2094   -1.2698   -1.8526 H   0  0  0  0  0  0  0  0  0  0  0  0
  1  2  3  0
  2  3  1  0
  3  4  1  0
  4  5  1  0
  5  6  1  0
  6  7  1  0
  7  8  1  0
  8  9  2  0
  7  4  1  0
  1 10  1  0
  3 11  1  0
  3 12  1  0
  4 13  1  0
  5 14  1  0
  5 15  1  0
  7 16  1  0
  8 17  1  0
M  END
