
     RDKit          3D

 21 21  0  0  0  0  0  0  0  0999 V2000
   -0.5222    3.0404    0.3801 C   0  0  0  0  0  0  0  0  0  0  0  0
   -0.2597    1.9132   -0.0020 C   0  0  0  0  0  0  0  0  0  0  0  0
    0.0674    0.5523   -0.4408 C   0  0  0  0  0  0  0  0  0  0  0  0
   -0.8330    0.1467   -1.5896 C   0  0  0  0  0  0  0  0  0  0  0  0
   -0.6835    1.0646   -2.7785 C   0  0  0  0  0  0  0  0  0  0  0  0
   -0.2347   -0.3150    0.6001 O   0  0  0  0  0  0  0  0  0  0  0  0
    0.8579   -1.0569    1.0230 C   0  0  0  0  0  0  0  0  0  0  0  0
    0.8409   -1.3371    2.5228 C   0  0  0  0  0  0  0  0  0  0  0  0
    0.5025   -2.4284    1.5800 C   0  0  0  0  0  0  0  0  0  0  0  0
   -0.7618    4.0281    0.6987 H   0  0  0  0  0  0  0  0  0  0  0  0
    1.1417    0.4804   -0.7347 H   0  0  0  0  0  0  0  0  0  0  0  0
   -1.8776    0.2324   -1.2213 H   0  0  0  0  0  0  0  0  0  0  0  0
   -0.5770   -0.8748   -1.9039 H   0  0  0  0  0  0  0  0  0  0  0  0
   -1.0177    2.0844   -2.5001 H   0  0  0  0  0  0  0  0  0  0  0  0
   -1.3665    0.6792   -3.5649 H   0  0  0  0  0  0  0  0  0  0  0  0
    0.3345    1.0735   -3.1853 H   0  0  0  0  0  0  0  0  0  0  0  0
    1.8432   -0.9328    0.5480 H   0  0  0  0  0  0  0  0  0  0  0  0
    1.8590   -1.3962    2.9978 H   0  0  0  0  0  0  0  0  0  0  0  0
    0.0230   -0.9391    3.1361 H   0  0  0  0  0  0  0  0  0  0  0  0
    1.2170   -3.2627    1.3800 H   0  0  0  0  0  0  0  0  0  0  0  0
   -0.5536   -2.7525    1.5300 H   0  0  0  0  0  0  0  0  0  0  0  0
  1  2  3  0
  2  3  1  0
  3  4  1  0
  4  5  1  0
  3  6  1  0
  6  7  1  0
  7  8  1  0
  8  9  1  0
  9  7  1  0
  1 10  1  0
  3 11  1  0
  4 12  1  0
  4 13  1  0
  5 14  1  0
  5 15  1  0
  5 16  1  0
  7 17  1  0
  8 18  1  0
  8 19  1  0
  9 20  1  0
  9 21  1  0
M  END
