
     RDKit          3D

 17 18  0  0  0  0  0  0  0  0999 V2000
    2.3350    0.8259   -1.8149 C   0  0  0  0  0  0  0  0  0  0  0  0
    1.6076    0.3989   -0.9532 C   0  0  0  0  0  0  0  0  0  0  0  0
    0.7004   -0.1044    0.1060 C   0  0  0  0  0  0  0  0  0  0  0  0
    1.3027   -1.2047    0.9427 C   0  0  0  0  0  0  0  0  0  0  0  0
    0.2172    1.0239    0.9812 O   0  0  0  0  0  0  0  0  0  0  0  0
   -0.5983    0.2717    0.1822 C   0  0  0  0  0  0  0  0  0  0  0  0
   -1.8216   -0.4040    0.6835 C   0  0  0  0  0  0  0  0  0  0  0  0
   -2.4421   -0.0894   -0.5491 O   0  0  0  0  0  0  0  0  0  0  0  0
   -1.5190    0.9283   -0.7802 C   0  0  0  0  0  0  0  0  0  0  0  0
    2.9716    1.1869   -2.5821 H   0  0  0  0  0  0  0  0  0  0  0  0
    2.2169   -1.6297    0.5026 H   0  0  0  0  0  0  0  0  0  0  0  0
    0.5628   -2.0051    1.1321 H   0  0  0  0  0  0  0  0  0  0  0  0
    1.6048   -0.8272    1.9620 H   0  0  0  0  0  0  0  0  0  0  0  0
   -1.7702   -1.4689    0.9053 H   0  0  0  0  0  0  0  0  0  0  0  0
   -2.3751    0.1553    1.4868 H   0  0  0  0  0  0  0  0  0  0  0  0
   -1.1434    1.0141   -1.8047 H   0  0  0  0  0  0  0  0  0  0  0  0
   -1.8494    1.9284   -0.4002 H   0  0  0  0  0  0  0  0  0  0  0  0
  1  2  3  0
  2  3  1  0
  3  4  1  0
  3  5  1  0
  5  6  1  0
  6  7  1  0
  7  8  1  0
  8  9  1  0
  6  3  1  0
  9  6  1  0
  1 10  1  0
  4 11  1  0
  4 12  1  0
  4 13  1  0
  7 14  1  0
  7 15  1  0
  9 16  1  0
  9 17  1  0
M  END
