
     RDKit          3D

 19 20  0  0  0  0  0  0  0  0999 V2000
    1.9704   -1.7347    0.5249 C   0  0  0  0  0  0  0  0  0  0  0  0
    1.6375   -0.8361   -0.2108 C   0  0  0  0  0  0  0  0  0  0  0  0
    1.2394    0.2654   -1.0931 C   0  0  0  0  0  0  0  0  0  0  0  0
    1.1496    1.6680   -0.4649 C   0  0  0  0  0  0  0  0  0  0  0  0
   -0.0507    0.9321   -0.8828 C   0  0  0  0  0  0  0  0  0  0  0  0
   -1.0369    0.3665    0.0979 C   0  0  0  0  0  0  0  0  0  0  0  0
   -0.6838    0.2174    1.5398 C   0  0  0  0  0  0  0  0  0  0  0  0
   -2.0067   -0.6144   -0.4951 C   0  0  0  0  0  0  0  0  0  0  0  0
   -2.4135    0.6915   -0.0951 O   0  0  0  0  0  0  0  0  0  0  0  0
    2.2843   -2.5287    1.1770 H   0  0  0  0  0  0  0  0  0  0  0  0
    1.6660    0.2100   -2.1316 H   0  0  0  0  0  0  0  0  0  0  0  0
    1.5415    2.4861   -1.1223 H   0  0  0  0  0  0  0  0  0  0  0  0
    1.4951    1.7013    0.5758 H   0  0  0  0  0  0  0  0  0  0  0  0
   -0.5412    1.3217   -1.8219 H   0  0  0  0  0  0  0  0  0  0  0  0
   -0.7791   -0.8711    1.7998 H   0  0  0  0  0  0  0  0  0  0  0  0
   -1.4170    0.7266    2.2258 H   0  0  0  0  0  0  0  0  0  0  0  0
    0.3027    0.5921    1.8106 H   0  0  0  0  0  0  0  0  0  0  0  0
   -2.0559   -0.7410   -1.5972 H   0  0  0  0  0  0  0  0  0  0  0  0
   -2.3017   -1.4557    0.1635 H   0  0  0  0  0  0  0  0  0  0  0  0
  1  2  3  0
  2  3  1  0
  3  4  1  0
  4  5  1  0
  5  6  1  0
  6  7  1  0
  6  8  1  0
  8  9  1  0
  5  3  1  0
  9  6  1  0
  1 10  1  0
  3 11  1  0
  4 12  1  0
  4 13  1  0
  5 14  1  0
  7 15  1  0
  7 16  1  0
  7 17  1  0
  8 18  1  0
  8 19  1  0
M  END
