
     RDKit          3D

 19 19  0  0  0  0  0  0  0  0999 V2000
   -2.5101    2.0244    0.0737 C   0  0  0  0  0  0  0  0  0  0  0  0
   -1.4723    1.4271   -0.0634 C   0  0  0  0  0  0  0  0  0  0  0  0
   -0.2383    0.7362   -0.2070 C   0  0  0  0  0  0  0  0  0  0  0  0
    0.9408    1.3570   -0.3375 C   0  0  0  0  0  0  0  0  0  0  0  0
    2.1413    0.5340   -0.4781 C   0  0  0  0  0  0  0  0  0  0  0  0
    2.1818   -0.6156    0.2555 O   0  0  0  0  0  0  0  0  0  0  0  0
    0.9926   -1.1096    0.7122 C   0  0  0  0  0  0  0  0  0  0  0  0
   -0.1492   -0.7621   -0.2244 C   0  0  0  0  0  0  0  0  0  0  0  0
   -1.4327   -1.4042    0.1788 C   0  0  0  0  0  0  0  0  0  0  0  0
   -3.4294    2.5396    0.1841 H   0  0  0  0  0  0  0  0  0  0  0  0
    0.9814    2.4226   -0.3364 H   0  0  0  0  0  0  0  0  0  0  0  0
    2.2805    0.2645   -1.5650 H   0  0  0  0  0  0  0  0  0  0  0  0
    3.0258    1.1778   -0.2147 H   0  0  0  0  0  0  0  0  0  0  0  0
    1.1012   -2.2225    0.8104 H   0  0  0  0  0  0  0  0  0  0  0  0
    0.7280   -0.6553    1.7074 H   0  0  0  0  0  0  0  0  0  0  0  0
    0.1196   -1.0496   -1.2610 H   0  0  0  0  0  0  0  0  0  0  0  0
   -1.6195   -1.2388    1.2684 H   0  0  0  0  0  0  0  0  0  0  0  0
   -1.3955   -2.4687   -0.0672 H   0  0  0  0  0  0  0  0  0  0  0  0
   -2.2458   -0.9568   -0.4358 H   0  0  0  0  0  0  0  0  0  0  0  0
  1  2  3  0
  2  3  1  0
  3  4  2  0
  4  5  1  0
  5  6  1  0
  6  7  1  0
  7  8  1  0
  8  9  1  0
  8  3  1  0
  1 10  1  0
  4 11  1  0
  5 12  1  0
  5 13  1  0
  7 14  1  0
  7 15  1  0
  8 16  1  0
  9 17  1  0
  9 18  1  0
  9 19  1  0
M  END
