
     RDKit          3D

 21 21  0  0  0  0  0  0  0  0999 V2000
    2.9745    1.2497   -0.4816 C   0  0  0  0  0  0  0  0  0  0  0  0
    2.0908    0.4676   -0.1642 C   0  0  0  0  0  0  0  0  0  0  0  0
    1.0423   -0.4841    0.1987 C   0  0  0  0  0  0  0  0  0  0  0  0
    1.3768   -1.0831    1.5140 C   0  0  0  0  0  0  0  0  0  0  0  0
   -0.2858    0.2093    0.1562 C   0  0  0  0  0  0  0  0  0  0  0  0
   -0.5694    0.7484   -1.2298 C   0  0  0  0  0  0  0  0  0  0  0  0
   -2.0732    0.8729   -1.1823 C   0  0  0  0  0  0  0  0  0  0  0  0
   -2.5507    0.0258   -0.2824 C   0  0  0  0  0  0  0  0  0  0  0  0
   -1.4453   -0.7383    0.3540 C   0  0  0  0  0  0  0  0  0  0  0  0
    3.7352    1.9381   -0.7424 H   0  0  0  0  0  0  0  0  0  0  0  0
    1.0452   -1.2809   -0.5834 H   0  0  0  0  0  0  0  0  0  0  0  0
    2.3927   -1.5034    1.4877 H   0  0  0  0  0  0  0  0  0  0  0  0
    1.4185   -0.2542    2.2811 H   0  0  0  0  0  0  0  0  0  0  0  0
    0.6290   -1.7953    1.8996 H   0  0  0  0  0  0  0  0  0  0  0  0
   -0.3041    1.0656    0.8570 H   0  0  0  0  0  0  0  0  0  0  0  0
   -0.0835    1.7080   -1.4326 H   0  0  0  0  0  0  0  0  0  0  0  0
   -0.3055   -0.0477   -1.9493 H   0  0  0  0  0  0  0  0  0  0  0  0
   -2.6050    1.5720   -1.8191 H   0  0  0  0  0  0  0  0  0  0  0  0
   -3.5983   -0.0866   -0.0505 H   0  0  0  0  0  0  0  0  0  0  0  0
   -1.2439   -1.6349   -0.2526 H   0  0  0  0  0  0  0  0  0  0  0  0
   -1.6403   -0.9489    1.4218 H   0  0  0  0  0  0  0  0  0  0  0  0
  1  2  3  0
  2  3  1  0
  3  4  1  0
  3  5  1  0
  5  6  1  0
  6  7  1  0
  7  8  2  0
  8  9  1  0
  9  5  1  0
  1 10  1  0
  3 11  1  0
  4 12  1  0
  4 13  1  0
  4 14  1  0
  5 15  1  0
  6 16  1  0
  6 17  1  0
  7 18  1  0
  8 19  1  0
  9 20  1  0
  9 21  1  0
M  END
