
     RDKit          3D

 19 19  0  0  0  0  0  0  0  0999 V2000
    1.9656    2.3308   -1.6083 C   0  0  0  0  0  0  0  0  0  0  0  0
    1.1945    1.4848   -1.1921 C   0  0  0  0  0  0  0  0  0  0  0  0
    0.2894    0.5016   -0.6955 C   0  0  0  0  0  0  0  0  0  0  0  0
   -0.0291    0.2787    0.5688 C   0  0  0  0  0  0  0  0  0  0  0  0
    0.5550    1.0806    1.6818 C   0  0  0  0  0  0  0  0  0  0  0  0
   -0.9828   -0.8511    0.6815 C   0  0  0  0  0  0  0  0  0  0  0  0
   -0.5807   -1.6971    1.7288 O   0  0  0  0  0  0  0  0  0  0  0  0
   -0.6966   -1.6266   -0.6072 C   0  0  0  0  0  0  0  0  0  0  0  0
   -0.4629   -0.4765   -1.5697 C   0  0  0  0  0  0  0  0  0  0  0  0
    2.6523    3.0771   -1.9918 H   0  0  0  0  0  0  0  0  0  0  0  0
    1.6265    0.9133    1.8260 H   0  0  0  0  0  0  0  0  0  0  0  0
    0.0357    0.9371    2.6488 H   0  0  0  0  0  0  0  0  0  0  0  0
    0.4170    2.1621    1.4021 H   0  0  0  0  0  0  0  0  0  0  0  0
   -2.0257   -0.5254    0.7493 H   0  0  0  0  0  0  0  0  0  0  0  0
   -1.2681   -2.3522    1.9181 H   0  0  0  0  0  0  0  0  0  0  0  0
    0.2273   -2.2311   -0.4777 H   0  0  0  0  0  0  0  0  0  0  0  0
   -1.5444   -2.2490   -0.8414 H   0  0  0  0  0  0  0  0  0  0  0  0
    0.0827   -0.7415   -2.4709 H   0  0  0  0  0  0  0  0  0  0  0  0
   -1.4557   -0.0156   -1.7507 H   0  0  0  0  0  0  0  0  0  0  0  0
  1  2  3  0
  2  3  1  0
  3  4  2  0
  4  5  1  0
  4  6  1  0
  6  7  1  0
  6  8  1  0
  8  9  1  0
  9  3  1  0
  1 10  1  0
  5 11  1  0
  5 12  1  0
  5 13  1  0
  6 14  1  0
  7 15  1  0
  8 16  1  0
  8 17  1  0
  9 18  1  0
  9 19  1  0
M  END
