
     RDKit          3D

 19 18  0  0  0  0  0  0  0  0999 V2000
    4.2487   -0.0982   -0.3006 C   0  0  0  0  0  0  0  0  0  0  0  0
    3.1524   -0.0233    0.1839 C   0  0  0  0  0  0  0  0  0  0  0  0
    1.8304    0.0556    0.7700 C   0  0  0  0  0  0  0  0  0  0  0  0
    0.8795   -0.6826   -0.0667 C   0  0  0  0  0  0  0  0  0  0  0  0
    1.2372   -1.2388   -1.0954 O   0  0  0  0  0  0  0  0  0  0  0  0
   -0.5488   -0.7544    0.3473 C   0  0  0  0  0  0  0  0  0  0  0  0
   -1.4025    0.2383   -0.4478 C   0  0  0  0  0  0  0  0  0  0  0  0
   -2.8399    0.1709   -0.0335 C   0  0  0  0  0  0  0  0  0  0  0  0
   -0.8930    1.5302   -0.1789 O   0  0  0  0  0  0  0  0  0  0  0  0
    5.2353   -0.1480   -0.7333 H   0  0  0  0  0  0  0  0  0  0  0  0
    1.7952   -0.4223    1.7956 H   0  0  0  0  0  0  0  0  0  0  0  0
    1.4742    1.0954    0.9029 H   0  0  0  0  0  0  0  0  0  0  0  0
   -0.6937   -0.5810    1.4283 H   0  0  0  0  0  0  0  0  0  0  0  0
   -0.9361   -1.7876    0.1507 H   0  0  0  0  0  0  0  0  0  0  0  0
   -1.2320    0.0766   -1.5280 H   0  0  0  0  0  0  0  0  0  0  0  0
   -3.2689    1.1339    0.2923 H   0  0  0  0  0  0  0  0  0  0  0  0
   -2.9246   -0.5259    0.8467 H   0  0  0  0  0  0  0  0  0  0  0  0
   -3.5140   -0.2472   -0.7969 H   0  0  0  0  0  0  0  0  0  0  0  0
   -1.5994    2.2083   -0.1912 H   0  0  0  0  0  0  0  0  0  0  0  0
  1  2  3  0
  2  3  1  0
  3  4  1  0
  4  5  2  0
  4  6  1  0
  6  7  1  0
  7  8  1  0
  7  9  1  0
  1 10  1  0
  3 11  1  0
  3 12  1  0
  6 13  1  0
  6 14  1  0
  7 15  1  0
  8 16  1  0
  8 17  1  0
  8 18  1  0
  9 19  1  0
M  END
