
     RDKit          3D

 23 23  0  0  0  0  0  0  0  0999 V2000
    3.4469   -0.0151   -0.9966 C   0  0  0  0  0  0  0  0  0  0  0  0
    2.4443    0.4741   -0.5379 C   0  0  0  0  0  0  0  0  0  0  0  0
    1.2193    1.0568    0.0110 C   0  0  0  0  0  0  0  0  0  0  0  0
    0.1924   -0.0052    0.3333 C   0  0  0  0  0  0  0  0  0  0  0  0
    0.6300   -1.0263    1.3369 C   0  0  0  0  0  0  0  0  0  0  0  0
   -1.2595    0.3778    0.4106 C   0  0  0  0  0  0  0  0  0  0  0  0
   -1.6538    1.8282    0.3429 C   0  0  0  0  0  0  0  0  0  0  0  0
   -0.7372   -0.3405   -0.7685 C   0  0  0  0  0  0  0  0  0  0  0  0
   -1.1809   -1.7711   -1.0009 C   0  0  0  0  0  0  0  0  0  0  0  0
    4.3450   -0.4474   -1.3884 H   0  0  0  0  0  0  0  0  0  0  0  0
    1.4780    1.5569    0.9602 H   0  0  0  0  0  0  0  0  0  0  0  0
    0.8311    1.7627   -0.7577 H   0  0  0  0  0  0  0  0  0  0  0  0
    1.5203   -1.5942    1.0595 H   0  0  0  0  0  0  0  0  0  0  0  0
    0.8742   -0.4910    2.2943 H   0  0  0  0  0  0  0  0  0  0  0  0
   -0.2421   -1.6942    1.5703 H   0  0  0  0  0  0  0  0  0  0  0  0
   -1.9237   -0.2282    1.0718 H   0  0  0  0  0  0  0  0  0  0  0  0
   -0.8258    2.5134    0.6191 H   0  0  0  0  0  0  0  0  0  0  0  0
   -2.4959    2.0722    1.0234 H   0  0  0  0  0  0  0  0  0  0  0  0
   -1.9986    2.1184   -0.6853 H   0  0  0  0  0  0  0  0  0  0  0  0
   -0.6851    0.2483   -1.7062 H   0  0  0  0  0  0  0  0  0  0  0  0
   -1.6806   -2.1852   -0.1030 H   0  0  0  0  0  0  0  0  0  0  0  0
   -0.3574   -2.4386   -1.2783 H   0  0  0  0  0  0  0  0  0  0  0  0
   -1.9409   -1.7718   -1.8104 H   0  0  0  0  0  0  0  0  0  0  0  0
  1  2  3  0
  2  3  1  0
  3  4  1  0
  4  5  1  0
  4  6  1  0
  6  7  1  0
  6  8  1  0
  8  9  1  0
  8  4  1  0
  1 10  1  0
  3 11  1  0
  3 12  1  0
  5 13  1  0
  5 14  1  0
  5 15  1  0
  6 16  1  0
  7 17  1  0
  7 18  1  0
  7 19  1  0
  8 20  1  0
  9 21  1  0
  9 22  1  0
  9 23  1  0
M  END
