
     RDKit          3D

 23 23  0  0  0  0  0  0  0  0999 V2000
   -0.4620    3.4500    0.8992 C   0  0  0  0  0  0  0  0  0  0  0  0
   -0.3148    2.3170    0.5295 C   0  0  0  0  0  0  0  0  0  0  0  0
   -0.1030    0.8817    0.0506 C   0  0  0  0  0  0  0  0  0  0  0  0
    0.5646    0.0743    1.0815 C   0  0  0  0  0  0  0  0  0  0  0  0
    0.9192   -1.3488    0.8274 C   0  0  0  0  0  0  0  0  0  0  0  0
    1.8881   -1.4852   -0.3215 C   0  0  0  0  0  0  0  0  0  0  0  0
   -0.0416    0.6846   -1.3921 C   0  0  0  0  0  0  0  0  0  0  0  0
   -1.3378    0.4396   -0.7216 C   0  0  0  0  0  0  0  0  0  0  0  0
   -1.9247   -0.8789   -0.4371 C   0  0  0  0  0  0  0  0  0  0  0  0
   -0.6070    4.4456    1.2202 H   0  0  0  0  0  0  0  0  0  0  0  0
    0.0218    0.1368    2.0875 H   0  0  0  0  0  0  0  0  0  0  0  0
    1.5583    0.5762    1.3681 H   0  0  0  0  0  0  0  0  0  0  0  0
    0.1049   -2.0550    0.6897 H   0  0  0  0  0  0  0  0  0  0  0  0
    1.4644   -1.6987    1.7680 H   0  0  0  0  0  0  0  0  0  0  0  0
    1.4021   -2.0752   -1.1288 H   0  0  0  0  0  0  0  0  0  0  0  0
    2.7906   -2.0458    0.0699 H   0  0  0  0  0  0  0  0  0  0  0  0
    2.2788   -0.5165   -0.6517 H   0  0  0  0  0  0  0  0  0  0  0  0
    0.3643   -0.1514   -1.9454 H   0  0  0  0  0  0  0  0  0  0  0  0
    0.0152    1.6414   -2.0039 H   0  0  0  0  0  0  0  0  0  0  0  0
   -2.1326    1.2304   -0.9382 H   0  0  0  0  0  0  0  0  0  0  0  0
   -1.9711   -1.0430    0.6567 H   0  0  0  0  0  0  0  0  0  0  0  0
   -1.4472   -1.7270   -0.9704 H   0  0  0  0  0  0  0  0  0  0  0  0
   -3.0304   -0.8522   -0.7378 H   0  0  0  0  0  0  0  0  0  0  0  0
  1  2  3  0
  2  3  1  0
  3  4  1  0
  4  5  1  0
  5  6  1  0
  3  7  1  0
  7  8  1  0
  8  9  1  0
  8  3  1  0
  1 10  1  0
  4 11  1  0
  4 12  1  0
  5 13  1  0
  5 14  1  0
  6 15  1  0
  6 16  1  0
  6 17  1  0
  7 18  1  0
  7 19  1  0
  8 20  1  0
  9 21  1  0
  9 22  1  0
  9 23  1  0
M  END
