
     RDKit          3D

 18 18  0  0  0  0  0  0  0  0999 V2000
    2.1825    1.0989    1.0993 C   0  0  0  0  0  0  0  0  0  0  0  0
    1.3481    0.3967    0.5838 C   0  0  0  0  0  0  0  0  0  0  0  0
    0.3181   -0.4398   -0.0558 C   0  0  0  0  0  0  0  0  0  0  0  0
    0.7704   -1.8611   -0.2743 C   0  0  0  0  0  0  0  0  0  0  0  0
   -1.0151   -0.3098    0.6578 C   0  0  0  0  0  0  0  0  0  0  0  0
   -1.2756    0.8784   -0.2472 C   0  0  0  0  0  0  0  0  0  0  0  0
   -0.6685    2.0418    0.2330 O   0  0  0  0  0  0  0  0  0  0  0  0
   -0.3478    0.2095   -1.2433 C   0  0  0  0  0  0  0  0  0  0  0  0
    2.9183    1.7266    1.5747 H   0  0  0  0  0  0  0  0  0  0  0  0
    1.7456   -1.8049   -0.8026 H   0  0  0  0  0  0  0  0  0  0  0  0
    0.0239   -2.3476   -0.9203 H   0  0  0  0  0  0  0  0  0  0  0  0
    0.9119   -2.3817    0.6813 H   0  0  0  0  0  0  0  0  0  0  0  0
   -1.7094   -1.1407    0.4642 H   0  0  0  0  0  0  0  0  0  0  0  0
   -0.9169   -0.0274    1.7361 H   0  0  0  0  0  0  0  0  0  0  0  0
   -2.3184    0.9929   -0.5872 H   0  0  0  0  0  0  0  0  0  0  0  0
   -1.3640    2.5757    0.7353 H   0  0  0  0  0  0  0  0  0  0  0  0
   -0.9051   -0.5190   -1.8338 H   0  0  0  0  0  0  0  0  0  0  0  0
    0.3020    0.9118   -1.8011 H   0  0  0  0  0  0  0  0  0  0  0  0
  1  2  3  0
  2  3  1  0
  3  4  1  0
  3  5  1  0
  5  6  1  0
  6  7  1  0
  6  8  1  0
  8  3  1  0
  1  9  1  0
  4 10  1  0
  4 11  1  0
  4 12  1  0
  5 13  1  0
  5 14  1  0
  6 15  1  0
  7 16  1  0
  8 17  1  0
  8 18  1  0
M  END
