
     RDKit          3D

 17 18  0  0  0  0  0  0  0  0999 V2000
    2.1233    1.0844    0.8297 C   0  0  0  0  0  0  0  0  0  0  0  0
    1.4392    0.3568    0.1566 C   0  0  0  0  0  0  0  0  0  0  0  0
    0.6043   -0.5058   -0.6716 C   0  0  0  0  0  0  0  0  0  0  0  0
    1.2543   -1.3788   -1.5005 O   0  0  0  0  0  0  0  0  0  0  0  0
   -0.6257    0.1672   -1.2092 C   0  0  0  0  0  0  0  0  0  0  0  0
   -1.0744    1.0171   -0.0334 C   0  0  0  0  0  0  0  0  0  0  0  0
   -1.0735   -0.1072    1.0202 C   0  0  0  0  0  0  0  0  0  0  0  0
   -0.4741   -1.1826    0.1272 C   0  0  0  0  0  0  0  0  0  0  0  0
   -1.2809   -1.0508   -1.0132 O   0  0  0  0  0  0  0  0  0  0  0  0
    2.7448    1.7257    1.4317 H   0  0  0  0  0  0  0  0  0  0  0  0
    2.1907   -1.4637   -1.2317 H   0  0  0  0  0  0  0  0  0  0  0  0
   -0.6159    0.5998   -2.1792 H   0  0  0  0  0  0  0  0  0  0  0  0
   -0.2822    1.7408    0.2049 H   0  0  0  0  0  0  0  0  0  0  0  0
   -2.0607    1.4409   -0.1826 H   0  0  0  0  0  0  0  0  0  0  0  0
   -2.0992   -0.4283    1.2501 H   0  0  0  0  0  0  0  0  0  0  0  0
   -0.4569    0.1358    1.8791 H   0  0  0  0  0  0  0  0  0  0  0  0
   -0.3130   -2.1515    0.5299 H   0  0  0  0  0  0  0  0  0  0  0  0
  1  2  3  0
  2  3  1  0
  3  4  1  0
  3  5  1  0
  5  6  1  0
  6  7  1  0
  7  8  1  0
  8  9  1  0
  8  3  1  0
  9  5  1  0
  1 10  1  0
  4 11  1  0
  5 12  1  0
  6 13  1  0
  6 14  1  0
  7 15  1  0
  7 16  1  0
  8 17  1  0
M  END
