
     RDKit          3D

 21 21  0  0  0  0  0  0  0  0999 V2000
   -3.5796    0.9604   -0.7199 C   0  0  0  0  0  0  0  0  0  0  0  0
   -2.4034    0.7822   -0.9701 C   0  0  0  0  0  0  0  0  0  0  0  0
   -0.9837    0.5596   -1.2938 C   0  0  0  0  0  0  0  0  0  0  0  0
   -0.5587   -0.8162   -1.5736 C   0  0  0  0  0  0  0  0  0  0  0  0
   -0.2409   -0.2619   -0.2593 C   0  0  0  0  0  0  0  0  0  0  0  0
   -1.0264   -0.8108    0.9126 C   0  0  0  0  0  0  0  0  0  0  0  0
    1.0986    0.2848    0.1125 C   0  0  0  0  0  0  0  0  0  0  0  0
    1.7541   -0.4889    1.0614 O   0  0  0  0  0  0  0  0  0  0  0  0
    2.9874    0.1331    1.3163 C   0  0  0  0  0  0  0  0  0  0  0  0
   -4.5987    1.1261   -0.4877 H   0  0  0  0  0  0  0  0  0  0  0  0
   -0.4382    1.3603   -1.8321 H   0  0  0  0  0  0  0  0  0  0  0  0
   -1.3441   -1.5925   -1.6617 H   0  0  0  0  0  0  0  0  0  0  0  0
    0.3090   -1.0199   -2.2670 H   0  0  0  0  0  0  0  0  0  0  0  0
   -0.8745   -1.9198    0.8913 H   0  0  0  0  0  0  0  0  0  0  0  0
   -0.6214   -0.4680    1.8829 H   0  0  0  0  0  0  0  0  0  0  0  0
   -2.0928   -0.6061    0.7800 H   0  0  0  0  0  0  0  0  0  0  0  0
    1.7438    0.5049   -0.7683 H   0  0  0  0  0  0  0  0  0  0  0  0
    0.9206    1.2877    0.5919 H   0  0  0  0  0  0  0  0  0  0  0  0
    2.8102    1.1778    1.7069 H   0  0  0  0  0  0  0  0  0  0  0  0
    3.6219    0.1875    0.4090 H   0  0  0  0  0  0  0  0  0  0  0  0
    3.5167   -0.3802    2.1684 H   0  0  0  0  0  0  0  0  0  0  0  0
  1  2  3  0
  2  3  1  0
  3  4  1  0
  4  5  1  0
  5  6  1  0
  5  7  1  0
  7  8  1  0
  8  9  1  0
  5  3  1  0
  1 10  1  0
  3 11  1  0
  4 12  1  0
  4 13  1  0
  6 14  1  0
  6 15  1  0
  6 16  1  0
  7 17  1  0
  7 18  1  0
  9 19  1  0
  9 20  1  0
  9 21  1  0
M  END
