
     RDKit          3D

 10  9  0  0  0  0  0  0  0  0999 V2000
    2.1047    0.4970    1.1877 C   0  0  0  0  0  0  0  0  0  0  0  0
    1.3111   -0.0139    0.4203 C   0  0  0  0  0  0  0  0  0  0  0  0
    0.3777   -0.6023   -0.4983 C   0  0  0  0  0  0  0  0  0  0  0  0
    0.8042   -1.4430   -1.3182 O   0  0  0  0  0  0  0  0  0  0  0  0
   -1.0625   -0.2407   -0.4974 C   0  0  0  0  0  0  0  0  0  0  0  0
   -1.3334    0.7011    0.4785 O   0  0  0  0  0  0  0  0  0  0  0  0
    2.7924    0.9611    1.8557 H   0  0  0  0  0  0  0  0  0  0  0  0
   -1.6176   -1.1785   -0.2610 H   0  0  0  0  0  0  0  0  0  0  0  0
   -1.3438    0.1596   -1.5095 H   0  0  0  0  0  0  0  0  0  0  0  0
   -2.0328    1.3396    0.1422 H   0  0  0  0  0  0  0  0  0  0  0  0
  1  2  3  0
  2  3  1  0
  3  4  2  0
  3  5  1  0
  5  6  1  0
  1  7  1  0
  5  8  1  0
  5  9  1  0
  6 10  1  0
M  END
