
     RDKit          3D

 16 17  0  0  0  0  0  0  0  0999 V2000
    2.9326   -0.4952   -1.4494 C   0  0  0  0  0  0  0  0  0  0  0  0
    1.8363   -0.1443   -1.0984 C   0  0  0  0  0  0  0  0  0  0  0  0
    0.4935    0.3044   -0.6821 C   0  0  0  0  0  0  0  0  0  0  0  0
    0.3720    1.3016    0.3749 C   0  0  0  0  0  0  0  0  0  0  0  0
    0.0866   -0.0920    0.7026 C   0  0  0  0  0  0  0  0  0  0  0  0
   -1.2489   -0.7352    0.4907 C   0  0  0  0  0  0  0  0  0  0  0  0
   -1.7049   -0.0985   -0.7956 C   0  0  0  0  0  0  0  0  0  0  0  0
   -0.5626    0.1065   -1.5291 O   0  0  0  0  0  0  0  0  0  0  0  0
    3.9093   -0.8059   -1.7815 H   0  0  0  0  0  0  0  0  0  0  0  0
   -0.4587    2.0557    0.2444 H   0  0  0  0  0  0  0  0  0  0  0  0
    1.2741    1.7519    0.8121 H   0  0  0  0  0  0  0  0  0  0  0  0
    0.7599   -0.6304    1.3692 H   0  0  0  0  0  0  0  0  0  0  0  0
   -1.1107   -1.8409    0.3124 H   0  0  0  0  0  0  0  0  0  0  0  0
   -1.9501   -0.6282    1.3186 H   0  0  0  0  0  0  0  0  0  0  0  0
   -2.3285   -0.8617   -1.3339 H   0  0  0  0  0  0  0  0  0  0  0  0
   -2.2998    0.8120   -0.6058 H   0  0  0  0  0  0  0  0  0  0  0  0
  1  2  3  0
  2  3  1  0
  3  4  1  0
  4  5  1  0
  5  6  1  0
  6  7  1  0
  7  8  1  0
  5  3  1  0
  8  3  1  0
  1  9  1  0
  4 10  1  0
  4 11  1  0
  5 12  1  0
  6 13  1  0
  6 14  1  0
  7 15  1  0
  7 16  1  0
M  END
