
     RDKit          3D

 17 18  0  0  0  0  0  0  0  0999 V2000
    3.0945   -0.7524    0.7295 C   0  0  0  0  0  0  0  0  0  0  0  0
    1.9391   -0.6229    0.4081 C   0  0  0  0  0  0  0  0  0  0  0  0
    0.5723   -0.4777    0.0034 C   0  0  0  0  0  0  0  0  0  0  0  0
   -0.1166    0.6506   -0.2746 C   0  0  0  0  0  0  0  0  0  0  0  0
    0.3316    2.0543   -0.2621 C   0  0  0  0  0  0  0  0  0  0  0  0
   -1.4556    0.0790   -0.5973 C   0  0  0  0  0  0  0  0  0  0  0  0
   -1.6603   -0.9032    0.5027 C   0  0  0  0  0  0  0  0  0  0  0  0
   -0.4848   -1.5012   -0.2298 C   0  0  0  0  0  0  0  0  0  0  0  0
   -1.0689   -1.0205   -1.4002 O   0  0  0  0  0  0  0  0  0  0  0  0
    4.1135   -0.8679    0.9939 H   0  0  0  0  0  0  0  0  0  0  0  0
    1.4195    2.1106   -0.3441 H   0  0  0  0  0  0  0  0  0  0  0  0
   -0.0669    2.5254    0.6665 H   0  0  0  0  0  0  0  0  0  0  0  0
   -0.1793    2.5608   -1.1253 H   0  0  0  0  0  0  0  0  0  0  0  0
   -2.2255    0.7079   -0.9414 H   0  0  0  0  0  0  0  0  0  0  0  0
   -1.3680   -0.5190    1.5142 H   0  0  0  0  0  0  0  0  0  0  0  0
   -2.5879   -1.4986    0.4854 H   0  0  0  0  0  0  0  0  0  0  0  0
   -0.2568   -2.5252   -0.1289 H   0  0  0  0  0  0  0  0  0  0  0  0
  1  2  3  0
  2  3  1  0
  3  4  2  0
  4  5  1  0
  4  6  1  0
  6  7  1  0
  7  8  1  0
  8  9  1  0
  8  3  1  0
  9  6  1  0
  1 10  1  0
  5 11  1  0
  5 12  1  0
  5 13  1  0
  6 14  1  0
  7 15  1  0
  7 16  1  0
  8 17  1  0
M  END
