
     RDKit          3D

 15 16  0  0  0  0  0  0  0  0999 V2000
    2.8083   -0.5316   -0.0900 C   0  0  0  0  0  0  0  0  0  0  0  0
    1.6023   -0.5425   -0.1275 C   0  0  0  0  0  0  0  0  0  0  0  0
    0.1581   -0.5793   -0.1780 C   0  0  0  0  0  0  0  0  0  0  0  0
   -0.4262   -1.8079   -0.4161 O   0  0  0  0  0  0  0  0  0  0  0  0
   -0.4925    0.5376   -0.9510 C   0  0  0  0  0  0  0  0  0  0  0  0
   -1.6822    0.3348   -0.0650 C   0  0  0  0  0  0  0  0  0  0  0  0
   -0.4973    0.2689    0.8645 C   0  0  0  0  0  0  0  0  0  0  0  0
    0.0279    1.4261    0.1094 C   0  0  0  0  0  0  0  0  0  0  0  0
    0.5698    2.4852    0.2745 O   0  0  0  0  0  0  0  0  0  0  0  0
    3.8748   -0.5377   -0.0469 H   0  0  0  0  0  0  0  0  0  0  0  0
   -0.4646   -2.3988    0.3741 H   0  0  0  0  0  0  0  0  0  0  0  0
   -0.4717    0.6836   -1.9388 H   0  0  0  0  0  0  0  0  0  0  0  0
   -2.3606    1.1788    0.0584 H   0  0  0  0  0  0  0  0  0  0  0  0
   -2.1335   -0.6565   -0.2498 H   0  0  0  0  0  0  0  0  0  0  0  0
   -0.5126    0.1392    1.8548 H   0  0  0  0  0  0  0  0  0  0  0  0
  1  2  3  0
  2  3  1  0
  3  4  1  0
  3  5  1  0
  5  6  1  0
  6  7  1  0
  7  8  1  0
  8  9  2  0
  7  3  1  0
  8  5  1  0
  1 10  1  0
  4 11  1  0
  5 12  1  0
  6 13  1  0
  6 14  1  0
  7 15  1  0
M  END
