
     RDKit          3D

 21 20  0  0  0  0  0  0  0  0999 V2000
    3.9492   -0.0510   -1.1442 C   0  0  0  0  0  0  0  0  0  0  0  0
    2.3656    0.1357   -0.7937 C   0  0  0  0  0  0  0  0  0  0  0  0
    1.2117    0.2833   -0.5415 C   0  0  0  0  0  0  0  0  0  0  0  0
    0.3084   -1.0517   -0.6316 C   0  0  0  0  0  0  0  0  0  0  0  0
   -0.9189   -0.4941    0.1207 C   0  0  0  0  0  0  0  0  0  0  0  0
   -0.3285   -0.3325    1.6124 C   0  0  0  0  0  0  0  0  0  0  0  0
   -0.5658   -1.4598    2.3371 O   0  0  0  0  0  0  0  0  0  0  0  0
   -0.7916    0.9621   -0.2462 O   0  0  0  0  0  0  0  0  0  0  0  0
   -2.0509    1.3740   -0.6190 C   0  0  0  0  0  0  0  0  0  0  0  0
    4.9103   -0.1599   -1.3396 H   0  0  0  0  0  0  0  0  0  0  0  0
    0.7957    0.9192    0.2067 H   0  0  0  0  0  0  0  0  0  0  0  0
    0.6021    0.9169   -1.5261 H   0  0  0  0  0  0  0  0  0  0  0  0
    0.7441   -1.8974   -0.2111 H   0  0  0  0  0  0  0  0  0  0  0  0
    0.0138   -1.1698   -1.6834 H   0  0  0  0  0  0  0  0  0  0  0  0
   -1.8041   -0.8782    0.0388 H   0  0  0  0  0  0  0  0  0  0  0  0
   -0.4385    0.6071    1.9827 H   0  0  0  0  0  0  0  0  0  0  0  0
    0.8551   -0.3926    1.4830 H   0  0  0  0  0  0  0  0  0  0  0  0
   -1.5221   -1.2759    2.7207 H   0  0  0  0  0  0  0  0  0  0  0  0
   -2.1722    1.2373   -1.7132 H   0  0  0  0  0  0  0  0  0  0  0  0
   -2.4446    2.2809   -0.1971 H   0  0  0  0  0  0  0  0  0  0  0  0
   -2.7189    0.4463   -0.2283 H   0  0  0  0  0  0  0  0  0  0  0  0
  1  2  3  0
  2  3  1  0
  3  4  1  0
  4  5  1  0
  5  6  1  0
  6  7  1  0
  5  8  1  0
  8  9  1  0
  1 10  1  0
  3 11  1  0
  3 12  1  0
  4 13  1  0
  4 14  1  0
  5 15  1  0
  6 16  1  0
  6 17  1  0
  7 18  1  0
  9 19  1  0
  9 20  1  0
  9 21  1  0
M  END
