
     RDKit          3D

 23 23  0  0  0  0  0  0  0  0999 V2000
   -0.3319    2.8365    0.7501 C   0  0  0  0  0  0  0  0  0  0  0  0
   -0.1576    1.6723    0.4833 C   0  0  0  0  0  0  0  0  0  0  0  0
    0.0786    0.2493    0.1678 C   0  0  0  0  0  0  0  0  0  0  0  0
   -0.7003   -0.7009    1.0385 C   0  0  0  0  0  0  0  0  0  0  0  0
   -2.1706   -0.4046    0.8356 C   0  0  0  0  0  0  0  0  0  0  0  0
   -0.4631   -2.1342    0.6838 C   0  0  0  0  0  0  0  0  0  0  0  0
    0.2075   -0.0774   -1.2694 C   0  0  0  0  0  0  0  0  0  0  0  0
    1.4080   -0.0696   -0.3608 C   0  0  0  0  0  0  0  0  0  0  0  0
    2.3739    1.0773   -0.6380 C   0  0  0  0  0  0  0  0  0  0  0  0
   -0.4690    3.8545    0.9915 H   0  0  0  0  0  0  0  0  0  0  0  0
   -0.4244   -0.5433    2.1032 H   0  0  0  0  0  0  0  0  0  0  0  0
   -2.4704    0.5217    1.3372 H   0  0  0  0  0  0  0  0  0  0  0  0
   -2.2998   -0.2467   -0.2744 H   0  0  0  0  0  0  0  0  0  0  0  0
   -2.8085   -1.2772    1.0859 H   0  0  0  0  0  0  0  0  0  0  0  0
   -0.9183   -2.3441   -0.2919 H   0  0  0  0  0  0  0  0  0  0  0  0
    0.5926   -2.4500    0.7739 H   0  0  0  0  0  0  0  0  0  0  0  0
   -1.0293   -2.7527    1.4289 H   0  0  0  0  0  0  0  0  0  0  0  0
    0.1104    0.7277   -2.0458 H   0  0  0  0  0  0  0  0  0  0  0  0
   -0.1328   -1.0576   -1.6658 H   0  0  0  0  0  0  0  0  0  0  0  0
    1.9090   -1.0346   -0.2465 H   0  0  0  0  0  0  0  0  0  0  0  0
    2.9082    1.3428    0.3032 H   0  0  0  0  0  0  0  0  0  0  0  0
    3.0350    0.8533   -1.4785 H   0  0  0  0  0  0  0  0  0  0  0  0
    1.7526    1.9576   -0.9390 H   0  0  0  0  0  0  0  0  0  0  0  0
  1  2  3  0
  2  3  1  0
  3  4  1  0
  4  5  1  0
  4  6  1  0
  3  7  1  0
  7  8  1  0
  8  9  1  0
  8  3  1  0
  1 10  1  0
  4 11  1  0
  5 12  1  0
  5 13  1  0
  5 14  1  0
  6 15  1  0
  6 16  1  0
  6 17  1  0
  7 18  1  0
  7 19  1  0
  8 20  1  0
  9 21  1  0
  9 22  1  0
  9 23  1  0
M  END
