
     RDKit          3D

 16 17  0  0  0  0  0  0  0  0999 V2000
    1.2959    2.2621    2.3720 C   0  0  0  0  0  0  0  0  0  0  0  0
    0.5674    1.8150    1.4826 C   0  0  0  0  0  0  0  0  0  0  0  0
   -0.2609    1.2897    0.4336 C   0  0  0  0  0  0  0  0  0  0  0  0
    0.4201    0.8971   -0.7301 O   0  0  0  0  0  0  0  0  0  0  0  0
   -0.0759   -0.3859   -0.7485 C   0  0  0  0  0  0  0  0  0  0  0  0
    0.8087   -1.5448   -1.0760 C   0  0  0  0  0  0  0  0  0  0  0  0
   -1.5241   -0.6759   -0.5036 C   0  0  0  0  0  0  0  0  0  0  0  0
   -0.6638   -0.1661    0.5875 C   0  0  0  0  0  0  0  0  0  0  0  0
    1.9272    2.6281    3.1330 H   0  0  0  0  0  0  0  0  0  0  0  0
   -1.1678    1.8924    0.2293 H   0  0  0  0  0  0  0  0  0  0  0  0
    1.8143   -1.4729   -0.6512 H   0  0  0  0  0  0  0  0  0  0  0  0
    0.3114   -2.4944   -0.7572 H   0  0  0  0  0  0  0  0  0  0  0  0
    0.9188   -1.6225   -2.1785 H   0  0  0  0  0  0  0  0  0  0  0  0
   -2.2099    0.0532   -1.0001 H   0  0  0  0  0  0  0  0  0  0  0  0
   -1.8158   -1.7232   -0.5376 H   0  0  0  0  0  0  0  0  0  0  0  0
   -0.3455   -0.7518    1.4456 H   0  0  0  0  0  0  0  0  0  0  0  0
  1  2  3  0
  2  3  1  0
  3  4  1  0
  4  5  1  0
  5  6  1  0
  5  7  1  0
  7  8  1  0
  8  3  1  0
  8  5  1  0
  1  9  1  0
  3 10  1  0
  6 11  1  0
  6 12  1  0
  6 13  1  0
  7 14  1  0
  7 15  1  0
  8 16  1  0
M  END
