
     RDKit          3D

 19 18  0  0  0  0  0  0  0  0999 V2000
    2.6730    1.3765    1.4634 C   0  0  0  0  0  0  0  0  0  0  0  0
    2.1425    0.5157    0.7726 C   0  0  0  0  0  0  0  0  0  0  0  0
    1.5363   -0.5038   -0.0579 C   0  0  0  0  0  0  0  0  0  0  0  0
    0.0422   -0.3004   -0.0962 C   0  0  0  0  0  0  0  0  0  0  0  0
   -0.5561   -1.3917   -0.9790 C   0  0  0  0  0  0  0  0  0  0  0  0
   -0.1858    1.0095   -0.7329 C   0  0  0  0  0  0  0  0  0  0  0  0
   -0.3726    2.0719   -1.2722 C   0  0  0  0  0  0  0  0  0  0  0  0
   -0.5564   -0.3645    1.1280 O   0  0  0  0  0  0  0  0  0  0  0  0
   -1.9176   -0.1641    0.9683 C   0  0  0  0  0  0  0  0  0  0  0  0
    3.1401    2.1070    2.0697 H   0  0  0  0  0  0  0  0  0  0  0  0
    1.7877   -1.5013    0.3843 H   0  0  0  0  0  0  0  0  0  0  0  0
    1.9681   -0.5159   -1.0796 H   0  0  0  0  0  0  0  0  0  0  0  0
   -0.9071   -2.2533   -0.3643 H   0  0  0  0  0  0  0  0  0  0  0  0
   -1.4201   -1.0010   -1.5309 H   0  0  0  0  0  0  0  0  0  0  0  0
    0.1774   -1.7469   -1.7409 H   0  0  0  0  0  0  0  0  0  0  0  0
   -0.5375    3.0191   -1.7580 H   0  0  0  0  0  0  0  0  0  0  0  0
   -2.4628   -0.2073    1.9498 H   0  0  0  0  0  0  0  0  0  0  0  0
   -2.3892   -0.9695    0.3479 H   0  0  0  0  0  0  0  0  0  0  0  0
   -2.1622    0.8198    0.5280 H   0  0  0  0  0  0  0  0  0  0  0  0
  1  2  3  0
  2  3  1  0
  3  4  1  0
  4  5  1  0
  4  6  1  0
  6  7  3  0
  4  8  1  0
  8  9  1  0
  1 10  1  0
  3 11  1  0
  3 12  1  0
  5 13  1  0
  5 14  1  0
  5 15  1  0
  7 16  1  0
  9 17  1  0
  9 18  1  0
  9 19  1  0
M  END
