
     RDKit          3D

 23 23  0  0  0  0  0  0  0  0999 V2000
   -0.9389   -1.7334    1.7916 C   0  0  0  0  0  0  0  0  0  0  0  0
   -0.9684   -0.8880    0.9021 C   0  0  0  0  0  0  0  0  0  0  0  0
   -1.0261    0.0955   -0.1471 C   0  0  0  0  0  0  0  0  0  0  0  0
   -2.1365    1.1108    0.1855 C   0  0  0  0  0  0  0  0  0  0  0  0
   -1.4203   -0.5634   -1.4719 C   0  0  0  0  0  0  0  0  0  0  0  0
    0.2208    0.8805   -0.2714 C   0  0  0  0  0  0  0  0  0  0  0  0
    1.4718    0.1335   -0.5857 C   0  0  0  0  0  0  0  0  0  0  0  0
    2.0533   -0.9065    0.2510 C   0  0  0  0  0  0  0  0  0  0  0  0
    2.6793    0.4910    0.1928 C   0  0  0  0  0  0  0  0  0  0  0  0
   -0.9081   -2.4515    2.5695 H   0  0  0  0  0  0  0  0  0  0  0  0
   -2.2349    1.7417   -0.7202 H   0  0  0  0  0  0  0  0  0  0  0  0
   -1.8363    1.7627    1.0251 H   0  0  0  0  0  0  0  0  0  0  0  0
   -3.0838    0.5774    0.4213 H   0  0  0  0  0  0  0  0  0  0  0  0
   -0.5083   -0.8631   -2.0271 H   0  0  0  0  0  0  0  0  0  0  0  0
   -2.0641   -1.4261   -1.2018 H   0  0  0  0  0  0  0  0  0  0  0  0
   -2.0378    0.1637   -2.0364 H   0  0  0  0  0  0  0  0  0  0  0  0
    0.0676    1.6588   -1.0794 H   0  0  0  0  0  0  0  0  0  0  0  0
    0.3417    1.4376    0.7118 H   0  0  0  0  0  0  0  0  0  0  0  0
    1.6425    0.0232   -1.6932 H   0  0  0  0  0  0  0  0  0  0  0  0
    2.6289   -1.7319   -0.2519 H   0  0  0  0  0  0  0  0  0  0  0  0
    1.7784   -1.1801    1.2702 H   0  0  0  0  0  0  0  0  0  0  0  0
    3.6832    0.5144   -0.2603 H   0  0  0  0  0  0  0  0  0  0  0  0
    2.5962    1.1531    1.0793 H   0  0  0  0  0  0  0  0  0  0  0  0
  1  2  3  0
  2  3  1  0
  3  4  1  0
  3  5  1  0
  3  6  1  0
  6  7  1  0
  7  8  1  0
  8  9  1  0
  9  7  1  0
  1 10  1  0
  4 11  1  0
  4 12  1  0
  4 13  1  0
  5 14  1  0
  5 15  1  0
  5 16  1  0
  6 17  1  0
  6 18  1  0
  7 19  1  0
  8 20  1  0
  8 21  1  0
  9 22  1  0
  9 23  1  0
M  END
