
     RDKit          3D

 17 17  0  0  0  0  0  0  0  0999 V2000
    3.0883    0.5403   -0.3010 C   0  0  0  0  0  0  0  0  0  0  0  0
    1.4551    0.1183    0.0421 C   0  0  0  0  0  0  0  0  0  0  0  0
    0.1312   -0.2079    0.3345 C   0  0  0  0  0  0  0  0  0  0  0  0
    0.1195   -1.6793   -0.2468 C   0  0  0  0  0  0  0  0  0  0  0  0
   -0.4535    0.1517    1.5294 C   0  0  0  0  0  0  0  0  0  0  0  0
   -0.8389    1.4581    0.7786 C   0  0  0  0  0  0  0  0  0  0  0  0
   -1.0928    2.6490    1.3179 O   0  0  0  0  0  0  0  0  0  0  0  0
   -0.7362    0.7127   -0.4161 C   0  0  0  0  0  0  0  0  0  0  0  0
   -2.1189   -0.0568   -0.2926 O   0  0  0  0  0  0  0  0  0  0  0  0
    4.1582    0.8237   -0.5176 H   0  0  0  0  0  0  0  0  0  0  0  0
   -0.1027   -2.6449   -0.0404 H   0  0  0  0  0  0  0  0  0  0  0  0
    0.6154   -1.4602   -1.3221 H   0  0  0  0  0  0  0  0  0  0  0  0
    1.3024   -1.9134    0.4542 H   0  0  0  0  0  0  0  0  0  0  0  0
   -0.5233    0.2629    2.6281 H   0  0  0  0  0  0  0  0  0  0  0  0
   -1.4951   -0.6146    1.3293 H   0  0  0  0  0  0  0  0  0  0  0  0
   -0.8133    1.0400   -1.4121 H   0  0  0  0  0  0  0  0  0  0  0  0
   -2.6954    0.8203   -0.3271 H   0  0  0  0  0  0  0  0  0  0  0  0
  1  2  3  0
  2  3  1  0
  3  4  1  0
  3  5  1  0
  5  6  1  0
  6  7  2  0
  6  8  1  0
  8  9  1  0
  8  3  1  0
  1 10  1  0
  4 11  1  0
  4 12  1  0
  4 13  1  0
  5 14  1  0
  5 15  1  0
  8 16  1  0
  9 17  1  0
M  END
