
     RDKit          3D

 16 17  0  0  0  0  0  0  0  0999 V2000
    3.6842    1.2502   -0.5775 C   0  0  0  0  0  0  0  0  0  0  0  0
    2.7087    0.5424   -0.6136 C   0  0  0  0  0  0  0  0  0  0  0  0
    1.5309   -0.3239   -0.6764 C   0  0  0  0  0  0  0  0  0  0  0  0
    1.0686   -0.8373    0.5084 O   0  0  0  0  0  0  0  0  0  0  0  0
    0.2713    0.1763    0.0246 C   0  0  0  0  0  0  0  0  0  0  0  0
   -0.9896   -0.1274   -0.7357 C   0  0  0  0  0  0  0  0  0  0  0  0
   -2.2939    0.3121   -0.1521 C   0  0  0  0  0  0  0  0  0  0  0  0
   -1.9635   -1.1279   -0.2917 C   0  0  0  0  0  0  0  0  0  0  0  0
    4.5494    1.8917   -0.5309 H   0  0  0  0  0  0  0  0  0  0  0  0
    1.4191   -1.0075   -1.5428 H   0  0  0  0  0  0  0  0  0  0  0  0
    0.3225    1.1888    0.4806 H   0  0  0  0  0  0  0  0  0  0  0  0
   -0.8644    0.0170   -1.8488 H   0  0  0  0  0  0  0  0  0  0  0  0
   -2.2373    0.7875    0.8301 H   0  0  0  0  0  0  0  0  0  0  0  0
   -3.0256    0.7246   -0.8436 H   0  0  0  0  0  0  0  0  0  0  0  0
   -1.6912   -1.7510    0.5815 H   0  0  0  0  0  0  0  0  0  0  0  0
   -2.4892   -1.7156   -1.0868 H   0  0  0  0  0  0  0  0  0  0  0  0
  1  2  3  0
  2  3  1  0
  3  4  1  0
  4  5  1  0
  5  6  1  0
  6  7  1  0
  7  8  1  0
  5  3  1  0
  8  6  1  0
  1  9  1  0
  3 10  1  0
  5 11  1  0
  6 12  1  0
  7 13  1  0
  7 14  1  0
  8 15  1  0
  8 16  1  0
M  END
