
     RDKit          3D

 19 19  0  0  0  0  0  0  0  0999 V2000
    2.6513    0.9347   -2.2359 C   0  0  0  0  0  0  0  0  0  0  0  0
    1.7477    0.3574   -1.7222 C   0  0  0  0  0  0  0  0  0  0  0  0
    0.6030   -0.3503   -1.0586 C   0  0  0  0  0  0  0  0  0  0  0  0
    0.8864   -0.0420    0.4360 C   0  0  0  0  0  0  0  0  0  0  0  0
   -0.2250   -0.3251    1.3411 C   0  0  0  0  0  0  0  0  0  0  0  0
   -0.1770    0.7303    2.3479 O   0  0  0  0  0  0  0  0  0  0  0  0
   -1.5686   -0.3087    0.7413 C   0  0  0  0  0  0  0  0  0  0  0  0
   -1.5915   -0.3920   -0.7480 C   0  0  0  0  0  0  0  0  0  0  0  0
   -0.5539    0.2601   -1.3596 O   0  0  0  0  0  0  0  0  0  0  0  0
    3.5405    1.5266   -2.7450 H   0  0  0  0  0  0  0  0  0  0  0  0
    0.6516   -1.3989   -1.2636 H   0  0  0  0  0  0  0  0  0  0  0  0
    1.0513    1.0783    0.4328 H   0  0  0  0  0  0  0  0  0  0  0  0
    1.8643   -0.4849    0.6415 H   0  0  0  0  0  0  0  0  0  0  0  0
   -0.0138   -1.2798    1.9082 H   0  0  0  0  0  0  0  0  0  0  0  0
   -0.4409    1.5576    1.8561 H   0  0  0  0  0  0  0  0  0  0  0  0
   -2.0230    0.7153    0.9900 H   0  0  0  0  0  0  0  0  0  0  0  0
   -2.2861   -1.0769    1.1773 H   0  0  0  0  0  0  0  0  0  0  0  0
   -2.5923   -0.0375   -1.1529 H   0  0  0  0  0  0  0  0  0  0  0  0
   -1.5240   -1.4643   -1.0101 H   0  0  0  0  0  0  0  0  0  0  0  0
  1  2  3  0
  2  3  1  0
  3  4  1  0
  4  5  1  0
  5  6  1  0
  5  7  1  0
  7  8  1  0
  8  9  1  0
  9  3  1  0
  1 10  1  0
  3 11  1  0
  4 12  1  0
  4 13  1  0
  5 14  1  0
  6 15  1  0
  7 16  1  0
  7 17  1  0
  8 18  1  0
  8 19  1  0
M  END
