
     RDKit          3D

 21 21  0  0  0  0  0  0  0  0999 V2000
    3.8571    1.2157   -0.2512 C   0  0  0  0  0  0  0  0  0  0  0  0
    2.8072    0.7078    0.0561 C   0  0  0  0  0  0  0  0  0  0  0  0
    1.5100    0.1033    0.4478 C   0  0  0  0  0  0  0  0  0  0  0  0
    0.5792    0.3195   -0.7424 C   0  0  0  0  0  0  0  0  0  0  0  0
   -0.7559   -0.2914   -0.3631 C   0  0  0  0  0  0  0  0  0  0  0  0
   -0.6303   -1.7724   -0.0693 C   0  0  0  0  0  0  0  0  0  0  0  0
   -2.0039    0.2460   -0.9627 C   0  0  0  0  0  0  0  0  0  0  0  0
   -1.6258    0.5714    0.4654 C   0  0  0  0  0  0  0  0  0  0  0  0
   -2.4193    0.0630    1.4767 O   0  0  0  0  0  0  0  0  0  0  0  0
    4.7784    1.6819   -0.5213 H   0  0  0  0  0  0  0  0  0  0  0  0
    1.6451   -0.9838    0.6262 H   0  0  0  0  0  0  0  0  0  0  0  0
    1.1388    0.6475    1.3253 H   0  0  0  0  0  0  0  0  0  0  0  0
    0.9650   -0.3165   -1.5900 H   0  0  0  0  0  0  0  0  0  0  0  0
    0.5125    1.3609   -1.0363 H   0  0  0  0  0  0  0  0  0  0  0  0
   -0.1511   -1.9007    0.9239 H   0  0  0  0  0  0  0  0  0  0  0  0
   -1.6045   -2.2946   -0.1334 H   0  0  0  0  0  0  0  0  0  0  0  0
    0.0663   -2.1919   -0.8218 H   0  0  0  0  0  0  0  0  0  0  0  0
   -2.0109    1.0407   -1.7099 H   0  0  0  0  0  0  0  0  0  0  0  0
   -2.8381   -0.5050   -1.0708 H   0  0  0  0  0  0  0  0  0  0  0  0
   -1.3438    1.6362    0.6204 H   0  0  0  0  0  0  0  0  0  0  0  0
   -2.4758    0.6623    2.2550 H   0  0  0  0  0  0  0  0  0  0  0  0
  1  2  3  0
  2  3  1  0
  3  4  1  0
  4  5  1  0
  5  6  1  0
  5  7  1  0
  7  8  1  0
  8  9  1  0
  8  5  1  0
  1 10  1  0
  3 11  1  0
  3 12  1  0
  4 13  1  0
  4 14  1  0
  6 15  1  0
  6 16  1  0
  6 17  1  0
  7 18  1  0
  7 19  1  0
  8 20  1  0
  9 21  1  0
M  END
