
     RDKit          3D

 19 18  0  0  0  0  0  0  0  0999 V2000
   -0.7526    2.5942   -0.4470 C   0  0  0  0  0  0  0  0  0  0  0  0
   -0.6832    1.4376   -0.0507 C   0  0  0  0  0  0  0  0  0  0  0  0
   -0.5775    0.0696    0.4132 C   0  0  0  0  0  0  0  0  0  0  0  0
   -1.1000   -0.0808    1.8324 C   0  0  0  0  0  0  0  0  0  0  0  0
   -1.3380   -0.7683   -0.5229 C   0  0  0  0  0  0  0  0  0  0  0  0
   -1.9577   -1.4653   -1.2906 C   0  0  0  0  0  0  0  0  0  0  0  0
    0.8434   -0.3770    0.3996 C   0  0  0  0  0  0  0  0  0  0  0  0
    1.4735   -0.3285   -0.9681 C   0  0  0  0  0  0  0  0  0  0  0  0
    2.7903   -0.7694   -0.8317 O   0  0  0  0  0  0  0  0  0  0  0  0
   -0.8119    3.5807   -0.8044 H   0  0  0  0  0  0  0  0  0  0  0  0
   -2.0821    0.4309    1.8973 H   0  0  0  0  0  0  0  0  0  0  0  0
   -1.1657   -1.1557    2.0835 H   0  0  0  0  0  0  0  0  0  0  0  0
   -0.4001    0.4396    2.4960 H   0  0  0  0  0  0  0  0  0  0  0  0
   -2.5055   -2.0546   -1.9535 H   0  0  0  0  0  0  0  0  0  0  0  0
    0.8592   -1.4509    0.7348 H   0  0  0  0  0  0  0  0  0  0  0  0
    1.4792    0.2392    1.0754 H   0  0  0  0  0  0  0  0  0  0  0  0
    1.5203    0.7205   -1.3260 H   0  0  0  0  0  0  0  0  0  0  0  0
    0.9591   -0.9979   -1.6858 H   0  0  0  0  0  0  0  0  0  0  0  0
    3.4495   -0.0640   -1.0518 H   0  0  0  0  0  0  0  0  0  0  0  0
  1  2  3  0
  2  3  1  0
  3  4  1  0
  3  5  1  0
  5  6  3  0
  3  7  1  0
  7  8  1  0
  8  9  1  0
  1 10  1  0
  4 11  1  0
  4 12  1  0
  4 13  1  0
  6 14  1  0
  7 15  1  0
  7 16  1  0
  8 17  1  0
  8 18  1  0
  9 19  1  0
M  END
