
     RDKit          3D

 19 19  0  0  0  0  0  0  0  0999 V2000
    4.3304    0.6329    0.3096 C   0  0  0  0  0  0  0  0  0  0  0  0
    3.2878    0.0022    0.2832 C   0  0  0  0  0  0  0  0  0  0  0  0
    2.0224   -0.7363    0.2407 C   0  0  0  0  0  0  0  0  0  0  0  0
    1.0058    0.1947    0.1867 O   0  0  0  0  0  0  0  0  0  0  0  0
   -0.2502   -0.2824    0.1412 C   0  0  0  0  0  0  0  0  0  0  0  0
   -1.1485    0.2475   -0.9835 C   0  0  0  0  0  0  0  0  0  0  0  0
   -2.2919   -0.0614   -0.0012 C   0  0  0  0  0  0  0  0  0  0  0  0
   -3.3837    0.7417   -0.1056 O   0  0  0  0  0  0  0  0  0  0  0  0
   -1.2755    0.3368    1.0733 C   0  0  0  0  0  0  0  0  0  0  0  0
    5.2275    1.1917    0.3203 H   0  0  0  0  0  0  0  0  0  0  0  0
    2.0018   -1.4727   -0.5803 H   0  0  0  0  0  0  0  0  0  0  0  0
    1.9299   -1.2795    1.2039 H   0  0  0  0  0  0  0  0  0  0  0  0
   -0.3725   -1.4058    0.1508 H   0  0  0  0  0  0  0  0  0  0  0  0
   -1.1126    1.3375   -1.1198 H   0  0  0  0  0  0  0  0  0  0  0  0
   -1.1777   -0.3799   -1.8805 H   0  0  0  0  0  0  0  0  0  0  0  0
   -2.4491   -1.1455    0.0525 H   0  0  0  0  0  0  0  0  0  0  0  0
   -3.7402    0.8233   -1.0255 H   0  0  0  0  0  0  0  0  0  0  0  0
   -1.1947    1.4339    1.1115 H   0  0  0  0  0  0  0  0  0  0  0  0
   -1.4091   -0.1788    2.0304 H   0  0  0  0  0  0  0  0  0  0  0  0
  1  2  3  0
  2  3  1  0
  3  4  1  0
  4  5  1  0
  5  6  1  0
  6  7  1  0
  7  8  1  0
  7  9  1  0
  9  5  1  0
  1 10  1  0
  3 11  1  0
  3 12  1  0
  5 13  1  0
  6 14  1  0
  6 15  1  0
  7 16  1  0
  8 17  1  0
  9 18  1  0
  9 19  1  0
M  END
