
     RDKit          3D

 21 20  0  0  0  0  0  0  0  0999 V2000
    3.5295    2.6105   -2.0902 C   0  0  0  0  0  0  0  0  0  0  0  0
    2.5571    2.2382   -1.4328 C   0  0  0  0  0  0  0  0  0  0  0  0
    1.3904    1.7851   -0.6701 C   0  0  0  0  0  0  0  0  0  0  0  0
    0.6980    0.9053   -1.3705 O   0  0  0  0  0  0  0  0  0  0  0  0
   -0.4206    0.3160   -0.9234 C   0  0  0  0  0  0  0  0  0  0  0  0
   -0.3612   -0.5056    0.3091 C   0  0  0  0  0  0  0  0  0  0  0  0
    0.5221   -1.5764    0.1690 O   0  0  0  0  0  0  0  0  0  0  0  0
   -1.7262   -1.0997    0.6060 C   0  0  0  0  0  0  0  0  0  0  0  0
   -1.7132   -1.9443    1.8479 C   0  0  0  0  0  0  0  0  0  0  0  0
    4.3640    2.9431   -2.6410 H   0  0  0  0  0  0  0  0  0  0  0  0
    1.8275    1.2843    0.2445 H   0  0  0  0  0  0  0  0  0  0  0  0
    0.8975    2.6948   -0.3039 H   0  0  0  0  0  0  0  0  0  0  0  0
   -1.2018    1.0971   -0.7886 H   0  0  0  0  0  0  0  0  0  0  0  0
   -0.8152   -0.3449   -1.7392 H   0  0  0  0  0  0  0  0  0  0  0  0
   -0.0602    0.0243    1.2240 H   0  0  0  0  0  0  0  0  0  0  0  0
    0.2803   -2.0262   -0.6790 H   0  0  0  0  0  0  0  0  0  0  0  0
   -2.4831   -0.2727    0.7384 H   0  0  0  0  0  0  0  0  0  0  0  0
   -2.1074   -1.6967   -0.2538 H   0  0  0  0  0  0  0  0  0  0  0  0
   -2.1026   -1.3490    2.6769 H   0  0  0  0  0  0  0  0  0  0  0  0
   -0.6737   -2.2724    2.1109 H   0  0  0  0  0  0  0  0  0  0  0  0
   -2.4010   -2.8107    1.6887 H   0  0  0  0  0  0  0  0  0  0  0  0
  1  2  3  0
  2  3  1  0
  3  4  1  0
  4  5  1  0
  5  6  1  0
  6  7  1  0
  6  8  1  0
  8  9  1  0
  1 10  1  0
  3 11  1  0
  3 12  1  0
  5 13  1  0
  5 14  1  0
  6 15  1  0
  7 16  1  0
  8 17  1  0
  8 18  1  0
  9 19  1  0
  9 20  1  0
  9 21  1  0
M  END
