
     RDKit          3D

 21 22  0  0  0  0  0  0  0  0999 V2000
    2.2747    1.1234    1.6913 C   0  0  0  0  0  0  0  0  0  0  0  0
    1.7028    0.6387    0.7670 C   0  0  0  0  0  0  0  0  0  0  0  0
    1.0231    0.0643   -0.3702 C   0  0  0  0  0  0  0  0  0  0  0  0
    0.5566   -1.3309   -0.1859 C   0  0  0  0  0  0  0  0  0  0  0  0
   -0.4005   -1.4705   -1.3824 C   0  0  0  0  0  0  0  0  0  0  0  0
   -1.2185   -0.4457   -0.5818 C   0  0  0  0  0  0  0  0  0  0  0  0
   -0.7282   -1.1844    0.6284 C   0  0  0  0  0  0  0  0  0  0  0  0
   -0.3248    0.7586   -0.6302 C   0  0  0  0  0  0  0  0  0  0  0  0
   -0.6921    1.7030    0.4594 C   0  0  0  0  0  0  0  0  0  0  0  0
    2.7929    1.5654    2.5030 H   0  0  0  0  0  0  0  0  0  0  0  0
    1.5987    0.1325   -1.3209 H   0  0  0  0  0  0  0  0  0  0  0  0
    1.2051   -2.1324    0.0247 H   0  0  0  0  0  0  0  0  0  0  0  0
    0.0624   -1.0765   -2.2852 H   0  0  0  0  0  0  0  0  0  0  0  0
   -0.8747   -2.4600   -1.4504 H   0  0  0  0  0  0  0  0  0  0  0  0
   -2.2512   -0.3679   -0.7898 H   0  0  0  0  0  0  0  0  0  0  0  0
   -1.2949   -2.1397    0.7466 H   0  0  0  0  0  0  0  0  0  0  0  0
   -0.6233   -0.6181    1.5507 H   0  0  0  0  0  0  0  0  0  0  0  0
   -0.3327    1.2834   -1.5925 H   0  0  0  0  0  0  0  0  0  0  0  0
   -1.8143    1.8058    0.4583 H   0  0  0  0  0  0  0  0  0  0  0  0
   -0.2952    2.7397    0.2979 H   0  0  0  0  0  0  0  0  0  0  0  0
   -0.3661    1.4115    1.4622 H   0  0  0  0  0  0  0  0  0  0  0  0
  1  2  3  0
  2  3  1  0
  3  4  1  0
  4  5  1  0
  5  6  1  0
  6  7  1  0
  6  8  1  0
  8  9  1  0
  8  3  1  0
  7  4  1  0
  1 10  1  0
  3 11  1  0
  4 12  1  0
  5 13  1  0
  5 14  1  0
  6 15  1  0
  7 16  1  0
  7 17  1  0
  8 18  1  0
  9 19  1  0
  9 20  1  0
  9 21  1  0
M  END
