
     RDKit          3D

 23 23  0  0  0  0  0  0  0  0999 V2000
    2.1296    1.9709   -3.3281 C   0  0  0  0  0  0  0  0  0  0  0  0
    1.8336    1.4764   -2.1395 C   0  0  0  0  0  0  0  0  0  0  0  0
    1.5189    0.9113   -0.8391 C   0  0  0  0  0  0  0  0  0  0  0  0
    0.1160    0.3318   -1.0259 C   0  0  0  0  0  0  0  0  0  0  0  0
   -0.4944   -0.2457    0.2226 C   0  0  0  0  0  0  0  0  0  0  0  0
    0.2693   -1.3650    0.8344 C   0  0  0  0  0  0  0  0  0  0  0  0
   -0.3182   -1.9266    2.0961 C   0  0  0  0  0  0  0  0  0  0  0  0
   -2.0146   -0.4323    0.1648 C   0  0  0  0  0  0  0  0  0  0  0  0
   -1.3765    0.6219    1.0410 C   0  0  0  0  0  0  0  0  0  0  0  0
    2.3367    2.3264   -4.2139 H   0  0  0  0  0  0  0  0  0  0  0  0
    1.5907    1.6600   -0.0430 H   0  0  0  0  0  0  0  0  0  0  0  0
    2.1879    0.0601   -0.6508 H   0  0  0  0  0  0  0  0  0  0  0  0
    0.3034   -0.5232   -1.7680 H   0  0  0  0  0  0  0  0  0  0  0  0
   -0.5243    1.0805   -1.5199 H   0  0  0  0  0  0  0  0  0  0  0  0
    0.2662   -2.2047    0.0738 H   0  0  0  0  0  0  0  0  0  0  0  0
    1.3197   -1.0840    1.0232 H   0  0  0  0  0  0  0  0  0  0  0  0
   -0.0893   -1.1806    2.9242 H   0  0  0  0  0  0  0  0  0  0  0  0
    0.2823   -2.8119    2.3940 H   0  0  0  0  0  0  0  0  0  0  0  0
   -1.3615   -2.2156    2.0353 H   0  0  0  0  0  0  0  0  0  0  0  0
   -2.4874   -0.1397   -0.8015 H   0  0  0  0  0  0  0  0  0  0  0  0
   -2.4965   -1.2485    0.6976 H   0  0  0  0  0  0  0  0  0  0  0  0
   -1.4848    0.5043    2.1232 H   0  0  0  0  0  0  0  0  0  0  0  0
   -1.5067    1.6741    0.6994 H   0  0  0  0  0  0  0  0  0  0  0  0
  1  2  3  0
  2  3  1  0
  3  4  1  0
  4  5  1  0
  5  6  1  0
  6  7  1  0
  5  8  1  0
  8  9  1  0
  9  5  1  0
  1 10  1  0
  3 11  1  0
  3 12  1  0
  4 13  1  0
  4 14  1  0
  6 15  1  0
  6 16  1  0
  7 17  1  0
  7 18  1  0
  7 19  1  0
  8 20  1  0
  8 21  1  0
  9 22  1  0
  9 23  1  0
M  END
