
     RDKit          3D

 15 15  0  0  0  0  0  0  0  0999 V2000
    2.1703   -2.4661   -0.7004 C   0  0  0  0  0  0  0  0  0  0  0  0
    1.7521   -1.3146   -0.6625 C   0  0  0  0  0  0  0  0  0  0  0  0
    1.2349    0.0523   -0.6335 C   0  0  0  0  0  0  0  0  0  0  0  0
    1.0531    0.4296    0.8058 O   0  0  0  0  0  0  0  0  0  0  0  0
   -0.0390    0.3345   -0.1724 C   0  0  0  0  0  0  0  0  0  0  0  0
   -0.9856   -0.7414    0.1473 C   0  0  0  0  0  0  0  0  0  0  0  0
   -1.7645   -1.6196    0.4300 C   0  0  0  0  0  0  0  0  0  0  0  0
   -0.6596    1.7130   -0.3310 C   0  0  0  0  0  0  0  0  0  0  0  0
   -1.7030    1.6522   -1.2573 O   0  0  0  0  0  0  0  0  0  0  0  0
    2.5145   -3.4680   -0.7310 H   0  0  0  0  0  0  0  0  0  0  0  0
    1.9030    0.8407   -1.0624 H   0  0  0  0  0  0  0  0  0  0  0  0
   -2.4653   -2.3997    0.6654 H   0  0  0  0  0  0  0  0  0  0  0  0
   -1.0783    1.9793    0.6594 H   0  0  0  0  0  0  0  0  0  0  0  0
    0.0963    2.4583   -0.5907 H   0  0  0  0  0  0  0  0  0  0  0  0
   -2.0289    2.5493   -1.4904 H   0  0  0  0  0  0  0  0  0  0  0  0
  1  2  3  0
  2  3  1  0
  3  4  1  0
  4  5  1  0
  5  6  1  0
  6  7  3  0
  5  8  1  0
  8  9  1  0
  5  3  1  0
  1 10  1  0
  3 11  1  0
  7 12  1  0
  8 13  1  0
  8 14  1  0
  9 15  1  0
M  END
