
     RDKit          3D

 15 15  0  0  0  0  0  0  0  0999 V2000
    3.4685   -2.8139   -0.3437 C   0  0  0  0  0  0  0  0  0  0  0  0
    2.3841   -1.7956   -0.0509 C   0  0  0  0  0  0  0  0  0  0  0  0
    1.4241   -0.8659    0.2049 C   0  0  0  0  0  0  0  0  0  0  0  0
    0.6697   -0.1301    0.3876 C   0  0  0  0  0  0  0  0  0  0  0  0
   -0.3359    0.8810    0.6460 C   0  0  0  0  0  0  0  0  0  0  0  0
    0.1883    2.1677    0.8720 O   0  0  0  0  0  0  0  0  0  0  0  0
   -0.9305    1.0696   -0.8968 C   0  0  0  0  0  0  0  0  0  0  0  0
   -1.7494    0.5755    0.3205 C   0  0  0  0  0  0  0  0  0  0  0  0
   -1.9767   -0.8836    0.3448 O   0  0  0  0  0  0  0  0  0  0  0  0
    4.1855   -3.5061   -0.5510 H   0  0  0  0  0  0  0  0  0  0  0  0
   -0.5316    2.8795    1.1007 H   0  0  0  0  0  0  0  0  0  0  0  0
   -0.4930    0.2505   -1.5423 H   0  0  0  0  0  0  0  0  0  0  0  0
   -1.1397    1.9932   -1.3327 H   0  0  0  0  0  0  0  0  0  0  0  0
   -2.5973    1.0634    0.6567 H   0  0  0  0  0  0  0  0  0  0  0  0
   -2.5662   -0.8852    1.2358 H   0  0  0  0  0  0  0  0  0  0  0  0
  1  2  3  0
  2  3  1  0
  3  4  3  0
  4  5  1  0
  5  6  1  0
  5  7  1  0
  7  8  1  0
  8  9  1  0
  8  5  1  0
  1 10  1  0
  6 11  1  0
  7 12  1  0
  7 13  1  0
  8 14  1  0
  9 15  1  0
M  END
