
     RDKit          3D

 19 20  0  0  0  0  0  0  0  0999 V2000
    3.5182    0.0357    0.8898 C   0  0  0  0  0  0  0  0  0  0  0  0
    2.4182    0.4553    0.6293 C   0  0  0  0  0  0  0  0  0  0  0  0
    1.1012    0.9771    0.3339 C   0  0  0  0  0  0  0  0  0  0  0  0
    0.0492   -0.0303    0.7714 C   0  0  0  0  0  0  0  0  0  0  0  0
    0.1682   -1.3733    0.0820 C   0  0  0  0  0  0  0  0  0  0  0  0
   -1.2574   -1.2006   -0.4484 C   0  0  0  0  0  0  0  0  0  0  0  0
   -1.2238    0.1992    0.0304 C   0  0  0  0  0  0  0  0  0  0  0  0
   -2.2292    1.0920    0.2930 C   0  0  0  0  0  0  0  0  0  0  0  0
   -1.3644    1.1916   -0.8997 O   0  0  0  0  0  0  0  0  0  0  0  0
    4.5049   -0.3253    1.1297 H   0  0  0  0  0  0  0  0  0  0  0  0
    0.9518    1.2060   -0.7379 H   0  0  0  0  0  0  0  0  0  0  0  0
    0.8723    1.9154    0.8882 H   0  0  0  0  0  0  0  0  0  0  0  0
   -0.0077   -0.1486    1.8628 H   0  0  0  0  0  0  0  0  0  0  0  0
    0.9389   -1.4614   -0.6803 H   0  0  0  0  0  0  0  0  0  0  0  0
    0.1975   -2.2431    0.7690 H   0  0  0  0  0  0  0  0  0  0  0  0
   -1.2362   -1.3588   -1.5572 H   0  0  0  0  0  0  0  0  0  0  0  0
   -2.0068   -1.8119    0.0929 H   0  0  0  0  0  0  0  0  0  0  0  0
   -3.2935    0.9275    0.0185 H   0  0  0  0  0  0  0  0  0  0  0  0
   -2.1014    1.9534    0.9752 H   0  0  0  0  0  0  0  0  0  0  0  0
  1  2  3  0
  2  3  1  0
  3  4  1  0
  4  5  1  0
  5  6  1  0
  6  7  1  0
  7  8  1  0
  8  9  1  0
  7  4  1  0
  9  7  1  0
  1 10  1  0
  3 11  1  0
  3 12  1  0
  4 13  1  0
  5 14  1  0
  5 15  1  0
  6 16  1  0
  6 17  1  0
  8 18  1  0
  8 19  1  0
M  END
