
     RDKit          3D

 19 20  0  0  0  0  0  0  0  0999 V2000
    1.2754    0.9637    2.2365 C   0  0  0  0  0  0  0  0  0  0  0  0
    1.0788    0.3559    1.2277 C   0  0  0  0  0  0  0  0  0  0  0  0
    0.8298   -0.3734   -0.0072 C   0  0  0  0  0  0  0  0  0  0  0  0
    2.0749   -0.9348   -0.6821 C   0  0  0  0  0  0  0  0  0  0  0  0
   -0.4195   -1.0875   -0.2724 C   0  0  0  0  0  0  0  0  0  0  0  0
   -1.7692   -0.5336    0.0560 C   0  0  0  0  0  0  0  0  0  0  0  0
   -1.3369    0.8734   -0.2794 C   0  0  0  0  0  0  0  0  0  0  0  0
   -2.1431    1.5616   -1.1603 O   0  0  0  0  0  0  0  0  0  0  0  0
   -0.1193    0.2884   -0.9472 C   0  0  0  0  0  0  0  0  0  0  0  0
    1.4640    1.5174    3.1296 H   0  0  0  0  0  0  0  0  0  0  0  0
    2.6368   -0.1141   -1.1960 H   0  0  0  0  0  0  0  0  0  0  0  0
    1.7799   -1.6616   -1.4736 H   0  0  0  0  0  0  0  0  0  0  0  0
    2.6546   -1.4556    0.0791 H   0  0  0  0  0  0  0  0  0  0  0  0
   -0.3925   -1.9693   -0.9453 H   0  0  0  0  0  0  0  0  0  0  0  0
   -2.5660   -0.9426   -0.6331 H   0  0  0  0  0  0  0  0  0  0  0  0
   -2.0924   -0.6836    1.1210 H   0  0  0  0  0  0  0  0  0  0  0  0
   -1.0355    1.4123    0.6367 H   0  0  0  0  0  0  0  0  0  0  0  0
   -1.9066    2.5248   -1.0900 H   0  0  0  0  0  0  0  0  0  0  0  0
   -0.0133    0.2586   -2.0241 H   0  0  0  0  0  0  0  0  0  0  0  0
  1  2  3  0
  2  3  1  0
  3  4  1  0
  3  5  1  0
  5  6  1  0
  6  7  1  0
  7  8  1  0
  7  9  1  0
  9  3  1  0
  9  5  1  0
  1 10  1  0
  4 11  1  0
  4 12  1  0
  4 13  1  0
  5 14  1  0
  6 15  1  0
  6 16  1  0
  7 17  1  0
  8 18  1  0
  9 19  1  0
M  END
