
     RDKit          3D

 19 19  0  0  0  0  0  0  0  0999 V2000
   -0.5627    2.8604   -0.6341 C   0  0  0  0  0  0  0  0  0  0  0  0
   -0.4068    1.8283   -0.0652 C   0  0  0  0  0  0  0  0  0  0  0  0
   -0.2073    0.5690    0.6033 C   0  0  0  0  0  0  0  0  0  0  0  0
    0.7602   -0.3788   -0.1223 C   0  0  0  0  0  0  0  0  0  0  0  0
    2.1249   -0.2988    0.5005 C   0  0  0  0  0  0  0  0  0  0  0  0
   -0.1258   -1.4874    0.4205 C   0  0  0  0  0  0  0  0  0  0  0  0
   -1.2690   -0.4677    0.2785 C   0  0  0  0  0  0  0  0  0  0  0  0
   -1.6958   -0.4251   -1.1402 C   0  0  0  0  0  0  0  0  0  0  0  0
   -2.4960   -1.2174   -1.5738 O   0  0  0  0  0  0  0  0  0  0  0  0
   -0.6979    3.7897   -1.1658 H   0  0  0  0  0  0  0  0  0  0  0  0
    0.0238    0.6100    1.6830 H   0  0  0  0  0  0  0  0  0  0  0  0
    0.7321   -0.3015   -1.2099 H   0  0  0  0  0  0  0  0  0  0  0  0
    2.5576    0.7027    0.3010 H   0  0  0  0  0  0  0  0  0  0  0  0
    2.7707   -1.0714    0.0558 H   0  0  0  0  0  0  0  0  0  0  0  0
    2.0022   -0.3942    1.5909 H   0  0  0  0  0  0  0  0  0  0  0  0
    0.0643   -1.7043    1.4866 H   0  0  0  0  0  0  0  0  0  0  0  0
   -0.2231   -2.3593   -0.2308 H   0  0  0  0  0  0  0  0  0  0  0  0
   -2.0611   -0.5727    1.0155 H   0  0  0  0  0  0  0  0  0  0  0  0
   -1.2904    0.3183   -1.7938 H   0  0  0  0  0  0  0  0  0  0  0  0
  1  2  3  0
  2  3  1  0
  3  4  1  0
  4  5  1  0
  4  6  1  0
  6  7  1  0
  7  8  1  0
  8  9  2  0
  7  3  1  0
  1 10  1  0
  3 11  1  0
  4 12  1  0
  5 13  1  0
  5 14  1  0
  5 15  1  0
  6 16  1  0
  6 17  1  0
  7 18  1  0
  8 19  1  0
M  END
