
     RDKit          3D

 21 21  0  0  0  0  0  0  0  0999 V2000
    1.6548    2.3620    1.0862 C   0  0  0  0  0  0  0  0  0  0  0  0
    1.4193    1.5303    0.2443 C   0  0  0  0  0  0  0  0  0  0  0  0
    1.1358    0.5064   -0.7559 C   0  0  0  0  0  0  0  0  0  0  0  0
   -0.1647    0.5995   -1.5030 C   0  0  0  0  0  0  0  0  0  0  0  0
    0.1216   -0.5294   -0.5510 C   0  0  0  0  0  0  0  0  0  0  0  0
    0.4636   -1.8884   -1.1857 C   0  0  0  0  0  0  0  0  0  0  0  0
   -0.6989   -0.6943    0.6734 C   0  0  0  0  0  0  0  0  0  0  0  0
   -1.5589    0.4850    1.0271 C   0  0  0  0  0  0  0  0  0  0  0  0
    0.1007   -1.0103    1.7525 O   0  0  0  0  0  0  0  0  0  0  0  0
    1.8601    3.0833    1.8325 H   0  0  0  0  0  0  0  0  0  0  0  0
    2.0087    0.2850   -1.4042 H   0  0  0  0  0  0  0  0  0  0  0  0
   -0.2024    0.3653   -2.5800 H   0  0  0  0  0  0  0  0  0  0  0  0
   -0.8435    1.4149   -1.2089 H   0  0  0  0  0  0  0  0  0  0  0  0
   -0.4438   -2.4077   -1.5331 H   0  0  0  0  0  0  0  0  0  0  0  0
    1.1370   -1.7258   -2.0657 H   0  0  0  0  0  0  0  0  0  0  0  0
    1.0544   -2.4988   -0.4693 H   0  0  0  0  0  0  0  0  0  0  0  0
   -1.3961   -1.5430    0.5043 H   0  0  0  0  0  0  0  0  0  0  0  0
   -1.7218    0.4495    2.1261 H   0  0  0  0  0  0  0  0  0  0  0  0
   -2.5749    0.4208    0.5734 H   0  0  0  0  0  0  0  0  0  0  0  0
   -1.0859    1.4556    0.8161 H   0  0  0  0  0  0  0  0  0  0  0  0
   -0.2651   -0.6602    2.6209 H   0  0  0  0  0  0  0  0  0  0  0  0
  1  2  3  0
  2  3  1  0
  3  4  1  0
  4  5  1  0
  5  6  1  0
  5  7  1  0
  7  8  1  0
  7  9  1  0
  5  3  1  0
  1 10  1  0
  3 11  1  0
  4 12  1  0
  4 13  1  0
  6 14  1  0
  6 15  1  0
  6 16  1  0
  7 17  1  0
  8 18  1  0
  8 19  1  0
  8 20  1  0
  9 21  1  0
M  END
