
     RDKit          3D

 19 20  0  0  0  0  0  0  0  0999 V2000
    2.1085   -2.2000    0.5270 C   0  0  0  0  0  0  0  0  0  0  0  0
    1.0378   -1.7485    0.4615 C   0  0  0  0  0  0  0  0  0  0  0  0
   -0.2999   -1.1573    0.3842 C   0  0  0  0  0  0  0  0  0  0  0  0
   -0.8972   -1.1460   -1.0153 C   0  0  0  0  0  0  0  0  0  0  0  0
   -1.1877    0.3150   -0.9151 C   0  0  0  0  0  0  0  0  0  0  0  0
   -1.6740    0.9533    0.3249 C   0  0  0  0  0  0  0  0  0  0  0  0
   -0.3104    0.3143    0.3680 C   0  0  0  0  0  0  0  0  0  0  0  0
    0.9294    1.1433    0.2388 C   0  0  0  0  0  0  0  0  0  0  0  0
    0.6340    2.5034    0.2528 O   0  0  0  0  0  0  0  0  0  0  0  0
    3.1068   -2.6050    0.5935 H   0  0  0  0  0  0  0  0  0  0  0  0
   -1.0442   -1.5679    1.0896 H   0  0  0  0  0  0  0  0  0  0  0  0
   -0.0687   -1.3467   -1.7442 H   0  0  0  0  0  0  0  0  0  0  0  0
   -1.7908   -1.7827   -1.1449 H   0  0  0  0  0  0  0  0  0  0  0  0
   -0.8729    0.9595   -1.7435 H   0  0  0  0  0  0  0  0  0  0  0  0
   -1.6382    2.0611    0.3460 H   0  0  0  0  0  0  0  0  0  0  0  0
   -2.4290    0.4573    0.9664 H   0  0  0  0  0  0  0  0  0  0  0  0
    1.6048    0.9222    1.0838 H   0  0  0  0  0  0  0  0  0  0  0  0
    1.4051    0.8986   -0.7211 H   0  0  0  0  0  0  0  0  0  0  0  0
    1.3866    3.0261    0.6475 H   0  0  0  0  0  0  0  0  0  0  0  0
  1  2  3  0
  2  3  1  0
  3  4  1  0
  4  5  1  0
  5  6  1  0
  6  7  1  0
  7  8  1  0
  8  9  1  0
  7  3  1  0
  7  5  1  0
  1 10  1  0
  3 11  1  0
  4 12  1  0
  4 13  1  0
  5 14  1  0
  6 15  1  0
  6 16  1  0
  8 17  1  0
  8 18  1  0
  9 19  1  0
M  END
