
     RDKit          3D

 19 18  0  0  0  0  0  0  0  0999 V2000
   -1.1934    2.6223    0.4743 C   0  0  0  0  0  0  0  0  0  0  0  0
   -1.1402    1.5797   -0.1148 C   0  0  0  0  0  0  0  0  0  0  0  0
   -1.1005    0.3397   -0.8243 C   0  0  0  0  0  0  0  0  0  0  0  0
   -0.2204   -0.7074   -0.2255 C   0  0  0  0  0  0  0  0  0  0  0  0
   -0.3900   -1.9308   -1.1673 C   0  0  0  0  0  0  0  0  0  0  0  0
   -0.7412   -1.0581    1.0175 O   0  0  0  0  0  0  0  0  0  0  0  0
    1.2343   -0.4346   -0.2051 C   0  0  0  0  0  0  0  0  0  0  0  0
    1.5876    0.7445    0.5574 C   0  0  0  0  0  0  0  0  0  0  0  0
    1.8998    1.7312    1.2152 C   0  0  0  0  0  0  0  0  0  0  0  0
   -1.2518    3.5662    0.9932 H   0  0  0  0  0  0  0  0  0  0  0  0
   -0.8230    0.5162   -1.8940 H   0  0  0  0  0  0  0  0  0  0  0  0
   -2.1287   -0.1380   -0.9038 H   0  0  0  0  0  0  0  0  0  0  0  0
   -0.1373   -1.6260   -2.2036 H   0  0  0  0  0  0  0  0  0  0  0  0
    0.3089   -2.7171   -0.8313 H   0  0  0  0  0  0  0  0  0  0  0  0
   -1.4418   -2.2526   -1.0472 H   0  0  0  0  0  0  0  0  0  0  0  0
   -0.0227   -1.0845    1.6885 H   0  0  0  0  0  0  0  0  0  0  0  0
    1.6301   -0.3902   -1.2454 H   0  0  0  0  0  0  0  0  0  0  0  0
    1.7632   -1.3390    0.2324 H   0  0  0  0  0  0  0  0  0  0  0  0
    2.1669    2.5784    1.8013 H   0  0  0  0  0  0  0  0  0  0  0  0
  1  2  3  0
  2  3  1  0
  3  4  1  0
  4  5  1  0
  4  6  1  0
  4  7  1  0
  7  8  1  0
  8  9  3  0
  1 10  1  0
  3 11  1  0
  3 12  1  0
  5 13  1  0
  5 14  1  0
  5 15  1  0
  6 16  1  0
  7 17  1  0
  7 18  1  0
  9 19  1  0
M  END
