
     RDKit          3D

 18 17  0  0  0  0  0  0  0  0999 V2000
    2.5555    2.2578   -0.3165 C   0  0  0  0  0  0  0  0  0  0  0  0
    1.7641    1.3850    0.0385 C   0  0  0  0  0  0  0  0  0  0  0  0
    0.8856    0.3898    0.4398 C   0  0  0  0  0  0  0  0  0  0  0  0
    1.7126   -0.6755    1.2781 C   0  0  0  0  0  0  0  0  0  0  0  0
    0.1479   -0.2989   -0.5487 O   0  0  0  0  0  0  0  0  0  0  0  0
   -1.1326   -0.5542   -0.0228 C   0  0  0  0  0  0  0  0  0  0  0  0
   -2.1061   -1.1989   -0.9001 C   0  0  0  0  0  0  0  0  0  0  0  0
   -2.4609   -0.4721   -2.0566 O   0  0  0  0  0  0  0  0  0  0  0  0
    3.2634    3.0481   -0.6224 H   0  0  0  0  0  0  0  0  0  0  0  0
    0.1499    0.6718    1.2449 H   0  0  0  0  0  0  0  0  0  0  0  0
    1.1174   -0.9363    2.2172 H   0  0  0  0  0  0  0  0  0  0  0  0
    1.8658   -1.5266    0.6220 H   0  0  0  0  0  0  0  0  0  0  0  0
    2.6645   -0.1836    1.5053 H   0  0  0  0  0  0  0  0  0  0  0  0
   -1.5723    0.3254    0.4922 H   0  0  0  0  0  0  0  0  0  0  0  0
   -0.9708   -1.2915    0.8450 H   0  0  0  0  0  0  0  0  0  0  0  0
   -3.0013   -1.5188   -0.3672 H   0  0  0  0  0  0  0  0  0  0  0  0
   -1.6815   -2.1425   -1.3529 H   0  0  0  0  0  0  0  0  0  0  0  0
   -3.2013   -1.0454   -2.4959 H   0  0  0  0  0  0  0  0  0  0  0  0
  1  2  3  0
  2  3  1  0
  3  4  1  0
  3  5  1  0
  5  6  1  0
  6  7  1  0
  7  8  1  0
  1  9  1  0
  3 10  1  0
  4 11  1  0
  4 12  1  0
  4 13  1  0
  6 14  1  0
  6 15  1  0
  7 16  1  0
  7 17  1  0
  8 18  1  0
M  END
