
     RDKit          3D

 18 17  0  0  0  0  0  0  0  0999 V2000
    1.6180   -2.1018   -2.1053 C   0  0  0  0  0  0  0  0  0  0  0  0
    0.6882   -1.4356   -1.7574 C   0  0  0  0  0  0  0  0  0  0  0  0
   -0.4265   -0.6056   -1.3357 C   0  0  0  0  0  0  0  0  0  0  0  0
   -0.5804    0.3276   -2.4865 O   0  0  0  0  0  0  0  0  0  0  0  0
   -0.2939    0.3040   -0.2200 C   0  0  0  0  0  0  0  0  0  0  0  0
    0.1033   -0.1890    1.1288 C   0  0  0  0  0  0  0  0  0  0  0  0
    0.0284    1.0795    2.0185 C   0  0  0  0  0  0  0  0  0  0  0  0
   -1.3241    1.4898    1.9196 O   0  0  0  0  0  0  0  0  0  0  0  0
    2.4602   -2.7125   -2.4353 H   0  0  0  0  0  0  0  0  0  0  0  0
   -1.3750   -1.1835   -1.4233 H   0  0  0  0  0  0  0  0  0  0  0  0
    0.2736    0.8691   -2.3729 H   0  0  0  0  0  0  0  0  0  0  0  0
   -1.2968    0.8425   -0.1066 H   0  0  0  0  0  0  0  0  0  0  0  0
    0.4159    1.1453   -0.4735 H   0  0  0  0  0  0  0  0  0  0  0  0
   -0.5225   -0.9303    1.5916 H   0  0  0  0  0  0  0  0  0  0  0  0
    1.1667   -0.4980    1.1788 H   0  0  0  0  0  0  0  0  0  0  0  0
    0.3802    0.9033    3.0152 H   0  0  0  0  0  0  0  0  0  0  0  0
    0.5917    1.8840    1.4797 H   0  0  0  0  0  0  0  0  0  0  0  0
   -1.9071    0.8113    2.3843 H   0  0  0  0  0  0  0  0  0  0  0  0
  1  2  3  0
  2  3  1  0
  3  4  1  0
  3  5  1  0
  5  6  1  0
  6  7  1  0
  7  8  1  0
  1  9  1  0
  3 10  1  0
  4 11  1  0
  5 12  1  0
  5 13  1  0
  6 14  1  0
  6 15  1  0
  7 16  1  0
  7 17  1  0
  8 18  1  0
M  END
