
     RDKit          3D

 15 16  0  0  0  0  0  0  0  0999 V2000
    3.0798   -0.8067   -0.3463 C   0  0  0  0  0  0  0  0  0  0  0  0
    2.0467   -0.2039   -0.3259 C   0  0  0  0  0  0  0  0  0  0  0  0
    0.7913    0.5189   -0.3212 C   0  0  0  0  0  0  0  0  0  0  0  0
   -0.4164   -0.1620   -0.9497 C   0  0  0  0  0  0  0  0  0  0  0  0
   -1.2433    0.4345    0.1703 C   0  0  0  0  0  0  0  0  0  0  0  0
   -1.9380   -0.5391    1.0262 C   0  0  0  0  0  0  0  0  0  0  0  0
   -3.1165   -0.8187    0.9300 O   0  0  0  0  0  0  0  0  0  0  0  0
    0.0587    0.9284    0.7729 C   0  0  0  0  0  0  0  0  0  0  0  0
    0.7243    1.8499   -0.0109 O   0  0  0  0  0  0  0  0  0  0  0  0
    3.9992   -1.3309   -0.3561 H   0  0  0  0  0  0  0  0  0  0  0  0
   -0.6563    0.2548   -1.9371 H   0  0  0  0  0  0  0  0  0  0  0  0
   -0.3255   -1.2467   -0.9650 H   0  0  0  0  0  0  0  0  0  0  0  0
   -1.8480    1.2899   -0.1949 H   0  0  0  0  0  0  0  0  0  0  0  0
   -1.3721   -1.0466    1.7964 H   0  0  0  0  0  0  0  0  0  0  0  0
    0.2161    0.8783    1.8501 H   0  0  0  0  0  0  0  0  0  0  0  0
  1  2  3  0
  2  3  1  0
  3  4  1  0
  4  5  1  0
  5  6  1  0
  6  7  2  0
  5  8  1  0
  8  9  1  0
  8  3  1  0
  9  3  1  0
  1 10  1  0
  4 11  1  0
  4 12  1  0
  5 13  1  0
  6 14  1  0
  8 15  1  0
M  END
