
     RDKit          3D

 17 18  0  0  0  0  0  0  0  0999 V2000
    3.2319    0.1662   -0.0153 C   0  0  0  0  0  0  0  0  0  0  0  0
    2.1412   -0.1108   -0.4547 C   0  0  0  0  0  0  0  0  0  0  0  0
    0.8178   -0.4588   -1.0133 C   0  0  0  0  0  0  0  0  0  0  0  0
   -0.1976   -0.1444   -0.1430 C   0  0  0  0  0  0  0  0  0  0  0  0
   -1.6734   -0.3679   -0.3993 C   0  0  0  0  0  0  0  0  0  0  0  0
   -1.5871    0.2166    0.9907 C   0  0  0  0  0  0  0  0  0  0  0  0
   -0.5837    1.1711    0.4106 C   0  0  0  0  0  0  0  0  0  0  0  0
   -0.4518   -0.7103    1.1893 C   0  0  0  0  0  0  0  0  0  0  0  0
   -0.0748   -1.4575    2.0373 O   0  0  0  0  0  0  0  0  0  0  0  0
    4.1939    0.4296    0.3743 H   0  0  0  0  0  0  0  0  0  0  0  0
    0.7125    0.0168   -2.0086 H   0  0  0  0  0  0  0  0  0  0  0  0
    0.8594   -1.5646   -1.2344 H   0  0  0  0  0  0  0  0  0  0  0  0
   -2.1096    0.3264   -1.1302 H   0  0  0  0  0  0  0  0  0  0  0  0
   -1.9671   -1.4199   -0.4677 H   0  0  0  0  0  0  0  0  0  0  0  0
   -2.3427    0.4133    1.6127 H   0  0  0  0  0  0  0  0  0  0  0  0
   -1.0547    1.8124   -0.3848 H   0  0  0  0  0  0  0  0  0  0  0  0
    0.0858    1.6817    1.0987 H   0  0  0  0  0  0  0  0  0  0  0  0
  1  2  3  0
  2  3  1  0
  3  4  1  0
  4  5  1  0
  5  6  1  0
  6  7  1  0
  6  8  1  0
  8  9  2  0
  7  4  1  0
  8  4  1  0
  1 10  1  0
  3 11  1  0
  3 12  1  0
  5 13  1  0
  5 14  1  0
  6 15  1  0
  7 16  1  0
  7 17  1  0
M  END
