
     RDKit          3D

 15 14  0  0  0  0  0  0  0  0999 V2000
    5.5971   -0.8923   -0.3090 C   0  0  0  0  0  0  0  0  0  0  0  0
    5.5939   -0.8919   -0.3092 C   0  0  0  0  0  0  0  0  0  0  0  0
    3.6525   -0.6498   -0.3205 C   0  0  0  0  0  0  0  0  0  0  0  0
    1.2345   -0.2908   -0.2091 C   0  0  0  0  0  0  0  0  0  0  0  0
   -0.8355    0.0750   -0.1101 C   0  0  0  0  0  0  0  0  0  0  0  0
   -0.9094    0.0895   -0.1069 C   0  0  0  0  0  0  0  0  0  0  0  0
   -2.2594    0.3835   -0.0501 C   0  0  0  0  0  0  0  0  0  0  0  0
   -3.3539   -0.0398   -0.5707 C   0  0  0  0  0  0  0  0  0  0  0  0
   -1.9471    1.9010    0.7316 O   0  0  0  0  0  0  0  0  0  0  0  0
    7.1186   -1.0598   -0.1259 H   0  0  0  0  0  0  0  0  0  0  0  0
   -2.3343    0.0408    1.4788 H   0  0  0  0  0  0  0  0  0  0  0  0
   -3.0712    0.4002   -1.6619 H   0  0  0  0  0  0  0  0  0  0  0  0
   -4.2782    0.1850   -0.1056 H   0  0  0  0  0  0  0  0  0  0  0  0
   -3.1052   -1.2397   -0.6097 H   0  0  0  0  0  0  0  0  0  0  0  0
   -1.1024    1.9892   -0.0381 H   0  0  0  0  0  0  0  0  0  0  0  0
  1  2  3  0
  2  3  1  0
  3  4  3  0
  4  5  1  0
  5  6  3  0
  6  7  1  0
  7  8  1  0
  7  9  1  0
  1 10  1  0
  7 11  1  0
  8 12  1  0
  8 13  1  0
  8 14  1  0
  9 15  1  0
M  END
