
     RDKit          3D

 17 18  0  0  0  0  0  0  0  0999 V2000
    3.2076   -0.3724    0.4530 C   0  0  0  0  0  0  0  0  0  0  0  0
    2.0774   -0.1746    0.0268 C   0  0  0  0  0  0  0  0  0  0  0  0
    0.7338    0.0791   -0.4959 C   0  0  0  0  0  0  0  0  0  0  0  0
    0.4663    1.4319   -0.4608 O   0  0  0  0  0  0  0  0  0  0  0  0
   -0.8829    1.6017   -0.2322 C   0  0  0  0  0  0  0  0  0  0  0  0
   -1.3682    0.3954    0.5238 C   0  0  0  0  0  0  0  0  0  0  0  0
   -1.6217   -0.8953   -0.2387 C   0  0  0  0  0  0  0  0  0  0  0  0
   -0.2811   -0.6097    0.3746 C   0  0  0  0  0  0  0  0  0  0  0  0
    0.1154   -1.2366    1.5361 O   0  0  0  0  0  0  0  0  0  0  0  0
    4.1813   -0.5366    0.8385 H   0  0  0  0  0  0  0  0  0  0  0  0
    0.7031   -0.2474   -1.5467 H   0  0  0  0  0  0  0  0  0  0  0  0
   -1.4698    1.6552   -1.1728 H   0  0  0  0  0  0  0  0  0  0  0  0
   -1.1125    2.4972    0.3806 H   0  0  0  0  0  0  0  0  0  0  0  0
   -1.8556    0.5104    1.4938 H   0  0  0  0  0  0  0  0  0  0  0  0
   -1.6376   -0.8547   -1.3526 H   0  0  0  0  0  0  0  0  0  0  0  0
   -2.2796   -1.6167    0.2676 H   0  0  0  0  0  0  0  0  0  0  0  0
    1.0240   -1.6269    1.4819 H   0  0  0  0  0  0  0  0  0  0  0  0
  1  2  3  0
  2  3  1  0
  3  4  1  0
  4  5  1  0
  5  6  1  0
  6  7  1  0
  7  8  1  0
  8  9  1  0
  8  3  1  0
  8  6  1  0
  1 10  1  0
  3 11  1  0
  5 12  1  0
  5 13  1  0
  6 14  1  0
  7 15  1  0
  7 16  1  0
  9 17  1  0
M  END
