
     RDKit          3D

 19 20  0  0  0  0  0  0  0  0999 V2000
    2.7956    1.7532    0.3573 C   0  0  0  0  0  0  0  0  0  0  0  0
    1.8214    1.1536    0.2232 C   0  0  0  0  0  0  0  0  0  0  0  0
    0.6021    0.4165    0.0337 C   0  0  0  0  0  0  0  0  0  0  0  0
    0.2752   -0.1013   -1.2990 C   0  0  0  0  0  0  0  0  0  0  0  0
   -1.2622   -0.1369   -1.2732 C   0  0  0  0  0  0  0  0  0  0  0  0
   -1.5167    0.2037    0.1859 C   0  0  0  0  0  0  0  0  0  0  0  0
   -1.0136   -0.9034    1.0718 C   0  0  0  0  0  0  0  0  0  0  0  0
    0.4844   -0.7219    1.0371 C   0  0  0  0  0  0  0  0  0  0  0  0
   -0.5396    1.1932    0.3734 O   0  0  0  0  0  0  0  0  0  0  0  0
    3.7419    2.3208    0.4935 H   0  0  0  0  0  0  0  0  0  0  0  0
    0.6334    0.5332   -2.1444 H   0  0  0  0  0  0  0  0  0  0  0  0
    0.6875   -1.1222   -1.4720 H   0  0  0  0  0  0  0  0  0  0  0  0
   -1.6969    0.6264   -1.9342 H   0  0  0  0  0  0  0  0  0  0  0  0
   -1.6255   -1.1295   -1.5392 H   0  0  0  0  0  0  0  0  0  0  0  0
   -2.5269    0.5359    0.4053 H   0  0  0  0  0  0  0  0  0  0  0  0
   -1.3090   -1.9102    0.6946 H   0  0  0  0  0  0  0  0  0  0  0  0
   -1.4288   -0.7169    2.0959 H   0  0  0  0  0  0  0  0  0  0  0  0
    1.0300   -1.5884    0.6462 H   0  0  0  0  0  0  0  0  0  0  0  0
    0.8475   -0.4057    2.0441 H   0  0  0  0  0  0  0  0  0  0  0  0
  1  2  3  0
  2  3  1  0
  3  4  1  0
  4  5  1  0
  5  6  1  0
  6  7  1  0
  7  8  1  0
  6  9  1  0
  8  3  1  0
  9  3  1  0
  1 10  1  0
  4 11  1  0
  4 12  1  0
  5 13  1  0
  5 14  1  0
  6 15  1  0
  7 16  1  0
  7 17  1  0
  8 18  1  0
  8 19  1  0
M  END
