
     RDKit          3D

 18 18  0  0  0  0  0  0  0  0999 V2000
    2.9264   -0.1065    0.7432 C   0  0  0  0  0  0  0  0  0  0  0  0
    1.6090   -0.2022    0.0519 C   0  0  0  0  0  0  0  0  0  0  0  0
    0.5151   -0.2821   -0.4979 C   0  0  0  0  0  0  0  0  0  0  0  0
    0.1413    0.5206   -1.7629 C   0  0  0  0  0  0  0  0  0  0  0  0
   -1.3663    0.0950   -1.6285 C   0  0  0  0  0  0  0  0  0  0  0  0
   -1.6696    0.5373   -0.3633 O   0  0  0  0  0  0  0  0  0  0  0  0
   -0.5920    0.4863    0.4220 C   0  0  0  0  0  0  0  0  0  0  0  0
   -0.6848   -0.4028    1.6618 C   0  0  0  0  0  0  0  0  0  0  0  0
    3.7897   -0.0297    1.1858 H   0  0  0  0  0  0  0  0  0  0  0  0
   -0.0248   -1.3099   -0.5333 H   0  0  0  0  0  0  0  0  0  0  0  0
    0.5371    0.0962   -2.6717 H   0  0  0  0  0  0  0  0  0  0  0  0
    0.2332    1.5834   -1.5624 H   0  0  0  0  0  0  0  0  0  0  0  0
   -1.3624   -1.0433   -1.6018 H   0  0  0  0  0  0  0  0  0  0  0  0
   -1.9250    0.4757   -2.4337 H   0  0  0  0  0  0  0  0  0  0  0  0
   -0.1393    1.4413    0.6612 H   0  0  0  0  0  0  0  0  0  0  0  0
    0.1862   -1.1259    1.5985 H   0  0  0  0  0  0  0  0  0  0  0  0
   -0.5803    0.2478    2.5408 H   0  0  0  0  0  0  0  0  0  0  0  0
   -1.5935   -0.9810    1.6438 H   0  0  0  0  0  0  0  0  0  0  0  0
  1  2  3  0
  2  3  1  0
  3  4  1  0
  4  5  1  0
  5  6  1  0
  6  7  1  0
  7  8  1  0
  7  3  1  0
  1  9  1  0
  3 10  1  0
  4 11  1  0
  4 12  1  0
  5 13  1  0
  5 14  1  0
  7 15  1  0
  8 16  1  0
  8 17  1  0
  8 18  1  0
M  END
