
     RDKit          3D

 18 17  0  0  0  0  0  0  0  0999 V2000
   -1.4492    2.7092    0.5016 C   0  0  0  0  0  0  0  0  0  0  0  0
   -0.4572    1.3198    0.4142 C   0  0  0  0  0  0  0  0  0  0  0  0
    0.1746    0.4458    0.3415 C   0  0  0  0  0  0  0  0  0  0  0  0
    1.2790    0.0141   -0.6428 C   0  0  0  0  0  0  0  0  0  0  0  0
    0.7467   -0.3624   -1.9752 C   0  0  0  0  0  0  0  0  0  0  0  0
    0.2008   -0.6646    1.4591 C   0  0  0  0  0  0  0  0  0  0  0  0
   -1.1983   -1.0885    1.8815 C   0  0  0  0  0  0  0  0  0  0  0  0
   -2.0522   -0.1389    1.5710 O   0  0  0  0  0  0  0  0  0  0  0  0
   -2.0050    3.5161    0.5573 H   0  0  0  0  0  0  0  0  0  0  0  0
   -0.7509   -0.3687   -0.3365 H   0  0  0  0  0  0  0  0  0  0  0  0
    1.9057    1.0008   -0.7544 H   0  0  0  0  0  0  0  0  0  0  0  0
    1.9605   -0.6514   -0.2002 H   0  0  0  0  0  0  0  0  0  0  0  0
   -0.0030    0.2450   -2.4540 H   0  0  0  0  0  0  0  0  0  0  0  0
    0.2051   -1.4061   -1.8736 H   0  0  0  0  0  0  0  0  0  0  0  0
    1.6205   -0.6742   -2.6067 H   0  0  0  0  0  0  0  0  0  0  0  0
    0.8110   -0.3983    2.2332 H   0  0  0  0  0  0  0  0  0  0  0  0
    0.5449   -1.6037    0.8252 H   0  0  0  0  0  0  0  0  0  0  0  0
   -1.5330   -1.8939    2.3277 H   0  0  0  0  0  0  0  0  0  0  0  0
  1  2  3  0
  2  3  1  0
  3  4  1  0
  4  5  1  0
  3  6  1  0
  6  7  1  0
  7  8  2  0
  1  9  1  0
  3 10  1  0
  4 11  1  0
  4 12  1  0
  5 13  1  0
  5 14  1  0
  5 15  1  0
  6 16  1  0
  6 17  1  0
  7 18  1  0
M  END
