
     RDKit          3D

 19 19  0  0  0  0  0  0  0  0999 V2000
    2.7579   -1.2354   -0.3596 C   0  0  0  0  0  0  0  0  0  0  0  0
    1.7654   -0.7630    0.1562 C   0  0  0  0  0  0  0  0  0  0  0  0
    0.5747   -0.1888    0.7832 C   0  0  0  0  0  0  0  0  0  0  0  0
    0.7872    1.2553    1.1127 C   0  0  0  0  0  0  0  0  0  0  0  0
   -0.6032   -0.4565   -0.0950 C   0  0  0  0  0  0  0  0  0  0  0  0
   -0.8071   -1.8175   -0.2795 O   0  0  0  0  0  0  0  0  0  0  0  0
   -0.6198    0.2663   -1.4148 C   0  0  0  0  0  0  0  0  0  0  0  0
   -1.6404    1.1204   -0.9621 O   0  0  0  0  0  0  0  0  0  0  0  0
   -1.8560    0.2762    0.1497 C   0  0  0  0  0  0  0  0  0  0  0  0
    3.6400   -1.6348   -0.8142 H   0  0  0  0  0  0  0  0  0  0  0  0
    0.4349   -0.7318    1.7414 H   0  0  0  0  0  0  0  0  0  0  0  0
   -0.1501    1.7213    1.4531 H   0  0  0  0  0  0  0  0  0  0  0  0
    1.5011    1.3264    1.9615 H   0  0  0  0  0  0  0  0  0  0  0  0
    1.2740    1.8219    0.2744 H   0  0  0  0  0  0  0  0  0  0  0  0
   -1.6254   -2.0256   -0.7744 H   0  0  0  0  0  0  0  0  0  0  0  0
   -0.9538   -0.3385   -2.2909 H   0  0  0  0  0  0  0  0  0  0  0  0
    0.2900    0.8310   -1.6526 H   0  0  0  0  0  0  0  0  0  0  0  0
   -2.7977   -0.2936   -0.0508 H   0  0  0  0  0  0  0  0  0  0  0  0
   -1.9718    0.8669    1.0616 H   0  0  0  0  0  0  0  0  0  0  0  0
  1  2  3  0
  2  3  1  0
  3  4  1  0
  3  5  1  0
  5  6  1  0
  5  7  1  0
  7  8  1  0
  8  9  1  0
  9  5  1  0
  1 10  1  0
  3 11  1  0
  4 12  1  0
  4 13  1  0
  4 14  1  0
  6 15  1  0
  7 16  1  0
  7 17  1  0
  9 18  1  0
  9 19  1  0
M  END
