
     RDKit          3D

 19 20  0  0  0  0  0  0  0  0999 V2000
   -2.2766    2.4707    1.6051 C   0  0  0  0  0  0  0  0  0  0  0  0
   -1.9206    1.4028    1.0886 C   0  0  0  0  0  0  0  0  0  0  0  0
   -1.5409    0.3121    0.5404 C   0  0  0  0  0  0  0  0  0  0  0  0
   -0.3474   -0.1340    1.6107 C   0  0  0  0  0  0  0  0  0  0  0  0
    0.0089   -1.4117    1.5018 O   0  0  0  0  0  0  0  0  0  0  0  0
    0.8517   -0.6556    0.8034 C   0  0  0  0  0  0  0  0  0  0  0  0
    0.9015   -0.2739   -0.5994 C   0  0  0  0  0  0  0  0  0  0  0  0
    1.9623   -0.7284   -1.5680 C   0  0  0  0  0  0  0  0  0  0  0  0
    0.5474   -1.2311   -1.6520 C   0  0  0  0  0  0  0  0  0  0  0  0
   -2.7552    3.8209    2.2592 H   0  0  0  0  0  0  0  0  0  0  0  0
   -2.2715   -0.5494    0.6306 H   0  0  0  0  0  0  0  0  0  0  0  0
   -1.0521    0.3199   -0.4530 H   0  0  0  0  0  0  0  0  0  0  0  0
    0.1199    0.8655    1.9372 H   0  0  0  0  0  0  0  0  0  0  0  0
    1.8273   -0.4456    1.4207 H   0  0  0  0  0  0  0  0  0  0  0  0
    0.6301    0.8428   -0.7608 H   0  0  0  0  0  0  0  0  0  0  0  0
    2.7346   -1.4414   -1.2772 H   0  0  0  0  0  0  0  0  0  0  0  0
    2.2554   -0.0678   -2.4415 H   0  0  0  0  0  0  0  0  0  0  0  0
    0.3956   -2.2990   -1.4158 H   0  0  0  0  0  0  0  0  0  0  0  0
   -0.0701   -0.7967   -2.4924 H   0  0  0  0  0  0  0  0  0  0  0  0
  1  2  3  0
  2  3  1  0
  3  4  1  0
  4  5  1  0
  5  6  1  0
  6  7  1  0
  7  8  1  0
  8  9  1  0
  6  4  1  0
  9  7  1  0
  1 10  1  0
  3 11  1  0
  3 12  1  0
  4 13  1  0
  6 14  1  0
  7 15  1  0
  8 16  1  0
  8 17  1  0
  9 18  1  0
  9 19  1  0
M  END
