
     RDKit          3D

 17 17  0  0  0  0  0  0  0  0999 V2000
   -2.5902   -1.4373    1.9465 C   0  0  0  0  0  0  0  0  0  0  0  0
   -2.0617   -1.8499    0.8695 C   0  0  0  0  0  0  0  0  0  0  0  0
   -1.2442   -2.4860   -0.7322 C   0  0  0  0  0  0  0  0  0  0  0  0
   -0.7192   -0.8468   -0.6105 C   0  0  0  0  0  0  0  0  0  0  0  0
   -0.3340    0.4250   -0.5264 C   0  0  0  0  0  0  0  0  0  0  0  0
    0.0421    1.7393   -0.4287 C   0  0  0  0  0  0  0  0  0  0  0  0
    1.6400    1.7596   -0.5761 C   0  0  0  0  0  0  0  0  0  0  0  0
    2.2220    0.5877    0.3020 C   0  0  0  0  0  0  0  0  0  0  0  0
    2.2674    0.6893   -1.1025 O   0  0  0  0  0  0  0  0  0  0  0  0
   -2.8445   -1.2384    2.4465 H   0  0  0  0  0  0  0  0  0  0  0  0
   -0.4461   -2.7421   -0.0271 H   0  0  0  0  0  0  0  0  0  0  0  0
   -1.9670   -2.6007   -1.2273 H   0  0  0  0  0  0  0  0  0  0  0  0
   -0.4582    2.3457   -1.1145 H   0  0  0  0  0  0  0  0  0  0  0  0
   -0.1083    2.0912    0.7167 H   0  0  0  0  0  0  0  0  0  0  0  0
    2.1298    2.7457   -0.1735 H   0  0  0  0  0  0  0  0  0  0  0  0
    1.4251   -0.0662    0.7220 H   0  0  0  0  0  0  0  0  0  0  0  0
    3.0467    0.8838    0.8905 H   0  0  0  0  0  0  0  0  0  0  0  0
  1  2  3  0
  2  3  1  0
  3  4  1  0
  4  5  3  0
  5  6  1  0
  6  7  1  0
  7  8  1  0
  8  9  1  0
  9  7  1  0
  1 10  1  0
  3 11  1  0
  3 12  1  0
  6 13  1  0
  6 14  1  0
  7 15  1  0
  8 16  1  0
  8 17  1  0
M  END
