
     RDKit          3D

 19 20  0  0  0  0  0  0  0  0999 V2000
   -0.7398    2.9927   -0.0545 C   0  0  0  0  0  0  0  0  0  0  0  0
   -0.5363    2.0155    0.1751 C   0  0  0  0  0  0  0  0  0  0  0  0
   -0.2238    0.5744    0.5222 C   0  0  0  0  0  0  0  0  0  0  0  0
   -0.9893    0.2109    1.7223 C   0  0  0  0  0  0  0  0  0  0  0  0
   -0.6466   -0.2001   -0.7319 C   0  0  0  0  0  0  0  0  0  0  0  0
    0.2337   -1.3819   -0.6183 C   0  0  0  0  0  0  0  0  0  0  0  0
    1.6215   -1.3007   -1.2167 C   0  0  0  0  0  0  0  0  0  0  0  0
    1.4344   -0.8921    0.1738 C   0  0  0  0  0  0  0  0  0  0  0  0
    1.1250    0.4043    0.5997 O   0  0  0  0  0  0  0  0  0  0  0  0
   -0.9840    4.2354   -0.3451 H   0  0  0  0  0  0  0  0  0  0  0  0
   -0.8758   -0.9024    1.9206 H   0  0  0  0  0  0  0  0  0  0  0  0
   -0.7716    0.8189    2.6398 H   0  0  0  0  0  0  0  0  0  0  0  0
   -2.0946    0.3574    1.5277 H   0  0  0  0  0  0  0  0  0  0  0  0
   -0.3557    0.4271   -1.6299 H   0  0  0  0  0  0  0  0  0  0  0  0
   -1.7271   -0.4003   -0.7493 H   0  0  0  0  0  0  0  0  0  0  0  0
   -0.1600   -2.4158   -0.4027 H   0  0  0  0  0  0  0  0  0  0  0  0
    1.8155   -0.6456   -2.0767 H   0  0  0  0  0  0  0  0  0  0  0  0
    2.1073   -2.3078   -1.4000 H   0  0  0  0  0  0  0  0  0  0  0  0
    1.7671   -1.5900    0.9826 H   0  0  0  0  0  0  0  0  0  0  0  0
  1  2  3  0
  2  3  1  0
  3  4  1  0
  3  5  1  0
  5  6  1  0
  6  7  1  0
  7  8  1  0
  8  9  1  0
  9  3  1  0
  8  6  1  0
  1 10  1  0
  4 11  1  0
  4 12  1  0
  4 13  1  0
  5 14  1  0
  5 15  1  0
  6 16  1  0
  7 17  1  0
  7 18  1  0
  8 19  1  0
M  END
