
     RDKit          3D

 18 17  0  0  0  0  0  0  0  0999 V2000
    2.9281    0.7183    0.4653 C   0  0  0  0  0  0  0  0  0  0  0  0
    1.9539   -0.0164    0.3841 C   0  0  0  0  0  0  0  0  0  0  0  0
    0.8274   -0.8889    0.3052 C   0  0  0  0  0  0  0  0  0  0  0  0
   -0.2567   -0.4363   -0.5987 C   0  0  0  0  0  0  0  0  0  0  0  0
   -1.3388   -1.5353   -0.5417 C   0  0  0  0  0  0  0  0  0  0  0  0
   -0.9694    0.8205   -0.2536 C   0  0  0  0  0  0  0  0  0  0  0  0
   -0.2392    2.0596   -0.1809 C   0  0  0  0  0  0  0  0  0  0  0  0
   -0.8476    3.0615    0.2229 O   0  0  0  0  0  0  0  0  0  0  0  0
    3.7772    1.3817    0.5331 H   0  0  0  0  0  0  0  0  0  0  0  0
    1.1207   -1.9244   -0.0646 H   0  0  0  0  0  0  0  0  0  0  0  0
    0.3988   -1.1146    1.3188 H   0  0  0  0  0  0  0  0  0  0  0  0
    0.1028   -0.4548   -1.6609 H   0  0  0  0  0  0  0  0  0  0  0  0
   -1.5525   -1.9208   -1.5762 H   0  0  0  0  0  0  0  0  0  0  0  0
   -1.0807   -2.3404    0.1562 H   0  0  0  0  0  0  0  0  0  0  0  0
   -2.2601   -1.0541   -0.1793 H   0  0  0  0  0  0  0  0  0  0  0  0
   -1.4835    0.5987    0.7464 H   0  0  0  0  0  0  0  0  0  0  0  0
   -1.8624    0.8684   -0.9536 H   0  0  0  0  0  0  0  0  0  0  0  0
    0.7821    2.1772   -0.4500 H   0  0  0  0  0  0  0  0  0  0  0  0
  1  2  3  0
  2  3  1  0
  3  4  1  0
  4  5  1  0
  4  6  1  0
  6  7  1  0
  7  8  2  0
  1  9  1  0
  3 10  1  0
  3 11  1  0
  4 12  1  0
  5 13  1  0
  5 14  1  0
  5 15  1  0
  6 16  1  0
  6 17  1  0
  7 18  1  0
M  END
