
     RDKit          3D

 15 14  0  0  0  0  0  0  0  0999 V2000
    1.3645    2.3041   -1.4207 C   0  0  0  0  0  0  0  0  0  0  0  0
    0.7277    1.2867   -1.6923 C   0  0  0  0  0  0  0  0  0  0  0  0
   -0.0181    0.0862   -2.0038 C   0  0  0  0  0  0  0  0  0  0  0  0
   -0.4765   -0.6073   -0.7934 C   0  0  0  0  0  0  0  0  0  0  0  0
   -1.2543   -1.6387   -0.8983 O   0  0  0  0  0  0  0  0  0  0  0  0
   -0.0707   -0.1544    0.5205 C   0  0  0  0  0  0  0  0  0  0  0  0
    0.6841    0.8029    0.6633 O   0  0  0  0  0  0  0  0  0  0  0  0
   -0.6095   -0.9007    1.7083 C   0  0  0  0  0  0  0  0  0  0  0  0
   -0.0977   -0.3165    2.8398 O   0  0  0  0  0  0  0  0  0  0  0  0
    1.9288    3.1868   -1.1676 H   0  0  0  0  0  0  0  0  0  0  0  0
   -0.8699    0.3095   -2.7014 H   0  0  0  0  0  0  0  0  0  0  0  0
    0.6956   -0.5998   -2.5605 H   0  0  0  0  0  0  0  0  0  0  0  0
   -0.2607   -1.9479    1.6145 H   0  0  0  0  0  0  0  0  0  0  0  0
   -1.7281   -0.8194    1.6851 H   0  0  0  0  0  0  0  0  0  0  0  0
   -0.0152   -0.9915    3.5590 H   0  0  0  0  0  0  0  0  0  0  0  0
  1  2  3  0
  2  3  1  0
  3  4  1  0
  4  5  2  0
  4  6  1  0
  6  7  2  0
  6  8  1  0
  8  9  1  0
  1 10  1  0
  3 11  1  0
  3 12  1  0
  8 13  1  0
  8 14  1  0
  9 15  1  0
M  END
