
     RDKit          3D

 17 18  0  0  0  0  0  0  0  0999 V2000
    2.2728   -0.0973   -2.4355 C   0  0  0  0  0  0  0  0  0  0  0  0
    1.2271   -0.3686   -1.9369 C   0  0  0  0  0  0  0  0  0  0  0  0
   -0.0328   -0.6919   -1.3091 C   0  0  0  0  0  0  0  0  0  0  0  0
    0.1425   -1.2954   -0.0429 O   0  0  0  0  0  0  0  0  0  0  0  0
   -1.0687   -0.9583    0.5002 C   0  0  0  0  0  0  0  0  0  0  0  0
   -1.5227    0.0816    1.3262 C   0  0  0  0  0  0  0  0  0  0  0  0
   -0.7544    0.5812    0.2667 C   0  0  0  0  0  0  0  0  0  0  0  0
    0.6734    1.0190    0.6627 C   0  0  0  0  0  0  0  0  0  0  0  0
   -0.8099    0.4718   -1.0879 O   0  0  0  0  0  0  0  0  0  0  0  0
    3.2027    0.1585   -2.8942 H   0  0  0  0  0  0  0  0  0  0  0  0
   -0.6669   -1.3824   -1.8937 H   0  0  0  0  0  0  0  0  0  0  0  0
   -1.8582   -1.3942   -0.1930 H   0  0  0  0  0  0  0  0  0  0  0  0
   -1.1437    0.1308    2.3799 H   0  0  0  0  0  0  0  0  0  0  0  0
   -2.6223    0.3469    1.3457 H   0  0  0  0  0  0  0  0  0  0  0  0
    0.9693    1.8462    0.0139 H   0  0  0  0  0  0  0  0  0  0  0  0
    0.6658    1.4059    1.7158 H   0  0  0  0  0  0  0  0  0  0  0  0
    1.3262    0.1462    0.6581 H   0  0  0  0  0  0  0  0  0  0  0  0
  1  2  3  0
  2  3  1  0
  3  4  1  0
  4  5  1  0
  5  6  1  0
  6  7  1  0
  7  8  1  0
  7  9  1  0
  9  3  1  0
  7  5  1  0
  1 10  1  0
  3 11  1  0
  5 12  1  0
  6 13  1  0
  6 14  1  0
  8 15  1  0
  8 16  1  0
  8 17  1  0
M  END
