
     RDKit          3D

 19 19  0  0  0  0  0  0  0  0999 V2000
    1.8311    2.2918    0.5966 C   0  0  0  0  0  0  0  0  0  0  0  0
    1.5614    1.1596    0.2708 C   0  0  0  0  0  0  0  0  0  0  0  0
    1.2452   -0.2343   -0.1105 C   0  0  0  0  0  0  0  0  0  0  0  0
    2.3855   -0.9075   -0.4704 O   0  0  0  0  0  0  0  0  0  0  0  0
    0.5096   -0.8947    1.0205 C   0  0  0  0  0  0  0  0  0  0  0  0
   -0.9155   -0.5290    0.8163 C   0  0  0  0  0  0  0  0  0  0  0  0
   -1.0762   -0.1399   -0.4478 C   0  0  0  0  0  0  0  0  0  0  0  0
   -2.3880    0.3019   -1.0108 C   0  0  0  0  0  0  0  0  0  0  0  0
    0.1924   -0.2041   -1.1988 C   0  0  0  0  0  0  0  0  0  0  0  0
    2.0793    3.2876    0.8689 H   0  0  0  0  0  0  0  0  0  0  0  0
    2.3599   -1.8770   -0.3430 H   0  0  0  0  0  0  0  0  0  0  0  0
    0.6106   -1.9978    0.8703 H   0  0  0  0  0  0  0  0  0  0  0  0
    0.9149   -0.5526    1.9874 H   0  0  0  0  0  0  0  0  0  0  0  0
   -1.6741   -0.5813    1.5890 H   0  0  0  0  0  0  0  0  0  0  0  0
   -2.5195    1.3917   -0.9699 H   0  0  0  0  0  0  0  0  0  0  0  0
   -2.5237   -0.0477   -2.0521 H   0  0  0  0  0  0  0  0  0  0  0  0
   -3.2367   -0.1279   -0.4027 H   0  0  0  0  0  0  0  0  0  0  0  0
    0.2624   -1.0573   -1.8900 H   0  0  0  0  0  0  0  0  0  0  0  0
    0.3814    0.7184   -1.7934 H   0  0  0  0  0  0  0  0  0  0  0  0
  1  2  3  0
  2  3  1  0
  3  4  1  0
  3  5  1  0
  5  6  1  0
  6  7  2  0
  7  8  1  0
  7  9  1  0
  9  3  1  0
  1 10  1  0
  4 11  1  0
  5 12  1  0
  5 13  1  0
  6 14  1  0
  8 15  1  0
  8 16  1  0
  8 17  1  0
  9 18  1  0
  9 19  1  0
M  END
