
     RDKit          3D

 19 19  0  0  0  0  0  0  0  0999 V2000
    3.5341    1.4132   -0.3969 C   0  0  0  0  0  0  0  0  0  0  0  0
    2.4876    1.1955    0.1797 C   0  0  0  0  0  0  0  0  0  0  0  0
    1.2623    0.9341    0.8695 C   0  0  0  0  0  0  0  0  0  0  0  0
    0.9896    1.6336    1.8733 O   0  0  0  0  0  0  0  0  0  0  0  0
    0.3537   -0.1252    0.4098 C   0  0  0  0  0  0  0  0  0  0  0  0
   -0.1338    0.1188   -1.0247 C   0  0  0  0  0  0  0  0  0  0  0  0
   -1.3925   -0.6982   -1.1216 C   0  0  0  0  0  0  0  0  0  0  0  0
   -1.8240   -1.0338    0.2797 C   0  0  0  0  0  0  0  0  0  0  0  0
   -0.9130   -0.2097    1.1958 C   0  0  0  0  0  0  0  0  0  0  0  0
    4.4628    1.6112   -0.8886 H   0  0  0  0  0  0  0  0  0  0  0  0
    0.8471   -1.1225    0.4282 H   0  0  0  0  0  0  0  0  0  0  0  0
   -0.3198    1.2105   -1.1875 H   0  0  0  0  0  0  0  0  0  0  0  0
    0.6535   -0.2642   -1.6846 H   0  0  0  0  0  0  0  0  0  0  0  0
   -1.2060   -1.5910   -1.7474 H   0  0  0  0  0  0  0  0  0  0  0  0
   -2.2003   -0.1282   -1.6287 H   0  0  0  0  0  0  0  0  0  0  0  0
   -1.6193   -2.1187    0.4514 H   0  0  0  0  0  0  0  0  0  0  0  0
   -2.8828   -0.8302    0.4829 H   0  0  0  0  0  0  0  0  0  0  0  0
   -1.3450    0.7888    1.3821 H   0  0  0  0  0  0  0  0  0  0  0  0
   -0.7541   -0.7842    2.1276 H   0  0  0  0  0  0  0  0  0  0  0  0
  1  2  3  0
  2  3  1  0
  3  4  2  0
  3  5  1  0
  5  6  1  0
  6  7  1  0
  7  8  1  0
  8  9  1  0
  9  5  1  0
  1 10  1  0
  5 11  1  0
  6 12  1  0
  6 13  1  0
  7 14  1  0
  7 15  1  0
  8 16  1  0
  8 17  1  0
  9 18  1  0
  9 19  1  0
M  END
