
     RDKit          3D

 17 18  0  0  0  0  0  0  0  0999 V2000
    2.8028   -0.1024    1.3911 C   0  0  0  0  0  0  0  0  0  0  0  0
    2.0072   -0.0546    0.3654 C   0  0  0  0  0  0  0  0  0  0  0  0
    1.1445   -0.0261   -0.7322 C   0  0  0  0  0  0  0  0  0  0  0  0
    0.0343   -0.9632   -0.8719 C   0  0  0  0  0  0  0  0  0  0  0  0
   -0.5502   -1.6446    0.1584 O   0  0  0  0  0  0  0  0  0  0  0  0
   -1.6645   -0.8638    0.5194 C   0  0  0  0  0  0  0  0  0  0  0  0
   -0.9436    0.4607    0.7484 C   0  0  0  0  0  0  0  0  0  0  0  0
   -0.2135    0.5493   -0.5626 C   0  0  0  0  0  0  0  0  0  0  0  0
   -0.7968    1.2936   -1.5969 O   0  0  0  0  0  0  0  0  0  0  0  0
    3.4800   -0.1619    2.2736 H   0  0  0  0  0  0  0  0  0  0  0  0
    1.5911    0.2664   -1.7550 H   0  0  0  0  0  0  0  0  0  0  0  0
   -0.2788   -1.3278   -1.8701 H   0  0  0  0  0  0  0  0  0  0  0  0
   -2.3146   -0.6848   -0.3506 H   0  0  0  0  0  0  0  0  0  0  0  0
   -2.1980   -1.2395    1.3978 H   0  0  0  0  0  0  0  0  0  0  0  0
   -1.6282    1.3104    0.9187 H   0  0  0  0  0  0  0  0  0  0  0  0
   -0.2141    0.2731    1.5439 H   0  0  0  0  0  0  0  0  0  0  0  0
   -0.2576    2.1614   -1.5773 H   0  0  0  0  0  0  0  0  0  0  0  0
  1  2  3  0
  2  3  1  0
  3  4  1  0
  4  5  1  0
  5  6  1  0
  6  7  1  0
  7  8  1  0
  8  9  1  0
  8  3  1  0
  8  4  1  0
  1 10  1  0
  3 11  1  0
  4 12  1  0
  6 13  1  0
  6 14  1  0
  7 15  1  0
  7 16  1  0
  9 17  1  0
M  END
