
     RDKit          3D

 23 23  0  0  0  0  0  0  0  0999 V2000
    1.6688   -2.0467   -1.4575 C   0  0  0  0  0  0  0  0  0  0  0  0
    1.5556   -0.9954   -0.8947 C   0  0  0  0  0  0  0  0  0  0  0  0
    1.4262    0.2551   -0.1988 C   0  0  0  0  0  0  0  0  0  0  0  0
    2.2795    1.2974   -0.9385 C   0  0  0  0  0  0  0  0  0  0  0  0
    0.0396    0.7826   -0.1601 C   0  0  0  0  0  0  0  0  0  0  0  0
   -0.9753   -0.0826    0.5008 C   0  0  0  0  0  0  0  0  0  0  0  0
   -1.2211   -1.4660   -0.0626 C   0  0  0  0  0  0  0  0  0  0  0  0
   -1.3366    0.1678    1.9242 C   0  0  0  0  0  0  0  0  0  0  0  0
   -2.2747    0.6664    0.8706 C   0  0  0  0  0  0  0  0  0  0  0  0
    1.7848   -2.9823   -1.9470 H   0  0  0  0  0  0  0  0  0  0  0  0
    1.8559    0.2102    0.8413 H   0  0  0  0  0  0  0  0  0  0  0  0
    2.3036    1.0928   -2.0273 H   0  0  0  0  0  0  0  0  0  0  0  0
    3.2984    1.3244   -0.5024 H   0  0  0  0  0  0  0  0  0  0  0  0
    1.8338    2.2988   -0.7914 H   0  0  0  0  0  0  0  0  0  0  0  0
   -0.2892    1.0204   -1.2150 H   0  0  0  0  0  0  0  0  0  0  0  0
    0.0794    1.7848    0.3369 H   0  0  0  0  0  0  0  0  0  0  0  0
   -0.5662   -2.2292    0.3750 H   0  0  0  0  0  0  0  0  0  0  0  0
   -1.1538   -1.4724   -1.1577 H   0  0  0  0  0  0  0  0  0  0  0  0
   -2.2711   -1.8117    0.1694 H   0  0  0  0  0  0  0  0  0  0  0  0
   -0.7272    0.9515    2.4272 H   0  0  0  0  0  0  0  0  0  0  0  0
   -1.7398   -0.6407    2.5507 H   0  0  0  0  0  0  0  0  0  0  0  0
   -2.3376    1.7403    0.6407 H   0  0  0  0  0  0  0  0  0  0  0  0
   -3.2330    0.1344    0.7162 H   0  0  0  0  0  0  0  0  0  0  0  0
  1  2  3  0
  2  3  1  0
  3  4  1  0
  3  5  1  0
  5  6  1  0
  6  7  1  0
  6  8  1  0
  8  9  1  0
  9  6  1  0
  1 10  1  0
  3 11  1  0
  4 12  1  0
  4 13  1  0
  4 14  1  0
  5 15  1  0
  5 16  1  0
  7 17  1  0
  7 18  1  0
  7 19  1  0
  8 20  1  0
  8 21  1  0
  9 22  1  0
  9 23  1  0
M  END
