
     RDKit          3D

 17 17  0  0  0  0  0  0  0  0999 V2000
    4.3050   -1.5077    0.2122 C   0  0  0  0  0  0  0  0  0  0  0  0
    3.6620   -1.1657    0.2531 C   0  0  0  0  0  0  0  0  0  0  0  0
    2.2460   -0.4058    0.3279 C   0  0  0  0  0  0  0  0  0  0  0  0
    1.1707    0.1512    0.3850 C   0  0  0  0  0  0  0  0  0  0  0  0
   -0.1171    0.8015    0.4432 C   0  0  0  0  0  0  0  0  0  0  0  0
   -0.2100    1.9048   -0.3814 O   0  0  0  0  0  0  0  0  0  0  0  0
   -1.1235   -0.2637   -0.0016 C   0  0  0  0  0  0  0  0  0  0  0  0
   -2.6166    0.0400    0.0723 C   0  0  0  0  0  0  0  0  0  0  0  0
   -1.9394    0.0603   -1.2577 C   0  0  0  0  0  0  0  0  0  0  0  0
    5.3889   -2.0762    0.1271 H   0  0  0  0  0  0  0  0  0  0  0  0
   -0.4378    1.0039    1.5203 H   0  0  0  0  0  0  0  0  0  0  0  0
    0.6526    1.8935   -0.9492 H   0  0  0  0  0  0  0  0  0  0  0  0
   -0.7260   -1.3023   -0.1073 H   0  0  0  0  0  0  0  0  0  0  0  0
   -2.9124    1.1196    0.3832 H   0  0  0  0  0  0  0  0  0  0  0  0
   -3.3397   -0.6828    0.3527 H   0  0  0  0  0  0  0  0  0  0  0  0
   -1.6660    1.0494   -1.7021 H   0  0  0  0  0  0  0  0  0  0  0  0
   -2.3370   -0.6199   -1.9890 H   0  0  0  0  0  0  0  0  0  0  0  0
  1  2  3  0
  2  3  1  0
  3  4  3  0
  4  5  1  0
  5  6  1  0
  5  7  1  0
  7  8  1  0
  8  9  1  0
  9  7  1  0
  1 10  1  0
  5 11  1  0
  6 12  1  0
  7 13  1  0
  8 14  1  0
  8 15  1  0
  9 16  1  0
  9 17  1  0
M  END
