
     RDKit          3D

 15 16  0  0  0  0  0  0  0  0999 V2000
    0.5812   -1.6748    2.1780 C   0  0  0  0  0  0  0  0  0  0  0  0
    0.5971   -1.2512    1.4079 C   0  0  0  0  0  0  0  0  0  0  0  0
    0.6502   -0.4911    0.0486 C   0  0  0  0  0  0  0  0  0  0  0  0
    1.8891   -0.1368   -0.3878 O   0  0  0  0  0  0  0  0  0  0  0  0
    1.3062    0.9089    0.2431 C   0  0  0  0  0  0  0  0  0  0  0  0
    0.1047    1.5680   -0.2896 C   0  0  0  0  0  0  0  0  0  0  0  0
   -0.1262    2.7212   -0.5419 O   0  0  0  0  0  0  0  0  0  0  0  0
   -0.5604    0.2674   -0.3346 C   0  0  0  0  0  0  0  0  0  0  0  0
   -1.2195   -0.1502   -1.6441 C   0  0  0  0  0  0  0  0  0  0  0  0
    0.5339   -2.3273    3.3556 H   0  0  0  0  0  0  0  0  0  0  0  0
    1.5722    1.1311    1.3220 H   0  0  0  0  0  0  0  0  0  0  0  0
   -1.3324    0.1643    0.5052 H   0  0  0  0  0  0  0  0  0  0  0  0
   -2.2991   -0.0125   -1.5687 H   0  0  0  0  0  0  0  0  0  0  0  0
   -0.7707    0.4886   -2.4506 H   0  0  0  0  0  0  0  0  0  0  0  0
   -0.9264   -1.2056   -1.8432 H   0  0  0  0  0  0  0  0  0  0  0  0
  1  2  3  0
  2  3  1  0
  3  4  1  0
  4  5  1  0
  5  6  1  0
  6  7  2  0
  6  8  1  0
  8  9  1  0
  5  3  1  0
  8  3  1  0
  1 10  1  0
  5 11  1  0
  8 12  1  0
  9 13  1  0
  9 14  1  0
  9 15  1  0
M  END
