
     RDKit          3D

 12 11  0  0  0  0  0  0  0  0999 V2000
   -2.7740   -1.5022    0.2584 C   0  0  0  0  0  0  0  0  0  0  0  0
   -1.3664   -1.2804    0.3223 C   0  0  0  0  0  0  0  0  0  0  0  0
   -0.1714   -1.1022    0.3811 C   0  0  0  0  0  0  0  0  0  0  0  0
    0.5068   -2.0565   -0.5988 O   0  0  0  0  0  0  0  0  0  0  0  0
    0.4304    0.1314    0.1824 C   0  0  0  0  0  0  0  0  0  0  0  0
    1.0045    1.3448    0.0064 C   0  0  0  0  0  0  0  0  0  0  0  0
    1.6076    2.6655   -0.1685 C   0  0  0  0  0  0  0  0  0  0  0  0
    0.9644    3.7248   -0.0599 O   0  0  0  0  0  0  0  0  0  0  0  0
   -3.8116   -1.6579    0.1948 H   0  0  0  0  0  0  0  0  0  0  0  0
    0.4342   -1.5349    1.3136 H   0  0  0  0  0  0  0  0  0  0  0  0
    0.5274   -1.4657   -1.4381 H   0  0  0  0  0  0  0  0  0  0  0  0
    2.6481    2.7334   -0.3938 H   0  0  0  0  0  0  0  0  0  0  0  0
  1  2  3  0
  2  3  1  0
  3  4  1  0
  3  5  1  0
  5  6  3  0
  6  7  1  0
  7  8  2  0
  1  9  1  0
  3 10  1  0
  4 11  1  0
  7 12  1  0
M  END
