
     RDKit          3D

 17 18  0  0  0  0  0  0  0  0999 V2000
    2.8477   -1.1641    0.2851 C   0  0  0  0  0  0  0  0  0  0  0  0
    1.8505   -0.5045    0.0878 C   0  0  0  0  0  0  0  0  0  0  0  0
    0.6646    0.3085   -0.1413 C   0  0  0  0  0  0  0  0  0  0  0  0
    0.4305    1.2555    0.9932 C   0  0  0  0  0  0  0  0  0  0  0  0
   -0.8157    1.9599    0.5747 C   0  0  0  0  0  0  0  0  0  0  0  0
   -1.5669    0.9109    0.1642 C   0  0  0  0  0  0  0  0  0  0  0  0
   -0.6079   -0.2212    0.4346 C   0  0  0  0  0  0  0  0  0  0  0  0
   -1.0393   -1.5747    0.1888 C   0  0  0  0  0  0  0  0  0  0  0  0
   -0.1219    0.1518    1.6846 O   0  0  0  0  0  0  0  0  0  0  0  0
    3.7261   -1.7493    0.4538 H   0  0  0  0  0  0  0  0  0  0  0  0
    0.5831    0.7473   -1.1607 H   0  0  0  0  0  0  0  0  0  0  0  0
    1.2180    1.7909    1.4407 H   0  0  0  0  0  0  0  0  0  0  0  0
   -1.0624    3.0146    0.5902 H   0  0  0  0  0  0  0  0  0  0  0  0
   -2.5657    0.8931   -0.2404 H   0  0  0  0  0  0  0  0  0  0  0  0
   -1.7880   -1.6043   -0.6366 H   0  0  0  0  0  0  0  0  0  0  0  0
   -0.1927   -2.2160   -0.1311 H   0  0  0  0  0  0  0  0  0  0  0  0
   -1.5601   -1.9984    1.0863 H   0  0  0  0  0  0  0  0  0  0  0  0
  1  2  3  0
  2  3  1  0
  3  4  1  0
  4  5  1  0
  5  6  2  0
  6  7  1  0
  7  8  1  0
  7  9  1  0
  7  3  1  0
  9  4  1  0
  1 10  1  0
  3 11  1  0
  4 12  1  0
  5 13  1  0
  6 14  1  0
  8 15  1  0
  8 16  1  0
  8 17  1  0
M  END
