
     RDKit          3D

 21 22  0  0  0  0  0  0  0  0999 V2000
    3.3445   -0.8831    0.1114 C   0  0  0  0  0  0  0  0  0  0  0  0
    2.1163   -0.8319    0.2701 C   0  0  0  0  0  0  0  0  0  0  0  0
    0.7457   -0.7508    0.4508 C   0  0  0  0  0  0  0  0  0  0  0  0
    0.4052    0.5616    1.2151 C   0  0  0  0  0  0  0  0  0  0  0  0
   -1.1254    0.6947    1.1777 C   0  0  0  0  0  0  0  0  0  0  0  0
   -1.5439    0.5709   -0.2651 C   0  0  0  0  0  0  0  0  0  0  0  0
   -0.3484    0.8835   -1.1616 C   0  0  0  0  0  0  0  0  0  0  0  0
    0.0996   -0.5284   -0.9181 C   0  0  0  0  0  0  0  0  0  0  0  0
   -1.3566   -0.8780   -0.7710 C   0  0  0  0  0  0  0  0  0  0  0  0
    4.5269   -0.9494   -0.0368 H   0  0  0  0  0  0  0  0  0  0  0  0
    0.2386   -1.5388    0.9741 H   0  0  0  0  0  0  0  0  0  0  0  0
    0.9099    1.4304    0.7429 H   0  0  0  0  0  0  0  0  0  0  0  0
    0.7370    0.5343    2.2430 H   0  0  0  0  0  0  0  0  0  0  0  0
   -1.5804   -0.0936    1.7737 H   0  0  0  0  0  0  0  0  0  0  0  0
   -1.4503    1.6680    1.5274 H   0  0  0  0  0  0  0  0  0  0  0  0
   -2.4746    1.0345   -0.5774 H   0  0  0  0  0  0  0  0  0  0  0  0
   -0.7182    0.9604   -2.2424 H   0  0  0  0  0  0  0  0  0  0  0  0
    0.2605    1.7275   -0.9764 H   0  0  0  0  0  0  0  0  0  0  0  0
    0.6738   -0.9689   -1.7541 H   0  0  0  0  0  0  0  0  0  0  0  0
   -1.5947   -1.6513   -0.0228 H   0  0  0  0  0  0  0  0  0  0  0  0
   -1.8654   -0.9915   -1.7607 H   0  0  0  0  0  0  0  0  0  0  0  0
  1  2  3  0
  2  3  1  0
  3  4  1  0
  4  5  1  0
  5  6  1  0
  6  7  1  0
  7  8  1  0
  8  9  1  0
  8  3  1  0
  9  6  1  0
  1 10  1  0
  3 11  1  0
  4 12  1  0
  4 13  1  0
  5 14  1  0
  5 15  1  0
  6 16  1  0
  7 17  1  0
  7 18  1  0
  8 19  1  0
  9 20  1  0
  9 21  1  0
M  END
