
     RDKit          3D

 17 16  0  0  0  0  0  0  0  0999 V2000
   -0.4251    3.1399   -1.0048 C   0  0  0  0  0  0  0  0  0  0  0  0
   -0.3194    2.0661   -0.4646 C   0  0  0  0  0  0  0  0  0  0  0  0
   -0.1782    0.7414    0.1844 C   0  0  0  0  0  0  0  0  0  0  0  0
    1.1880    0.2661   -0.0667 C   0  0  0  0  0  0  0  0  0  0  0  0
    1.7206   -1.0310    0.4407 C   0  0  0  0  0  0  0  0  0  0  0  0
    1.9451    0.9445   -0.7186 O   0  0  0  0  0  0  0  0  0  0  0  0
   -1.2378   -0.1541   -0.2768 C   0  0  0  0  0  0  0  0  0  0  0  0
   -1.3008   -1.5395    0.2544 C   0  0  0  0  0  0  0  0  0  0  0  0
   -2.0688    0.2139   -1.0870 O   0  0  0  0  0  0  0  0  0  0  0  0
   -0.5116    4.0877   -1.4903 H   0  0  0  0  0  0  0  0  0  0  0  0
   -0.2446    0.9485    1.2937 H   0  0  0  0  0  0  0  0  0  0  0  0
    1.2571   -1.8621   -0.1119 H   0  0  0  0  0  0  0  0  0  0  0  0
    2.8194   -1.1011    0.3218 H   0  0  0  0  0  0  0  0  0  0  0  0
    1.5475   -1.0612    1.5410 H   0  0  0  0  0  0  0  0  0  0  0  0
   -2.3845   -1.7285    0.5180 H   0  0  0  0  0  0  0  0  0  0  0  0
   -1.0602   -2.2962   -0.5196 H   0  0  0  0  0  0  0  0  0  0  0  0
   -0.7466   -1.6344    1.1863 H   0  0  0  0  0  0  0  0  0  0  0  0
  1  2  3  0
  2  3  1  0
  3  4  1  0
  4  5  1  0
  4  6  2  0
  3  7  1  0
  7  8  1  0
  7  9  2  0
  1 10  1  0
  3 11  1  0
  5 12  1  0
  5 13  1  0
  5 14  1  0
  8 15  1  0
  8 16  1  0
  8 17  1  0
M  END
