
     RDKit          3D

 16 16  0  0  0  0  0  0  0  0999 V2000
   -2.0674    0.4270    1.8714 C   0  0  0  0  0  0  0  0  0  0  0  0
   -1.1998    0.0897    1.1024 C   0  0  0  0  0  0  0  0  0  0  0  0
   -0.1333   -0.3169    0.1574 C   0  0  0  0  0  0  0  0  0  0  0  0
   -0.3992   -1.6394   -0.4881 C   0  0  0  0  0  0  0  0  0  0  0  0
    1.1790    0.2753    0.3261 C   0  0  0  0  0  0  0  0  0  0  0  0
    2.3577   -0.3343   -0.0761 O   0  0  0  0  0  0  0  0  0  0  0  0
    0.3036    0.7649   -0.8548 C   0  0  0  0  0  0  0  0  0  0  0  0
   -0.2865    2.0276   -0.6820 O   0  0  0  0  0  0  0  0  0  0  0  0
   -2.8287    0.7403    2.5400 H   0  0  0  0  0  0  0  0  0  0  0  0
   -0.8000   -2.3754    0.2409 H   0  0  0  0  0  0  0  0  0  0  0  0
    0.4751   -2.0996   -0.9660 H   0  0  0  0  0  0  0  0  0  0  0  0
   -1.2322   -1.4669   -1.2291 H   0  0  0  0  0  0  0  0  0  0  0  0
    1.3099    1.0180    1.1438 H   0  0  0  0  0  0  0  0  0  0  0  0
    3.1531    0.0467    0.3563 H   0  0  0  0  0  0  0  0  0  0  0  0
    0.5953    0.4497   -1.8574 H   0  0  0  0  0  0  0  0  0  0  0  0
   -0.4266    2.3934   -1.5848 H   0  0  0  0  0  0  0  0  0  0  0  0
  1  2  3  0
  2  3  1  0
  3  4  1  0
  3  5  1  0
  5  6  1  0
  5  7  1  0
  7  8  1  0
  7  3  1  0
  1  9  1  0
  4 10  1  0
  4 11  1  0
  4 12  1  0
  5 13  1  0
  6 14  1  0
  7 15  1  0
  8 16  1  0
M  END
