
     RDKit          3D

 19 18  0  0  0  0  0  0  0  0999 V2000
    2.9570   -0.4864    1.1537 C   0  0  0  0  0  0  0  0  0  0  0  0
    2.1431   -0.9591    0.4067 C   0  0  0  0  0  0  0  0  0  0  0  0
    1.1769   -1.5371   -0.5060 C   0  0  0  0  0  0  0  0  0  0  0  0
   -0.1379   -1.1898   -0.2041 O   0  0  0  0  0  0  0  0  0  0  0  0
   -0.3607    0.1609   -0.2422 C   0  0  0  0  0  0  0  0  0  0  0  0
   -1.4643    0.4286   -1.2621 C   0  0  0  0  0  0  0  0  0  0  0  0
   -1.7498    1.7799   -1.3602 O   0  0  0  0  0  0  0  0  0  0  0  0
   -0.9031    0.6503    1.1035 C   0  0  0  0  0  0  0  0  0  0  0  0
   -0.0320    0.4027    2.1371 O   0  0  0  0  0  0  0  0  0  0  0  0
    3.6837   -0.0745    1.8367 H   0  0  0  0  0  0  0  0  0  0  0  0
    1.2929   -2.6207   -0.6648 H   0  0  0  0  0  0  0  0  0  0  0  0
    1.3810   -1.0699   -1.5144 H   0  0  0  0  0  0  0  0  0  0  0  0
    0.4974    0.7784   -0.4975 H   0  0  0  0  0  0  0  0  0  0  0  0
   -2.4195   -0.0775   -0.9506 H   0  0  0  0  0  0  0  0  0  0  0  0
   -1.2115    0.0033   -2.2553 H   0  0  0  0  0  0  0  0  0  0  0  0
   -1.3181    2.2059   -2.1571 H   0  0  0  0  0  0  0  0  0  0  0  0
   -1.8836    0.1174    1.2297 H   0  0  0  0  0  0  0  0  0  0  0  0
   -1.1605    1.7287    0.9885 H   0  0  0  0  0  0  0  0  0  0  0  0
   -0.4911   -0.2412    2.7582 H   0  0  0  0  0  0  0  0  0  0  0  0
  1  2  3  0
  2  3  1  0
  3  4  1  0
  4  5  1  0
  5  6  1  0
  6  7  1  0
  5  8  1  0
  8  9  1  0
  1 10  1  0
  3 11  1  0
  3 12  1  0
  5 13  1  0
  6 14  1  0
  6 15  1  0
  7 16  1  0
  8 17  1  0
  8 18  1  0
  9 19  1  0
M  END
