
     RDKit          3D

 23 23  0  0  0  0  0  0  0  0999 V2000
   -0.5233    2.9103   -0.6761 C   0  0  0  0  0  0  0  0  0  0  0  0
   -0.6012    1.7431   -0.4021 C   0  0  0  0  0  0  0  0  0  0  0  0
   -0.7194    0.3058   -0.0659 C   0  0  0  0  0  0  0  0  0  0  0  0
    0.4887   -0.4748   -0.5207 C   0  0  0  0  0  0  0  0  0  0  0  0
    1.7350    0.0628    0.1464 C   0  0  0  0  0  0  0  0  0  0  0  0
    2.9386   -0.7152   -0.3067 C   0  0  0  0  0  0  0  0  0  0  0  0
   -2.0317   -0.2695   -0.5500 C   0  0  0  0  0  0  0  0  0  0  0  0
   -2.1605   -0.9671    0.7860 C   0  0  0  0  0  0  0  0  0  0  0  0
   -1.1249   -0.0075    1.3321 C   0  0  0  0  0  0  0  0  0  0  0  0
   -0.4611    3.9592   -0.9053 H   0  0  0  0  0  0  0  0  0  0  0  0
    0.3320   -1.5463   -0.3182 H   0  0  0  0  0  0  0  0  0  0  0  0
    0.6045   -0.3554   -1.6155 H   0  0  0  0  0  0  0  0  0  0  0  0
    1.8651    1.1459   -0.1181 H   0  0  0  0  0  0  0  0  0  0  0  0
    1.6168    0.0097    1.2539 H   0  0  0  0  0  0  0  0  0  0  0  0
    3.2552   -1.4543    0.4875 H   0  0  0  0  0  0  0  0  0  0  0  0
    3.7541   -0.0072   -0.5039 H   0  0  0  0  0  0  0  0  0  0  0  0
    2.7281   -1.2864   -1.2503 H   0  0  0  0  0  0  0  0  0  0  0  0
   -1.9572   -0.9468   -1.4252 H   0  0  0  0  0  0  0  0  0  0  0  0
   -2.7858    0.5451   -0.6487 H   0  0  0  0  0  0  0  0  0  0  0  0
   -1.7990   -2.0124    0.6848 H   0  0  0  0  0  0  0  0  0  0  0  0
   -3.1770   -0.8647    1.2046 H   0  0  0  0  0  0  0  0  0  0  0  0
   -1.5899    0.7993    1.9255 H   0  0  0  0  0  0  0  0  0  0  0  0
   -0.3869   -0.5735    1.9376 H   0  0  0  0  0  0  0  0  0  0  0  0
  1  2  3  0
  2  3  1  0
  3  4  1  0
  4  5  1  0
  5  6  1  0
  3  7  1  0
  7  8  1  0
  8  9  1  0
  9  3  1  0
  1 10  1  0
  4 11  1  0
  4 12  1  0
  5 13  1  0
  5 14  1  0
  6 15  1  0
  6 16  1  0
  6 17  1  0
  7 18  1  0
  7 19  1  0
  8 20  1  0
  8 21  1  0
  9 22  1  0
  9 23  1  0
M  END
