
     RDKit          3D

 16 16  0  0  0  0  0  0  0  0999 V2000
    2.5123   -2.0078    0.3082 C   0  0  0  0  0  0  0  0  0  0  0  0
    1.4144   -1.6558   -0.0462 C   0  0  0  0  0  0  0  0  0  0  0  0
    0.0647   -1.2244   -0.4798 C   0  0  0  0  0  0  0  0  0  0  0  0
   -0.2848   -0.0292    0.3643 C   0  0  0  0  0  0  0  0  0  0  0  0
   -1.6417    0.5848    0.0883 C   0  0  0  0  0  0  0  0  0  0  0  0
   -1.0069    1.9089    0.2524 C   0  0  0  0  0  0  0  0  0  0  0  0
   -1.3627    3.0067    0.5902 O   0  0  0  0  0  0  0  0  0  0  0  0
    0.2658    1.2952   -0.1820 C   0  0  0  0  0  0  0  0  0  0  0  0
    3.4739   -2.3012    0.6257 H   0  0  0  0  0  0  0  0  0  0  0  0
   -0.6230   -2.0560   -0.2319 H   0  0  0  0  0  0  0  0  0  0  0  0
    0.0838   -1.0007   -1.5583 H   0  0  0  0  0  0  0  0  0  0  0  0
   -0.0555   -0.0964    1.4240 H   0  0  0  0  0  0  0  0  0  0  0  0
   -1.9505    0.3472   -0.9711 H   0  0  0  0  0  0  0  0  0  0  0  0
   -2.4206    0.3163    0.8198 H   0  0  0  0  0  0  0  0  0  0  0  0
    0.3516    1.2813   -1.3071 H   0  0  0  0  0  0  0  0  0  0  0  0
    1.1792    1.6313    0.3035 H   0  0  0  0  0  0  0  0  0  0  0  0
  1  2  3  0
  2  3  1  0
  3  4  1  0
  4  5  1  0
  5  6  1  0
  6  7  2  0
  6  8  1  0
  8  4  1  0
  1  9  1  0
  3 10  1  0
  3 11  1  0
  4 12  1  0
  5 13  1  0
  5 14  1  0
  8 15  1  0
  8 16  1  0
M  END
