
     RDKit          3D

 23 22  0  0  0  0  0  0  0  0999 V2000
    2.5084    1.9397   -0.5993 C   0  0  0  0  0  0  0  0  0  0  0  0
    1.9985    0.6431   -0.5300 C   0  0  0  0  0  0  0  0  0  0  0  0
    1.5416   -0.5072   -0.4887 C   0  0  0  0  0  0  0  0  0  0  0  0
    0.5198   -0.6531    0.7410 C   0  0  0  0  0  0  0  0  0  0  0  0
    0.1162   -2.1117    0.6745 C   0  0  0  0  0  0  0  0  0  0  0  0
   -0.7455    0.1050    0.3120 C   0  0  0  0  0  0  0  0  0  0  0  0
   -1.7652    0.1126    1.4324 C   0  0  0  0  0  0  0  0  0  0  0  0
   -0.4394    1.2770   -0.2353 O   0  0  0  0  0  0  0  0  0  0  0  0
   -0.7852    1.5555   -1.5287 C   0  0  0  0  0  0  0  0  0  0  0  0
    2.9261    3.0091   -0.6771 H   0  0  0  0  0  0  0  0  0  0  0  0
    0.9017   -0.9165   -1.3414 H   0  0  0  0  0  0  0  0  0  0  0  0
    2.2407   -1.4018   -0.2522 H   0  0  0  0  0  0  0  0  0  0  0  0
    0.9587   -0.3372    1.6669 H   0  0  0  0  0  0  0  0  0  0  0  0
   -0.9816   -2.2402    0.8881 H   0  0  0  0  0  0  0  0  0  0  0  0
    0.7457   -2.7287    1.3524 H   0  0  0  0  0  0  0  0  0  0  0  0
    0.2738   -2.5049   -0.3464 H   0  0  0  0  0  0  0  0  0  0  0  0
   -1.2084   -0.5934   -0.4729 H   0  0  0  0  0  0  0  0  0  0  0  0
   -1.3941   -0.3614    2.3504 H   0  0  0  0  0  0  0  0  0  0  0  0
   -2.6969   -0.3303    1.0707 H   0  0  0  0  0  0  0  0  0  0  0  0
   -1.9900    1.1740    1.7285 H   0  0  0  0  0  0  0  0  0  0  0  0
   -1.8860    1.5490   -1.6849 H   0  0  0  0  0  0  0  0  0  0  0  0
   -0.4251    0.7745   -2.2481 H   0  0  0  0  0  0  0  0  0  0  0  0
   -0.4138    2.5466   -1.8118 H   0  0  0  0  0  0  0  0  0  0  0  0
  1  2  3  0
  2  3  1  0
  3  4  1  0
  4  5  1  0
  4  6  1  0
  6  7  1  0
  6  8  1  0
  8  9  1  0
  1 10  1  0
  3 11  1  0
  3 12  1  0
  4 13  1  0
  5 14  1  0
  5 15  1  0
  5 16  1  0
  6 17  1  0
  7 18  1  0
  7 19  1  0
  7 20  1  0
  9 21  1  0
  9 22  1  0
  9 23  1  0
M  END
