
     RDKit          3D

 17 16  0  0  0  0  0  0  0  0999 V2000
    3.7281    0.7808    0.4243 C   0  0  0  0  0  0  0  0  0  0  0  0
    2.6997    0.1710    0.2112 C   0  0  0  0  0  0  0  0  0  0  0  0
    1.4543   -0.5534   -0.0546 C   0  0  0  0  0  0  0  0  0  0  0  0
    0.3987    0.3057    0.1860 O   0  0  0  0  0  0  0  0  0  0  0  0
   -0.8388   -0.2454   -0.0247 C   0  0  0  0  0  0  0  0  0  0  0  0
   -1.7645   -0.1727    1.1454 C   0  0  0  0  0  0  0  0  0  0  0  0
   -1.4744    0.4856   -1.1979 C   0  0  0  0  0  0  0  0  0  0  0  0
    4.6372    1.3093    0.6188 H   0  0  0  0  0  0  0  0  0  0  0  0
    1.4118   -1.3846    0.6830 H   0  0  0  0  0  0  0  0  0  0  0  0
    1.4844   -0.9261   -1.0916 H   0  0  0  0  0  0  0  0  0  0  0  0
   -0.7506   -1.3188   -0.3614 H   0  0  0  0  0  0  0  0  0  0  0  0
   -1.2570   -0.1587    2.1277 H   0  0  0  0  0  0  0  0  0  0  0  0
   -2.4145    0.7266    1.1173 H   0  0  0  0  0  0  0  0  0  0  0  0
   -2.4720   -1.0487    1.1876 H   0  0  0  0  0  0  0  0  0  0  0  0
   -1.2599    1.5582   -1.1068 H   0  0  0  0  0  0  0  0  0  0  0  0
   -1.0184    0.1287   -2.1647 H   0  0  0  0  0  0  0  0  0  0  0  0
   -2.5641    0.3425   -1.2325 H   0  0  0  0  0  0  0  0  0  0  0  0
  1  2  3  0
  2  3  1  0
  3  4  1  0
  4  5  1  0
  5  6  1  0
  5  7  1  0
  1  8  1  0
  3  9  1  0
  3 10  1  0
  5 11  1  0
  6 12  1  0
  6 13  1  0
  6 14  1  0
  7 15  1  0
  7 16  1  0
  7 17  1  0
M  END
