
     RDKit          3D

 21 22  0  0  0  0  0  0  0  0999 V2000
    2.5360   -2.5277   -0.8603 C   0  0  0  0  0  0  0  0  0  0  0  0
    1.9209   -1.5699   -0.7748 C   0  0  0  0  0  0  0  0  0  0  0  0
    1.1146   -0.3362   -0.6423 C   0  0  0  0  0  0  0  0  0  0  0  0
   -0.2961   -0.5152   -1.1385 C   0  0  0  0  0  0  0  0  0  0  0  0
   -0.8960    0.1176    0.0699 C   0  0  0  0  0  0  0  0  0  0  0  0
   -2.0762   -0.5647    0.6673 C   0  0  0  0  0  0  0  0  0  0  0  0
   -0.2423    1.1424    0.8888 C   0  0  0  0  0  0  0  0  0  0  0  0
    0.2398    2.4398    0.2849 C   0  0  0  0  0  0  0  0  0  0  0  0
    0.5039   -0.1243    0.7104 C   0  0  0  0  0  0  0  0  0  0  0  0
    3.1069   -3.4178   -0.9583 H   0  0  0  0  0  0  0  0  0  0  0  0
    1.5994    0.5170   -1.1133 H   0  0  0  0  0  0  0  0  0  0  0  0
   -0.5384   -1.5949   -1.1647 H   0  0  0  0  0  0  0  0  0  0  0  0
   -0.5195   -0.0822   -2.1199 H   0  0  0  0  0  0  0  0  0  0  0  0
   -2.6494   -1.0099   -0.1887 H   0  0  0  0  0  0  0  0  0  0  0  0
   -1.8496   -1.3813    1.3631 H   0  0  0  0  0  0  0  0  0  0  0  0
   -2.7764    0.1974    1.0876 H   0  0  0  0  0  0  0  0  0  0  0  0
   -0.5831    1.2877    1.9380 H   0  0  0  0  0  0  0  0  0  0  0  0
    0.6885    2.3194   -0.7035 H   0  0  0  0  0  0  0  0  0  0  0  0
   -0.6712    3.0909    0.1854 H   0  0  0  0  0  0  0  0  0  0  0  0
    0.8955    2.9388    1.0193 H   0  0  0  0  0  0  0  0  0  0  0  0
    0.4929   -0.9269    1.4496 H   0  0  0  0  0  0  0  0  0  0  0  0
  1  2  3  0
  2  3  1  0
  3  4  1  0
  4  5  1  0
  5  6  1  0
  5  7  1  0
  7  8  1  0
  7  9  1  0
  9  3  1  0
  9  5  1  0
  1 10  1  0
  3 11  1  0
  4 12  1  0
  4 13  1  0
  6 14  1  0
  6 15  1  0
  6 16  1  0
  7 17  1  0
  8 18  1  0
  8 19  1  0
  8 20  1  0
  9 21  1  0
M  END
