
     RDKit          3D

 19 19  0  0  0  0  0  0  0  0999 V2000
    3.4242   -0.2729   -0.3208 C   0  0  0  0  0  0  0  0  0  0  0  0
    2.5437    0.0947    0.5220 C   0  0  0  0  0  0  0  0  0  0  0  0
    1.5957    0.4730    1.4479 C   0  0  0  0  0  0  0  0  0  0  0  0
    0.3811    0.8012    0.7408 O   0  0  0  0  0  0  0  0  0  0  0  0
   -0.2299   -0.3001    0.2009 C   0  0  0  0  0  0  0  0  0  0  0  0
   -1.7211   -0.3187    0.6014 C   0  0  0  0  0  0  0  0  0  0  0  0
   -2.3962   -0.4344   -0.7402 C   0  0  0  0  0  0  0  0  0  0  0  0
   -1.5635    0.3461   -1.5937 O   0  0  0  0  0  0  0  0  0  0  0  0
   -0.3137   -0.1897   -1.2990 C   0  0  0  0  0  0  0  0  0  0  0  0
    4.2282   -0.6230   -1.0752 H   0  0  0  0  0  0  0  0  0  0  0  0
    1.9007    1.5425    1.8453 H   0  0  0  0  0  0  0  0  0  0  0  0
    1.4112   -0.2038    2.2690 H   0  0  0  0  0  0  0  0  0  0  0  0
    0.2758   -1.2792    0.4614 H   0  0  0  0  0  0  0  0  0  0  0  0
   -1.9554   -1.1332    1.2569 H   0  0  0  0  0  0  0  0  0  0  0  0
   -1.9434    0.6886    1.0535 H   0  0  0  0  0  0  0  0  0  0  0  0
   -3.4473   -0.1119   -0.7451 H   0  0  0  0  0  0  0  0  0  0  0  0
   -2.3527   -1.4860   -1.1228 H   0  0  0  0  0  0  0  0  0  0  0  0
    0.4959    0.3195   -1.7642 H   0  0  0  0  0  0  0  0  0  0  0  0
   -0.3334   -1.2676   -1.7383 H   0  0  0  0  0  0  0  0  0  0  0  0
  1  2  3  0
  2  3  1  0
  3  4  1  0
  4  5  1  0
  5  6  1  0
  6  7  1  0
  7  8  1  0
  8  9  1  0
  9  5  1  0
  1 10  1  0
  3 11  1  0
  3 12  1  0
  5 13  1  0
  6 14  1  0
  6 15  1  0
  7 16  1  0
  7 17  1  0
  9 18  1  0
  9 19  1  0
M  END
