
     RDKit          3D

 19 18  0  0  0  0  0  0  0  0999 V2000
    3.2313    0.1195   -0.7043 C   0  0  0  0  0  0  0  0  0  0  0  0
    1.8961    0.4348   -0.0317 C   0  0  0  0  0  0  0  0  0  0  0  0
    1.0233    0.6336    0.4196 C   0  0  0  0  0  0  0  0  0  0  0  0
   -0.2104   -0.3482    0.4989 C   0  0  0  0  0  0  0  0  0  0  0  0
   -1.2989    0.5033    1.2402 C   0  0  0  0  0  0  0  0  0  0  0  0
    0.1150   -1.4097    1.5061 C   0  0  0  0  0  0  0  0  0  0  0  0
    0.6090   -0.8406    2.5862 O   0  0  0  0  0  0  0  0  0  0  0  0
   -0.7006   -0.7637   -0.6052 O   0  0  0  0  0  0  0  0  0  0  0  0
   -1.2396   -0.1139   -1.6561 C   0  0  0  0  0  0  0  0  0  0  0  0
    4.1508   -0.0997   -1.1475 H   0  0  0  0  0  0  0  0  0  0  0  0
    0.3948    1.7224    0.3607 H   0  0  0  0  0  0  0  0  0  0  0  0
    1.0285    0.8801    1.7131 H   0  0  0  0  0  0  0  0  0  0  0  0
   -2.2361   -0.0744    1.1736 H   0  0  0  0  0  0  0  0  0  0  0  0
   -1.4656    1.3893    0.6372 H   0  0  0  0  0  0  0  0  0  0  0  0
   -1.0294    0.6023    2.2787 H   0  0  0  0  0  0  0  0  0  0  0  0
    0.0608   -2.4062    1.5770 H   0  0  0  0  0  0  0  0  0  0  0  0
   -2.0790    0.5556   -1.5859 H   0  0  0  0  0  0  0  0  0  0  0  0
   -0.4781    0.2495   -2.3589 H   0  0  0  0  0  0  0  0  0  0  0  0
   -1.7717   -1.0340   -2.2277 H   0  0  0  0  0  0  0  0  0  0  0  0
  1  2  3  0
  2  3  1  0
  3  4  1  0
  4  5  1  0
  4  6  1  0
  6  7  2  0
  4  8  1  0
  8  9  1  0
  1 10  1  0
  3 11  1  0
  3 12  1  0
  5 13  1  0
  5 14  1  0
  5 15  1  0
  6 16  1  0
  9 17  1  0
  9 18  1  0
  9 19  1  0
M  END
