
     RDKit          3D

 14 15  0  0  0  0  0  0  0  0999 V2000
    2.3727   -0.0985   -1.3336 C   0  0  0  0  0  0  0  0  0  0  0  0
    1.3279    0.3516   -0.8845 C   0  0  0  0  0  0  0  0  0  0  0  0
    0.1247    0.8822   -0.3436 C   0  0  0  0  0  0  0  0  0  0  0  0
    0.0304    1.9862    0.4264 O   0  0  0  0  0  0  0  0  0  0  0  0
    0.1147    0.8552    1.1982 C   0  0  0  0  0  0  0  0  0  0  0  0
   -0.7738   -0.3353    1.0540 C   0  0  0  0  0  0  0  0  0  0  0  0
   -1.1519    0.0309   -0.3617 C   0  0  0  0  0  0  0  0  0  0  0  0
   -1.1016   -1.0061   -1.2733 O   0  0  0  0  0  0  0  0  0  0  0  0
    3.2554   -0.4981   -1.7121 H   0  0  0  0  0  0  0  0  0  0  0  0
    1.0957    0.7503    1.7236 H   0  0  0  0  0  0  0  0  0  0  0  0
   -0.1557   -1.2717    1.0647 H   0  0  0  0  0  0  0  0  0  0  0  0
   -1.5949   -0.4219    1.7659 H   0  0  0  0  0  0  0  0  0  0  0  0
   -2.0655    0.6406   -0.4096 H   0  0  0  0  0  0  0  0  0  0  0  0
   -1.4782   -1.8654   -0.9146 H   0  0  0  0  0  0  0  0  0  0  0  0
  1  2  3  0
  2  3  1  0
  3  4  1  0
  4  5  1  0
  5  6  1  0
  6  7  1  0
  7  8  1  0
  5  3  1  0
  7  3  1  0
  1  9  1  0
  5 10  1  0
  6 11  1  0
  6 12  1  0
  7 13  1  0
  8 14  1  0
M  END
