
     RDKit          3D

 17 17  0  0  0  0  0  0  0  0999 V2000
   -2.1021    2.2014    0.3667 C   0  0  0  0  0  0  0  0  0  0  0  0
   -1.4643    1.2525   -0.0375 C   0  0  0  0  0  0  0  0  0  0  0  0
   -0.7110    0.0918   -0.5135 C   0  0  0  0  0  0  0  0  0  0  0  0
   -1.6360   -0.8995   -1.1751 C   0  0  0  0  0  0  0  0  0  0  0  0
   -1.1895   -1.9148   -1.6314 O   0  0  0  0  0  0  0  0  0  0  0  0
   -0.1115   -0.5923    0.6727 C   0  0  0  0  0  0  0  0  0  0  0  0
    0.6575   -1.7707    0.2282 O   0  0  0  0  0  0  0  0  0  0  0  0
    1.2904   -0.6263    0.9070 C   0  0  0  0  0  0  0  0  0  0  0  0
    2.2326    0.1714    0.0634 C   0  0  0  0  0  0  0  0  0  0  0  0
   -2.6676    3.0261    0.7299 H   0  0  0  0  0  0  0  0  0  0  0  0
    0.0198    0.4097   -1.2655 H   0  0  0  0  0  0  0  0  0  0  0  0
   -2.6949   -0.6535   -1.2156 H   0  0  0  0  0  0  0  0  0  0  0  0
   -0.8197   -0.8850    1.4571 H   0  0  0  0  0  0  0  0  0  0  0  0
    1.6723   -0.9665    1.9004 H   0  0  0  0  0  0  0  0  0  0  0  0
    2.6367   -0.3976   -0.8026 H   0  0  0  0  0  0  0  0  0  0  0  0
    1.7539    1.1022   -0.3568 H   0  0  0  0  0  0  0  0  0  0  0  0
    3.1334    0.4512    0.6725 H   0  0  0  0  0  0  0  0  0  0  0  0
  1  2  3  0
  2  3  1  0
  3  4  1  0
  4  5  2  0
  3  6  1  0
  6  7  1  0
  7  8  1  0
  8  9  1  0
  8  6  1  0
  1 10  1  0
  3 11  1  0
  4 12  1  0
  6 13  1  0
  8 14  1  0
  9 15  1  0
  9 16  1  0
  9 17  1  0
M  END
