
     RDKit          3D

 18 17  0  0  0  0  0  0  0  0999 V2000
    3.5337    1.8271    0.0060 C   0  0  0  0  0  0  0  0  0  0  0  0
    2.5730    1.0801    0.2925 C   0  0  0  0  0  0  0  0  0  0  0  0
    1.3113    0.0991    0.6693 C   0  0  0  0  0  0  0  0  0  0  0  0
    1.8644   -1.0532    0.0700 O   0  0  0  0  0  0  0  0  0  0  0  0
    0.2149    0.6850   -0.1111 C   0  0  0  0  0  0  0  0  0  0  0  0
   -1.1781    0.1910   -0.0207 C   0  0  0  0  0  0  0  0  0  0  0  0
   -1.4030   -1.1360   -0.3184 O   0  0  0  0  0  0  0  0  0  0  0  0
   -2.8229   -1.1393   -0.5028 C   0  0  0  0  0  0  0  0  0  0  0  0
    4.2324    2.3702   -0.2041 H   0  0  0  0  0  0  0  0  0  0  0  0
    1.3912    0.1364    1.7298 H   0  0  0  0  0  0  0  0  0  0  0  0
    2.4268   -1.4691    0.8191 H   0  0  0  0  0  0  0  0  0  0  0  0
    0.5543    0.4369   -1.2398 H   0  0  0  0  0  0  0  0  0  0  0  0
    0.2342    1.7782   -0.0655 H   0  0  0  0  0  0  0  0  0  0  0  0
   -1.8489    0.8758   -0.5676 H   0  0  0  0  0  0  0  0  0  0  0  0
   -1.5014    0.3413    1.0887 H   0  0  0  0  0  0  0  0  0  0  0  0
   -3.3697   -0.9283    0.4474 H   0  0  0  0  0  0  0  0  0  0  0  0
   -3.1778   -2.0245   -0.9990 H   0  0  0  0  0  0  0  0  0  0  0  0
   -3.0344   -0.1894   -1.0939 H   0  0  0  0  0  0  0  0  0  0  0  0
  1  2  3  0
  2  3  1  0
  3  4  1  0
  3  5  1  0
  5  6  1  0
  6  7  1  0
  7  8  1  0
  1  9  1  0
  3 10  1  0
  4 11  1  0
  5 12  1  0
  5 13  1  0
  6 14  1  0
  6 15  1  0
  8 16  1  0
  8 17  1  0
  8 18  1  0
M  END
