
     RDKit          3D

 17 17  0  0  0  0  0  0  0  0999 V2000
    1.6733   -2.9370   -0.3614 C   0  0  0  0  0  0  0  0  0  0  0  0
    1.3082   -1.9743    0.3112 C   0  0  0  0  0  0  0  0  0  0  0  0
    0.8501   -0.8364    1.1082 C   0  0  0  0  0  0  0  0  0  0  0  0
    0.6077    0.3461    0.1872 C   0  0  0  0  0  0  0  0  0  0  0  0
    0.1661    1.4587    0.9113 O   0  0  0  0  0  0  0  0  0  0  0  0
   -0.8416    2.0644    0.1391 C   0  0  0  0  0  0  0  0  0  0  0  0
   -1.6369    0.8228   -0.2735 C   0  0  0  0  0  0  0  0  0  0  0  0
   -0.5066   -0.0277   -0.7132 C   0  0  0  0  0  0  0  0  0  0  0  0
   -0.5146   -0.8289   -1.5979 O   0  0  0  0  0  0  0  0  0  0  0  0
    1.9931   -3.7433   -0.9429 H   0  0  0  0  0  0  0  0  0  0  0  0
    1.6494   -0.6212    1.8585 H   0  0  0  0  0  0  0  0  0  0  0  0
   -0.0573   -1.0803    1.6963 H   0  0  0  0  0  0  0  0  0  0  0  0
    1.5288    0.6460   -0.3308 H   0  0  0  0  0  0  0  0  0  0  0  0
   -0.3479    2.4863   -0.7472 H   0  0  0  0  0  0  0  0  0  0  0  0
   -1.4053    2.7645    0.7366 H   0  0  0  0  0  0  0  0  0  0  0  0
   -2.3862    1.0240   -1.0376 H   0  0  0  0  0  0  0  0  0  0  0  0
   -2.0803    0.4360    0.6836 H   0  0  0  0  0  0  0  0  0  0  0  0
  1  2  3  0
  2  3  1  0
  3  4  1  0
  4  5  1  0
  5  6  1  0
  6  7  1  0
  7  8  1  0
  8  9  2  0
  8  4  1  0
  1 10  1  0
  3 11  1  0
  3 12  1  0
  4 13  1  0
  6 14  1  0
  6 15  1  0
  7 16  1  0
  7 17  1  0
M  END
