
     RDKit          3D

 23 23  0  0  0  0  0  0  0  0999 V2000
    2.7266   -0.2257    1.7880 C   0  0  0  0  0  0  0  0  0  0  0  0
    1.8102    0.5191    1.8036 C   0  0  0  0  0  0  0  0  0  0  0  0
    0.6897    1.4509    1.8171 C   0  0  0  0  0  0  0  0  0  0  0  0
   -0.2789    1.1705    0.7176 C   0  0  0  0  0  0  0  0  0  0  0  0
    0.2726    1.2531   -0.6894 C   0  0  0  0  0  0  0  0  0  0  0  0
   -0.7141    0.1541   -1.0263 C   0  0  0  0  0  0  0  0  0  0  0  0
   -0.2357   -0.8696   -2.0086 C   0  0  0  0  0  0  0  0  0  0  0  0
   -1.3809   -1.8682   -2.1963 C   0  0  0  0  0  0  0  0  0  0  0  0
   -0.6039   -0.2585    0.4354 C   0  0  0  0  0  0  0  0  0  0  0  0
    3.5524   -0.9132    1.7758 H   0  0  0  0  0  0  0  0  0  0  0  0
    0.9985    2.5041    1.7549 H   0  0  0  0  0  0  0  0  0  0  0  0
    0.1622    1.3215    2.7755 H   0  0  0  0  0  0  0  0  0  0  0  0
   -1.1756    1.7892    0.8103 H   0  0  0  0  0  0  0  0  0  0  0  0
    0.0856    2.2205   -1.1934 H   0  0  0  0  0  0  0  0  0  0  0  0
    1.3165    0.9049   -0.8117 H   0  0  0  0  0  0  0  0  0  0  0  0
   -1.7050    0.5974   -1.2671 H   0  0  0  0  0  0  0  0  0  0  0  0
    0.5783   -1.4455   -1.5215 H   0  0  0  0  0  0  0  0  0  0  0  0
    0.1217   -0.4691   -2.9503 H   0  0  0  0  0  0  0  0  0  0  0  0
   -1.5471   -2.4540   -1.2861 H   0  0  0  0  0  0  0  0  0  0  0  0
   -1.0979   -2.4869   -3.0739 H   0  0  0  0  0  0  0  0  0  0  0  0
   -2.3134   -1.3300   -2.4359 H   0  0  0  0  0  0  0  0  0  0  0  0
    0.2809   -0.9191    0.5439 H   0  0  0  0  0  0  0  0  0  0  0  0
   -1.5427   -0.6454    0.8789 H   0  0  0  0  0  0  0  0  0  0  0  0
  1  2  3  0
  2  3  1  0
  3  4  1  0
  4  5  1  0
  5  6  1  0
  6  7  1  0
  7  8  1  0
  6  9  1  0
  9  4  1  0
  1 10  1  0
  3 11  1  0
  3 12  1  0
  4 13  1  0
  5 14  1  0
  5 15  1  0
  6 16  1  0
  7 17  1  0
  7 18  1  0
  8 19  1  0
  8 20  1  0
  8 21  1  0
  9 22  1  0
  9 23  1  0
M  END
