
     RDKit          3D

 17 17  0  0  0  0  0  0  0  0999 V2000
   -1.1970    2.8172   -0.5541 C   0  0  0  0  0  0  0  0  0  0  0  0
   -0.7996    1.6926   -0.3740 C   0  0  0  0  0  0  0  0  0  0  0  0
   -0.2864    0.3172   -0.1503 C   0  0  0  0  0  0  0  0  0  0  0  0
    1.0645    0.2702    0.5215 C   0  0  0  0  0  0  0  0  0  0  0  0
    1.5668   -1.1194    0.7392 C   0  0  0  0  0  0  0  0  0  0  0  0
   -1.3001   -0.6818    0.1997 C   0  0  0  0  0  0  0  0  0  0  0  0
   -0.6562   -0.6868   -1.1614 C   0  0  0  0  0  0  0  0  0  0  0  0
   -1.5502    3.8034   -0.7154 H   0  0  0  0  0  0  0  0  0  0  0  0
    0.9918    0.8190    1.4847 H   0  0  0  0  0  0  0  0  0  0  0  0
    1.7541    0.8712   -0.1143 H   0  0  0  0  0  0  0  0  0  0  0  0
    2.6031   -1.0230    1.1584 H   0  0  0  0  0  0  0  0  0  0  0  0
    1.6765   -1.6380   -0.2371 H   0  0  0  0  0  0  0  0  0  0  0  0
    0.8989   -1.6398    1.4440 H   0  0  0  0  0  0  0  0  0  0  0  0
   -2.3801   -0.3658    0.2169 H   0  0  0  0  0  0  0  0  0  0  0  0
   -1.0644   -1.4872    0.9248 H   0  0  0  0  0  0  0  0  0  0  0  0
   -1.3017   -0.4044   -2.0227 H   0  0  0  0  0  0  0  0  0  0  0  0
   -0.0200   -1.5447   -1.3598 H   0  0  0  0  0  0  0  0  0  0  0  0
  1  2  3  0
  2  3  1  0
  3  4  1  0
  4  5  1  0
  3  6  1  0
  6  7  1  0
  7  3  1  0
  1  8  1  0
  4  9  1  0
  4 10  1  0
  5 11  1  0
  5 12  1  0
  5 13  1  0
  6 14  1  0
  6 15  1  0
  7 16  1  0
  7 17  1  0
M  END
