
     RDKit          3D

 17 17  0  0  0  0  0  0  0  0999 V2000
    2.6085    2.0874   -0.1441 C   0  0  0  0  0  0  0  0  0  0  0  0
    2.2069    0.9544   -0.0189 C   0  0  0  0  0  0  0  0  0  0  0  0
    1.7514   -0.4004    0.1214 C   0  0  0  0  0  0  0  0  0  0  0  0
    2.5416   -1.2089    0.6734 O   0  0  0  0  0  0  0  0  0  0  0  0
    0.4195   -0.8144   -0.3617 C   0  0  0  0  0  0  0  0  0  0  0  0
    0.2266   -2.1712   -0.1050 O   0  0  0  0  0  0  0  0  0  0  0  0
   -0.7044   -0.0818    0.3401 C   0  0  0  0  0  0  0  0  0  0  0  0
   -2.0817   -0.4984   -0.1478 C   0  0  0  0  0  0  0  0  0  0  0  0
   -1.5424    0.9017   -0.3396 C   0  0  0  0  0  0  0  0  0  0  0  0
    2.9584    3.0902   -0.2540 H   0  0  0  0  0  0  0  0  0  0  0  0
    0.3806   -0.6100   -1.4430 H   0  0  0  0  0  0  0  0  0  0  0  0
    0.2543   -2.2611    0.8992 H   0  0  0  0  0  0  0  0  0  0  0  0
   -0.6230   -0.0649    1.4454 H   0  0  0  0  0  0  0  0  0  0  0  0
   -2.1650   -1.1434   -1.0422 H   0  0  0  0  0  0  0  0  0  0  0  0
   -2.8815   -0.6795    0.5898 H   0  0  0  0  0  0  0  0  0  0  0  0
   -1.3732    1.1889   -1.3843 H   0  0  0  0  0  0  0  0  0  0  0  0
   -1.9766    1.7113    0.3099 H   0  0  0  0  0  0  0  0  0  0  0  0
  1  2  3  0
  2  3  1  0
  3  4  2  0
  3  5  1  0
  5  6  1  0
  5  7  1  0
  7  8  1  0
  8  9  1  0
  9  7  1  0
  1 10  1  0
  5 11  1  0
  6 12  1  0
  7 13  1  0
  8 14  1  0
  8 15  1  0
  9 16  1  0
  9 17  1  0
M  END
