
     RDKit          3D

 15 14  0  0  0  0  0  0  0  0999 V2000
    2.1344   -0.6388   -1.4068 C   0  0  0  0  0  0  0  0  0  0  0  0
    1.1762   -0.2006   -0.7901 C   0  0  0  0  0  0  0  0  0  0  0  0
    0.0199    0.3050   -0.0413 C   0  0  0  0  0  0  0  0  0  0  0  0
    0.4792    0.5951    1.3622 C   0  0  0  0  0  0  0  0  0  0  0  0
   -0.3673    1.5013   -0.6451 O   0  0  0  0  0  0  0  0  0  0  0  0
   -1.0981   -0.7168   -0.0563 C   0  0  0  0  0  0  0  0  0  0  0  0
   -1.5071   -1.0313   -1.3301 O   0  0  0  0  0  0  0  0  0  0  0  0
    2.9621   -1.0020   -1.9224 H   0  0  0  0  0  0  0  0  0  0  0  0
   -0.0354    1.4949    1.7994 H   0  0  0  0  0  0  0  0  0  0  0  0
    0.3711   -0.2818    2.0440 H   0  0  0  0  0  0  0  0  0  0  0  0
    1.5711    0.8462    1.3901 H   0  0  0  0  0  0  0  0  0  0  0  0
   -0.6613    2.0978    0.0702 H   0  0  0  0  0  0  0  0  0  0  0  0
   -0.6651   -1.6510    0.3874 H   0  0  0  0  0  0  0  0  0  0  0  0
   -1.8949   -0.3913    0.6216 H   0  0  0  0  0  0  0  0  0  0  0  0
   -2.4849   -0.9268   -1.4828 H   0  0  0  0  0  0  0  0  0  0  0  0
  1  2  3  0
  2  3  1  0
  3  4  1  0
  3  5  1  0
  3  6  1  0
  6  7  1  0
  1  8  1  0
  4  9  1  0
  4 10  1  0
  4 11  1  0
  5 12  1  0
  6 13  1  0
  6 14  1  0
  7 15  1  0
M  END
