
     RDKit          3D

 21 20  0  0  0  0  0  0  0  0999 V2000
   -3.2268   -0.7708    0.2162 C   0  0  0  0  0  0  0  0  0  0  0  0
   -2.1179   -0.3028    0.4610 C   0  0  0  0  0  0  0  0  0  0  0  0
   -0.7886    0.2333    0.7534 C   0  0  0  0  0  0  0  0  0  0  0  0
   -0.3041   -0.3187    1.9348 O   0  0  0  0  0  0  0  0  0  0  0  0
    0.1327   -0.0346   -0.4218 C   0  0  0  0  0  0  0  0  0  0  0  0
   -0.5671    0.5351   -1.6606 C   0  0  0  0  0  0  0  0  0  0  0  0
    0.2671   -1.4061   -0.5983 O   0  0  0  0  0  0  0  0  0  0  0  0
    1.4904    0.5627   -0.2431 C   0  0  0  0  0  0  0  0  0  0  0  0
    2.1892    0.0156    0.9811 C   0  0  0  0  0  0  0  0  0  0  0  0
   -4.1812   -1.1670   -0.0058 H   0  0  0  0  0  0  0  0  0  0  0  0
   -0.9489    1.3426    0.8771 H   0  0  0  0  0  0  0  0  0  0  0  0
   -1.0431   -0.8157    2.3638 H   0  0  0  0  0  0  0  0  0  0  0  0
   -0.8672    1.5673   -1.3937 H   0  0  0  0  0  0  0  0  0  0  0  0
   -1.4975   -0.0472   -1.7731 H   0  0  0  0  0  0  0  0  0  0  0  0
    0.1114    0.4645   -2.5151 H   0  0  0  0  0  0  0  0  0  0  0  0
    0.5621   -1.6611   -1.4861 H   0  0  0  0  0  0  0  0  0  0  0  0
    2.0969    0.3390   -1.1424 H   0  0  0  0  0  0  0  0  0  0  0  0
    1.4387    1.6858   -0.1731 H   0  0  0  0  0  0  0  0  0  0  0  0
    1.8498    0.5675    1.8857 H   0  0  0  0  0  0  0  0  0  0  0  0
    2.1223   -1.0675    1.0450 H   0  0  0  0  0  0  0  0  0  0  0  0
    3.2819    0.2780    0.8950 H   0  0  0  0  0  0  0  0  0  0  0  0
  1  2  3  0
  2  3  1  0
  3  4  1  0
  3  5  1  0
  5  6  1  0
  5  7  1  0
  5  8  1  0
  8  9  1  0
  1 10  1  0
  3 11  1  0
  4 12  1  0
  6 13  1  0
  6 14  1  0
  6 15  1  0
  7 16  1  0
  8 17  1  0
  8 18  1  0
  9 19  1  0
  9 20  1  0
  9 21  1  0
M  END
