
     RDKit          3D

 15 15  0  0  0  0  0  0  0  0999 V2000
    2.4488   -0.9057   -0.9461 C   0  0  0  0  0  0  0  0  0  0  0  0
    1.3043   -0.9652   -0.5410 C   0  0  0  0  0  0  0  0  0  0  0  0
   -0.0889   -1.0231   -0.0661 C   0  0  0  0  0  0  0  0  0  0  0  0
   -0.2235   -1.8905    1.0140 O   0  0  0  0  0  0  0  0  0  0  0  0
   -0.5946    0.3711    0.2539 C   0  0  0  0  0  0  0  0  0  0  0  0
   -2.0652    0.5606    0.1133 C   0  0  0  0  0  0  0  0  0  0  0  0
   -2.6123    1.6186    0.3347 O   0  0  0  0  0  0  0  0  0  0  0  0
    0.2481    1.4997   -0.1014 C   0  0  0  0  0  0  0  0  0  0  0  0
   -0.0261    1.0837    1.2754 O   0  0  0  0  0  0  0  0  0  0  0  0
    3.4320   -0.8387   -1.2854 H   0  0  0  0  0  0  0  0  0  0  0  0
   -0.6939   -1.4480   -0.8957 H   0  0  0  0  0  0  0  0  0  0  0  0
    0.4339   -1.6801    1.7024 H   0  0  0  0  0  0  0  0  0  0  0  0
   -2.6968   -0.2618   -0.1975 H   0  0  0  0  0  0  0  0  0  0  0  0
   -0.1963    2.4617   -0.3828 H   0  0  0  0  0  0  0  0  0  0  0  0
    1.3306    1.4178   -0.2776 H   0  0  0  0  0  0  0  0  0  0  0  0
  1  2  3  0
  2  3  1  0
  3  4  1  0
  3  5  1  0
  5  6  1  0
  6  7  2  0
  5  8  1  0
  8  9  1  0
  9  5  1  0
  1 10  1  0
  3 11  1  0
  4 12  1  0
  6 13  1  0
  8 14  1  0
  8 15  1  0
M  END
