
     RDKit          3D

 17 17  0  0  0  0  0  0  0  0999 V2000
    2.8709   -1.7527   -0.5629 C   0  0  0  0  0  0  0  0  0  0  0  0
    1.9560   -1.0617   -0.2800 C   0  0  0  0  0  0  0  0  0  0  0  0
    0.8357   -0.1859    0.0810 C   0  0  0  0  0  0  0  0  0  0  0  0
   -0.1854   -0.8743    0.9198 C   0  0  0  0  0  0  0  0  0  0  0  0
   -1.3250   -0.2474    1.1523 C   0  0  0  0  0  0  0  0  0  0  0  0
   -1.6038    1.1123    0.6000 C   0  0  0  0  0  0  0  0  0  0  0  0
   -0.8880    1.2932   -0.6875 C   0  0  0  0  0  0  0  0  0  0  0  0
   -1.1369    2.2465   -1.3917 O   0  0  0  0  0  0  0  0  0  0  0  0
    0.1400    0.3212   -1.1419 C   0  0  0  0  0  0  0  0  0  0  0  0
    3.6933   -2.3691   -0.7980 H   0  0  0  0  0  0  0  0  0  0  0  0
    1.2282    0.7067    0.6336 H   0  0  0  0  0  0  0  0  0  0  0  0
   -0.0359   -1.8528    1.3421 H   0  0  0  0  0  0  0  0  0  0  0  0
   -2.0936   -0.7039    1.7538 H   0  0  0  0  0  0  0  0  0  0  0  0
   -2.6872    1.3164    0.5404 H   0  0  0  0  0  0  0  0  0  0  0  0
   -1.2226    1.8326    1.3785 H   0  0  0  0  0  0  0  0  0  0  0  0
   -0.3616   -0.5513   -1.6466 H   0  0  0  0  0  0  0  0  0  0  0  0
    0.8158    0.7703   -1.8929 H   0  0  0  0  0  0  0  0  0  0  0  0
  1  2  3  0
  2  3  1  0
  3  4  1  0
  4  5  2  0
  5  6  1  0
  6  7  1  0
  7  8  2  0
  7  9  1  0
  9  3  1  0
  1 10  1  0
  3 11  1  0
  4 12  1  0
  5 13  1  0
  6 14  1  0
  6 15  1  0
  9 16  1  0
  9 17  1  0
M  END
