
     RDKit          3D

 17 16  0  0  0  0  0  0  0  0999 V2000
    2.9043   -0.8974   -0.5730 C   0  0  0  0  0  0  0  0  0  0  0  0
    2.2552    0.3475   -0.6075 C   0  0  0  0  0  0  0  0  0  0  0  0
    1.6895    1.4607   -0.6558 C   0  0  0  0  0  0  0  0  0  0  0  0
    1.3498    2.4970   -0.7839 O   0  0  0  0  0  0  0  0  0  0  0  0
    0.1779    0.9286    0.0858 C   0  0  0  0  0  0  0  0  0  0  0  0
    0.7889   -0.5437   -0.3154 O   0  0  0  0  0  0  0  0  0  0  0  0
   -0.7585    0.6062    0.5457 C   0  0  0  0  0  0  0  0  0  0  0  0
   -1.6817   -0.2137   -0.5773 C   0  0  0  0  0  0  0  0  0  0  0  0
   -0.7884   -0.4477    1.7180 C   0  0  0  0  0  0  0  0  0  0  0  0
    3.4622   -1.9240   -0.5469 H   0  0  0  0  0  0  0  0  0  0  0  0
   -1.6011    1.3056    0.8565 H   0  0  0  0  0  0  0  0  0  0  0  0
   -0.9708   -0.7568   -1.1507 H   0  0  0  0  0  0  0  0  0  0  0  0
   -2.2962    0.5693   -1.0452 H   0  0  0  0  0  0  0  0  0  0  0  0
   -2.2732   -0.8520    0.1397 H   0  0  0  0  0  0  0  0  0  0  0  0
   -1.5552   -0.1955    2.4061 H   0  0  0  0  0  0  0  0  0  0  0  0
   -0.9680   -1.4646    1.2290 H   0  0  0  0  0  0  0  0  0  0  0  0
    0.2654   -0.4195    2.0820 H   0  0  0  0  0  0  0  0  0  0  0  0
  1  2  3  0
  2  3  1  0
  3  4  2  0
  3  5  1  0
  5  6  2  0
  5  7  1  0
  7  8  1  0
  7  9  1  0
  1 10  1  0
  7 11  1  0
  8 12  1  0
  8 13  1  0
  8 14  1  0
  9 15  1  0
  9 16  1  0
  9 17  1  0
M  END
