
     RDKit          3D

 17 18  0  0  0  0  0  0  0  0999 V2000
    3.4060   -0.2026    0.3597 C   0  0  0  0  0  0  0  0  0  0  0  0
    2.1997   -0.2849    0.1700 C   0  0  0  0  0  0  0  0  0  0  0  0
    0.7941   -0.3788   -0.0741 C   0  0  0  0  0  0  0  0  0  0  0  0
    0.0995   -1.4817    0.1183 C   0  0  0  0  0  0  0  0  0  0  0  0
   -1.3391   -1.2572   -0.2265 C   0  0  0  0  0  0  0  0  0  0  0  0
   -1.4558    0.2135   -0.5090 C   0  0  0  0  0  0  0  0  0  0  0  0
   -1.7308    0.8972    0.6847 O   0  0  0  0  0  0  0  0  0  0  0  0
   -0.5885    1.6568    0.4825 C   0  0  0  0  0  0  0  0  0  0  0  0
   -0.0548    0.7244   -0.5653 C   0  0  0  0  0  0  0  0  0  0  0  0
    4.4497   -0.1144    0.5210 H   0  0  0  0  0  0  0  0  0  0  0  0
    0.4366   -2.4583    0.4729 H   0  0  0  0  0  0  0  0  0  0  0  0
   -1.6688   -1.8986   -1.0668 H   0  0  0  0  0  0  0  0  0  0  0  0
   -1.9161   -1.5488    0.6833 H   0  0  0  0  0  0  0  0  0  0  0  0
   -2.0596    0.5100   -1.3737 H   0  0  0  0  0  0  0  0  0  0  0  0
   -0.8948    2.6263   -0.0066 H   0  0  0  0  0  0  0  0  0  0  0  0
    0.0514    1.8012    1.3688 H   0  0  0  0  0  0  0  0  0  0  0  0
    0.2713    1.1959   -1.5100 H   0  0  0  0  0  0  0  0  0  0  0  0
  1  2  3  0
  2  3  1  0
  3  4  2  0
  4  5  1  0
  5  6  1  0
  6  7  1  0
  7  8  1  0
  8  9  1  0
  9  3  1  0
  9  6  1  0
  1 10  1  0
  4 11  1  0
  5 12  1  0
  5 13  1  0
  6 14  1  0
  8 15  1  0
  8 16  1  0
  9 17  1  0
M  END
