
     RDKit          3D

 19 20  0  0  0  0  0  0  0  0999 V2000
    2.4341    1.7612   -0.9149 C   0  0  0  0  0  0  0  0  0  0  0  0
    1.8331    0.9262   -0.2966 C   0  0  0  0  0  0  0  0  0  0  0  0
    1.1085   -0.1013    0.4330 C   0  0  0  0  0  0  0  0  0  0  0  0
    1.1587   -1.4881   -0.2153 C   0  0  0  0  0  0  0  0  0  0  0  0
   -0.3560   -1.5202   -0.1794 C   0  0  0  0  0  0  0  0  0  0  0  0
   -0.3429   -0.1002    0.2529 C   0  0  0  0  0  0  0  0  0  0  0  0
   -1.3096    0.4629    1.2084 C   0  0  0  0  0  0  0  0  0  0  0  0
   -1.1977    0.9479   -0.2180 C   0  0  0  0  0  0  0  0  0  0  0  0
   -2.2581    0.5905   -1.0749 O   0  0  0  0  0  0  0  0  0  0  0  0
    2.9724    2.4791   -1.4504 H   0  0  0  0  0  0  0  0  0  0  0  0
    1.4039   -0.2057    1.5093 H   0  0  0  0  0  0  0  0  0  0  0  0
    1.6660   -2.2561    0.3928 H   0  0  0  0  0  0  0  0  0  0  0  0
    1.5306   -1.4912   -1.2549 H   0  0  0  0  0  0  0  0  0  0  0  0
   -0.8384   -1.7587   -1.1440 H   0  0  0  0  0  0  0  0  0  0  0  0
   -0.7191   -2.1750    0.6559 H   0  0  0  0  0  0  0  0  0  0  0  0
   -0.9675    1.0812    2.0417 H   0  0  0  0  0  0  0  0  0  0  0  0
   -2.1570   -0.2315    1.4715 H   0  0  0  0  0  0  0  0  0  0  0  0
   -0.8805    1.9932   -0.3472 H   0  0  0  0  0  0  0  0  0  0  0  0
   -3.0803    1.0859   -0.8698 H   0  0  0  0  0  0  0  0  0  0  0  0
  1  2  3  0
  2  3  1  0
  3  4  1  0
  4  5  1  0
  5  6  1  0
  6  7  1  0
  7  8  1  0
  8  9  1  0
  6  3  1  0
  8  6  1  0
  1 10  1  0
  3 11  1  0
  4 12  1  0
  4 13  1  0
  5 14  1  0
  5 15  1  0
  7 16  1  0
  7 17  1  0
  8 18  1  0
  9 19  1  0
M  END
