
     RDKit          3D

 23 22  0  0  0  0  0  0  0  0999 V2000
    2.3761   -1.1039   -1.9957 C   0  0  0  0  0  0  0  0  0  0  0  0
    1.9000   -0.8428   -0.8751 C   0  0  0  0  0  0  0  0  0  0  0  0
    1.3212   -0.5251    0.4295 C   0  0  0  0  0  0  0  0  0  0  0  0
    0.2303    0.5348    0.3153 C   0  0  0  0  0  0  0  0  0  0  0  0
   -0.1839    0.7063    1.6687 O   0  0  0  0  0  0  0  0  0  0  0  0
    0.0824    2.0042    2.0211 C   0  0  0  0  0  0  0  0  0  0  0  0
   -0.9972    0.0628   -0.3918 C   0  0  0  0  0  0  0  0  0  0  0  0
   -1.5967   -1.1131    0.3955 C   0  0  0  0  0  0  0  0  0  0  0  0
   -0.7878   -0.4435   -1.7870 C   0  0  0  0  0  0  0  0  0  0  0  0
    2.7938   -1.3197   -2.9333 H   0  0  0  0  0  0  0  0  0  0  0  0
    2.1626   -0.0798    1.0484 H   0  0  0  0  0  0  0  0  0  0  0  0
    1.0022   -1.4374    0.9362 H   0  0  0  0  0  0  0  0  0  0  0  0
    0.6365    1.4439   -0.1008 H   0  0  0  0  0  0  0  0  0  0  0  0
    1.1364    2.2804    1.9424 H   0  0  0  0  0  0  0  0  0  0  0  0
   -0.1786    2.1092    3.1131 H   0  0  0  0  0  0  0  0  0  0  0  0
   -0.5218    2.7403    1.4292 H   0  0  0  0  0  0  0  0  0  0  0  0
   -1.7333    0.9141   -0.3969 H   0  0  0  0  0  0  0  0  0  0  0  0
   -2.6712   -0.9085    0.4789 H   0  0  0  0  0  0  0  0  0  0  0  0
   -1.4679   -2.0776   -0.1467 H   0  0  0  0  0  0  0  0  0  0  0  0
   -1.0632   -1.2515    1.3545 H   0  0  0  0  0  0  0  0  0  0  0  0
   -0.1512    0.2099   -2.4275 H   0  0  0  0  0  0  0  0  0  0  0  0
   -0.4704   -1.4838   -1.8169 H   0  0  0  0  0  0  0  0  0  0  0  0
   -1.8183   -0.4190   -2.2610 H   0  0  0  0  0  0  0  0  0  0  0  0
  1  2  3  0
  2  3  1  0
  3  4  1  0
  4  5  1  0
  5  6  1  0
  4  7  1  0
  7  8  1  0
  7  9  1  0
  1 10  1  0
  3 11  1  0
  3 12  1  0
  4 13  1  0
  6 14  1  0
  6 15  1  0
  6 16  1  0
  7 17  1  0
  8 18  1  0
  8 19  1  0
  8 20  1  0
  9 21  1  0
  9 22  1  0
  9 23  1  0
M  END
