
     RDKit          3D

 15 16  0  0  0  0  0  0  0  0999 V2000
    2.7400   -0.8231   -0.5303 C   0  0  0  0  0  0  0  0  0  0  0  0
    1.6466   -0.3762   -0.2846 C   0  0  0  0  0  0  0  0  0  0  0  0
    0.3280    0.1710    0.0374 C   0  0  0  0  0  0  0  0  0  0  0  0
    0.2975    1.6034    0.3536 C   0  0  0  0  0  0  0  0  0  0  0  0
    0.8424    2.3836   -0.4096 O   0  0  0  0  0  0  0  0  0  0  0  0
   -0.7190   -0.3583   -0.8735 C   0  0  0  0  0  0  0  0  0  0  0  0
   -1.7380   -0.0800    0.1767 C   0  0  0  0  0  0  0  0  0  0  0  0
   -0.5528   -0.7205    0.8417 C   0  0  0  0  0  0  0  0  0  0  0  0
   -0.5335   -1.5905   -0.2389 O   0  0  0  0  0  0  0  0  0  0  0  0
    3.7105   -1.2268   -0.7669 H   0  0  0  0  0  0  0  0  0  0  0  0
   -0.1810    1.9916    1.2227 H   0  0  0  0  0  0  0  0  0  0  0  0
   -0.8064   -0.2238   -1.8698 H   0  0  0  0  0  0  0  0  0  0  0  0
   -2.6236   -0.7423    0.0921 H   0  0  0  0  0  0  0  0  0  0  0  0
   -1.9418    0.9560    0.4355 H   0  0  0  0  0  0  0  0  0  0  0  0
   -0.4690   -0.9639    1.8140 H   0  0  0  0  0  0  0  0  0  0  0  0
  1  2  3  0
  2  3  1  0
  3  4  1  0
  4  5  2  0
  3  6  1  0
  6  7  1  0
  7  8  1  0
  8  9  1  0
  8  3  1  0
  9  6  1  0
  1 10  1  0
  4 11  1  0
  6 12  1  0
  7 13  1  0
  7 14  1  0
  8 15  1  0
M  END
