
     RDKit          3D

 16 16  0  0  0  0  0  0  0  0999 V2000
    3.1851   -0.4094    0.8139 C   0  0  0  0  0  0  0  0  0  0  0  0
    2.3086    0.0255    0.1074 C   0  0  0  0  0  0  0  0  0  0  0  0
    1.2389    0.5393   -0.7707 C   0  0  0  0  0  0  0  0  0  0  0  0
   -0.1022    0.2003   -0.2765 C   0  0  0  0  0  0  0  0  0  0  0  0
   -0.9913   -0.5221   -0.9489 C   0  0  0  0  0  0  0  0  0  0  0  0
   -2.2241   -0.6365   -0.0986 C   0  0  0  0  0  0  0  0  0  0  0  0
   -1.7957   -0.3022    1.1586 O   0  0  0  0  0  0  0  0  0  0  0  0
   -0.7205    0.5704    1.0092 C   0  0  0  0  0  0  0  0  0  0  0  0
    3.9501   -0.7974    1.4534 H   0  0  0  0  0  0  0  0  0  0  0  0
    1.3535    1.6503   -0.8137 H   0  0  0  0  0  0  0  0  0  0  0  0
    1.4338    0.1331   -1.7679 H   0  0  0  0  0  0  0  0  0  0  0  0
   -0.8686   -0.9581   -1.9324 H   0  0  0  0  0  0  0  0  0  0  0  0
   -3.0055    0.0413   -0.5032 H   0  0  0  0  0  0  0  0  0  0  0  0
   -2.5901   -1.6844   -0.1793 H   0  0  0  0  0  0  0  0  0  0  0  0
   -0.0246    0.5556    1.8633 H   0  0  0  0  0  0  0  0  0  0  0  0
   -1.1474    1.5945    0.8854 H   0  0  0  0  0  0  0  0  0  0  0  0
  1  2  3  0
  2  3  1  0
  3  4  1  0
  4  5  2  0
  5  6  1  0
  6  7  1  0
  7  8  1  0
  8  4  1  0
  1  9  1  0
  3 10  1  0
  3 11  1  0
  5 12  1  0
  6 13  1  0
  6 14  1  0
  8 15  1  0
  8 16  1  0
M  END
