
     RDKit          3D

 19 19  0  0  0  0  0  0  0  0999 V2000
    2.8425   -0.3465    0.1034 C   0  0  0  0  0  0  0  0  0  0  0  0
    1.9210    0.3470    0.4520 C   0  0  0  0  0  0  0  0  0  0  0  0
    0.8379    1.1887    0.8803 C   0  0  0  0  0  0  0  0  0  0  0  0
    0.7596    2.2494   -0.0547 O   0  0  0  0  0  0  0  0  0  0  0  0
   -0.5246    0.5599    0.8790 C   0  0  0  0  0  0  0  0  0  0  0  0
   -0.9624    0.0887   -0.4713 C   0  0  0  0  0  0  0  0  0  0  0  0
   -0.2078   -0.9331   -1.2017 C   0  0  0  0  0  0  0  0  0  0  0  0
   -1.6884   -1.1450   -0.7339 C   0  0  0  0  0  0  0  0  0  0  0  0
   -1.8914   -2.1410    0.1882 O   0  0  0  0  0  0  0  0  0  0  0  0
    3.6678   -0.9502   -0.2031 H   0  0  0  0  0  0  0  0  0  0  0  0
    1.0248    1.6792    1.8648 H   0  0  0  0  0  0  0  0  0  0  0  0
    1.4751    2.9147    0.1409 H   0  0  0  0  0  0  0  0  0  0  0  0
   -1.2720    1.3194    1.2345 H   0  0  0  0  0  0  0  0  0  0  0  0
   -0.5277   -0.2957    1.5982 H   0  0  0  0  0  0  0  0  0  0  0  0
   -1.2667    0.9763   -1.1229 H   0  0  0  0  0  0  0  0  0  0  0  0
   -0.0986   -0.8497   -2.3168 H   0  0  0  0  0  0  0  0  0  0  0  0
    0.4810   -1.6657   -0.7655 H   0  0  0  0  0  0  0  0  0  0  0  0
   -2.4438   -1.1515   -1.5556 H   0  0  0  0  0  0  0  0  0  0  0  0
   -2.1262   -1.8450    1.0842 H   0  0  0  0  0  0  0  0  0  0  0  0
  1  2  3  0
  2  3  1  0
  3  4  1  0
  3  5  1  0
  5  6  1  0
  6  7  1  0
  7  8  1  0
  8  9  1  0
  8  6  1  0
  1 10  1  0
  3 11  1  0
  4 12  1  0
  5 13  1  0
  5 14  1  0
  6 15  1  0
  7 16  1  0
  7 17  1  0
  8 18  1  0
  9 19  1  0
M  END
