
     RDKit          3D

 14 13  0  0  0  0  0  0  0  0999 V2000
    2.4545   -1.5567   -0.0437 C   0  0  0  0  0  0  0  0  0  0  0  0
    1.3191   -1.2967   -0.3406 C   0  0  0  0  0  0  0  0  0  0  0  0
   -0.0340   -0.9635   -0.7067 C   0  0  0  0  0  0  0  0  0  0  0  0
   -0.5225   -1.3083   -1.8127 O   0  0  0  0  0  0  0  0  0  0  0  0
   -0.8453   -0.1871    0.2786 C   0  0  0  0  0  0  0  0  0  0  0  0
   -2.1018    0.0312   -0.2694 O   0  0  0  0  0  0  0  0  0  0  0  0
   -0.2000    1.1389    0.5816 C   0  0  0  0  0  0  0  0  0  0  0  0
   -0.0715    1.8873   -0.5935 O   0  0  0  0  0  0  0  0  0  0  0  0
    3.4724   -1.8087    0.2276 H   0  0  0  0  0  0  0  0  0  0  0  0
   -0.9082   -0.7468    1.2429 H   0  0  0  0  0  0  0  0  0  0  0  0
   -2.3431    0.9646   -0.1580 H   0  0  0  0  0  0  0  0  0  0  0  0
    0.7673    0.9350    1.0688 H   0  0  0  0  0  0  0  0  0  0  0  0
   -0.8844    1.6662    1.2977 H   0  0  0  0  0  0  0  0  0  0  0  0
   -0.1026    1.2446   -1.3433 H   0  0  0  0  0  0  0  0  0  0  0  0
  1  2  3  0
  2  3  1  0
  3  4  2  0
  3  5  1  0
  5  6  1  0
  5  7  1  0
  7  8  1  0
  1  9  1  0
  5 10  1  0
  6 11  1  0
  7 12  1  0
  7 13  1  0
  8 14  1  0
M  END
