
     RDKit          3D

 17 17  0  0  0  0  0  0  0  0999 V2000
    2.5386    0.1198    1.9986 C   0  0  0  0  0  0  0  0  0  0  0  0
    1.6043   -0.1457    1.2777 C   0  0  0  0  0  0  0  0  0  0  0  0
    0.4849   -0.4384    0.4255 C   0  0  0  0  0  0  0  0  0  0  0  0
   -0.3479   -1.4472    0.5968 C   0  0  0  0  0  0  0  0  0  0  0  0
   -1.3881   -1.4656   -0.4530 C   0  0  0  0  0  0  0  0  0  0  0  0
   -1.2186   -0.1759   -1.1677 C   0  0  0  0  0  0  0  0  0  0  0  0
   -2.0270    0.3366   -1.9347 O   0  0  0  0  0  0  0  0  0  0  0  0
    0.1067    0.3539   -0.7690 C   0  0  0  0  0  0  0  0  0  0  0  0
   -0.0138    1.8138   -0.3699 C   0  0  0  0  0  0  0  0  0  0  0  0
    3.3738    0.3567    2.6208 H   0  0  0  0  0  0  0  0  0  0  0  0
   -0.2823   -2.1813    1.4114 H   0  0  0  0  0  0  0  0  0  0  0  0
   -1.2730   -2.3474   -1.1471 H   0  0  0  0  0  0  0  0  0  0  0  0
   -2.3930   -1.5616    0.0012 H   0  0  0  0  0  0  0  0  0  0  0  0
    0.8599    0.2993   -1.5813 H   0  0  0  0  0  0  0  0  0  0  0  0
   -0.9203    1.9985    0.2181 H   0  0  0  0  0  0  0  0  0  0  0  0
    0.9103    2.0829    0.1782 H   0  0  0  0  0  0  0  0  0  0  0  0
   -0.0145    2.4014   -1.3056 H   0  0  0  0  0  0  0  0  0  0  0  0
  1  2  3  0
  2  3  1  0
  3  4  2  0
  4  5  1  0
  5  6  1  0
  6  7  2  0
  6  8  1  0
  8  9  1  0
  8  3  1  0
  1 10  1  0
  4 11  1  0
  5 12  1  0
  5 13  1  0
  8 14  1  0
  9 15  1  0
  9 16  1  0
  9 17  1  0
M  END
