
     RDKit          3D

 17 17  0  0  0  0  0  0  0  0999 V2000
    4.2996   -1.8652    0.9834 C   0  0  0  0  0  0  0  0  0  0  0  0
    3.2058   -1.4547    0.6530 C   0  0  0  0  0  0  0  0  0  0  0  0
    1.9246   -0.9575    0.2820 C   0  0  0  0  0  0  0  0  0  0  0  0
    0.8360   -0.5279   -0.0151 C   0  0  0  0  0  0  0  0  0  0  0  0
   -0.4943   -0.0004   -0.3521 C   0  0  0  0  0  0  0  0  0  0  0  0
   -1.5493   -1.0906   -0.4865 C   0  0  0  0  0  0  0  0  0  0  0  0
   -0.8573    1.1101    0.5825 C   0  0  0  0  0  0  0  0  0  0  0  0
   -1.4295    1.6452   -0.7366 C   0  0  0  0  0  0  0  0  0  0  0  0
   -0.4645    0.8945   -1.4055 O   0  0  0  0  0  0  0  0  0  0  0  0
    5.2522   -2.2148    1.2867 H   0  0  0  0  0  0  0  0  0  0  0  0
   -1.9464   -1.2859    0.5289 H   0  0  0  0  0  0  0  0  0  0  0  0
   -1.0915   -2.0461   -0.8280 H   0  0  0  0  0  0  0  0  0  0  0  0
   -2.3617   -0.7464   -1.1249 H   0  0  0  0  0  0  0  0  0  0  0  0
    0.0202    1.6670    0.9504 H   0  0  0  0  0  0  0  0  0  0  0  0
   -1.6169    0.8733    1.3436 H   0  0  0  0  0  0  0  0  0  0  0  0
   -2.4475    1.2783   -0.8566 H   0  0  0  0  0  0  0  0  0  0  0  0
   -1.2795    2.7317   -0.8051 H   0  0  0  0  0  0  0  0  0  0  0  0
  1  2  3  0
  2  3  1  0
  3  4  3  0
  4  5  1  0
  5  6  1  0
  5  7  1  0
  7  8  1  0
  8  9  1  0
  9  5  1  0
  1 10  1  0
  6 11  1  0
  6 12  1  0
  6 13  1  0
  7 14  1  0
  7 15  1  0
  8 16  1  0
  8 17  1  0
M  END
