
     RDKit          3D

 17 17  0  0  0  0  0  0  0  0999 V2000
   -2.1334    1.1735   -0.6450 C   0  0  0  0  0  0  0  0  0  0  0  0
   -1.3362    0.1217   -0.2020 C   0  0  0  0  0  0  0  0  0  0  0  0
   -0.5448   -0.9590    0.2351 C   0  0  0  0  0  0  0  0  0  0  0  0
   -1.1613   -2.1954   -0.2945 C   0  0  0  0  0  0  0  0  0  0  0  0
    0.8559   -0.5511    0.2782 C   0  0  0  0  0  0  0  0  0  0  0  0
    0.9672    0.4261    1.4631 O   0  0  0  0  0  0  0  0  0  0  0  0
    1.1410    0.7941    0.0298 C   0  0  0  0  0  0  0  0  0  0  0  0
    2.0237    1.7766   -0.0828 C   0  0  0  0  0  0  0  0  0  0  0  0
    2.9340    2.7564   -0.2022 C   0  0  0  0  0  0  0  0  0  0  0  0
   -2.6821    1.9079   -0.9364 H   0  0  0  0  0  0  0  0  0  0  0  0
   -0.9272   -0.9534    1.4174 H   0  0  0  0  0  0  0  0  0  0  0  0
   -1.5566   -2.1181   -1.2925 H   0  0  0  0  0  0  0  0  0  0  0  0
   -2.1029   -2.3501    0.3772 H   0  0  0  0  0  0  0  0  0  0  0  0
   -0.6175   -3.1704   -0.0608 H   0  0  0  0  0  0  0  0  0  0  0  0
    1.6360   -1.3156    0.3834 H   0  0  0  0  0  0  0  0  0  0  0  0
    0.0367    1.3365   -0.3160 H   0  0  0  0  0  0  0  0  0  0  0  0
    3.4673    3.3202   -0.2643 H   0  0  0  0  0  0  0  0  0  0  0  0
  1  2  3  0
  2  3  1  0
  3  4  1  0
  3  5  1  0
  5  6  1  0
  6  7  1  0
  7  8  1  0
  8  9  3  0
  7  5  1  0
  1 10  1  0
  3 11  1  0
  4 12  1  0
  4 13  1  0
  4 14  1  0
  5 15  1  0
  7 16  1  0
  9 17  1  0
M  END
