
     RDKit          3D

 14 14  0  0  0  0  0  0  0  0999 V2000
    3.0257    1.1008   -0.4255 C   0  0  0  0  0  0  0  0  0  0  0  0
    1.8785    0.6984   -0.2680 C   0  0  0  0  0  0  0  0  0  0  0  0
    0.5311    0.2170   -0.1067 C   0  0  0  0  0  0  0  0  0  0  0  0
    0.1296   -0.4075    0.9829 C   0  0  0  0  0  0  0  0  0  0  0  0
   -1.3170   -0.7693    0.8191 C   0  0  0  0  0  0  0  0  0  0  0  0
   -1.5690   -0.5880   -0.6171 C   0  0  0  0  0  0  0  0  0  0  0  0
   -2.4361   -1.1096   -1.2684 O   0  0  0  0  0  0  0  0  0  0  0  0
   -0.5540    0.3579   -1.1110 C   0  0  0  0  0  0  0  0  0  0  0  0
    4.0083    1.4644   -0.5662 H   0  0  0  0  0  0  0  0  0  0  0  0
    0.7480   -0.6161    1.8394 H   0  0  0  0  0  0  0  0  0  0  0  0
   -1.5009   -1.7873    1.1819 H   0  0  0  0  0  0  0  0  0  0  0  0
   -1.8725   -0.0411    1.4581 H   0  0  0  0  0  0  0  0  0  0  0  0
   -0.9139    1.3992   -1.1712 H   0  0  0  0  0  0  0  0  0  0  0  0
   -0.1578    0.0813   -2.1180 H   0  0  0  0  0  0  0  0  0  0  0  0
  1  2  3  0
  2  3  1  0
  3  4  2  0
  4  5  1  0
  5  6  1  0
  6  7  2  0
  6  8  1  0
  8  3  1  0
  1  9  1  0
  4 10  1  0
  5 11  1  0
  5 12  1  0
  8 13  1  0
  8 14  1  0
M  END
