
     RDKit          3D

 21 21  0  0  0  0  0  0  0  0999 V2000
   -2.3298    2.2405    0.6289 C   0  0  0  0  0  0  0  0  0  0  0  0
   -1.7907    1.2246    0.2606 C   0  0  0  0  0  0  0  0  0  0  0  0
   -1.1383   -0.0375   -0.1724 C   0  0  0  0  0  0  0  0  0  0  0  0
   -0.2061    0.0517   -1.1864 O   0  0  0  0  0  0  0  0  0  0  0  0
    0.8641    0.8643   -0.9227 C   0  0  0  0  0  0  0  0  0  0  0  0
    1.7061    0.4829    0.2495 C   0  0  0  0  0  0  0  0  0  0  0  0
    2.3212   -0.8874    0.1040 C   0  0  0  0  0  0  0  0  0  0  0  0
   -1.0065   -1.1193    0.8027 C   0  0  0  0  0  0  0  0  0  0  0  0
   -2.0869   -1.1902   -0.2137 C   0  0  0  0  0  0  0  0  0  0  0  0
   -2.7972    3.1325    0.9658 H   0  0  0  0  0  0  0  0  0  0  0  0
    1.5090    0.8997   -1.8345 H   0  0  0  0  0  0  0  0  0  0  0  0
    0.5058    1.9105   -0.7856 H   0  0  0  0  0  0  0  0  0  0  0  0
    2.5195    1.2313    0.3439 H   0  0  0  0  0  0  0  0  0  0  0  0
    1.1303    0.5432    1.1976 H   0  0  0  0  0  0  0  0  0  0  0  0
    1.6891   -1.5192   -0.5546 H   0  0  0  0  0  0  0  0  0  0  0  0
    2.4169   -1.3072    1.1311 H   0  0  0  0  0  0  0  0  0  0  0  0
    3.3439   -0.7703   -0.2812 H   0  0  0  0  0  0  0  0  0  0  0  0
   -1.2692   -0.8689    1.8598 H   0  0  0  0  0  0  0  0  0  0  0  0
   -0.2836   -1.9398    0.7455 H   0  0  0  0  0  0  0  0  0  0  0  0
   -3.1115   -1.0692    0.1876 H   0  0  0  0  0  0  0  0  0  0  0  0
   -1.9860   -1.8722   -1.0684 H   0  0  0  0  0  0  0  0  0  0  0  0
  1  2  3  0
  2  3  1  0
  3  4  1  0
  4  5  1  0
  5  6  1  0
  6  7  1  0
  3  8  1  0
  8  9  1  0
  9  3  1  0
  1 10  1  0
  5 11  1  0
  5 12  1  0
  6 13  1  0
  6 14  1  0
  7 15  1  0
  7 16  1  0
  7 17  1  0
  8 18  1  0
  8 19  1  0
  9 20  1  0
  9 21  1  0
M  END
