
     RDKit          3D

 19 19  0  0  0  0  0  0  0  0999 V2000
   -0.6437    2.6450    1.6434 C   0  0  0  0  0  0  0  0  0  0  0  0
   -1.3544    1.4044    1.2202 C   0  0  0  0  0  0  0  0  0  0  0  0
   -1.9288    0.3772    0.8755 C   0  0  0  0  0  0  0  0  0  0  0  0
   -1.3329   -0.4023   -0.3416 C   0  0  0  0  0  0  0  0  0  0  0  0
    0.0517   -0.8635   -0.1550 C   0  0  0  0  0  0  0  0  0  0  0  0
    1.2153   -0.0283    0.0982 C   0  0  0  0  0  0  0  0  0  0  0  0
    2.3012   -0.5659    0.8676 O   0  0  0  0  0  0  0  0  0  0  0  0
    1.0587   -0.6070   -1.2559 C   0  0  0  0  0  0  0  0  0  0  0  0
    1.9198   -1.6881   -1.5459 O   0  0  0  0  0  0  0  0  0  0  0  0
   -0.1921    3.4613    1.9291 H   0  0  0  0  0  0  0  0  0  0  0  0
   -2.1354   -0.4143    1.7224 H   0  0  0  0  0  0  0  0  0  0  0  0
   -3.0541    0.4177    0.5033 H   0  0  0  0  0  0  0  0  0  0  0  0
   -1.4365    0.3161   -1.1969 H   0  0  0  0  0  0  0  0  0  0  0  0
   -1.9970   -1.2814   -0.5292 H   0  0  0  0  0  0  0  0  0  0  0  0
    0.1051   -1.9757    0.1839 H   0  0  0  0  0  0  0  0  0  0  0  0
    1.1453    1.0651    0.1649 H   0  0  0  0  0  0  0  0  0  0  0  0
    3.1223   -0.4097    0.2691 H   0  0  0  0  0  0  0  0  0  0  0  0
    0.6763   -0.0954   -2.1449 H   0  0  0  0  0  0  0  0  0  0  0  0
    2.4791   -1.3552   -2.3083 H   0  0  0  0  0  0  0  0  0  0  0  0
  1  2  3  0
  2  3  1  0
  3  4  1  0
  4  5  1  0
  5  6  1  0
  6  7  1  0
  6  8  1  0
  8  9  1  0
  8  5  1  0
  1 10  1  0
  3 11  1  0
  3 12  1  0
  4 13  1  0
  4 14  1  0
  5 15  1  0
  6 16  1  0
  7 17  1  0
  8 18  1  0
  9 19  1  0
M  END
