
     RDKit          3D

 23 22  0  0  0  0  0  0  0  0999 V2000
   -2.1151    1.9316    0.6208 C   0  0  0  0  0  0  0  0  0  0  0  0
   -1.9625    0.8045    0.2355 C   0  0  0  0  0  0  0  0  0  0  0  0
   -1.7987   -0.5349   -0.2406 C   0  0  0  0  0  0  0  0  0  0  0  0
   -0.4490   -0.8656   -0.8239 C   0  0  0  0  0  0  0  0  0  0  0  0
   -0.0684   -0.0171   -2.0067 C   0  0  0  0  0  0  0  0  0  0  0  0
    0.6202   -1.1289    0.1624 C   0  0  0  0  0  0  0  0  0  0  0  0
    0.9864   -0.0802    1.1240 C   0  0  0  0  0  0  0  0  0  0  0  0
    1.4961    1.2094    0.6293 C   0  0  0  0  0  0  0  0  0  0  0  0
    1.9194   -0.6417    2.0322 O   0  0  0  0  0  0  0  0  0  0  0  0
   -2.2354    2.9278    0.9532 H   0  0  0  0  0  0  0  0  0  0  0  0
   -2.5438   -0.6909   -1.0730 H   0  0  0  0  0  0  0  0  0  0  0  0
   -2.0095   -1.2882    0.5385 H   0  0  0  0  0  0  0  0  0  0  0  0
   -0.6350   -1.8976   -1.3078 H   0  0  0  0  0  0  0  0  0  0  0  0
    0.4804    0.8696   -1.7028 H   0  0  0  0  0  0  0  0  0  0  0  0
   -0.9348    0.1894   -2.6647 H   0  0  0  0  0  0  0  0  0  0  0  0
    0.6580   -0.6215   -2.6295 H   0  0  0  0  0  0  0  0  0  0  0  0
    1.5027   -1.5325   -0.3930 H   0  0  0  0  0  0  0  0  0  0  0  0
    0.2741   -2.0238    0.7678 H   0  0  0  0  0  0  0  0  0  0  0  0
    0.0962    0.1255    1.7849 H   0  0  0  0  0  0  0  0  0  0  0  0
    2.2672    1.1450   -0.1645 H   0  0  0  0  0  0  0  0  0  0  0  0
    2.0705    1.6891    1.4886 H   0  0  0  0  0  0  0  0  0  0  0  0
    0.7480    1.9822    0.3708 H   0  0  0  0  0  0  0  0  0  0  0  0
    1.6328   -1.5511    2.2983 H   0  0  0  0  0  0  0  0  0  0  0  0
  1  2  3  0
  2  3  1  0
  3  4  1  0
  4  5  1  0
  4  6  1  0
  6  7  1  0
  7  8  1  0
  7  9  1  0
  1 10  1  0
  3 11  1  0
  3 12  1  0
  4 13  1  0
  5 14  1  0
  5 15  1  0
  5 16  1  0
  6 17  1  0
  6 18  1  0
  7 19  1  0
  8 20  1  0
  8 21  1  0
  8 22  1  0
  9 23  1  0
M  END
