
     RDKit          3D

 21 20  0  0  0  0  0  0  0  0999 V2000
    0.3037   -3.0367   -0.6559 C   0  0  0  0  0  0  0  0  0  0  0  0
   -0.0985   -1.9118   -0.8010 C   0  0  0  0  0  0  0  0  0  0  0  0
   -0.5838   -0.5359   -0.9610 C   0  0  0  0  0  0  0  0  0  0  0  0
   -0.4207    0.2128    0.3423 C   0  0  0  0  0  0  0  0  0  0  0  0
   -1.1708   -0.3909    1.4717 C   0  0  0  0  0  0  0  0  0  0  0  0
   -0.8012    1.6608    0.0663 C   0  0  0  0  0  0  0  0  0  0  0  0
    1.0615    0.1905    0.6692 C   0  0  0  0  0  0  0  0  0  0  0  0
    1.7555    0.8528   -0.4342 C   0  0  0  0  0  0  0  0  0  0  0  0
    2.3395    1.4109   -1.3314 C   0  0  0  0  0  0  0  0  0  0  0  0
    0.6491   -4.0505   -0.5201 H   0  0  0  0  0  0  0  0  0  0  0  0
   -0.0642   -0.0030   -1.7834 H   0  0  0  0  0  0  0  0  0  0  0  0
   -1.6672   -0.5338   -1.2361 H   0  0  0  0  0  0  0  0  0  0  0  0
   -0.4923   -0.6954    2.2950 H   0  0  0  0  0  0  0  0  0  0  0  0
   -1.7523   -1.2941    1.2035 H   0  0  0  0  0  0  0  0  0  0  0  0
   -1.8274    0.4136    1.9089 H   0  0  0  0  0  0  0  0  0  0  0  0
   -1.2969    2.0463    1.0052 H   0  0  0  0  0  0  0  0  0  0  0  0
   -1.5104    1.6913   -0.7720 H   0  0  0  0  0  0  0  0  0  0  0  0
    0.1117    2.2743   -0.1270 H   0  0  0  0  0  0  0  0  0  0  0  0
    1.3831   -0.8714    0.6529 H   0  0  0  0  0  0  0  0  0  0  0  0
    1.2253    0.6739    1.6395 H   0  0  0  0  0  0  0  0  0  0  0  0
    2.8563    1.8962   -2.1372 H   0  0  0  0  0  0  0  0  0  0  0  0
  1  2  3  0
  2  3  1  0
  3  4  1  0
  4  5  1  0
  4  6  1  0
  4  7  1  0
  7  8  1  0
  8  9  3  0
  1 10  1  0
  3 11  1  0
  3 12  1  0
  5 13  1  0
  5 14  1  0
  5 15  1  0
  6 16  1  0
  6 17  1  0
  6 18  1  0
  7 19  1  0
  7 20  1  0
  9 21  1  0
M  END
