
     RDKit          3D

 17 17  0  0  0  0  0  0  0  0999 V2000
    0.7083    2.5160   -1.3773 C   0  0  0  0  0  0  0  0  0  0  0  0
    0.4838    1.4968   -0.7760 C   0  0  0  0  0  0  0  0  0  0  0  0
    0.2001    0.2727   -0.0273 C   0  0  0  0  0  0  0  0  0  0  0  0
    0.8293    0.2813    1.3367 C   0  0  0  0  0  0  0  0  0  0  0  0
    0.5705   -0.9608   -0.7843 C   0  0  0  0  0  0  0  0  0  0  0  0
   -0.3819   -1.9216   -0.5907 O   0  0  0  0  0  0  0  0  0  0  0  0
   -1.4339   -1.4137    0.1106 C   0  0  0  0  0  0  0  0  0  0  0  0
   -1.2699    0.0757    0.1510 C   0  0  0  0  0  0  0  0  0  0  0  0
   -2.1298    0.9273    0.2949 O   0  0  0  0  0  0  0  0  0  0  0  0
    0.9231    3.4116   -1.9012 H   0  0  0  0  0  0  0  0  0  0  0  0
    1.5913    1.0866    1.3413 H   0  0  0  0  0  0  0  0  0  0  0  0
    0.0645    0.4401    2.1182 H   0  0  0  0  0  0  0  0  0  0  0  0
    1.3945   -0.6691    1.4737 H   0  0  0  0  0  0  0  0  0  0  0  0
    0.6525   -0.7464   -1.8699 H   0  0  0  0  0  0  0  0  0  0  0  0
    1.5530   -1.3680   -0.4063 H   0  0  0  0  0  0  0  0  0  0  0  0
   -2.4311   -1.6659   -0.2726 H   0  0  0  0  0  0  0  0  0  0  0  0
   -1.3243   -1.7625    1.1793 H   0  0  0  0  0  0  0  0  0  0  0  0
  1  2  3  0
  2  3  1  0
  3  4  1  0
  3  5  1  0
  5  6  1  0
  6  7  1  0
  7  8  1  0
  8  9  2  0
  8  3  1  0
  1 10  1  0
  4 11  1  0
  4 12  1  0
  4 13  1  0
  5 14  1  0
  5 15  1  0
  7 16  1  0
  7 17  1  0
M  END
