
     RDKit          3D

 17 18  0  0  0  0  0  0  0  0999 V2000
    3.7788    1.0329    0.5839 C   0  0  0  0  0  0  0  0  0  0  0  0
    2.6327    0.8499    0.2515 C   0  0  0  0  0  0  0  0  0  0  0  0
    1.2415    0.6522   -0.1597 C   0  0  0  0  0  0  0  0  0  0  0  0
    1.1680   -0.1682   -1.2602 O   0  0  0  0  0  0  0  0  0  0  0  0
    0.3282   -1.0896   -0.6737 C   0  0  0  0  0  0  0  0  0  0  0  0
   -0.8722   -0.6760    0.1026 C   0  0  0  0  0  0  0  0  0  0  0  0
   -1.5588    0.4323   -0.3963 O   0  0  0  0  0  0  0  0  0  0  0  0
   -2.9167    0.2972   -0.2088 C   0  0  0  0  0  0  0  0  0  0  0  0
    0.4813   -0.3784    0.6253 C   0  0  0  0  0  0  0  0  0  0  0  0
    4.7918    1.2102    0.8675 H   0  0  0  0  0  0  0  0  0  0  0  0
    0.6465    1.5792   -0.2500 H   0  0  0  0  0  0  0  0  0  0  0  0
    0.5696   -2.1681   -0.7670 H   0  0  0  0  0  0  0  0  0  0  0  0
   -1.4355   -1.4978    0.5671 H   0  0  0  0  0  0  0  0  0  0  0  0
   -3.0814    0.2059    0.9050 H   0  0  0  0  0  0  0  0  0  0  0  0
   -3.4343    1.1983   -0.5767 H   0  0  0  0  0  0  0  0  0  0  0  0
   -3.2414   -0.6315   -0.7354 H   0  0  0  0  0  0  0  0  0  0  0  0
    0.9019   -0.8483    1.5135 H   0  0  0  0  0  0  0  0  0  0  0  0
  1  2  3  0
  2  3  1  0
  3  4  1  0
  4  5  1  0
  5  6  1  0
  6  7  1  0
  7  8  1  0
  6  9  1  0
  9  3  1  0
  9  5  1  0
  1 10  1  0
  3 11  1  0
  5 12  1  0
  6 13  1  0
  8 14  1  0
  8 15  1  0
  8 16  1  0
  9 17  1  0
M  END
