
     RDKit          3D

 13 13  0  0  0  0  0  0  0  0999 V2000
    4.1567    0.2725    0.2910 C   0  0  0  0  0  0  0  0  0  0  0  0
    2.9783    0.2228    0.2489 C   0  0  0  0  0  0  0  0  0  0  0  0
    1.5510    0.1814    0.1825 C   0  0  0  0  0  0  0  0  0  0  0  0
    0.3925    0.1452    0.1345 C   0  0  0  0  0  0  0  0  0  0  0  0
   -1.0600    0.1160    0.0609 C   0  0  0  0  0  0  0  0  0  0  0  0
   -1.8296    0.4532    1.3207 C   0  0  0  0  0  0  0  0  0  0  0  0
   -3.0177    0.5666    1.1577 O   0  0  0  0  0  0  0  0  0  0  0  0
   -1.6926   -0.7983   -0.8924 C   0  0  0  0  0  0  0  0  0  0  0  0
   -1.6433    0.5732   -1.1696 O   0  0  0  0  0  0  0  0  0  0  0  0
    5.2585    0.3172    0.3216 H   0  0  0  0  0  0  0  0  0  0  0  0
   -1.3268    0.5636    2.2112 H   0  0  0  0  0  0  0  0  0  0  0  0
   -2.6879   -1.2215   -0.6220 H   0  0  0  0  0  0  0  0  0  0  0  0
   -1.0791   -1.3918   -1.5643 H   0  0  0  0  0  0  0  0  0  0  0  0
  1  2  3  0
  2  3  1  0
  3  4  3  0
  4  5  1  0
  5  6  1  0
  6  7  2  0
  5  8  1  0
  8  9  1  0
  9  5  1  0
  1 10  1  0
  6 11  1  0
  8 12  1  0
  8 13  1  0
M  END
