
     RDKit          3D

 19 20  0  0  0  0  0  0  0  0999 V2000
    2.4789   -2.1073    0.7847 C   0  0  0  0  0  0  0  0  0  0  0  0
    0.9130   -1.6690    0.2579 C   0  0  0  0  0  0  0  0  0  0  0  0
   -0.2212   -1.3292   -0.1231 C   0  0  0  0  0  0  0  0  0  0  0  0
   -0.4574    0.0644   -0.2830 C   0  0  0  0  0  0  0  0  0  0  0  0
   -1.8415    0.2619   -0.7799 C   0  0  0  0  0  0  0  0  0  0  0  0
   -0.0642    0.8282    1.0070 C   0  0  0  0  0  0  0  0  0  0  0  0
    0.4550    1.8761    0.0709 C   0  0  0  0  0  0  0  0  0  0  0  0
    0.2830    2.0559   -1.2975 O   0  0  0  0  0  0  0  0  0  0  0  0
    0.7060    0.8206   -0.8363 C   0  0  0  0  0  0  0  0  0  0  0  0
    3.5677   -2.4337    1.1538 H   0  0  0  0  0  0  0  0  0  0  0  0
   -0.6715   -2.0451   -0.8316 H   0  0  0  0  0  0  0  0  0  0  0  0
   -0.8791   -1.7118    0.9186 H   0  0  0  0  0  0  0  0  0  0  0  0
   -1.9589    0.4842   -1.8246 H   0  0  0  0  0  0  0  0  0  0  0  0
   -2.4967   -0.6870   -0.6303 H   0  0  0  0  0  0  0  0  0  0  0  0
   -2.4651    1.0256   -0.0969 H   0  0  0  0  0  0  0  0  0  0  0  0
   -0.8962    1.1332    1.6592 H   0  0  0  0  0  0  0  0  0  0  0  0
    0.7641    0.3788    1.5588 H   0  0  0  0  0  0  0  0  0  0  0  0
    1.1185    2.6327    0.5505 H   0  0  0  0  0  0  0  0  0  0  0  0
    1.6655    0.4214   -1.2583 H   0  0  0  0  0  0  0  0  0  0  0  0
  1  2  3  0
  2  3  1  0
  3  4  1  0
  4  5  1  0
  4  6  1  0
  6  7  1  0
  7  8  1  0
  8  9  1  0
  9  4  1  0
  9  7  1  0
  1 10  1  0
  3 11  1  0
  3 12  1  0
  5 13  1  0
  5 14  1  0
  5 15  1  0
  6 16  1  0
  6 17  1  0
  7 18  1  0
  9 19  1  0
M  END
