
     RDKit          3D

 21 21  0  0  0  0  0  0  0  0999 V2000
    1.3508    2.1607   -0.5325 C   0  0  0  0  0  0  0  0  0  0  0  0
    0.9509    1.2586   -0.0424 C   0  0  0  0  0  0  0  0  0  0  0  0
    0.4321    0.0434    0.6140 C   0  0  0  0  0  0  0  0  0  0  0  0
   -0.7116   -0.6247   -0.0672 C   0  0  0  0  0  0  0  0  0  0  0  0
   -1.9156    0.2944   -0.1500 C   0  0  0  0  0  0  0  0  0  0  0  0
   -0.2308   -0.9309   -1.4975 C   0  0  0  0  0  0  0  0  0  0  0  0
    0.0918    0.2384   -2.1447 O   0  0  0  0  0  0  0  0  0  0  0  0
    0.5944   -0.0571    2.0883 C   0  0  0  0  0  0  0  0  0  0  0  0
    1.4714   -0.8625    1.2331 C   0  0  0  0  0  0  0  0  0  0  0  0
    1.8007    3.1328   -1.0776 H   0  0  0  0  0  0  0  0  0  0  0  0
   -1.0301   -1.5456    0.4425 H   0  0  0  0  0  0  0  0  0  0  0  0
   -2.2336    0.4887   -1.1717 H   0  0  0  0  0  0  0  0  0  0  0  0
   -1.6605    1.2607    0.3282 H   0  0  0  0  0  0  0  0  0  0  0  0
   -2.7425   -0.1277    0.4543 H   0  0  0  0  0  0  0  0  0  0  0  0
   -0.9906   -1.5564   -1.9507 H   0  0  0  0  0  0  0  0  0  0  0  0
    0.7206   -1.5282   -1.4427 H   0  0  0  0  0  0  0  0  0  0  0  0
   -0.6072    0.6704   -2.6509 H   0  0  0  0  0  0  0  0  0  0  0  0
    0.9988    0.8279    2.6015 H   0  0  0  0  0  0  0  0  0  0  0  0
   -0.1568   -0.6012    2.6904 H   0  0  0  0  0  0  0  0  0  0  0  0
    2.5509   -0.5930    1.0580 H   0  0  0  0  0  0  0  0  0  0  0  0
    1.3166   -1.9486    1.2174 H   0  0  0  0  0  0  0  0  0  0  0  0
  1  2  3  0
  2  3  1  0
  3  4  1  0
  4  5  1  0
  4  6  1  0
  6  7  1  0
  3  8  1  0
  8  9  1  0
  9  3  1  0
  1 10  1  0
  4 11  1  0
  5 12  1  0
  5 13  1  0
  5 14  1  0
  6 15  1  0
  6 16  1  0
  7 17  1  0
  8 18  1  0
  8 19  1  0
  9 20  1  0
  9 21  1  0
M  END
