
     RDKit          3D

 17 16  0  0  0  0  0  0  0  0999 V2000
    4.2133   -0.1984   -1.1794 C   0  0  0  0  0  0  0  0  0  0  0  0
    3.2115   -0.4567   -0.5601 C   0  0  0  0  0  0  0  0  0  0  0  0
    2.0014   -0.7873    0.1728 C   0  0  0  0  0  0  0  0  0  0  0  0
    0.8868    0.1288   -0.2079 C   0  0  0  0  0  0  0  0  0  0  0  0
    1.0953    1.0290   -1.0629 O   0  0  0  0  0  0  0  0  0  0  0  0
   -0.3606    0.0230    0.3438 O   0  0  0  0  0  0  0  0  0  0  0  0
   -1.4414    0.8947   -0.0108 C   0  0  0  0  0  0  0  0  0  0  0  0
   -2.6900    0.5575    0.7414 C   0  0  0  0  0  0  0  0  0  0  0  0
   -3.0645   -0.7425    0.4531 O   0  0  0  0  0  0  0  0  0  0  0  0
    5.1131    0.0216   -1.7306 H   0  0  0  0  0  0  0  0  0  0  0  0
    1.7464   -1.8520   -0.0586 H   0  0  0  0  0  0  0  0  0  0  0  0
    2.2156   -0.7365    1.2574 H   0  0  0  0  0  0  0  0  0  0  0  0
   -1.6685    0.8078   -1.0960 H   0  0  0  0  0  0  0  0  0  0  0  0
   -1.1069    1.9287    0.2044 H   0  0  0  0  0  0  0  0  0  0  0  0
   -3.4925    1.2257    0.3662 H   0  0  0  0  0  0  0  0  0  0  0  0
   -2.6133    0.7344    1.8302 H   0  0  0  0  0  0  0  0  0  0  0  0
   -4.0457   -0.8862    0.5371 H   0  0  0  0  0  0  0  0  0  0  0  0
  1  2  3  0
  2  3  1  0
  3  4  1  0
  4  5  2  0
  4  6  1  0
  6  7  1  0
  7  8  1  0
  8  9  1  0
  1 10  1  0
  3 11  1  0
  3 12  1  0
  7 13  1  0
  7 14  1  0
  8 15  1  0
  8 16  1  0
  9 17  1  0
M  END
