
     RDKit          3D

 19 19  0  0  0  0  0  0  0  0999 V2000
    1.7396   -4.0703   -0.0515 C   0  0  0  0  0  0  0  0  0  0  0  0
    0.9409   -2.9891   -0.1468 C   0  0  0  0  0  0  0  0  0  0  0  0
    0.3178   -2.1358   -0.2391 C   0  0  0  0  0  0  0  0  0  0  0  0
    0.5396   -0.9713    0.7185 O   0  0  0  0  0  0  0  0  0  0  0  0
   -0.2598    0.0291    0.0546 C   0  0  0  0  0  0  0  0  0  0  0  0
   -0.6911    1.1802    0.7894 C   0  0  0  0  0  0  0  0  0  0  0  0
   -1.6623    2.2718    0.3172 C   0  0  0  0  0  0  0  0  0  0  0  0
    0.5555    1.2852   -0.1474 C   0  0  0  0  0  0  0  0  0  0  0  0
    0.3874    1.8486   -1.4155 O   0  0  0  0  0  0  0  0  0  0  0  0
    2.4620   -5.0838    0.0311 H   0  0  0  0  0  0  0  0  0  0  0  0
   -0.8826   -2.0332   -0.2506 H   0  0  0  0  0  0  0  0  0  0  0  0
    0.4159   -1.4452   -1.2788 H   0  0  0  0  0  0  0  0  0  0  0  0
   -0.7863   -0.3652   -0.8236 H   0  0  0  0  0  0  0  0  0  0  0  0
   -0.4376    1.2783    1.8562 H   0  0  0  0  0  0  0  0  0  0  0  0
   -2.5743    2.2691    0.8836 H   0  0  0  0  0  0  0  0  0  0  0  0
   -1.7615    2.3292   -0.7569 H   0  0  0  0  0  0  0  0  0  0  0  0
   -1.0611    3.2150    0.6373 H   0  0  0  0  0  0  0  0  0  0  0  0
    1.4611    1.5429    0.3858 H   0  0  0  0  0  0  0  0  0  0  0  0
    1.2967    1.8444   -1.8504 H   0  0  0  0  0  0  0  0  0  0  0  0
  1  2  3  0
  2  3  1  0
  3  4  1  0
  4  5  1  0
  5  6  1  0
  6  7  1  0
  6  8  1  0
  8  9  1  0
  8  5  1  0
  1 10  1  0
  3 11  1  0
  3 12  1  0
  5 13  1  0
  6 14  1  0
  7 15  1  0
  7 16  1  0
  7 17  1  0
  8 18  1  0
  9 19  1  0
M  END
