
     RDKit          3D

 17 16  0  0  0  0  0  0  0  0999 V2000
   -0.0257    3.1294   -1.7913 C   0  0  0  0  0  0  0  0  0  0  0  0
   -0.1496    1.1757   -1.7620 C   0  0  0  0  0  0  0  0  0  0  0  0
   -0.2310   -0.0254   -1.7296 C   0  0  0  0  0  0  0  0  0  0  0  0
    1.1659   -0.1999   -0.8111 C   0  0  0  0  0  0  0  0  0  0  0  0
    2.3294   -0.3388   -0.0420 C   0  0  0  0  0  0  0  0  0  0  0  0
    3.2125   -0.4567    0.5592 C   0  0  0  0  0  0  0  0  0  0  0  0
   -1.1669   -0.3848   -0.9412 C   0  0  0  0  0  0  0  0  0  0  0  0
   -2.3453   -0.8203    0.0757 C   0  0  0  0  0  0  0  0  0  0  0  0
   -3.1898   -1.1444    0.8194 C   0  0  0  0  0  0  0  0  0  0  0  0
    0.0568    4.3218   -1.7898 H   0  0  0  0  0  0  0  0  0  0  0  0
    0.0308   -0.5789   -2.6196 H   0  0  0  0  0  0  0  0  0  0  0  0
    4.0580    0.3973    0.7064 H   0  0  0  0  0  0  0  0  0  0  0  0
    2.7601   -0.2564    1.8026 H   0  0  0  0  0  0  0  0  0  0  0  0
    3.7893   -1.3434    0.9826 H   0  0  0  0  0  0  0  0  0  0  0  0
   -2.9920   -2.1032    1.4964 H   0  0  0  0  0  0  0  0  0  0  0  0
   -3.0000   -0.4437    1.9153 H   0  0  0  0  0  0  0  0  0  0  0  0
   -4.3025   -0.9283    0.9013 H   0  0  0  0  0  0  0  0  0  0  0  0
  1  2  3  0
  2  3  1  0
  3  4  1  0
  4  5  3  0
  5  6  1  0
  3  7  1  0
  7  8  3  0
  8  9  1  0
  1 10  1  0
  3 11  1  0
  6 12  1  0
  6 13  1  0
  6 14  1  0
  9 15  1  0
  9 16  1  0
  9 17  1  0
M  END
