
     RDKit          3D

 17 16  0  0  0  0  0  0  0  0999 V2000
   -0.7091    2.6980    1.2427 C   0  0  0  0  0  0  0  0  0  0  0  0
   -0.3016    1.7759    0.5754 C   0  0  0  0  0  0  0  0  0  0  0  0
    0.1764    0.6334   -0.2345 C   0  0  0  0  0  0  0  0  0  0  0  0
    1.6290    0.6231   -0.1083 C   0  0  0  0  0  0  0  0  0  0  0  0
    2.8396    0.6353   -0.0067 C   0  0  0  0  0  0  0  0  0  0  0  0
   -0.3690   -0.6151    0.3749 C   0  0  0  0  0  0  0  0  0  0  0  0
    0.1232   -1.7927   -0.4594 C   0  0  0  0  0  0  0  0  0  0  0  0
   -1.8480   -0.6569    0.4057 C   0  0  0  0  0  0  0  0  0  0  0  0
   -2.4656    0.3805    0.2631 O   0  0  0  0  0  0  0  0  0  0  0  0
   -1.0740    3.5152    1.8133 H   0  0  0  0  0  0  0  0  0  0  0  0
   -0.1732    0.7205   -1.2662 H   0  0  0  0  0  0  0  0  0  0  0  0
    3.8936    0.6390    0.0647 H   0  0  0  0  0  0  0  0  0  0  0  0
    0.0051   -0.7275    1.4167 H   0  0  0  0  0  0  0  0  0  0  0  0
    0.0223   -1.5510   -1.5397 H   0  0  0  0  0  0  0  0  0  0  0  0
    1.1678   -2.0124   -0.2297 H   0  0  0  0  0  0  0  0  0  0  0  0
   -0.5537   -2.6695   -0.2720 H   0  0  0  0  0  0  0  0  0  0  0  0
   -2.3629   -1.5955    0.5526 H   0  0  0  0  0  0  0  0  0  0  0  0
  1  2  3  0
  2  3  1  0
  3  4  1  0
  4  5  3  0
  3  6  1  0
  6  7  1  0
  6  8  1  0
  8  9  2  0
  1 10  1  0
  3 11  1  0
  5 12  1  0
  6 13  1  0
  7 14  1  0
  7 15  1  0
  7 16  1  0
  8 17  1  0
M  END
