
     RDKit          3D

 15 14  0  0  0  0  0  0  0  0999 V2000
    2.9062    1.4205    1.5397 C   0  0  0  0  0  0  0  0  0  0  0  0
    1.7550    0.7543    1.2479 C   0  0  0  0  0  0  0  0  0  0  0  0
    0.5960    0.0626    0.9354 C   0  0  0  0  0  0  0  0  0  0  0  0
    0.5576   -0.2413   -0.5915 C   0  0  0  0  0  0  0  0  0  0  0  0
    1.4028    0.2163   -1.2667 O   0  0  0  0  0  0  0  0  0  0  0  0
   -0.5570   -1.0910   -1.0344 C   0  0  0  0  0  0  0  0  0  0  0  0
   -0.9166   -1.9294    0.0859 O   0  0  0  0  0  0  0  0  0  0  0  0
   -1.7645   -0.2879   -1.2465 C   0  0  0  0  0  0  0  0  0  0  0  0
   -2.8115    0.4079   -1.4193 C   0  0  0  0  0  0  0  0  0  0  0  0
    3.7636    1.9000    1.7657 H   0  0  0  0  0  0  0  0  0  0  0  0
    0.6673   -0.9554    1.4353 H   0  0  0  0  0  0  0  0  0  0  0  0
   -0.3108    0.5913    1.2014 H   0  0  0  0  0  0  0  0  0  0  0  0
   -0.3179   -1.6616   -1.8969 H   0  0  0  0  0  0  0  0  0  0  0  0
   -1.2308   -1.2971    0.7974 H   0  0  0  0  0  0  0  0  0  0  0  0
   -3.7394    1.0274   -1.5532 H   0  0  0  0  0  0  0  0  0  0  0  0
  1  2  3  0
  2  3  1  0
  3  4  1  0
  4  5  2  0
  4  6  1  0
  6  7  1  0
  6  8  1  0
  8  9  3  0
  1 10  1  0
  3 11  1  0
  3 12  1  0
  6 13  1  0
  7 14  1  0
  9 15  1  0
M  END
