
     RDKit          3D

 23 22  0  0  0  0  0  0  0  0999 V2000
   -2.7528   -0.7263   -1.8973 C   0  0  0  0  0  0  0  0  0  0  0  0
   -2.0611   -0.2801   -1.0145 C   0  0  0  0  0  0  0  0  0  0  0  0
   -1.2158    0.2864    0.0605 C   0  0  0  0  0  0  0  0  0  0  0  0
   -1.6989   -0.2990    1.3813 C   0  0  0  0  0  0  0  0  0  0  0  0
    0.1998   -0.1565   -0.2166 C   0  0  0  0  0  0  0  0  0  0  0  0
    0.6248    0.3550   -1.5494 C   0  0  0  0  0  0  0  0  0  0  0  0
    1.1444    0.2017    0.8982 C   0  0  0  0  0  0  0  0  0  0  0  0
    2.5247   -0.3004    0.4881 C   0  0  0  0  0  0  0  0  0  0  0  0
    1.2324    1.5744    1.1004 O   0  0  0  0  0  0  0  0  0  0  0  0
   -3.3700   -1.1025   -2.6738 H   0  0  0  0  0  0  0  0  0  0  0  0
   -1.2755    1.3966    0.0599 H   0  0  0  0  0  0  0  0  0  0  0  0
   -1.2799   -1.3210    1.4796 H   0  0  0  0  0  0  0  0  0  0  0  0
   -1.3140    0.2810    2.2460 H   0  0  0  0  0  0  0  0  0  0  0  0
   -2.8051   -0.3973    1.3896 H   0  0  0  0  0  0  0  0  0  0  0  0
    0.1886   -1.2747   -0.2745 H   0  0  0  0  0  0  0  0  0  0  0  0
    0.9449    1.4205   -1.5209 H   0  0  0  0  0  0  0  0  0  0  0  0
    1.4109   -0.3033   -2.0080 H   0  0  0  0  0  0  0  0  0  0  0  0
   -0.2633    0.2548   -2.2390 H   0  0  0  0  0  0  0  0  0  0  0  0
    0.8638   -0.3399    1.8245 H   0  0  0  0  0  0  0  0  0  0  0  0
    2.5699   -1.4033    0.4782 H   0  0  0  0  0  0  0  0  0  0  0  0
    3.2413    0.1207    1.2058 H   0  0  0  0  0  0  0  0  0  0  0  0
    2.7629    0.0915   -0.5251 H   0  0  0  0  0  0  0  0  0  0  0  0
    0.3282    1.9218    1.3073 H   0  0  0  0  0  0  0  0  0  0  0  0
  1  2  3  0
  2  3  1  0
  3  4  1  0
  3  5  1  0
  5  6  1  0
  5  7  1  0
  7  8  1  0
  7  9  1  0
  1 10  1  0
  3 11  1  0
  4 12  1  0
  4 13  1  0
  4 14  1  0
  5 15  1  0
  6 16  1  0
  6 17  1  0
  6 18  1  0
  7 19  1  0
  8 20  1  0
  8 21  1  0
  8 22  1  0
  9 23  1  0
M  END
