
     RDKit          3D

 17 20  0  0  0  0  0  0  0  0999 V2000
    2.3316    1.5053    1.2335 C   0  0  0  0  0  0  0  0  0  0  0  0
    1.4880    1.1462    0.5082 C   0  0  0  0  0  0  0  0  0  0  0  0
    0.4491    0.7268   -0.3615 C   0  0  0  0  0  0  0  0  0  0  0  0
    0.9313   -0.2972   -1.5576 C   0  0  0  0  0  0  0  0  0  0  0  0
   -0.1374   -1.3815   -1.0474 C   0  0  0  0  0  0  0  0  0  0  0  0
    0.4162   -0.8828   -0.1227 C   0  0  0  0  0  0  0  0  0  0  0  0
   -0.0843    0.2401   -1.2650 C   0  0  0  0  0  0  0  0  0  0  0  0
   -0.5915   -0.3562    0.1609 C   0  0  0  0  0  0  0  0  0  0  0  0
   -2.0155   -0.0090    0.1770 C   0  0  0  0  0  0  0  0  0  0  0  0
    3.1200    1.8319    1.8872 H   0  0  0  0  0  0  0  0  0  0  0  0
    1.9811   -0.6128   -1.4159 H   0  0  0  0  0  0  0  0  0  0  0  0
   -0.9703   -1.5504   -1.7544 H   0  0  0  0  0  0  0  0  0  0  0  0
    1.4464   -0.8554    0.2166 H   0  0  0  0  0  0  0  0  0  0  0  0
   -1.1057    0.1734   -1.6449 H   0  0  0  0  0  0  0  0  0  0  0  0
   -2.1768    1.0422   -0.1363 H   0  0  0  0  0  0  0  0  0  0  0  0
   -2.4831   -0.0751    1.2034 H   0  0  0  0  0  0  0  0  0  0  0  0
   -2.5989   -0.6456   -0.5283 H   0  0  0  0  0  0  0  0  0  0  0  0
  1  2  3  0
  2  3  1  0
  3  4  1  0
  4  5  1  0
  5  6  1  0
  6  7  1  0
  6  8  1  0
  8  9  1  0
  7  3  1  0
  8  3  1  0
  7  4  1  0
  8  5  1  0
  1 10  1  0
  4 11  1  0
  5 12  1  0
  6 13  1  0
  7 14  1  0
  9 15  1  0
  9 16  1  0
  9 17  1  0
M  END
