
     RDKit          3D

 15 16  0  0  0  0  0  0  0  0999 V2000
   -2.6913    0.8787    0.9636 C   0  0  0  0  0  0  0  0  0  0  0  0
   -1.9332    0.1847    0.1981 C   0  0  0  0  0  0  0  0  0  0  0  0
   -1.1783   -0.4856   -0.5574 C   0  0  0  0  0  0  0  0  0  0  0  0
    0.0386    0.5976   -0.9349 C   0  0  0  0  0  0  0  0  0  0  0  0
    0.7923   -0.3919    0.0199 C   0  0  0  0  0  0  0  0  0  0  0  0
    2.2074   -0.0260    0.2402 C   0  0  0  0  0  0  0  0  0  0  0  0
    3.4602    0.2898    0.4156 C   0  0  0  0  0  0  0  0  0  0  0  0
    0.1893   -0.6667    1.3386 O   0  0  0  0  0  0  0  0  0  0  0  0
   -0.1292   -1.3324    0.0176 C   0  0  0  0  0  0  0  0  0  0  0  0
   -3.5375    1.6579    1.7878 H   0  0  0  0  0  0  0  0  0  0  0  0
   -1.5079   -0.8834   -1.5691 H   0  0  0  0  0  0  0  0  0  0  0  0
    0.3411    0.4849   -1.9187 H   0  0  0  0  0  0  0  0  0  0  0  0
   -0.2234    1.5754   -0.5546 H   0  0  0  0  0  0  0  0  0  0  0  0
    4.3597    0.5190    0.5554 H   0  0  0  0  0  0  0  0  0  0  0  0
   -0.1877   -2.4020   -0.0021 H   0  0  0  0  0  0  0  0  0  0  0  0
  1  2  3  0
  2  3  1  0
  3  4  1  0
  4  5  1  0
  5  6  1  0
  6  7  3  0
  5  8  1  0
  8  9  1  0
  9  3  1  0
  9  5  1  0
  1 10  1  0
  3 11  1  0
  4 12  1  0
  4 13  1  0
  7 14  1  0
  9 15  1  0
M  END
