
     RDKit          3D

 19 20  0  0  0  0  0  0  0  0999 V2000
    3.1666    0.9337   -0.8230 C   0  0  0  0  0  0  0  0  0  0  0  0
    2.0612    0.4514   -0.9406 C   0  0  0  0  0  0  0  0  0  0  0  0
    0.7261   -0.1589   -1.0872 C   0  0  0  0  0  0  0  0  0  0  0  0
   -0.3153    0.8315   -0.6212 C   0  0  0  0  0  0  0  0  0  0  0  0
   -0.7716    0.3159    0.7068 C   0  0  0  0  0  0  0  0  0  0  0  0
   -2.2583    0.1366    0.6987 C   0  0  0  0  0  0  0  0  0  0  0  0
   -0.1454   -1.0514    0.8997 C   0  0  0  0  0  0  0  0  0  0  0  0
    1.2783   -1.0569    1.1113 O   0  0  0  0  0  0  0  0  0  0  0  0
    0.6605   -1.3399   -0.1617 C   0  0  0  0  0  0  0  0  0  0  0  0
    4.1308    1.3652   -0.7356 H   0  0  0  0  0  0  0  0  0  0  0  0
    0.5901   -0.4504   -2.1452 H   0  0  0  0  0  0  0  0  0  0  0  0
   -1.1559    0.9374   -1.3565 H   0  0  0  0  0  0  0  0  0  0  0  0
    0.1662    1.8346   -0.4554 H   0  0  0  0  0  0  0  0  0  0  0  0
   -0.4478    0.9536    1.5543 H   0  0  0  0  0  0  0  0  0  0  0  0
   -2.7596    0.9629    0.1583 H   0  0  0  0  0  0  0  0  0  0  0  0
   -2.5740   -0.8326    0.2888 H   0  0  0  0  0  0  0  0  0  0  0  0
   -2.6022    0.1826    1.7712 H   0  0  0  0  0  0  0  0  0  0  0  0
   -0.6442   -1.6583    1.6619 H   0  0  0  0  0  0  0  0  0  0  0  0
    0.8945   -2.3571   -0.5244 H   0  0  0  0  0  0  0  0  0  0  0  0
  1  2  3  0
  2  3  1  0
  3  4  1  0
  4  5  1  0
  5  6  1  0
  5  7  1  0
  7  8  1  0
  8  9  1  0
  9  3  1  0
  9  7  1  0
  1 10  1  0
  3 11  1  0
  4 12  1  0
  4 13  1  0
  5 14  1  0
  6 15  1  0
  6 16  1  0
  6 17  1  0
  7 18  1  0
  9 19  1  0
M  END
