
     RDKit          3D

 23 23  0  0  0  0  0  0  0  0999 V2000
    2.3046    1.9709    1.1015 C   0  0  0  0  0  0  0  0  0  0  0  0
    2.0589    0.9188    0.5661 C   0  0  0  0  0  0  0  0  0  0  0  0
    1.7837   -0.3494   -0.0671 C   0  0  0  0  0  0  0  0  0  0  0  0
    0.4510   -0.2889   -0.7345 C   0  0  0  0  0  0  0  0  0  0  0  0
    0.2050   -1.6383   -1.3840 C   0  0  0  0  0  0  0  0  0  0  0  0
   -0.6700    0.1052    0.1796 C   0  0  0  0  0  0  0  0  0  0  0  0
   -0.9727   -0.7567    1.3900 C   0  0  0  0  0  0  0  0  0  0  0  0
   -1.9208    0.5670   -0.5528 C   0  0  0  0  0  0  0  0  0  0  0  0
   -1.0933    1.5550    0.1889 C   0  0  0  0  0  0  0  0  0  0  0  0
    2.5125    2.9067    1.5935 H   0  0  0  0  0  0  0  0  0  0  0  0
    2.5344   -0.6389   -0.8240 H   0  0  0  0  0  0  0  0  0  0  0  0
    1.7515   -1.1971    0.6641 H   0  0  0  0  0  0  0  0  0  0  0  0
    0.4786    0.4568   -1.5606 H   0  0  0  0  0  0  0  0  0  0  0  0
   -0.6181   -1.6083   -2.1111 H   0  0  0  0  0  0  0  0  0  0  0  0
    1.1754   -1.9150   -1.8772 H   0  0  0  0  0  0  0  0  0  0  0  0
    0.0500   -2.3660   -0.5621 H   0  0  0  0  0  0  0  0  0  0  0  0
   -1.8505   -0.2805    1.9037 H   0  0  0  0  0  0  0  0  0  0  0  0
   -0.1519   -0.7472    2.1290 H   0  0  0  0  0  0  0  0  0  0  0  0
   -1.2001   -1.8101    1.0971 H   0  0  0  0  0  0  0  0  0  0  0  0
   -2.9141    0.3328   -0.1177 H   0  0  0  0  0  0  0  0  0  0  0  0
   -1.9337    0.5352   -1.6631 H   0  0  0  0  0  0  0  0  0  0  0  0
   -0.4983    2.2389   -0.4674 H   0  0  0  0  0  0  0  0  0  0  0  0
   -1.4820    2.0090    1.1082 H   0  0  0  0  0  0  0  0  0  0  0  0
  1  2  3  0
  2  3  1  0
  3  4  1  0
  4  5  1  0
  4  6  1  0
  6  7  1  0
  6  8  1  0
  8  9  1  0
  9  6  1  0
  1 10  1  0
  3 11  1  0
  3 12  1  0
  4 13  1  0
  5 14  1  0
  5 15  1  0
  5 16  1  0
  7 17  1  0
  7 18  1  0
  7 19  1  0
  8 20  1  0
  8 21  1  0
  9 22  1  0
  9 23  1  0
M  END
