
     RDKit          3D

 21 22  0  0  0  0  0  0  0  0999 V2000
    2.2034   -2.0637   -1.0422 C   0  0  0  0  0  0  0  0  0  0  0  0
    1.4546   -1.4976   -0.3212 C   0  0  0  0  0  0  0  0  0  0  0  0
    0.5598   -0.7934    0.5679 C   0  0  0  0  0  0  0  0  0  0  0  0
    1.2227    0.4773    1.1457 C   0  0  0  0  0  0  0  0  0  0  0  0
    0.5508    1.5152    0.3408 C   0  0  0  0  0  0  0  0  0  0  0  0
   -0.5913    2.3122    0.5015 C   0  0  0  0  0  0  0  0  0  0  0  0
   -0.9003    0.9508    0.6354 C   0  0  0  0  0  0  0  0  0  0  0  0
   -0.6788   -0.2577   -0.1807 C   0  0  0  0  0  0  0  0  0  0  0  0
   -1.7830   -1.2392   -0.2243 C   0  0  0  0  0  0  0  0  0  0  0  0
    2.8603   -2.5774   -1.6981 H   0  0  0  0  0  0  0  0  0  0  0  0
    0.2469   -1.3922    1.4549 H   0  0  0  0  0  0  0  0  0  0  0  0
    1.0252    0.5840    2.2128 H   0  0  0  0  0  0  0  0  0  0  0  0
    2.3149    0.4527    0.9905 H   0  0  0  0  0  0  0  0  0  0  0  0
    0.9031    1.4048   -0.7337 H   0  0  0  0  0  0  0  0  0  0  0  0
   -0.6417    2.9987    1.3866 H   0  0  0  0  0  0  0  0  0  0  0  0
   -1.0245    2.8662   -0.3821 H   0  0  0  0  0  0  0  0  0  0  0  0
   -1.0718    0.6130    1.7077 H   0  0  0  0  0  0  0  0  0  0  0  0
   -0.3009    0.0286   -1.2004 H   0  0  0  0  0  0  0  0  0  0  0  0
   -2.1086   -1.3460   -1.2994 H   0  0  0  0  0  0  0  0  0  0  0  0
   -1.5524   -2.2416    0.1286 H   0  0  0  0  0  0  0  0  0  0  0  0
   -2.6884   -0.7945    0.2812 H   0  0  0  0  0  0  0  0  0  0  0  0
  1  2  3  0
  2  3  1  0
  3  4  1  0
  4  5  1  0
  5  6  1  0
  6  7  1  0
  7  8  1  0
  8  9  1  0
  8  3  1  0
  7  5  1  0
  1 10  1  0
  3 11  1  0
  4 12  1  0
  4 13  1  0
  5 14  1  0
  6 15  1  0
  6 16  1  0
  7 17  1  0
  8 18  1  0
  9 19  1  0
  9 20  1  0
  9 21  1  0
M  END
