
     RDKit          3D

 21 21  0  0  0  0  0  0  0  0999 V2000
   -1.3975    1.5928   -2.6976 C   0  0  0  0  0  0  0  0  0  0  0  0
   -1.1429    0.6070   -1.9118 C   0  0  0  0  0  0  0  0  0  0  0  0
   -0.8437   -0.5974   -0.9274 C   0  0  0  0  0  0  0  0  0  0  0  0
    0.5978   -0.8548   -1.2434 C   0  0  0  0  0  0  0  0  0  0  0  0
    1.5357    0.1104   -0.4730 C   0  0  0  0  0  0  0  0  0  0  0  0
    1.3884   -0.0968    0.9730 C   0  0  0  0  0  0  0  0  0  0  0  0
    0.0972   -0.1263    1.3724 C   0  0  0  0  0  0  0  0  0  0  0  0
   -0.2914   -0.3375    2.7728 C   0  0  0  0  0  0  0  0  0  0  0  0
   -0.9180    0.1941    0.3764 C   0  0  0  0  0  0  0  0  0  0  0  0
   -1.6013    2.3917   -3.3469 H   0  0  0  0  0  0  0  0  0  0  0  0
   -1.5533   -1.2788   -1.0705 H   0  0  0  0  0  0  0  0  0  0  0  0
    0.7397   -0.6099   -2.3103 H   0  0  0  0  0  0  0  0  0  0  0  0
    1.0063   -1.8136   -1.0255 H   0  0  0  0  0  0  0  0  0  0  0  0
    2.5971   -0.2600   -0.7007 H   0  0  0  0  0  0  0  0  0  0  0  0
    1.4454    1.1243   -0.7862 H   0  0  0  0  0  0  0  0  0  0  0  0
    2.2130   -0.1881    1.6328 H   0  0  0  0  0  0  0  0  0  0  0  0
   -0.8108    0.5126    3.2351 H   0  0  0  0  0  0  0  0  0  0  0  0
    0.5411   -0.7581    3.3697 H   0  0  0  0  0  0  0  0  0  0  0  0
   -1.0664   -1.1866    2.7777 H   0  0  0  0  0  0  0  0  0  0  0  0
   -0.6390    1.3140    0.1225 H   0  0  0  0  0  0  0  0  0  0  0  0
   -1.8973    0.2608    0.8097 H   0  0  0  0  0  0  0  0  0  0  0  0
  1  2  3  0
  2  3  1  0
  3  4  1  0
  4  5  1  0
  5  6  1  0
  6  7  2  0
  7  8  1  0
  7  9  1  0
  9  3  1  0
  1 10  1  0
  3 11  1  0
  4 12  1  0
  4 13  1  0
  5 14  1  0
  5 15  1  0
  6 16  1  0
  8 17  1  0
  8 18  1  0
  8 19  1  0
  9 20  1  0
  9 21  1  0
M  END
