
     RDKit          3D

 19 20  0  0  0  0  0  0  0  0999 V2000
    3.1302   -1.7112   -0.7948 C   0  0  0  0  0  0  0  0  0  0  0  0
    2.2187   -0.9211   -0.9116 C   0  0  0  0  0  0  0  0  0  0  0  0
    1.1193    0.0394   -1.0280 C   0  0  0  0  0  0  0  0  0  0  0  0
    1.1192    1.2284   -0.1130 C   0  0  0  0  0  0  0  0  0  0  0  0
    0.2333    0.1400    0.1521 C   0  0  0  0  0  0  0  0  0  0  0  0
    0.2922   -0.7662    1.1681 O   0  0  0  0  0  0  0  0  0  0  0  0
   -1.0117   -1.1810    0.8097 C   0  0  0  0  0  0  0  0  0  0  0  0
   -1.2184    0.0555   -0.0276 C   0  0  0  0  0  0  0  0  0  0  0  0
   -2.0791    1.1178    0.6005 C   0  0  0  0  0  0  0  0  0  0  0  0
    3.9343   -2.3970   -0.7086 H   0  0  0  0  0  0  0  0  0  0  0  0
    0.6084    0.1012   -2.0189 H   0  0  0  0  0  0  0  0  0  0  0  0
    0.7081    2.1528   -0.6023 H   0  0  0  0  0  0  0  0  0  0  0  0
    2.0324    1.3833    0.4940 H   0  0  0  0  0  0  0  0  0  0  0  0
   -1.0102   -2.1112    0.2273 H   0  0  0  0  0  0  0  0  0  0  0  0
   -1.6374   -1.1492    1.7122 H   0  0  0  0  0  0  0  0  0  0  0  0
   -1.4889   -0.1419   -1.0854 H   0  0  0  0  0  0  0  0  0  0  0  0
   -2.2183    1.9127   -0.1835 H   0  0  0  0  0  0  0  0  0  0  0  0
   -1.6488    1.5703    1.4912 H   0  0  0  0  0  0  0  0  0  0  0  0
   -3.0835    0.6773    0.8185 H   0  0  0  0  0  0  0  0  0  0  0  0
  1  2  3  0
  2  3  1  0
  3  4  1  0
  4  5  1  0
  5  6  1  0
  6  7  1  0
  7  8  1  0
  8  9  1  0
  5  3  1  0
  8  5  1  0
  1 10  1  0
  3 11  1  0
  4 12  1  0
  4 13  1  0
  7 14  1  0
  7 15  1  0
  8 16  1  0
  9 17  1  0
  9 18  1  0
  9 19  1  0
M  END
