
     RDKit          3D

 19 19  0  0  0  0  0  0  0  0999 V2000
    3.1347    2.2920   -1.4674 C   0  0  0  0  0  0  0  0  0  0  0  0
    1.6313    1.8431   -1.3136 C   0  0  0  0  0  0  0  0  0  0  0  0
    0.5163    1.5296   -1.1953 C   0  0  0  0  0  0  0  0  0  0  0  0
   -0.1065    0.4279   -0.9177 O   0  0  0  0  0  0  0  0  0  0  0  0
    0.3122   -0.0412    0.3510 C   0  0  0  0  0  0  0  0  0  0  0  0
   -0.4424   -1.3850    0.7007 C   0  0  0  0  0  0  0  0  0  0  0  0
    0.1478   -2.4669    0.1818 O   0  0  0  0  0  0  0  0  0  0  0  0
   -1.8526   -1.2036   -0.0666 C   0  0  0  0  0  0  0  0  0  0  0  0
   -1.7418   -1.1083    1.3784 C   0  0  0  0  0  0  0  0  0  0  0  0
    4.3562    2.6598   -1.5921 H   0  0  0  0  0  0  0  0  0  0  0  0
    0.1464    2.3265   -0.1928 H   0  0  0  0  0  0  0  0  0  0  0  0
   -0.1816    2.2989   -1.9066 H   0  0  0  0  0  0  0  0  0  0  0  0
    1.3879   -0.2838    0.3542 H   0  0  0  0  0  0  0  0  0  0  0  0
    0.0542    0.6389    1.1513 H   0  0  0  0  0  0  0  0  0  0  0  0
    0.7775   -2.9134    0.8640 H   0  0  0  0  0  0  0  0  0  0  0  0
   -1.8813   -0.4472   -0.8348 H   0  0  0  0  0  0  0  0  0  0  0  0
   -2.2248   -2.2031   -0.5178 H   0  0  0  0  0  0  0  0  0  0  0  0
   -2.1767   -1.8972    2.0424 H   0  0  0  0  0  0  0  0  0  0  0  0
   -1.8569   -0.0671    1.8127 H   0  0  0  0  0  0  0  0  0  0  0  0
  1  2  3  0
  2  3  1  0
  3  4  1  0
  4  5  1  0
  5  6  1  0
  6  7  1  0
  6  8  1  0
  8  9  1  0
  9  6  1  0
  1 10  1  0
  3 11  1  0
  3 12  1  0
  5 13  1  0
  5 14  1  0
  7 15  1  0
  8 16  1  0
  8 17  1  0
  9 18  1  0
  9 19  1  0
M  END
