
     RDKit          3D

 19 19  0  0  0  0  0  0  0  0999 V2000
    2.8634    1.6942    0.5587 C   0  0  0  0  0  0  0  0  0  0  0  0
    1.7519    1.1327    0.6644 C   0  0  0  0  0  0  0  0  0  0  0  0
    0.5623    0.5373    0.7547 C   0  0  0  0  0  0  0  0  0  0  0  0
    0.0794    0.8915    2.1763 O   0  0  0  0  0  0  0  0  0  0  0  0
    0.6679   -0.9855    0.9438 C   0  0  0  0  0  0  0  0  0  0  0  0
    0.1695   -1.4105   -0.2671 O   0  0  0  0  0  0  0  0  0  0  0  0
   -1.0590   -0.6927   -0.3390 C   0  0  0  0  0  0  0  0  0  0  0  0
   -1.5943   -0.8148   -1.7260 C   0  0  0  0  0  0  0  0  0  0  0  0
   -0.6161    0.7479   -0.0484 C   0  0  0  0  0  0  0  0  0  0  0  0
    3.8448    2.2058    0.4703 H   0  0  0  0  0  0  0  0  0  0  0  0
    0.4998    0.2060    2.7508 H   0  0  0  0  0  0  0  0  0  0  0  0
    0.0533   -1.2821    1.8323 H   0  0  0  0  0  0  0  0  0  0  0  0
    1.7434   -1.1972    1.1429 H   0  0  0  0  0  0  0  0  0  0  0  0
   -1.7092   -1.0370    0.4541 H   0  0  0  0  0  0  0  0  0  0  0  0
   -2.7015   -1.0326   -1.6011 H   0  0  0  0  0  0  0  0  0  0  0  0
   -1.4732    0.1036   -2.3528 H   0  0  0  0  0  0  0  0  0  0  0  0
   -1.1677   -1.6691   -2.2974 H   0  0  0  0  0  0  0  0  0  0  0  0
   -0.4873    1.3211   -0.9829 H   0  0  0  0  0  0  0  0  0  0  0  0
   -1.4274    1.2814    0.5427 H   0  0  0  0  0  0  0  0  0  0  0  0
  1  2  3  0
  2  3  1  0
  3  4  1  0
  3  5  1  0
  5  6  1  0
  6  7  1  0
  7  8  1  0
  7  9  1  0
  9  3  1  0
  1 10  1  0
  4 11  1  0
  5 12  1  0
  5 13  1  0
  7 14  1  0
  8 15  1  0
  8 16  1  0
  8 17  1  0
  9 18  1  0
  9 19  1  0
M  END
