
     RDKit          3D

 17 17  0  0  0  0  0  0  0  0999 V2000
   -2.3295    1.9641    1.0045 C   0  0  0  0  0  0  0  0  0  0  0  0
   -1.7627    0.9993    0.4603 C   0  0  0  0  0  0  0  0  0  0  0  0
   -1.1511   -0.0764   -0.1598 C   0  0  0  0  0  0  0  0  0  0  0  0
   -1.1886   -1.4050    0.5840 C   0  0  0  0  0  0  0  0  0  0  0  0
   -1.9771   -1.8758    1.3522 O   0  0  0  0  0  0  0  0  0  0  0  0
    0.0798   -1.7206   -0.0682 C   0  0  0  0  0  0  0  0  0  0  0  0
    0.3545   -0.1949   -0.0655 C   0  0  0  0  0  0  0  0  0  0  0  0
    1.0857    0.1799   -1.1888 O   0  0  0  0  0  0  0  0  0  0  0  0
    2.2212    0.8399   -0.7322 C   0  0  0  0  0  0  0  0  0  0  0  0
   -2.8581    2.8326    1.5088 H   0  0  0  0  0  0  0  0  0  0  0  0
   -1.5556   -0.3171   -1.1763 H   0  0  0  0  0  0  0  0  0  0  0  0
   -0.0690   -2.1005   -1.0901 H   0  0  0  0  0  0  0  0  0  0  0  0
    0.8478   -2.2232    0.5525 H   0  0  0  0  0  0  0  0  0  0  0  0
    0.7236    0.1101    0.9117 H   0  0  0  0  0  0  0  0  0  0  0  0
    2.7999    0.1426   -0.1075 H   0  0  0  0  0  0  0  0  0  0  0  0
    1.9503    1.7485   -0.1471 H   0  0  0  0  0  0  0  0  0  0  0  0
    2.8290    1.0965   -1.6385 H   0  0  0  0  0  0  0  0  0  0  0  0
  1  2  3  0
  2  3  1  0
  3  4  1  0
  4  5  2  0
  4  6  1  0
  6  7  1  0
  7  8  1  0
  8  9  1  0
  7  3  1  0
  1 10  1  0
  3 11  1  0
  6 12  1  0
  6 13  1  0
  7 14  1  0
  9 15  1  0
  9 16  1  0
  9 17  1  0
M  END
