
     RDKit          3D

 17 18  0  0  0  0  0  0  0  0999 V2000
   -3.2969    1.4199    0.3552 C   0  0  0  0  0  0  0  0  0  0  0  0
   -2.6545    0.4210    0.0972 C   0  0  0  0  0  0  0  0  0  0  0  0
   -1.8709   -0.7922   -0.1937 C   0  0  0  0  0  0  0  0  0  0  0  0
   -0.4367   -0.3019   -0.4226 C   0  0  0  0  0  0  0  0  0  0  0  0
   -0.0444    0.3710    0.8702 O   0  0  0  0  0  0  0  0  0  0  0  0
    0.6185   -0.8396    0.3125 C   0  0  0  0  0  0  0  0  0  0  0  0
    2.0485   -0.5282    0.0323 C   0  0  0  0  0  0  0  0  0  0  0  0
    2.6387    0.7820    0.2220 C   0  0  0  0  0  0  0  0  0  0  0  0
    2.7143   -0.1222    1.3226 O   0  0  0  0  0  0  0  0  0  0  0  0
   -3.8689    2.2864    0.5667 H   0  0  0  0  0  0  0  0  0  0  0  0
   -1.9183   -1.4020    0.7466 H   0  0  0  0  0  0  0  0  0  0  0  0
   -2.2509   -1.3212   -1.0735 H   0  0  0  0  0  0  0  0  0  0  0  0
   -0.3365    0.4580   -1.1977 H   0  0  0  0  0  0  0  0  0  0  0  0
    0.4521   -1.7324    0.9782 H   0  0  0  0  0  0  0  0  0  0  0  0
    2.6528   -1.3442   -0.3945 H   0  0  0  0  0  0  0  0  0  0  0  0
    1.9397    1.6484    0.3876 H   0  0  0  0  0  0  0  0  0  0  0  0
    3.6134    0.9973   -0.2122 H   0  0  0  0  0  0  0  0  0  0  0  0
  1  2  3  0
  2  3  1  0
  3  4  1  0
  4  5  1  0
  5  6  1  0
  6  7  1  0
  7  8  1  0
  8  9  1  0
  6  4  1  0
  9  7  1  0
  1 10  1  0
  3 11  1  0
  3 12  1  0
  4 13  1  0
  6 14  1  0
  7 15  1  0
  8 16  1  0
  8 17  1  0
M  END
