
     RDKit          3D

 21 22  0  0  0  0  0  0  0  0999 V2000
    3.3699    0.2185   -1.5642 C   0  0  0  0  0  0  0  0  0  0  0  0
    2.2376    0.4209   -1.2114 C   0  0  0  0  0  0  0  0  0  0  0  0
    0.8549    0.6735   -0.7540 C   0  0  0  0  0  0  0  0  0  0  0  0
   -0.0576   -0.5247   -0.7959 C   0  0  0  0  0  0  0  0  0  0  0  0
    0.8989   -1.0502    0.2477 C   0  0  0  0  0  0  0  0  0  0  0  0
    0.5789    0.3524    0.6858 C   0  0  0  0  0  0  0  0  0  0  0  0
   -0.8414    0.0937    0.3000 C   0  0  0  0  0  0  0  0  0  0  0  0
   -1.6894    1.2845   -0.0050 C   0  0  0  0  0  0  0  0  0  0  0  0
   -1.6445   -0.7713    1.2060 C   0  0  0  0  0  0  0  0  0  0  0  0
    4.3614    0.0530   -1.8874 H   0  0  0  0  0  0  0  0  0  0  0  0
    0.5291    1.6097   -1.1568 H   0  0  0  0  0  0  0  0  0  0  0  0
   -0.3707   -1.0131   -1.6136 H   0  0  0  0  0  0  0  0  0  0  0  0
    0.6030   -1.8760    0.8609 H   0  0  0  0  0  0  0  0  0  0  0  0
    1.9489   -1.2286   -0.1027 H   0  0  0  0  0  0  0  0  0  0  0  0
    0.9304    0.8286    1.4937 H   0  0  0  0  0  0  0  0  0  0  0  0
   -1.7637    1.9012    0.9298 H   0  0  0  0  0  0  0  0  0  0  0  0
   -2.7392    0.9139   -0.2056 H   0  0  0  0  0  0  0  0  0  0  0  0
   -1.4398    1.9022   -0.8431 H   0  0  0  0  0  0  0  0  0  0  0  0
   -2.6989   -0.8116    0.8053 H   0  0  0  0  0  0  0  0  0  0  0  0
   -1.7378   -0.2207    2.1882 H   0  0  0  0  0  0  0  0  0  0  0  0
   -1.3301   -1.7645    1.4225 H   0  0  0  0  0  0  0  0  0  0  0  0
  1  2  3  0
  2  3  1  0
  3  4  1  0
  4  5  1  0
  5  6  1  0
  6  7  1  0
  7  8  1  0
  7  9  1  0
  6  3  1  0
  7  4  1  0
  1 10  1  0
  3 11  1  0
  4 12  1  0
  5 13  1  0
  5 14  1  0
  6 15  1  0
  8 16  1  0
  8 17  1  0
  8 18  1  0
  9 19  1  0
  9 20  1  0
  9 21  1  0
M  END
