
     RDKit          3D

 17 17  0  0  0  0  0  0  0  0999 V2000
   -0.1845    2.8976    1.3599 C   0  0  0  0  0  0  0  0  0  0  0  0
   -0.1314    1.7547    0.9742 C   0  0  0  0  0  0  0  0  0  0  0  0
   -0.0619    0.3820    0.5159 C   0  0  0  0  0  0  0  0  0  0  0  0
   -0.0745   -0.0208   -0.7414 C   0  0  0  0  0  0  0  0  0  0  0  0
   -0.1638    0.8706   -1.9468 C   0  0  0  0  0  0  0  0  0  0  0  0
    0.0112   -1.4735   -0.8162 C   0  0  0  0  0  0  0  0  0  0  0  0
   -0.1719   -2.2431   -1.7907 O   0  0  0  0  0  0  0  0  0  0  0  0
    0.3787   -1.9495    0.5489 C   0  0  0  0  0  0  0  0  0  0  0  0
    0.0355   -0.7854    1.4263 C   0  0  0  0  0  0  0  0  0  0  0  0
   -0.2172    3.9104    1.7093 H   0  0  0  0  0  0  0  0  0  0  0  0
    0.6954    0.6462   -2.6451 H   0  0  0  0  0  0  0  0  0  0  0  0
   -1.0733    0.5846   -2.4934 H   0  0  0  0  0  0  0  0  0  0  0  0
   -0.1083    1.9274   -1.6714 H   0  0  0  0  0  0  0  0  0  0  0  0
   -0.2285   -2.8135    0.8510 H   0  0  0  0  0  0  0  0  0  0  0  0
    1.4658   -2.2022    0.6093 H   0  0  0  0  0  0  0  0  0  0  0  0
   -0.9594   -0.8989    1.9044 H   0  0  0  0  0  0  0  0  0  0  0  0
    0.7880   -0.5865    2.2058 H   0  0  0  0  0  0  0  0  0  0  0  0
  1  2  3  0
  2  3  1  0
  3  4  2  0
  4  5  1  0
  4  6  1  0
  6  7  2  0
  6  8  1  0
  8  9  1  0
  9  3  1  0
  1 10  1  0
  5 11  1  0
  5 12  1  0
  5 13  1  0
  8 14  1  0
  8 15  1  0
  9 16  1  0
  9 17  1  0
M  END
