
     RDKit          3D

 16 15  0  0  0  0  0  0  0  0999 V2000
   -1.9948    1.0863   -1.1329 C   0  0  0  0  0  0  0  0  0  0  0  0
   -1.0717    0.5155   -0.4787 C   0  0  0  0  0  0  0  0  0  0  0  0
   -0.0465   -0.0903    0.2438 C   0  0  0  0  0  0  0  0  0  0  0  0
   -0.4683   -1.5299    0.5179 C   0  0  0  0  0  0  0  0  0  0  0  0
   -0.2646    0.6149    1.6210 C   0  0  0  0  0  0  0  0  0  0  0  0
   -1.7106    0.8632    1.5097 O   0  0  0  0  0  0  0  0  0  0  0  0
    1.1326    0.2165   -0.0961 O   0  0  0  0  0  0  0  0  0  0  0  0
    2.0221    0.2865   -1.0168 C   0  0  0  0  0  0  0  0  0  0  0  0
   -2.9808    1.7035   -1.8086 H   0  0  0  0  0  0  0  0  0  0  0  0
   -1.0272   -1.9553   -0.3016 H   0  0  0  0  0  0  0  0  0  0  0  0
    0.2990   -2.1439    0.9249 H   0  0  0  0  0  0  0  0  0  0  0  0
   -1.2404   -1.4694    1.3748 H   0  0  0  0  0  0  0  0  0  0  0  0
   -0.0208    0.9542    2.4476 H   0  0  0  0  0  0  0  0  0  0  0  0
    2.2646   -0.5874   -1.6913 H   0  0  0  0  0  0  0  0  0  0  0  0
    2.0539    1.1846   -1.6751 H   0  0  0  0  0  0  0  0  0  0  0  0
    3.0535    0.3507   -0.4385 H   0  0  0  0  0  0  0  0  0  0  0  0
  1  2  3  0
  2  3  1  0
  3  4  1  0
  3  5  1  0
  5  6  2  0
  3  7  1  0
  7  8  1  0
  1  9  1  0
  4 10  1  0
  4 11  1  0
  4 12  1  0
  5 13  1  0
  8 14  1  0
  8 15  1  0
  8 16  1  0
M  END
