
     RDKit          3D

 23 22  0  0  0  0  0  0  0  0999 V2000
    2.1710   -1.8804    1.3088 C   0  0  0  0  0  0  0  0  0  0  0  0
    1.3219   -1.0317    1.5338 C   0  0  0  0  0  0  0  0  0  0  0  0
    0.3293   -0.0061    1.8105 C   0  0  0  0  0  0  0  0  0  0  0  0
   -0.7702   -0.0442    0.8058 C   0  0  0  0  0  0  0  0  0  0  0  0
   -1.7482    1.0783    1.3007 C   0  0  0  0  0  0  0  0  0  0  0  0
   -1.4338   -1.2644    0.8165 O   0  0  0  0  0  0  0  0  0  0  0  0
   -0.4059    0.4171   -0.5751 C   0  0  0  0  0  0  0  0  0  0  0  0
    0.6713   -0.3111   -1.2754 C   0  0  0  0  0  0  0  0  0  0  0  0
    0.7924    0.3387   -2.6642 C   0  0  0  0  0  0  0  0  0  0  0  0
    2.9167   -2.6074    1.1029 H   0  0  0  0  0  0  0  0  0  0  0  0
   -0.0636   -0.0725    2.8525 H   0  0  0  0  0  0  0  0  0  0  0  0
    0.8059    1.0060    1.7650 H   0  0  0  0  0  0  0  0  0  0  0  0
   -2.7167    0.9280    0.8279 H   0  0  0  0  0  0  0  0  0  0  0  0
   -1.3418    2.0587    0.9698 H   0  0  0  0  0  0  0  0  0  0  0  0
   -1.7608    1.0985    2.4028 H   0  0  0  0  0  0  0  0  0  0  0  0
   -1.7114   -1.5497   -0.0948 H   0  0  0  0  0  0  0  0  0  0  0  0
   -1.3386    0.3194   -1.1936 H   0  0  0  0  0  0  0  0  0  0  0  0
   -0.2049    1.5103   -0.5047 H   0  0  0  0  0  0  0  0  0  0  0  0
    0.4758   -1.3651   -1.3933 H   0  0  0  0  0  0  0  0  0  0  0  0
    1.6282   -0.0795   -0.7463 H   0  0  0  0  0  0  0  0  0  0  0  0
    0.9462    1.4363   -2.5674 H   0  0  0  0  0  0  0  0  0  0  0  0
   -0.1544    0.1686   -3.2235 H   0  0  0  0  0  0  0  0  0  0  0  0
    1.5919   -0.1480   -3.2589 H   0  0  0  0  0  0  0  0  0  0  0  0
  1  2  3  0
  2  3  1  0
  3  4  1  0
  4  5  1  0
  4  6  1  0
  4  7  1  0
  7  8  1  0
  8  9  1  0
  1 10  1  0
  3 11  1  0
  3 12  1  0
  5 13  1  0
  5 14  1  0
  5 15  1  0
  6 16  1  0
  7 17  1  0
  7 18  1  0
  8 19  1  0
  8 20  1  0
  9 21  1  0
  9 22  1  0
  9 23  1  0
M  END
