
     RDKit          3D

 19 20  0  0  0  0  0  0  0  0999 V2000
    2.2162    2.0241   -0.6878 C   0  0  0  0  0  0  0  0  0  0  0  0
    1.6253    0.9563   -0.4226 C   0  0  0  0  0  0  0  0  0  0  0  0
    0.9268   -0.2653   -0.1327 C   0  0  0  0  0  0  0  0  0  0  0  0
   -0.5842   -0.0913    0.0174 C   0  0  0  0  0  0  0  0  0  0  0  0
   -0.9724    0.7453    1.2102 C   0  0  0  0  0  0  0  0  0  0  0  0
   -1.3708    0.1302   -1.2377 C   0  0  0  0  0  0  0  0  0  0  0  0
   -1.5196   -1.1422   -0.4792 C   0  0  0  0  0  0  0  0  0  0  0  0
    1.6073   -1.2359    0.7085 C   0  0  0  0  0  0  0  0  0  0  0  0
    1.3664   -1.4427   -0.6889 O   0  0  0  0  0  0  0  0  0  0  0  0
    2.7210    2.9360   -0.9057 H   0  0  0  0  0  0  0  0  0  0  0  0
   -1.3989    0.0704    1.9848 H   0  0  0  0  0  0  0  0  0  0  0  0
   -1.7642    1.4642    0.9140 H   0  0  0  0  0  0  0  0  0  0  0  0
   -0.0794    1.2394    1.6256 H   0  0  0  0  0  0  0  0  0  0  0  0
   -2.1359    0.9235   -1.1772 H   0  0  0  0  0  0  0  0  0  0  0  0
   -0.8885    0.0863   -2.2390 H   0  0  0  0  0  0  0  0  0  0  0  0
   -1.0905   -2.0435   -0.9130 H   0  0  0  0  0  0  0  0  0  0  0  0
   -2.4418   -1.3195    0.1209 H   0  0  0  0  0  0  0  0  0  0  0  0
    2.6805   -1.0708    0.9222 H   0  0  0  0  0  0  0  0  0  0  0  0
    1.1027   -1.9645    1.3801 H   0  0  0  0  0  0  0  0  0  0  0  0
  1  2  3  0
  2  3  1  0
  3  4  1  0
  4  5  1  0
  4  6  1  0
  6  7  1  0
  3  8  1  0
  8  9  1  0
  9  3  1  0
  7  4  1  0
  1 10  1  0
  5 11  1  0
  5 12  1  0
  5 13  1  0
  6 14  1  0
  6 15  1  0
  7 16  1  0
  7 17  1  0
  8 18  1  0
  8 19  1  0
M  END
