
     RDKit          3D

 19 19  0  0  0  0  0  0  0  0999 V2000
    2.0536    2.1606    1.4159 C   0  0  0  0  0  0  0  0  0  0  0  0
    1.5974    1.0411    1.2317 C   0  0  0  0  0  0  0  0  0  0  0  0
    1.0737   -0.3076    1.0027 C   0  0  0  0  0  0  0  0  0  0  0  0
    1.9880   -1.2934    1.3169 O   0  0  0  0  0  0  0  0  0  0  0  0
    0.6485   -0.4047   -0.4411 C   0  0  0  0  0  0  0  0  0  0  0  0
    0.0365   -1.5619   -0.9004 O   0  0  0  0  0  0  0  0  0  0  0  0
   -0.7642   -0.4280   -0.7899 C   0  0  0  0  0  0  0  0  0  0  0  0
   -1.8544   -0.5339    0.2253 C   0  0  0  0  0  0  0  0  0  0  0  0
   -1.1583    0.3116   -2.0566 C   0  0  0  0  0  0  0  0  0  0  0  0
    2.4388    3.1349    1.5854 H   0  0  0  0  0  0  0  0  0  0  0  0
    0.1602   -0.4104    1.6201 H   0  0  0  0  0  0  0  0  0  0  0  0
    2.5497   -1.5468    0.5325 H   0  0  0  0  0  0  0  0  0  0  0  0
    1.3804    0.0193   -1.1467 H   0  0  0  0  0  0  0  0  0  0  0  0
   -1.9285    0.4263    0.7785 H   0  0  0  0  0  0  0  0  0  0  0  0
   -2.8390   -0.7004   -0.2810 H   0  0  0  0  0  0  0  0  0  0  0  0
   -1.7109   -1.3715    0.9308 H   0  0  0  0  0  0  0  0  0  0  0  0
   -0.9880   -0.3231   -2.9640 H   0  0  0  0  0  0  0  0  0  0  0  0
   -0.4603    1.1703   -2.1510 H   0  0  0  0  0  0  0  0  0  0  0  0
   -2.2232    0.6175   -2.0435 H   0  0  0  0  0  0  0  0  0  0  0  0
  1  2  3  0
  2  3  1  0
  3  4  1  0
  3  5  1  0
  5  6  1  0
  6  7  1  0
  7  8  1  0
  7  9  1  0
  7  5  1  0
  1 10  1  0
  3 11  1  0
  4 12  1  0
  5 13  1  0
  8 14  1  0
  8 15  1  0
  8 16  1  0
  9 17  1  0
  9 18  1  0
  9 19  1  0
M  END
