
     RDKit          3D

 21 22  0  0  0  0  0  0  0  0999 V2000
    3.3906    0.3178   -1.3630 C   0  0  0  0  0  0  0  0  0  0  0  0
    2.4138    0.1392   -0.7767 C   0  0  0  0  0  0  0  0  0  0  0  0
    1.2946   -0.0828   -0.1210 C   0  0  0  0  0  0  0  0  0  0  0  0
    0.4095   -1.2275   -0.3250 C   0  0  0  0  0  0  0  0  0  0  0  0
   -1.0256   -0.7561   -0.1032 C   0  0  0  0  0  0  0  0  0  0  0  0
   -1.4095   -0.3241    1.2666 C   0  0  0  0  0  0  0  0  0  0  0  0
   -2.0074    0.9263    0.6343 C   0  0  0  0  0  0  0  0  0  0  0  0
   -0.9372    0.7376   -0.4606 C   0  0  0  0  0  0  0  0  0  0  0  0
    0.4005    1.1682   -0.0440 C   0  0  0  0  0  0  0  0  0  0  0  0
    4.4770    0.5350   -2.0327 H   0  0  0  0  0  0  0  0  0  0  0  0
    1.5746   -0.2261    1.0788 H   0  0  0  0  0  0  0  0  0  0  0  0
    0.6090   -2.0899    0.3657 H   0  0  0  0  0  0  0  0  0  0  0  0
    0.4325   -1.5669   -1.3852 H   0  0  0  0  0  0  0  0  0  0  0  0
   -1.7712   -1.3284   -0.6592 H   0  0  0  0  0  0  0  0  0  0  0  0
   -0.5724   -0.1120    1.9614 H   0  0  0  0  0  0  0  0  0  0  0  0
   -2.2141   -0.9303    1.7064 H   0  0  0  0  0  0  0  0  0  0  0  0
   -1.9781    1.8511    1.1841 H   0  0  0  0  0  0  0  0  0  0  0  0
   -3.0243    0.7126    0.2350 H   0  0  0  0  0  0  0  0  0  0  0  0
   -1.3192    0.9965   -1.4591 H   0  0  0  0  0  0  0  0  0  0  0  0
    0.8552    1.9417   -0.7025 H   0  0  0  0  0  0  0  0  0  0  0  0
    0.4018    1.5982    0.9997 H   0  0  0  0  0  0  0  0  0  0  0  0
  1  2  3  0
  2  3  1  0
  3  4  1  0
  4  5  1  0
  5  6  1  0
  6  7  1  0
  7  8  1  0
  8  9  1  0
  9  3  1  0
  8  5  1  0
  1 10  1  0
  3 11  1  0
  4 12  1  0
  4 13  1  0
  5 14  1  0
  6 15  1  0
  6 16  1  0
  7 17  1  0
  7 18  1  0
  8 19  1  0
  9 20  1  0
  9 21  1  0
M  END
