
     RDKit          3D

 17 16  0  0  0  0  0  0  0  0999 V2000
   -4.6010    0.3788   -0.5709 C   0  0  0  0  0  0  0  0  0  0  0  0
   -3.4356    0.0180   -0.6550 C   0  0  0  0  0  0  0  0  0  0  0  0
   -2.0785   -0.4202   -0.7576 C   0  0  0  0  0  0  0  0  0  0  0  0
   -1.6853   -1.2047   -1.6636 O   0  0  0  0  0  0  0  0  0  0  0  0
   -1.0906   -0.0081    0.1420 O   0  0  0  0  0  0  0  0  0  0  0  0
    0.2686   -0.4749    0.0020 C   0  0  0  0  0  0  0  0  0  0  0  0
    1.0096    0.1837    1.1423 C   0  0  0  0  0  0  0  0  0  0  0  0
    2.3362   -0.1035    1.2370 O   0  0  0  0  0  0  0  0  0  0  0  0
    2.9981    0.2952    0.0917 C   0  0  0  0  0  0  0  0  0  0  0  0
   -5.6109    0.6803   -0.4832 H   0  0  0  0  0  0  0  0  0  0  0  0
    0.6327   -0.1131   -0.9894 H   0  0  0  0  0  0  0  0  0  0  0  0
    0.3402   -1.5578    0.1284 H   0  0  0  0  0  0  0  0  0  0  0  0
    0.5194   -0.1805    2.0733 H   0  0  0  0  0  0  0  0  0  0  0  0
    0.7883    1.2722    1.0896 H   0  0  0  0  0  0  0  0  0  0  0  0
    2.9042    1.3853   -0.1174 H   0  0  0  0  0  0  0  0  0  0  0  0
    2.6127   -0.2697   -0.7564 H   0  0  0  0  0  0  0  0  0  0  0  0
    4.0918    0.1189    0.2627 H   0  0  0  0  0  0  0  0  0  0  0  0
  1  2  3  0
  2  3  1  0
  3  4  2  0
  3  5  1  0
  5  6  1  0
  6  7  1  0
  7  8  1  0
  8  9  1  0
  1 10  1  0
  6 11  1  0
  6 12  1  0
  7 13  1  0
  7 14  1  0
  9 15  1  0
  9 16  1  0
  9 17  1  0
M  END
