
     RDKit          3D

 21 21  0  0  0  0  0  0  0  0999 V2000
    2.9214    2.1511    0.0778 C   0  0  0  0  0  0  0  0  0  0  0  0
    2.5022    1.0243    0.0121 C   0  0  0  0  0  0  0  0  0  0  0  0
    1.9970   -0.3471   -0.0872 C   0  0  0  0  0  0  0  0  0  0  0  0
    0.7588   -0.3956   -0.9518 C   0  0  0  0  0  0  0  0  0  0  0  0
   -0.3494    0.4627   -0.3927 C   0  0  0  0  0  0  0  0  0  0  0  0
   -1.5165    0.4735   -1.1286 O   0  0  0  0  0  0  0  0  0  0  0  0
   -2.2041    0.7014    0.0705 C   0  0  0  0  0  0  0  0  0  0  0  0
   -1.1221   -0.1520    0.7368 C   0  0  0  0  0  0  0  0  0  0  0  0
   -1.4723   -1.6074    0.5623 C   0  0  0  0  0  0  0  0  0  0  0  0
    3.3145    3.1557    0.1314 H   0  0  0  0  0  0  0  0  0  0  0  0
    2.7614   -0.9851   -0.5772 H   0  0  0  0  0  0  0  0  0  0  0  0
    1.8093   -0.7230    0.9341 H   0  0  0  0  0  0  0  0  0  0  0  0
    0.3955   -1.4467   -0.9691 H   0  0  0  0  0  0  0  0  0  0  0  0
    0.9901   -0.1017   -1.9948 H   0  0  0  0  0  0  0  0  0  0  0  0
   -0.0426    1.4935   -0.1347 H   0  0  0  0  0  0  0  0  0  0  0  0
   -3.1871    0.2489    0.1589 H   0  0  0  0  0  0  0  0  0  0  0  0
   -2.0932    1.7558    0.3798 H   0  0  0  0  0  0  0  0  0  0  0  0
   -0.9031    0.1769    1.7512 H   0  0  0  0  0  0  0  0  0  0  0  0
   -1.7820   -1.7177   -0.5167 H   0  0  0  0  0  0  0  0  0  0  0  0
   -2.2319   -1.9650    1.2514 H   0  0  0  0  0  0  0  0  0  0  0  0
   -0.5460   -2.2026    0.6866 H   0  0  0  0  0  0  0  0  0  0  0  0
  1  2  3  0
  2  3  1  0
  3  4  1  0
  4  5  1  0
  5  6  1  0
  6  7  1  0
  7  8  1  0
  8  9  1  0
  8  5  1  0
  1 10  1  0
  3 11  1  0
  3 12  1  0
  4 13  1  0
  4 14  1  0
  5 15  1  0
  7 16  1  0
  7 17  1  0
  8 18  1  0
  9 19  1  0
  9 20  1  0
  9 21  1  0
M  END
