
     RDKit          3D

 17 18  0  0  0  0  0  0  0  0999 V2000
    3.4259    0.4018    0.8791 C   0  0  0  0  0  0  0  0  0  0  0  0
    2.2723    0.0925    0.7223 C   0  0  0  0  0  0  0  0  0  0  0  0
    0.8932   -0.2714    0.5566 C   0  0  0  0  0  0  0  0  0  0  0  0
    0.6917   -1.3850   -0.2538 O   0  0  0  0  0  0  0  0  0  0  0  0
   -0.7208   -1.3982   -0.3259 C   0  0  0  0  0  0  0  0  0  0  0  0
   -1.0789    0.0158   -0.6794 C   0  0  0  0  0  0  0  0  0  0  0  0
   -1.7318    0.3113   -1.8529 O   0  0  0  0  0  0  0  0  0  0  0  0
   -1.2795    1.0156    0.4393 C   0  0  0  0  0  0  0  0  0  0  0  0
    0.0796    0.7808   -0.1839 C   0  0  0  0  0  0  0  0  0  0  0  0
    4.4455    0.6689    1.0001 H   0  0  0  0  0  0  0  0  0  0  0  0
    0.4683   -0.5044    1.5448 H   0  0  0  0  0  0  0  0  0  0  0  0
   -1.0885   -1.6396    0.6760 H   0  0  0  0  0  0  0  0  0  0  0  0
   -1.0410   -2.0936   -1.1186 H   0  0  0  0  0  0  0  0  0  0  0  0
   -2.6572   -0.0742   -1.7707 H   0  0  0  0  0  0  0  0  0  0  0  0
   -1.7299    1.9754    0.1751 H   0  0  0  0  0  0  0  0  0  0  0  0
   -1.5284    0.5396    1.4053 H   0  0  0  0  0  0  0  0  0  0  0  0
    0.5796    1.5650   -0.7501 H   0  0  0  0  0  0  0  0  0  0  0  0
  1  2  3  0
  2  3  1  0
  3  4  1  0
  4  5  1  0
  5  6  1  0
  6  7  1  0
  6  8  1  0
  8  9  1  0
  9  3  1  0
  9  6  1  0
  1 10  1  0
  3 11  1  0
  5 12  1  0
  5 13  1  0
  7 14  1  0
  8 15  1  0
  8 16  1  0
  9 17  1  0
M  END
