
     RDKit          3D

 14 14  0  0  0  0  0  0  0  0999 V2000
    1.0891    2.0509    1.2622 C   0  0  0  0  0  0  0  0  0  0  0  0
    0.5147    1.2753    1.1432 C   0  0  0  0  0  0  0  0  0  0  0  0
   -0.4776   -0.0774    0.9368 C   0  0  0  0  0  0  0  0  0  0  0  0
    0.5741   -0.8599    0.0088 C   0  0  0  0  0  0  0  0  0  0  0  0
   -0.4641   -1.4784   -0.9685 C   0  0  0  0  0  0  0  0  0  0  0  0
   -1.1751   -0.1006   -1.1772 C   0  0  0  0  0  0  0  0  0  0  0  0
   -1.3301    0.3329   -2.3668 O   0  0  0  0  0  0  0  0  0  0  0  0
   -1.4167    0.3445    0.0733 O   0  0  0  0  0  0  0  0  0  0  0  0
    2.0919    3.4358    1.4707 H   0  0  0  0  0  0  0  0  0  0  0  0
   -0.4281   -0.4684    1.8964 H   0  0  0  0  0  0  0  0  0  0  0  0
    1.0529   -1.5597    0.6111 H   0  0  0  0  0  0  0  0  0  0  0  0
    1.1710   -0.1527   -0.5371 H   0  0  0  0  0  0  0  0  0  0  0  0
   -1.1098   -2.1682   -0.4543 H   0  0  0  0  0  0  0  0  0  0  0  0
   -0.0923   -1.8475   -1.8985 H   0  0  0  0  0  0  0  0  0  0  0  0
  1  2  3  0
  2  3  1  0
  3  4  1  0
  4  5  1  0
  5  6  1  0
  6  7  2  0
  6  8  1  0
  8  3  1  0
  1  9  1  0
  3 10  1  0
  4 11  1  0
  4 12  1  0
  5 13  1  0
  5 14  1  0
M  END
