
     RDKit          3D

 21 20  0  0  0  0  0  0  0  0999 V2000
    0.0233    1.8236   -2.0150 C   0  0  0  0  0  0  0  0  0  0  0  0
    0.4135    0.9490   -1.0771 C   0  0  0  0  0  0  0  0  0  0  0  0
    0.8107    0.0060   -0.0925 C   0  0  0  0  0  0  0  0  0  0  0  0
    1.1945   -1.3194   -0.5512 C   0  0  0  0  0  0  0  0  0  0  0  0
    0.2681   -2.1867   -1.2728 C   0  0  0  0  0  0  0  0  0  0  0  0
   -0.1848   -1.8393   -2.3676 O   0  0  0  0  0  0  0  0  0  0  0  0
   -0.1749    0.0674    1.0832 C   0  0  0  0  0  0  0  0  0  0  0  0
   -0.1130    1.4475    1.7033 C   0  0  0  0  0  0  0  0  0  0  0  0
   -1.5875   -0.0906    0.4822 C   0  0  0  0  0  0  0  0  0  0  0  0
   -0.3028    2.5592   -2.7807 H   0  0  0  0  0  0  0  0  0  0  0  0
    1.7888    0.4624    0.3352 H   0  0  0  0  0  0  0  0  0  0  0  0
    2.1383   -1.1452   -1.2345 H   0  0  0  0  0  0  0  0  0  0  0  0
    1.6784   -1.9464    0.2742 H   0  0  0  0  0  0  0  0  0  0  0  0
   -0.0551   -3.1539   -0.8953 H   0  0  0  0  0  0  0  0  0  0  0  0
   -0.0108   -0.7204    1.8097 H   0  0  0  0  0  0  0  0  0  0  0  0
    0.8376    1.9075    1.3382 H   0  0  0  0  0  0  0  0  0  0  0  0
   -0.9946    2.0198    1.4535 H   0  0  0  0  0  0  0  0  0  0  0  0
    0.0288    1.3775    2.8378 H   0  0  0  0  0  0  0  0  0  0  0  0
   -2.0943   -1.0174    0.7487 H   0  0  0  0  0  0  0  0  0  0  0  0
   -2.1763    0.7809    0.8544 H   0  0  0  0  0  0  0  0  0  0  0  0
   -1.4882    0.0185   -0.6339 H   0  0  0  0  0  0  0  0  0  0  0  0
  1  2  3  0
  2  3  1  0
  3  4  1  0
  4  5  1  0
  5  6  2  0
  3  7  1  0
  7  8  1  0
  7  9  1  0
  1 10  1  0
  3 11  1  0
  4 12  1  0
  4 13  1  0
  5 14  1  0
  7 15  1  0
  8 16  1  0
  8 17  1  0
  8 18  1  0
  9 19  1  0
  9 20  1  0
  9 21  1  0
M  END
