
     RDKit          3D

 15 14  0  0  0  0  0  0  0  0999 V2000
    3.4816   -0.4491   -0.4670 C   0  0  0  0  0  0  0  0  0  0  0  0
    2.4323   -0.3069    0.3034 C   0  0  0  0  0  0  0  0  0  0  0  0
    1.3445   -0.1461    1.1212 C   0  0  0  0  0  0  0  0  0  0  0  0
    0.2539    0.1030    0.2814 O   0  0  0  0  0  0  0  0  0  0  0  0
   -1.0346    0.2241    0.5538 C   0  0  0  0  0  0  0  0  0  0  0  0
   -1.8179    0.2647   -0.7754 C   0  0  0  0  0  0  0  0  0  0  0  0
   -3.1630    0.4779   -0.6618 O   0  0  0  0  0  0  0  0  0  0  0  0
    4.6276   -0.6006   -1.3071 H   0  0  0  0  0  0  0  0  0  0  0  0
    1.5479    1.3568    0.7214 H   0  0  0  0  0  0  0  0  0  0  0  0
    1.6933    0.3765    2.0613 H   0  0  0  0  0  0  0  0  0  0  0  0
   -1.3880    1.0419    1.1957 H   0  0  0  0  0  0  0  0  0  0  0  0
   -1.4178   -0.7978    0.9826 H   0  0  0  0  0  0  0  0  0  0  0  0
   -1.2804    0.9493   -1.5376 H   0  0  0  0  0  0  0  0  0  0  0  0
   -1.7613   -0.8046   -1.2201 H   0  0  0  0  0  0  0  0  0  0  0  0
   -3.5182    1.2401   -1.2518 H   0  0  0  0  0  0  0  0  0  0  0  0
  1  2  3  0
  2  3  1  0
  3  4  1  0
  4  5  1  0
  5  6  1  0
  6  7  1  0
  1  8  1  0
  3  9  1  0
  3 10  1  0
  5 11  1  0
  5 12  1  0
  6 13  1  0
  6 14  1  0
  7 15  1  0
M  END
