
     RDKit          3D

 21 21  0  0  0  0  0  0  0  0999 V2000
   -2.5055    2.3339    1.7973 C   0  0  0  0  0  0  0  0  0  0  0  0
   -2.1117    1.6544    0.9671 C   0  0  0  0  0  0  0  0  0  0  0  0
   -1.6137    0.7873   -0.1261 C   0  0  0  0  0  0  0  0  0  0  0  0
    0.0023    0.8059    0.1184 C   0  0  0  0  0  0  0  0  0  0  0  0
    0.5735   -0.0223   -0.8535 C   0  0  0  0  0  0  0  0  0  0  0  0
    1.7765   -0.7951   -0.3334 C   0  0  0  0  0  0  0  0  0  0  0  0
    1.8717   -1.8420   -1.4973 C   0  0  0  0  0  0  0  0  0  0  0  0
   -1.8587   -0.5816    0.8305 C   0  0  0  0  0  0  0  0  0  0  0  0
   -2.2265   -0.3736   -0.4544 O   0  0  0  0  0  0  0  0  0  0  0  0
   -3.1310    3.4505    3.1122 H   0  0  0  0  0  0  0  0  0  0  0  0
    0.1462    0.5861    1.1656 H   0  0  0  0  0  0  0  0  0  0  0  0
    0.1326    1.9351    0.1304 H   0  0  0  0  0  0  0  0  0  0  0  0
    0.3708   -0.1438   -1.9122 H   0  0  0  0  0  0  0  0  0  0  0  0
    1.3482    1.1407   -1.2364 H   0  0  0  0  0  0  0  0  0  0  0  0
    2.6736   -0.1647   -0.3199 H   0  0  0  0  0  0  0  0  0  0  0  0
    1.6217   -1.2180    0.6424 H   0  0  0  0  0  0  0  0  0  0  0  0
    1.0536   -1.9708   -2.0394 H   0  0  0  0  0  0  0  0  0  0  0  0
    2.7205   -1.1926   -2.0822 H   0  0  0  0  0  0  0  0  0  0  0  0
    2.4521   -2.7422   -1.0637 H   0  0  0  0  0  0  0  0  0  0  0  0
   -0.9355   -1.1995    0.9396 H   0  0  0  0  0  0  0  0  0  0  0  0
   -2.3609   -0.4477    1.7511 H   0  0  0  0  0  0  0  0  0  0  0  0
  1  2  3  0
  2  3  1  0
  3  4  1  0
  4  5  1  0
  5  6  1  0
  6  7  1  0
  3  8  1  0
  8  9  1  0
  9  3  1  0
  1 10  1  0
  4 11  1  0
  4 12  1  0
  5 13  1  0
  5 14  1  0
  6 15  1  0
  6 16  1  0
  7 17  1  0
  7 18  1  0
  7 19  1  0
  8 20  1  0
  8 21  1  0
M  END
