
     RDKit          3D

 21 21  0  0  0  0  0  0  0  0999 V2000
    2.5767    0.8565   -2.8547 C   0  0  0  0  0  0  0  0  0  0  0  0
    2.0571    0.0647   -2.1597 C   0  0  0  0  0  0  0  0  0  0  0  0
    1.3921   -0.9410   -1.2428 C   0  0  0  0  0  0  0  0  0  0  0  0
    0.5016   -0.2035   -0.2925 C   0  0  0  0  0  0  0  0  0  0  0  0
   -0.2476   -1.1153    0.6548 C   0  0  0  0  0  0  0  0  0  0  0  0
   -1.4458   -0.1876    0.5065 C   0  0  0  0  0  0  0  0  0  0  0  0
   -1.4183    0.8676    1.5769 C   0  0  0  0  0  0  0  0  0  0  0  0
   -1.4392    0.2664    2.8178 O   0  0  0  0  0  0  0  0  0  0  0  0
   -0.8284    0.2813   -0.8183 C   0  0  0  0  0  0  0  0  0  0  0  0
    3.0598    1.5942   -3.4786 H   0  0  0  0  0  0  0  0  0  0  0  0
    2.1970   -1.4104   -0.6557 H   0  0  0  0  0  0  0  0  0  0  0  0
    0.8944   -1.6666   -1.8768 H   0  0  0  0  0  0  0  0  0  0  0  0
    1.0354    0.6227    0.2316 H   0  0  0  0  0  0  0  0  0  0  0  0
   -0.4327   -2.1271    0.2532 H   0  0  0  0  0  0  0  0  0  0  0  0
    0.2598   -1.0538    1.6446 H   0  0  0  0  0  0  0  0  0  0  0  0
   -2.4040   -0.6956    0.3651 H   0  0  0  0  0  0  0  0  0  0  0  0
   -0.5055    1.4972    1.4949 H   0  0  0  0  0  0  0  0  0  0  0  0
   -2.3151    1.5339    1.5393 H   0  0  0  0  0  0  0  0  0  0  0  0
   -0.7756    0.6883    3.4390 H   0  0  0  0  0  0  0  0  0  0  0  0
   -0.9352    1.3697   -0.9213 H   0  0  0  0  0  0  0  0  0  0  0  0
   -1.2265   -0.2417   -1.6877 H   0  0  0  0  0  0  0  0  0  0  0  0
  1  2  3  0
  2  3  1  0
  3  4  1  0
  4  5  1  0
  5  6  1  0
  6  7  1  0
  7  8  1  0
  6  9  1  0
  9  4  1  0
  1 10  1  0
  3 11  1  0
  3 12  1  0
  4 13  1  0
  5 14  1  0
  5 15  1  0
  6 16  1  0
  7 17  1  0
  7 18  1  0
  8 19  1  0
  9 20  1  0
  9 21  1  0
M  END
