
     RDKit          3D

 17 16  0  0  0  0  0  0  0  0999 V2000
    4.7579   -0.5945    0.0623 C   0  0  0  0  0  0  0  0  0  0  0  0
    3.6001   -0.2375    0.0302 C   0  0  0  0  0  0  0  0  0  0  0  0
    2.2507    0.1949   -0.0192 C   0  0  0  0  0  0  0  0  0  0  0  0
    1.1051    0.5737   -0.0632 C   0  0  0  0  0  0  0  0  0  0  0  0
   -0.2817    1.0392   -0.0971 C   0  0  0  0  0  0  0  0  0  0  0  0
   -1.1606   -0.1632    0.1690 C   0  0  0  0  0  0  0  0  0  0  0  0
   -2.6049    0.3541    0.1273 C   0  0  0  0  0  0  0  0  0  0  0  0
   -0.9827   -1.2310   -0.8365 C   0  0  0  0  0  0  0  0  0  0  0  0
   -0.8232   -0.9220   -1.9979 O   0  0  0  0  0  0  0  0  0  0  0  0
    5.7808   -0.9119    0.0971 H   0  0  0  0  0  0  0  0  0  0  0  0
   -0.5308    1.5268   -1.0397 H   0  0  0  0  0  0  0  0  0  0  0  0
   -0.4579    1.7472    0.7439 H   0  0  0  0  0  0  0  0  0  0  0  0
   -1.0088   -0.5373    1.1996 H   0  0  0  0  0  0  0  0  0  0  0  0
   -2.7612    0.7614   -0.8844 H   0  0  0  0  0  0  0  0  0  0  0  0
   -2.6386    1.1713    0.8909 H   0  0  0  0  0  0  0  0  0  0  0  0
   -3.2562   -0.4928    0.3664 H   0  0  0  0  0  0  0  0  0  0  0  0
   -0.9879   -2.2783   -0.5859 H   0  0  0  0  0  0  0  0  0  0  0  0
  1  2  3  0
  2  3  1  0
  3  4  3  0
  4  5  1  0
  5  6  1  0
  6  7  1  0
  6  8  1  0
  8  9  2  0
  1 10  1  0
  5 11  1  0
  5 12  1  0
  6 13  1  0
  7 14  1  0
  7 15  1  0
  7 16  1  0
  8 17  1  0
M  END
