
     RDKit          3D

 25 24  0  0  0  0  0  0  0  0999 V2000
    2.5473   -2.1509    0.1307 C   0  0  0  0  0  0  0  0  0  0  0  0
    1.8972   -1.2028   -0.3025 C   0  0  0  0  0  0  0  0  0  0  0  0
    1.1360   -0.0687   -0.8014 C   0  0  0  0  0  0  0  0  0  0  0  0
    0.1711    0.4528    0.1961 C   0  0  0  0  0  0  0  0  0  0  0  0
   -0.6109    1.6585   -0.3575 C   0  0  0  0  0  0  0  0  0  0  0  0
    0.3610    2.7592   -0.7122 C   0  0  0  0  0  0  0  0  0  0  0  0
   -0.8711   -0.5137    0.6678 C   0  0  0  0  0  0  0  0  0  0  0  0
   -1.7326   -1.0380   -0.4525 C   0  0  0  0  0  0  0  0  0  0  0  0
   -0.3094   -1.6081    1.5453 C   0  0  0  0  0  0  0  0  0  0  0  0
    3.1105   -2.9732    0.4866 H   0  0  0  0  0  0  0  0  0  0  0  0
    1.8682    0.7304   -1.1248 H   0  0  0  0  0  0  0  0  0  0  0  0
    0.6187   -0.3491   -1.7516 H   0  0  0  0  0  0  0  0  0  0  0  0
    0.7030    0.8583    1.0874 H   0  0  0  0  0  0  0  0  0  0  0  0
   -1.2648    2.0286    0.4584 H   0  0  0  0  0  0  0  0  0  0  0  0
   -1.2313    1.4023   -1.2092 H   0  0  0  0  0  0  0  0  0  0  0  0
    0.7804    2.6302   -1.7343 H   0  0  0  0  0  0  0  0  0  0  0  0
    1.1545    2.8467    0.0491 H   0  0  0  0  0  0  0  0  0  0  0  0
   -0.2325    3.7089   -0.7432 H   0  0  0  0  0  0  0  0  0  0  0  0
   -1.5941    0.0528    1.3458 H   0  0  0  0  0  0  0  0  0  0  0  0
   -2.7866   -0.7272   -0.3362 H   0  0  0  0  0  0  0  0  0  0  0  0
   -1.7515   -2.1499   -0.4799 H   0  0  0  0  0  0  0  0  0  0  0  0
   -1.3651   -0.6184   -1.4151 H   0  0  0  0  0  0  0  0  0  0  0  0
   -1.0410   -1.8678    2.3740 H   0  0  0  0  0  0  0  0  0  0  0  0
   -0.1582   -2.5448    1.0095 H   0  0  0  0  0  0  0  0  0  0  0  0
    0.6012   -1.3161    2.0697 H   0  0  0  0  0  0  0  0  0  0  0  0
  1  2  3  0
  2  3  1  0
  3  4  1  0
  4  5  1  0
  5  6  1  0
  4  7  1  0
  7  8  1  0
  7  9  1  0
  1 10  1  0
  3 11  1  0
  3 12  1  0
  4 13  1  0
  5 14  1  0
  5 15  1  0
  6 16  1  0
  6 17  1  0
  6 18  1  0
  7 19  1  0
  8 20  1  0
  8 21  1  0
  8 22  1  0
  9 23  1  0
  9 24  1  0
  9 25  1  0
M  END
