
     RDKit          3D

 17 16  0  0  0  0  0  0  0  0999 V2000
    4.9751    1.1439    0.3551 C   0  0  0  0  0  0  0  0  0  0  0  0
    3.7854    0.8622    0.1587 C   0  0  0  0  0  0  0  0  0  0  0  0
    2.4455    0.5579   -0.0752 C   0  0  0  0  0  0  0  0  0  0  0  0
    1.2482    0.2780   -0.3047 C   0  0  0  0  0  0  0  0  0  0  0  0
   -0.1265   -0.0276   -0.5473 C   0  0  0  0  0  0  0  0  0  0  0  0
   -0.6032   -1.1481    0.3743 C   0  0  0  0  0  0  0  0  0  0  0  0
   -2.1730   -1.0415    0.1864 C   0  0  0  0  0  0  0  0  0  0  0  0
   -2.5671    0.1142    0.6087 C   0  0  0  0  0  0  0  0  0  0  0  0
   -2.9470    1.1840    1.0034 C   0  0  0  0  0  0  0  0  0  0  0  0
    6.0235    1.4063    0.5344 H   0  0  0  0  0  0  0  0  0  0  0  0
   -0.7729    0.8967   -0.3340 H   0  0  0  0  0  0  0  0  0  0  0  0
   -0.3472   -0.3079   -1.6091 H   0  0  0  0  0  0  0  0  0  0  0  0
   -0.4278   -0.9116    1.4085 H   0  0  0  0  0  0  0  0  0  0  0  0
   -0.2707   -2.1306    0.0416 H   0  0  0  0  0  0  0  0  0  0  0  0
   -2.6338   -1.9630    0.6791 H   0  0  0  0  0  0  0  0  0  0  0  0
   -2.2509   -1.2109   -0.9370 H   0  0  0  0  0  0  0  0  0  0  0  0
   -3.3577    2.2978    1.4319 H   0  0  0  0  0  0  0  0  0  0  0  0
  1  2  3  0
  2  3  1  0
  3  4  3  0
  4  5  1  0
  5  6  1  0
  6  7  1  0
  7  8  1  0
  8  9  3  0
  1 10  1  0
  5 11  1  0
  5 12  1  0
  6 13  1  0
  6 14  1  0
  7 15  1  0
  7 16  1  0
  9 17  1  0
M  END
