
     RDKit          3D

 17 18  0  0  0  0  0  0  0  0999 V2000
    2.8269    1.2535   -0.0433 C   0  0  0  0  0  0  0  0  0  0  0  0
    1.9754    0.4298    0.0310 C   0  0  0  0  0  0  0  0  0  0  0  0
    0.9377   -0.5656    0.1418 C   0  0  0  0  0  0  0  0  0  0  0  0
   -0.3361   -0.2118   -0.6375 C   0  0  0  0  0  0  0  0  0  0  0  0
   -1.2376   -1.3238   -0.1985 C   0  0  0  0  0  0  0  0  0  0  0  0
   -0.9560   -1.3264    1.1947 O   0  0  0  0  0  0  0  0  0  0  0  0
   -0.0134   -0.3438    1.3278 C   0  0  0  0  0  0  0  0  0  0  0  0
   -0.5923    0.7919    0.4676 C   0  0  0  0  0  0  0  0  0  0  0  0
   -1.9430    0.8934    0.7164 O   0  0  0  0  0  0  0  0  0  0  0  0
    3.5781    1.9966   -0.1014 H   0  0  0  0  0  0  0  0  0  0  0  0
    1.2305   -1.6202    0.0791 H   0  0  0  0  0  0  0  0  0  0  0  0
   -0.2561    0.0936   -1.6345 H   0  0  0  0  0  0  0  0  0  0  0  0
   -0.9565   -2.3063   -0.6324 H   0  0  0  0  0  0  0  0  0  0  0  0
   -2.2962   -1.0640   -0.3370 H   0  0  0  0  0  0  0  0  0  0  0  0
    0.4113   -0.0863    2.2583 H   0  0  0  0  0  0  0  0  0  0  0  0
   -0.0011    1.7001    0.4499 H   0  0  0  0  0  0  0  0  0  0  0  0
   -2.3715    1.6894    0.3471 H   0  0  0  0  0  0  0  0  0  0  0  0
  1  2  3  0
  2  3  1  0
  3  4  1  0
  4  5  1  0
  5  6  1  0
  6  7  1  0
  7  8  1  0
  8  9  1  0
  7  3  1  0
  8  4  1  0
  1 10  1  0
  3 11  1  0
  4 12  1  0
  5 13  1  0
  5 14  1  0
  7 15  1  0
  8 16  1  0
  9 17  1  0
M  END
