
     RDKit          3D

 14 14  0  0  0  0  0  0  0  0999 V2000
    2.6430   -1.4911    0.1298 C   0  0  0  0  0  0  0  0  0  0  0  0
    1.6166   -0.1886    0.0226 C   0  0  0  0  0  0  0  0  0  0  0  0
    0.8100    0.8526   -0.0759 C   0  0  0  0  0  0  0  0  0  0  0  0
   -0.6613    0.2211   -0.1110 C   0  0  0  0  0  0  0  0  0  0  0  0
   -1.6078    1.3714   -0.1452 C   0  0  0  0  0  0  0  0  0  0  0  0
   -2.2264    1.6685    0.8583 O   0  0  0  0  0  0  0  0  0  0  0  0
   -0.9781   -1.0250    0.3822 C   0  0  0  0  0  0  0  0  0  0  0  0
   -0.9434   -0.7479   -1.0725 O   0  0  0  0  0  0  0  0  0  0  0  0
    3.2734   -2.2637    0.1961 H   0  0  0  0  0  0  0  0  0  0  0  0
    0.9456    1.4008    0.7743 H   0  0  0  0  0  0  0  0  0  0  0  0
    1.0492    1.3613   -1.1027 H   0  0  0  0  0  0  0  0  0  0  0  0
   -1.6901    1.8823   -1.1153 H   0  0  0  0  0  0  0  0  0  0  0  0
   -0.2058   -1.8021    0.5420 H   0  0  0  0  0  0  0  0  0  0  0  0
   -2.0249   -1.2396    0.7173 H   0  0  0  0  0  0  0  0  0  0  0  0
  1  2  3  0
  2  3  1  0
  3  4  1  0
  4  5  1  0
  5  6  2  0
  4  7  1  0
  7  8  1  0
  8  4  1  0
  1  9  1  0
  3 10  1  0
  3 11  1  0
  5 12  1  0
  7 13  1  0
  7 14  1  0
M  END
