
     RDKit          3D

 12 11  0  0  0  0  0  0  0  0999 V2000
   -1.6771   -1.7078   -0.3437 C   0  0  0  0  0  0  0  0  0  0  0  0
   -0.8352   -0.8440   -0.3693 C   0  0  0  0  0  0  0  0  0  0  0  0
    0.2027    0.2125   -0.3835 C   0  0  0  0  0  0  0  0  0  0  0  0
    0.9036    0.1175   -1.5663 O   0  0  0  0  0  0  0  0  0  0  0  0
    1.0544   -0.0294    0.7896 C   0  0  0  0  0  0  0  0  0  0  0  0
    1.7484   -0.2143    1.7704 C   0  0  0  0  0  0  0  0  0  0  0  0
   -0.4000    1.5597   -0.2489 C   0  0  0  0  0  0  0  0  0  0  0  0
   -1.0691    1.9015    0.7057 O   0  0  0  0  0  0  0  0  0  0  0  0
   -2.4181   -2.4712   -0.3056 H   0  0  0  0  0  0  0  0  0  0  0  0
    0.3814   -0.4264   -2.2242 H   0  0  0  0  0  0  0  0  0  0  0  0
    2.3597   -0.3907    2.6169 H   0  0  0  0  0  0  0  0  0  0  0  0
   -0.2506    2.2927   -1.0269 H   0  0  0  0  0  0  0  0  0  0  0  0
  1  2  3  0
  2  3  1  0
  3  4  1  0
  3  5  1  0
  5  6  3  0
  3  7  1  0
  7  8  2  0
  1  9  1  0
  4 10  1  0
  6 11  1  0
  7 12  1  0
M  END
