
     RDKit          3D

 19 18  0  0  0  0  0  0  0  0999 V2000
    2.0712    3.2741    3.2638 C   0  0  0  0  0  0  0  0  0  0  0  0
    1.7515    2.3566    2.4887 C   0  0  0  0  0  0  0  0  0  0  0  0
    1.4130    1.3621    1.6692 C   0  0  0  0  0  0  0  0  0  0  0  0
    1.0894    0.3758    0.8350 C   0  0  0  0  0  0  0  0  0  0  0  0
    0.7309   -0.6553   -0.0473 C   0  0  0  0  0  0  0  0  0  0  0  0
    0.2900   -1.9172    0.7660 C   0  0  0  0  0  0  0  0  0  0  0  0
   -0.4416   -0.1994   -0.6822 O   0  0  0  0  0  0  0  0  0  0  0  0
   -0.7864   -0.5134   -1.9159 C   0  0  0  0  0  0  0  0  0  0  0  0
   -2.0863    0.2824   -2.2993 C   0  0  0  0  0  0  0  0  0  0  0  0
    2.3165    4.0236    3.9048 H   0  0  0  0  0  0  0  0  0  0  0  0
    1.4132   -1.0567   -0.7805 H   0  0  0  0  0  0  0  0  0  0  0  0
    0.0688   -1.6155    1.8195 H   0  0  0  0  0  0  0  0  0  0  0  0
    1.1231   -2.6164    0.7284 H   0  0  0  0  0  0  0  0  0  0  0  0
   -0.6046   -2.3786    0.2805 H   0  0  0  0  0  0  0  0  0  0  0  0
   -1.1755   -1.6096   -1.9196 H   0  0  0  0  0  0  0  0  0  0  0  0
   -0.1404   -0.3988   -2.7737 H   0  0  0  0  0  0  0  0  0  0  0  0
   -2.4809   -0.2601   -3.1744 H   0  0  0  0  0  0  0  0  0  0  0  0
   -1.7822    1.2802   -2.6569 H   0  0  0  0  0  0  0  0  0  0  0  0
   -2.7699    0.2662   -1.4432 H   0  0  0  0  0  0  0  0  0  0  0  0
  1  2  3  0
  2  3  1  0
  3  4  3  0
  4  5  1  0
  5  6  1  0
  5  7  1  0
  7  8  1  0
  8  9  1  0
  1 10  1  0
  5 11  1  0
  6 12  1  0
  6 13  1  0
  6 14  1  0
  8 15  1  0
  8 16  1  0
  9 17  1  0
  9 18  1  0
  9 19  1  0
M  END
