
     RDKit          3D

 19 19  0  0  0  0  0  0  0  0999 V2000
    2.8820    0.2457   -1.8751 C   0  0  0  0  0  0  0  0  0  0  0  0
    2.0153    0.4431   -1.0610 C   0  0  0  0  0  0  0  0  0  0  0  0
    0.9449    0.6621   -0.0532 C   0  0  0  0  0  0  0  0  0  0  0  0
   -0.2054    1.1959   -0.7682 C   0  0  0  0  0  0  0  0  0  0  0  0
   -1.4747    0.8411   -0.8743 C   0  0  0  0  0  0  0  0  0  0  0  0
   -2.0869   -0.3092   -0.2166 C   0  0  0  0  0  0  0  0  0  0  0  0
   -1.6720   -0.9903    0.8409 C   0  0  0  0  0  0  0  0  0  0  0  0
   -0.4180   -0.6799    1.5994 C   0  0  0  0  0  0  0  0  0  0  0  0
    0.7743   -0.5457    0.7423 C   0  0  0  0  0  0  0  0  0  0  0  0
    3.6518    0.0891   -2.5999 H   0  0  0  0  0  0  0  0  0  0  0  0
    1.3509    1.4964    0.5927 H   0  0  0  0  0  0  0  0  0  0  0  0
    0.0066    2.0831   -1.3499 H   0  0  0  0  0  0  0  0  0  0  0  0
   -2.1221    1.4596   -1.5068 H   0  0  0  0  0  0  0  0  0  0  0  0
   -3.0281   -0.6580   -0.6665 H   0  0  0  0  0  0  0  0  0  0  0  0
   -2.2861   -1.8041    1.1505 H   0  0  0  0  0  0  0  0  0  0  0  0
   -0.5693    0.1683    2.2966 H   0  0  0  0  0  0  0  0  0  0  0  0
   -0.2587   -1.5745    2.2684 H   0  0  0  0  0  0  0  0  0  0  0  0
    0.8174   -1.4539    0.0725 H   0  0  0  0  0  0  0  0  0  0  0  0
    1.6782   -0.6690    1.4084 H   0  0  0  0  0  0  0  0  0  0  0  0
  1  2  3  0
  2  3  1  0
  3  4  1  0
  4  5  2  0
  5  6  1  0
  6  7  2  0
  7  8  1  0
  8  9  1  0
  9  3  1  0
  1 10  1  0
  3 11  1  0
  4 12  1  0
  5 13  1  0
  6 14  1  0
  7 15  1  0
  8 16  1  0
  8 17  1  0
  9 18  1  0
  9 19  1  0
M  END
