
     RDKit          3D

 17 17  0  0  0  0  0  0  0  0999 V2000
   -1.7622    3.2232   -0.5931 C   0  0  0  0  0  0  0  0  0  0  0  0
   -1.2767    2.1335   -0.4264 C   0  0  0  0  0  0  0  0  0  0  0  0
   -0.6783    0.8007   -0.2431 C   0  0  0  0  0  0  0  0  0  0  0  0
    0.2451    0.2649   -0.9962 C   0  0  0  0  0  0  0  0  0  0  0  0
    0.6660   -1.0820   -0.5889 C   0  0  0  0  0  0  0  0  0  0  0  0
    1.9466   -0.9695    0.1107 C   0  0  0  0  0  0  0  0  0  0  0  0
    3.0146   -0.8852    0.6787 C   0  0  0  0  0  0  0  0  0  0  0  0
   -0.4578   -1.4788    0.3391 C   0  0  0  0  0  0  0  0  0  0  0  0
   -1.0182   -0.1598    0.8261 C   0  0  0  0  0  0  0  0  0  0  0  0
   -2.1862    4.1832   -0.7375 H   0  0  0  0  0  0  0  0  0  0  0  0
    0.6657    0.7910   -1.8635 H   0  0  0  0  0  0  0  0  0  0  0  0
    0.7871   -1.7820   -1.4359 H   0  0  0  0  0  0  0  0  0  0  0  0
    3.9667   -0.8167    1.1653 H   0  0  0  0  0  0  0  0  0  0  0  0
    0.0162   -1.9864    1.2237 H   0  0  0  0  0  0  0  0  0  0  0  0
   -1.2225   -2.0967   -0.1437 H   0  0  0  0  0  0  0  0  0  0  0  0
   -0.5790    0.1133    1.8077 H   0  0  0  0  0  0  0  0  0  0  0  0
   -2.1271   -0.2527    0.8769 H   0  0  0  0  0  0  0  0  0  0  0  0
  1  2  3  0
  2  3  1  0
  3  4  2  0
  4  5  1  0
  5  6  1  0
  6  7  3  0
  5  8  1  0
  8  9  1  0
  9  3  1  0
  1 10  1  0
  4 11  1  0
  5 12  1  0
  7 13  1  0
  8 14  1  0
  8 15  1  0
  9 16  1  0
  9 17  1  0
M  END
