
     RDKit          3D

 17 18  0  0  0  0  0  0  0  0999 V2000
   -3.5255   -0.3190   -0.0140 C   0  0  0  0  0  0  0  0  0  0  0  0
   -2.4191   -0.0549   -0.4151 C   0  0  0  0  0  0  0  0  0  0  0  0
   -1.1069    0.2615   -0.9171 C   0  0  0  0  0  0  0  0  0  0  0  0
   -0.0353   -0.7558   -0.7133 C   0  0  0  0  0  0  0  0  0  0  0  0
    0.9271    0.2783   -0.2374 C   0  0  0  0  0  0  0  0  0  0  0  0
    1.7835   -0.0208    0.9432 C   0  0  0  0  0  0  0  0  0  0  0  0
    3.0926    0.3300    0.6371 O   0  0  0  0  0  0  0  0  0  0  0  0
    0.8946    1.5809   -0.6483 O   0  0  0  0  0  0  0  0  0  0  0  0
   -0.2807    1.2094   -0.0698 C   0  0  0  0  0  0  0  0  0  0  0  0
   -4.5070   -0.5698    0.3331 H   0  0  0  0  0  0  0  0  0  0  0  0
   -1.1120    0.5906   -1.9924 H   0  0  0  0  0  0  0  0  0  0  0  0
    0.2743   -1.3464   -1.5912 H   0  0  0  0  0  0  0  0  0  0  0  0
   -0.3187   -1.4409    0.1268 H   0  0  0  0  0  0  0  0  0  0  0  0
    1.4779    0.4926    1.8731 H   0  0  0  0  0  0  0  0  0  0  0  0
    1.6854   -1.1189    1.1580 H   0  0  0  0  0  0  0  0  0  0  0  0
    3.6995   -0.4454    0.5524 H   0  0  0  0  0  0  0  0  0  0  0  0
   -0.5297    1.3855    0.9749 H   0  0  0  0  0  0  0  0  0  0  0  0
  1  2  3  0
  2  3  1  0
  3  4  1  0
  4  5  1  0
  5  6  1  0
  6  7  1  0
  5  8  1  0
  8  9  1  0
  9  3  1  0
  9  5  1  0
  1 10  1  0
  3 11  1  0
  4 12  1  0
  4 13  1  0
  6 14  1  0
  6 15  1  0
  7 16  1  0
  9 17  1  0
M  END
