
     RDKit          3D

 21 21  0  0  0  0  0  0  0  0999 V2000
    3.4398    0.6052   -1.9545 C   0  0  0  0  0  0  0  0  0  0  0  0
    2.2315    0.1024   -1.7232 C   0  0  0  0  0  0  0  0  0  0  0  0
    0.9470   -0.4084   -1.4681 C   0  0  0  0  0  0  0  0  0  0  0  0
    0.2278    0.2720   -0.3662 C   0  0  0  0  0  0  0  0  0  0  0  0
    0.6075    0.2829    1.0591 C   0  0  0  0  0  0  0  0  0  0  0  0
   -0.7135   -0.2402    0.6087 C   0  0  0  0  0  0  0  0  0  0  0  0
   -1.0260   -1.6759    0.7955 C   0  0  0  0  0  0  0  0  0  0  0  0
   -1.9792    0.6592    0.7236 C   0  0  0  0  0  0  0  0  0  0  0  0
   -1.6288    1.9396    1.1217 O   0  0  0  0  0  0  0  0  0  0  0  0
    4.3526    0.9796   -2.1264 H   0  0  0  0  0  0  0  0  0  0  0  0
    1.0097   -1.5227   -1.2702 H   0  0  0  0  0  0  0  0  0  0  0  0
    0.3088   -0.2958   -2.3939 H   0  0  0  0  0  0  0  0  0  0  0  0
    0.0102    1.3704   -0.7110 H   0  0  0  0  0  0  0  0  0  0  0  0
    0.6218    1.2346    1.6474 H   0  0  0  0  0  0  0  0  0  0  0  0
    1.3113   -0.4919    1.4368 H   0  0  0  0  0  0  0  0  0  0  0  0
   -0.2393   -2.1882    1.3803 H   0  0  0  0  0  0  0  0  0  0  0  0
   -2.0272   -1.8698    1.2522 H   0  0  0  0  0  0  0  0  0  0  0  0
   -1.0706   -2.1500   -0.2320 H   0  0  0  0  0  0  0  0  0  0  0  0
   -2.7849    0.1754    1.2614 H   0  0  0  0  0  0  0  0  0  0  0  0
   -2.2492    0.7685   -0.3916 H   0  0  0  0  0  0  0  0  0  0  0  0
   -1.3495    2.4532    0.3379 H   0  0  0  0  0  0  0  0  0  0  0  0
  1  2  3  0
  2  3  1  0
  3  4  1  0
  4  5  1  0
  5  6  1  0
  6  7  1  0
  6  8  1  0
  8  9  1  0
  6  4  1  0
  1 10  1  0
  3 11  1  0
  3 12  1  0
  4 13  1  0
  5 14  1  0
  5 15  1  0
  7 16  1  0
  7 17  1  0
  7 18  1  0
  8 19  1  0
  8 20  1  0
  9 21  1  0
M  END
