
     RDKit          3D

 19 20  0  0  0  0  0  0  0  0999 V2000
    2.7385   -1.1265   -0.7906 C   0  0  0  0  0  0  0  0  0  0  0  0
    1.5847   -1.2116   -0.3816 C   0  0  0  0  0  0  0  0  0  0  0  0
    0.2259   -1.2888    0.1103 C   0  0  0  0  0  0  0  0  0  0  0  0
   -0.8845   -0.6235   -0.6054 C   0  0  0  0  0  0  0  0  0  0  0  0
   -0.6595    0.3310   -1.6963 C   0  0  0  0  0  0  0  0  0  0  0  0
   -0.0244    1.3992   -1.2731 C   0  0  0  0  0  0  0  0  0  0  0  0
    0.2507    1.2763    0.1703 C   0  0  0  0  0  0  0  0  0  0  0  0
   -0.4104    0.0340    0.6087 C   0  0  0  0  0  0  0  0  0  0  0  0
   -1.1555   -0.0449    1.9144 C   0  0  0  0  0  0  0  0  0  0  0  0
    3.7257   -1.0526   -1.1601 H   0  0  0  0  0  0  0  0  0  0  0  0
   -0.0289   -2.2001    0.6631 H   0  0  0  0  0  0  0  0  0  0  0  0
   -1.9139   -1.0448   -0.5724 H   0  0  0  0  0  0  0  0  0  0  0  0
   -0.9669    0.2068   -2.7463 H   0  0  0  0  0  0  0  0  0  0  0  0
    0.2679    2.2786   -1.9131 H   0  0  0  0  0  0  0  0  0  0  0  0
   -0.0567    2.1822    0.7419 H   0  0  0  0  0  0  0  0  0  0  0  0
    1.3677    1.1235    0.2800 H   0  0  0  0  0  0  0  0  0  0  0  0
   -0.4686   -0.0769    2.7610 H   0  0  0  0  0  0  0  0  0  0  0  0
   -1.8190    0.8185    2.0210 H   0  0  0  0  0  0  0  0  0  0  0  0
   -1.7730   -0.9804    1.8682 H   0  0  0  0  0  0  0  0  0  0  0  0
  1  2  3  0
  2  3  1  0
  3  4  1  0
  4  5  1  0
  5  6  2  0
  6  7  1  0
  7  8  1  0
  8  9  1  0
  8  3  1  0
  8  4  1  0
  1 10  1  0
  3 11  1  0
  4 12  1  0
  5 13  1  0
  6 14  1  0
  7 15  1  0
  7 16  1  0
  9 17  1  0
  9 18  1  0
  9 19  1  0
M  END
