
     RDKit          3D

 17 18  0  0  0  0  0  0  0  0999 V2000
    2.9057    0.6277   -0.1441 C   0  0  0  0  0  0  0  0  0  0  0  0
    1.8756    0.4366    0.4500 C   0  0  0  0  0  0  0  0  0  0  0  0
    0.6090    0.1891    1.1564 C   0  0  0  0  0  0  0  0  0  0  0  0
    0.7725   -0.9726    1.8966 O   0  0  0  0  0  0  0  0  0  0  0  0
   -0.5460    0.0778    0.2382 C   0  0  0  0  0  0  0  0  0  0  0  0
   -0.5726    0.8725   -1.0565 C   0  0  0  0  0  0  0  0  0  0  0  0
   -1.4944   -0.2298   -1.5992 C   0  0  0  0  0  0  0  0  0  0  0  0
   -1.2681   -0.9345   -0.2651 C   0  0  0  0  0  0  0  0  0  0  0  0
   -1.7738   -0.1475    0.8244 O   0  0  0  0  0  0  0  0  0  0  0  0
    3.8040    0.7919   -0.6829 H   0  0  0  0  0  0  0  0  0  0  0  0
    0.3909    1.0040    1.8801 H   0  0  0  0  0  0  0  0  0  0  0  0
    0.9615   -1.7652    1.3387 H   0  0  0  0  0  0  0  0  0  0  0  0
    0.4083    0.8743   -1.5905 H   0  0  0  0  0  0  0  0  0  0  0  0
   -1.0704    1.8557   -0.9939 H   0  0  0  0  0  0  0  0  0  0  0  0
   -2.5512    0.0662   -1.6671 H   0  0  0  0  0  0  0  0  0  0  0  0
   -1.0776   -0.7447   -2.4648 H   0  0  0  0  0  0  0  0  0  0  0  0
   -1.3735   -2.0015   -0.1727 H   0  0  0  0  0  0  0  0  0  0  0  0
  1  2  3  0
  2  3  1  0
  3  4  1  0
  3  5  1  0
  5  6  1  0
  6  7  1  0
  7  8  1  0
  8  9  1  0
  8  5  1  0
  9  5  1  0
  1 10  1  0
  3 11  1  0
  4 12  1  0
  6 13  1  0
  6 14  1  0
  7 15  1  0
  7 16  1  0
  8 17  1  0
M  END
