
     RDKit          3D

 14 13  0  0  0  0  0  0  0  0999 V2000
    1.7591    0.1278    1.7632 C   0  0  0  0  0  0  0  0  0  0  0  0
    1.2065   -0.6065    0.8974 C   0  0  0  0  0  0  0  0  0  0  0  0
    0.5640   -1.4551   -0.0713 C   0  0  0  0  0  0  0  0  0  0  0  0
   -0.2293   -0.6285   -1.0118 C   0  0  0  0  0  0  0  0  0  0  0  0
   -1.3059    0.1602   -0.3911 C   0  0  0  0  0  0  0  0  0  0  0  0
   -2.4519   -0.2975   -0.1459 O   0  0  0  0  0  0  0  0  0  0  0  0
   -1.0423    1.5366   -0.0406 C   0  0  0  0  0  0  0  0  0  0  0  0
    0.0831    2.1114   -0.2117 O   0  0  0  0  0  0  0  0  0  0  0  0
    2.2132    0.7112    2.4731 H   0  0  0  0  0  0  0  0  0  0  0  0
    1.3455   -1.9868   -0.6718 H   0  0  0  0  0  0  0  0  0  0  0  0
   -0.0798   -2.2139    0.4111 H   0  0  0  0  0  0  0  0  0  0  0  0
    0.4493    0.0613   -1.5884 H   0  0  0  0  0  0  0  0  0  0  0  0
   -0.7263   -1.2415   -1.8162 H   0  0  0  0  0  0  0  0  0  0  0  0
   -1.7852    2.2174    0.4040 H   0  0  0  0  0  0  0  0  0  0  0  0
  1  2  3  0
  2  3  1  0
  3  4  1  0
  4  5  1  0
  5  6  2  0
  5  7  1  0
  7  8  2  0
  1  9  1  0
  3 10  1  0
  3 11  1  0
  4 12  1  0
  4 13  1  0
  7 14  1  0
M  END
