
     RDKit          3D

 19 20  0  0  0  0  0  0  0  0999 V2000
    1.2905   -2.6998    2.0126 C   0  0  0  0  0  0  0  0  0  0  0  0
    0.8300   -1.8555    1.2014 C   0  0  0  0  0  0  0  0  0  0  0  0
    0.3384   -0.9058    0.2930 C   0  0  0  0  0  0  0  0  0  0  0  0
    0.1217    0.4866    1.0788 C   0  0  0  0  0  0  0  0  0  0  0  0
    0.5423    1.5291    0.1158 C   0  0  0  0  0  0  0  0  0  0  0  0
   -0.1313    1.2870   -1.2110 C   0  0  0  0  0  0  0  0  0  0  0  0
   -1.1320    0.1989   -1.2635 C   0  0  0  0  0  0  0  0  0  0  0  0
   -1.0595   -0.6491    0.0442 C   0  0  0  0  0  0  0  0  0  0  0  0
   -1.2159    0.2271    1.0889 O   0  0  0  0  0  0  0  0  0  0  0  0
    1.7125   -3.4564    2.7606 H   0  0  0  0  0  0  0  0  0  0  0  0
    1.0929   -0.7033   -0.5445 H   0  0  0  0  0  0  0  0  0  0  0  0
    0.6249    0.4091    2.0609 H   0  0  0  0  0  0  0  0  0  0  0  0
    1.6464    1.5746   -0.0689 H   0  0  0  0  0  0  0  0  0  0  0  0
    0.2161    2.5318    0.5312 H   0  0  0  0  0  0  0  0  0  0  0  0
   -0.7632    2.2523   -1.4533 H   0  0  0  0  0  0  0  0  0  0  0  0
    0.6318    1.2204   -2.0714 H   0  0  0  0  0  0  0  0  0  0  0  0
   -2.1652    0.5237   -1.3424 H   0  0  0  0  0  0  0  0  0  0  0  0
   -0.7717   -0.5035   -2.0965 H   0  0  0  0  0  0  0  0  0  0  0  0
   -1.8089   -1.4670    0.0821 H   0  0  0  0  0  0  0  0  0  0  0  0
  1  2  3  0
  2  3  1  0
  3  4  1  0
  4  5  1  0
  5  6  1  0
  6  7  1  0
  7  8  1  0
  8  9  1  0
  8  3  1  0
  9  4  1  0
  1 10  1  0
  3 11  1  0
  4 12  1  0
  5 13  1  0
  5 14  1  0
  6 15  1  0
  6 16  1  0
  7 17  1  0
  7 18  1  0
  8 19  1  0
M  END
