
     RDKit          3D

 15 14  0  0  0  0  0  0  0  0999 V2000
    2.4304   -0.8713    1.8368 C   0  0  0  0  0  0  0  0  0  0  0  0
    1.9782   -0.2780    0.8767 C   0  0  0  0  0  0  0  0  0  0  0  0
    1.4359    0.4057   -0.2525 C   0  0  0  0  0  0  0  0  0  0  0  0
    2.1303    0.7032   -1.2425 O   0  0  0  0  0  0  0  0  0  0  0  0
    0.0046    0.7797   -0.2627 C   0  0  0  0  0  0  0  0  0  0  0  0
   -0.3442    1.4270   -1.4414 O   0  0  0  0  0  0  0  0  0  0  0  0
   -0.7952   -0.4849   -0.0507 C   0  0  0  0  0  0  0  0  0  0  0  0
   -2.2564   -0.2223   -0.0434 C   0  0  0  0  0  0  0  0  0  0  0  0
   -2.6490    0.9215   -0.2003 O   0  0  0  0  0  0  0  0  0  0  0  0
    2.8226   -1.4031    2.6623 H   0  0  0  0  0  0  0  0  0  0  0  0
   -0.1629    1.4754    0.5866 H   0  0  0  0  0  0  0  0  0  0  0  0
   -0.4664    0.6938   -2.1254 H   0  0  0  0  0  0  0  0  0  0  0  0
   -0.5302   -0.9236    0.9222 H   0  0  0  0  0  0  0  0  0  0  0  0
   -0.6072   -1.2374   -0.8363 H   0  0  0  0  0  0  0  0  0  0  0  0
   -2.9904   -0.9857    0.0928 H   0  0  0  0  0  0  0  0  0  0  0  0
  1  2  3  0
  2  3  1  0
  3  4  2  0
  3  5  1  0
  5  6  1  0
  5  7  1  0
  7  8  1  0
  8  9  2  0
  1 10  1  0
  5 11  1  0
  6 12  1  0
  7 13  1  0
  7 14  1  0
  8 15  1  0
M  END
