
     RDKit          3D

 17 18  0  0  0  0  0  0  0  0999 V2000
    1.1329   -2.8426    0.0188 C   0  0  0  0  0  0  0  0  0  0  0  0
    1.2189   -1.5844    0.3070 C   0  0  0  0  0  0  0  0  0  0  0  0
    1.2891   -0.2043    0.6167 C   0  0  0  0  0  0  0  0  0  0  0  0
    0.1539    0.2577    1.3676 O   0  0  0  0  0  0  0  0  0  0  0  0
   -0.4538    0.3313    0.1350 C   0  0  0  0  0  0  0  0  0  0  0  0
   -1.6940    1.0955    0.0201 C   0  0  0  0  0  0  0  0  0  0  0  0
   -1.6009   -0.3318   -0.3714 C   0  0  0  0  0  0  0  0  0  0  0  0
    0.8249    0.6990   -0.5519 C   0  0  0  0  0  0  0  0  0  0  0  0
    1.1497    2.0302   -0.3550 O   0  0  0  0  0  0  0  0  0  0  0  0
    1.0826   -3.8327   -0.2113 H   0  0  0  0  0  0  0  0  0  0  0  0
    2.2468    0.1681    0.9840 H   0  0  0  0  0  0  0  0  0  0  0  0
   -2.2637    1.3504    0.9449 H   0  0  0  0  0  0  0  0  0  0  0  0
   -1.6763    1.9300   -0.7145 H   0  0  0  0  0  0  0  0  0  0  0  0
   -1.6918   -0.5537   -1.4445 H   0  0  0  0  0  0  0  0  0  0  0  0
   -2.1671   -1.0509    0.2573 H   0  0  0  0  0  0  0  0  0  0  0  0
    0.9784    0.2914   -1.5460 H   0  0  0  0  0  0  0  0  0  0  0  0
    1.4704    2.2467    0.5429 H   0  0  0  0  0  0  0  0  0  0  0  0
  1  2  3  0
  2  3  1  0
  3  4  1  0
  4  5  1  0
  5  6  1  0
  6  7  1  0
  5  8  1  0
  8  9  1  0
  8  3  1  0
  7  5  1  0
  1 10  1  0
  3 11  1  0
  6 12  1  0
  6 13  1  0
  7 14  1  0
  7 15  1  0
  8 16  1  0
  9 17  1  0
M  END
