
     RDKit          3D

 23 23  0  0  0  0  0  0  0  0999 V2000
    3.0800   -1.5699    0.8513 C   0  0  0  0  0  0  0  0  0  0  0  0
    1.8531   -1.7652    0.5600 C   0  0  0  0  0  0  0  0  0  0  0  0
    0.5367   -1.9937    0.2566 C   0  0  0  0  0  0  0  0  0  0  0  0
   -0.5904   -1.1693    0.6262 C   0  0  0  0  0  0  0  0  0  0  0  0
   -0.6438    0.2115    0.1698 C   0  0  0  0  0  0  0  0  0  0  0  0
   -1.9436    0.9064    0.5638 C   0  0  0  0  0  0  0  0  0  0  0  0
    0.4957    1.1542    0.5133 C   0  0  0  0  0  0  0  0  0  0  0  0
    0.3027    1.8320   -0.8522 C   0  0  0  0  0  0  0  0  0  0  0  0
   -0.3692    0.5293   -1.2827 C   0  0  0  0  0  0  0  0  0  0  0  0
    4.0592   -1.4149    1.0655 H   0  0  0  0  0  0  0  0  0  0  0  0
    0.5013   -2.1958   -0.9277 H   0  0  0  0  0  0  0  0  0  0  0  0
    0.2689   -3.0953    0.5319 H   0  0  0  0  0  0  0  0  0  0  0  0
   -1.5373   -1.7219    0.2801 H   0  0  0  0  0  0  0  0  0  0  0  0
   -0.7130   -1.2164    1.7473 H   0  0  0  0  0  0  0  0  0  0  0  0
   -1.7915    2.0209    0.6983 H   0  0  0  0  0  0  0  0  0  0  0  0
   -2.6269    0.8586   -0.3351 H   0  0  0  0  0  0  0  0  0  0  0  0
   -2.4172    0.5333    1.4644 H   0  0  0  0  0  0  0  0  0  0  0  0
    1.4747    0.7282    0.6649 H   0  0  0  0  0  0  0  0  0  0  0  0
    0.2412    1.8710    1.3273 H   0  0  0  0  0  0  0  0  0  0  0  0
    1.2400    2.0671   -1.3343 H   0  0  0  0  0  0  0  0  0  0  0  0
   -0.4064    2.6950   -0.8172 H   0  0  0  0  0  0  0  0  0  0  0  0
    0.3023   -0.0637   -1.8580 H   0  0  0  0  0  0  0  0  0  0  0  0
   -1.3162    0.7987   -1.8478 H   0  0  0  0  0  0  0  0  0  0  0  0
  1  2  3  0
  2  3  1  0
  3  4  1  0
  4  5  1  0
  5  6  1  0
  5  7  1  0
  7  8  1  0
  8  9  1  0
  9  5  1  0
  1 10  1  0
  3 11  1  0
  3 12  1  0
  4 13  1  0
  4 14  1  0
  6 15  1  0
  6 16  1  0
  6 17  1  0
  7 18  1  0
  7 19  1  0
  8 20  1  0
  8 21  1  0
  9 22  1  0
  9 23  1  0
M  END
