
     RDKit          3D

 16 15  0  0  0  0  0  0  0  0999 V2000
   -0.8225    2.0616    2.4351 C   0  0  0  0  0  0  0  0  0  0  0  0
   -0.7068    1.0729    1.7701 C   0  0  0  0  0  0  0  0  0  0  0  0
   -0.5647   -0.1485    0.9473 C   0  0  0  0  0  0  0  0  0  0  0  0
   -0.3357   -1.3224    1.8627 C   0  0  0  0  0  0  0  0  0  0  0  0
    0.4109    0.0137   -0.0275 O   0  0  0  0  0  0  0  0  0  0  0  0
    0.2231   -0.0245   -1.3767 C   0  0  0  0  0  0  0  0  0  0  0  0
    1.3213    0.1588   -2.3536 C   0  0  0  0  0  0  0  0  0  0  0  0
   -0.9322   -0.2241   -1.8186 O   0  0  0  0  0  0  0  0  0  0  0  0
   -0.9438    2.9407    3.0237 H   0  0  0  0  0  0  0  0  0  0  0  0
   -1.5401   -0.3155    0.4469 H   0  0  0  0  0  0  0  0  0  0  0  0
   -0.0196   -2.1977    1.2449 H   0  0  0  0  0  0  0  0  0  0  0  0
   -1.3211   -1.6111    2.3043 H   0  0  0  0  0  0  0  0  0  0  0  0
    0.3776   -1.0952    2.6787 H   0  0  0  0  0  0  0  0  0  0  0  0
    0.9214    0.6764   -3.2379 H   0  0  0  0  0  0  0  0  0  0  0  0
    1.7978   -0.8030   -2.6352 H   0  0  0  0  0  0  0  0  0  0  0  0
    2.1344    0.8180   -1.9336 H   0  0  0  0  0  0  0  0  0  0  0  0
  1  2  3  0
  2  3  1  0
  3  4  1  0
  3  5  1  0
  5  6  1  0
  6  7  1  0
  6  8  2  0
  1  9  1  0
  3 10  1  0
  4 11  1  0
  4 12  1  0
  4 13  1  0
  7 14  1  0
  7 15  1  0
  7 16  1  0
M  END
