
     RDKit          3D

 20 19  0  0  0  0  0  0  0  0999 V2000
    3.4432    0.5027    0.3974 C   0  0  0  0  0  0  0  0  0  0  0  0
    2.4318    1.1639    0.3866 C   0  0  0  0  0  0  0  0  0  0  0  0
    1.1982    1.9522    0.3852 C   0  0  0  0  0  0  0  0  0  0  0  0
   -0.0131    1.1075    0.7178 C   0  0  0  0  0  0  0  0  0  0  0  0
   -0.1868   -0.0121   -0.2928 C   0  0  0  0  0  0  0  0  0  0  0  0
   -1.3860   -0.8528    0.0316 C   0  0  0  0  0  0  0  0  0  0  0  0
   -1.5427   -1.9476   -0.9700 C   0  0  0  0  0  0  0  0  0  0  0  0
   -1.2695   -1.2922    1.3397 O   0  0  0  0  0  0  0  0  0  0  0  0
    4.3317   -0.0960    0.3992 H   0  0  0  0  0  0  0  0  0  0  0  0
    1.2337    2.7618    1.1512 H   0  0  0  0  0  0  0  0  0  0  0  0
    1.0868    2.4027   -0.6216 H   0  0  0  0  0  0  0  0  0  0  0  0
    0.1161    0.6778    1.7240 H   0  0  0  0  0  0  0  0  0  0  0  0
   -0.8932    1.7735    0.6819 H   0  0  0  0  0  0  0  0  0  0  0  0
   -0.2581    0.3878   -1.3207 H   0  0  0  0  0  0  0  0  0  0  0  0
    0.7478   -0.6347   -0.2290 H   0  0  0  0  0  0  0  0  0  0  0  0
   -2.2818   -0.1848   -0.0173 H   0  0  0  0  0  0  0  0  0  0  0  0
   -1.0530   -1.6139   -1.9192 H   0  0  0  0  0  0  0  0  0  0  0  0
   -1.0480   -2.9032   -0.6746 H   0  0  0  0  0  0  0  0  0  0  0  0
   -2.6094   -2.1378   -1.2121 H   0  0  0  0  0  0  0  0  0  0  0  0
   -2.0477   -1.0548    1.8830 H   0  0  0  0  0  0  0  0  0  0  0  0
  1  2  3  0
  2  3  1  0
  3  4  1  0
  4  5  1  0
  5  6  1  0
  6  7  1  0
  6  8  1  0
  1  9  1  0
  3 10  1  0
  3 11  1  0
  4 12  1  0
  4 13  1  0
  5 14  1  0
  5 15  1  0
  6 16  1  0
  7 17  1  0
  7 18  1  0
  7 19  1  0
  8 20  1  0
M  END
