
     RDKit          3D

 19 18  0  0  0  0  0  0  0  0999 V2000
    2.9829    0.4000   -0.5905 C   0  0  0  0  0  0  0  0  0  0  0  0
    1.9402   -0.2967   -0.4635 C   0  0  0  0  0  0  0  0  0  0  0  0
    0.6676   -1.1208   -0.3059 C   0  0  0  0  0  0  0  0  0  0  0  0
    1.0547   -2.3867   -0.7881 O   0  0  0  0  0  0  0  0  0  0  0  0
   -0.4259   -0.5677   -0.9793 C   0  0  0  0  0  0  0  0  0  0  0  0
   -1.0075    0.8097   -0.7292 C   0  0  0  0  0  0  0  0  0  0  0  0
   -1.6124    0.8958    0.6628 C   0  0  0  0  0  0  0  0  0  0  0  0
   -0.6591    0.8734    1.7995 C   0  0  0  0  0  0  0  0  0  0  0  0
   -2.7976    0.9738    0.6995 O   0  0  0  0  0  0  0  0  0  0  0  0
    3.8287    0.9850   -0.6882 H   0  0  0  0  0  0  0  0  0  0  0  0
    0.5588   -1.2244    0.8399 H   0  0  0  0  0  0  0  0  0  0  0  0
    0.3880   -2.7389   -1.4279 H   0  0  0  0  0  0  0  0  0  0  0  0
   -1.3592   -1.2354   -0.7951 H   0  0  0  0  0  0  0  0  0  0  0  0
   -0.2859   -0.7284   -2.1242 H   0  0  0  0  0  0  0  0  0  0  0  0
   -1.8062    0.9831   -1.4520 H   0  0  0  0  0  0  0  0  0  0  0  0
   -0.2341    1.6467   -0.7586 H   0  0  0  0  0  0  0  0  0  0  0  0
   -0.8508    1.7884    2.4537 H   0  0  0  0  0  0  0  0  0  0  0  0
    0.3812    0.9841    1.4788 H   0  0  0  0  0  0  0  0  0  0  0  0
   -0.7638   -0.0410    2.3975 H   0  0  0  0  0  0  0  0  0  0  0  0
  1  2  3  0
  2  3  1  0
  3  4  1  0
  3  5  1  0
  5  6  1  0
  6  7  1  0
  7  8  1  0
  7  9  2  0
  1 10  1  0
  3 11  1  0
  4 12  1  0
  5 13  1  0
  5 14  1  0
  6 15  1  0
  6 16  1  0
  8 17  1  0
  8 18  1  0
  8 19  1  0
M  END
