
     RDKit          3D

 19 20  0  0  0  0  0  0  0  0999 V2000
    3.2625    0.9774   -0.6556 C   0  0  0  0  0  0  0  0  0  0  0  0
    2.4165    0.2668   -0.2187 C   0  0  0  0  0  0  0  0  0  0  0  0
    1.3898   -0.6095    0.3346 C   0  0  0  0  0  0  0  0  0  0  0  0
    0.7975   -1.3927   -0.6914 O   0  0  0  0  0  0  0  0  0  0  0  0
   -0.5314   -1.0956   -0.5853 C   0  0  0  0  0  0  0  0  0  0  0  0
   -0.8254   -1.0107    0.9203 C   0  0  0  0  0  0  0  0  0  0  0  0
    0.1859    0.1418    0.8049 C   0  0  0  0  0  0  0  0  0  0  0  0
   -0.5216    0.4416   -0.5009 C   0  0  0  0  0  0  0  0  0  0  0  0
   -1.9290    0.9361   -0.3348 C   0  0  0  0  0  0  0  0  0  0  0  0
    4.0406    1.6159   -1.0413 H   0  0  0  0  0  0  0  0  0  0  0  0
    1.7713   -1.3064    1.0962 H   0  0  0  0  0  0  0  0  0  0  0  0
   -1.2640   -1.5425   -1.2023 H   0  0  0  0  0  0  0  0  0  0  0  0
   -1.8314   -0.6559    1.1346 H   0  0  0  0  0  0  0  0  0  0  0  0
   -0.4253   -1.8379    1.5089 H   0  0  0  0  0  0  0  0  0  0  0  0
    0.2242    0.8564    1.5699 H   0  0  0  0  0  0  0  0  0  0  0  0
    0.0809    0.9026   -1.2810 H   0  0  0  0  0  0  0  0  0  0  0  0
   -2.6959    0.1581   -0.5307 H   0  0  0  0  0  0  0  0  0  0  0  0
   -2.0831    1.3377    0.6967 H   0  0  0  0  0  0  0  0  0  0  0  0
   -2.0621    1.8170   -1.0241 H   0  0  0  0  0  0  0  0  0  0  0  0
  1  2  3  0
  2  3  1  0
  3  4  1  0
  4  5  1  0
  5  6  1  0
  6  7  1  0
  7  8  1  0
  8  9  1  0
  7  3  1  0
  8  5  1  0
  1 10  1  0
  3 11  1  0
  5 12  1  0
  6 13  1  0
  6 14  1  0
  7 15  1  0
  8 16  1  0
  9 17  1  0
  9 18  1  0
  9 19  1  0
M  END
