
     RDKit          3D

 15 16  0  0  0  0  0  0  0  0999 V2000
    2.4600    0.1328   -0.6312 C   0  0  0  0  0  0  0  0  0  0  0  0
    1.2446    0.2640   -0.5300 C   0  0  0  0  0  0  0  0  0  0  0  0
   -0.2301    0.4493   -0.4080 C   0  0  0  0  0  0  0  0  0  0  0  0
   -0.6038    1.6203    0.3034 C   0  0  0  0  0  0  0  0  0  0  0  0
   -0.7575    0.4435    1.0905 C   0  0  0  0  0  0  0  0  0  0  0  0
   -0.0004   -0.8408    1.0288 C   0  0  0  0  0  0  0  0  0  0  0  0
    0.8161   -1.5069    1.5927 O   0  0  0  0  0  0  0  0  0  0  0  0
   -0.8324   -0.9554   -0.2416 C   0  0  0  0  0  0  0  0  0  0  0  0
   -0.2897   -1.8522   -1.1260 O   0  0  0  0  0  0  0  0  0  0  0  0
    3.5100    0.0356   -0.7092 H   0  0  0  0  0  0  0  0  0  0  0  0
   -1.4875    2.1984   -0.1014 H   0  0  0  0  0  0  0  0  0  0  0  0
    0.1682    2.3670    0.6593 H   0  0  0  0  0  0  0  0  0  0  0  0
   -1.8482    0.1296    1.1923 H   0  0  0  0  0  0  0  0  0  0  0  0
   -1.9036   -0.9848   -0.0568 H   0  0  0  0  0  0  0  0  0  0  0  0
   -0.2457   -1.5004   -2.0628 H   0  0  0  0  0  0  0  0  0  0  0  0
  1  2  3  0
  2  3  1  0
  3  4  1  0
  4  5  1  0
  5  6  1  0
  6  7  2  0
  6  8  1  0
  8  9  1  0
  5  3  1  0
  8  3  1  0
  1 10  1  0
  4 11  1  0
  4 12  1  0
  5 13  1  0
  8 14  1  0
  9 15  1  0
M  END
