
     RDKit          3D

 19 21  0  0  0  0  0  0  0  0999 V2000
    3.3287    0.2694   -0.7192 C   0  0  0  0  0  0  0  0  0  0  0  0
    2.3855   -0.3956   -0.3698 C   0  0  0  0  0  0  0  0  0  0  0  0
    1.2123   -1.1981    0.0632 C   0  0  0  0  0  0  0  0  0  0  0  0
   -0.1308   -0.8817   -0.4053 C   0  0  0  0  0  0  0  0  0  0  0  0
   -1.4113   -0.9268    0.3625 C   0  0  0  0  0  0  0  0  0  0  0  0
   -2.1638    0.1051    1.0099 C   0  0  0  0  0  0  0  0  0  0  0  0
   -0.7384    0.3822    0.9317 C   0  0  0  0  0  0  0  0  0  0  0  0
   -0.4436    1.5306    0.0459 C   0  0  0  0  0  0  0  0  0  0  0  0
    0.3777   -0.5995    1.0624 C   0  0  0  0  0  0  0  0  0  0  0  0
    4.1522    0.8472   -1.0285 H   0  0  0  0  0  0  0  0  0  0  0  0
    1.4739   -2.2910    0.0439 H   0  0  0  0  0  0  0  0  0  0  0  0
   -0.1353   -0.0708   -1.1249 H   0  0  0  0  0  0  0  0  0  0  0  0
   -1.3310   -1.8337    1.0410 H   0  0  0  0  0  0  0  0  0  0  0  0
   -2.5441    0.0532    2.0749 H   0  0  0  0  0  0  0  0  0  0  0  0
   -2.9329    0.6241    0.3790 H   0  0  0  0  0  0  0  0  0  0  0  0
   -1.1506    1.6620   -0.8088 H   0  0  0  0  0  0  0  0  0  0  0  0
    0.6172    1.6188   -0.2810 H   0  0  0  0  0  0  0  0  0  0  0  0
   -0.6076    2.4666    0.6651 H   0  0  0  0  0  0  0  0  0  0  0  0
    0.0418   -1.3621    1.8339 H   0  0  0  0  0  0  0  0  0  0  0  0
  1  2  3  0
  2  3  1  0
  3  4  1  0
  4  5  1  0
  5  6  1  0
  6  7  1  0
  7  8  1  0
  7  9  1  0
  9  3  1  0
  9  4  1  0
  7  5  1  0
  1 10  1  0
  3 11  1  0
  4 12  1  0
  5 13  1  0
  6 14  1  0
  6 15  1  0
  8 16  1  0
  8 17  1  0
  8 18  1  0
  9 19  1  0
M  END
