
     RDKit          3D

 19 19  0  0  0  0  0  0  0  0999 V2000
    0.1780    2.6792    1.0967 C   0  0  0  0  0  0  0  0  0  0  0  0
   -0.0128    1.7737    0.2837 C   0  0  0  0  0  0  0  0  0  0  0  0
   -0.2077    0.7299   -0.6465 C   0  0  0  0  0  0  0  0  0  0  0  0
    0.3627   -0.6432   -0.1475 C   0  0  0  0  0  0  0  0  0  0  0  0
   -0.2753   -0.9875    1.1003 C   0  0  0  0  0  0  0  0  0  0  0  0
    0.1095   -2.2823    1.8013 C   0  0  0  0  0  0  0  0  0  0  0  0
   -1.1209   -0.2926    1.6506 O   0  0  0  0  0  0  0  0  0  0  0  0
    0.4594    1.0249   -2.0201 C   0  0  0  0  0  0  0  0  0  0  0  0
   -0.9783    0.7175   -1.8679 C   0  0  0  0  0  0  0  0  0  0  0  0
    0.3388    3.4717    1.8013 H   0  0  0  0  0  0  0  0  0  0  0  0
    1.4754   -0.6145   -0.1480 H   0  0  0  0  0  0  0  0  0  0  0  0
    0.1062   -1.3494   -0.9826 H   0  0  0  0  0  0  0  0  0  0  0  0
    0.6824   -1.9934    2.7406 H   0  0  0  0  0  0  0  0  0  0  0  0
    0.7515   -2.8552    1.1417 H   0  0  0  0  0  0  0  0  0  0  0  0
   -0.7752   -2.8307    2.1461 H   0  0  0  0  0  0  0  0  0  0  0  0
    0.7688    2.0415   -2.2399 H   0  0  0  0  0  0  0  0  0  0  0  0
    1.1773    0.2357   -2.3472 H   0  0  0  0  0  0  0  0  0  0  0  0
   -1.3467   -0.3127   -2.2319 H   0  0  0  0  0  0  0  0  0  0  0  0
   -1.6931    1.4875   -2.1661 H   0  0  0  0  0  0  0  0  0  0  0  0
  1  2  3  0
  2  3  1  0
  3  4  1  0
  4  5  1  0
  5  6  1  0
  5  7  2  0
  3  8  1  0
  8  9  1  0
  9  3  1  0
  1 10  1  0
  4 11  1  0
  4 12  1  0
  6 13  1  0
  6 14  1  0
  6 15  1  0
  8 16  1  0
  8 17  1  0
  9 18  1  0
  9 19  1  0
M  END
