
     RDKit          3D

 19 20  0  0  0  0  0  0  0  0999 V2000
    3.4248    0.8536    0.4746 C   0  0  0  0  0  0  0  0  0  0  0  0
    2.4100    0.1846    0.3943 C   0  0  0  0  0  0  0  0  0  0  0  0
    1.2130   -0.6181    0.2770 C   0  0  0  0  0  0  0  0  0  0  0  0
    0.7742   -0.9259   -1.1500 C   0  0  0  0  0  0  0  0  0  0  0  0
   -0.5969   -0.4203   -0.9015 C   0  0  0  0  0  0  0  0  0  0  0  0
   -1.3070   -0.5894    0.3771 C   0  0  0  0  0  0  0  0  0  0  0  0
   -2.5508    0.2065    0.6245 C   0  0  0  0  0  0  0  0  0  0  0  0
   -0.0404    0.1942    0.4221 C   0  0  0  0  0  0  0  0  0  0  0  0
   -0.0188    1.5603    0.4251 O   0  0  0  0  0  0  0  0  0  0  0  0
    4.3214    1.4228    0.5422 H   0  0  0  0  0  0  0  0  0  0  0  0
    1.1639   -1.5087    0.9458 H   0  0  0  0  0  0  0  0  0  0  0  0
    0.8996   -1.9776   -1.4287 H   0  0  0  0  0  0  0  0  0  0  0  0
    1.3272   -0.2188   -1.8343 H   0  0  0  0  0  0  0  0  0  0  0  0
   -1.0296    0.2734   -1.6257 H   0  0  0  0  0  0  0  0  0  0  0  0
   -1.2687   -1.5572    0.9400 H   0  0  0  0  0  0  0  0  0  0  0  0
   -2.4159    1.2969    0.5018 H   0  0  0  0  0  0  0  0  0  0  0  0
   -3.3749   -0.0692   -0.0938 H   0  0  0  0  0  0  0  0  0  0  0  0
   -2.9630   -0.0053    1.6337 H   0  0  0  0  0  0  0  0  0  0  0  0
    0.0318    1.8981   -0.5241 H   0  0  0  0  0  0  0  0  0  0  0  0
  1  2  3  0
  2  3  1  0
  3  4  1  0
  4  5  1  0
  5  6  1  0
  6  7  1  0
  6  8  1  0
  8  9  1  0
  8  3  1  0
  8  5  1  0
  1 10  1  0
  3 11  1  0
  4 12  1  0
  4 13  1  0
  5 14  1  0
  6 15  1  0
  7 16  1  0
  7 17  1  0
  7 18  1  0
  9 19  1  0
M  END
