
     RDKit          3D

 15 16  0  0  0  0  0  0  0  0999 V2000
    3.1055    0.7095    1.5040 C   0  0  0  0  0  0  0  0  0  0  0  0
    2.1874    0.5369    0.7293 C   0  0  0  0  0  0  0  0  0  0  0  0
    1.0817    0.3511   -0.2119 C   0  0  0  0  0  0  0  0  0  0  0  0
   -0.2309    0.8391    0.2750 C   0  0  0  0  0  0  0  0  0  0  0  0
   -0.1878   -0.1869    1.2167 O   0  0  0  0  0  0  0  0  0  0  0  0
    0.2327   -0.8465    0.0725 C   0  0  0  0  0  0  0  0  0  0  0  0
   -0.8872   -0.1532   -0.6381 C   0  0  0  0  0  0  0  0  0  0  0  0
   -2.1973   -0.5599   -0.1845 C   0  0  0  0  0  0  0  0  0  0  0  0
   -3.2989   -0.9073    0.1821 C   0  0  0  0  0  0  0  0  0  0  0  0
    3.9115    0.8754    2.1783 H   0  0  0  0  0  0  0  0  0  0  0  0
    1.3423    0.5443   -1.2648 H   0  0  0  0  0  0  0  0  0  0  0  0
   -0.5263    1.7874    0.4453 H   0  0  0  0  0  0  0  0  0  0  0  0
    0.4969   -1.8157   -0.0064 H   0  0  0  0  0  0  0  0  0  0  0  0
   -0.7585    0.0209   -1.7164 H   0  0  0  0  0  0  0  0  0  0  0  0
   -4.2712   -1.1951    0.5085 H   0  0  0  0  0  0  0  0  0  0  0  0
  1  2  3  0
  2  3  1  0
  3  4  1  0
  4  5  1  0
  5  6  1  0
  6  7  1  0
  7  8  1  0
  8  9  3  0
  6  3  1  0
  7  4  1  0
  1 10  1  0
  3 11  1  0
  4 12  1  0
  6 13  1  0
  7 14  1  0
  9 15  1  0
M  END
