
     RDKit          3D

 19 19  0  0  0  0  0  0  0  0999 V2000
    3.0950    0.9634   -0.5973 C   0  0  0  0  0  0  0  0  0  0  0  0
    2.0488    0.3044    0.0340 C   0  0  0  0  0  0  0  0  0  0  0  0
    1.0783   -0.2819    0.6212 C   0  0  0  0  0  0  0  0  0  0  0  0
    0.0300    0.8848    1.0948 C   0  0  0  0  0  0  0  0  0  0  0  0
   -0.4005    0.9065   -0.3692 C   0  0  0  0  0  0  0  0  0  0  0  0
   -1.7486    1.0319   -0.5748 O   0  0  0  0  0  0  0  0  0  0  0  0
   -0.0860   -0.6551   -0.3586 C   0  0  0  0  0  0  0  0  0  0  0  0
   -1.2182   -1.4112    0.2323 C   0  0  0  0  0  0  0  0  0  0  0  0
   -2.1974   -1.7747   -0.7366 O   0  0  0  0  0  0  0  0  0  0  0  0
    3.9720    1.5064   -1.1328 H   0  0  0  0  0  0  0  0  0  0  0  0
    1.2180   -0.9942    1.4150 H   0  0  0  0  0  0  0  0  0  0  0  0
    0.7321    1.7722    1.2822 H   0  0  0  0  0  0  0  0  0  0  0  0
   -0.6054    0.5874    1.8350 H   0  0  0  0  0  0  0  0  0  0  0  0
    0.2538    1.4374   -1.0841 H   0  0  0  0  0  0  0  0  0  0  0  0
   -1.9543    2.0143   -0.7864 H   0  0  0  0  0  0  0  0  0  0  0  0
    0.2485   -1.0225   -1.3126 H   0  0  0  0  0  0  0  0  0  0  0  0
   -0.9585   -2.2180    0.9114 H   0  0  0  0  0  0  0  0  0  0  0  0
   -1.8147   -0.6195    0.8461 H   0  0  0  0  0  0  0  0  0  0  0  0
   -1.6928   -2.4317   -1.3194 H   0  0  0  0  0  0  0  0  0  0  0  0
  1  2  3  0
  2  3  1  0
  3  4  1  0
  4  5  1  0
  5  6  1  0
  5  7  1  0
  7  8  1  0
  8  9  1  0
  7  3  1  0
  1 10  1  0
  3 11  1  0
  4 12  1  0
  4 13  1  0
  5 14  1  0
  6 15  1  0
  7 16  1  0
  8 17  1  0
  8 18  1  0
  9 19  1  0
M  END
