
     RDKit          3D

 14 15  0  0  0  0  0  0  0  0999 V2000
    2.5374   -1.6587   -0.5526 C   0  0  0  0  0  0  0  0  0  0  0  0
    1.2898   -1.2279   -0.7178 C   0  0  0  0  0  0  0  0  0  0  0  0
    0.0095   -0.7794   -0.9112 C   0  0  0  0  0  0  0  0  0  0  0  0
   -1.1258   -1.3089   -0.1107 O   0  0  0  0  0  0  0  0  0  0  0  0
   -0.6624   -0.0270    0.0429 C   0  0  0  0  0  0  0  0  0  0  0  0
   -1.3564    1.2253   -0.1499 C   0  0  0  0  0  0  0  0  0  0  0  0
   -0.1423    1.7995    0.4973 O   0  0  0  0  0  0  0  0  0  0  0  0
   -0.1259    0.5738    1.3004 C   0  0  0  0  0  0  0  0  0  0  0  0
    3.5708   -1.9980   -0.4077 H   0  0  0  0  0  0  0  0  0  0  0  0
   -0.3100   -0.7314   -1.9944 H   0  0  0  0  0  0  0  0  0  0  0  0
   -2.1675    1.5511    0.5228 H   0  0  0  0  0  0  0  0  0  0  0  0
   -1.4407    1.6497   -1.1798 H   0  0  0  0  0  0  0  0  0  0  0  0
   -0.9257    0.6927    2.0623 H   0  0  0  0  0  0  0  0  0  0  0  0
    0.8490    0.2391    1.5985 H   0  0  0  0  0  0  0  0  0  0  0  0
  1  2  3  0
  2  3  1  0
  3  4  1  0
  4  5  1  0
  5  6  1  0
  6  7  1  0
  7  8  1  0
  5  3  1  0
  8  5  1  0
  1  9  1  0
  3 10  1  0
  6 11  1  0
  6 12  1  0
  8 13  1  0
  8 14  1  0
M  END
