
     RDKit          3D

 12 12  0  0  0  0  0  0  0  0999 V2000
    1.0275   -2.4127    1.0586 C   0  0  0  0  0  0  0  0  0  0  0  0
    0.8362   -1.2082    0.7401 C   0  0  0  0  0  0  0  0  0  0  0  0
    0.6031    0.1475    0.3919 C   0  0  0  0  0  0  0  0  0  0  0  0
    1.2438    0.5770   -0.8308 O   0  0  0  0  0  0  0  0  0  0  0  0
    0.1868    1.4601   -0.9171 C   0  0  0  0  0  0  0  0  0  0  0  0
    0.1304    2.6404   -1.3127 O   0  0  0  0  0  0  0  0  0  0  0  0
   -0.6690    0.3831   -0.3685 C   0  0  0  0  0  0  0  0  0  0  0  0
   -1.7414    0.8429    0.4232 O   0  0  0  0  0  0  0  0  0  0  0  0
    1.1964   -3.3958    1.3105 H   0  0  0  0  0  0  0  0  0  0  0  0
    0.6985    0.9139    1.1882 H   0  0  0  0  0  0  0  0  0  0  0  0
   -0.9493   -0.3830   -1.1136 H   0  0  0  0  0  0  0  0  0  0  0  0
   -2.5629    0.4348    0.0040 H   0  0  0  0  0  0  0  0  0  0  0  0
  1  2  3  0
  2  3  1  0
  3  4  1  0
  4  5  1  0
  5  6  2  0
  5  7  1  0
  7  8  1  0
  7  3  1  0
  1  9  1  0
  3 10  1  0
  7 11  1  0
  8 12  1  0
M  END
