
     RDKit          3D

 17 16  0  0  0  0  0  0  0  0999 V2000
   -0.9983   -2.3679   -0.8069 C   0  0  0  0  0  0  0  0  0  0  0  0
   -0.8150   -1.5123   -0.0058 C   0  0  0  0  0  0  0  0  0  0  0  0
   -0.6082   -0.4376    1.0126 C   0  0  0  0  0  0  0  0  0  0  0  0
   -0.2758    0.8150    0.2472 C   0  0  0  0  0  0  0  0  0  0  0  0
   -1.3799    1.1440   -0.6430 C   0  0  0  0  0  0  0  0  0  0  0  0
   -2.2705    1.4256   -1.3480 C   0  0  0  0  0  0  0  0  0  0  0  0
    1.0244    0.5680   -0.5210 C   0  0  0  0  0  0  0  0  0  0  0  0
    2.0573    0.2588    0.4591 C   0  0  0  0  0  0  0  0  0  0  0  0
    2.9359    0.0043    1.2645 C   0  0  0  0  0  0  0  0  0  0  0  0
   -1.1696   -3.1328   -1.5179 H   0  0  0  0  0  0  0  0  0  0  0  0
   -1.5114   -0.2764    1.6223 H   0  0  0  0  0  0  0  0  0  0  0  0
    0.2494   -0.7730    1.6380 H   0  0  0  0  0  0  0  0  0  0  0  0
   -0.0423    1.6187    0.9708 H   0  0  0  0  0  0  0  0  0  0  0  0
   -3.1256    1.6758   -2.0161 H   0  0  0  0  0  0  0  0  0  0  0  0
    0.8893   -0.2709   -1.2445 H   0  0  0  0  0  0  0  0  0  0  0  0
    1.3227    1.4644   -1.0952 H   0  0  0  0  0  0  0  0  0  0  0  0
    3.7176   -0.2038    1.9839 H   0  0  0  0  0  0  0  0  0  0  0  0
  1  2  3  0
  2  3  1  0
  3  4  1  0
  4  5  1  0
  5  6  3  0
  4  7  1  0
  7  8  1  0
  8  9  3  0
  1 10  1  0
  3 11  1  0
  3 12  1  0
  4 13  1  0
  6 14  1  0
  7 15  1  0
  7 16  1  0
  9 17  1  0
M  END
