
     RDKit          3D

 17 17  0  0  0  0  0  0  0  0999 V2000
    1.4744    2.3928    0.4909 C   0  0  0  0  0  0  0  0  0  0  0  0
    0.9618    1.4595   -0.1007 C   0  0  0  0  0  0  0  0  0  0  0  0
    0.3561    0.3473   -0.8181 C   0  0  0  0  0  0  0  0  0  0  0  0
    1.1356   -0.9385   -0.6202 C   0  0  0  0  0  0  0  0  0  0  0  0
    0.1637   -1.8724   -1.0059 O   0  0  0  0  0  0  0  0  0  0  0  0
   -0.9272   -1.5271   -0.1986 C   0  0  0  0  0  0  0  0  0  0  0  0
   -0.9387   -0.0053   -0.1577 C   0  0  0  0  0  0  0  0  0  0  0  0
   -1.0620    0.4806    1.2231 C   0  0  0  0  0  0  0  0  0  0  0  0
   -1.1729    1.6646    1.4292 O   0  0  0  0  0  0  0  0  0  0  0  0
    1.9183    3.2148    0.9904 H   0  0  0  0  0  0  0  0  0  0  0  0
    0.2185    0.5481   -1.8937 H   0  0  0  0  0  0  0  0  0  0  0  0
    1.3487   -1.0958    0.4380 H   0  0  0  0  0  0  0  0  0  0  0  0
    2.0204   -0.9635   -1.2698 H   0  0  0  0  0  0  0  0  0  0  0  0
   -1.8430   -1.9241   -0.6320 H   0  0  0  0  0  0  0  0  0  0  0  0
   -0.8071   -1.9244    0.8290 H   0  0  0  0  0  0  0  0  0  0  0  0
   -1.7948    0.3753   -0.7440 H   0  0  0  0  0  0  0  0  0  0  0  0
   -1.0518   -0.2319    2.0399 H   0  0  0  0  0  0  0  0  0  0  0  0
  1  2  3  0
  2  3  1  0
  3  4  1  0
  4  5  1  0
  5  6  1  0
  6  7  1  0
  7  8  1  0
  8  9  2  0
  7  3  1  0
  1 10  1  0
  3 11  1  0
  4 12  1  0
  4 13  1  0
  6 14  1  0
  6 15  1  0
  7 16  1  0
  8 17  1  0
M  END
