
     RDKit          3D

 21 20  0  0  0  0  0  0  0  0999 V2000
   -1.5625    2.6931   -0.0341 C   0  0  0  0  0  0  0  0  0  0  0  0
   -1.5787    1.4914   -0.1443 C   0  0  0  0  0  0  0  0  0  0  0  0
   -1.5810    0.0168   -0.2895 C   0  0  0  0  0  0  0  0  0  0  0  0
   -1.2041   -0.2528   -1.5853 O   0  0  0  0  0  0  0  0  0  0  0  0
   -0.5918   -0.5395    0.7321 C   0  0  0  0  0  0  0  0  0  0  0  0
   -0.5510   -2.0163    0.6337 C   0  0  0  0  0  0  0  0  0  0  0  0
    0.7470    0.1334    0.5779 C   0  0  0  0  0  0  0  0  0  0  0  0
    1.2994   -0.0541   -0.6809 O   0  0  0  0  0  0  0  0  0  0  0  0
    2.5187    0.5943   -0.7301 C   0  0  0  0  0  0  0  0  0  0  0  0
   -1.5667    3.7482    0.0647 H   0  0  0  0  0  0  0  0  0  0  0  0
   -2.5590   -0.4220   -0.0786 H   0  0  0  0  0  0  0  0  0  0  0  0
   -1.4831   -1.1139   -1.9319 H   0  0  0  0  0  0  0  0  0  0  0  0
   -0.9894   -0.2449    1.7249 H   0  0  0  0  0  0  0  0  0  0  0  0
    0.3789   -2.3783    0.1072 H   0  0  0  0  0  0  0  0  0  0  0  0
   -0.4829   -2.4406    1.6554 H   0  0  0  0  0  0  0  0  0  0  0  0
   -1.4371   -2.4729    0.1298 H   0  0  0  0  0  0  0  0  0  0  0  0
    0.5675    1.2263    0.6859 H   0  0  0  0  0  0  0  0  0  0  0  0
    1.4137   -0.2193    1.3850 H   0  0  0  0  0  0  0  0  0  0  0  0
    3.2199    0.1822    0.0488 H   0  0  0  0  0  0  0  0  0  0  0  0
    2.4173    1.6899   -0.5688 H   0  0  0  0  0  0  0  0  0  0  0  0
    3.0249    0.3790   -1.7018 H   0  0  0  0  0  0  0  0  0  0  0  0
  1  2  3  0
  2  3  1  0
  3  4  1  0
  3  5  1  0
  5  6  1  0
  5  7  1  0
  7  8  1  0
  8  9  1  0
  1 10  1  0
  3 11  1  0
  4 12  1  0
  5 13  1  0
  6 14  1  0
  6 15  1  0
  6 16  1  0
  7 17  1  0
  7 18  1  0
  9 19  1  0
  9 20  1  0
  9 21  1  0
M  END
