
     RDKit          3D

 23 23  0  0  0  0  0  0  0  0999 V2000
   -2.1677    3.3285   -0.5448 C   0  0  0  0  0  0  0  0  0  0  0  0
   -1.3891    2.4954   -0.3036 C   0  0  0  0  0  0  0  0  0  0  0  0
   -0.4832    1.5302   -0.0271 C   0  0  0  0  0  0  0  0  0  0  0  0
   -0.1265    1.0048    1.3350 C   0  0  0  0  0  0  0  0  0  0  0  0
    0.6358   -0.0923    0.4788 C   0  0  0  0  0  0  0  0  0  0  0  0
    0.7830   -1.3747    1.1773 C   0  0  0  0  0  0  0  0  0  0  0  0
    1.5378   -2.3416    0.2512 C   0  0  0  0  0  0  0  0  0  0  0  0
   -0.7037    0.0241   -0.3589 C   0  0  0  0  0  0  0  0  0  0  0  0
   -0.4805   -0.3419   -1.7972 C   0  0  0  0  0  0  0  0  0  0  0  0
   -2.9091    4.1361   -0.7596 H   0  0  0  0  0  0  0  0  0  0  0  0
    0.5535    1.7090   -0.5994 H   0  0  0  0  0  0  0  0  0  0  0  0
   -0.9915    0.5041    1.8368 H   0  0  0  0  0  0  0  0  0  0  0  0
    0.5397    1.5686    1.9624 H   0  0  0  0  0  0  0  0  0  0  0  0
    1.4518    0.4108   -0.0304 H   0  0  0  0  0  0  0  0  0  0  0  0
   -0.1771   -1.9120    1.3993 H   0  0  0  0  0  0  0  0  0  0  0  0
    1.3277   -1.2987    2.1298 H   0  0  0  0  0  0  0  0  0  0  0  0
    1.0107   -2.3975   -0.7195 H   0  0  0  0  0  0  0  0  0  0  0  0
    2.6040   -1.9700    0.1336 H   0  0  0  0  0  0  0  0  0  0  0  0
    1.5751   -3.3447    0.6912 H   0  0  0  0  0  0  0  0  0  0  0  0
   -1.4923   -0.4404    0.1949 H   0  0  0  0  0  0  0  0  0  0  0  0
   -1.0835    0.3321   -2.4205 H   0  0  0  0  0  0  0  0  0  0  0  0
    0.6011   -0.1302   -2.0173 H   0  0  0  0  0  0  0  0  0  0  0  0
   -0.6160   -1.3997   -2.0120 H   0  0  0  0  0  0  0  0  0  0  0  0
  1  2  3  0
  2  3  1  0
  3  4  1  0
  4  5  1  0
  5  6  1  0
  6  7  1  0
  5  8  1  0
  8  9  1  0
  8  3  1  0
  1 10  1  0
  3 11  1  0
  4 12  1  0
  4 13  1  0
  5 14  1  0
  6 15  1  0
  6 16  1  0
  7 17  1  0
  7 18  1  0
  7 19  1  0
  8 20  1  0
  9 21  1  0
  9 22  1  0
  9 23  1  0
M  END
