
     RDKit          3D

 17 18  0  0  0  0  0  0  0  0999 V2000
    0.8109    1.6989    2.1463 C   0  0  0  0  0  0  0  0  0  0  0  0
   -0.0035    1.1688    1.3127 C   0  0  0  0  0  0  0  0  0  0  0  0
   -0.8926    0.5671    0.3948 C   0  0  0  0  0  0  0  0  0  0  0  0
   -2.2635    0.7250    0.4882 O   0  0  0  0  0  0  0  0  0  0  0  0
   -1.7316   -0.5208    0.6726 C   0  0  0  0  0  0  0  0  0  0  0  0
   -1.3220   -1.2598   -0.5551 C   0  0  0  0  0  0  0  0  0  0  0  0
   -0.3373   -0.1469   -0.8398 C   0  0  0  0  0  0  0  0  0  0  0  0
    0.9525   -0.5091   -0.6154 O   0  0  0  0  0  0  0  0  0  0  0  0
    1.9299   -0.0558   -1.4366 C   0  0  0  0  0  0  0  0  0  0  0  0
    1.4283    2.1035    2.8017 H   0  0  0  0  0  0  0  0  0  0  0  0
   -1.8609   -1.0870    1.6272 H   0  0  0  0  0  0  0  0  0  0  0  0
   -2.1092   -1.2366   -1.3608 H   0  0  0  0  0  0  0  0  0  0  0  0
   -0.8558   -2.2520   -0.3883 H   0  0  0  0  0  0  0  0  0  0  0  0
   -0.5727    0.4961   -1.7276 H   0  0  0  0  0  0  0  0  0  0  0  0
    2.0227    1.0772   -1.4134 H   0  0  0  0  0  0  0  0  0  0  0  0
    1.8853   -0.3698   -2.4884 H   0  0  0  0  0  0  0  0  0  0  0  0
    2.9195   -0.3987   -1.0272 H   0  0  0  0  0  0  0  0  0  0  0  0
  1  2  3  0
  2  3  1  0
  3  4  1  0
  4  5  1  0
  5  6  1  0
  6  7  1  0
  7  8  1  0
  8  9  1  0
  5  3  1  0
  7  3  1  0
  1 10  1  0
  5 11  1  0
  6 12  1  0
  6 13  1  0
  7 14  1  0
  9 15  1  0
  9 16  1  0
  9 17  1  0
M  END
