
     RDKit          3D

 17 19  0  0  0  0  0  0  0  0999 V2000
   -0.2967    2.0357    1.5025 C   0  0  0  0  0  0  0  0  0  0  0  0
    0.1081    1.4149    0.3873 C   0  0  0  0  0  0  0  0  0  0  0  0
    0.5298    0.7755   -0.7217 C   0  0  0  0  0  0  0  0  0  0  0  0
   -0.9828    0.3566   -1.3365 C   0  0  0  0  0  0  0  0  0  0  0  0
   -1.4366   -0.1844    0.0207 C   0  0  0  0  0  0  0  0  0  0  0  0
   -0.4610   -0.7092    0.5018 C   0  0  0  0  0  0  0  0  0  0  0  0
    0.9679   -1.3350    0.9123 C   0  0  0  0  0  0  0  0  0  0  0  0
    1.4701   -0.2618   -0.1469 C   0  0  0  0  0  0  0  0  0  0  0  0
    0.4663   -0.7545   -0.8415 C   0  0  0  0  0  0  0  0  0  0  0  0
   -0.6403    2.5936    2.4814 H   0  0  0  0  0  0  0  0  0  0  0  0
   -0.9123   -0.3371   -2.0969 H   0  0  0  0  0  0  0  0  0  0  0  0
   -1.3972    1.2929   -1.4806 H   0  0  0  0  0  0  0  0  0  0  0  0
   -2.4680   -0.0597    0.4535 H   0  0  0  0  0  0  0  0  0  0  0  0
    1.2124   -0.9758    1.9063 H   0  0  0  0  0  0  0  0  0  0  0  0
    1.0309   -2.2876    0.4803 H   0  0  0  0  0  0  0  0  0  0  0  0
    2.5149   -0.2070   -0.3959 H   0  0  0  0  0  0  0  0  0  0  0  0
    0.2946   -1.3571   -1.6261 H   0  0  0  0  0  0  0  0  0  0  0  0
  1  2  3  0
  2  3  1  0
  3  4  1  0
  4  5  1  0
  5  6  2  0
  6  7  1  0
  7  8  1  0
  8  9  1  0
  8  3  1  0
  9  3  1  0
  9  6  1  0
  1 10  1  0
  4 11  1  0
  4 12  1  0
  5 13  1  0
  7 14  1  0
  7 15  1  0
  8 16  1  0
  9 17  1  0
M  END
