
     RDKit          3D

 23 22  0  0  0  0  0  0  0  0999 V2000
    0.6438    2.4696    1.4316 C   0  0  0  0  0  0  0  0  0  0  0  0
    0.7057    1.6957    0.5507 C   0  0  0  0  0  0  0  0  0  0  0  0
    0.7807    0.7136   -0.5285 C   0  0  0  0  0  0  0  0  0  0  0  0
    2.0685   -0.0677   -0.3959 C   0  0  0  0  0  0  0  0  0  0  0  0
   -0.4126   -0.1237   -0.7333 C   0  0  0  0  0  0  0  0  0  0  0  0
   -0.1003   -1.0554   -1.9184 C   0  0  0  0  0  0  0  0  0  0  0  0
   -0.9118   -0.9768    0.3523 C   0  0  0  0  0  0  0  0  0  0  0  0
   -1.3423   -0.3673    1.6242 C   0  0  0  0  0  0  0  0  0  0  0  0
   -2.4000    0.5348    1.4403 O   0  0  0  0  0  0  0  0  0  0  0  0
    0.5726    3.1901    2.2737 H   0  0  0  0  0  0  0  0  0  0  0  0
    0.9119    1.3158   -1.4781 H   0  0  0  0  0  0  0  0  0  0  0  0
    2.4527   -0.4677   -1.3532 H   0  0  0  0  0  0  0  0  0  0  0  0
    2.8999    0.6073   -0.0273 H   0  0  0  0  0  0  0  0  0  0  0  0
    1.9163   -0.9194    0.2822 H   0  0  0  0  0  0  0  0  0  0  0  0
   -1.2336    0.5510   -1.1139 H   0  0  0  0  0  0  0  0  0  0  0  0
    0.7831   -0.7215   -2.4801 H   0  0  0  0  0  0  0  0  0  0  0  0
   -0.9941   -1.1630   -2.5853 H   0  0  0  0  0  0  0  0  0  0  0  0
    0.1198   -2.0842   -1.5470 H   0  0  0  0  0  0  0  0  0  0  0  0
   -1.8056   -1.5406   -0.0569 H   0  0  0  0  0  0  0  0  0  0  0  0
   -0.1802   -1.8098    0.5779 H   0  0  0  0  0  0  0  0  0  0  0  0
   -0.5612    0.0036    2.2831 H   0  0  0  0  0  0  0  0  0  0  0  0
   -1.8295   -1.1972    2.2286 H   0  0  0  0  0  0  0  0  0  0  0  0
   -2.0836    1.4127    1.1731 H   0  0  0  0  0  0  0  0  0  0  0  0
  1  2  3  0
  2  3  1  0
  3  4  1  0
  3  5  1  0
  5  6  1  0
  5  7  1  0
  7  8  1  0
  8  9  1  0
  1 10  1  0
  3 11  1  0
  4 12  1  0
  4 13  1  0
  4 14  1  0
  5 15  1  0
  6 16  1  0
  6 17  1  0
  6 18  1  0
  7 19  1  0
  7 20  1  0
  8 21  1  0
  8 22  1  0
  9 23  1  0
M  END
