
     RDKit          3D

 19 20  0  0  0  0  0  0  0  0999 V2000
   -3.5568    1.6215   -1.1480 C   0  0  0  0  0  0  0  0  0  0  0  0
   -2.4756    1.0932   -1.2225 C   0  0  0  0  0  0  0  0  0  0  0  0
   -1.1496    0.4371   -1.3050 C   0  0  0  0  0  0  0  0  0  0  0  0
   -0.7837   -0.0404    0.0901 C   0  0  0  0  0  0  0  0  0  0  0  0
    0.5645   -0.7125    0.0299 C   0  0  0  0  0  0  0  0  0  0  0  0
    1.1094   -1.2555    1.3040 C   0  0  0  0  0  0  0  0  0  0  0  0
    2.3969   -0.5172    1.0484 C   0  0  0  0  0  0  0  0  0  0  0  0
    1.7725    0.1864   -0.1367 C   0  0  0  0  0  0  0  0  0  0  0  0
    1.3090   -0.6478   -1.1199 O   0  0  0  0  0  0  0  0  0  0  0  0
   -4.5017    2.0839   -1.0737 H   0  0  0  0  0  0  0  0  0  0  0  0
   -0.3908    1.1283   -1.6911 H   0  0  0  0  0  0  0  0  0  0  0  0
   -1.2376   -0.4488   -1.9448 H   0  0  0  0  0  0  0  0  0  0  0  0
   -1.5276   -0.7631    0.4450 H   0  0  0  0  0  0  0  0  0  0  0  0
   -0.7737    0.8242    0.7757 H   0  0  0  0  0  0  0  0  0  0  0  0
    1.1493   -2.3423    1.2996 H   0  0  0  0  0  0  0  0  0  0  0  0
    0.5701   -0.8877    2.1986 H   0  0  0  0  0  0  0  0  0  0  0  0
    2.7146    0.2062    1.7996 H   0  0  0  0  0  0  0  0  0  0  0  0
    3.2214   -1.2221    0.7736 H   0  0  0  0  0  0  0  0  0  0  0  0
    1.5895    1.2564   -0.1228 H   0  0  0  0  0  0  0  0  0  0  0  0
  1  2  3  0
  2  3  1  0
  3  4  1  0
  4  5  1  0
  5  6  1  0
  6  7  1  0
  7  8  1  0
  8  9  1  0
  8  5  1  0
  9  5  1  0
  1 10  1  0
  3 11  1  0
  3 12  1  0
  4 13  1  0
  4 14  1  0
  6 15  1  0
  6 16  1  0
  7 17  1  0
  7 18  1  0
  8 19  1  0
M  END
