
     RDKit          3D

 21 21  0  0  0  0  0  0  0  0999 V2000
    0.1047    3.4370   -0.1828 C   0  0  0  0  0  0  0  0  0  0  0  0
   -0.1783    2.3048    0.1229 C   0  0  0  0  0  0  0  0  0  0  0  0
   -0.5041    0.9058    0.4889 C   0  0  0  0  0  0  0  0  0  0  0  0
   -1.4980    0.2273   -0.3494 C   0  0  0  0  0  0  0  0  0  0  0  0
   -2.3725   -0.8831    0.1783 C   0  0  0  0  0  0  0  0  0  0  0  0
   -0.0592   -0.1589   -0.5360 C   0  0  0  0  0  0  0  0  0  0  0  0
    0.4711   -1.4228    0.0630 C   0  0  0  0  0  0  0  0  0  0  0  0
    1.5728   -1.1575    0.8454 O   0  0  0  0  0  0  0  0  0  0  0  0
    2.6132   -0.5717    0.1389 C   0  0  0  0  0  0  0  0  0  0  0  0
    0.3487    4.4324   -0.4551 H   0  0  0  0  0  0  0  0  0  0  0  0
   -0.3419    0.6986    1.5485 H   0  0  0  0  0  0  0  0  0  0  0  0
   -1.9747    0.8159   -1.1632 H   0  0  0  0  0  0  0  0  0  0  0  0
   -2.0619   -1.8174   -0.3461 H   0  0  0  0  0  0  0  0  0  0  0  0
   -2.2758   -1.0383    1.2662 H   0  0  0  0  0  0  0  0  0  0  0  0
   -3.4453   -0.7351   -0.1025 H   0  0  0  0  0  0  0  0  0  0  0  0
    0.4213    0.2239   -1.4659 H   0  0  0  0  0  0  0  0  0  0  0  0
   -0.3064   -1.8723    0.7081 H   0  0  0  0  0  0  0  0  0  0  0  0
    0.7916   -2.1070   -0.7489 H   0  0  0  0  0  0  0  0  0  0  0  0
    2.9160   -1.2725   -0.6698 H   0  0  0  0  0  0  0  0  0  0  0  0
    3.4505   -0.4292    0.8709 H   0  0  0  0  0  0  0  0  0  0  0  0
    2.3281    0.4201   -0.2115 H   0  0  0  0  0  0  0  0  0  0  0  0
  1  2  3  0
  2  3  1  0
  3  4  1  0
  4  5  1  0
  4  6  1  0
  6  7  1  0
  7  8  1  0
  8  9  1  0
  6  3  1  0
  1 10  1  0
  3 11  1  0
  4 12  1  0
  5 13  1  0
  5 14  1  0
  5 15  1  0
  6 16  1  0
  7 17  1  0
  7 18  1  0
  9 19  1  0
  9 20  1  0
  9 21  1  0
M  END
