
     RDKit          3D

 15 15  0  0  0  0  0  0  0  0999 V2000
    3.3058   -0.9919   -0.1140 C   0  0  0  0  0  0  0  0  0  0  0  0
    2.1320   -0.6382   -0.1608 C   0  0  0  0  0  0  0  0  0  0  0  0
    0.7531   -0.2369   -0.2364 C   0  0  0  0  0  0  0  0  0  0  0  0
    0.2690    0.8025    0.4160 C   0  0  0  0  0  0  0  0  0  0  0  0
   -1.1740    0.9546    0.1360 C   0  0  0  0  0  0  0  0  0  0  0  0
   -1.9758    0.5378    1.1897 O   0  0  0  0  0  0  0  0  0  0  0  0
   -1.3813    0.1324   -1.1074 C   0  0  0  0  0  0  0  0  0  0  0  0
   -0.3005   -0.8778   -1.0136 C   0  0  0  0  0  0  0  0  0  0  0  0
   -0.2640   -2.0354   -1.4839 O   0  0  0  0  0  0  0  0  0  0  0  0
    4.3224   -1.2894   -0.0571 H   0  0  0  0  0  0  0  0  0  0  0  0
    0.8632    1.4620    1.0767 H   0  0  0  0  0  0  0  0  0  0  0  0
   -1.3398    2.0209   -0.1231 H   0  0  0  0  0  0  0  0  0  0  0  0
   -1.4923   -0.1734    1.6696 H   0  0  0  0  0  0  0  0  0  0  0  0
   -2.3687   -0.4001   -1.0098 H   0  0  0  0  0  0  0  0  0  0  0  0
   -1.3492    0.7329   -2.0406 H   0  0  0  0  0  0  0  0  0  0  0  0
  1  2  3  0
  2  3  1  0
  3  4  2  0
  4  5  1  0
  5  6  1  0
  5  7  1  0
  7  8  1  0
  8  9  2  0
  8  3  1  0
  1 10  1  0
  4 11  1  0
  5 12  1  0
  6 13  1  0
  7 14  1  0
  7 15  1  0
M  END
