
     RDKit          3D

 17 16  0  0  0  0  0  0  0  0999 V2000
    2.8165    0.6594    0.2132 C   0  0  0  0  0  0  0  0  0  0  0  0
    1.9296   -0.1541    0.3050 C   0  0  0  0  0  0  0  0  0  0  0  0
    0.8533   -1.1707    0.4132 C   0  0  0  0  0  0  0  0  0  0  0  0
    0.1207   -1.2002   -0.8943 C   0  0  0  0  0  0  0  0  0  0  0  0
   -0.4367   -0.0337   -1.2050 O   0  0  0  0  0  0  0  0  0  0  0  0
   -1.4126    0.6058   -0.6010 C   0  0  0  0  0  0  0  0  0  0  0  0
   -1.3045    1.0988    0.7948 C   0  0  0  0  0  0  0  0  0  0  0  0
    3.6056    1.3699    0.1459 H   0  0  0  0  0  0  0  0  0  0  0  0
    0.1551   -0.8887    1.2067 H   0  0  0  0  0  0  0  0  0  0  0  0
    1.3418   -2.1620    0.6342 H   0  0  0  0  0  0  0  0  0  0  0  0
   -0.5829   -2.0831   -0.9408 H   0  0  0  0  0  0  0  0  0  0  0  0
    0.9214   -1.3841   -1.6948 H   0  0  0  0  0  0  0  0  0  0  0  0
   -2.3701   -0.0051   -0.6617 H   0  0  0  0  0  0  0  0  0  0  0  0
   -1.6372    1.5414   -1.2233 H   0  0  0  0  0  0  0  0  0  0  0  0
   -1.7290    0.3767    1.5205 H   0  0  0  0  0  0  0  0  0  0  0  0
   -0.2865    1.4124    1.0687 H   0  0  0  0  0  0  0  0  0  0  0  0
   -1.9845    2.0173    0.9187 H   0  0  0  0  0  0  0  0  0  0  0  0
  1  2  3  0
  2  3  1  0
  3  4  1  0
  4  5  1  0
  5  6  1  0
  6  7  1  0
  1  8  1  0
  3  9  1  0
  3 10  1  0
  4 11  1  0
  4 12  1  0
  6 13  1  0
  6 14  1  0
  7 15  1  0
  7 16  1  0
  7 17  1  0
M  END
