
     RDKit          3D

 15 16  0  0  0  0  0  0  0  0999 V2000
    1.2416    0.3130    2.6920 C   0  0  0  0  0  0  0  0  0  0  0  0
    0.6073   -0.0446    1.7454 C   0  0  0  0  0  0  0  0  0  0  0  0
   -0.1578   -0.5034    0.5994 C   0  0  0  0  0  0  0  0  0  0  0  0
    0.5852   -1.1865   -0.4798 C   0  0  0  0  0  0  0  0  0  0  0  0
   -0.5241   -0.7961   -1.4082 C   0  0  0  0  0  0  0  0  0  0  0  0
   -0.1474    0.4100   -0.5866 C   0  0  0  0  0  0  0  0  0  0  0  0
   -0.7077    1.6462   -0.6796 C   0  0  0  0  0  0  0  0  0  0  0  0
   -1.8895    1.8826   -0.4717 O   0  0  0  0  0  0  0  0  0  0  0  0
    1.1536    0.0449   -0.7850 O   0  0  0  0  0  0  0  0  0  0  0  0
    1.8149    0.6248    3.5671 H   0  0  0  0  0  0  0  0  0  0  0  0
   -1.1689   -0.9010    0.8446 H   0  0  0  0  0  0  0  0  0  0  0  0
    1.0662   -2.0779   -0.4697 H   0  0  0  0  0  0  0  0  0  0  0  0
   -0.2092   -0.8222   -2.4509 H   0  0  0  0  0  0  0  0  0  0  0  0
   -1.5373   -1.1310   -1.1627 H   0  0  0  0  0  0  0  0  0  0  0  0
   -0.1271    2.5413   -0.9542 H   0  0  0  0  0  0  0  0  0  0  0  0
  1  2  3  0
  2  3  1  0
  3  4  1  0
  4  5  1  0
  5  6  1  0
  6  7  1  0
  7  8  2  0
  6  9  1  0
  6  3  1  0
  9  4  1  0
  1 10  1  0
  3 11  1  0
  4 12  1  0
  5 13  1  0
  5 14  1  0
  7 15  1  0
M  END
