
     RDKit          3D

 21 21  0  0  0  0  0  0  0  0999 V2000
    1.8546    2.9224   -2.5885 C   0  0  0  0  0  0  0  0  0  0  0  0
    1.1303    2.0904   -1.8979 C   0  0  0  0  0  0  0  0  0  0  0  0
    0.3286    1.2069   -1.1538 C   0  0  0  0  0  0  0  0  0  0  0  0
    1.0293   -0.1337   -0.9579 C   0  0  0  0  0  0  0  0  0  0  0  0
    1.0190    0.2436    0.4658 C   0  0  0  0  0  0  0  0  0  0  0  0
    0.2034   -0.7288    1.3081 C   0  0  0  0  0  0  0  0  0  0  0  0
   -1.2439   -0.7462    0.8355 C   0  0  0  0  0  0  0  0  0  0  0  0
   -1.9896   -1.7080    1.7290 C   0  0  0  0  0  0  0  0  0  0  0  0
    0.3476    1.4498    0.2435 O   0  0  0  0  0  0  0  0  0  0  0  0
    2.4464    3.5768   -3.1323 H   0  0  0  0  0  0  0  0  0  0  0  0
   -0.7230    1.1164   -1.4763 H   0  0  0  0  0  0  0  0  0  0  0  0
    2.0466   -0.1501   -1.4189 H   0  0  0  0  0  0  0  0  0  0  0  0
    0.4405   -0.9916   -1.2800 H   0  0  0  0  0  0  0  0  0  0  0  0
    1.9781    0.4459    0.9765 H   0  0  0  0  0  0  0  0  0  0  0  0
    0.5787   -1.7631    1.1092 H   0  0  0  0  0  0  0  0  0  0  0  0
    0.1923   -0.4544    2.3748 H   0  0  0  0  0  0  0  0  0  0  0  0
   -1.6472    0.2954    0.8985 H   0  0  0  0  0  0  0  0  0  0  0  0
   -1.3543   -1.0679   -0.2098 H   0  0  0  0  0  0  0  0  0  0  0  0
   -3.0499   -1.3205    1.7773 H   0  0  0  0  0  0  0  0  0  0  0  0
   -1.5856   -1.5604    2.7645 H   0  0  0  0  0  0  0  0  0  0  0  0
   -2.0019   -2.7227    1.3676 H   0  0  0  0  0  0  0  0  0  0  0  0
  1  2  3  0
  2  3  1  0
  3  4  1  0
  4  5  1  0
  5  6  1  0
  6  7  1  0
  7  8  1  0
  5  9  1  0
  9  3  1  0
  1 10  1  0
  3 11  1  0
  4 12  1  0
  4 13  1  0
  5 14  1  0
  6 15  1  0
  6 16  1  0
  7 17  1  0
  7 18  1  0
  8 19  1  0
  8 20  1  0
  8 21  1  0
M  END
