
     RDKit          3D

 17 18  0  0  0  0  0  0  0  0999 V2000
    2.7601    1.3753    0.7942 C   0  0  0  0  0  0  0  0  0  0  0  0
    1.7010    0.9760    0.3741 C   0  0  0  0  0  0  0  0  0  0  0  0
    0.4220    0.4779   -0.1417 C   0  0  0  0  0  0  0  0  0  0  0  0
   -0.3146    1.2903   -0.9558 O   0  0  0  0  0  0  0  0  0  0  0  0
   -1.2211    1.4667    0.0774 C   0  0  0  0  0  0  0  0  0  0  0  0
   -0.6630    0.3562    0.8881 C   0  0  0  0  0  0  0  0  0  0  0  0
   -0.0898   -0.8603    0.3120 C   0  0  0  0  0  0  0  0  0  0  0  0
   -0.9711   -1.6707   -0.6087 C   0  0  0  0  0  0  0  0  0  0  0  0
    0.8883   -1.5994    0.9748 O   0  0  0  0  0  0  0  0  0  0  0  0
    3.6964    1.7475    1.1740 H   0  0  0  0  0  0  0  0  0  0  0  0
   -2.2963    1.3965   -0.2101 H   0  0  0  0  0  0  0  0  0  0  0  0
   -1.0651    2.4941    0.5194 H   0  0  0  0  0  0  0  0  0  0  0  0
   -0.4209    0.5650    1.9697 H   0  0  0  0  0  0  0  0  0  0  0  0
   -0.6147   -2.7196   -0.7210 H   0  0  0  0  0  0  0  0  0  0  0  0
   -0.9978   -1.2217   -1.6027 H   0  0  0  0  0  0  0  0  0  0  0  0
   -1.9711   -1.7405   -0.1189 H   0  0  0  0  0  0  0  0  0  0  0  0
    1.1577   -2.3333    0.3635 H   0  0  0  0  0  0  0  0  0  0  0  0
  1  2  3  0
  2  3  1  0
  3  4  1  0
  4  5  1  0
  5  6  1  0
  6  7  1  0
  7  8  1  0
  7  9  1  0
  6  3  1  0
  7  3  1  0
  1 10  1  0
  5 11  1  0
  5 12  1  0
  6 13  1  0
  8 14  1  0
  8 15  1  0
  8 16  1  0
  9 17  1  0
M  END
