
     RDKit          3D

 17 17  0  0  0  0  0  0  0  0999 V2000
    3.1356    0.4251    0.6601 C   0  0  0  0  0  0  0  0  0  0  0  0
    1.9894    0.0735    0.5577 C   0  0  0  0  0  0  0  0  0  0  0  0
    0.5914   -0.3294    0.4277 C   0  0  0  0  0  0  0  0  0  0  0  0
    0.2047   -0.6062   -1.0079 C   0  0  0  0  0  0  0  0  0  0  0  0
   -1.3082   -0.5704   -0.9383 C   0  0  0  0  0  0  0  0  0  0  0  0
   -1.6560    0.2390    0.3010 C   0  0  0  0  0  0  0  0  0  0  0  0
   -0.3368    0.8393    0.7498 C   0  0  0  0  0  0  0  0  0  0  0  0
    4.1405    0.7503    0.7505 H   0  0  0  0  0  0  0  0  0  0  0  0
    0.3234   -1.1730    1.0784 H   0  0  0  0  0  0  0  0  0  0  0  0
    0.5932   -1.5963   -1.3239 H   0  0  0  0  0  0  0  0  0  0  0  0
    0.5736    0.2207   -1.6470 H   0  0  0  0  0  0  0  0  0  0  0  0
   -1.7111   -0.0700   -1.8402 H   0  0  0  0  0  0  0  0  0  0  0  0
   -1.7005   -1.6234   -0.8387 H   0  0  0  0  0  0  0  0  0  0  0  0
   -1.9922   -0.4234    1.1379 H   0  0  0  0  0  0  0  0  0  0  0  0
   -2.3849    1.0410    0.0761 H   0  0  0  0  0  0  0  0  0  0  0  0
   -0.1354    1.6883    0.0561 H   0  0  0  0  0  0  0  0  0  0  0  0
   -0.3267    1.1149    1.8007 H   0  0  0  0  0  0  0  0  0  0  0  0
  1  2  3  0
  2  3  1  0
  3  4  1  0
  4  5  1  0
  5  6  1  0
  6  7  1  0
  7  3  1  0
  1  8  1  0
  3  9  1  0
  4 10  1  0
  4 11  1  0
  5 12  1  0
  5 13  1  0
  6 14  1  0
  6 15  1  0
  7 16  1  0
  7 17  1  0
M  END
