
     RDKit          3D

 19 19  0  0  0  0  0  0  0  0999 V2000
    3.2916   -0.1914    0.8049 C   0  0  0  0  0  0  0  0  0  0  0  0
    2.1669   -0.3816    0.4079 C   0  0  0  0  0  0  0  0  0  0  0  0
    0.8103   -0.6290   -0.0863 C   0  0  0  0  0  0  0  0  0  0  0  0
   -0.1190   -1.0783    0.9944 C   0  0  0  0  0  0  0  0  0  0  0  0
   -1.2524   -0.3232    0.9611 O   0  0  0  0  0  0  0  0  0  0  0  0
   -1.2458    0.4975   -0.1276 C   0  0  0  0  0  0  0  0  0  0  0  0
   -2.0664   -0.0656   -1.2570 C   0  0  0  0  0  0  0  0  0  0  0  0
    0.1719    0.6636   -0.5916 C   0  0  0  0  0  0  0  0  0  0  0  0
    0.7612    1.7213    0.1261 O   0  0  0  0  0  0  0  0  0  0  0  0
    4.2861   -0.0343    1.1396 H   0  0  0  0  0  0  0  0  0  0  0  0
    0.8617   -1.3990   -0.8901 H   0  0  0  0  0  0  0  0  0  0  0  0
   -0.3985   -2.1469    0.9116 H   0  0  0  0  0  0  0  0  0  0  0  0
    0.4068   -0.9080    1.9717 H   0  0  0  0  0  0  0  0  0  0  0  0
   -1.6626    1.4848    0.1829 H   0  0  0  0  0  0  0  0  0  0  0  0
   -1.4838   -0.0355   -2.2119 H   0  0  0  0  0  0  0  0  0  0  0  0
   -2.9544    0.5662   -1.4192 H   0  0  0  0  0  0  0  0  0  0  0  0
   -2.3129   -1.1304   -1.0916 H   0  0  0  0  0  0  0  0  0  0  0  0
    0.2926    0.7960   -1.6649 H   0  0  0  0  0  0  0  0  0  0  0  0
    0.4466    2.5938   -0.2347 H   0  0  0  0  0  0  0  0  0  0  0  0
  1  2  3  0
  2  3  1  0
  3  4  1  0
  4  5  1  0
  5  6  1  0
  6  7  1  0
  6  8  1  0
  8  9  1  0
  8  3  1  0
  1 10  1  0
  3 11  1  0
  4 12  1  0
  4 13  1  0
  6 14  1  0
  7 15  1  0
  7 16  1  0
  7 17  1  0
  8 18  1  0
  9 19  1  0
M  END
