
     RDKit          3D

 17 18  0  0  0  0  0  0  0  0999 V2000
    1.5259    1.6206    1.3719 C   0  0  0  0  0  0  0  0  0  0  0  0
    1.2335    0.6581    1.0460 C   0  0  0  0  0  0  0  0  0  0  0  0
    0.8294   -0.7638    0.5713 C   0  0  0  0  0  0  0  0  0  0  0  0
   -0.5422   -0.9220    1.1905 C   0  0  0  0  0  0  0  0  0  0  0  0
   -1.4860   -0.2650    0.5315 C   0  0  0  0  0  0  0  0  0  0  0  0
   -1.2710   -0.1667   -0.9619 C   0  0  0  0  0  0  0  0  0  0  0  0
   -0.0288    0.6153   -1.2889 C   0  0  0  0  0  0  0  0  0  0  0  0
    0.6032   -0.6805   -0.8844 C   0  0  0  0  0  0  0  0  0  0  0  0
   -0.5842   -1.3393   -1.2843 O   0  0  0  0  0  0  0  0  0  0  0  0
    1.8230    2.6626    1.7152 H   0  0  0  0  0  0  0  0  0  0  0  0
    1.5660   -1.4563    0.9433 H   0  0  0  0  0  0  0  0  0  0  0  0
   -0.7154   -1.4906    2.0711 H   0  0  0  0  0  0  0  0  0  0  0  0
   -2.3732    0.1867    0.9888 H   0  0  0  0  0  0  0  0  0  0  0  0
   -2.1815    0.0424   -1.5378 H   0  0  0  0  0  0  0  0  0  0  0  0
    0.1150    1.4812   -0.5917 H   0  0  0  0  0  0  0  0  0  0  0  0
    0.0676    0.8735   -2.3380 H   0  0  0  0  0  0  0  0  0  0  0  0
    1.4187   -1.0564   -1.5426 H   0  0  0  0  0  0  0  0  0  0  0  0
  1  2  3  0
  2  3  1  0
  3  4  1  0
  4  5  2  0
  5  6  1  0
  6  7  1  0
  7  8  1  0
  8  9  1  0
  8  3  1  0
  9  6  1  0
  1 10  1  0
  3 11  1  0
  4 12  1  0
  5 13  1  0
  6 14  1  0
  7 15  1  0
  7 16  1  0
  8 17  1  0
M  END
