
     RDKit          3D

 19 19  0  0  0  0  0  0  0  0999 V2000
   -1.5652    2.7029   -0.0806 C   0  0  0  0  0  0  0  0  0  0  0  0
   -1.2782    1.5037    0.1304 C   0  0  0  0  0  0  0  0  0  0  0  0
   -0.9451    0.1286    0.3863 C   0  0  0  0  0  0  0  0  0  0  0  0
    0.5081   -0.2335    0.3607 C   0  0  0  0  0  0  0  0  0  0  0  0
    0.9176   -0.4985    1.5190 O   0  0  0  0  0  0  0  0  0  0  0  0
    1.3747   -0.3036   -0.7895 C   0  0  0  0  0  0  0  0  0  0  0  0
    2.8326   -0.1465   -0.3686 C   0  0  0  0  0  0  0  0  0  0  0  0
   -1.8663   -0.8705   -0.3080 C   0  0  0  0  0  0  0  0  0  0  0  0
   -1.8255   -0.7465    1.2331 C   0  0  0  0  0  0  0  0  0  0  0  0
   -1.8222    3.7352   -0.2473 H   0  0  0  0  0  0  0  0  0  0  0  0
    1.1388    0.2983   -1.6694 H   0  0  0  0  0  0  0  0  0  0  0  0
    1.3551   -1.3966   -1.2174 H   0  0  0  0  0  0  0  0  0  0  0  0
    3.1553   -0.8853    0.3543 H   0  0  0  0  0  0  0  0  0  0  0  0
    3.5332   -0.1293   -1.2266 H   0  0  0  0  0  0  0  0  0  0  0  0
    2.8715    0.8842    0.0788 H   0  0  0  0  0  0  0  0  0  0  0  0
   -1.4814   -1.7505   -0.7649 H   0  0  0  0  0  0  0  0  0  0  0  0
   -2.7234   -0.3667   -0.8303 H   0  0  0  0  0  0  0  0  0  0  0  0
   -2.7673   -0.2829    1.6702 H   0  0  0  0  0  0  0  0  0  0  0  0
   -1.4125   -1.6423    1.7697 H   0  0  0  0  0  0  0  0  0  0  0  0
  1  2  3  0
  2  3  1  0
  3  4  1  0
  4  5  2  0
  4  6  1  0
  6  7  1  0
  3  8  1  0
  8  9  1  0
  9  3  1  0
  1 10  1  0
  6 11  1  0
  6 12  1  0
  7 13  1  0
  7 14  1  0
  7 15  1  0
  8 16  1  0
  8 17  1  0
  9 18  1  0
  9 19  1  0
M  END
