
     RDKit          3D

 17 16  0  0  0  0  0  0  0  0999 V2000
    2.3980    1.5538   -0.0667 C   0  0  0  0  0  0  0  0  0  0  0  0
    1.2818    0.9673    0.3858 C   0  0  0  0  0  0  0  0  0  0  0  0
    0.2272    0.3929    0.8092 C   0  0  0  0  0  0  0  0  0  0  0  0
   -0.4545    0.9277    1.9339 O   0  0  0  0  0  0  0  0  0  0  0  0
   -0.6829   -0.4090   -0.1441 C   0  0  0  0  0  0  0  0  0  0  0  0
   -1.1304    0.4172   -1.2777 C   0  0  0  0  0  0  0  0  0  0  0  0
   -0.1646   -1.7898   -0.3519 C   0  0  0  0  0  0  0  0  0  0  0  0
    3.3073    2.0460   -0.4264 H   0  0  0  0  0  0  0  0  0  0  0  0
    0.6174   -0.6498    1.4270 H   0  0  0  0  0  0  0  0  0  0  0  0
    0.1687    1.2611    2.6531 H   0  0  0  0  0  0  0  0  0  0  0  0
   -1.6388   -0.5141    0.5388 H   0  0  0  0  0  0  0  0  0  0  0  0
   -1.1129    1.5178   -0.8494 H   0  0  0  0  0  0  0  0  0  0  0  0
   -2.2157    0.3196   -1.4830 H   0  0  0  0  0  0  0  0  0  0  0  0
   -0.4901    0.5402   -2.1765 H   0  0  0  0  0  0  0  0  0  0  0  0
    0.5174   -2.0542    0.5552 H   0  0  0  0  0  0  0  0  0  0  0  0
   -1.0176   -2.5192   -0.2716 H   0  0  0  0  0  0  0  0  0  0  0  0
    0.3896   -2.0074   -1.2557 H   0  0  0  0  0  0  0  0  0  0  0  0
  1  2  3  0
  2  3  1  0
  3  4  1  0
  3  5  1  0
  5  6  1  0
  5  7  1  0
  1  8  1  0
  3  9  1  0
  4 10  1  0
  5 11  1  0
  6 12  1  0
  6 13  1  0
  6 14  1  0
  7 15  1  0
  7 16  1  0
  7 17  1  0
M  END
