
     RDKit          3D

 19 20  0  0  0  0  0  0  0  0999 V2000
   -2.3019    2.1127    0.2883 C   0  0  0  0  0  0  0  0  0  0  0  0
   -2.0511    0.9701    0.1109 C   0  0  0  0  0  0  0  0  0  0  0  0
   -1.7367   -0.4249   -0.1089 C   0  0  0  0  0  0  0  0  0  0  0  0
   -0.2870   -0.6676    0.2506 C   0  0  0  0  0  0  0  0  0  0  0  0
    0.6987    0.1356   -0.5450 C   0  0  0  0  0  0  0  0  0  0  0  0
    2.1529   -0.0035   -0.2965 C   0  0  0  0  0  0  0  0  0  0  0  0
    1.3849    1.2259    0.2656 C   0  0  0  0  0  0  0  0  0  0  0  0
    0.0298   -2.0455    0.6986 C   0  0  0  0  0  0  0  0  0  0  0  0
    0.0715   -0.9268    1.5531 O   0  0  0  0  0  0  0  0  0  0  0  0
   -2.5202    3.1342    0.4645 H   0  0  0  0  0  0  0  0  0  0  0  0
   -1.8292   -0.6591   -1.1913 H   0  0  0  0  0  0  0  0  0  0  0  0
   -2.3888   -1.1189    0.4544 H   0  0  0  0  0  0  0  0  0  0  0  0
    0.3632    0.4400   -1.5489 H   0  0  0  0  0  0  0  0  0  0  0  0
    2.5373   -0.6717    0.4852 H   0  0  0  0  0  0  0  0  0  0  0  0
    2.8759    0.2490   -1.0733 H   0  0  0  0  0  0  0  0  0  0  0  0
    1.5946    2.1983   -0.2120 H   0  0  0  0  0  0  0  0  0  0  0  0
    1.2340    1.2567    1.3601 H   0  0  0  0  0  0  0  0  0  0  0  0
   -0.8105   -2.7150    0.9550 H   0  0  0  0  0  0  0  0  0  0  0  0
    0.9829   -2.4895    0.3580 H   0  0  0  0  0  0  0  0  0  0  0  0
  1  2  3  0
  2  3  1  0
  3  4  1  0
  4  5  1  0
  5  6  1  0
  6  7  1  0
  4  8  1  0
  8  9  1  0
  9  4  1  0
  7  5  1  0
  1 10  1  0
  3 11  1  0
  3 12  1  0
  5 13  1  0
  6 14  1  0
  6 15  1  0
  7 16  1  0
  7 17  1  0
  8 18  1  0
  8 19  1  0
M  END
