
     RDKit          3D

 23 22  0  0  0  0  0  0  0  0999 V2000
   -1.9045    0.0691    2.6827 C   0  0  0  0  0  0  0  0  0  0  0  0
   -1.1453   -0.2348    1.7977 C   0  0  0  0  0  0  0  0  0  0  0  0
   -0.2065   -0.5835    0.7059 C   0  0  0  0  0  0  0  0  0  0  0  0
   -0.8430   -1.6971   -0.0947 C   0  0  0  0  0  0  0  0  0  0  0  0
   -1.0637   -2.8770    0.8465 C   0  0  0  0  0  0  0  0  0  0  0  0
    0.0736    0.6315   -0.1153 C   0  0  0  0  0  0  0  0  0  0  0  0
    0.9431    0.3298   -1.1338 O   0  0  0  0  0  0  0  0  0  0  0  0
    1.2481    1.4179   -1.9391 C   0  0  0  0  0  0  0  0  0  0  0  0
    1.8957    2.5413   -1.1460 C   0  0  0  0  0  0  0  0  0  0  0  0
   -2.5697    0.3182    3.4647 H   0  0  0  0  0  0  0  0  0  0  0  0
    0.7406   -0.9305    1.1586 H   0  0  0  0  0  0  0  0  0  0  0  0
   -0.2157   -1.9975   -0.9568 H   0  0  0  0  0  0  0  0  0  0  0  0
   -1.8245   -1.3980   -0.5128 H   0  0  0  0  0  0  0  0  0  0  0  0
   -0.1709   -3.5371    0.7207 H   0  0  0  0  0  0  0  0  0  0  0  0
   -1.1507   -2.5235    1.8932 H   0  0  0  0  0  0  0  0  0  0  0  0
   -2.0068   -3.4051    0.6155 H   0  0  0  0  0  0  0  0  0  0  0  0
    0.5996    1.3608    0.5559 H   0  0  0  0  0  0  0  0  0  0  0  0
   -0.8588    1.1376   -0.4417 H   0  0  0  0  0  0  0  0  0  0  0  0
    0.3935    1.8368   -2.4789 H   0  0  0  0  0  0  0  0  0  0  0  0
    1.9921    1.0979   -2.6974 H   0  0  0  0  0  0  0  0  0  0  0  0
    2.5614    3.1076   -1.8476 H   0  0  0  0  0  0  0  0  0  0  0  0
    2.4662    2.1419   -0.2760 H   0  0  0  0  0  0  0  0  0  0  0  0
    1.0463    3.1937   -0.8011 H   0  0  0  0  0  0  0  0  0  0  0  0
  1  2  3  0
  2  3  1  0
  3  4  1  0
  4  5  1  0
  3  6  1  0
  6  7  1  0
  7  8  1  0
  8  9  1  0
  1 10  1  0
  3 11  1  0
  4 12  1  0
  4 13  1  0
  5 14  1  0
  5 15  1  0
  5 16  1  0
  6 17  1  0
  6 18  1  0
  8 19  1  0
  8 20  1  0
  9 21  1  0
  9 22  1  0
  9 23  1  0
M  END
