
     RDKit          3D

 17 18  0  0  0  0  0  0  0  0999 V2000
    2.6648   -1.1947    0.1581 C   0  0  0  0  0  0  0  0  0  0  0  0
    1.5179   -0.9728    0.3944 C   0  0  0  0  0  0  0  0  0  0  0  0
    0.1395   -0.6812    0.6736 C   0  0  0  0  0  0  0  0  0  0  0  0
   -0.6989   -0.5590   -0.6173 C   0  0  0  0  0  0  0  0  0  0  0  0
    0.0423    0.5135   -1.2843 C   0  0  0  0  0  0  0  0  0  0  0  0
    0.4412    1.3635   -0.3464 C   0  0  0  0  0  0  0  0  0  0  0  0
   -0.0188    0.8205    0.9749 C   0  0  0  0  0  0  0  0  0  0  0  0
   -1.4010    0.9273    1.0109 O   0  0  0  0  0  0  0  0  0  0  0  0
   -1.9140    0.0808    0.0224 C   0  0  0  0  0  0  0  0  0  0  0  0
    3.6953   -1.4107   -0.0619 H   0  0  0  0  0  0  0  0  0  0  0  0
   -0.3452   -1.3053    1.4165 H   0  0  0  0  0  0  0  0  0  0  0  0
   -0.8525   -1.4729   -1.1277 H   0  0  0  0  0  0  0  0  0  0  0  0
    0.2250    0.5901   -2.3415 H   0  0  0  0  0  0  0  0  0  0  0  0
    0.9956    2.2695   -0.5558 H   0  0  0  0  0  0  0  0  0  0  0  0
    0.5104    1.1554    1.8279 H   0  0  0  0  0  0  0  0  0  0  0  0
   -2.5456    0.6073   -0.7050 H   0  0  0  0  0  0  0  0  0  0  0  0
   -2.4560   -0.7314    0.5612 H   0  0  0  0  0  0  0  0  0  0  0  0
  1  2  3  0
  2  3  1  0
  3  4  1  0
  4  5  1  0
  5  6  2  0
  6  7  1  0
  7  8  1  0
  8  9  1  0
  7  3  1  0
  9  4  1  0
  1 10  1  0
  3 11  1  0
  4 12  1  0
  5 13  1  0
  6 14  1  0
  7 15  1  0
  9 16  1  0
  9 17  1  0
M  END
