
     RDKit          3D

 15 14  0  0  0  0  0  0  0  0999 V2000
    4.6094    0.6256    1.2707 C   0  0  0  0  0  0  0  0  0  0  0  0
    3.6514    0.3633    0.5859 C   0  0  0  0  0  0  0  0  0  0  0  0
    2.5162    0.0468   -0.1977 C   0  0  0  0  0  0  0  0  0  0  0  0
    1.5458   -0.2440   -0.8817 C   0  0  0  0  0  0  0  0  0  0  0  0
    0.3753   -0.5716   -1.6988 C   0  0  0  0  0  0  0  0  0  0  0  0
   -0.8089   -0.4271   -0.8708 C   0  0  0  0  0  0  0  0  0  0  0  0
   -1.7888   -0.2922   -0.1687 C   0  0  0  0  0  0  0  0  0  0  0  0
   -2.9895   -0.1350    0.6746 C   0  0  0  0  0  0  0  0  0  0  0  0
   -3.8229    0.8651    0.1249 O   0  0  0  0  0  0  0  0  0  0  0  0
    5.4602    0.8708    1.8637 H   0  0  0  0  0  0  0  0  0  0  0  0
    0.5265   -1.6181   -2.0522 H   0  0  0  0  0  0  0  0  0  0  0  0
    0.3319    0.0614   -2.6169 H   0  0  0  0  0  0  0  0  0  0  0  0
   -2.7022    0.1792    1.6880 H   0  0  0  0  0  0  0  0  0  0  0  0
   -3.5694   -1.0861    0.7275 H   0  0  0  0  0  0  0  0  0  0  0  0
   -3.3352    1.3619   -0.5942 H   0  0  0  0  0  0  0  0  0  0  0  0
  1  2  3  0
  2  3  1  0
  3  4  3  0
  4  5  1  0
  5  6  1  0
  6  7  3  0
  7  8  1  0
  8  9  1  0
  1 10  1  0
  5 11  1  0
  5 12  1  0
  8 13  1  0
  8 14  1  0
  9 15  1  0
M  END
