
     RDKit          3D

 15 14  0  0  0  0  0  0  0  0999 V2000
    4.6301   -1.4543    1.5149 C   0  0  0  0  0  0  0  0  0  0  0  0
    3.2865   -1.2304    0.8299 C   0  0  0  0  0  0  0  0  0  0  0  0
    2.1759   -1.0368    0.2812 C   0  0  0  0  0  0  0  0  0  0  0  0
    1.2093   -0.8875   -0.1953 C   0  0  0  0  0  0  0  0  0  0  0  0
   -0.3516   -0.6722   -0.9437 C   0  0  0  0  0  0  0  0  0  0  0  0
   -0.7736    0.5765   -0.6424 C   0  0  0  0  0  0  0  0  0  0  0  0
   -0.0343    1.7344   -0.7289 O   0  0  0  0  0  0  0  0  0  0  0  0
   -2.0023    0.7203   -0.2192 O   0  0  0  0  0  0  0  0  0  0  0  0
   -3.0195    1.5097    0.2127 C   0  0  0  0  0  0  0  0  0  0  0  0
    5.5998   -1.6028    2.0191 H   0  0  0  0  0  0  0  0  0  0  0  0
   -0.6680   -1.6667   -1.0562 H   0  0  0  0  0  0  0  0  0  0  0  0
    0.2318   -0.5257   -2.1124 H   0  0  0  0  0  0  0  0  0  0  0  0
   -3.8597    1.5569   -0.6566 H   0  0  0  0  0  0  0  0  0  0  0  0
   -2.8630    2.4019    0.7211 H   0  0  0  0  0  0  0  0  0  0  0  0
   -3.5615    0.8140    0.9757 H   0  0  0  0  0  0  0  0  0  0  0  0
  1  2  3  0
  2  3  1  0
  3  4  3  0
  4  5  1  0
  5  6  1  0
  6  7  2  0
  6  8  1  0
  8  9  1  0
  1 10  1  0
  5 11  1  0
  5 12  1  0
  9 13  1  0
  9 14  1  0
  9 15  1  0
M  END
