
     RDKit          3D

 19 20  0  0  0  0  0  0  0  0999 V2000
    3.5064   -0.2962    0.0875 C   0  0  0  0  0  0  0  0  0  0  0  0
    2.2536   -0.1309    0.0864 C   0  0  0  0  0  0  0  0  0  0  0  0
    0.8338    0.0613    0.1098 C   0  0  0  0  0  0  0  0  0  0  0  0
    0.0464   -1.0266    0.7206 C   0  0  0  0  0  0  0  0  0  0  0  0
   -1.4454   -0.7200    0.6114 C   0  0  0  0  0  0  0  0  0  0  0  0
   -1.7545    0.6897    0.2074 C   0  0  0  0  0  0  0  0  0  0  0  0
   -0.5331    1.3083   -0.4492 C   0  0  0  0  0  0  0  0  0  0  0  0
    0.2300    0.3156   -1.2725 C   0  0  0  0  0  0  0  0  0  0  0  0
    0.4434    1.3380    0.5381 O   0  0  0  0  0  0  0  0  0  0  0  0
    4.5333   -0.4370    0.0710 H   0  0  0  0  0  0  0  0  0  0  0  0
    0.1878   -1.9923    0.1375 H   0  0  0  0  0  0  0  0  0  0  0  0
    0.3193   -1.2717    1.7610 H   0  0  0  0  0  0  0  0  0  0  0  0
   -2.0054   -1.0289    1.5462 H   0  0  0  0  0  0  0  0  0  0  0  0
   -1.8984   -1.3648   -0.2104 H   0  0  0  0  0  0  0  0  0  0  0  0
   -1.9658    1.3048    1.0993 H   0  0  0  0  0  0  0  0  0  0  0  0
   -2.5830    0.7433   -0.5417 H   0  0  0  0  0  0  0  0  0  0  0  0
   -0.7402    2.2826   -0.8946 H   0  0  0  0  0  0  0  0  0  0  0  0
   -0.3942   -0.5129   -1.6676 H   0  0  0  0  0  0  0  0  0  0  0  0
    0.9659    0.7378   -1.9403 H   0  0  0  0  0  0  0  0  0  0  0  0
  1  2  3  0
  2  3  1  0
  3  4  1  0
  4  5  1  0
  5  6  1  0
  6  7  1  0
  7  8  1  0
  7  9  1  0
  8  3  1  0
  9  3  1  0
  1 10  1  0
  4 11  1  0
  4 12  1  0
  5 13  1  0
  5 14  1  0
  6 15  1  0
  6 16  1  0
  7 17  1  0
  8 18  1  0
  8 19  1  0
M  END
