
     RDKit          3D

 15 16  0  0  0  0  0  0  0  0999 V2000
    2.7543    0.5300   -0.6095 C   0  0  0  0  0  0  0  0  0  0  0  0
    1.6367    0.1226   -0.4578 C   0  0  0  0  0  0  0  0  0  0  0  0
    0.2754   -0.3476   -0.2684 C   0  0  0  0  0  0  0  0  0  0  0  0
   -0.7907    0.5036   -0.8509 C   0  0  0  0  0  0  0  0  0  0  0  0
   -1.6149    0.4396    0.4126 C   0  0  0  0  0  0  0  0  0  0  0  0
   -0.3620   -0.0493    1.1209 C   0  0  0  0  0  0  0  0  0  0  0  0
    0.0634   -1.4053    0.7120 C   0  0  0  0  0  0  0  0  0  0  0  0
    3.7413    0.8986   -0.7273 H   0  0  0  0  0  0  0  0  0  0  0  0
   -0.4419    1.5705   -0.9806 H   0  0  0  0  0  0  0  0  0  0  0  0
   -1.2779    0.1331   -1.7654 H   0  0  0  0  0  0  0  0  0  0  0  0
   -2.3334   -0.4179    0.3406 H   0  0  0  0  0  0  0  0  0  0  0  0
   -2.0368    1.3742    0.7726 H   0  0  0  0  0  0  0  0  0  0  0  0
    0.2231    0.6174    1.7413 H   0  0  0  0  0  0  0  0  0  0  0  0
    0.9344   -1.8191    1.2203 H   0  0  0  0  0  0  0  0  0  0  0  0
   -0.7709   -2.1505    0.6077 H   0  0  0  0  0  0  0  0  0  0  0  0
  1  2  3  0
  2  3  1  0
  3  4  1  0
  4  5  1  0
  5  6  1  0
  6  7  1  0
  6  3  1  0
  7  3  1  0
  1  8  1  0
  4  9  1  0
  4 10  1  0
  5 11  1  0
  5 12  1  0
  6 13  1  0
  7 14  1  0
  7 15  1  0
M  END
