
     RDKit          3D

 17 18  0  0  0  0  0  0  0  0999 V2000
    3.1687    0.3099    0.1678 C   0  0  0  0  0  0  0  0  0  0  0  0
    2.0339   -0.0919    0.1325 C   0  0  0  0  0  0  0  0  0  0  0  0
    0.6480   -0.5656    0.1087 C   0  0  0  0  0  0  0  0  0  0  0  0
   -0.3258    0.4049    0.7141 C   0  0  0  0  0  0  0  0  0  0  0  0
   -1.7649    0.0078    0.7504 C   0  0  0  0  0  0  0  0  0  0  0  0
   -2.0805    1.3652    0.5090 O   0  0  0  0  0  0  0  0  0  0  0  0
   -0.9368    1.3645   -0.3170 C   0  0  0  0  0  0  0  0  0  0  0  0
    0.2592   -1.3449   -1.0642 C   0  0  0  0  0  0  0  0  0  0  0  0
    0.4384   -1.9461    0.2999 O   0  0  0  0  0  0  0  0  0  0  0  0
    4.1865    0.6727    0.2181 H   0  0  0  0  0  0  0  0  0  0  0  0
   -0.0009    0.9252    1.6173 H   0  0  0  0  0  0  0  0  0  0  0  0
   -2.1515   -0.3635    1.7163 H   0  0  0  0  0  0  0  0  0  0  0  0
   -2.1021   -0.5886   -0.1124 H   0  0  0  0  0  0  0  0  0  0  0  0
   -1.1948    0.8438   -1.2625 H   0  0  0  0  0  0  0  0  0  0  0  0
   -0.3906    2.3011   -0.3874 H   0  0  0  0  0  0  0  0  0  0  0  0
    0.9983   -1.7571   -1.7524 H   0  0  0  0  0  0  0  0  0  0  0  0
   -0.7852   -1.5375   -1.3382 H   0  0  0  0  0  0  0  0  0  0  0  0
  1  2  3  0
  2  3  1  0
  3  4  1  0
  4  5  1  0
  5  6  1  0
  6  7  1  0
  3  8  1  0
  8  9  1  0
  9  3  1  0
  7  4  1  0
  1 10  1  0
  4 11  1  0
  5 12  1  0
  5 13  1  0
  7 14  1  0
  7 15  1  0
  8 16  1  0
  8 17  1  0
M  END
