
     RDKit          3D

 15 14  0  0  0  0  0  0  0  0999 V2000
   -0.5871    2.7153    0.8242 C   0  0  0  0  0  0  0  0  0  0  0  0
   -0.3385    1.6048    0.3734 C   0  0  0  0  0  0  0  0  0  0  0  0
   -0.0301    0.2738   -0.1543 C   0  0  0  0  0  0  0  0  0  0  0  0
   -1.3304   -0.5021   -0.2733 C   0  0  0  0  0  0  0  0  0  0  0  0
   -1.1397   -1.7702   -0.7627 O   0  0  0  0  0  0  0  0  0  0  0  0
    0.7910   -0.4374    0.7176 O   0  0  0  0  0  0  0  0  0  0  0  0
    1.9627   -0.8339    0.0655 C   0  0  0  0  0  0  0  0  0  0  0  0
   -0.7910    3.6838    1.2017 H   0  0  0  0  0  0  0  0  0  0  0  0
    0.4476    0.3522   -1.1562 H   0  0  0  0  0  0  0  0  0  0  0  0
   -2.0353    0.0853   -0.9275 H   0  0  0  0  0  0  0  0  0  0  0  0
   -1.7936   -0.4747    0.7429 H   0  0  0  0  0  0  0  0  0  0  0  0
   -1.8697   -1.9448   -1.4289 H   0  0  0  0  0  0  0  0  0  0  0  0
    2.6288   -1.3935    0.7196 H   0  0  0  0  0  0  0  0  0  0  0  0
    2.4147    0.0979   -0.3415 H   0  0  0  0  0  0  0  0  0  0  0  0
    1.6705   -1.4567   -0.8028 H   0  0  0  0  0  0  0  0  0  0  0  0
  1  2  3  0
  2  3  1  0
  3  4  1  0
  4  5  1  0
  3  6  1  0
  6  7  1  0
  1  8  1  0
  3  9  1  0
  4 10  1  0
  4 11  1  0
  5 12  1  0
  7 13  1  0
  7 14  1  0
  7 15  1  0
M  END
