
     RDKit          3D

 19 19  0  0  0  0  0  0  0  0999 V2000
    0.4314    2.8629    0.0602 C   0  0  0  0  0  0  0  0  0  0  0  0
    0.0541    1.8356   -0.4442 C   0  0  0  0  0  0  0  0  0  0  0  0
   -0.4085    0.6132   -1.0698 C   0  0  0  0  0  0  0  0  0  0  0  0
    0.4829    0.2970   -2.2434 C   0  0  0  0  0  0  0  0  0  0  0  0
   -0.3651   -0.5640   -0.1336 C   0  0  0  0  0  0  0  0  0  0  0  0
   -1.1881   -0.4082    1.0645 C   0  0  0  0  0  0  0  0  0  0  0  0
   -0.5608   -0.9921    2.0733 C   0  0  0  0  0  0  0  0  0  0  0  0
    0.7114   -1.5479    1.5284 C   0  0  0  0  0  0  0  0  0  0  0  0
    0.9105   -0.7955    0.3664 O   0  0  0  0  0  0  0  0  0  0  0  0
    0.7799    3.7690    0.4956 H   0  0  0  0  0  0  0  0  0  0  0  0
   -1.4654    0.7322   -1.4161 H   0  0  0  0  0  0  0  0  0  0  0  0
    1.2732    1.0945   -2.3400 H   0  0  0  0  0  0  0  0  0  0  0  0
    0.9663   -0.6967   -2.1146 H   0  0  0  0  0  0  0  0  0  0  0  0
   -0.1553    0.2932   -3.1522 H   0  0  0  0  0  0  0  0  0  0  0  0
   -0.6335   -1.5007   -0.6997 H   0  0  0  0  0  0  0  0  0  0  0  0
   -2.1651    0.0949    1.1721 H   0  0  0  0  0  0  0  0  0  0  0  0
   -0.8764   -1.0741    3.1150 H   0  0  0  0  0  0  0  0  0  0  0  0
    0.6498   -2.6298    1.3166 H   0  0  0  0  0  0  0  0  0  0  0  0
    1.5588   -1.3833    2.2253 H   0  0  0  0  0  0  0  0  0  0  0  0
  1  2  3  0
  2  3  1  0
  3  4  1  0
  3  5  1  0
  5  6  1  0
  6  7  2  0
  7  8  1  0
  8  9  1  0
  9  5  1  0
  1 10  1  0
  3 11  1  0
  4 12  1  0
  4 13  1  0
  4 14  1  0
  5 15  1  0
  6 16  1  0
  7 17  1  0
  8 18  1  0
  8 19  1  0
M  END
