
     RDKit          3D

 17 17  0  0  0  0  0  0  0  0999 V2000
    3.0890   -0.1366   -0.8364 C   0  0  0  0  0  0  0  0  0  0  0  0
    2.0379   -0.0342   -0.2536 C   0  0  0  0  0  0  0  0  0  0  0  0
    0.7560    0.1085    0.4772 C   0  0  0  0  0  0  0  0  0  0  0  0
    0.4756   -1.0448    1.1493 O   0  0  0  0  0  0  0  0  0  0  0  0
   -0.7376   -1.5349    0.7645 C   0  0  0  0  0  0  0  0  0  0  0  0
   -1.4815   -0.4358    0.0432 C   0  0  0  0  0  0  0  0  0  0  0  0
   -0.3541    0.4164   -0.4722 C   0  0  0  0  0  0  0  0  0  0  0  0
   -0.7133    1.8541   -0.3913 C   0  0  0  0  0  0  0  0  0  0  0  0
   -1.8478    2.1948   -0.0708 O   0  0  0  0  0  0  0  0  0  0  0  0
    4.0182   -0.2098   -1.3432 H   0  0  0  0  0  0  0  0  0  0  0  0
    0.9359    0.9204    1.2180 H   0  0  0  0  0  0  0  0  0  0  0  0
   -1.3286   -1.8270    1.6460 H   0  0  0  0  0  0  0  0  0  0  0  0
   -0.6196   -2.3735    0.0510 H   0  0  0  0  0  0  0  0  0  0  0  0
   -2.1143    0.1350    0.7754 H   0  0  0  0  0  0  0  0  0  0  0  0
   -2.0659   -0.8070   -0.8185 H   0  0  0  0  0  0  0  0  0  0  0  0
   -0.0589    0.1525   -1.5064 H   0  0  0  0  0  0  0  0  0  0  0  0
    0.0090    2.6218   -0.6105 H   0  0  0  0  0  0  0  0  0  0  0  0
  1  2  3  0
  2  3  1  0
  3  4  1  0
  4  5  1  0
  5  6  1  0
  6  7  1  0
  7  8  1  0
  8  9  2  0
  7  3  1  0
  1 10  1  0
  3 11  1  0
  5 12  1  0
  5 13  1  0
  6 14  1  0
  6 15  1  0
  7 16  1  0
  8 17  1  0
M  END
