
     RDKit          3D

 21 21  0  0  0  0  0  0  0  0999 V2000
    3.6241    0.8516    1.4574 C   0  0  0  0  0  0  0  0  0  0  0  0
    2.6547    0.6184    0.7353 C   0  0  0  0  0  0  0  0  0  0  0  0
    1.5051    0.3395   -0.0906 C   0  0  0  0  0  0  0  0  0  0  0  0
    0.8481    1.5741   -0.5803 C   0  0  0  0  0  0  0  0  0  0  0  0
   -0.4495    1.5301   -0.4010 C   0  0  0  0  0  0  0  0  0  0  0  0
   -0.8408    0.2588    0.2372 C   0  0  0  0  0  0  0  0  0  0  0  0
   -1.6130   -0.5567   -0.7829 C   0  0  0  0  0  0  0  0  0  0  0  0
   -2.0894   -1.8717   -0.2890 C   0  0  0  0  0  0  0  0  0  0  0  0
    0.4266   -0.4008    0.6401 C   0  0  0  0  0  0  0  0  0  0  0  0
    4.4646    1.0593    2.1063 H   0  0  0  0  0  0  0  0  0  0  0  0
    1.7974   -0.2228   -1.0298 H   0  0  0  0  0  0  0  0  0  0  0  0
    1.3482    2.4349   -1.0357 H   0  0  0  0  0  0  0  0  0  0  0  0
   -1.1640    2.3483   -0.6940 H   0  0  0  0  0  0  0  0  0  0  0  0
   -1.4838    0.5351    1.1038 H   0  0  0  0  0  0  0  0  0  0  0  0
   -0.9346   -0.7955   -1.6617 H   0  0  0  0  0  0  0  0  0  0  0  0
   -2.3929    0.0880   -1.2153 H   0  0  0  0  0  0  0  0  0  0  0  0
   -1.7713   -2.7399   -0.9318 H   0  0  0  0  0  0  0  0  0  0  0  0
   -3.2058   -1.8729   -0.3815 H   0  0  0  0  0  0  0  0  0  0  0  0
   -1.7444   -2.1444    0.7352 H   0  0  0  0  0  0  0  0  0  0  0  0
    0.6382   -0.3328    1.7417 H   0  0  0  0  0  0  0  0  0  0  0  0
    0.3824   -1.4863    0.3366 H   0  0  0  0  0  0  0  0  0  0  0  0
  1  2  3  0
  2  3  1  0
  3  4  1  0
  4  5  2  0
  5  6  1  0
  6  7  1  0
  7  8  1  0
  6  9  1  0
  9  3  1  0
  1 10  1  0
  3 11  1  0
  4 12  1  0
  5 13  1  0
  6 14  1  0
  7 15  1  0
  7 16  1  0
  8 17  1  0
  8 18  1  0
  8 19  1  0
  9 20  1  0
  9 21  1  0
M  END
