
     RDKit          3D

 19 20  0  0  0  0  0  0  0  0999 V2000
    3.3835    0.8000    1.2075 C   0  0  0  0  0  0  0  0  0  0  0  0
    2.2570    0.4556    0.9224 C   0  0  0  0  0  0  0  0  0  0  0  0
    0.9223    0.0465    0.5833 C   0  0  0  0  0  0  0  0  0  0  0  0
    0.4111   -0.0363   -0.6106 C   0  0  0  0  0  0  0  0  0  0  0  0
    0.1182   -0.0290   -2.0727 C   0  0  0  0  0  0  0  0  0  0  0  0
   -1.3215    0.3423   -1.6144 C   0  0  0  0  0  0  0  0  0  0  0  0
   -1.0178   -0.5573   -0.4772 C   0  0  0  0  0  0  0  0  0  0  0  0
   -1.4117   -0.1994    0.9089 C   0  0  0  0  0  0  0  0  0  0  0  0
   -0.0717   -0.3089    1.6335 C   0  0  0  0  0  0  0  0  0  0  0  0
    4.3879    1.0915    1.4489 H   0  0  0  0  0  0  0  0  0  0  0  0
    0.1907   -1.0535   -2.4650 H   0  0  0  0  0  0  0  0  0  0  0  0
    0.5644    0.7831   -2.6535 H   0  0  0  0  0  0  0  0  0  0  0  0
   -1.3097    1.4253   -1.4030 H   0  0  0  0  0  0  0  0  0  0  0  0
   -2.0714    0.0220   -2.3442 H   0  0  0  0  0  0  0  0  0  0  0  0
   -1.1046   -1.6246   -0.7483 H   0  0  0  0  0  0  0  0  0  0  0  0
   -2.0891   -0.9749    1.2890 H   0  0  0  0  0  0  0  0  0  0  0  0
   -1.8864    0.7732    1.0313 H   0  0  0  0  0  0  0  0  0  0  0  0
   -0.0656    0.3734    2.5001 H   0  0  0  0  0  0  0  0  0  0  0  0
    0.1143   -1.3291    1.9651 H   0  0  0  0  0  0  0  0  0  0  0  0
  1  2  3  0
  2  3  1  0
  3  4  2  0
  4  5  1  0
  5  6  1  0
  6  7  1  0
  7  8  1  0
  8  9  1  0
  9  3  1  0
  7  4  1  0
  1 10  1  0
  5 11  1  0
  5 12  1  0
  6 13  1  0
  6 14  1  0
  7 15  1  0
  8 16  1  0
  8 17  1  0
  9 18  1  0
  9 19  1  0
M  END
