
     RDKit          3D

 19 19  0  0  0  0  0  0  0  0999 V2000
    2.9903    0.1141    0.6742 C   0  0  0  0  0  0  0  0  0  0  0  0
    1.7049   -0.2601    0.3666 C   0  0  0  0  0  0  0  0  0  0  0  0
    0.5086   -0.6309    0.0833 C   0  0  0  0  0  0  0  0  0  0  0  0
    0.3981   -1.7329   -0.9273 C   0  0  0  0  0  0  0  0  0  0  0  0
   -0.1569   -2.6545   -1.0475 O   0  0  0  0  0  0  0  0  0  0  0  0
   -0.7790   -0.2396    0.7380 C   0  0  0  0  0  0  0  0  0  0  0  0
   -2.0240   -1.0575    0.2938 C   0  0  0  0  0  0  0  0  0  0  0  0
   -0.2599    0.6727   -0.3765 C   0  0  0  0  0  0  0  0  0  0  0  0
    0.1601    2.0764   -0.0953 C   0  0  0  0  0  0  0  0  0  0  0  0
    4.1327    0.4278    0.9452 H   0  0  0  0  0  0  0  0  0  0  0  0
    1.2650   -1.4750   -1.8593 H   0  0  0  0  0  0  0  0  0  0  0  0
   -0.6677    0.2035    1.7093 H   0  0  0  0  0  0  0  0  0  0  0  0
   -2.4984   -0.5354   -0.5609 H   0  0  0  0  0  0  0  0  0  0  0  0
   -1.8206   -2.1005    0.2127 H   0  0  0  0  0  0  0  0  0  0  0  0
   -2.7120   -0.9439    1.1506 H   0  0  0  0  0  0  0  0  0  0  0  0
   -0.7864    0.6594   -1.3642 H   0  0  0  0  0  0  0  0  0  0  0  0
   -0.8228    2.6217    0.2674 H   0  0  0  0  0  0  0  0  0  0  0  0
    0.4758    2.6215   -0.9468 H   0  0  0  0  0  0  0  0  0  0  0  0
    0.8921    2.2335    0.7367 H   0  0  0  0  0  0  0  0  0  0  0  0
  1  2  3  0
  2  3  1  0
  3  4  1  0
  4  5  2  0
  3  6  1  0
  6  7  1  0
  6  8  1  0
  8  9  1  0
  8  3  1  0
  1 10  1  0
  4 11  1  0
  6 12  1  0
  7 13  1  0
  7 14  1  0
  7 15  1  0
  8 16  1  0
  9 17  1  0
  9 18  1  0
  9 19  1  0
M  END
