
     RDKit          3D

 21 21  0  0  0  0  0  0  0  0999 V2000
    2.4322    0.7851    1.7950 C   0  0  0  0  0  0  0  0  0  0  0  0
    1.4449    0.9825    1.1547 C   0  0  0  0  0  0  0  0  0  0  0  0
    0.2614    1.2329    0.3778 C   0  0  0  0  0  0  0  0  0  0  0  0
    0.5248    1.4785   -1.1038 C   0  0  0  0  0  0  0  0  0  0  0  0
   -0.2913    0.2907   -0.6001 C   0  0  0  0  0  0  0  0  0  0  0  0
    0.3274   -1.0240   -0.9281 C   0  0  0  0  0  0  0  0  0  0  0  0
    0.4650   -1.9757    0.1945 C   0  0  0  0  0  0  0  0  0  0  0  0
   -1.6476    0.4168   -0.9092 O   0  0  0  0  0  0  0  0  0  0  0  0
   -2.4697    0.2572    0.1867 C   0  0  0  0  0  0  0  0  0  0  0  0
    3.3122    0.6273    2.3580 H   0  0  0  0  0  0  0  0  0  0  0  0
   -0.4432    1.9768    0.8209 H   0  0  0  0  0  0  0  0  0  0  0  0
    0.0200    2.3140   -1.6043 H   0  0  0  0  0  0  0  0  0  0  0  0
    1.5508    1.3014   -1.4841 H   0  0  0  0  0  0  0  0  0  0  0  0
    1.3539   -0.9297   -1.3930 H   0  0  0  0  0  0  0  0  0  0  0  0
   -0.2832   -1.5063   -1.7408 H   0  0  0  0  0  0  0  0  0  0  0  0
    0.3949   -3.0077   -0.2077 H   0  0  0  0  0  0  0  0  0  0  0  0
   -0.2627   -1.8828    1.0058 H   0  0  0  0  0  0  0  0  0  0  0  0
    1.4885   -1.9143    0.6648 H   0  0  0  0  0  0  0  0  0  0  0  0
   -2.3432   -0.7452    0.6478 H   0  0  0  0  0  0  0  0  0  0  0  0
   -3.5172    0.2804   -0.1940 H   0  0  0  0  0  0  0  0  0  0  0  0
   -2.3181    1.0422    0.9593 H   0  0  0  0  0  0  0  0  0  0  0  0
  1  2  3  0
  2  3  1  0
  3  4  1  0
  4  5  1  0
  5  6  1  0
  6  7  1  0
  5  8  1  0
  8  9  1  0
  5  3  1  0
  1 10  1  0
  3 11  1  0
  4 12  1  0
  4 13  1  0
  6 14  1  0
  6 15  1  0
  7 16  1  0
  7 17  1  0
  7 18  1  0
  9 19  1  0
  9 20  1  0
  9 21  1  0
M  END
