
     RDKit          3D

 19 18  0  0  0  0  0  0  0  0999 V2000
   -0.2119    3.0579   -1.1234 C   0  0  0  0  0  0  0  0  0  0  0  0
   -0.5198    1.9612   -1.0519 C   0  0  0  0  0  0  0  0  0  0  0  0
   -0.9308    0.5138   -0.9412 C   0  0  0  0  0  0  0  0  0  0  0  0
   -1.4711    0.4027    0.5873 C   0  0  0  0  0  0  0  0  0  0  0  0
   -0.4759   -0.7028   -1.2120 C   0  0  0  0  0  0  0  0  0  0  0  0
   -1.3558   -1.7593   -0.7945 O   0  0  0  0  0  0  0  0  0  0  0  0
    0.7387   -0.8924   -0.0631 C   0  0  0  0  0  0  0  0  0  0  0  0
    1.5799   -1.0213    0.7063 C   0  0  0  0  0  0  0  0  0  0  0  0
    2.6073   -1.1737    1.6402 C   0  0  0  0  0  0  0  0  0  0  0  0
    0.0923    4.1340   -1.2127 H   0  0  0  0  0  0  0  0  0  0  0  0
   -2.0072    0.5304   -1.5439 H   0  0  0  0  0  0  0  0  0  0  0  0
   -2.4452    0.8456    0.6181 H   0  0  0  0  0  0  0  0  0  0  0  0
   -1.4093   -0.7132    0.7542 H   0  0  0  0  0  0  0  0  0  0  0  0
   -0.6794    0.8906    1.2109 H   0  0  0  0  0  0  0  0  0  0  0  0
   -0.0537   -1.0285   -2.1375 H   0  0  0  0  0  0  0  0  0  0  0  0
   -2.3146   -1.4873   -0.9848 H   0  0  0  0  0  0  0  0  0  0  0  0
    3.2187   -0.1594    1.6434 H   0  0  0  0  0  0  0  0  0  0  0  0
    3.3538   -1.9634    1.2931 H   0  0  0  0  0  0  0  0  0  0  0  0
    2.2841   -1.4348    2.6113 H   0  0  0  0  0  0  0  0  0  0  0  0
  1  2  3  0
  2  3  1  0
  3  4  1  0
  3  5  1  0
  5  6  1  0
  5  7  1  0
  7  8  3  0
  8  9  1  0
  1 10  1  0
  3 11  1  0
  4 12  1  0
  4 13  1  0
  4 14  1  0
  5 15  1  0
  6 16  1  0
  9 17  1  0
  9 18  1  0
  9 19  1  0
M  END
