
     RDKit          3D

 23 22  0  0  0  0  0  0  0  0999 V2000
   -1.9800    1.6668    1.7183 C   0  0  0  0  0  0  0  0  0  0  0  0
   -1.3418    1.0656    0.8888 C   0  0  0  0  0  0  0  0  0  0  0  0
   -0.5751    0.3261   -0.1466 C   0  0  0  0  0  0  0  0  0  0  0  0
   -1.5558   -0.6608   -0.7459 C   0  0  0  0  0  0  0  0  0  0  0  0
   -0.0509    1.3011   -1.1540 C   0  0  0  0  0  0  0  0  0  0  0  0
    0.4818   -0.4284    0.5840 C   0  0  0  0  0  0  0  0  0  0  0  0
    1.4193    0.4492    1.3646 C   0  0  0  0  0  0  0  0  0  0  0  0
    1.2708   -1.3558   -0.3510 C   0  0  0  0  0  0  0  0  0  0  0  0
    0.4369   -2.2833   -0.9457 O   0  0  0  0  0  0  0  0  0  0  0  0
   -2.5255    2.1971    2.4571 H   0  0  0  0  0  0  0  0  0  0  0  0
   -1.2851   -0.9595   -1.7800 H   0  0  0  0  0  0  0  0  0  0  0  0
   -2.5635   -0.1816   -0.7407 H   0  0  0  0  0  0  0  0  0  0  0  0
   -1.5824   -1.5316   -0.0589 H   0  0  0  0  0  0  0  0  0  0  0  0
   -0.5002    1.0214   -2.1430 H   0  0  0  0  0  0  0  0  0  0  0  0
    1.0379    1.2933   -1.2711 H   0  0  0  0  0  0  0  0  0  0  0  0
   -0.3780    2.3447   -0.8998 H   0  0  0  0  0  0  0  0  0  0  0  0
   -0.0232   -1.1085    1.3006 H   0  0  0  0  0  0  0  0  0  0  0  0
    2.4629    0.3259    1.0108 H   0  0  0  0  0  0  0  0  0  0  0  0
    1.4194    0.1681    2.4334 H   0  0  0  0  0  0  0  0  0  0  0  0
    1.1560    1.5141    1.1960 H   0  0  0  0  0  0  0  0  0  0  0  0
    1.8228   -0.7452   -1.0937 H   0  0  0  0  0  0  0  0  0  0  0  0
    2.0372   -1.9166    0.2202 H   0  0  0  0  0  0  0  0  0  0  0  0
    0.8165   -2.5018   -1.8434 H   0  0  0  0  0  0  0  0  0  0  0  0
  1  2  3  0
  2  3  1  0
  3  4  1  0
  3  5  1  0
  3  6  1  0
  6  7  1  0
  6  8  1  0
  8  9  1  0
  1 10  1  0
  4 11  1  0
  4 12  1  0
  4 13  1  0
  5 14  1  0
  5 15  1  0
  5 16  1  0
  6 17  1  0
  7 18  1  0
  7 19  1  0
  7 20  1  0
  8 21  1  0
  8 22  1  0
  9 23  1  0
M  END
