
     RDKit          3D

 17 18  0  0  0  0  0  0  0  0999 V2000
    2.9690   -0.0837   -0.9319 C   0  0  0  0  0  0  0  0  0  0  0  0
    1.8374   -0.1526   -0.5076 C   0  0  0  0  0  0  0  0  0  0  0  0
    0.4643   -0.2520    0.0027 C   0  0  0  0  0  0  0  0  0  0  0  0
   -0.5011   -0.9700   -0.8368 C   0  0  0  0  0  0  0  0  0  0  0  0
   -1.6475   -0.3561   -0.8641 C   0  0  0  0  0  0  0  0  0  0  0  0
   -1.6238    0.8931   -0.0291 C   0  0  0  0  0  0  0  0  0  0  0  0
   -0.1757    1.0422    0.3552 C   0  0  0  0  0  0  0  0  0  0  0  0
    0.0648    0.7545    1.6916 O   0  0  0  0  0  0  0  0  0  0  0  0
    0.3982   -0.5941    1.4745 C   0  0  0  0  0  0  0  0  0  0  0  0
    4.0010   -0.0264   -1.3107 H   0  0  0  0  0  0  0  0  0  0  0  0
   -0.2707   -1.9085   -1.3720 H   0  0  0  0  0  0  0  0  0  0  0  0
   -2.5415   -0.6512   -1.4024 H   0  0  0  0  0  0  0  0  0  0  0  0
   -2.2973    0.7642    0.8293 H   0  0  0  0  0  0  0  0  0  0  0  0
   -1.9598    1.7390   -0.6769 H   0  0  0  0  0  0  0  0  0  0  0  0
    0.3396    1.9037   -0.0884 H   0  0  0  0  0  0  0  0  0  0  0  0
    1.3647   -0.8111    1.9745 H   0  0  0  0  0  0  0  0  0  0  0  0
   -0.4218   -1.2911    1.6921 H   0  0  0  0  0  0  0  0  0  0  0  0
  1  2  3  0
  2  3  1  0
  3  4  1  0
  4  5  2  0
  5  6  1  0
  6  7  1  0
  7  8  1  0
  8  9  1  0
  7  3  1  0
  9  3  1  0
  1 10  1  0
  4 11  1  0
  5 12  1  0
  6 13  1  0
  6 14  1  0
  7 15  1  0
  9 16  1  0
  9 17  1  0
M  END
