
     RDKit          3D

 18 18  0  0  0  0  0  0  0  0999 V2000
   -2.3722   -1.3307    1.2973 C   0  0  0  0  0  0  0  0  0  0  0  0
   -1.3340   -0.7283    1.1880 C   0  0  0  0  0  0  0  0  0  0  0  0
   -0.0672    0.0165    1.0724 C   0  0  0  0  0  0  0  0  0  0  0  0
    0.1170    1.0143    0.0267 C   0  0  0  0  0  0  0  0  0  0  0  0
   -0.9331    1.3458   -0.9950 C   0  0  0  0  0  0  0  0  0  0  0  0
    0.7320   -0.3690   -0.1441 C   0  0  0  0  0  0  0  0  0  0  0  0
    2.2332   -0.4744   -0.0294 C   0  0  0  0  0  0  0  0  0  0  0  0
    0.1675   -1.2215   -1.0924 O   0  0  0  0  0  0  0  0  0  0  0  0
   -3.3070   -1.8560    1.4066 H   0  0  0  0  0  0  0  0  0  0  0  0
    0.5437    0.1478    1.9991 H   0  0  0  0  0  0  0  0  0  0  0  0
    0.8207    1.8650    0.2206 H   0  0  0  0  0  0  0  0  0  0  0  0
   -0.4650    1.2377   -2.0078 H   0  0  0  0  0  0  0  0  0  0  0  0
   -1.8139    0.6739   -0.9452 H   0  0  0  0  0  0  0  0  0  0  0  0
   -1.2534    2.4120   -0.9262 H   0  0  0  0  0  0  0  0  0  0  0  0
    2.6504    0.1987   -0.8318 H   0  0  0  0  0  0  0  0  0  0  0  0
    2.6032   -0.1578    0.9644 H   0  0  0  0  0  0  0  0  0  0  0  0
    2.5070   -1.5327   -0.2552 H   0  0  0  0  0  0  0  0  0  0  0  0
   -0.8289   -1.2414   -0.9480 H   0  0  0  0  0  0  0  0  0  0  0  0
  1  2  3  0
  2  3  1  0
  3  4  1  0
  4  5  1  0
  4  6  1  0
  6  7  1  0
  6  8  1  0
  6  3  1  0
  1  9  1  0
  3 10  1  0
  4 11  1  0
  5 12  1  0
  5 13  1  0
  5 14  1  0
  7 15  1  0
  7 16  1  0
  7 17  1  0
  8 18  1  0
M  END
