
     RDKit          3D

 17 17  0  0  0  0  0  0  0  0999 V2000
    5.1032   -0.0670    0.8928 C   0  0  0  0  0  0  0  0  0  0  0  0
    3.9063    0.0286    0.8371 C   0  0  0  0  0  0  0  0  0  0  0  0
    2.4842    0.1539    0.7493 C   0  0  0  0  0  0  0  0  0  0  0  0
    1.2829    0.2406    0.6665 C   0  0  0  0  0  0  0  0  0  0  0  0
   -0.1810    0.3221    0.5742 C   0  0  0  0  0  0  0  0  0  0  0  0
   -0.8503   -0.8399   -0.0689 C   0  0  0  0  0  0  0  0  0  0  0  0
   -1.4069    0.2279   -0.9693 C   0  0  0  0  0  0  0  0  0  0  0  0
   -2.8282    0.6336   -0.7000 C   0  0  0  0  0  0  0  0  0  0  0  0
   -0.5263    1.1576   -0.4723 O   0  0  0  0  0  0  0  0  0  0  0  0
    6.1684   -0.1339    0.9468 H   0  0  0  0  0  0  0  0  0  0  0  0
   -0.6133    0.5739    1.5628 H   0  0  0  0  0  0  0  0  0  0  0  0
   -0.1743   -1.5566   -0.6012 H   0  0  0  0  0  0  0  0  0  0  0  0
   -1.6359   -1.3381    0.5571 H   0  0  0  0  0  0  0  0  0  0  0  0
   -1.2674   -0.0293   -2.0477 H   0  0  0  0  0  0  0  0  0  0  0  0
   -3.4813   -0.1694   -1.0988 H   0  0  0  0  0  0  0  0  0  0  0  0
   -3.0113    1.5832   -1.2190 H   0  0  0  0  0  0  0  0  0  0  0  0
   -2.9689    0.7504    0.3905 H   0  0  0  0  0  0  0  0  0  0  0  0
  1  2  3  0
  2  3  1  0
  3  4  3  0
  4  5  1  0
  5  6  1  0
  6  7  1  0
  7  8  1  0
  7  9  1  0
  9  5  1  0
  1 10  1  0
  5 11  1  0
  6 12  1  0
  6 13  1  0
  7 14  1  0
  8 15  1  0
  8 16  1  0
  8 17  1  0
M  END
