
     RDKit          3D

 21 20  0  0  0  0  0  0  0  0999 V2000
    0.3055    2.5911   -0.5449 C   0  0  0  0  0  0  0  0  0  0  0  0
    0.0100    1.6240    0.0296 C   0  0  0  0  0  0  0  0  0  0  0  0
   -0.3540    0.3408    0.7878 C   0  0  0  0  0  0  0  0  0  0  0  0
    0.8138   -0.2330    1.1610 O   0  0  0  0  0  0  0  0  0  0  0  0
    1.0505   -0.3229    2.5154 C   0  0  0  0  0  0  0  0  0  0  0  0
   -1.1728   -0.4595   -0.2072 C   0  0  0  0  0  0  0  0  0  0  0  0
   -2.3378    0.2817   -0.3883 O   0  0  0  0  0  0  0  0  0  0  0  0
   -0.4860   -0.4859   -1.5659 C   0  0  0  0  0  0  0  0  0  0  0  0
    0.8694   -1.1037   -1.4661 C   0  0  0  0  0  0  0  0  0  0  0  0
    0.5988    3.4870   -1.0825 H   0  0  0  0  0  0  0  0  0  0  0  0
   -1.0337    0.7003    1.5648 H   0  0  0  0  0  0  0  0  0  0  0  0
    2.0369   -0.8463    2.6672 H   0  0  0  0  0  0  0  0  0  0  0  0
    1.2238    0.6976    2.9756 H   0  0  0  0  0  0  0  0  0  0  0  0
    0.2809   -0.7934    3.1163 H   0  0  0  0  0  0  0  0  0  0  0  0
   -1.3452   -1.4611    0.2102 H   0  0  0  0  0  0  0  0  0  0  0  0
   -2.5272    0.3643   -1.3459 H   0  0  0  0  0  0  0  0  0  0  0  0
   -1.1284   -1.1575   -2.2096 H   0  0  0  0  0  0  0  0  0  0  0  0
   -0.4135    0.5320   -1.9680 H   0  0  0  0  0  0  0  0  0  0  0  0
    0.8654   -1.9021   -0.6773 H   0  0  0  0  0  0  0  0  0  0  0  0
    1.1563   -1.5350   -2.4518 H   0  0  0  0  0  0  0  0  0  0  0  0
    1.5874   -0.3184   -1.1206 H   0  0  0  0  0  0  0  0  0  0  0  0
  1  2  3  0
  2  3  1  0
  3  4  1  0
  4  5  1  0
  3  6  1  0
  6  7  1  0
  6  8  1  0
  8  9  1  0
  1 10  1  0
  3 11  1  0
  5 12  1  0
  5 13  1  0
  5 14  1  0
  6 15  1  0
  7 16  1  0
  8 17  1  0
  8 18  1  0
  9 19  1  0
  9 20  1  0
  9 21  1  0
M  END
