
     RDKit          3D

 16 17  0  0  0  0  0  0  0  0999 V2000
    2.1928    1.8181   -1.8197 C   0  0  0  0  0  0  0  0  0  0  0  0
    1.4825    1.4979   -0.8911 C   0  0  0  0  0  0  0  0  0  0  0  0
    0.5905    1.1140    0.2351 C   0  0  0  0  0  0  0  0  0  0  0  0
    0.5547   -0.2361    0.5882 C   0  0  0  0  0  0  0  0  0  0  0  0
    0.2205   -1.5030   -0.0052 C   0  0  0  0  0  0  0  0  0  0  0  0
   -1.1004   -1.6331    0.0466 C   0  0  0  0  0  0  0  0  0  0  0  0
   -1.6196   -0.3586    0.7114 C   0  0  0  0  0  0  0  0  0  0  0  0
   -0.6588    0.5455   -0.0156 C   0  0  0  0  0  0  0  0  0  0  0  0
    2.7996    2.0981   -2.6410 H   0  0  0  0  0  0  0  0  0  0  0  0
    0.6518    1.9173    1.0246 H   0  0  0  0  0  0  0  0  0  0  0  0
    0.5306   -0.3957    1.7221 H   0  0  0  0  0  0  0  0  0  0  0  0
    0.9166   -2.2493   -0.4330 H   0  0  0  0  0  0  0  0  0  0  0  0
   -1.6503   -2.4797   -0.3170 H   0  0  0  0  0  0  0  0  0  0  0  0
   -2.6542   -0.1660    0.4316 H   0  0  0  0  0  0  0  0  0  0  0  0
   -1.3941   -0.3508    1.7815 H   0  0  0  0  0  0  0  0  0  0  0  0
   -0.8621    0.3812   -1.1222 H   0  0  0  0  0  0  0  0  0  0  0  0
  1  2  3  0
  2  3  1  0
  3  4  1  0
  4  5  1  0
  5  6  2  0
  6  7  1  0
  7  8  1  0
  8  3  1  0
  8  4  1  0
  1  9  1  0
  3 10  1  0
  4 11  1  0
  5 12  1  0
  6 13  1  0
  7 14  1  0
  7 15  1  0
  8 16  1  0
M  END
