
     RDKit          3D

 19 18  0  0  0  0  0  0  0  0999 V2000
   -0.3339    2.6076    2.3239 C   0  0  0  0  0  0  0  0  0  0  0  0
   -0.6240    1.7718    1.4818 C   0  0  0  0  0  0  0  0  0  0  0  0
   -0.9715    0.7573    0.4952 C   0  0  0  0  0  0  0  0  0  0  0  0
    0.1684    0.4513   -0.3898 C   0  0  0  0  0  0  0  0  0  0  0  0
    1.1067    0.1868   -1.1049 C   0  0  0  0  0  0  0  0  0  0  0  0
    2.2432   -0.1373   -1.9916 C   0  0  0  0  0  0  0  0  0  0  0  0
    3.4245    0.1201   -1.3036 O   0  0  0  0  0  0  0  0  0  0  0  0
   -1.3147   -0.5382    1.1972 C   0  0  0  0  0  0  0  0  0  0  0  0
   -1.6807   -1.6162    0.2114 C   0  0  0  0  0  0  0  0  0  0  0  0
   -0.0777    3.3154    3.0598 H   0  0  0  0  0  0  0  0  0  0  0  0
   -1.8240    1.1499   -0.1010 H   0  0  0  0  0  0  0  0  0  0  0  0
    2.1466   -1.1756   -2.3081 H   0  0  0  0  0  0  0  0  0  0  0  0
    2.2539    0.5315   -2.8885 H   0  0  0  0  0  0  0  0  0  0  0  0
    3.5550   -0.5532   -0.5905 H   0  0  0  0  0  0  0  0  0  0  0  0
   -0.4658   -0.8147    1.8302 H   0  0  0  0  0  0  0  0  0  0  0  0
   -2.1886   -0.3817    1.8900 H   0  0  0  0  0  0  0  0  0  0  0  0
   -1.1475   -1.4789   -0.7740 H   0  0  0  0  0  0  0  0  0  0  0  0
   -2.7694   -1.5580   -0.0641 H   0  0  0  0  0  0  0  0  0  0  0  0
   -1.5006   -2.6379    0.6050 H   0  0  0  0  0  0  0  0  0  0  0  0
  1  2  3  0
  2  3  1  0
  3  4  1  0
  4  5  3  0
  5  6  1  0
  6  7  1  0
  3  8  1  0
  8  9  1  0
  1 10  1  0
  3 11  1  0
  6 12  1  0
  6 13  1  0
  7 14  1  0
  8 15  1  0
  8 16  1  0
  9 17  1  0
  9 18  1  0
  9 19  1  0
M  END
