
     RDKit          3D

 16 17  0  0  0  0  0  0  0  0999 V2000
    3.2110    0.0866   -0.2375 C   0  0  0  0  0  0  0  0  0  0  0  0
    2.0859    0.0931    0.2311 C   0  0  0  0  0  0  0  0  0  0  0  0
    0.7385    0.0793    0.8071 C   0  0  0  0  0  0  0  0  0  0  0  0
   -0.1050   -1.0873    0.4982 C   0  0  0  0  0  0  0  0  0  0  0  0
    0.1271   -1.6830   -0.7489 O   0  0  0  0  0  0  0  0  0  0  0  0
   -0.5736   -0.6466   -1.3257 C   0  0  0  0  0  0  0  0  0  0  0  0
   -0.3582    0.2737   -0.1804 C   0  0  0  0  0  0  0  0  0  0  0  0
   -1.5762    1.0455    0.2846 C   0  0  0  0  0  0  0  0  0  0  0  0
    4.1835    0.0930   -0.6579 H   0  0  0  0  0  0  0  0  0  0  0  0
    0.5875    0.5531    1.8029 H   0  0  0  0  0  0  0  0  0  0  0  0
   -0.9309   -1.4327    1.1153 H   0  0  0  0  0  0  0  0  0  0  0  0
   -0.1170   -0.2579   -2.2682 H   0  0  0  0  0  0  0  0  0  0  0  0
   -1.6519   -0.9388   -1.4710 H   0  0  0  0  0  0  0  0  0  0  0  0
   -1.6583    1.9285   -0.3856 H   0  0  0  0  0  0  0  0  0  0  0  0
   -1.4553    1.4434    1.3121 H   0  0  0  0  0  0  0  0  0  0  0  0
   -2.5070    0.4499    0.1616 H   0  0  0  0  0  0  0  0  0  0  0  0
  1  2  3  0
  2  3  1  0
  3  4  1  0
  4  5  1  0
  5  6  1  0
  6  7  1  0
  7  8  1  0
  7  3  1  0
  7  4  1  0
  1  9  1  0
  3 10  1  0
  4 11  1  0
  6 12  1  0
  6 13  1  0
  8 14  1  0
  8 15  1  0
  8 16  1  0
M  END
