
     RDKit          3D

 17 17  0  0  0  0  0  0  0  0999 V2000
    2.6244   -1.0764    1.7201 C   0  0  0  0  0  0  0  0  0  0  0  0
    1.7667   -0.4661    1.1267 C   0  0  0  0  0  0  0  0  0  0  0  0
    0.7120    0.2620    0.4090 C   0  0  0  0  0  0  0  0  0  0  0  0
    0.3671   -0.2992   -0.9949 C   0  0  0  0  0  0  0  0  0  0  0  0
    0.1943    0.7676   -2.0380 C   0  0  0  0  0  0  0  0  0  0  0  0
   -0.5703   -0.4107    0.1485 C   0  0  0  0  0  0  0  0  0  0  0  0
   -0.7366   -1.6646    0.7273 O   0  0  0  0  0  0  0  0  0  0  0  0
   -1.8105    0.3620    0.0049 C   0  0  0  0  0  0  0  0  0  0  0  0
   -2.8181    1.0144   -0.1127 C   0  0  0  0  0  0  0  0  0  0  0  0
    3.3879   -1.6074    2.2537 H   0  0  0  0  0  0  0  0  0  0  0  0
    0.7269    1.3481    0.5329 H   0  0  0  0  0  0  0  0  0  0  0  0
    0.8972   -1.2437   -1.2827 H   0  0  0  0  0  0  0  0  0  0  0  0
    0.6929    1.7324   -1.7533 H   0  0  0  0  0  0  0  0  0  0  0  0
    0.7054    0.4203   -2.9608 H   0  0  0  0  0  0  0  0  0  0  0  0
   -0.8818    0.9420   -2.2934 H   0  0  0  0  0  0  0  0  0  0  0  0
   -1.5486   -1.6534    1.2743 H   0  0  0  0  0  0  0  0  0  0  0  0
   -3.7089    1.5729   -0.2262 H   0  0  0  0  0  0  0  0  0  0  0  0
  1  2  3  0
  2  3  1  0
  3  4  1  0
  4  5  1  0
  4  6  1  0
  6  7  1  0
  6  8  1  0
  8  9  3  0
  6  3  1  0
  1 10  1  0
  3 11  1  0
  4 12  1  0
  5 13  1  0
  5 14  1  0
  5 15  1  0
  7 16  1  0
  9 17  1  0
M  END
