
     RDKit          3D

 19 20  0  0  0  0  0  0  0  0999 V2000
   -1.2476   -3.2465   -1.1925 C   0  0  0  0  0  0  0  0  0  0  0  0
   -0.2545   -2.3414   -0.6832 C   0  0  0  0  0  0  0  0  0  0  0  0
    0.6121   -1.5593   -0.2456 C   0  0  0  0  0  0  0  0  0  0  0  0
    0.3496   -0.0204   -0.6256 C   0  0  0  0  0  0  0  0  0  0  0  0
    1.5210    0.7093   -0.0386 C   0  0  0  0  0  0  0  0  0  0  0  0
    0.9287    0.3763    1.1780 O   0  0  0  0  0  0  0  0  0  0  0  0
   -0.2067    0.7878    0.5704 C   0  0  0  0  0  0  0  0  0  0  0  0
   -0.4120    2.2549    0.5842 C   0  0  0  0  0  0  0  0  0  0  0  0
   -1.0762    0.1472   -0.3585 C   0  0  0  0  0  0  0  0  0  0  0  0
   -1.9221   -3.8588   -1.5321 H   0  0  0  0  0  0  0  0  0  0  0  0
    1.7024   -1.7759   -0.4706 H   0  0  0  0  0  0  0  0  0  0  0  0
    0.6829   -1.5031    0.9185 H   0  0  0  0  0  0  0  0  0  0  0  0
    2.5064    0.2162   -0.2469 H   0  0  0  0  0  0  0  0  0  0  0  0
    1.6573    1.7463   -0.3062 H   0  0  0  0  0  0  0  0  0  0  0  0
   -1.5339    2.5236    0.6282 H   0  0  0  0  0  0  0  0  0  0  0  0
   -0.0692    2.6414    1.6029 H   0  0  0  0  0  0  0  0  0  0  0  0
    0.1432    2.8735   -0.1340 H   0  0  0  0  0  0  0  0  0  0  0  0
   -1.6127    0.6327   -1.2017 H   0  0  0  0  0  0  0  0  0  0  0  0
   -1.7687   -0.6038    0.1415 H   0  0  0  0  0  0  0  0  0  0  0  0
  1  2  3  0
  2  3  1  0
  3  4  1  0
  4  5  1  0
  5  6  1  0
  6  7  1  0
  7  8  1  0
  7  9  1  0
  7  4  1  0
  9  4  1  0
  1 10  1  0
  3 11  1  0
  3 12  1  0
  5 13  1  0
  5 14  1  0
  8 15  1  0
  8 16  1  0
  8 17  1  0
  9 18  1  0
  9 19  1  0
M  END
