
     RDKit          3D

 13 13  0  0  0  0  0  0  0  0999 V2000
    1.8286   -1.6253   -0.5218 C   0  0  0  0  0  0  0  0  0  0  0  0
    0.9049   -0.8877   -0.7670 C   0  0  0  0  0  0  0  0  0  0  0  0
   -0.2251    0.0314   -1.0462 C   0  0  0  0  0  0  0  0  0  0  0  0
    0.0760    1.2842   -0.3236 C   0  0  0  0  0  0  0  0  0  0  0  0
   -0.4146    1.1574    0.8965 C   0  0  0  0  0  0  0  0  0  0  0  0
   -1.0389   -0.2189    0.9249 C   0  0  0  0  0  0  0  0  0  0  0  0
   -1.3561   -0.4403   -0.4384 O   0  0  0  0  0  0  0  0  0  0  0  0
    2.6419   -2.2837   -0.3221 H   0  0  0  0  0  0  0  0  0  0  0  0
   -0.3293    0.1918   -2.1361 H   0  0  0  0  0  0  0  0  0  0  0  0
    0.5953    2.1234   -0.7322 H   0  0  0  0  0  0  0  0  0  0  0  0
   -0.4119    1.8296    1.7324 H   0  0  0  0  0  0  0  0  0  0  0  0
   -0.3167   -0.9867    1.2159 H   0  0  0  0  0  0  0  0  0  0  0  0
   -1.9541   -0.1752    1.5176 H   0  0  0  0  0  0  0  0  0  0  0  0
  1  2  3  0
  2  3  1  0
  3  4  1  0
  4  5  2  0
  5  6  1  0
  6  7  1  0
  7  3  1  0
  1  8  1  0
  3  9  1  0
  4 10  1  0
  5 11  1  0
  6 12  1  0
  6 13  1  0
M  END
