
     RDKit          3D

 19 20  0  0  0  0  0  0  0  0999 V2000
    2.9489    1.5148    0.9820 C   0  0  0  0  0  0  0  0  0  0  0  0
    2.1308    0.6355    0.8647 C   0  0  0  0  0  0  0  0  0  0  0  0
    1.1030   -0.4314    0.7174 C   0  0  0  0  0  0  0  0  0  0  0  0
    1.7666   -1.5956    0.2816 O   0  0  0  0  0  0  0  0  0  0  0  0
    0.1236    0.0001   -0.3128 C   0  0  0  0  0  0  0  0  0  0  0  0
   -1.0133   -0.8671   -0.6741 C   0  0  0  0  0  0  0  0  0  0  0  0
   -1.6577   -0.4555    0.6086 C   0  0  0  0  0  0  0  0  0  0  0  0
   -1.0616    0.8083    0.1168 C   0  0  0  0  0  0  0  0  0  0  0  0
   -1.6310    0.4055   -1.2273 C   0  0  0  0  0  0  0  0  0  0  0  0
    3.6815    2.2763    1.0831 H   0  0  0  0  0  0  0  0  0  0  0  0
    0.6978   -0.6339    1.7232 H   0  0  0  0  0  0  0  0  0  0  0  0
    2.2149   -1.9626    1.0605 H   0  0  0  0  0  0  0  0  0  0  0  0
    0.5921    0.4889   -1.2094 H   0  0  0  0  0  0  0  0  0  0  0  0
   -1.0291   -1.7626   -1.1148 H   0  0  0  0  0  0  0  0  0  0  0  0
   -1.2598   -0.8857    1.5279 H   0  0  0  0  0  0  0  0  0  0  0  0
   -2.7715   -0.5125    0.5923 H   0  0  0  0  0  0  0  0  0  0  0  0
   -1.0742    1.7226    0.5135 H   0  0  0  0  0  0  0  0  0  0  0  0
   -2.7211    0.4111   -1.3115 H   0  0  0  0  0  0  0  0  0  0  0  0
   -1.0398    0.8438   -2.0303 H   0  0  0  0  0  0  0  0  0  0  0  0
  1  2  3  0
  2  3  1  0
  3  4  1  0
  3  5  1  0
  5  6  1  0
  6  7  1  0
  7  8  1  0
  8  9  1  0
  8  5  1  0
  9  6  1  0
  1 10  1  0
  3 11  1  0
  4 12  1  0
  5 13  1  0
  6 14  1  0
  7 15  1  0
  7 16  1  0
  8 17  1  0
  9 18  1  0
  9 19  1  0
M  END
