
     RDKit          3D

 21 20  0  0  0  0  0  0  0  0999 V2000
   -0.8580    0.8024    2.5187 C   0  0  0  0  0  0  0  0  0  0  0  0
   -0.5519    0.1424    1.5382 C   0  0  0  0  0  0  0  0  0  0  0  0
   -0.1862   -0.6443    0.3667 C   0  0  0  0  0  0  0  0  0  0  0  0
   -1.4266   -1.3012   -0.1653 C   0  0  0  0  0  0  0  0  0  0  0  0
    0.8787   -1.6612    0.7256 C   0  0  0  0  0  0  0  0  0  0  0  0
    2.0019   -0.9884    1.1984 O   0  0  0  0  0  0  0  0  0  0  0  0
    0.4183    0.3106   -0.6405 C   0  0  0  0  0  0  0  0  0  0  0  0
   -0.4947    1.3073   -1.0042 O   0  0  0  0  0  0  0  0  0  0  0  0
    0.1601    2.1224   -1.9259 C   0  0  0  0  0  0  0  0  0  0  0  0
   -1.1261    1.3923    3.3621 H   0  0  0  0  0  0  0  0  0  0  0  0
   -2.3095   -0.6539    0.1019 H   0  0  0  0  0  0  0  0  0  0  0  0
   -1.4193   -1.3876   -1.2750 H   0  0  0  0  0  0  0  0  0  0  0  0
   -1.5336   -2.3005    0.3143 H   0  0  0  0  0  0  0  0  0  0  0  0
    0.5142   -2.4173    1.4521 H   0  0  0  0  0  0  0  0  0  0  0  0
    1.1941   -2.1936   -0.1974 H   0  0  0  0  0  0  0  0  0  0  0  0
    1.6811   -0.2264    1.7768 H   0  0  0  0  0  0  0  0  0  0  0  0
    0.7440   -0.1843   -1.5602 H   0  0  0  0  0  0  0  0  0  0  0  0
    1.2607    0.8454   -0.1345 H   0  0  0  0  0  0  0  0  0  0  0  0
    0.4494    1.4928   -2.7963 H   0  0  0  0  0  0  0  0  0  0  0  0
   -0.4581    2.9907   -2.2292 H   0  0  0  0  0  0  0  0  0  0  0  0
    1.0615    2.5525   -1.4263 H   0  0  0  0  0  0  0  0  0  0  0  0
  1  2  3  0
  2  3  1  0
  3  4  1  0
  3  5  1  0
  5  6  1  0
  3  7  1  0
  7  8  1  0
  8  9  1  0
  1 10  1  0
  4 11  1  0
  4 12  1  0
  4 13  1  0
  5 14  1  0
  5 15  1  0
  6 16  1  0
  7 17  1  0
  7 18  1  0
  9 19  1  0
  9 20  1  0
  9 21  1  0
M  END
