
     RDKit          3D

 17 17  0  0  0  0  0  0  0  0999 V2000
    2.2093   -0.6302    2.1141 C   0  0  0  0  0  0  0  0  0  0  0  0
    1.5556   -0.6772    1.1010 C   0  0  0  0  0  0  0  0  0  0  0  0
    0.7727   -0.7087   -0.1197 C   0  0  0  0  0  0  0  0  0  0  0  0
   -0.1962   -1.7228   -0.1806 O   0  0  0  0  0  0  0  0  0  0  0  0
   -0.9348   -0.8440   -1.0052 C   0  0  0  0  0  0  0  0  0  0  0  0
   -0.3961    0.2771   -0.1477 C   0  0  0  0  0  0  0  0  0  0  0  0
   -1.0310    0.4046    1.2042 C   0  0  0  0  0  0  0  0  0  0  0  0
   -0.0982    1.5250   -0.8630 C   0  0  0  0  0  0  0  0  0  0  0  0
    0.5150    2.3962   -0.2583 O   0  0  0  0  0  0  0  0  0  0  0  0
    2.7819   -0.5864    3.0056 H   0  0  0  0  0  0  0  0  0  0  0  0
    1.3659   -0.6883   -1.0518 H   0  0  0  0  0  0  0  0  0  0  0  0
   -0.5104   -0.7602   -2.0235 H   0  0  0  0  0  0  0  0  0  0  0  0
   -2.0270   -0.9719   -0.9438 H   0  0  0  0  0  0  0  0  0  0  0  0
   -1.8732    1.1218    1.1693 H   0  0  0  0  0  0  0  0  0  0  0  0
   -1.4034   -0.6130    1.4858 H   0  0  0  0  0  0  0  0  0  0  0  0
   -0.3512    0.7370    1.9961 H   0  0  0  0  0  0  0  0  0  0  0  0
   -0.3790    1.7408   -1.8916 H   0  0  0  0  0  0  0  0  0  0  0  0
  1  2  3  0
  2  3  1  0
  3  4  1  0
  4  5  1  0
  5  6  1  0
  6  7  1  0
  6  8  1  0
  8  9  2  0
  6  3  1  0
  1 10  1  0
  3 11  1  0
  5 12  1  0
  5 13  1  0
  7 14  1  0
  7 15  1  0
  7 16  1  0
  8 17  1  0
M  END
