
     RDKit          3D

 21 21  0  0  0  0  0  0  0  0999 V2000
   -1.8282    2.9701   -0.5947 C   0  0  0  0  0  0  0  0  0  0  0  0
   -0.8247    2.3003   -0.5431 C   0  0  0  0  0  0  0  0  0  0  0  0
    0.3738    1.4719   -0.4885 C   0  0  0  0  0  0  0  0  0  0  0  0
    0.7264    0.9732    0.8929 C   0  0  0  0  0  0  0  0  0  0  0  0
    0.8843   -0.4038    0.3527 C   0  0  0  0  0  0  0  0  0  0  0  0
    0.2190   -1.4321    0.9141 O   0  0  0  0  0  0  0  0  0  0  0  0
    0.8843   -2.6072    1.0897 C   0  0  0  0  0  0  0  0  0  0  0  0
    0.1546    0.0529   -0.9200 C   0  0  0  0  0  0  0  0  0  0  0  0
   -1.3202   -0.3433   -0.9117 C   0  0  0  0  0  0  0  0  0  0  0  0
   -2.7152    3.5724   -0.6308 H   0  0  0  0  0  0  0  0  0  0  0  0
    1.1927    1.9707   -1.0356 H   0  0  0  0  0  0  0  0  0  0  0  0
    1.6463    1.4848    1.2420 H   0  0  0  0  0  0  0  0  0  0  0  0
   -0.0918    1.1696    1.5830 H   0  0  0  0  0  0  0  0  0  0  0  0
    1.9466   -0.5963    0.0699 H   0  0  0  0  0  0  0  0  0  0  0  0
    1.7743   -2.5667    1.7239 H   0  0  0  0  0  0  0  0  0  0  0  0
    1.1796   -3.0822    0.1280 H   0  0  0  0  0  0  0  0  0  0  0  0
    0.1822   -3.3296    1.5718 H   0  0  0  0  0  0  0  0  0  0  0  0
    0.6398   -0.2484   -1.8529 H   0  0  0  0  0  0  0  0  0  0  0  0
   -1.6098   -0.3985    0.1779 H   0  0  0  0  0  0  0  0  0  0  0  0
   -1.9570    0.3828   -1.4227 H   0  0  0  0  0  0  0  0  0  0  0  0
   -1.4572   -1.3406   -1.3462 H   0  0  0  0  0  0  0  0  0  0  0  0
  1  2  3  0
  2  3  1  0
  3  4  1  0
  4  5  1  0
  5  6  1  0
  6  7  1  0
  5  8  1  0
  8  9  1  0
  8  3  1  0
  1 10  1  0
  3 11  1  0
  4 12  1  0
  4 13  1  0
  5 14  1  0
  7 15  1  0
  7 16  1  0
  7 17  1  0
  8 18  1  0
  9 19  1  0
  9 20  1  0
  9 21  1  0
M  END
