
     RDKit          3D

 19 18  0  0  0  0  0  0  0  0999 V2000
    2.5636    0.5291    1.4585 C   0  0  0  0  0  0  0  0  0  0  0  0
    1.8123    0.3648    0.4824 C   0  0  0  0  0  0  0  0  0  0  0  0
    0.9835    0.2077   -0.5935 C   0  0  0  0  0  0  0  0  0  0  0  0
    0.8856   -1.3012   -0.9989 C   0  0  0  0  0  0  0  0  0  0  0  0
   -0.4814    0.6328   -0.4067 C   0  0  0  0  0  0  0  0  0  0  0  0
   -0.3879    2.1220    0.0022 C   0  0  0  0  0  0  0  0  0  0  0  0
   -1.3355    2.2155    0.9434 O   0  0  0  0  0  0  0  0  0  0  0  0
   -1.2812   -0.1378    0.1106 O   0  0  0  0  0  0  0  0  0  0  0  0
   -2.1014   -0.9239    0.6304 C   0  0  0  0  0  0  0  0  0  0  0  0
    3.2383    0.6775    2.3658 H   0  0  0  0  0  0  0  0  0  0  0  0
    1.3796    0.6662   -1.5184 H   0  0  0  0  0  0  0  0  0  0  0  0
    0.9308   -1.4023   -2.1225 H   0  0  0  0  0  0  0  0  0  0  0  0
    1.7485   -1.8260   -0.6134 H   0  0  0  0  0  0  0  0  0  0  0  0
   -0.0442   -1.7391   -0.6538 H   0  0  0  0  0  0  0  0  0  0  0  0
   -0.7945    0.8127   -1.5350 H   0  0  0  0  0  0  0  0  0  0  0  0
    0.1048    2.8877   -0.2196 H   0  0  0  0  0  0  0  0  0  0  0  0
   -1.8099   -1.1881    1.7265 H   0  0  0  0  0  0  0  0  0  0  0  0
   -2.2246   -1.9825    0.2010 H   0  0  0  0  0  0  0  0  0  0  0  0
   -3.1864   -0.6151    0.7411 H   0  0  0  0  0  0  0  0  0  0  0  0
  1  2  3  0
  2  3  1  0
  3  4  1  0
  3  5  1  0
  5  6  1  0
  6  7  2  0
  5  8  1  0
  8  9  1  0
  1 10  1  0
  3 11  1  0
  4 12  1  0
  4 13  1  0
  4 14  1  0
  5 15  1  0
  6 16  1  0
  9 17  1  0
  9 18  1  0
  9 19  1  0
M  END
