
     RDKit          3D

 23 22  0  0  0  0  0  0  0  0999 V2000
   -1.5929    2.2953    0.7854 C   0  0  0  0  0  0  0  0  0  0  0  0
   -1.0274    1.2697    0.4949 C   0  0  0  0  0  0  0  0  0  0  0  0
   -0.3363    0.0068    0.1581 C   0  0  0  0  0  0  0  0  0  0  0  0
   -0.6367   -0.2651   -1.2964 C   0  0  0  0  0  0  0  0  0  0  0  0
   -0.7352   -1.0460    0.9246 O   0  0  0  0  0  0  0  0  0  0  0  0
   -2.0647   -1.3679    0.8523 C   0  0  0  0  0  0  0  0  0  0  0  0
    1.1604    0.2058    0.3787 C   0  0  0  0  0  0  0  0  0  0  0  0
    1.7027    1.3130   -0.4917 C   0  0  0  0  0  0  0  0  0  0  0  0
    1.8776   -1.0921    0.1042 C   0  0  0  0  0  0  0  0  0  0  0  0
   -2.0779    3.2133    1.0399 H   0  0  0  0  0  0  0  0  0  0  0  0
   -0.3377   -1.2852   -1.6135 H   0  0  0  0  0  0  0  0  0  0  0  0
   -0.1398    0.4595   -1.9811 H   0  0  0  0  0  0  0  0  0  0  0  0
   -1.7169   -0.1663   -1.4710 H   0  0  0  0  0  0  0  0  0  0  0  0
   -2.2340   -2.2418    1.5299 H   0  0  0  0  0  0  0  0  0  0  0  0
   -2.7528   -0.5809    1.1706 H   0  0  0  0  0  0  0  0  0  0  0  0
   -2.2813   -1.6909   -0.1924 H   0  0  0  0  0  0  0  0  0  0  0  0
    1.3432    0.4821    1.4280 H   0  0  0  0  0  0  0  0  0  0  0  0
    2.7468    1.4991   -0.1536 H   0  0  0  0  0  0  0  0  0  0  0  0
    1.7723    1.0325   -1.5608 H   0  0  0  0  0  0  0  0  0  0  0  0
    1.0893    2.2206   -0.3149 H   0  0  0  0  0  0  0  0  0  0  0  0
    2.1409   -1.6029    1.0662 H   0  0  0  0  0  0  0  0  0  0  0  0
    1.2618   -1.8104   -0.4604 H   0  0  0  0  0  0  0  0  0  0  0  0
    2.8388   -0.8484   -0.3971 H   0  0  0  0  0  0  0  0  0  0  0  0
  1  2  3  0
  2  3  1  0
  3  4  1  0
  3  5  1  0
  5  6  1  0
  3  7  1  0
  7  8  1  0
  7  9  1  0
  1 10  1  0
  4 11  1  0
  4 12  1  0
  4 13  1  0
  6 14  1  0
  6 15  1  0
  6 16  1  0
  7 17  1  0
  8 18  1  0
  8 19  1  0
  8 20  1  0
  9 21  1  0
  9 22  1  0
  9 23  1  0
M  END
