
     RDKit          3D

 21 21  0  0  0  0  0  0  0  0999 V2000
    1.8638    2.8255    0.2347 C   0  0  0  0  0  0  0  0  0  0  0  0
    1.4522    1.7460   -0.1096 C   0  0  0  0  0  0  0  0  0  0  0  0
    0.9437    0.4575   -0.5023 C   0  0  0  0  0  0  0  0  0  0  0  0
    1.6666   -0.7089    0.1837 C   0  0  0  0  0  0  0  0  0  0  0  0
    2.6369   -1.3091   -0.5769 O   0  0  0  0  0  0  0  0  0  0  0  0
    0.3024   -1.4136    0.1594 C   0  0  0  0  0  0  0  0  0  0  0  0
   -0.2999   -0.0055    0.2264 C   0  0  0  0  0  0  0  0  0  0  0  0
   -1.5847    0.1474   -0.5494 C   0  0  0  0  0  0  0  0  0  0  0  0
   -2.7022   -0.3701    0.3513 C   0  0  0  0  0  0  0  0  0  0  0  0
    2.2306    3.7857    0.5449 H   0  0  0  0  0  0  0  0  0  0  0  0
    0.8400    0.2697   -1.5888 H   0  0  0  0  0  0  0  0  0  0  0  0
    1.9353   -0.4602    1.2273 H   0  0  0  0  0  0  0  0  0  0  0  0
    3.2095   -0.6861   -1.0695 H   0  0  0  0  0  0  0  0  0  0  0  0
    0.1433   -1.8807   -0.8274 H   0  0  0  0  0  0  0  0  0  0  0  0
    0.0780   -2.0047    1.0451 H   0  0  0  0  0  0  0  0  0  0  0  0
   -0.3779    0.2924    1.2831 H   0  0  0  0  0  0  0  0  0  0  0  0
   -1.7497    1.2177   -0.7465 H   0  0  0  0  0  0  0  0  0  0  0  0
   -1.6151   -0.4531   -1.4606 H   0  0  0  0  0  0  0  0  0  0  0  0
   -3.6624   -0.1636   -0.1427 H   0  0  0  0  0  0  0  0  0  0  0  0
   -2.7209    0.1662    1.3280 H   0  0  0  0  0  0  0  0  0  0  0  0
   -2.5892   -1.4523    0.4940 H   0  0  0  0  0  0  0  0  0  0  0  0
  1  2  3  0
  2  3  1  0
  3  4  1  0
  4  5  1  0
  4  6  1  0
  6  7  1  0
  7  8  1  0
  8  9  1  0
  7  3  1  0
  1 10  1  0
  3 11  1  0
  4 12  1  0
  5 13  1  0
  6 14  1  0
  6 15  1  0
  7 16  1  0
  8 17  1  0
  8 18  1  0
  9 19  1  0
  9 20  1  0
  9 21  1  0
M  END
