
     RDKit          3D

 18 17  0  0  0  0  0  0  0  0999 V2000
    2.7711   -0.9292   -1.7039 C   0  0  0  0  0  0  0  0  0  0  0  0
    1.8873   -0.1382   -1.2635 C   0  0  0  0  0  0  0  0  0  0  0  0
    0.7848    0.8740   -0.6854 C   0  0  0  0  0  0  0  0  0  0  0  0
    0.0133   -0.1305    0.2420 C   0  0  0  0  0  0  0  0  0  0  0  0
    0.6538   -0.5476    1.2996 C   0  0  0  0  0  0  0  0  0  0  0  0
    1.2861   -0.9617    2.3845 C   0  0  0  0  0  0  0  0  0  0  0  0
   -1.4650   -0.2382    0.0074 C   0  0  0  0  0  0  0  0  0  0  0  0
   -2.2461    1.0366    0.3169 C   0  0  0  0  0  0  0  0  0  0  0  0
    3.4964   -1.5565   -2.0515 H   0  0  0  0  0  0  0  0  0  0  0  0
    1.3778    1.5291   -0.1370 H   0  0  0  0  0  0  0  0  0  0  0  0
    0.2315    1.0541   -1.5937 H   0  0  0  0  0  0  0  0  0  0  0  0
    0.3178   -1.1869   -0.5402 H   0  0  0  0  0  0  0  0  0  0  0  0
    1.7660   -1.2723    3.2363 H   0  0  0  0  0  0  0  0  0  0  0  0
   -1.8822   -1.1004    0.5234 H   0  0  0  0  0  0  0  0  0  0  0  0
   -1.6383   -0.4430   -1.1320 H   0  0  0  0  0  0  0  0  0  0  0  0
   -2.6876    0.8665    1.3178 H   0  0  0  0  0  0  0  0  0  0  0  0
   -3.0636    1.1518   -0.4562 H   0  0  0  0  0  0  0  0  0  0  0  0
   -1.6030    1.9180    0.2356 H   0  0  0  0  0  0  0  0  0  0  0  0
  1  2  3  0
  2  3  1  0
  3  4  1  0
  4  5  1  0
  5  6  3  0
  4  7  1  0
  7  8  1  0
  1  9  1  0
  3 10  1  0
  3 11  1  0
  4 12  1  0
  6 13  1  0
  7 14  1  0
  7 15  1  0
  8 16  1  0
  8 17  1  0
  8 18  1  0
M  END
