
     RDKit          3D

 15 14  0  0  0  0  0  0  0  0999 V2000
    2.8119   -0.6534    2.4313 C   0  0  0  0  0  0  0  0  0  0  0  0
    1.8472   -0.4611    0.5810 C   0  0  0  0  0  0  0  0  0  0  0  0
    1.4610   -0.3820   -0.1927 C   0  0  0  0  0  0  0  0  0  0  0  0
    0.1484   -0.6345   -0.5876 O   0  0  0  0  0  0  0  0  0  0  0  0
   -1.0337   -0.2206   -0.3239 C   0  0  0  0  0  0  0  0  0  0  0  0
   -1.0434    0.9460   -0.4647 C   0  0  0  0  0  0  0  0  0  0  0  0
   -1.0366    2.6437   -0.6488 C   0  0  0  0  0  0  0  0  0  0  0  0
   -2.0561   -1.1075   -0.9600 C   0  0  0  0  0  0  0  0  0  0  0  0
   -3.1569   -1.0306    0.0545 O   0  0  0  0  0  0  0  0  0  0  0  0
    3.3467   -0.7447    3.4248 H   0  0  0  0  0  0  0  0  0  0  0  0
    1.9737   -1.0125   -1.1737 H   0  0  0  0  0  0  0  0  0  0  0  0
    1.6363    0.8515   -0.7589 H   0  0  0  0  0  0  0  0  0  0  0  0
   -1.3432   -0.2281    0.9201 H   0  0  0  0  0  0  0  0  0  0  0  0
   -1.0231    3.7166   -0.7647 H   0  0  0  0  0  0  0  0  0  0  0  0
   -2.5322   -1.6829   -1.5367 H   0  0  0  0  0  0  0  0  0  0  0  0
  1  2  3  0
  2  3  1  0
  3  4  1  0
  4  5  1  0
  5  6  1  0
  6  7  3  0
  5  8  1  0
  8  9  2  0
  1 10  1  0
  3 11  1  0
  3 12  1  0
  5 13  1  0
  7 14  1  0
  8 15  1  0
M  END
