
     RDKit          3D

 15 16  0  0  0  0  0  0  0  0999 V2000
    3.3746   -0.8939   -1.0727 C   0  0  0  0  0  0  0  0  0  0  0  0
    1.9184   -0.4821   -0.5725 C   0  0  0  0  0  0  0  0  0  0  0  0
    0.8710   -0.1955   -0.1957 C   0  0  0  0  0  0  0  0  0  0  0  0
    0.1000   -0.4700    1.0154 C   0  0  0  0  0  0  0  0  0  0  0  0
   -1.1062   -0.8264    0.4163 C   0  0  0  0  0  0  0  0  0  0  0  0
   -2.0668    0.3772    0.6805 C   0  0  0  0  0  0  0  0  0  0  0  0
   -1.1052    1.3982    0.2087 C   0  0  0  0  0  0  0  0  0  0  0  0
   -0.2724    0.6877   -0.7731 C   0  0  0  0  0  0  0  0  0  0  0  0
   -1.0818   -0.4879   -0.9759 O   0  0  0  0  0  0  0  0  0  0  0  0
    4.6351   -1.2424   -1.4813 H   0  0  0  0  0  0  0  0  0  0  0  0
    0.7456   -0.1638    1.8703 H   0  0  0  0  0  0  0  0  0  0  0  0
   -1.6509   -1.7858    0.7152 H   0  0  0  0  0  0  0  0  0  0  0  0
   -3.0097    0.5047    1.0609 H   0  0  0  0  0  0  0  0  0  0  0  0
   -1.2531    2.3587    0.7500 H   0  0  0  0  0  0  0  0  0  0  0  0
   -0.0986    1.2212   -1.6347 H   0  0  0  0  0  0  0  0  0  0  0  0
  1  2  3  0
  2  3  1  0
  3  4  2  0
  4  5  1  0
  5  6  1  0
  6  7  2  0
  7  8  1  0
  8  9  1  0
  8  3  1  0
  9  5  1  0
  1 10  1  0
  4 11  1  0
  5 12  1  0
  6 13  1  0
  7 14  1  0
  8 15  1  0
M  END
