
     RDKit          3D

 19 18  0  0  0  0  0  0  0  0999 V2000
    2.5454    2.4171    0.6976 C   0  0  0  0  0  0  0  0  0  0  0  0
    2.2045    1.2484    0.6992 C   0  0  0  0  0  0  0  0  0  0  0  0
    1.7932   -0.1517    0.7043 C   0  0  0  0  0  0  0  0  0  0  0  0
    2.4618   -0.9466   -0.3970 C   0  0  0  0  0  0  0  0  0  0  0  0
    0.3415   -0.1788    0.5161 C   0  0  0  0  0  0  0  0  0  0  0  0
   -0.8535   -0.2025    0.3399 C   0  0  0  0  0  0  0  0  0  0  0  0
   -2.3149   -0.2493    0.1057 C   0  0  0  0  0  0  0  0  0  0  0  0
   -2.5047   -0.6104   -1.3293 C   0  0  0  0  0  0  0  0  0  0  0  0
   -2.8905    0.9904    0.3734 O   0  0  0  0  0  0  0  0  0  0  0  0
    2.8570    3.4241    0.6903 H   0  0  0  0  0  0  0  0  0  0  0  0
    2.0850   -0.6585    1.6678 H   0  0  0  0  0  0  0  0  0  0  0  0
    2.2550   -2.0266   -0.1792 H   0  0  0  0  0  0  0  0  0  0  0  0
    2.0182   -0.7521   -1.3929 H   0  0  0  0  0  0  0  0  0  0  0  0
    3.5549   -0.8208   -0.3611 H   0  0  0  0  0  0  0  0  0  0  0  0
   -2.7955   -0.9810    0.7831 H   0  0  0  0  0  0  0  0  0  0  0  0
   -2.8437   -1.6559   -1.4854 H   0  0  0  0  0  0  0  0  0  0  0  0
   -3.3062    0.0341   -1.7487 H   0  0  0  0  0  0  0  0  0  0  0  0
   -1.5824   -0.4061   -1.9354 H   0  0  0  0  0  0  0  0  0  0  0  0
   -3.0250    1.5260   -0.4534 H   0  0  0  0  0  0  0  0  0  0  0  0
  1  2  3  0
  2  3  1  0
  3  4  1  0
  3  5  1  0
  5  6  3  0
  6  7  1  0
  7  8  1  0
  7  9  1  0
  1 10  1  0
  3 11  1  0
  4 12  1  0
  4 13  1  0
  4 14  1  0
  7 15  1  0
  8 16  1  0
  8 17  1  0
  8 18  1  0
  9 19  1  0
M  END
