
     RDKit          3D

 21 21  0  0  0  0  0  0  0  0999 V2000
    3.7125    0.8218    0.6021 C   0  0  0  0  0  0  0  0  0  0  0  0
    2.5142    0.9524    0.7677 C   0  0  0  0  0  0  0  0  0  0  0  0
    1.1435    1.0794    0.9673 C   0  0  0  0  0  0  0  0  0  0  0  0
    0.4844   -0.2857    1.0155 C   0  0  0  0  0  0  0  0  0  0  0  0
   -0.9989   -0.3077    1.2685 C   0  0  0  0  0  0  0  0  0  0  0  0
   -0.4488   -0.6700   -0.0832 C   0  0  0  0  0  0  0  0  0  0  0  0
   -0.5505   -2.0110   -0.3964 O   0  0  0  0  0  0  0  0  0  0  0  0
   -0.7030    0.2913   -1.2316 C   0  0  0  0  0  0  0  0  0  0  0  0
   -1.6453   -0.3103   -2.2571 C   0  0  0  0  0  0  0  0  0  0  0  0
    4.8685    0.7078    0.4557 H   0  0  0  0  0  0  0  0  0  0  0  0
    0.6409    1.7127    0.1520 H   0  0  0  0  0  0  0  0  0  0  0  0
    0.9014    1.6071    1.9075 H   0  0  0  0  0  0  0  0  0  0  0  0
    1.1430   -1.0558    1.4435 H   0  0  0  0  0  0  0  0  0  0  0  0
   -1.5774    0.6146    1.3181 H   0  0  0  0  0  0  0  0  0  0  0  0
   -1.3662   -1.1509    1.9247 H   0  0  0  0  0  0  0  0  0  0  0  0
   -1.4545   -2.3324   -0.0964 H   0  0  0  0  0  0  0  0  0  0  0  0
    0.2671    0.5004   -1.7162 H   0  0  0  0  0  0  0  0  0  0  0  0
   -1.2050    1.2254   -0.8830 H   0  0  0  0  0  0  0  0  0  0  0  0
   -1.1228   -0.9574   -2.9916 H   0  0  0  0  0  0  0  0  0  0  0  0
   -2.4365   -0.9331   -1.8077 H   0  0  0  0  0  0  0  0  0  0  0  0
   -2.1664    0.5016   -2.8398 H   0  0  0  0  0  0  0  0  0  0  0  0
  1  2  3  0
  2  3  1  0
  3  4  1  0
  4  5  1  0
  5  6  1  0
  6  7  1  0
  6  8  1  0
  8  9  1  0
  6  4  1  0
  1 10  1  0
  3 11  1  0
  3 12  1  0
  4 13  1  0
  5 14  1  0
  5 15  1  0
  7 16  1  0
  8 17  1  0
  8 18  1  0
  9 19  1  0
  9 20  1  0
  9 21  1  0
M  END
