
     RDKit          3D

 21 20  0  0  0  0  0  0  0  0999 V2000
   -0.7358    2.8310    0.7640 C   0  0  0  0  0  0  0  0  0  0  0  0
   -0.2233    1.7370    0.2265 C   0  0  0  0  0  0  0  0  0  0  0  0
    0.2633    0.7462   -0.2588 C   0  0  0  0  0  0  0  0  0  0  0  0
   -0.8333   -0.1381   -0.9652 C   0  0  0  0  0  0  0  0  0  0  0  0
   -0.3618   -1.2226   -1.6202 O   0  0  0  0  0  0  0  0  0  0  0  0
   -1.4667   -1.9124   -2.1076 C   0  0  0  0  0  0  0  0  0  0  0  0
    0.9317   -0.2288    0.7528 C   0  0  0  0  0  0  0  0  0  0  0  0
    2.1069    0.3723    1.4326 C   0  0  0  0  0  0  0  0  0  0  0  0
   -0.0668   -0.4810    1.7457 O   0  0  0  0  0  0  0  0  0  0  0  0
   -1.2375    3.8699    1.2833 H   0  0  0  0  0  0  0  0  0  0  0  0
    1.0860    0.8303   -1.0793 H   0  0  0  0  0  0  0  0  0  0  0  0
   -1.3549   -0.5660   -0.0396 H   0  0  0  0  0  0  0  0  0  0  0  0
   -1.5297    0.5111   -1.4180 H   0  0  0  0  0  0  0  0  0  0  0  0
   -2.0790   -2.2870   -1.2539 H   0  0  0  0  0  0  0  0  0  0  0  0
   -2.1334   -1.0944   -2.5578 H   0  0  0  0  0  0  0  0  0  0  0  0
   -1.2511   -2.7023   -2.8148 H   0  0  0  0  0  0  0  0  0  0  0  0
    1.1874   -1.1718    0.2743 H   0  0  0  0  0  0  0  0  0  0  0  0
    2.0017    0.1822    2.5575 H   0  0  0  0  0  0  0  0  0  0  0  0
    2.1757    1.4778    1.3056 H   0  0  0  0  0  0  0  0  0  0  0  0
    3.0684   -0.1190    1.1677 H   0  0  0  0  0  0  0  0  0  0  0  0
    0.4522   -0.6345    2.6052 H   0  0  0  0  0  0  0  0  0  0  0  0
  1  2  3  0
  2  3  1  0
  3  4  1  0
  4  5  1  0
  5  6  1  0
  3  7  1  0
  7  8  1  0
  7  9  1  0
  1 10  1  0
  3 11  1  0
  4 12  1  0
  4 13  1  0
  6 14  1  0
  6 15  1  0
  6 16  1  0
  7 17  1  0
  8 18  1  0
  8 19  1  0
  8 20  1  0
  9 21  1  0
M  END
