
     RDKit          3D

 19 20  0  0  0  0  0  0  0  0999 V2000
    2.5936    0.8037   -1.2193 C   0  0  0  0  0  0  0  0  0  0  0  0
    1.8852   -0.0324   -0.6922 C   0  0  0  0  0  0  0  0  0  0  0  0
    1.0270   -1.0130   -0.0497 C   0  0  0  0  0  0  0  0  0  0  0  0
   -0.2798   -1.2893   -0.7545 C   0  0  0  0  0  0  0  0  0  0  0  0
   -0.8404    0.0704   -0.9231 C   0  0  0  0  0  0  0  0  0  0  0  0
   -0.6173    0.6371    0.2892 C   0  0  0  0  0  0  0  0  0  0  0  0
   -0.9907    1.9935    0.7671 C   0  0  0  0  0  0  0  0  0  0  0  0
    0.0848   -0.4241    1.0106 C   0  0  0  0  0  0  0  0  0  0  0  0
   -0.8051   -1.6262    0.6526 C   0  0  0  0  0  0  0  0  0  0  0  0
    3.2153    1.5214   -1.6920 H   0  0  0  0  0  0  0  0  0  0  0  0
    1.5544   -1.9152    0.2641 H   0  0  0  0  0  0  0  0  0  0  0  0
   -0.3496   -2.0161   -1.5042 H   0  0  0  0  0  0  0  0  0  0  0  0
   -1.3195    0.5512   -1.7712 H   0  0  0  0  0  0  0  0  0  0  0  0
   -0.4170    2.1815    1.6911 H   0  0  0  0  0  0  0  0  0  0  0  0
   -2.0688    2.0624    1.0331 H   0  0  0  0  0  0  0  0  0  0  0  0
   -0.7892    2.7661   -0.0093 H   0  0  0  0  0  0  0  0  0  0  0  0
    0.4265   -0.3273    1.9931 H   0  0  0  0  0  0  0  0  0  0  0  0
   -1.8561   -1.3634    0.8061 H   0  0  0  0  0  0  0  0  0  0  0  0
   -0.4533   -2.5803    1.0440 H   0  0  0  0  0  0  0  0  0  0  0  0
  1  2  3  0
  2  3  1  0
  3  4  1  0
  4  5  1  0
  5  6  2  0
  6  7  1  0
  6  8  1  0
  8  9  1  0
  8  3  1  0
  9  4  1  0
  1 10  1  0
  3 11  1  0
  4 12  1  0
  5 13  1  0
  7 14  1  0
  7 15  1  0
  7 16  1  0
  8 17  1  0
  9 18  1  0
  9 19  1  0
M  END
