
     RDKit          3D

 21 21  0  0  0  0  0  0  0  0999 V2000
   -0.1634    2.6405   -0.0426 C   0  0  0  0  0  0  0  0  0  0  0  0
   -0.1970    1.4294   -0.0944 C   0  0  0  0  0  0  0  0  0  0  0  0
   -0.2584   -0.0297   -0.1456 C   0  0  0  0  0  0  0  0  0  0  0  0
    0.2351   -0.6842   -1.4067 C   0  0  0  0  0  0  0  0  0  0  0  0
    1.6909   -0.3271   -1.6233 C   0  0  0  0  0  0  0  0  0  0  0  0
   -0.4695   -0.0809   -2.4746 O   0  0  0  0  0  0  0  0  0  0  0  0
   -1.5155   -0.6666    0.4830 C   0  0  0  0  0  0  0  0  0  0  0  0
   -0.1512   -0.7631    1.1269 C   0  0  0  0  0  0  0  0  0  0  0  0
   -0.0166   -0.0855    2.4410 C   0  0  0  0  0  0  0  0  0  0  0  0
   -0.1519    3.7115    0.0079 H   0  0  0  0  0  0  0  0  0  0  0  0
    0.0501   -1.7614   -1.3712 H   0  0  0  0  0  0  0  0  0  0  0  0
    2.3289   -0.9970   -0.9753 H   0  0  0  0  0  0  0  0  0  0  0  0
    1.9027   -0.4797   -2.6982 H   0  0  0  0  0  0  0  0  0  0  0  0
    1.8292    0.7285   -1.3300 H   0  0  0  0  0  0  0  0  0  0  0  0
   -1.3070    0.3517   -2.1508 H   0  0  0  0  0  0  0  0  0  0  0  0
   -2.2687    0.0136    0.8934 H   0  0  0  0  0  0  0  0  0  0  0  0
   -1.9281   -1.5546   -0.0517 H   0  0  0  0  0  0  0  0  0  0  0  0
    0.3700   -1.7519    1.0553 H   0  0  0  0  0  0  0  0  0  0  0  0
    0.3004   -0.8067    3.2253 H   0  0  0  0  0  0  0  0  0  0  0  0
    0.7063    0.7535    2.3964 H   0  0  0  0  0  0  0  0  0  0  0  0
   -0.9863    0.3599    2.7352 H   0  0  0  0  0  0  0  0  0  0  0  0
  1  2  3  0
  2  3  1  0
  3  4  1  0
  4  5  1  0
  4  6  1  0
  3  7  1  0
  7  8  1  0
  8  9  1  0
  8  3  1  0
  1 10  1  0
  4 11  1  0
  5 12  1  0
  5 13  1  0
  5 14  1  0
  6 15  1  0
  7 16  1  0
  7 17  1  0
  8 18  1  0
  9 19  1  0
  9 20  1  0
  9 21  1  0
M  END
