
     RDKit          3D

 15 15  0  0  0  0  0  0  0  0999 V2000
    3.2403    0.5406    1.9155 C   0  0  0  0  0  0  0  0  0  0  0  0
    2.4168   -0.0333    1.3432 C   0  0  0  0  0  0  0  0  0  0  0  0
    1.2519   -0.8779    0.5088 C   0  0  0  0  0  0  0  0  0  0  0  0
    1.7281   -1.9005    0.4361 O   0  0  0  0  0  0  0  0  0  0  0  0
    0.2289    0.1313    0.3410 C   0  0  0  0  0  0  0  0  0  0  0  0
    0.6556    1.3671    0.5792 O   0  0  0  0  0  0  0  0  0  0  0  0
   -1.1877    0.0722    0.0225 C   0  0  0  0  0  0  0  0  0  0  0  0
   -1.4865    0.4381   -1.5123 C   0  0  0  0  0  0  0  0  0  0  0  0
   -1.8392   -0.8349   -0.8728 C   0  0  0  0  0  0  0  0  0  0  0  0
    4.1647    1.2130    2.5686 H   0  0  0  0  0  0  0  0  0  0  0  0
   -1.8131    0.8975    0.5468 H   0  0  0  0  0  0  0  0  0  0  0  0
   -0.6786    0.5305   -2.1952 H   0  0  0  0  0  0  0  0  0  0  0  0
   -2.3186    1.2076   -1.6406 H   0  0  0  0  0  0  0  0  0  0  0  0
   -2.9575   -0.9697   -0.7226 H   0  0  0  0  0  0  0  0  0  0  0  0
   -1.4051   -1.7815   -1.3181 H   0  0  0  0  0  0  0  0  0  0  0  0
  1  2  3  0
  2  3  1  0
  3  4  2  0
  3  5  1  0
  5  6  2  0
  5  7  1  0
  7  8  1  0
  8  9  1  0
  9  7  1  0
  1 10  1  0
  7 11  1  0
  8 12  1  0
  8 13  1  0
  9 14  1  0
  9 15  1  0
M  END
