
     RDKit          3D

  9  8  0  0  0  0  0  0  0  0999 V2000
    1.1401    1.4440    0.0210 C   0  0  0  0  0  0  0  0  0  0  0  0
    0.8805    0.0253    0.1638 C   0  0  0  0  0  0  0  0  0  0  0  0
    0.5525   -1.6632    0.3584 C   0  0  0  0  0  0  0  0  0  0  0  0
   -0.6961   -0.3604   -0.0655 C   0  0  0  0  0  0  0  0  0  0  0  0
   -1.5487    0.5436   -0.3615 C   0  0  0  0  0  0  0  0  0  0  0  0
    1.3081    2.2960   -0.0657 H   0  0  0  0  0  0  0  0  0  0  0  0
    0.1215   -1.7682    1.2345 H   0  0  0  0  0  0  0  0  0  0  0  0
    0.5429   -1.8548   -0.6831 H   0  0  0  0  0  0  0  0  0  0  0  0
   -2.3008    1.3378   -0.6021 H   0  0  0  0  0  0  0  0  0  0  0  0
  1  2  3  0
  2  3  1  0
  3  4  1  0
  4  5  3  0
  1  6  1  0
  3  7  1  0
  3  8  1  0
  5  9  1  0
M  END
