
     RDKit          3D

 16 15  0  0  0  0  0  0  0  0999 V2000
   -0.6808    2.0417   -2.0748 C   0  0  0  0  0  0  0  0  0  0  0  0
   -0.6103    1.7551   -1.0716 C   0  0  0  0  0  0  0  0  0  0  0  0
   -0.5429    1.3893    0.1818 C   0  0  0  0  0  0  0  0  0  0  0  0
   -0.2819   -0.0498    0.4996 C   0  0  0  0  0  0  0  0  0  0  0  0
   -0.2708   -0.2630    1.8568 O   0  0  0  0  0  0  0  0  0  0  0  0
    0.8615   -0.6990   -0.2162 C   0  0  0  0  0  0  0  0  0  0  0  0
    1.0715   -2.0380    0.1991 C   0  0  0  0  0  0  0  0  0  0  0  0
    0.1610   -3.0099   -0.0141 O   0  0  0  0  0  0  0  0  0  0  0  0
   -0.7802    2.3983   -3.3541 H   0  0  0  0  0  0  0  0  0  0  0  0
   -1.5759    1.6195    0.7728 H   0  0  0  0  0  0  0  0  0  0  0  0
    0.1765    1.9928    0.8330 H   0  0  0  0  0  0  0  0  0  0  0  0
   -1.2510   -0.5800    0.0924 H   0  0  0  0  0  0  0  0  0  0  0  0
   -0.5988   -1.1964    2.0367 H   0  0  0  0  0  0  0  0  0  0  0  0
    1.8399   -0.1386   -0.1448 H   0  0  0  0  0  0  0  0  0  0  0  0
    0.6086   -0.6790   -1.3265 H   0  0  0  0  0  0  0  0  0  0  0  0
    1.8737   -2.5431    0.6956 H   0  0  0  0  0  0  0  0  0  0  0  0
  1  2  3  0
  2  3  1  0
  3  4  1  0
  4  5  1  0
  4  6  1  0
  6  7  1  0
  7  8  2  0
  1  9  1  0
  3 10  1  0
  3 11  1  0
  4 12  1  0
  5 13  1  0
  6 14  1  0
  6 15  1  0
  7 16  1  0
M  END
