
     RDKit          3D

 16 16  0  0  0  0  0  0  0  0999 V2000
    2.8618    1.3976    0.7348 C   0  0  0  0  0  0  0  0  0  0  0  0
    1.9578    0.6558    0.4086 C   0  0  0  0  0  0  0  0  0  0  0  0
    0.8599   -0.2385    0.0210 C   0  0  0  0  0  0  0  0  0  0  0  0
    0.1679    0.2550   -1.2020 C   0  0  0  0  0  0  0  0  0  0  0  0
   -1.1451   -0.1202   -1.3362 O   0  0  0  0  0  0  0  0  0  0  0  0
   -1.8711   -0.0953   -0.1613 C   0  0  0  0  0  0  0  0  0  0  0  0
   -1.1822   -0.9834    0.8330 C   0  0  0  0  0  0  0  0  0  0  0  0
    0.0547   -0.4530    1.1120 O   0  0  0  0  0  0  0  0  0  0  0  0
    3.6610    2.0346    1.0094 H   0  0  0  0  0  0  0  0  0  0  0  0
    1.3582   -1.2063   -0.2343 H   0  0  0  0  0  0  0  0  0  0  0  0
    0.6961   -0.0550   -2.1298 H   0  0  0  0  0  0  0  0  0  0  0  0
    0.1931    1.3755   -1.1977 H   0  0  0  0  0  0  0  0  0  0  0  0
   -1.9236    0.9208    0.2742 H   0  0  0  0  0  0  0  0  0  0  0  0
   -2.8704   -0.5083   -0.3770 H   0  0  0  0  0  0  0  0  0  0  0  0
   -1.0396   -2.0179    0.4764 H   0  0  0  0  0  0  0  0  0  0  0  0
   -1.7785   -0.9613    1.7689 H   0  0  0  0  0  0  0  0  0  0  0  0
  1  2  3  0
  2  3  1  0
  3  4  1  0
  4  5  1  0
  5  6  1  0
  6  7  1  0
  7  8  1  0
  8  3  1  0
  1  9  1  0
  3 10  1  0
  4 11  1  0
  4 12  1  0
  6 13  1  0
  6 14  1  0
  7 15  1  0
  7 16  1  0
M  END
