
     RDKit          3D

 19 19  0  0  0  0  0  0  0  0999 V2000
    3.6469   -0.5358   -0.7713 C   0  0  0  0  0  0  0  0  0  0  0  0
    2.5883   -0.7456   -0.6535 C   0  0  0  0  0  0  0  0  0  0  0  0
    1.0554   -1.0437   -0.4561 C   0  0  0  0  0  0  0  0  0  0  0  0
    0.8341   -2.3200   -0.6750 O   0  0  0  0  0  0  0  0  0  0  0  0
    0.6214   -0.3457    0.7478 C   0  0  0  0  0  0  0  0  0  0  0  0
   -0.5912   -0.2045    1.1179 O   0  0  0  0  0  0  0  0  0  0  0  0
   -1.6996    0.0827    0.2953 C   0  0  0  0  0  0  0  0  0  0  0  0
   -1.6222    1.5661   -0.3006 C   0  0  0  0  0  0  0  0  0  0  0  0
   -2.6169    1.1021    0.7783 C   0  0  0  0  0  0  0  0  0  0  0  0
    4.7293   -0.3014   -0.8937 H   0  0  0  0  0  0  0  0  0  0  0  0
    0.6677   -0.4822   -1.4143 H   0  0  0  0  0  0  0  0  0  0  0  0
    0.5163   -2.5238   -1.6403 H   0  0  0  0  0  0  0  0  0  0  0  0
    1.2793    0.6308    0.8920 H   0  0  0  0  0  0  0  0  0  0  0  0
    1.1621   -0.9493    1.6313 H   0  0  0  0  0  0  0  0  0  0  0  0
   -1.6694   -0.4573   -0.6566 H   0  0  0  0  0  0  0  0  0  0  0  0
   -2.0779    1.7030   -1.3097 H   0  0  0  0  0  0  0  0  0  0  0  0
   -0.7308    2.0934   -0.0719 H   0  0  0  0  0  0  0  0  0  0  0  0
   -2.3953    1.6085    1.7891 H   0  0  0  0  0  0  0  0  0  0  0  0
   -3.6975    1.1227    0.5680 H   0  0  0  0  0  0  0  0  0  0  0  0
  1  2  3  0
  2  3  1  0
  3  4  1  0
  3  5  1  0
  5  6  1  0
  6  7  1  0
  7  8  1  0
  8  9  1  0
  9  7  1  0
  1 10  1  0
  3 11  1  0
  4 12  1  0
  5 13  1  0
  5 14  1  0
  7 15  1  0
  8 16  1  0
  8 17  1  0
  9 18  1  0
  9 19  1  0
M  END
