
     RDKit          3D

 17 17  0  0  0  0  0  0  0  0999 V2000
    4.8636    1.4557   -0.0278 C   0  0  0  0  0  0  0  0  0  0  0  0
    3.6935    1.1214    0.0981 C   0  0  0  0  0  0  0  0  0  0  0  0
    2.3364    0.7592    0.2436 C   0  0  0  0  0  0  0  0  0  0  0  0
    1.1804    0.4482    0.3752 C   0  0  0  0  0  0  0  0  0  0  0  0
   -0.2304    0.0766    0.5597 C   0  0  0  0  0  0  0  0  0  0  0  0
   -1.0327   -0.1984   -0.7045 C   0  0  0  0  0  0  0  0  0  0  0  0
   -2.4548    0.3059   -0.6569 C   0  0  0  0  0  0  0  0  0  0  0  0
   -0.6270   -1.2943    0.2368 C   0  0  0  0  0  0  0  0  0  0  0  0
   -1.7229   -1.9095    0.8793 O   0  0  0  0  0  0  0  0  0  0  0  0
    5.8724    1.7363   -0.1199 H   0  0  0  0  0  0  0  0  0  0  0  0
   -0.7616    0.5579    1.4240 H   0  0  0  0  0  0  0  0  0  0  0  0
   -0.4955   -0.1524   -1.6650 H   0  0  0  0  0  0  0  0  0  0  0  0
   -2.9875   -0.0998   -1.5204 H   0  0  0  0  0  0  0  0  0  0  0  0
   -2.9617   -0.0865    0.2600 H   0  0  0  0  0  0  0  0  0  0  0  0
   -2.4609    1.4197   -0.6163 H   0  0  0  0  0  0  0  0  0  0  0  0
    0.1515   -2.0173   -0.0478 H   0  0  0  0  0  0  0  0  0  0  0  0
   -2.3630   -2.1228    0.1470 H   0  0  0  0  0  0  0  0  0  0  0  0
  1  2  3  0
  2  3  1  0
  3  4  3  0
  4  5  1  0
  5  6  1  0
  6  7  1  0
  6  8  1  0
  8  9  1  0
  8  5  1  0
  1 10  1  0
  5 11  1  0
  6 12  1  0
  7 13  1  0
  7 14  1  0
  7 15  1  0
  8 16  1  0
  9 17  1  0
M  END
