
     RDKit          3D

 14 15  0  0  0  0  0  0  0  0999 V2000
    2.2875   -0.1348   -1.1930 C   0  0  0  0  0  0  0  0  0  0  0  0
    0.9814   -0.2796   -0.9124 C   0  0  0  0  0  0  0  0  0  0  0  0
   -0.4975   -0.4529   -0.6199 C   0  0  0  0  0  0  0  0  0  0  0  0
   -1.0670    0.8747   -0.8705 C   0  0  0  0  0  0  0  0  0  0  0  0
   -0.9235    0.5942    0.5241 C   0  0  0  0  0  0  0  0  0  0  0  0
    0.1839   -0.0693    1.2077 C   0  0  0  0  0  0  0  0  0  0  0  0
   -0.4447   -1.2801    0.6167 C   0  0  0  0  0  0  0  0  0  0  0  0
   -0.7618   -2.3926    0.9642 O   0  0  0  0  0  0  0  0  0  0  0  0
    3.2640   -0.0099   -1.3967 H   0  0  0  0  0  0  0  0  0  0  0  0
   -2.0166    0.9230   -1.4148 H   0  0  0  0  0  0  0  0  0  0  0  0
   -0.4265    1.7802   -1.1572 H   0  0  0  0  0  0  0  0  0  0  0  0
   -1.9014    0.3764    0.9920 H   0  0  0  0  0  0  0  0  0  0  0  0
    1.2252    0.1472    0.9478 H   0  0  0  0  0  0  0  0  0  0  0  0
    0.0972   -0.0763    2.3120 H   0  0  0  0  0  0  0  0  0  0  0  0
  1  2  3  0
  2  3  1  0
  3  4  1  0
  4  5  1  0
  5  6  1  0
  6  7  1  0
  7  8  2  0
  5  3  1  0
  7  3  1  0
  1  9  1  0
  4 10  1  0
  4 11  1  0
  5 12  1  0
  6 13  1  0
  6 14  1  0
M  END
