
     RDKit          3D

 19 19  0  0  0  0  0  0  0  0999 V2000
    2.9996    0.4225   -1.5171 C   0  0  0  0  0  0  0  0  0  0  0  0
    2.6082   -0.3177   -0.6322 C   0  0  0  0  0  0  0  0  0  0  0  0
    2.1207   -1.1886    0.4360 C   0  0  0  0  0  0  0  0  0  0  0  0
    0.9066   -0.5761    1.1413 C   0  0  0  0  0  0  0  0  0  0  0  0
   -0.2484   -0.3244    0.2811 C   0  0  0  0  0  0  0  0  0  0  0  0
   -1.0930    0.1871    1.1674 O   0  0  0  0  0  0  0  0  0  0  0  0
   -1.3051    0.6119    0.0158 C   0  0  0  0  0  0  0  0  0  0  0  0
   -2.5298    0.0384   -0.7234 C   0  0  0  0  0  0  0  0  0  0  0  0
   -3.7010    0.3275    0.0123 O   0  0  0  0  0  0  0  0  0  0  0  0
    3.3362    1.0637   -2.3094 H   0  0  0  0  0  0  0  0  0  0  0  0
    1.7191   -2.1073   -0.0734 H   0  0  0  0  0  0  0  0  0  0  0  0
    2.9239   -1.4266    1.1241 H   0  0  0  0  0  0  0  0  0  0  0  0
    0.7287   -1.2839    2.0077 H   0  0  0  0  0  0  0  0  0  0  0  0
    1.3442    0.3353    1.6517 H   0  0  0  0  0  0  0  0  0  0  0  0
    0.0480   -0.5118   -0.7129 H   0  0  0  0  0  0  0  0  0  0  0  0
   -1.1893    1.6973   -0.2111 H   0  0  0  0  0  0  0  0  0  0  0  0
   -2.6615    0.4965   -1.7047 H   0  0  0  0  0  0  0  0  0  0  0  0
   -2.4234   -1.0503   -0.8674 H   0  0  0  0  0  0  0  0  0  0  0  0
   -3.5838   -0.0691    0.9144 H   0  0  0  0  0  0  0  0  0  0  0  0
  1  2  3  0
  2  3  1  0
  3  4  1  0
  4  5  1  0
  5  6  1  0
  6  7  1  0
  7  8  1  0
  8  9  1  0
  7  5  1  0
  1 10  1  0
  3 11  1  0
  3 12  1  0
  4 13  1  0
  4 14  1  0
  5 15  1  0
  7 16  1  0
  8 17  1  0
  8 18  1  0
  9 19  1  0
M  END
