
     RDKit          3D

 15 14  0  0  0  0  0  0  0  0999 V2000
    2.5065   -1.0814    0.5155 C   0  0  0  0  0  0  0  0  0  0  0  0
    1.3383   -0.7782    0.3600 C   0  0  0  0  0  0  0  0  0  0  0  0
   -0.0769   -0.4292    0.1627 C   0  0  0  0  0  0  0  0  0  0  0  0
   -0.7278   -0.2099    1.3491 O   0  0  0  0  0  0  0  0  0  0  0  0
   -0.7181   -1.5929   -0.5241 C   0  0  0  0  0  0  0  0  0  0  0  0
   -1.6606   -2.1814   -0.0255 O   0  0  0  0  0  0  0  0  0  0  0  0
   -0.0988    0.7813   -0.6985 C   0  0  0  0  0  0  0  0  0  0  0  0
   -0.7801    1.9933   -0.1934 C   0  0  0  0  0  0  0  0  0  0  0  0
    0.4402    0.7618   -1.8014 O   0  0  0  0  0  0  0  0  0  0  0  0
    3.5225   -1.3314    0.6631 H   0  0  0  0  0  0  0  0  0  0  0  0
   -0.5265   -0.9227    1.9952 H   0  0  0  0  0  0  0  0  0  0  0  0
   -0.3460   -1.9371   -1.4962 H   0  0  0  0  0  0  0  0  0  0  0  0
   -1.8173    1.9721   -0.5913 H   0  0  0  0  0  0  0  0  0  0  0  0
   -0.8096    2.0626    0.8945 H   0  0  0  0  0  0  0  0  0  0  0  0
   -0.2456    2.8930   -0.6099 H   0  0  0  0  0  0  0  0  0  0  0  0
  1  2  3  0
  2  3  1  0
  3  4  1  0
  3  5  1  0
  5  6  2  0
  3  7  1  0
  7  8  1  0
  7  9  2  0
  1 10  1  0
  4 11  1  0
  5 12  1  0
  8 13  1  0
  8 14  1  0
  8 15  1  0
M  END
