
     RDKit          3D

 17 18  0  0  0  0  0  0  0  0999 V2000
    1.8375    1.9693    0.6455 C   0  0  0  0  0  0  0  0  0  0  0  0
    1.6487    0.9184    0.1404 C   0  0  0  0  0  0  0  0  0  0  0  0
    1.4050   -0.3753   -0.4734 C   0  0  0  0  0  0  0  0  0  0  0  0
    0.8096   -1.4325    0.3906 C   0  0  0  0  0  0  0  0  0  0  0  0
   -0.4180   -0.8290    1.0186 C   0  0  0  0  0  0  0  0  0  0  0  0
   -0.9288   -0.1604   -0.0372 C   0  0  0  0  0  0  0  0  0  0  0  0
   -2.1095    0.7098   -0.1431 C   0  0  0  0  0  0  0  0  0  0  0  0
    0.0610   -0.5561   -1.1032 C   0  0  0  0  0  0  0  0  0  0  0  0
    0.2243   -1.9286   -0.8012 O   0  0  0  0  0  0  0  0  0  0  0  0
    2.0220    2.9187    1.1172 H   0  0  0  0  0  0  0  0  0  0  0  0
    2.2027   -0.7722   -1.1021 H   0  0  0  0  0  0  0  0  0  0  0  0
    1.4039   -2.0897    0.9648 H   0  0  0  0  0  0  0  0  0  0  0  0
   -0.7756   -0.9154    2.0284 H   0  0  0  0  0  0  0  0  0  0  0  0
   -2.6399    0.6925    0.8210 H   0  0  0  0  0  0  0  0  0  0  0  0
   -1.8010    1.7447   -0.4295 H   0  0  0  0  0  0  0  0  0  0  0  0
   -2.8143    0.3834   -0.9374 H   0  0  0  0  0  0  0  0  0  0  0  0
   -0.1275   -0.2776   -2.0995 H   0  0  0  0  0  0  0  0  0  0  0  0
  1  2  3  0
  2  3  1  0
  3  4  1  0
  4  5  1  0
  5  6  2  0
  6  7  1  0
  6  8  1  0
  8  9  1  0
  8  3  1  0
  9  4  1  0
  1 10  1  0
  3 11  1  0
  4 12  1  0
  5 13  1  0
  7 14  1  0
  7 15  1  0
  7 16  1  0
  8 17  1  0
M  END
