
     RDKit          3D

 19 20  0  0  0  0  0  0  0  0999 V2000
    3.2956    0.1116   -0.8977 C   0  0  0  0  0  0  0  0  0  0  0  0
    2.2336   -0.1975   -0.4312 C   0  0  0  0  0  0  0  0  0  0  0  0
    0.9336   -0.5495    0.1358 C   0  0  0  0  0  0  0  0  0  0  0  0
    0.5465    0.1772    1.3697 C   0  0  0  0  0  0  0  0  0  0  0  0
   -0.6971    0.5504    1.2342 C   0  0  0  0  0  0  0  0  0  0  0  0
   -1.2876    0.1459   -0.0457 C   0  0  0  0  0  0  0  0  0  0  0  0
   -1.8345    1.3215   -0.8341 C   0  0  0  0  0  0  0  0  0  0  0  0
   -0.2158   -0.5804   -0.7700 C   0  0  0  0  0  0  0  0  0  0  0  0
    0.2909   -1.8438   -0.1688 C   0  0  0  0  0  0  0  0  0  0  0  0
    4.2578    0.3875   -1.2999 H   0  0  0  0  0  0  0  0  0  0  0  0
    1.2388    0.3282    2.1947 H   0  0  0  0  0  0  0  0  0  0  0  0
   -1.2310    1.1114    2.0139 H   0  0  0  0  0  0  0  0  0  0  0  0
   -2.1797   -0.5032    0.1782 H   0  0  0  0  0  0  0  0  0  0  0  0
   -0.9643    1.8244   -1.3025 H   0  0  0  0  0  0  0  0  0  0  0  0
   -2.4931    0.9125   -1.6119 H   0  0  0  0  0  0  0  0  0  0  0  0
   -2.3300    2.0627   -0.1790 H   0  0  0  0  0  0  0  0  0  0  0  0
   -0.0773   -0.3995   -1.8625 H   0  0  0  0  0  0  0  0  0  0  0  0
   -0.3360   -2.2820    0.6353 H   0  0  0  0  0  0  0  0  0  0  0  0
    0.8498   -2.5773   -0.7835 H   0  0  0  0  0  0  0  0  0  0  0  0
  1  2  3  0
  2  3  1  0
  3  4  1  0
  4  5  2  0
  5  6  1  0
  6  7  1  0
  6  8  1  0
  8  9  1  0
  8  3  1  0
  9  3  1  0
  1 10  1  0
  4 11  1  0
  5 12  1  0
  6 13  1  0
  7 14  1  0
  7 15  1  0
  7 16  1  0
  8 17  1  0
  9 18  1  0
  9 19  1  0
M  END
