
     RDKit          3D

 21 22  0  0  0  0  0  0  0  0999 V2000
    3.0711    0.4581    1.0372 C   0  0  0  0  0  0  0  0  0  0  0  0
    2.1547    0.2755    0.2454 C   0  0  0  0  0  0  0  0  0  0  0  0
    1.0758    0.0466   -0.7172 C   0  0  0  0  0  0  0  0  0  0  0  0
   -0.0557   -0.7866   -0.2960 C   0  0  0  0  0  0  0  0  0  0  0  0
   -0.1257   -1.4026    1.0686 C   0  0  0  0  0  0  0  0  0  0  0  0
   -1.1602   -1.0583   -1.2850 C   0  0  0  0  0  0  0  0  0  0  0  0
   -1.3648    0.4501   -1.3781 C   0  0  0  0  0  0  0  0  0  0  0  0
   -0.2405    0.6706   -0.4166 C   0  0  0  0  0  0  0  0  0  0  0  0
   -0.4245    1.5398    0.7935 C   0  0  0  0  0  0  0  0  0  0  0  0
    3.8664    0.6326    1.7145 H   0  0  0  0  0  0  0  0  0  0  0  0
    1.3489    0.0268   -1.8120 H   0  0  0  0  0  0  0  0  0  0  0  0
   -1.1609   -1.7135    1.3258 H   0  0  0  0  0  0  0  0  0  0  0  0
    0.1868   -0.6782    1.8386 H   0  0  0  0  0  0  0  0  0  0  0  0
    0.5775   -2.2749    1.0717 H   0  0  0  0  0  0  0  0  0  0  0  0
   -0.7840   -1.5296   -2.2162 H   0  0  0  0  0  0  0  0  0  0  0  0
   -2.0486   -1.5610   -0.8278 H   0  0  0  0  0  0  0  0  0  0  0  0
   -2.3572    0.7607   -0.9479 H   0  0  0  0  0  0  0  0  0  0  0  0
   -1.2003    0.7696   -2.4205 H   0  0  0  0  0  0  0  0  0  0  0  0
   -1.3386    1.2825    1.3681 H   0  0  0  0  0  0  0  0  0  0  0  0
   -0.5183    2.6041    0.4620 H   0  0  0  0  0  0  0  0  0  0  0  0
    0.4981    1.4878    1.3915 H   0  0  0  0  0  0  0  0  0  0  0  0
  1  2  3  0
  2  3  1  0
  3  4  1  0
  4  5  1  0
  4  6  1  0
  6  7  1  0
  7  8  1  0
  8  9  1  0
  8  3  1  0
  8  4  1  0
  1 10  1  0
  3 11  1  0
  5 12  1  0
  5 13  1  0
  5 14  1  0
  6 15  1  0
  6 16  1  0
  7 17  1  0
  7 18  1  0
  9 19  1  0
  9 20  1  0
  9 21  1  0
M  END
