
     RDKit          3D

 17 17  0  0  0  0  0  0  0  0999 V2000
    2.7098   -1.5364    0.2018 C   0  0  0  0  0  0  0  0  0  0  0  0
    2.0873   -0.8066    0.3142 C   0  0  0  0  0  0  0  0  0  0  0  0
    1.2403    0.1547    0.4732 C   0  0  0  0  0  0  0  0  0  0  0  0
   -0.1361    0.6395   -0.0899 C   0  0  0  0  0  0  0  0  0  0  0  0
   -1.2358   -0.0313    0.1664 C   0  0  0  0  0  0  0  0  0  0  0  0
   -1.8943   -1.3893   -0.1631 C   0  0  0  0  0  0  0  0  0  0  0  0
   -2.1135    0.6457    0.9338 O   0  0  0  0  0  0  0  0  0  0  0  0
   -0.2253    2.0663   -0.6219 C   0  0  0  0  0  0  0  0  0  0  0  0
    0.0723    1.0204   -1.4317 O   0  0  0  0  0  0  0  0  0  0  0  0
    3.6822   -2.6885    0.0254 H   0  0  0  0  0  0  0  0  0  0  0  0
    1.0554    0.2426    1.7108 H   0  0  0  0  0  0  0  0  0  0  0  0
    1.9276    1.2711    0.4900 H   0  0  0  0  0  0  0  0  0  0  0  0
   -1.3981   -1.9221   -0.9808 H   0  0  0  0  0  0  0  0  0  0  0  0
   -2.3145   -1.9022    0.6575 H   0  0  0  0  0  0  0  0  0  0  0  0
   -2.8967   -1.0268   -0.7333 H   0  0  0  0  0  0  0  0  0  0  0  0
   -1.1789    2.4796   -0.5400 H   0  0  0  0  0  0  0  0  0  0  0  0
    0.6182    2.7830   -0.4125 H   0  0  0  0  0  0  0  0  0  0  0  0
  1  2  3  0
  2  3  1  0
  3  4  1  0
  4  5  1  0
  5  6  1  0
  5  7  2  0
  4  8  1  0
  8  9  1  0
  9  4  1  0
  1 10  1  0
  3 11  1  0
  3 12  1  0
  6 13  1  0
  6 14  1  0
  6 15  1  0
  8 16  1  0
  8 17  1  0
M  END
