
     RDKit          3D

 19 19  0  0  0  0  0  0  0  0999 V2000
    2.5324   -1.0972    0.1403 C   0  0  0  0  0  0  0  0  0  0  0  0
    1.6286   -0.3684    0.4466 C   0  0  0  0  0  0  0  0  0  0  0  0
    0.5260    0.5140    0.8445 C   0  0  0  0  0  0  0  0  0  0  0  0
    0.6860    1.8230    0.1033 C   0  0  0  0  0  0  0  0  0  0  0  0
   -0.0387    1.5808   -1.1861 C   0  0  0  0  0  0  0  0  0  0  0  0
   -0.8561    0.5535   -1.0538 C   0  0  0  0  0  0  0  0  0  0  0  0
   -0.7686    0.0033    0.3218 C   0  0  0  0  0  0  0  0  0  0  0  0
   -0.8453   -1.4914    0.2116 C   0  0  0  0  0  0  0  0  0  0  0  0
   -2.1064   -1.8020   -0.2878 O   0  0  0  0  0  0  0  0  0  0  0  0
    3.3567   -1.7401   -0.1441 H   0  0  0  0  0  0  0  0  0  0  0  0
    0.4708    0.6222    1.9274 H   0  0  0  0  0  0  0  0  0  0  0  0
    1.7575    2.0393   -0.0614 H   0  0  0  0  0  0  0  0  0  0  0  0
    0.1581    2.5890    0.6923 H   0  0  0  0  0  0  0  0  0  0  0  0
    0.1214    2.1881   -2.0637 H   0  0  0  0  0  0  0  0  0  0  0  0
   -1.5093    0.1498   -1.8218 H   0  0  0  0  0  0  0  0  0  0  0  0
   -1.6510    0.3344    0.8947 H   0  0  0  0  0  0  0  0  0  0  0  0
   -0.6606   -2.0413    1.1355 H   0  0  0  0  0  0  0  0  0  0  0  0
   -0.0935   -1.7959   -0.5680 H   0  0  0  0  0  0  0  0  0  0  0  0
   -2.7080   -2.0611    0.4688 H   0  0  0  0  0  0  0  0  0  0  0  0
  1  2  3  0
  2  3  1  0
  3  4  1  0
  4  5  1  0
  5  6  2  0
  6  7  1  0
  7  8  1  0
  8  9  1  0
  7  3  1  0
  1 10  1  0
  3 11  1  0
  4 12  1  0
  4 13  1  0
  5 14  1  0
  6 15  1  0
  7 16  1  0
  8 17  1  0
  8 18  1  0
  9 19  1  0
M  END
