
     RDKit          3D

 16 16  0  0  0  0  0  0  0  0999 V2000
    3.5258    0.3644   -2.3367 C   0  0  0  0  0  0  0  0  0  0  0  0
    2.5810    0.5562   -1.6100 C   0  0  0  0  0  0  0  0  0  0  0  0
    1.4891    0.7887   -0.7409 C   0  0  0  0  0  0  0  0  0  0  0  0
    0.5349    0.9810   -0.0007 C   0  0  0  0  0  0  0  0  0  0  0  0
   -0.6099    1.2358    0.8784 C   0  0  0  0  0  0  0  0  0  0  0  0
   -1.3008   -0.1083    1.0820 C   0  0  0  0  0  0  0  0  0  0  0  0
   -1.8305   -0.8312   -0.0963 C   0  0  0  0  0  0  0  0  0  0  0  0
   -0.6096   -1.3541    0.5859 C   0  0  0  0  0  0  0  0  0  0  0  0
    4.3537    0.2138   -2.9717 H   0  0  0  0  0  0  0  0  0  0  0  0
   -0.2277    1.6236    1.8264 H   0  0  0  0  0  0  0  0  0  0  0  0
   -1.3247    1.9559    0.4005 H   0  0  0  0  0  0  0  0  0  0  0  0
   -1.7992   -0.1853    2.0789 H   0  0  0  0  0  0  0  0  0  0  0  0
   -2.8205   -1.3313    0.0757 H   0  0  0  0  0  0  0  0  0  0  0  0
   -1.6379   -0.3642   -1.0821 H   0  0  0  0  0  0  0  0  0  0  0  0
    0.3645   -1.2800    0.0970 H   0  0  0  0  0  0  0  0  0  0  0  0
   -0.6883   -2.2648    1.2473 H   0  0  0  0  0  0  0  0  0  0  0  0
  1  2  3  0
  2  3  1  0
  3  4  3  0
  4  5  1  0
  5  6  1  0
  6  7  1  0
  7  8  1  0
  8  6  1  0
  1  9  1  0
  5 10  1  0
  5 11  1  0
  6 12  1  0
  7 13  1  0
  7 14  1  0
  8 15  1  0
  8 16  1  0
M  END
