
     RDKit          3D

 21 20  0  0  0  0  0  0  0  0999 V2000
   -0.1853    2.0276    1.5146 C   0  0  0  0  0  0  0  0  0  0  0  0
   -0.3899    0.9350    1.1212 C   0  0  0  0  0  0  0  0  0  0  0  0
   -0.6478   -0.4385    0.6525 C   0  0  0  0  0  0  0  0  0  0  0  0
   -2.0353   -0.4960    0.0534 C   0  0  0  0  0  0  0  0  0  0  0  0
   -2.1977    0.4397   -1.1118 C   0  0  0  0  0  0  0  0  0  0  0  0
    0.4003   -0.8958   -0.2481 C   0  0  0  0  0  0  0  0  0  0  0  0
    0.1234   -1.2261   -1.3811 O   0  0  0  0  0  0  0  0  0  0  0  0
    1.8159   -0.9772    0.1688 C   0  0  0  0  0  0  0  0  0  0  0  0
    2.6653    0.1665   -0.3065 C   0  0  0  0  0  0  0  0  0  0  0  0
    0.0169    3.0432    1.8651 H   0  0  0  0  0  0  0  0  0  0  0  0
   -0.6441   -1.0831    1.5564 H   0  0  0  0  0  0  0  0  0  0  0  0
   -2.7372   -0.1395    0.8401 H   0  0  0  0  0  0  0  0  0  0  0  0
   -2.3469   -1.5193   -0.1983 H   0  0  0  0  0  0  0  0  0  0  0  0
   -1.5509    1.3216   -1.0727 H   0  0  0  0  0  0  0  0  0  0  0  0
   -3.2469    0.7810   -1.2092 H   0  0  0  0  0  0  0  0  0  0  0  0
   -2.0099   -0.1852   -2.0319 H   0  0  0  0  0  0  0  0  0  0  0  0
    2.3035   -1.9237   -0.2103 H   0  0  0  0  0  0  0  0  0  0  0  0
    1.8838   -1.0926    1.2910 H   0  0  0  0  0  0  0  0  0  0  0  0
    2.4172    0.4078   -1.3623 H   0  0  0  0  0  0  0  0  0  0  0  0
    3.7309   -0.1920   -0.2956 H   0  0  0  0  0  0  0  0  0  0  0  0
    2.6348    1.0467    0.3646 H   0  0  0  0  0  0  0  0  0  0  0  0
  1  2  3  0
  2  3  1  0
  3  4  1  0
  4  5  1  0
  3  6  1  0
  6  7  2  0
  6  8  1  0
  8  9  1  0
  1 10  1  0
  3 11  1  0
  4 12  1  0
  4 13  1  0
  5 14  1  0
  5 15  1  0
  5 16  1  0
  8 17  1  0
  8 18  1  0
  9 19  1  0
  9 20  1  0
  9 21  1  0
M  END
