
     RDKit          3D

 16 16  0  0  0  0  0  0  0  0999 V2000
    2.8181    0.9709   -0.8633 C   0  0  0  0  0  0  0  0  0  0  0  0
    2.1623    0.0048   -0.4952 C   0  0  0  0  0  0  0  0  0  0  0  0
    1.3877   -1.1403   -0.0858 C   0  0  0  0  0  0  0  0  0  0  0  0
    0.2202   -0.7804    0.5916 O   0  0  0  0  0  0  0  0  0  0  0  0
   -0.5369   -0.0142   -0.2546 C   0  0  0  0  0  0  0  0  0  0  0  0
   -1.9777   -0.4785   -0.3445 C   0  0  0  0  0  0  0  0  0  0  0  0
   -2.3199    0.8770   -0.5053 O   0  0  0  0  0  0  0  0  0  0  0  0
   -1.2666    1.1548    0.3876 C   0  0  0  0  0  0  0  0  0  0  0  0
    3.3986    1.7935   -1.1785 H   0  0  0  0  0  0  0  0  0  0  0  0
    1.9606   -1.7909    0.6293 H   0  0  0  0  0  0  0  0  0  0  0  0
    1.1733   -1.7672   -0.9657 H   0  0  0  0  0  0  0  0  0  0  0  0
   -0.1379    0.1818   -1.2561 H   0  0  0  0  0  0  0  0  0  0  0  0
   -2.3704   -0.9027    0.6233 H   0  0  0  0  0  0  0  0  0  0  0  0
   -2.1390   -1.1047   -1.2245 H   0  0  0  0  0  0  0  0  0  0  0  0
   -1.5703    0.8652    1.4193 H   0  0  0  0  0  0  0  0  0  0  0  0
   -0.8021    2.1310    0.2635 H   0  0  0  0  0  0  0  0  0  0  0  0
  1  2  3  0
  2  3  1  0
  3  4  1  0
  4  5  1  0
  5  6  1  0
  6  7  1  0
  7  8  1  0
  8  5  1  0
  1  9  1  0
  3 10  1  0
  3 11  1  0
  5 12  1  0
  6 13  1  0
  6 14  1  0
  8 15  1  0
  8 16  1  0
M  END
