
     RDKit          3D

 12 11  0  0  0  0  0  0  0  0999 V2000
    3.4090    2.2949   -0.6517 C   0  0  0  0  0  0  0  0  0  0  0  0
    1.9473    1.0301   -0.4304 C   0  0  0  0  0  0  0  0  0  0  0  0
    0.8780    0.1100   -0.2441 C   0  0  0  0  0  0  0  0  0  0  0  0
    0.1805   -0.4857   -0.1390 C   0  0  0  0  0  0  0  0  0  0  0  0
   -0.6734   -1.1897   -0.0151 C   0  0  0  0  0  0  0  0  0  0  0  0
   -2.0112   -0.2509    0.4174 C   0  0  0  0  0  0  0  0  0  0  0  0
    4.2170    2.9739   -0.7792 H   0  0  0  0  0  0  0  0  0  0  0  0
   -0.8067   -2.1738    0.5607 H   0  0  0  0  0  0  0  0  0  0  0  0
   -1.1554   -1.7507   -0.9609 H   0  0  0  0  0  0  0  0  0  0  0  0
   -2.9103   -0.7234    0.7005 H   0  0  0  0  0  0  0  0  0  0  0  0
   -1.5263    0.7003    0.5605 H   0  0  0  0  0  0  0  0  0  0  0  0
   -1.5486   -0.5351    1.7064 H   0  0  0  0  0  0  0  0  0  0  0  0
  1  2  3  0
  2  3  1  0
  3  4  3  0
  4  5  1  0
  5  6  1  0
  1  7  1  0
  5  8  1  0
  5  9  1  0
  6 10  1  0
  6 11  1  0
  6 12  1  0
M  END
