
     RDKit          3D

 11 11  0  0  0  0  0  0  0  0999 V2000
    2.8665    0.3823   -0.6614 C   0  0  0  0  0  0  0  0  0  0  0  0
    1.7556    0.3568   -0.1962 C   0  0  0  0  0  0  0  0  0  0  0  0
    0.3897    0.3092    0.3543 C   0  0  0  0  0  0  0  0  0  0  0  0
   -0.5210    1.0397   -0.4422 O   0  0  0  0  0  0  0  0  0  0  0  0
   -1.7872    0.5065   -0.1902 C   0  0  0  0  0  0  0  0  0  0  0  0
   -2.9152    1.0124   -0.3055 O   0  0  0  0  0  0  0  0  0  0  0  0
   -1.5092   -0.8683    0.2710 C   0  0  0  0  0  0  0  0  0  0  0  0
   -2.3860   -1.6900    0.6021 O   0  0  0  0  0  0  0  0  0  0  0  0
   -0.1150   -1.0078    0.2452 O   0  0  0  0  0  0  0  0  0  0  0  0
    3.8554    0.4155   -1.0924 H   0  0  0  0  0  0  0  0  0  0  0  0
    0.3663    0.5795    1.4153 H   0  0  0  0  0  0  0  0  0  0  0  0
  1  2  3  0
  2  3  1  0
  3  4  1  0
  4  5  1  0
  5  6  2  0
  5  7  1  0
  7  8  2  0
  7  9  1  0
  9  3  1  0
  1 10  1  0
  3 11  1  0
M  END
