
     RDKit          3D

 16 17  0  0  0  0  0  0  0  0999 V2000
    3.0158    1.2410    0.2798 C   0  0  0  0  0  0  0  0  0  0  0  0
    1.9814    0.6731    0.0598 C   0  0  0  0  0  0  0  0  0  0  0  0
    0.7328   -0.0115   -0.2315 C   0  0  0  0  0  0  0  0  0  0  0  0
    0.0355   -0.6185    0.9607 C   0  0  0  0  0  0  0  0  0  0  0  0
   -1.2217   -1.2081    0.3447 C   0  0  0  0  0  0  0  0  0  0  0  0
   -1.5831   -0.0179   -0.5662 C   0  0  0  0  0  0  0  0  0  0  0  0
   -0.4692    0.8890   -0.0978 C   0  0  0  0  0  0  0  0  0  0  0  0
   -0.3796    0.6593    1.2940 O   0  0  0  0  0  0  0  0  0  0  0  0
    3.9419    1.7624    0.4627 H   0  0  0  0  0  0  0  0  0  0  0  0
    0.7353   -0.7103   -1.0647 H   0  0  0  0  0  0  0  0  0  0  0  0
    0.5898   -1.2011    1.6534 H   0  0  0  0  0  0  0  0  0  0  0  0
   -1.9660   -1.2804    1.1352 H   0  0  0  0  0  0  0  0  0  0  0  0
   -1.0332   -2.1111   -0.2319 H   0  0  0  0  0  0  0  0  0  0  0  0
   -2.5813    0.3585   -0.3718 H   0  0  0  0  0  0  0  0  0  0  0  0
   -1.3763   -0.3129   -1.6075 H   0  0  0  0  0  0  0  0  0  0  0  0
   -0.4222    1.8884   -0.4433 H   0  0  0  0  0  0  0  0  0  0  0  0
  1  2  3  0
  2  3  1  0
  3  4  1  0
  4  5  1  0
  5  6  1  0
  6  7  1  0
  7  8  1  0
  7  3  1  0
  8  4  1  0
  1  9  1  0
  3 10  1  0
  4 11  1  0
  5 12  1  0
  5 13  1  0
  6 14  1  0
  6 15  1  0
  7 16  1  0
M  END
