
     RDKit          3D

 19 19  0  0  0  0  0  0  0  0999 V2000
    0.2627    2.5821   -0.4702 C   0  0  0  0  0  0  0  0  0  0  0  0
    0.3623    1.4596   -0.0394 C   0  0  0  0  0  0  0  0  0  0  0  0
    0.4641    0.0954    0.5019 C   0  0  0  0  0  0  0  0  0  0  0  0
    1.6867   -0.4058    0.0960 O   0  0  0  0  0  0  0  0  0  0  0  0
    2.4888   -0.7067    1.2166 C   0  0  0  0  0  0  0  0  0  0  0  0
   -0.6648   -0.7712    0.0625 C   0  0  0  0  0  0  0  0  0  0  0  0
   -0.9427   -1.0605   -1.3595 C   0  0  0  0  0  0  0  0  0  0  0  0
   -1.9190   -0.2329   -0.5196 C   0  0  0  0  0  0  0  0  0  0  0  0
   -2.0187    1.0987   -0.9065 O   0  0  0  0  0  0  0  0  0  0  0  0
    0.1840    3.5808   -0.8639 H   0  0  0  0  0  0  0  0  0  0  0  0
    0.4475    0.1247    1.6309 H   0  0  0  0  0  0  0  0  0  0  0  0
    1.9393   -1.4563    1.7997 H   0  0  0  0  0  0  0  0  0  0  0  0
    3.4836   -1.0379    0.9115 H   0  0  0  0  0  0  0  0  0  0  0  0
    2.5148    0.2477    1.8075 H   0  0  0  0  0  0  0  0  0  0  0  0
   -0.8043   -1.6685    0.7392 H   0  0  0  0  0  0  0  0  0  0  0  0
   -0.4011   -0.5421   -2.1759 H   0  0  0  0  0  0  0  0  0  0  0  0
   -1.3356   -2.0553   -1.6502 H   0  0  0  0  0  0  0  0  0  0  0  0
   -2.8869   -0.7326   -0.2297 H   0  0  0  0  0  0  0  0  0  0  0  0
   -2.8608    1.4808   -0.5508 H   0  0  0  0  0  0  0  0  0  0  0  0
  1  2  3  0
  2  3  1  0
  3  4  1  0
  4  5  1  0
  3  6  1  0
  6  7  1  0
  7  8  1  0
  8  9  1  0
  8  6  1  0
  1 10  1  0
  3 11  1  0
  5 12  1  0
  5 13  1  0
  5 14  1  0
  6 15  1  0
  7 16  1  0
  7 17  1  0
  8 18  1  0
  9 19  1  0
M  END
