
     RDKit          3D

 21 21  0  0  0  0  0  0  0  0999 V2000
    2.7586   -0.7030   -0.9383 C   0  0  0  0  0  0  0  0  0  0  0  0
    1.6506   -0.2552   -0.8527 C   0  0  0  0  0  0  0  0  0  0  0  0
    0.3208    0.3028   -0.7374 C   0  0  0  0  0  0  0  0  0  0  0  0
    0.2292    1.7965   -0.8728 C   0  0  0  0  0  0  0  0  0  0  0  0
   -0.5543   -0.3101   -1.6329 O   0  0  0  0  0  0  0  0  0  0  0  0
   -1.5391   -0.1929   -0.6522 C   0  0  0  0  0  0  0  0  0  0  0  0
   -0.4624   -0.3116    0.3733 C   0  0  0  0  0  0  0  0  0  0  0  0
   -0.0770   -1.7332    0.6237 C   0  0  0  0  0  0  0  0  0  0  0  0
   -0.6273    0.5126    1.6180 C   0  0  0  0  0  0  0  0  0  0  0  0
    3.7540   -1.1134   -1.0328 H   0  0  0  0  0  0  0  0  0  0  0  0
   -0.6611    2.2358   -0.4317 H   0  0  0  0  0  0  0  0  0  0  0  0
    0.3913    2.1155   -1.9228 H   0  0  0  0  0  0  0  0  0  0  0  0
    1.1012    2.2217   -0.3071 H   0  0  0  0  0  0  0  0  0  0  0  0
   -2.0442    0.7748   -0.7579 H   0  0  0  0  0  0  0  0  0  0  0  0
   -2.2461   -1.0464   -0.6061 H   0  0  0  0  0  0  0  0  0  0  0  0
   -0.6111   -2.4766    0.0110 H   0  0  0  0  0  0  0  0  0  0  0  0
    1.0171   -1.8687    0.4934 H   0  0  0  0  0  0  0  0  0  0  0  0
   -0.3179   -1.9887    1.6884 H   0  0  0  0  0  0  0  0  0  0  0  0
   -1.0450   -0.1652    2.4073 H   0  0  0  0  0  0  0  0  0  0  0  0
    0.3412    0.8853    2.0282 H   0  0  0  0  0  0  0  0  0  0  0  0
   -1.3785    1.3200    1.5016 H   0  0  0  0  0  0  0  0  0  0  0  0
  1  2  3  0
  2  3  1  0
  3  4  1  0
  3  5  1  0
  5  6  1  0
  6  7  1  0
  7  8  1  0
  7  9  1  0
  7  3  1  0
  1 10  1  0
  4 11  1  0
  4 12  1  0
  4 13  1  0
  6 14  1  0
  6 15  1  0
  8 16  1  0
  8 17  1  0
  8 18  1  0
  9 19  1  0
  9 20  1  0
  9 21  1  0
M  END
