
     RDKit          3D

 18 17  0  0  0  0  0  0  0  0999 V2000
   -3.2681   -1.0133    0.8571 C   0  0  0  0  0  0  0  0  0  0  0  0
   -2.3511   -0.2582    1.1267 C   0  0  0  0  0  0  0  0  0  0  0  0
   -1.2437    0.6440    1.4759 C   0  0  0  0  0  0  0  0  0  0  0  0
    0.0344    0.0836    0.9275 C   0  0  0  0  0  0  0  0  0  0  0  0
   -0.0187   -0.0547   -0.5636 C   0  0  0  0  0  0  0  0  0  0  0  0
    1.2489   -0.6150   -1.1487 C   0  0  0  0  0  0  0  0  0  0  0  0
    2.3468    0.2826   -0.8128 C   0  0  0  0  0  0  0  0  0  0  0  0
    3.2680    1.0176   -0.5173 C   0  0  0  0  0  0  0  0  0  0  0  0
   -4.0678   -1.6720    0.6320 H   0  0  0  0  0  0  0  0  0  0  0  0
   -1.4420    1.6579    1.0641 H   0  0  0  0  0  0  0  0  0  0  0  0
   -1.1973    0.6672    2.5816 H   0  0  0  0  0  0  0  0  0  0  0  0
    0.8689    0.7185    1.2784 H   0  0  0  0  0  0  0  0  0  0  0  0
    0.1822   -0.9153    1.3807 H   0  0  0  0  0  0  0  0  0  0  0  0
   -0.2549    0.9010   -1.0644 H   0  0  0  0  0  0  0  0  0  0  0  0
   -0.8322   -0.7839   -0.7958 H   0  0  0  0  0  0  0  0  0  0  0  0
    1.4767   -1.6212   -0.7473 H   0  0  0  0  0  0  0  0  0  0  0  0
    1.1789   -0.6945   -2.2509 H   0  0  0  0  0  0  0  0  0  0  0  0
    4.0709    1.6556   -0.2571 H   0  0  0  0  0  0  0  0  0  0  0  0
  1  2  3  0
  2  3  1  0
  3  4  1  0
  4  5  1  0
  5  6  1  0
  6  7  1  0
  7  8  3  0
  1  9  1  0
  3 10  1  0
  3 11  1  0
  4 12  1  0
  4 13  1  0
  5 14  1  0
  5 15  1  0
  6 16  1  0
  6 17  1  0
  8 18  1  0
M  END
