
     RDKit          3D

 21 21  0  0  0  0  0  0  0  0999 V2000
    2.6814   -0.0177   -1.5822 C   0  0  0  0  0  0  0  0  0  0  0  0
    1.4916    0.0748   -1.3272 C   0  0  0  0  0  0  0  0  0  0  0  0
    0.0629    0.1953   -1.0452 C   0  0  0  0  0  0  0  0  0  0  0  0
   -0.2793    1.6310   -1.0379 C   0  0  0  0  0  0  0  0  0  0  0  0
   -0.8246    1.9527    0.1200 C   0  0  0  0  0  0  0  0  0  0  0  0
   -0.9143    0.7908    1.0185 C   0  0  0  0  0  0  0  0  0  0  0  0
   -0.2675   -0.3548    0.3049 C   0  0  0  0  0  0  0  0  0  0  0  0
   -1.3081   -1.4718    0.1770 C   0  0  0  0  0  0  0  0  0  0  0  0
    0.9311   -0.8944    1.0452 C   0  0  0  0  0  0  0  0  0  0  0  0
    3.7113   -0.0902   -1.8187 H   0  0  0  0  0  0  0  0  0  0  0  0
   -0.5327   -0.3381   -1.8166 H   0  0  0  0  0  0  0  0  0  0  0  0
   -0.1121    2.3146   -1.8486 H   0  0  0  0  0  0  0  0  0  0  0  0
   -1.1648    2.9494    0.3782 H   0  0  0  0  0  0  0  0  0  0  0  0
   -0.3776    1.0426    1.9637 H   0  0  0  0  0  0  0  0  0  0  0  0
   -1.9658    0.5845    1.3074 H   0  0  0  0  0  0  0  0  0  0  0  0
   -2.1883   -1.2559    0.8106 H   0  0  0  0  0  0  0  0  0  0  0  0
   -1.6632   -1.5201   -0.8830 H   0  0  0  0  0  0  0  0  0  0  0  0
   -0.8509   -2.4580    0.4736 H   0  0  0  0  0  0  0  0  0  0  0  0
    0.5261   -1.4541    1.9315 H   0  0  0  0  0  0  0  0  0  0  0  0
    1.4739   -1.5775    0.3793 H   0  0  0  0  0  0  0  0  0  0  0  0
    1.5708   -0.1030    1.4496 H   0  0  0  0  0  0  0  0  0  0  0  0
  1  2  3  0
  2  3  1  0
  3  4  1  0
  4  5  2  0
  5  6  1  0
  6  7  1  0
  7  8  1  0
  7  9  1  0
  7  3  1  0
  1 10  1  0
  3 11  1  0
  4 12  1  0
  5 13  1  0
  6 14  1  0
  6 15  1  0
  8 16  1  0
  8 17  1  0
  8 18  1  0
  9 19  1  0
  9 20  1  0
  9 21  1  0
M  END
