
     RDKit          3D

 15 16  0  0  0  0  0  0  0  0999 V2000
    3.0625    0.4170   -0.4248 C   0  0  0  0  0  0  0  0  0  0  0  0
    1.8860    0.1776   -0.3305 C   0  0  0  0  0  0  0  0  0  0  0  0
    0.5283   -0.1219   -0.2295 C   0  0  0  0  0  0  0  0  0  0  0  0
    0.0789   -1.1105    0.8203 C   0  0  0  0  0  0  0  0  0  0  0  0
   -1.2483   -1.1440    0.5441 C   0  0  0  0  0  0  0  0  0  0  0  0
   -1.3196   -0.2015   -0.6001 C   0  0  0  0  0  0  0  0  0  0  0  0
   -0.1744   -0.5865   -1.3374 O   0  0  0  0  0  0  0  0  0  0  0  0
   -0.4873    0.9745   -0.1395 C   0  0  0  0  0  0  0  0  0  0  0  0
   -0.7521    1.4261    1.1296 O   0  0  0  0  0  0  0  0  0  0  0  0
    4.1142    0.6471   -0.5035 H   0  0  0  0  0  0  0  0  0  0  0  0
    0.6496   -1.6278    1.5613 H   0  0  0  0  0  0  0  0  0  0  0  0
   -2.0361   -1.7048    1.0272 H   0  0  0  0  0  0  0  0  0  0  0  0
   -2.2238   -0.0441   -1.1161 H   0  0  0  0  0  0  0  0  0  0  0  0
   -0.3780    1.7135   -0.9388 H   0  0  0  0  0  0  0  0  0  0  0  0
   -1.6998    1.1853    1.3573 H   0  0  0  0  0  0  0  0  0  0  0  0
  1  2  3  0
  2  3  1  0
  3  4  1  0
  4  5  2  0
  5  6  1  0
  6  7  1  0
  6  8  1  0
  8  9  1  0
  7  3  1  0
  8  3  1  0
  1 10  1  0
  4 11  1  0
  5 12  1  0
  6 13  1  0
  8 14  1  0
  9 15  1  0
M  END
