
     RDKit          3D

 19 18  0  0  0  0  0  0  0  0999 V2000
    1.2611   -3.1804    0.4487 C   0  0  0  0  0  0  0  0  0  0  0  0
    1.4570   -2.0057    0.1448 C   0  0  0  0  0  0  0  0  0  0  0  0
    1.6590   -0.6654   -0.2137 C   0  0  0  0  0  0  0  0  0  0  0  0
    0.5855    0.3012   -0.0142 C   0  0  0  0  0  0  0  0  0  0  0  0
    0.1506    0.3607    1.4369 C   0  0  0  0  0  0  0  0  0  0  0  0
   -0.5475    0.3584   -0.9075 C   0  0  0  0  0  0  0  0  0  0  0  0
   -0.7461   -0.3596   -1.8386 O   0  0  0  0  0  0  0  0  0  0  0  0
   -1.5947    1.4109   -0.6743 C   0  0  0  0  0  0  0  0  0  0  0  0
   -2.5718    1.3973   -1.6498 O   0  0  0  0  0  0  0  0  0  0  0  0
    1.0797   -4.1641    0.7098 H   0  0  0  0  0  0  0  0  0  0  0  0
    1.9555   -0.6548   -1.3187 H   0  0  0  0  0  0  0  0  0  0  0  0
    2.6203   -0.2262    0.2499 H   0  0  0  0  0  0  0  0  0  0  0  0
    1.0793    1.3644   -0.1320 H   0  0  0  0  0  0  0  0  0  0  0  0
   -0.4415    1.2658    1.6426 H   0  0  0  0  0  0  0  0  0  0  0  0
   -0.4205   -0.5369    1.7447 H   0  0  0  0  0  0  0  0  0  0  0  0
    1.0937    0.4326    2.0418 H   0  0  0  0  0  0  0  0  0  0  0  0
   -1.0750    2.3882   -0.6866 H   0  0  0  0  0  0  0  0  0  0  0  0
   -2.0710    1.2744    0.3271 H   0  0  0  0  0  0  0  0  0  0  0  0
   -3.4736    1.2393   -1.3109 H   0  0  0  0  0  0  0  0  0  0  0  0
  1  2  3  0
  2  3  1  0
  3  4  1  0
  4  5  1  0
  4  6  1  0
  6  7  2  0
  6  8  1  0
  8  9  1  0
  1 10  1  0
  3 11  1  0
  3 12  1  0
  4 13  1  0
  5 14  1  0
  5 15  1  0
  5 16  1  0
  8 17  1  0
  8 18  1  0
  9 19  1  0
M  END
