
     RDKit          3D

 15 15  0  0  0  0  0  0  0  0999 V2000
    3.1967    0.7912   -0.3339 C   0  0  0  0  0  0  0  0  0  0  0  0
    2.0480    0.6370   -0.0821 C   0  0  0  0  0  0  0  0  0  0  0  0
    0.6164    0.4638    0.2196 C   0  0  0  0  0  0  0  0  0  0  0  0
    0.2605   -0.9760    0.2320 C   0  0  0  0  0  0  0  0  0  0  0  0
   -1.1924   -1.1545    0.4168 C   0  0  0  0  0  0  0  0  0  0  0  0
   -2.0542   -0.2382    0.0293 C   0  0  0  0  0  0  0  0  0  0  0  0
   -1.5608    0.9946   -0.6018 C   0  0  0  0  0  0  0  0  0  0  0  0
   -2.3505    1.8885   -0.9859 O   0  0  0  0  0  0  0  0  0  0  0  0
   -0.1687    1.1245   -0.7548 O   0  0  0  0  0  0  0  0  0  0  0  0
    4.2395    0.9123   -0.5639 H   0  0  0  0  0  0  0  0  0  0  0  0
    0.3660    0.9270    1.2003 H   0  0  0  0  0  0  0  0  0  0  0  0
    0.4931   -1.3990   -0.7837 H   0  0  0  0  0  0  0  0  0  0  0  0
    0.8157   -1.5779    0.9780 H   0  0  0  0  0  0  0  0  0  0  0  0
   -1.5819   -2.0694    0.8880 H   0  0  0  0  0  0  0  0  0  0  0  0
   -3.1275   -0.3239    0.1420 H   0  0  0  0  0  0  0  0  0  0  0  0
  1  2  3  0
  2  3  1  0
  3  4  1  0
  4  5  1  0
  5  6  2  0
  6  7  1  0
  7  8  2  0
  7  9  1  0
  9  3  1  0
  1 10  1  0
  3 11  1  0
  4 12  1  0
  4 13  1  0
  5 14  1  0
  6 15  1  0
M  END
