
     RDKit          3D

 18 18  0  0  0  0  0  0  0  0999 V2000
   -1.8953   -0.2481    2.0789 C   0  0  0  0  0  0  0  0  0  0  0  0
   -1.0947   -0.2925    1.1753 C   0  0  0  0  0  0  0  0  0  0  0  0
   -0.1017   -0.3454    0.0931 C   0  0  0  0  0  0  0  0  0  0  0  0
    0.2147   -1.8177   -0.1199 C   0  0  0  0  0  0  0  0  0  0  0  0
    1.1714    0.3737    0.4736 C   0  0  0  0  0  0  0  0  0  0  0  0
    1.0592    1.6465   -0.2730 C   0  0  0  0  0  0  0  0  0  0  0  0
    0.0968    1.6080   -1.1658 C   0  0  0  0  0  0  0  0  0  0  0  0
   -0.5992    0.2914   -1.1631 C   0  0  0  0  0  0  0  0  0  0  0  0
   -2.5988   -0.1945    2.8916 H   0  0  0  0  0  0  0  0  0  0  0  0
   -0.5539   -2.2663   -0.7531 H   0  0  0  0  0  0  0  0  0  0  0  0
    0.2762   -2.2635    0.9023 H   0  0  0  0  0  0  0  0  0  0  0  0
    1.2017   -1.8669   -0.5950 H   0  0  0  0  0  0  0  0  0  0  0  0
    1.2952    0.5016    1.5571 H   0  0  0  0  0  0  0  0  0  0  0  0
    2.0311   -0.2294    0.0647 H   0  0  0  0  0  0  0  0  0  0  0  0
    1.6966    2.5290   -0.1129 H   0  0  0  0  0  0  0  0  0  0  0  0
   -0.1845    2.4141   -1.8379 H   0  0  0  0  0  0  0  0  0  0  0  0
   -0.3190   -0.3101   -2.0546 H   0  0  0  0  0  0  0  0  0  0  0  0
   -1.6955    0.4703   -1.1613 H   0  0  0  0  0  0  0  0  0  0  0  0
  1  2  3  0
  2  3  1  0
  3  4  1  0
  3  5  1  0
  5  6  1  0
  6  7  2  0
  7  8  1  0
  8  3  1  0
  1  9  1  0
  4 10  1  0
  4 11  1  0
  4 12  1  0
  5 13  1  0
  5 14  1  0
  6 15  1  0
  7 16  1  0
  8 17  1  0
  8 18  1  0
M  END
