
     RDKit          3D

 19 20  0  0  0  0  0  0  0  0999 V2000
    3.0192    1.1733   -1.2041 C   0  0  0  0  0  0  0  0  0  0  0  0
    2.0028    0.6127   -0.8785 C   0  0  0  0  0  0  0  0  0  0  0  0
    0.7856   -0.0786   -0.4669 C   0  0  0  0  0  0  0  0  0  0  0  0
   -0.3350    0.0261   -1.4655 C   0  0  0  0  0  0  0  0  0  0  0  0
   -1.2584    0.2561   -0.2638 C   0  0  0  0  0  0  0  0  0  0  0  0
   -1.6351   -1.0049    0.4609 C   0  0  0  0  0  0  0  0  0  0  0  0
   -1.4305   -0.6500    1.8112 O   0  0  0  0  0  0  0  0  0  0  0  0
   -0.1801   -0.0387    1.8356 C   0  0  0  0  0  0  0  0  0  0  0  0
   -0.0607    0.7057    0.5471 C   0  0  0  0  0  0  0  0  0  0  0  0
    3.9190    1.6909   -1.4979 H   0  0  0  0  0  0  0  0  0  0  0  0
    1.0303   -1.0961   -0.1184 H   0  0  0  0  0  0  0  0  0  0  0  0
   -0.5655   -0.9634   -1.9109 H   0  0  0  0  0  0  0  0  0  0  0  0
   -0.2884    0.8605   -2.1644 H   0  0  0  0  0  0  0  0  0  0  0  0
   -2.0164    1.0270   -0.3860 H   0  0  0  0  0  0  0  0  0  0  0  0
   -0.9197   -1.8023    0.1627 H   0  0  0  0  0  0  0  0  0  0  0  0
   -2.6876   -1.2815    0.3559 H   0  0  0  0  0  0  0  0  0  0  0  0
   -0.0773    0.6374    2.7089 H   0  0  0  0  0  0  0  0  0  0  0  0
    0.5682   -0.8759    1.8887 H   0  0  0  0  0  0  0  0  0  0  0  0
    0.1297    1.7739    0.5852 H   0  0  0  0  0  0  0  0  0  0  0  0
  1  2  3  0
  2  3  1  0
  3  4  1  0
  4  5  1  0
  5  6  1  0
  6  7  1  0
  7  8  1  0
  8  9  1  0
  9  3  1  0
  9  5  1  0
  1 10  1  0
  3 11  1  0
  4 12  1  0
  4 13  1  0
  5 14  1  0
  6 15  1  0
  6 16  1  0
  8 17  1  0
  8 18  1  0
  9 19  1  0
M  END
