
     RDKit          3D

 19 20  0  0  0  0  0  0  0  0999 V2000
    3.3175   -0.0942   -0.9482 C   0  0  0  0  0  0  0  0  0  0  0  0
    2.1283   -0.0401   -0.7501 C   0  0  0  0  0  0  0  0  0  0  0  0
    0.7153    0.0107   -0.5038 C   0  0  0  0  0  0  0  0  0  0  0  0
    0.0311   -0.1309    0.6268 C   0  0  0  0  0  0  0  0  0  0  0  0
    0.4659   -0.4259    2.0098 C   0  0  0  0  0  0  0  0  0  0  0  0
   -1.3602    0.0787    0.2112 C   0  0  0  0  0  0  0  0  0  0  0  0
   -1.2136    1.2599   -0.7526 C   0  0  0  0  0  0  0  0  0  0  0  0
   -0.3372    0.2429   -1.5033 C   0  0  0  0  0  0  0  0  0  0  0  0
   -1.4114   -0.7602   -1.0692 C   0  0  0  0  0  0  0  0  0  0  0  0
    4.3745   -0.1456   -1.1428 H   0  0  0  0  0  0  0  0  0  0  0  0
    0.1340    0.3162    2.7394 H   0  0  0  0  0  0  0  0  0  0  0  0
    1.5739   -0.4953    2.0996 H   0  0  0  0  0  0  0  0  0  0  0  0
    0.0824   -1.4198    2.3557 H   0  0  0  0  0  0  0  0  0  0  0  0
   -2.1640    0.0533    0.8743 H   0  0  0  0  0  0  0  0  0  0  0  0
   -2.1719    1.4754   -1.2430 H   0  0  0  0  0  0  0  0  0  0  0  0
   -0.6384    2.0975   -0.3524 H   0  0  0  0  0  0  0  0  0  0  0  0
   -0.1438    0.3880   -2.5170 H   0  0  0  0  0  0  0  0  0  0  0  0
   -1.0490   -1.7731   -0.8813 H   0  0  0  0  0  0  0  0  0  0  0  0
   -2.3336   -0.6373   -1.6511 H   0  0  0  0  0  0  0  0  0  0  0  0
  1  2  3  0
  2  3  1  0
  3  4  2  0
  4  5  1  0
  4  6  1  0
  6  7  1  0
  7  8  1  0
  8  9  1  0
  8  3  1  0
  9  6  1  0
  1 10  1  0
  5 11  1  0
  5 12  1  0
  5 13  1  0
  6 14  1  0
  7 15  1  0
  7 16  1  0
  8 17  1  0
  9 18  1  0
  9 19  1  0
M  END
