
     RDKit          3D

 23 22  0  0  0  0  0  0  0  0999 V2000
    2.3872    2.4273   -1.3222 C   0  0  0  0  0  0  0  0  0  0  0  0
    1.2789    2.1160   -0.9243 C   0  0  0  0  0  0  0  0  0  0  0  0
   -0.0515    1.7192   -0.4571 C   0  0  0  0  0  0  0  0  0  0  0  0
    0.0560    0.4757    0.4147 C   0  0  0  0  0  0  0  0  0  0  0  0
   -1.2716    0.0305    0.9161 C   0  0  0  0  0  0  0  0  0  0  0  0
   -2.2426   -0.3235   -0.1822 C   0  0  0  0  0  0  0  0  0  0  0  0
    0.8465   -0.5453   -0.3453 C   0  0  0  0  0  0  0  0  0  0  0  0
    1.0535   -1.8375    0.3631 C   0  0  0  0  0  0  0  0  0  0  0  0
   -0.0784   -2.5382    0.6935 O   0  0  0  0  0  0  0  0  0  0  0  0
    3.3544    2.6883   -1.6783 H   0  0  0  0  0  0  0  0  0  0  0  0
   -0.5467    2.5571    0.0633 H   0  0  0  0  0  0  0  0  0  0  0  0
   -0.7079    1.4745   -1.3379 H   0  0  0  0  0  0  0  0  0  0  0  0
    0.6664    0.7778    1.2951 H   0  0  0  0  0  0  0  0  0  0  0  0
   -1.2141   -0.7839    1.6224 H   0  0  0  0  0  0  0  0  0  0  0  0
   -1.7011    0.9007    1.4744 H   0  0  0  0  0  0  0  0  0  0  0  0
   -1.6743   -0.4450   -1.1098 H   0  0  0  0  0  0  0  0  0  0  0  0
   -3.0393    0.4546   -0.2861 H   0  0  0  0  0  0  0  0  0  0  0  0
   -2.7821   -1.2794    0.0577 H   0  0  0  0  0  0  0  0  0  0  0  0
    0.4650   -0.6812   -1.3919 H   0  0  0  0  0  0  0  0  0  0  0  0
    1.8705   -0.0856   -0.4875 H   0  0  0  0  0  0  0  0  0  0  0  0
    1.6354   -1.6955    1.3117 H   0  0  0  0  0  0  0  0  0  0  0  0
    1.7316   -2.4732   -0.2788 H   0  0  0  0  0  0  0  0  0  0  0  0
   -0.0355   -2.9335    1.5894 H   0  0  0  0  0  0  0  0  0  0  0  0
  1  2  3  0
  2  3  1  0
  3  4  1  0
  4  5  1  0
  5  6  1  0
  4  7  1  0
  7  8  1  0
  8  9  1  0
  1 10  1  0
  3 11  1  0
  3 12  1  0
  4 13  1  0
  5 14  1  0
  5 15  1  0
  6 16  1  0
  6 17  1  0
  6 18  1  0
  7 19  1  0
  7 20  1  0
  8 21  1  0
  8 22  1  0
  9 23  1  0
M  END
