
     RDKit          3D

 17 18  0  0  0  0  0  0  0  0999 V2000
    2.3421   -1.3316   -0.3426 C   0  0  0  0  0  0  0  0  0  0  0  0
    1.5153   -0.5294   -0.0069 C   0  0  0  0  0  0  0  0  0  0  0  0
    0.5445    0.4414    0.4016 C   0  0  0  0  0  0  0  0  0  0  0  0
    0.9051    1.2360    1.5141 O   0  0  0  0  0  0  0  0  0  0  0  0
   -0.8870   -0.0429    0.5231 C   0  0  0  0  0  0  0  0  0  0  0  0
   -1.0578   -1.3962   -0.1713 C   0  0  0  0  0  0  0  0  0  0  0  0
   -1.2705    1.0817   -0.4251 C   0  0  0  0  0  0  0  0  0  0  0  0
   -0.8037    2.3563   -0.1990 O   0  0  0  0  0  0  0  0  0  0  0  0
    0.0506    1.3568   -0.6955 C   0  0  0  0  0  0  0  0  0  0  0  0
    3.0652   -2.0537   -0.6522 H   0  0  0  0  0  0  0  0  0  0  0  0
    1.8710    1.4717    1.3896 H   0  0  0  0  0  0  0  0  0  0  0  0
   -1.3285    0.0021    1.5216 H   0  0  0  0  0  0  0  0  0  0  0  0
   -1.0085   -1.2541   -1.2725 H   0  0  0  0  0  0  0  0  0  0  0  0
   -2.0779   -1.7353    0.0696 H   0  0  0  0  0  0  0  0  0  0  0  0
   -0.3139   -2.1258    0.1568 H   0  0  0  0  0  0  0  0  0  0  0  0
   -2.1661    1.0069   -1.0380 H   0  0  0  0  0  0  0  0  0  0  0  0
    0.6200    1.5161   -1.6024 H   0  0  0  0  0  0  0  0  0  0  0  0
  1  2  3  0
  2  3  1  0
  3  4  1  0
  3  5  1  0
  5  6  1  0
  5  7  1  0
  7  8  1  0
  8  9  1  0
  9  3  1  0
  9  7  1  0
  1 10  1  0
  4 11  1  0
  5 12  1  0
  6 13  1  0
  6 14  1  0
  6 15  1  0
  7 16  1  0
  9 17  1  0
M  END
