
     RDKit          3D

 23 23  0  0  0  0  0  0  0  0999 V2000
   -0.4269    2.2551    1.3334 C   0  0  0  0  0  0  0  0  0  0  0  0
   -0.3872    1.5294    0.3471 C   0  0  0  0  0  0  0  0  0  0  0  0
   -0.3419    0.6819   -0.8432 C   0  0  0  0  0  0  0  0  0  0  0  0
   -1.7486    0.1966   -1.1283 C   0  0  0  0  0  0  0  0  0  0  0  0
   -1.7932   -1.0437   -0.2444 C   0  0  0  0  0  0  0  0  0  0  0  0
   -0.4510   -1.6720   -0.5607 C   0  0  0  0  0  0  0  0  0  0  0  0
    0.4903   -0.5144   -0.5586 C   0  0  0  0  0  0  0  0  0  0  0  0
    1.2396   -0.4653    0.7431 C   0  0  0  0  0  0  0  0  0  0  0  0
    2.1967    0.6778    0.8525 C   0  0  0  0  0  0  0  0  0  0  0  0
   -0.4700    2.8796    2.1880 H   0  0  0  0  0  0  0  0  0  0  0  0
    0.0048    1.2104   -1.7386 H   0  0  0  0  0  0  0  0  0  0  0  0
   -1.8678   -0.0904   -2.1809 H   0  0  0  0  0  0  0  0  0  0  0  0
   -2.4380    0.9775   -0.8087 H   0  0  0  0  0  0  0  0  0  0  0  0
   -2.6459   -1.6507   -0.5958 H   0  0  0  0  0  0  0  0  0  0  0  0
   -1.8597   -0.7674    0.8142 H   0  0  0  0  0  0  0  0  0  0  0  0
   -0.1544   -2.4274    0.1927 H   0  0  0  0  0  0  0  0  0  0  0  0
   -0.5263   -2.1066   -1.5825 H   0  0  0  0  0  0  0  0  0  0  0  0
    1.2565   -0.7160   -1.3520 H   0  0  0  0  0  0  0  0  0  0  0  0
    1.8392   -1.4060    0.8043 H   0  0  0  0  0  0  0  0  0  0  0  0
    0.5705   -0.4754    1.6257 H   0  0  0  0  0  0  0  0  0  0  0  0
    2.1829    1.1228    1.8904 H   0  0  0  0  0  0  0  0  0  0  0  0
    3.2704    0.3458    0.7295 H   0  0  0  0  0  0  0  0  0  0  0  0
    2.0601    1.4584    0.0727 H   0  0  0  0  0  0  0  0  0  0  0  0
  1  2  3  0
  2  3  1  0
  3  4  1  0
  4  5  1  0
  5  6  1  0
  6  7  1  0
  7  8  1  0
  8  9  1  0
  7  3  1  0
  1 10  1  0
  3 11  1  0
  4 12  1  0
  4 13  1  0
  5 14  1  0
  5 15  1  0
  6 16  1  0
  6 17  1  0
  7 18  1  0
  8 19  1  0
  8 20  1  0
  9 21  1  0
  9 22  1  0
  9 23  1  0
M  END
