
     RDKit          3D

 19 20  0  0  0  0  0  0  0  0999 V2000
    3.1205   -0.2092    0.0910 C   0  0  0  0  0  0  0  0  0  0  0  0
    2.0416   -0.2451   -0.4294 C   0  0  0  0  0  0  0  0  0  0  0  0
    0.7525   -0.2846   -1.0672 C   0  0  0  0  0  0  0  0  0  0  0  0
   -0.0815   -1.5114   -0.8555 C   0  0  0  0  0  0  0  0  0  0  0  0
   -1.1916   -0.6751   -0.2823 C   0  0  0  0  0  0  0  0  0  0  0  0
   -1.8263   -1.0828    0.8840 O   0  0  0  0  0  0  0  0  0  0  0  0
   -1.6228    0.5752   -0.9785 C   0  0  0  0  0  0  0  0  0  0  0  0
   -0.3045    0.5065   -0.3158 C   0  0  0  0  0  0  0  0  0  0  0  0
    0.0491    1.2871    0.8923 C   0  0  0  0  0  0  0  0  0  0  0  0
    4.0691   -0.1819    0.5370 H   0  0  0  0  0  0  0  0  0  0  0  0
    0.7678    0.0923   -2.1298 H   0  0  0  0  0  0  0  0  0  0  0  0
    0.3092   -2.1987   -0.0656 H   0  0  0  0  0  0  0  0  0  0  0  0
   -0.3293   -2.0156   -1.8110 H   0  0  0  0  0  0  0  0  0  0  0  0
   -2.1521   -0.3544    1.4434 H   0  0  0  0  0  0  0  0  0  0  0  0
   -2.4757    1.1056   -0.5674 H   0  0  0  0  0  0  0  0  0  0  0  0
   -1.5940    0.5747   -2.0945 H   0  0  0  0  0  0  0  0  0  0  0  0
    0.2074    2.3564    0.5753 H   0  0  0  0  0  0  0  0  0  0  0  0
    0.9919    0.9467    1.3230 H   0  0  0  0  0  0  0  0  0  0  0  0
   -0.7314    1.3144    1.6719 H   0  0  0  0  0  0  0  0  0  0  0  0
  1  2  3  0
  2  3  1  0
  3  4  1  0
  4  5  1  0
  5  6  1  0
  5  7  1  0
  7  8  1  0
  8  9  1  0
  8  3  1  0
  8  5  1  0
  1 10  1  0
  3 11  1  0
  4 12  1  0
  4 13  1  0
  6 14  1  0
  7 15  1  0
  7 16  1  0
  9 17  1  0
  9 18  1  0
  9 19  1  0
M  END
