
     RDKit          3D

 13 14  0  0  0  0  0  0  0  0999 V2000
    2.8836    0.1603    0.8107 C   0  0  0  0  0  0  0  0  0  0  0  0
    1.6873    0.0833    0.6626 C   0  0  0  0  0  0  0  0  0  0  0  0
    0.2492    0.0126    0.4785 C   0  0  0  0  0  0  0  0  0  0  0  0
   -0.3381   -1.1407    0.9796 O   0  0  0  0  0  0  0  0  0  0  0  0
   -0.3312   -0.8951   -0.4511 C   0  0  0  0  0  0  0  0  0  0  0  0
   -1.6578   -0.2981   -0.8751 C   0  0  0  0  0  0  0  0  0  0  0  0
   -1.7644    0.9065   -0.1301 O   0  0  0  0  0  0  0  0  0  0  0  0
   -0.5404    1.2617    0.3866 C   0  0  0  0  0  0  0  0  0  0  0  0
   -0.1075    2.3867    0.7326 O   0  0  0  0  0  0  0  0  0  0  0  0
    3.9339    0.2274    0.9588 H   0  0  0  0  0  0  0  0  0  0  0  0
    0.1724   -1.6359   -1.0688 H   0  0  0  0  0  0  0  0  0  0  0  0
   -1.6767   -0.1276   -1.9606 H   0  0  0  0  0  0  0  0  0  0  0  0
   -2.5104   -0.9411   -0.5238 H   0  0  0  0  0  0  0  0  0  0  0  0
  1  2  3  0
  2  3  1  0
  3  4  1  0
  4  5  1  0
  5  6  1  0
  6  7  1  0
  7  8  1  0
  8  9  2  0
  5  3  1  0
  8  3  1  0
  1 10  1  0
  5 11  1  0
  6 12  1  0
  6 13  1  0
M  END
