
     RDKit          3D

 14 15  0  0  0  0  0  0  0  0999 V2000
    2.7519   -0.9696    0.6768 C   0  0  0  0  0  0  0  0  0  0  0  0
    1.8152   -0.5921   -0.0085 C   0  0  0  0  0  0  0  0  0  0  0  0
    0.6780   -0.1313   -0.8104 C   0  0  0  0  0  0  0  0  0  0  0  0
    0.6503    1.2691   -0.7880 O   0  0  0  0  0  0  0  0  0  0  0  0
   -0.4752    1.2201    0.0208 C   0  0  0  0  0  0  0  0  0  0  0  0
   -1.7289    0.6493   -0.5881 C   0  0  0  0  0  0  0  0  0  0  0  0
   -0.6290   -0.2337   -0.0992 C   0  0  0  0  0  0  0  0  0  0  0  0
   -0.8057   -1.0716    0.9781 O   0  0  0  0  0  0  0  0  0  0  0  0
    3.5678   -1.2839    1.2785 H   0  0  0  0  0  0  0  0  0  0  0  0
    0.6859   -0.4690   -1.8604 H   0  0  0  0  0  0  0  0  0  0  0  0
   -0.5158    1.7652    0.9705 H   0  0  0  0  0  0  0  0  0  0  0  0
   -1.7868    0.7167   -1.7093 H   0  0  0  0  0  0  0  0  0  0  0  0
   -2.6368    0.8311    0.0052 H   0  0  0  0  0  0  0  0  0  0  0  0
   -1.5709   -1.7002    0.8033 H   0  0  0  0  0  0  0  0  0  0  0  0
  1  2  3  0
  2  3  1  0
  3  4  1  0
  4  5  1  0
  5  6  1  0
  6  7  1  0
  7  8  1  0
  7  3  1  0
  7  5  1  0
  1  9  1  0
  3 10  1  0
  5 11  1  0
  6 12  1  0
  6 13  1  0
  8 14  1  0
M  END
