
     RDKit          3D

 21 21  0  0  0  0  0  0  0  0999 V2000
    2.0354    0.9105   -2.0684 C   0  0  0  0  0  0  0  0  0  0  0  0
    1.3799    0.2392   -1.3178 C   0  0  0  0  0  0  0  0  0  0  0  0
    0.6104   -0.5580   -0.4125 C   0  0  0  0  0  0  0  0  0  0  0  0
    1.3501   -1.5213    0.2808 O   0  0  0  0  0  0  0  0  0  0  0  0
   -0.6504   -1.1959   -0.9677 C   0  0  0  0  0  0  0  0  0  0  0  0
   -1.2656   -0.9110    0.4109 C   0  0  0  0  0  0  0  0  0  0  0  0
   -0.2715    0.2297    0.5101 C   0  0  0  0  0  0  0  0  0  0  0  0
   -0.8674    1.4828   -0.0434 C   0  0  0  0  0  0  0  0  0  0  0  0
    0.3502    0.3974    1.8598 C   0  0  0  0  0  0  0  0  0  0  0  0
    2.5940    1.5034   -2.7334 H   0  0  0  0  0  0  0  0  0  0  0  0
    1.4201   -2.3051   -0.3297 H   0  0  0  0  0  0  0  0  0  0  0  0
   -1.0991   -0.5547   -1.7242 H   0  0  0  0  0  0  0  0  0  0  0  0
   -0.5594   -2.2708   -1.1983 H   0  0  0  0  0  0  0  0  0  0  0  0
   -1.0454   -1.6582    1.1725 H   0  0  0  0  0  0  0  0  0  0  0  0
   -2.3211   -0.6065    0.2784 H   0  0  0  0  0  0  0  0  0  0  0  0
   -1.4796    1.3171   -0.9430 H   0  0  0  0  0  0  0  0  0  0  0  0
   -0.1009    2.2911   -0.2002 H   0  0  0  0  0  0  0  0  0  0  0  0
   -1.5575    1.8938    0.7305 H   0  0  0  0  0  0  0  0  0  0  0  0
    0.4724   -0.5949    2.3750 H   0  0  0  0  0  0  0  0  0  0  0  0
   -0.3251    0.9972    2.5021 H   0  0  0  0  0  0  0  0  0  0  0  0
    1.3302    0.9142    1.8185 H   0  0  0  0  0  0  0  0  0  0  0  0
  1  2  3  0
  2  3  1  0
  3  4  1  0
  3  5  1  0
  5  6  1  0
  6  7  1  0
  7  8  1  0
  7  9  1  0
  7  3  1  0
  1 10  1  0
  4 11  1  0
  5 12  1  0
  5 13  1  0
  6 14  1  0
  6 15  1  0
  8 16  1  0
  8 17  1  0
  8 18  1  0
  9 19  1  0
  9 20  1  0
  9 21  1  0
M  END
