
     RDKit          3D

 20 20  0  0  0  0  0  0  0  0999 V2000
    3.5632    0.0769   -0.4541 C   0  0  0  0  0  0  0  0  0  0  0  0
    2.5105   -0.5033   -0.2311 C   0  0  0  0  0  0  0  0  0  0  0  0
    1.2497   -1.2063    0.0224 C   0  0  0  0  0  0  0  0  0  0  0  0
    0.3418   -0.3255    0.8596 C   0  0  0  0  0  0  0  0  0  0  0  0
   -0.9967   -0.8058    1.2542 C   0  0  0  0  0  0  0  0  0  0  0  0
   -0.8307    0.3373    0.2493 C   0  0  0  0  0  0  0  0  0  0  0  0
   -1.1573    1.7296    0.7435 C   0  0  0  0  0  0  0  0  0  0  0  0
   -1.3243   -0.0061   -1.1206 C   0  0  0  0  0  0  0  0  0  0  0  0
    4.4588    0.5884   -0.6550 H   0  0  0  0  0  0  0  0  0  0  0  0
    0.7732   -1.5785   -0.8830 H   0  0  0  0  0  0  0  0  0  0  0  0
    1.5307   -2.1032    0.6446 H   0  0  0  0  0  0  0  0  0  0  0  0
    0.8957    0.2430    1.6401 H   0  0  0  0  0  0  0  0  0  0  0  0
   -1.2852   -1.7986    0.8829 H   0  0  0  0  0  0  0  0  0  0  0  0
   -1.4399   -0.5620    2.2401 H   0  0  0  0  0  0  0  0  0  0  0  0
   -1.4684    2.3603   -0.1077 H   0  0  0  0  0  0  0  0  0  0  0  0
   -0.2501    2.1735    1.2041 H   0  0  0  0  0  0  0  0  0  0  0  0
   -1.9924    1.6599    1.4502 H   0  0  0  0  0  0  0  0  0  0  0  0
   -2.3458    0.4591   -1.2386 H   0  0  0  0  0  0  0  0  0  0  0  0
   -1.5169   -1.1109   -1.2472 H   0  0  0  0  0  0  0  0  0  0  0  0
   -0.7159    0.3721   -1.9408 H   0  0  0  0  0  0  0  0  0  0  0  0
  1  2  3  0
  2  3  1  0
  3  4  1  0
  4  5  1  0
  5  6  1  0
  6  7  1  0
  6  8  1  0
  6  4  1  0
  1  9  1  0
  3 10  1  0
  3 11  1  0
  4 12  1  0
  5 13  1  0
  5 14  1  0
  7 15  1  0
  7 16  1  0
  7 17  1  0
  8 18  1  0
  8 19  1  0
  8 20  1  0
M  END
