
     RDKit          3D

 19 18  0  0  0  0  0  0  0  0999 V2000
   -1.3752   -1.9890   -1.3274 C   0  0  0  0  0  0  0  0  0  0  0  0
   -1.0362   -1.0270   -0.6819 C   0  0  0  0  0  0  0  0  0  0  0  0
   -0.6155    0.1497    0.0819 C   0  0  0  0  0  0  0  0  0  0  0  0
   -0.8120   -0.0256    1.5638 C   0  0  0  0  0  0  0  0  0  0  0  0
   -1.4436    1.3142   -0.4160 C   0  0  0  0  0  0  0  0  0  0  0  0
    0.8373    0.4662   -0.2580 C   0  0  0  0  0  0  0  0  0  0  0  0
    1.6142   -0.6527    0.0907 O   0  0  0  0  0  0  0  0  0  0  0  0
    2.9730   -0.7397   -0.0695 C   0  0  0  0  0  0  0  0  0  0  0  0
    3.5864    0.2318   -0.5581 O   0  0  0  0  0  0  0  0  0  0  0  0
   -1.6710   -2.8261   -1.9068 H   0  0  0  0  0  0  0  0  0  0  0  0
   -1.4112    0.8130    2.0040 H   0  0  0  0  0  0  0  0  0  0  0  0
   -1.4213   -0.9611    1.7269 H   0  0  0  0  0  0  0  0  0  0  0  0
    0.1338   -0.0957    2.1152 H   0  0  0  0  0  0  0  0  0  0  0  0
   -1.7333    1.9397    0.4542 H   0  0  0  0  0  0  0  0  0  0  0  0
   -0.8568    1.9810   -1.0988 H   0  0  0  0  0  0  0  0  0  0  0  0
   -2.3572    0.9905   -0.9366 H   0  0  0  0  0  0  0  0  0  0  0  0
    1.1994    1.3455    0.3125 H   0  0  0  0  0  0  0  0  0  0  0  0
    0.9142    0.7294   -1.3267 H   0  0  0  0  0  0  0  0  0  0  0  0
    3.4750   -1.6444    0.2306 H   0  0  0  0  0  0  0  0  0  0  0  0
  1  2  3  0
  2  3  1  0
  3  4  1  0
  3  5  1  0
  3  6  1  0
  6  7  1  0
  7  8  1  0
  8  9  2  0
  1 10  1  0
  4 11  1  0
  4 12  1  0
  4 13  1  0
  5 14  1  0
  5 15  1  0
  5 16  1  0
  6 17  1  0
  6 18  1  0
  8 19  1  0
M  END
