
     RDKit          3D

 19 18  0  0  0  0  0  0  0  0999 V2000
    1.4601   -2.5614   -0.1638 C   0  0  0  0  0  0  0  0  0  0  0  0
    1.2611   -1.4018    0.1637 C   0  0  0  0  0  0  0  0  0  0  0  0
    0.9998   -0.0272    0.5563 C   0  0  0  0  0  0  0  0  0  0  0  0
    2.0252    0.8362    0.2218 O   0  0  0  0  0  0  0  0  0  0  0  0
   -0.3391    0.3779    0.0009 C   0  0  0  0  0  0  0  0  0  0  0  0
   -0.5527    1.8327    0.4486 C   0  0  0  0  0  0  0  0  0  0  0  0
   -0.3876    0.2477   -1.4827 C   0  0  0  0  0  0  0  0  0  0  0  0
   -1.3802   -0.4226    0.6193 C   0  0  0  0  0  0  0  0  0  0  0  0
   -2.2693   -1.0898    1.1243 C   0  0  0  0  0  0  0  0  0  0  0  0
    1.6504   -3.5638   -0.4516 H   0  0  0  0  0  0  0  0  0  0  0  0
    0.8997    0.0024    1.6813 H   0  0  0  0  0  0  0  0  0  0  0  0
    2.6871    0.3607   -0.3573 H   0  0  0  0  0  0  0  0  0  0  0  0
   -1.5404    2.1548    0.1123 H   0  0  0  0  0  0  0  0  0  0  0  0
    0.2372    2.4940    0.0487 H   0  0  0  0  0  0  0  0  0  0  0  0
   -0.4288    1.8339    1.5547 H   0  0  0  0  0  0  0  0  0  0  0  0
   -1.3227   -0.2976   -1.8037 H   0  0  0  0  0  0  0  0  0  0  0  0
   -0.4360    1.2220   -2.0135 H   0  0  0  0  0  0  0  0  0  0  0  0
    0.4774   -0.3425   -1.8351 H   0  0  0  0  0  0  0  0  0  0  0  0
   -3.0410   -1.6557    1.5758 H   0  0  0  0  0  0  0  0  0  0  0  0
  1  2  3  0
  2  3  1  0
  3  4  1  0
  3  5  1  0
  5  6  1  0
  5  7  1  0
  5  8  1  0
  8  9  3  0
  1 10  1  0
  3 11  1  0
  4 12  1  0
  6 13  1  0
  6 14  1  0
  6 15  1  0
  7 16  1  0
  7 17  1  0
  7 18  1  0
  9 19  1  0
M  END
