
     RDKit          3D

 19 19  0  0  0  0  0  0  0  0999 V2000
    3.4393    0.0430   -0.1349 C   0  0  0  0  0  0  0  0  0  0  0  0
    2.3239   -0.3052   -0.4212 C   0  0  0  0  0  0  0  0  0  0  0  0
    0.9955   -0.7457   -0.7694 C   0  0  0  0  0  0  0  0  0  0  0  0
    0.2184   -1.1903    0.4768 C   0  0  0  0  0  0  0  0  0  0  0  0
   -1.0872   -1.3773    0.0587 O   0  0  0  0  0  0  0  0  0  0  0  0
   -1.9426   -0.3816    0.4741 C   0  0  0  0  0  0  0  0  0  0  0  0
   -1.6039    0.9824    0.0110 C   0  0  0  0  0  0  0  0  0  0  0  0
   -0.2345    1.1823   -0.5139 C   0  0  0  0  0  0  0  0  0  0  0  0
    0.2189    0.2249   -1.3810 O   0  0  0  0  0  0  0  0  0  0  0  0
    4.4404    0.3365    0.1229 H   0  0  0  0  0  0  0  0  0  0  0  0
    0.9884   -1.6371   -1.4444 H   0  0  0  0  0  0  0  0  0  0  0  0
    0.6575   -2.1529    0.8478 H   0  0  0  0  0  0  0  0  0  0  0  0
    0.3091   -0.4372    1.2840 H   0  0  0  0  0  0  0  0  0  0  0  0
   -2.9608   -0.6545    0.0965 H   0  0  0  0  0  0  0  0  0  0  0  0
   -1.9761   -0.4409    1.6023 H   0  0  0  0  0  0  0  0  0  0  0  0
   -1.7421    1.6911    0.8777 H   0  0  0  0  0  0  0  0  0  0  0  0
   -2.3402    1.3558   -0.7573 H   0  0  0  0  0  0  0  0  0  0  0  0
   -0.2284    2.1638   -1.0743 H   0  0  0  0  0  0  0  0  0  0  0  0
    0.5242    1.3428    0.3074 H   0  0  0  0  0  0  0  0  0  0  0  0
  1  2  3  0
  2  3  1  0
  3  4  1  0
  4  5  1  0
  5  6  1  0
  6  7  1  0
  7  8  1  0
  8  9  1  0
  9  3  1  0
  1 10  1  0
  3 11  1  0
  4 12  1  0
  4 13  1  0
  6 14  1  0
  6 15  1  0
  7 16  1  0
  7 17  1  0
  8 18  1  0
  8 19  1  0
M  END
