
     RDKit          3D

 17 17  0  0  0  0  0  0  0  0999 V2000
   -0.2222   -1.6653    1.7785 C   0  0  0  0  0  0  0  0  0  0  0  0
   -0.2758   -0.4606    1.2873 C   0  0  0  0  0  0  0  0  0  0  0  0
   -0.3204    0.8677    0.7381 C   0  0  0  0  0  0  0  0  0  0  0  0
   -1.6947    1.2871    0.5745 O   0  0  0  0  0  0  0  0  0  0  0  0
    0.6632    1.7488    1.0741 C   0  0  0  0  0  0  0  0  0  0  0  0
    1.1237    2.8352    0.8732 O   0  0  0  0  0  0  0  0  0  0  0  0
   -0.1547    0.4215   -0.8199 C   0  0  0  0  0  0  0  0  0  0  0  0
    0.9762   -0.5224   -1.0435 C   0  0  0  0  0  0  0  0  0  0  0  0
   -0.4374   -0.8511   -1.3998 C   0  0  0  0  0  0  0  0  0  0  0  0
   -0.1685   -2.8892    2.3024 H   0  0  0  0  0  0  0  0  0  0  0  0
   -2.0889    0.5425   -0.0860 H   0  0  0  0  0  0  0  0  0  0  0  0
    1.3939    1.2552    1.9760 H   0  0  0  0  0  0  0  0  0  0  0  0
   -0.2787    1.3097   -1.4615 H   0  0  0  0  0  0  0  0  0  0  0  0
    1.7000   -0.2807   -1.8737 H   0  0  0  0  0  0  0  0  0  0  0  0
    1.3887   -1.1837   -0.2645 H   0  0  0  0  0  0  0  0  0  0  0  0
   -0.6076   -0.7301   -2.5900 H   0  0  0  0  0  0  0  0  0  0  0  0
   -0.9968   -1.6847   -1.0652 H   0  0  0  0  0  0  0  0  0  0  0  0
  1  2  3  0
  2  3  1  0
  3  4  1  0
  3  5  1  0
  5  6  2  0
  3  7  1  0
  7  8  1  0
  8  9  1  0
  9  7  1  0
  1 10  1  0
  4 11  1  0
  5 12  1  0
  7 13  1  0
  8 14  1  0
  8 15  1  0
  9 16  1  0
  9 17  1  0
M  END
