
     RDKit          3D

 19 20  0  0  0  0  0  0  0  0999 V2000
   -1.3733    2.3394    1.4256 C   0  0  0  0  0  0  0  0  0  0  0  0
   -0.6068    1.5268    0.9733 C   0  0  0  0  0  0  0  0  0  0  0  0
    0.3420    0.5251    0.4329 C   0  0  0  0  0  0  0  0  0  0  0  0
    1.6445    0.7836    0.7531 O   0  0  0  0  0  0  0  0  0  0  0  0
    2.5660   -0.1109    0.2792 C   0  0  0  0  0  0  0  0  0  0  0  0
   -0.1159   -0.8618    0.3441 C   0  0  0  0  0  0  0  0  0  0  0  0
   -1.4900   -1.2293   -0.1468 C   0  0  0  0  0  0  0  0  0  0  0  0
   -1.4821   -0.1312   -1.1882 C   0  0  0  0  0  0  0  0  0  0  0  0
    0.0107    0.0240   -0.9045 C   0  0  0  0  0  0  0  0  0  0  0  0
   -2.0611    3.0422    1.8219 H   0  0  0  0  0  0  0  0  0  0  0  0
    2.5836   -0.1988   -0.8345 H   0  0  0  0  0  0  0  0  0  0  0  0
    3.5823    0.3159    0.5314 H   0  0  0  0  0  0  0  0  0  0  0  0
    2.5471   -1.1037    0.7709 H   0  0  0  0  0  0  0  0  0  0  0  0
    0.6086   -1.6674    0.4964 H   0  0  0  0  0  0  0  0  0  0  0  0
   -2.3081   -1.1504    0.6044 H   0  0  0  0  0  0  0  0  0  0  0  0
   -1.4610   -2.2168   -0.6582 H   0  0  0  0  0  0  0  0  0  0  0  0
   -1.7127   -0.4274   -2.2123 H   0  0  0  0  0  0  0  0  0  0  0  0
   -2.0005    0.7819   -0.8123 H   0  0  0  0  0  0  0  0  0  0  0  0
    0.7267   -0.2411   -1.6763 H   0  0  0  0  0  0  0  0  0  0  0  0
  1  2  3  0
  2  3  1  0
  3  4  1  0
  4  5  1  0
  3  6  1  0
  6  7  1  0
  7  8  1  0
  8  9  1  0
  9  3  1  0
  9  6  1  0
  1 10  1  0
  5 11  1  0
  5 12  1  0
  5 13  1  0
  6 14  1  0
  7 15  1  0
  7 16  1  0
  8 17  1  0
  8 18  1  0
  9 19  1  0
M  END
