
     RDKit          3D

 21 21  0  0  0  0  0  0  0  0999 V2000
    4.1197    0.0084    1.1548 C   0  0  0  0  0  0  0  0  0  0  0  0
    2.9005    0.0400    0.8922 C   0  0  0  0  0  0  0  0  0  0  0  0
    1.4639    0.0965    0.5997 C   0  0  0  0  0  0  0  0  0  0  0  0
    0.9671    0.5723   -0.5545 C   0  0  0  0  0  0  0  0  0  0  0  0
   -0.5071    0.4848   -0.5081 C   0  0  0  0  0  0  0  0  0  0  0  0
   -1.0842    0.0657   -1.8407 C   0  0  0  0  0  0  0  0  0  0  0  0
   -0.7731   -0.5684    0.5545 C   0  0  0  0  0  0  0  0  0  0  0  0
   -2.0995   -0.1564    1.2139 C   0  0  0  0  0  0  0  0  0  0  0  0
    0.4023   -0.3597    1.4939 C   0  0  0  0  0  0  0  0  0  0  0  0
    5.1331   -0.0223    1.3552 H   0  0  0  0  0  0  0  0  0  0  0  0
    1.5212    0.9568   -1.3939 H   0  0  0  0  0  0  0  0  0  0  0  0
   -0.9183    1.4419   -0.1252 H   0  0  0  0  0  0  0  0  0  0  0  0
   -0.3618    0.0594   -2.6535 H   0  0  0  0  0  0  0  0  0  0  0  0
   -1.4841   -0.9905   -1.7353 H   0  0  0  0  0  0  0  0  0  0  0  0
   -1.9331    0.7566   -2.0905 H   0  0  0  0  0  0  0  0  0  0  0  0
   -0.8199   -1.5816    0.1503 H   0  0  0  0  0  0  0  0  0  0  0  0
   -2.6092    0.6202    0.5701 H   0  0  0  0  0  0  0  0  0  0  0  0
   -2.7747   -1.0273    1.2461 H   0  0  0  0  0  0  0  0  0  0  0  0
   -1.9124    0.2991    2.2185 H   0  0  0  0  0  0  0  0  0  0  0  0
    0.1420    0.5300    2.1482 H   0  0  0  0  0  0  0  0  0  0  0  0
    0.6276   -1.2254    2.1262 H   0  0  0  0  0  0  0  0  0  0  0  0
  1  2  3  0
  2  3  1  0
  3  4  2  0
  4  5  1  0
  5  6  1  0
  5  7  1  0
  7  8  1  0
  7  9  1  0
  9  3  1  0
  1 10  1  0
  4 11  1  0
  5 12  1  0
  6 13  1  0
  6 14  1  0
  6 15  1  0
  7 16  1  0
  8 17  1  0
  8 18  1  0
  8 19  1  0
  9 20  1  0
  9 21  1  0
M  END
