
     RDKit          3D

 19 19  0  0  0  0  0  0  0  0999 V2000
    2.9319    0.7383   -0.7753 C   0  0  0  0  0  0  0  0  0  0  0  0
    1.8922    0.4356   -0.2985 C   0  0  0  0  0  0  0  0  0  0  0  0
    0.6090    0.0781    0.2735 C   0  0  0  0  0  0  0  0  0  0  0  0
    0.7125   -0.8292    1.2985 O   0  0  0  0  0  0  0  0  0  0  0  0
   -0.2483    1.2799    0.6997 C   0  0  0  0  0  0  0  0  0  0  0  0
   -1.4290    0.3792    0.3398 C   0  0  0  0  0  0  0  0  0  0  0  0
   -0.4805   -0.2377   -0.6900 C   0  0  0  0  0  0  0  0  0  0  0  0
   -0.8187   -1.6731   -0.9110 C   0  0  0  0  0  0  0  0  0  0  0  0
   -0.4734    0.5507   -1.8314 O   0  0  0  0  0  0  0  0  0  0  0  0
    3.8691    1.0114   -1.1932 H   0  0  0  0  0  0  0  0  0  0  0  0
    1.6601   -0.9104    1.5661 H   0  0  0  0  0  0  0  0  0  0  0  0
   -0.1723    1.5587    1.7425 H   0  0  0  0  0  0  0  0  0  0  0  0
   -0.1007    2.0833   -0.0608 H   0  0  0  0  0  0  0  0  0  0  0  0
   -1.6070   -0.3700    1.1322 H   0  0  0  0  0  0  0  0  0  0  0  0
   -2.2882    0.8794   -0.0879 H   0  0  0  0  0  0  0  0  0  0  0  0
   -0.4981   -2.0608   -1.9010 H   0  0  0  0  0  0  0  0  0  0  0  0
   -0.3426   -2.2688   -0.1167 H   0  0  0  0  0  0  0  0  0  0  0  0
   -1.9432   -1.7790   -0.9075 H   0  0  0  0  0  0  0  0  0  0  0  0
   -1.2728    1.1343   -1.8723 H   0  0  0  0  0  0  0  0  0  0  0  0
  1  2  3  0
  2  3  1  0
  3  4  1  0
  3  5  1  0
  5  6  1  0
  6  7  1  0
  7  8  1  0
  7  9  1  0
  7  3  1  0
  1 10  1  0
  4 11  1  0
  5 12  1  0
  5 13  1  0
  6 14  1  0
  6 15  1  0
  8 16  1  0
  8 17  1  0
  8 18  1  0
  9 19  1  0
M  END
