
     RDKit          3D

 17 18  0  0  0  0  0  0  0  0999 V2000
    2.7454    1.3799    1.2198 C   0  0  0  0  0  0  0  0  0  0  0  0
    2.0362    0.4379    0.9114 C   0  0  0  0  0  0  0  0  0  0  0  0
    1.1856   -0.6859    0.5686 C   0  0  0  0  0  0  0  0  0  0  0  0
    1.1091   -0.9439   -0.8282 O   0  0  0  0  0  0  0  0  0  0  0  0
   -0.0274   -1.6453   -0.4377 C   0  0  0  0  0  0  0  0  0  0  0  0
   -1.3224   -1.1596   -0.0765 C   0  0  0  0  0  0  0  0  0  0  0  0
   -0.2706   -0.2658    0.2929 C   0  0  0  0  0  0  0  0  0  0  0  0
   -0.1718    0.8791   -0.5237 O   0  0  0  0  0  0  0  0  0  0  0  0
   -1.3620    1.4306   -0.8906 C   0  0  0  0  0  0  0  0  0  0  0  0
    3.3475    2.2095    1.4926 H   0  0  0  0  0  0  0  0  0  0  0  0
    1.3067   -1.5467    1.2117 H   0  0  0  0  0  0  0  0  0  0  0  0
    0.3365   -2.4828    0.2376 H   0  0  0  0  0  0  0  0  0  0  0  0
   -2.0438   -1.0280   -0.9358 H   0  0  0  0  0  0  0  0  0  0  0  0
   -1.9016   -1.6106    0.7864 H   0  0  0  0  0  0  0  0  0  0  0  0
   -1.9866    1.7551   -0.0127 H   0  0  0  0  0  0  0  0  0  0  0  0
   -1.0897    2.4200   -1.3732 H   0  0  0  0  0  0  0  0  0  0  0  0
   -1.8911    0.8565   -1.6426 H   0  0  0  0  0  0  0  0  0  0  0  0
  1  2  3  0
  2  3  1  0
  3  4  1  0
  4  5  1  0
  5  6  1  0
  6  7  1  0
  7  8  1  0
  8  9  1  0
  7  3  1  0
  7  5  1  0
  1 10  1  0
  3 11  1  0
  5 12  1  0
  6 13  1  0
  6 14  1  0
  9 15  1  0
  9 16  1  0
  9 17  1  0
M  END
