
     RDKit          3D

 19 19  0  0  0  0  0  0  0  0999 V2000
    2.0702    2.2031   -1.1597 C   0  0  0  0  0  0  0  0  0  0  0  0
    1.8562    1.1936   -0.5325 C   0  0  0  0  0  0  0  0  0  0  0  0
    1.6089   -0.0469    0.2122 C   0  0  0  0  0  0  0  0  0  0  0  0
    0.3778   -0.6962   -0.4134 C   0  0  0  0  0  0  0  0  0  0  0  0
    0.1266   -1.9417    0.3316 C   0  0  0  0  0  0  0  0  0  0  0  0
    0.3919   -3.0042   -0.1679 O   0  0  0  0  0  0  0  0  0  0  0  0
   -0.7998    0.2444   -0.3977 C   0  0  0  0  0  0  0  0  0  0  0  0
   -1.3196    0.7648    0.8999 C   0  0  0  0  0  0  0  0  0  0  0  0
   -2.0923   -0.3305    0.1054 C   0  0  0  0  0  0  0  0  0  0  0  0
    2.2445    3.1096   -1.7130 H   0  0  0  0  0  0  0  0  0  0  0  0
    2.4711   -0.7134    0.0469 H   0  0  0  0  0  0  0  0  0  0  0  0
    1.3790    0.1595    1.2605 H   0  0  0  0  0  0  0  0  0  0  0  0
    0.6475   -0.8817   -1.4760 H   0  0  0  0  0  0  0  0  0  0  0  0
   -0.2908   -1.9031    1.3148 H   0  0  0  0  0  0  0  0  0  0  0  0
   -0.8213    0.9527   -1.2407 H   0  0  0  0  0  0  0  0  0  0  0  0
   -0.8970    0.4388    1.8556 H   0  0  0  0  0  0  0  0  0  0  0  0
   -1.8024    1.7764    0.8911 H   0  0  0  0  0  0  0  0  0  0  0  0
   -2.0993   -1.3409    0.5400 H   0  0  0  0  0  0  0  0  0  0  0  0
   -3.0512    0.0158   -0.3570 H   0  0  0  0  0  0  0  0  0  0  0  0
  1  2  3  0
  2  3  1  0
  3  4  1  0
  4  5  1  0
  5  6  2  0
  4  7  1  0
  7  8  1  0
  8  9  1  0
  9  7  1  0
  1 10  1  0
  3 11  1  0
  3 12  1  0
  4 13  1  0
  5 14  1  0
  7 15  1  0
  8 16  1  0
  8 17  1  0
  9 18  1  0
  9 19  1  0
M  END
