
     RDKit          3D

 19 18  0  0  0  0  0  0  0  0999 V2000
    3.0139   -3.2497    0.8249 C   0  0  0  0  0  0  0  0  0  0  0  0
    2.0202   -2.2198    0.6771 C   0  0  0  0  0  0  0  0  0  0  0  0
    1.3162   -1.4761    0.5559 C   0  0  0  0  0  0  0  0  0  0  0  0
    0.5141   -0.6106    0.4121 C   0  0  0  0  0  0  0  0  0  0  0  0
   -0.4203    0.3996    0.2189 C   0  0  0  0  0  0  0  0  0  0  0  0
    0.1056    1.6696    0.9280 C   0  0  0  0  0  0  0  0  0  0  0  0
   -1.8299    0.1539    0.5650 C   0  0  0  0  0  0  0  0  0  0  0  0
   -0.3732    0.9341   -1.2223 C   0  0  0  0  0  0  0  0  0  0  0  0
   -0.6506    0.0277   -2.1472 O   0  0  0  0  0  0  0  0  0  0  0  0
    3.8863   -4.1589    0.9554 H   0  0  0  0  0  0  0  0  0  0  0  0
    1.0080    2.0766    0.4931 H   0  0  0  0  0  0  0  0  0  0  0  0
   -0.6928    2.4535    0.7207 H   0  0  0  0  0  0  0  0  0  0  0  0
    0.1441    1.4649    2.0125 H   0  0  0  0  0  0  0  0  0  0  0  0
   -2.5087    0.2159   -0.3102 H   0  0  0  0  0  0  0  0  0  0  0  0
   -2.0240   -0.8842    0.9457 H   0  0  0  0  0  0  0  0  0  0  0  0
   -2.1056    0.9094    1.3578 H   0  0  0  0  0  0  0  0  0  0  0  0
    0.6586    1.3478   -1.4598 H   0  0  0  0  0  0  0  0  0  0  0  0
   -1.0495    1.8380   -1.2733 H   0  0  0  0  0  0  0  0  0  0  0  0
   -1.0126   -0.8918   -1.7388 H   0  0  0  0  0  0  0  0  0  0  0  0
  1  2  3  0
  2  3  1  0
  3  4  3  0
  4  5  1  0
  5  6  1  0
  5  7  1  0
  5  8  1  0
  8  9  1  0
  1 10  1  0
  6 11  1  0
  6 12  1  0
  6 13  1  0
  7 14  1  0
  7 15  1  0
  7 16  1  0
  8 17  1  0
  8 18  1  0
  9 19  1  0
M  END
