
     RDKit          3D

 17 16  0  0  0  0  0  0  0  0999 V2000
    2.9322   -0.3796   -0.2496 C   0  0  0  0  0  0  0  0  0  0  0  0
    1.7717   -0.4547    0.1665 C   0  0  0  0  0  0  0  0  0  0  0  0
    0.4090   -0.5212    0.6461 C   0  0  0  0  0  0  0  0  0  0  0  0
   -0.3074   -1.7152    0.1308 C   0  0  0  0  0  0  0  0  0  0  0  0
   -1.4507   -1.6890   -0.2701 O   0  0  0  0  0  0  0  0  0  0  0  0
   -0.3234    0.7597    0.3077 C   0  0  0  0  0  0  0  0  0  0  0  0
   -0.3737    1.0197   -1.1645 C   0  0  0  0  0  0  0  0  0  0  0  0
   -1.7209    0.6144    0.7998 C   0  0  0  0  0  0  0  0  0  0  0  0
   -1.8936    0.7582    1.9992 O   0  0  0  0  0  0  0  0  0  0  0  0
    3.9185   -0.3037   -0.6183 H   0  0  0  0  0  0  0  0  0  0  0  0
    0.4037   -0.6033    1.7564 H   0  0  0  0  0  0  0  0  0  0  0  0
    0.2311   -2.6515    0.1183 H   0  0  0  0  0  0  0  0  0  0  0  0
    0.1395    1.5861    0.8827 H   0  0  0  0  0  0  0  0  0  0  0  0
    0.4600    1.6934   -1.4952 H   0  0  0  0  0  0  0  0  0  0  0  0
   -0.2648    0.0620   -1.7408 H   0  0  0  0  0  0  0  0  0  0  0  0
   -1.3592    1.4313   -1.4360 H   0  0  0  0  0  0  0  0  0  0  0  0
   -2.5722    0.3935    0.1672 H   0  0  0  0  0  0  0  0  0  0  0  0
  1  2  3  0
  2  3  1  0
  3  4  1  0
  4  5  2  0
  3  6  1  0
  6  7  1  0
  6  8  1  0
  8  9  2  0
  1 10  1  0
  3 11  1  0
  4 12  1  0
  6 13  1  0
  7 14  1  0
  7 15  1  0
  7 16  1  0
  8 17  1  0
M  END
