
     RDKit          3D

 15 14  0  0  0  0  0  0  0  0999 V2000
    3.6872    0.1292   -1.4614 C   0  0  0  0  0  0  0  0  0  0  0  0
    2.6507   -0.2081   -0.9362 C   0  0  0  0  0  0  0  0  0  0  0  0
    1.4265   -0.5873   -0.2999 C   0  0  0  0  0  0  0  0  0  0  0  0
    1.2718   -1.7622    0.1054 O   0  0  0  0  0  0  0  0  0  0  0  0
    0.3370    0.3779   -0.1090 C   0  0  0  0  0  0  0  0  0  0  0  0
   -0.8428   -0.2438    0.5782 C   0  0  0  0  0  0  0  0  0  0  0  0
   -1.8601    0.7360    0.7337 O   0  0  0  0  0  0  0  0  0  0  0  0
   -3.0597    0.4003    1.3471 C   0  0  0  0  0  0  0  0  0  0  0  0
   -3.2556   -0.7739    1.7699 O   0  0  0  0  0  0  0  0  0  0  0  0
    4.6017    0.4413   -1.9290 H   0  0  0  0  0  0  0  0  0  0  0  0
   -0.0263    0.8222   -1.0615 H   0  0  0  0  0  0  0  0  0  0  0  0
    0.6865    1.2425    0.5077 H   0  0  0  0  0  0  0  0  0  0  0  0
   -0.5190   -0.5804    1.5931 H   0  0  0  0  0  0  0  0  0  0  0  0
   -1.2303   -1.1195    0.0416 H   0  0  0  0  0  0  0  0  0  0  0  0
   -3.8675    1.1259    1.4856 H   0  0  0  0  0  0  0  0  0  0  0  0
  1  2  3  0
  2  3  1  0
  3  4  2  0
  3  5  1  0
  5  6  1  0
  6  7  1  0
  7  8  1  0
  8  9  2  0
  1 10  1  0
  5 11  1  0
  5 12  1  0
  6 13  1  0
  6 14  1  0
  8 15  1  0
M  END
