
     RDKit          3D

 19 19  0  0  0  0  0  0  0  0999 V2000
    4.8894   -0.6408    0.2620 C   0  0  0  0  0  0  0  0  0  0  0  0
    3.7237   -0.5310   -0.0283 C   0  0  0  0  0  0  0  0  0  0  0  0
    2.3386   -0.4251   -0.3775 C   0  0  0  0  0  0  0  0  0  0  0  0
    1.1622   -0.3249   -0.6551 C   0  0  0  0  0  0  0  0  0  0  0  0
   -0.2504   -0.1961   -1.0068 C   0  0  0  0  0  0  0  0  0  0  0  0
   -1.1474   -1.2276   -0.4006 C   0  0  0  0  0  0  0  0  0  0  0  0
   -1.1575    0.2380    0.0813 C   0  0  0  0  0  0  0  0  0  0  0  0
   -2.3389    1.0802   -0.3590 C   0  0  0  0  0  0  0  0  0  0  0  0
   -0.6095    0.4991    1.4676 C   0  0  0  0  0  0  0  0  0  0  0  0
    5.9110   -0.7295    0.5337 H   0  0  0  0  0  0  0  0  0  0  0  0
   -0.4722    0.1482   -2.0526 H   0  0  0  0  0  0  0  0  0  0  0  0
   -2.0260   -1.5226   -1.0451 H   0  0  0  0  0  0  0  0  0  0  0  0
   -0.7468   -1.9942    0.2775 H   0  0  0  0  0  0  0  0  0  0  0  0
   -1.9538    1.8384   -1.0964 H   0  0  0  0  0  0  0  0  0  0  0  0
   -3.1377    0.4818   -0.8255 H   0  0  0  0  0  0  0  0  0  0  0  0
   -2.7159    1.6741    0.5196 H   0  0  0  0  0  0  0  0  0  0  0  0
   -0.0399    1.4529    1.4433 H   0  0  0  0  0  0  0  0  0  0  0  0
    0.0373   -0.3408    1.7796 H   0  0  0  0  0  0  0  0  0  0  0  0
   -1.4661    0.5198    2.1587 H   0  0  0  0  0  0  0  0  0  0  0  0
  1  2  3  0
  2  3  1  0
  3  4  3  0
  4  5  1  0
  5  6  1  0
  6  7  1  0
  7  8  1  0
  7  9  1  0
  7  5  1  0
  1 10  1  0
  5 11  1  0
  6 12  1  0
  6 13  1  0
  8 14  1  0
  8 15  1  0
  8 16  1  0
  9 17  1  0
  9 18  1  0
  9 19  1  0
M  END
