
     RDKit          3D

 21 21  0  0  0  0  0  0  0  0999 V2000
    2.5374   -1.8878    1.9498 C   0  0  0  0  0  0  0  0  0  0  0  0
    1.7854   -1.4791    1.0868 C   0  0  0  0  0  0  0  0  0  0  0  0
    0.8880   -0.9864    0.0276 C   0  0  0  0  0  0  0  0  0  0  0  0
   -0.1208   -1.8999   -0.2511 O   0  0  0  0  0  0  0  0  0  0  0  0
   -1.0230   -1.1184   -0.9799 C   0  0  0  0  0  0  0  0  0  0  0  0
   -1.2388    0.0390    0.0005 C   0  0  0  0  0  0  0  0  0  0  0  0
   -1.7108    1.2158   -0.8009 C   0  0  0  0  0  0  0  0  0  0  0  0
    0.1372    0.2221    0.5557 C   0  0  0  0  0  0  0  0  0  0  0  0
    0.8044    1.4962    0.1298 C   0  0  0  0  0  0  0  0  0  0  0  0
    3.2064   -2.2524    2.6936 H   0  0  0  0  0  0  0  0  0  0  0  0
    1.5135   -0.7613   -0.8430 H   0  0  0  0  0  0  0  0  0  0  0  0
   -0.4752   -0.6965   -1.8310 H   0  0  0  0  0  0  0  0  0  0  0  0
   -1.9461   -1.6371   -1.2268 H   0  0  0  0  0  0  0  0  0  0  0  0
   -1.9725   -0.3144    0.7485 H   0  0  0  0  0  0  0  0  0  0  0  0
   -2.7979    1.1276   -0.9866 H   0  0  0  0  0  0  0  0  0  0  0  0
   -1.4978    2.1563   -0.2618 H   0  0  0  0  0  0  0  0  0  0  0  0
   -1.2211    1.1650   -1.7994 H   0  0  0  0  0  0  0  0  0  0  0  0
    0.0938    0.1497    1.6566 H   0  0  0  0  0  0  0  0  0  0  0  0
    1.9061    1.3089    0.0140 H   0  0  0  0  0  0  0  0  0  0  0  0
    0.6810    2.2524    0.9315 H   0  0  0  0  0  0  0  0  0  0  0  0
    0.4508    1.9005   -0.8139 H   0  0  0  0  0  0  0  0  0  0  0  0
  1  2  3  0
  2  3  1  0
  3  4  1  0
  4  5  1  0
  5  6  1  0
  6  7  1  0
  6  8  1  0
  8  9  1  0
  8  3  1  0
  1 10  1  0
  3 11  1  0
  5 12  1  0
  5 13  1  0
  6 14  1  0
  7 15  1  0
  7 16  1  0
  7 17  1  0
  8 18  1  0
  9 19  1  0
  9 20  1  0
  9 21  1  0
M  END
