
     RDKit          3D

 19 19  0  0  0  0  0  0  0  0999 V2000
    2.9794    0.8038    0.9296 C   0  0  0  0  0  0  0  0  0  0  0  0
    2.0663    0.0696    0.6309 C   0  0  0  0  0  0  0  0  0  0  0  0
    0.9558   -0.8292    0.2680 C   0  0  0  0  0  0  0  0  0  0  0  0
    0.6043   -0.5472   -1.1937 C   0  0  0  0  0  0  0  0  0  0  0  0
   -0.1804    0.7141   -1.2337 C   0  0  0  0  0  0  0  0  0  0  0  0
   -1.3757    0.8987   -0.6877 C   0  0  0  0  0  0  0  0  0  0  0  0
   -2.2243   -0.0786    0.0873 C   0  0  0  0  0  0  0  0  0  0  0  0
   -1.3800   -1.0984    0.5549 O   0  0  0  0  0  0  0  0  0  0  0  0
   -0.2453   -0.5346    1.1403 C   0  0  0  0  0  0  0  0  0  0  0  0
    3.7920    1.4393    1.1937 H   0  0  0  0  0  0  0  0  0  0  0  0
    1.2823   -1.8599    0.4236 H   0  0  0  0  0  0  0  0  0  0  0  0
   -0.0047   -1.3967   -1.5575 H   0  0  0  0  0  0  0  0  0  0  0  0
    1.5384   -0.3926   -1.7278 H   0  0  0  0  0  0  0  0  0  0  0  0
    0.2430    1.5672   -1.7482 H   0  0  0  0  0  0  0  0  0  0  0  0
   -1.8302    1.8752   -0.7970 H   0  0  0  0  0  0  0  0  0  0  0  0
   -2.7879    0.4107    0.8905 H   0  0  0  0  0  0  0  0  0  0  0  0
   -2.9587   -0.5011   -0.6405 H   0  0  0  0  0  0  0  0  0  0  0  0
   -0.3546    0.5364    1.3454 H   0  0  0  0  0  0  0  0  0  0  0  0
   -0.1197   -1.0769    2.1219 H   0  0  0  0  0  0  0  0  0  0  0  0
  1  2  3  0
  2  3  1  0
  3  4  1  0
  4  5  1  0
  5  6  2  0
  6  7  1  0
  7  8  1  0
  8  9  1  0
  9  3  1  0
  1 10  1  0
  3 11  1  0
  4 12  1  0
  4 13  1  0
  5 14  1  0
  6 15  1  0
  7 16  1  0
  7 17  1  0
  9 18  1  0
  9 19  1  0
M  END
