
     RDKit          3D

 17 18  0  0  0  0  0  0  0  0999 V2000
    3.1050   -0.3839   -0.2158 C   0  0  0  0  0  0  0  0  0  0  0  0
    1.9942    0.0438    0.0069 C   0  0  0  0  0  0  0  0  0  0  0  0
    0.6563    0.5740    0.2712 C   0  0  0  0  0  0  0  0  0  0  0  0
   -0.2813   -0.5398    0.7456 C   0  0  0  0  0  0  0  0  0  0  0  0
   -0.5091   -0.8532   -0.7320 C   0  0  0  0  0  0  0  0  0  0  0  0
   -0.1887    0.6243   -0.9787 C   0  0  0  0  0  0  0  0  0  0  0  0
   -1.3371    1.3302   -0.6929 O   0  0  0  0  0  0  0  0  0  0  0  0
   -1.7160    1.2351    0.6189 C   0  0  0  0  0  0  0  0  0  0  0  0
   -1.4482    0.0274    1.2188 O   0  0  0  0  0  0  0  0  0  0  0  0
    4.0749   -0.7757   -0.4063 H   0  0  0  0  0  0  0  0  0  0  0  0
    0.6387    1.4740    0.9044 H   0  0  0  0  0  0  0  0  0  0  0  0
    0.1866   -1.3199    1.3313 H   0  0  0  0  0  0  0  0  0  0  0  0
   -1.5833   -1.0651   -0.9467 H   0  0  0  0  0  0  0  0  0  0  0  0
    0.2175   -1.5499   -1.1748 H   0  0  0  0  0  0  0  0  0  0  0  0
    0.3149    0.8473   -1.9090 H   0  0  0  0  0  0  0  0  0  0  0  0
   -2.8347    1.3799    0.6907 H   0  0  0  0  0  0  0  0  0  0  0  0
   -1.2894    2.0323    1.2684 H   0  0  0  0  0  0  0  0  0  0  0  0
  1  2  3  0
  2  3  1  0
  3  4  1  0
  4  5  1  0
  5  6  1  0
  6  7  1  0
  7  8  1  0
  8  9  1  0
  6  3  1  0
  9  4  1  0
  1 10  1  0
  3 11  1  0
  4 12  1  0
  5 13  1  0
  5 14  1  0
  6 15  1  0
  8 16  1  0
  8 17  1  0
M  END
