
     RDKit          3D

 19 20  0  0  0  0  0  0  0  0999 V2000
   -3.3440    0.3260    1.2349 C   0  0  0  0  0  0  0  0  0  0  0  0
   -2.2448    0.2097    0.7610 C   0  0  0  0  0  0  0  0  0  0  0  0
   -0.9729    0.0726    0.2387 C   0  0  0  0  0  0  0  0  0  0  0  0
    0.2348    0.1722    1.0644 C   0  0  0  0  0  0  0  0  0  0  0  0
    1.2233   -0.0151    0.1518 C   0  0  0  0  0  0  0  0  0  0  0  0
    2.6937   -0.0279    0.3695 C   0  0  0  0  0  0  0  0  0  0  0  0
    0.4908   -0.2014   -1.0984 C   0  0  0  0  0  0  0  0  0  0  0  0
   -0.6472   -1.1299   -0.6484 C   0  0  0  0  0  0  0  0  0  0  0  0
   -0.5756    0.9029   -0.9889 C   0  0  0  0  0  0  0  0  0  0  0  0
   -4.3304    0.4486    1.6555 H   0  0  0  0  0  0  0  0  0  0  0  0
    0.3513    0.3481    2.1267 H   0  0  0  0  0  0  0  0  0  0  0  0
    3.1623   -0.4412   -0.5246 H   0  0  0  0  0  0  0  0  0  0  0  0
    2.9792   -0.6897    1.2217 H   0  0  0  0  0  0  0  0  0  0  0  0
    3.1036    0.9869    0.5298 H   0  0  0  0  0  0  0  0  0  0  0  0
    0.9470   -0.3696   -2.0216 H   0  0  0  0  0  0  0  0  0  0  0  0
   -0.2916   -2.0163   -0.1000 H   0  0  0  0  0  0  0  0  0  0  0  0
   -1.4127   -1.2976   -1.4183 H   0  0  0  0  0  0  0  0  0  0  0  0
   -0.0728    1.8409   -0.7484 H   0  0  0  0  0  0  0  0  0  0  0  0
   -1.2940    0.8807   -1.8057 H   0  0  0  0  0  0  0  0  0  0  0  0
  1  2  3  0
  2  3  1  0
  3  4  1  0
  4  5  2  0
  5  6  1  0
  5  7  1  0
  7  8  1  0
  7  9  1  0
  8  3  1  0
  9  3  1  0
  1 10  1  0
  4 11  1  0
  6 12  1  0
  6 13  1  0
  6 14  1  0
  7 15  1  0
  8 16  1  0
  8 17  1  0
  9 18  1  0
  9 19  1  0
M  END
