
     RDKit          3D

 19 18  0  0  0  0  0  0  0  0999 V2000
    2.8227    0.9246    0.2740 C   0  0  0  0  0  0  0  0  0  0  0  0
    1.4220    0.8862    0.2923 C   0  0  0  0  0  0  0  0  0  0  0  0
    0.0390    0.8719    0.3055 C   0  0  0  0  0  0  0  0  0  0  0  0
   -0.6120    1.8971    1.1049 C   0  0  0  0  0  0  0  0  0  0  0  0
   -0.5530   -0.3596   -0.2232 C   0  0  0  0  0  0  0  0  0  0  0  0
   -0.2822   -0.6264   -1.7293 C   0  0  0  0  0  0  0  0  0  0  0  0
    0.2107   -1.4744    0.3191 O   0  0  0  0  0  0  0  0  0  0  0  0
   -0.5057   -2.6192    0.7456 C   0  0  0  0  0  0  0  0  0  0  0  0
   -1.7833   -2.5854    0.5934 O   0  0  0  0  0  0  0  0  0  0  0  0
    3.8508    0.9403    0.2679 H   0  0  0  0  0  0  0  0  0  0  0  0
   -0.0326    1.5186   -0.8842 H   0  0  0  0  0  0  0  0  0  0  0  0
   -0.4753    1.7835    2.2109 H   0  0  0  0  0  0  0  0  0  0  0  0
   -0.0610    2.9331    0.8505 H   0  0  0  0  0  0  0  0  0  0  0  0
   -1.6749    2.1395    0.8325 H   0  0  0  0  0  0  0  0  0  0  0  0
   -1.5917   -0.5027   -0.0306 H   0  0  0  0  0  0  0  0  0  0  0  0
   -1.0913   -0.2029   -2.3272 H   0  0  0  0  0  0  0  0  0  0  0  0
   -0.3644   -1.7624   -1.8778 H   0  0  0  0  0  0  0  0  0  0  0  0
    0.7102   -0.3406   -2.0523 H   0  0  0  0  0  0  0  0  0  0  0  0
   -0.0279   -3.4212    1.1666 H   0  0  0  0  0  0  0  0  0  0  0  0
  1  2  3  0
  2  3  1  0
  3  4  1  0
  3  5  1  0
  5  6  1  0
  5  7  1  0
  7  8  1  0
  8  9  2  0
  1 10  1  0
  3 11  1  0
  4 12  1  0
  4 13  1  0
  4 14  1  0
  5 15  1  0
  6 16  1  0
  6 17  1  0
  6 18  1  0
  8 19  1  0
M  END
