
     RDKit          3D

 19 19  0  0  0  0  0  0  0  0999 V2000
    2.9417    0.7979   -1.1755 C   0  0  0  0  0  0  0  0  0  0  0  0
    1.9022    0.0117   -1.2600 C   0  0  0  0  0  0  0  0  0  0  0  0
    0.8294   -0.8239   -1.3477 C   0  0  0  0  0  0  0  0  0  0  0  0
   -0.1681   -0.6161   -0.2052 C   0  0  0  0  0  0  0  0  0  0  0  0
   -0.5269   -1.6223    0.6348 C   0  0  0  0  0  0  0  0  0  0  0  0
   -1.4852   -1.0862    1.6226 C   0  0  0  0  0  0  0  0  0  0  0  0
   -1.1670    0.2949    1.6377 O   0  0  0  0  0  0  0  0  0  0  0  0
   -0.9077    0.5474    0.2578 C   0  0  0  0  0  0  0  0  0  0  0  0
   -0.2804    1.8887    0.0489 C   0  0  0  0  0  0  0  0  0  0  0  0
    3.8311    1.4659   -1.1226 H   0  0  0  0  0  0  0  0  0  0  0  0
    1.0545   -1.9284   -1.3951 H   0  0  0  0  0  0  0  0  0  0  0  0
    0.1625   -0.6188   -2.2499 H   0  0  0  0  0  0  0  0  0  0  0  0
   -0.1561   -2.6600    0.5914 H   0  0  0  0  0  0  0  0  0  0  0  0
   -2.5415   -1.3038    1.4752 H   0  0  0  0  0  0  0  0  0  0  0  0
   -1.1043   -1.4822    2.6231 H   0  0  0  0  0  0  0  0  0  0  0  0
   -1.9315    0.5779   -0.2269 H   0  0  0  0  0  0  0  0  0  0  0  0
   -0.5038    2.1778   -0.9931 H   0  0  0  0  0  0  0  0  0  0  0  0
    0.8027    1.8020    0.2899 H   0  0  0  0  0  0  0  0  0  0  0  0
   -0.7517    2.5774    0.7944 H   0  0  0  0  0  0  0  0  0  0  0  0
  1  2  3  0
  2  3  1  0
  3  4  1  0
  4  5  2  0
  5  6  1  0
  6  7  1  0
  7  8  1  0
  8  9  1  0
  8  4  1  0
  1 10  1  0
  3 11  1  0
  3 12  1  0
  5 13  1  0
  6 14  1  0
  6 15  1  0
  8 16  1  0
  9 17  1  0
  9 18  1  0
  9 19  1  0
M  END
