
     RDKit          3D

 19 19  0  0  0  0  0  0  0  0999 V2000
    2.7517   -0.9050   -1.3154 C   0  0  0  0  0  0  0  0  0  0  0  0
    2.0687   -0.1925   -0.6016 C   0  0  0  0  0  0  0  0  0  0  0  0
    1.2306    0.6571    0.2477 C   0  0  0  0  0  0  0  0  0  0  0  0
    0.9017    1.8498   -0.3793 O   0  0  0  0  0  0  0  0  0  0  0  0
   -0.0257   -0.1244    0.5731 C   0  0  0  0  0  0  0  0  0  0  0  0
   -0.8766    0.7507    1.4411 C   0  0  0  0  0  0  0  0  0  0  0  0
   -0.7691   -0.5544   -0.6339 C   0  0  0  0  0  0  0  0  0  0  0  0
   -1.9950   -1.3118   -0.4967 C   0  0  0  0  0  0  0  0  0  0  0  0
   -2.1147    0.0665   -0.6750 O   0  0  0  0  0  0  0  0  0  0  0  0
    3.3522   -1.5331   -1.9212 H   0  0  0  0  0  0  0  0  0  0  0  0
    1.7441    0.8321    1.2337 H   0  0  0  0  0  0  0  0  0  0  0  0
    1.6680    2.4977   -0.2619 H   0  0  0  0  0  0  0  0  0  0  0  0
    0.3278   -1.0414    1.1121 H   0  0  0  0  0  0  0  0  0  0  0  0
   -0.7737    1.8037    1.0581 H   0  0  0  0  0  0  0  0  0  0  0  0
   -0.4879    0.6950    2.4728 H   0  0  0  0  0  0  0  0  0  0  0  0
   -1.9587    0.5227    1.3658 H   0  0  0  0  0  0  0  0  0  0  0  0
   -0.3315   -0.4237   -1.6523 H   0  0  0  0  0  0  0  0  0  0  0  0
   -2.2998   -1.6271    0.5319 H   0  0  0  0  0  0  0  0  0  0  0  0
   -2.4121   -1.9617   -1.2841 H   0  0  0  0  0  0  0  0  0  0  0  0
  1  2  3  0
  2  3  1  0
  3  4  1  0
  3  5  1  0
  5  6  1  0
  5  7  1  0
  7  8  1  0
  8  9  1  0
  9  7  1  0
  1 10  1  0
  3 11  1  0
  4 12  1  0
  5 13  1  0
  6 14  1  0
  6 15  1  0
  6 16  1  0
  7 17  1  0
  8 18  1  0
  8 19  1  0
M  END
