
     RDKit          3D

 21 22  0  0  0  0  0  0  0  0999 V2000
    3.3382   -1.6908   -0.0522 C   0  0  0  0  0  0  0  0  0  0  0  0
    2.1435   -1.6749   -0.3978 C   0  0  0  0  0  0  0  0  0  0  0  0
    0.7856   -1.6810   -0.7853 C   0  0  0  0  0  0  0  0  0  0  0  0
   -0.2367   -1.9115    0.3486 C   0  0  0  0  0  0  0  0  0  0  0  0
    0.2238   -0.5312    0.7373 C   0  0  0  0  0  0  0  0  0  0  0  0
   -0.0086    0.7161    0.0751 C   0  0  0  0  0  0  0  0  0  0  0  0
   -1.3163    1.4056    0.5064 C   0  0  0  0  0  0  0  0  0  0  0  0
   -1.5591    2.7018   -0.1796 C   0  0  0  0  0  0  0  0  0  0  0  0
    0.0370   -0.3764   -0.8301 C   0  0  0  0  0  0  0  0  0  0  0  0
    4.3478   -1.7139    0.2246 H   0  0  0  0  0  0  0  0  0  0  0  0
    0.6149   -2.3185   -1.6611 H   0  0  0  0  0  0  0  0  0  0  0  0
    0.0364   -2.6719    1.0737 H   0  0  0  0  0  0  0  0  0  0  0  0
   -1.2278   -2.0032   -0.0978 H   0  0  0  0  0  0  0  0  0  0  0  0
    1.2912   -0.6205    1.0823 H   0  0  0  0  0  0  0  0  0  0  0  0
    0.7923    1.5026   -0.0682 H   0  0  0  0  0  0  0  0  0  0  0  0
   -1.2642    1.5625    1.6131 H   0  0  0  0  0  0  0  0  0  0  0  0
   -2.1587    0.7133    0.2694 H   0  0  0  0  0  0  0  0  0  0  0  0
   -0.6125    3.0916   -0.6094 H   0  0  0  0  0  0  0  0  0  0  0  0
   -2.2797    2.6335   -1.0220 H   0  0  0  0  0  0  0  0  0  0  0  0
   -1.9287    3.5064    0.5173 H   0  0  0  0  0  0  0  0  0  0  0  0
   -1.0183   -0.6396   -1.1802 H   0  0  0  0  0  0  0  0  0  0  0  0
  1  2  3  0
  2  3  1  0
  3  4  1  0
  4  5  1  0
  5  6  1  0
  6  7  1  0
  7  8  1  0
  6  9  1  0
  9  3  1  0
  9  5  1  0
  1 10  1  0
  3 11  1  0
  4 12  1  0
  4 13  1  0
  5 14  1  0
  6 15  1  0
  7 16  1  0
  7 17  1  0
  8 18  1  0
  8 19  1  0
  8 20  1  0
  9 21  1  0
M  END
