
     RDKit          3D

 16 16  0  0  0  0  0  0  0  0999 V2000
    2.8846    0.6873    0.4106 C   0  0  0  0  0  0  0  0  0  0  0  0
    1.7217    0.5822    0.1089 C   0  0  0  0  0  0  0  0  0  0  0  0
    0.3197    0.4608   -0.2798 C   0  0  0  0  0  0  0  0  0  0  0  0
   -0.2813    1.6605   -0.6315 O   0  0  0  0  0  0  0  0  0  0  0  0
   -0.5368   -0.5267    0.5466 C   0  0  0  0  0  0  0  0  0  0  0  0
   -1.8231    0.0384    1.0449 C   0  0  0  0  0  0  0  0  0  0  0  0
   -0.2278   -0.7603   -0.8609 C   0  0  0  0  0  0  0  0  0  0  0  0
    0.5881   -1.8365   -1.1933 O   0  0  0  0  0  0  0  0  0  0  0  0
    3.9136    0.7957    0.6674 H   0  0  0  0  0  0  0  0  0  0  0  0
   -0.5747    1.6006   -1.5872 H   0  0  0  0  0  0  0  0  0  0  0  0
    0.0278   -1.1458    1.2905 H   0  0  0  0  0  0  0  0  0  0  0  0
   -1.6046    0.5721    2.0128 H   0  0  0  0  0  0  0  0  0  0  0  0
   -2.1911    0.7703    0.3011 H   0  0  0  0  0  0  0  0  0  0  0  0
   -2.6236   -0.7297    1.1929 H   0  0  0  0  0  0  0  0  0  0  0  0
   -1.0898   -0.6514   -1.5825 H   0  0  0  0  0  0  0  0  0  0  0  0
    1.4972   -1.5176   -1.4404 H   0  0  0  0  0  0  0  0  0  0  0  0
  1  2  3  0
  2  3  1  0
  3  4  1  0
  3  5  1  0
  5  6  1  0
  5  7  1  0
  7  8  1  0
  7  3  1  0
  1  9  1  0
  4 10  1  0
  5 11  1  0
  6 12  1  0
  6 13  1  0
  6 14  1  0
  7 15  1  0
  8 16  1  0
M  END
