
     RDKit          3D

 19 18  0  0  0  0  0  0  0  0999 V2000
    4.3383   -2.5050   -0.5276 C   0  0  0  0  0  0  0  0  0  0  0  0
    3.6075   -1.8755   -0.2517 C   0  0  0  0  0  0  0  0  0  0  0  0
    2.2646   -0.7197    0.2595 C   0  0  0  0  0  0  0  0  0  0  0  0
    1.6630   -0.2156    0.4919 C   0  0  0  0  0  0  0  0  0  0  0  0
    0.8564    0.4682    0.7872 C   0  0  0  0  0  0  0  0  0  0  0  0
   -0.7508    0.2997    0.4909 C   0  0  0  0  0  0  0  0  0  0  0  0
   -1.3126    1.3185    1.3107 O   0  0  0  0  0  0  0  0  0  0  0  0
   -1.2778    0.4036   -0.8751 C   0  0  0  0  0  0  0  0  0  0  0  0
   -2.8410    0.2308   -0.6111 C   0  0  0  0  0  0  0  0  0  0  0  0
    5.1784   -3.2275   -0.8235 H   0  0  0  0  0  0  0  0  0  0  0  0
    0.7718    1.5605    1.3810 H   0  0  0  0  0  0  0  0  0  0  0  0
    0.9767    1.4805   -0.2504 H   0  0  0  0  0  0  0  0  0  0  0  0
   -0.9907   -0.6448    0.8879 H   0  0  0  0  0  0  0  0  0  0  0  0
   -0.7833    1.1232    2.1852 H   0  0  0  0  0  0  0  0  0  0  0  0
   -0.9478   -0.4783   -1.4988 H   0  0  0  0  0  0  0  0  0  0  0  0
   -1.0900    1.3530   -1.4185 H   0  0  0  0  0  0  0  0  0  0  0  0
   -3.2675   -0.7323   -0.7340 H   0  0  0  0  0  0  0  0  0  0  0  0
   -3.0197    0.5067    0.4471 H   0  0  0  0  0  0  0  0  0  0  0  0
   -3.3756    1.0345   -1.2508 H   0  0  0  0  0  0  0  0  0  0  0  0
  1  2  3  0
  2  3  1  0
  3  4  3  0
  4  5  1  0
  5  6  1  0
  6  7  1  0
  6  8  1  0
  8  9  1  0
  1 10  1  0
  5 11  1  0
  5 12  1  0
  6 13  1  0
  7 14  1  0
  8 15  1  0
  8 16  1  0
  9 17  1  0
  9 18  1  0
  9 19  1  0
M  END
