
     RDKit          3D

 17 17  0  0  0  0  0  0  0  0999 V2000
    0.5058    2.9847    0.7568 C   0  0  0  0  0  0  0  0  0  0  0  0
    0.2594    1.6439    0.5688 C   0  0  0  0  0  0  0  0  0  0  0  0
    0.0174    0.2963    0.3558 C   0  0  0  0  0  0  0  0  0  0  0  0
    1.0615   -0.6993    0.8928 C   0  0  0  0  0  0  0  0  0  0  0  0
    2.3082   -0.5454    0.2712 O   0  0  0  0  0  0  0  0  0  0  0  0
   -1.3782   -0.2177    0.1711 C   0  0  0  0  0  0  0  0  0  0  0  0
   -1.6229   -1.5429    0.6105 O   0  0  0  0  0  0  0  0  0  0  0  0
   -0.4758   -0.0680   -1.0181 C   0  0  0  0  0  0  0  0  0  0  0  0
   -0.0553   -1.2624   -1.5796 O   0  0  0  0  0  0  0  0  0  0  0  0
    0.6621    3.9141    0.8789 H   0  0  0  0  0  0  0  0  0  0  0  0
    1.1547   -0.4180    1.9777 H   0  0  0  0  0  0  0  0  0  0  0  0
    0.7262   -1.7155    0.7581 H   0  0  0  0  0  0  0  0  0  0  0  0
    2.1347   -0.3231   -0.6764 H   0  0  0  0  0  0  0  0  0  0  0  0
   -2.2664    0.4387    0.3029 H   0  0  0  0  0  0  0  0  0  0  0  0
   -2.2021   -2.0209    0.0261 H   0  0  0  0  0  0  0  0  0  0  0  0
   -0.6778    0.7407   -1.7056 H   0  0  0  0  0  0  0  0  0  0  0  0
   -0.1516   -1.2051   -2.5907 H   0  0  0  0  0  0  0  0  0  0  0  0
  1  2  3  0
  2  3  1  0
  3  4  1  0
  4  5  1  0
  3  6  1  0
  6  7  1  0
  6  8  1  0
  8  9  1  0
  8  3  1  0
  1 10  1  0
  4 11  1  0
  4 12  1  0
  5 13  1  0
  6 14  1  0
  7 15  1  0
  8 16  1  0
  9 17  1  0
M  END
