
     RDKit          3D

 19 20  0  0  0  0  0  0  0  0999 V2000
    3.0538   -0.6249   -0.9304 C   0  0  0  0  0  0  0  0  0  0  0  0
    2.0531   -0.6215   -0.2316 C   0  0  0  0  0  0  0  0  0  0  0  0
    0.8425   -0.5956    0.5978 C   0  0  0  0  0  0  0  0  0  0  0  0
    0.4513    0.8239    1.0288 C   0  0  0  0  0  0  0  0  0  0  0  0
   -0.5458    0.8448   -0.0666 C   0  0  0  0  0  0  0  0  0  0  0  0
   -0.7646    1.7387   -1.0695 C   0  0  0  0  0  0  0  0  0  0  0  0
   -1.7569    1.4716    0.0329 O   0  0  0  0  0  0  0  0  0  0  0  0
   -0.4436   -0.6482   -0.2215 C   0  0  0  0  0  0  0  0  0  0  0  0
   -1.5631   -1.3972    0.4523 C   0  0  0  0  0  0  0  0  0  0  0  0
    3.9243   -0.6097   -1.5340 H   0  0  0  0  0  0  0  0  0  0  0  0
    0.8947   -1.3233    1.4075 H   0  0  0  0  0  0  0  0  0  0  0  0
   -0.0046    0.8066    2.0512 H   0  0  0  0  0  0  0  0  0  0  0  0
    1.3138    1.5091    0.9563 H   0  0  0  0  0  0  0  0  0  0  0  0
   -1.1910    1.4823   -2.0607 H   0  0  0  0  0  0  0  0  0  0  0  0
   -0.4541    2.8168   -1.0273 H   0  0  0  0  0  0  0  0  0  0  0  0
   -0.2005   -1.0054   -1.2460 H   0  0  0  0  0  0  0  0  0  0  0  0
   -1.9430   -2.1866   -0.2275 H   0  0  0  0  0  0  0  0  0  0  0  0
   -1.2606   -1.7976    1.4404 H   0  0  0  0  0  0  0  0  0  0  0  0
   -2.4057   -0.6839    0.6481 H   0  0  0  0  0  0  0  0  0  0  0  0
  1  2  3  0
  2  3  1  0
  3  4  1  0
  4  5  1  0
  5  6  1  0
  6  7  1  0
  5  8  1  0
  8  9  1  0
  8  3  1  0
  7  5  1  0
  1 10  1  0
  3 11  1  0
  4 12  1  0
  4 13  1  0
  6 14  1  0
  6 15  1  0
  8 16  1  0
  9 17  1  0
  9 18  1  0
  9 19  1  0
M  END
