
     RDKit          3D

 19 19  0  0  0  0  0  0  0  0999 V2000
    3.0574   -1.0967   -0.3244 C   0  0  0  0  0  0  0  0  0  0  0  0
    1.9008   -0.7781   -0.4604 C   0  0  0  0  0  0  0  0  0  0  0  0
    0.4819   -0.3852   -0.6225 C   0  0  0  0  0  0  0  0  0  0  0  0
   -0.2670   -1.5123   -0.6061 O   0  0  0  0  0  0  0  0  0  0  0  0
   -1.3794   -1.5228    0.1658 C   0  0  0  0  0  0  0  0  0  0  0  0
   -1.9957   -0.1848    0.4270 C   0  0  0  0  0  0  0  0  0  0  0  0
   -1.1309    0.8009    0.7444 O   0  0  0  0  0  0  0  0  0  0  0  0
    0.1612    0.6587    0.3676 C   0  0  0  0  0  0  0  0  0  0  0  0
    0.6106    2.0404   -0.1320 C   0  0  0  0  0  0  0  0  0  0  0  0
    4.0693   -1.3873   -0.2118 H   0  0  0  0  0  0  0  0  0  0  0  0
    0.4323    0.0472   -1.6654 H   0  0  0  0  0  0  0  0  0  0  0  0
   -1.2433   -2.0466    1.1495 H   0  0  0  0  0  0  0  0  0  0  0  0
   -2.1656   -2.1303   -0.3690 H   0  0  0  0  0  0  0  0  0  0  0  0
   -2.7237   -0.3187    1.2719 H   0  0  0  0  0  0  0  0  0  0  0  0
   -2.6073    0.1337   -0.4580 H   0  0  0  0  0  0  0  0  0  0  0  0
    0.7920    0.4770    1.2845 H   0  0  0  0  0  0  0  0  0  0  0  0
    0.1046    2.2997   -1.0693 H   0  0  0  0  0  0  0  0  0  0  0  0
    0.2089    2.7577    0.6394 H   0  0  0  0  0  0  0  0  0  0  0  0
    1.6940    2.1476   -0.1313 H   0  0  0  0  0  0  0  0  0  0  0  0
  1  2  3  0
  2  3  1  0
  3  4  1  0
  4  5  1  0
  5  6  1  0
  6  7  1  0
  7  8  1  0
  8  9  1  0
  8  3  1  0
  1 10  1  0
  3 11  1  0
  5 12  1  0
  5 13  1  0
  6 14  1  0
  6 15  1  0
  8 16  1  0
  9 17  1  0
  9 18  1  0
  9 19  1  0
M  END
