
     RDKit          3D

 17 17  0  0  0  0  0  0  0  0999 V2000
    2.9130    0.9562   -0.7441 C   0  0  0  0  0  0  0  0  0  0  0  0
    1.8983    0.7445   -0.1661 C   0  0  0  0  0  0  0  0  0  0  0  0
    0.6356    0.4681    0.5403 C   0  0  0  0  0  0  0  0  0  0  0  0
    0.5448   -0.8326    1.2776 C   0  0  0  0  0  0  0  0  0  0  0  0
   -0.2423   -0.5851    0.0168 C   0  0  0  0  0  0  0  0  0  0  0  0
    0.1771   -1.4205   -1.0416 O   0  0  0  0  0  0  0  0  0  0  0  0
   -1.7092   -0.3731    0.0645 C   0  0  0  0  0  0  0  0  0  0  0  0
   -2.0787    0.8316   -0.7143 C   0  0  0  0  0  0  0  0  0  0  0  0
   -1.1992    1.4652   -1.2653 O   0  0  0  0  0  0  0  0  0  0  0  0
    3.8224    1.1437   -1.2828 H   0  0  0  0  0  0  0  0  0  0  0  0
    0.1353    1.3105    1.0612 H   0  0  0  0  0  0  0  0  0  0  0  0
   -0.0190   -0.9019    2.2337 H   0  0  0  0  0  0  0  0  0  0  0  0
    1.4484   -1.4524    1.2672 H   0  0  0  0  0  0  0  0  0  0  0  0
    1.1021   -1.1028   -1.2486 H   0  0  0  0  0  0  0  0  0  0  0  0
   -2.2962   -1.2606   -0.3086 H   0  0  0  0  0  0  0  0  0  0  0  0
   -2.0274   -0.1660    1.1252 H   0  0  0  0  0  0  0  0  0  0  0  0
   -3.1050    1.1753   -0.8152 H   0  0  0  0  0  0  0  0  0  0  0  0
  1  2  3  0
  2  3  1  0
  3  4  1  0
  4  5  1  0
  5  6  1  0
  5  7  1  0
  7  8  1  0
  8  9  2  0
  5  3  1  0
  1 10  1  0
  3 11  1  0
  4 12  1  0
  4 13  1  0
  6 14  1  0
  7 15  1  0
  7 16  1  0
  8 17  1  0
M  END
