
     RDKit          3D

 19 18  0  0  0  0  0  0  0  0999 V2000
    4.5857   -0.2625    0.6232 C   0  0  0  0  0  0  0  0  0  0  0  0
    3.3909   -0.2037    0.7863 C   0  0  0  0  0  0  0  0  0  0  0  0
    1.9507   -0.1183    0.9622 C   0  0  0  0  0  0  0  0  0  0  0  0
    1.4485   -0.1527    2.1071 O   0  0  0  0  0  0  0  0  0  0  0  0
    1.1007    0.0087   -0.2285 C   0  0  0  0  0  0  0  0  0  0  0  0
   -0.3396    0.0780    0.2165 C   0  0  0  0  0  0  0  0  0  0  0  0
   -1.2808    0.2111   -0.9682 C   0  0  0  0  0  0  0  0  0  0  0  0
   -2.6945    0.2717   -0.4047 C   0  0  0  0  0  0  0  0  0  0  0  0
   -2.9848   -0.8783    0.3101 O   0  0  0  0  0  0  0  0  0  0  0  0
    5.6436   -0.3000    0.4794 H   0  0  0  0  0  0  0  0  0  0  0  0
    1.1951   -0.9701   -0.7860 H   0  0  0  0  0  0  0  0  0  0  0  0
    1.3757    0.8423   -0.8867 H   0  0  0  0  0  0  0  0  0  0  0  0
   -0.6480   -0.8248    0.7748 H   0  0  0  0  0  0  0  0  0  0  0  0
   -0.5301    0.9490    0.8820 H   0  0  0  0  0  0  0  0  0  0  0  0
   -1.2036   -0.6752   -1.6200 H   0  0  0  0  0  0  0  0  0  0  0  0
   -1.0704    1.1292   -1.5222 H   0  0  0  0  0  0  0  0  0  0  0  0
   -3.4255    0.4396   -1.2465 H   0  0  0  0  0  0  0  0  0  0  0  0
   -2.8016    1.1630    0.2561 H   0  0  0  0  0  0  0  0  0  0  0  0
   -3.7120   -0.7071    0.9487 H   0  0  0  0  0  0  0  0  0  0  0  0
  1  2  3  0
  2  3  1  0
  3  4  2  0
  3  5  1  0
  5  6  1  0
  6  7  1  0
  7  8  1  0
  8  9  1  0
  1 10  1  0
  5 11  1  0
  5 12  1  0
  6 13  1  0
  6 14  1  0
  7 15  1  0
  7 16  1  0
  8 17  1  0
  8 18  1  0
  9 19  1  0
M  END
