
     RDKit          3D

 14 15  0  0  0  0  0  0  0  0999 V2000
    2.8877   -0.0920    0.4676 C   0  0  0  0  0  0  0  0  0  0  0  0
    1.6912    0.0179    0.3934 C   0  0  0  0  0  0  0  0  0  0  0  0
    0.2360    0.1445    0.3277 C   0  0  0  0  0  0  0  0  0  0  0  0
   -0.3000    1.4622   -0.0304 C   0  0  0  0  0  0  0  0  0  0  0  0
   -0.4503    0.3147   -0.9681 C   0  0  0  0  0  0  0  0  0  0  0  0
   -1.6173   -0.4308   -0.8887 O   0  0  0  0  0  0  0  0  0  0  0  0
   -1.4773   -1.2871    0.1920 C   0  0  0  0  0  0  0  0  0  0  0  0
   -0.5582   -0.7200    1.0554 O   0  0  0  0  0  0  0  0  0  0  0  0
    3.9396   -0.1907    0.5512 H   0  0  0  0  0  0  0  0  0  0  0  0
    0.3761    2.2603   -0.3528 H   0  0  0  0  0  0  0  0  0  0  0  0
   -1.1601    1.8229    0.5769 H   0  0  0  0  0  0  0  0  0  0  0  0
    0.0775    0.3397   -1.9272 H   0  0  0  0  0  0  0  0  0  0  0  0
   -2.4513   -1.3391    0.7390 H   0  0  0  0  0  0  0  0  0  0  0  0
   -1.1937   -2.3024   -0.1361 H   0  0  0  0  0  0  0  0  0  0  0  0
  1  2  3  0
  2  3  1  0
  3  4  1  0
  4  5  1  0
  5  6  1  0
  6  7  1  0
  7  8  1  0
  5  3  1  0
  8  3  1  0
  1  9  1  0
  4 10  1  0
  4 11  1  0
  5 12  1  0
  7 13  1  0
  7 14  1  0
M  END
