
     RDKit          3D

 11 11  0  0  0  0  0  0  0  0999 V2000
   -0.1602    2.0381   -1.2147 C   0  0  0  0  0  0  0  0  0  0  0  0
   -0.1560    1.0655   -0.4771 C   0  0  0  0  0  0  0  0  0  0  0  0
   -0.1684   -0.1130    0.3933 C   0  0  0  0  0  0  0  0  0  0  0  0
    1.0796   -0.3527    1.1251 C   0  0  0  0  0  0  0  0  0  0  0  0
    2.1046   -0.5690    1.7228 C   0  0  0  0  0  0  0  0  0  0  0  0
   -1.3324   -0.7931    0.6873 C   0  0  0  0  0  0  0  0  0  0  0  0
   -0.5366   -1.3188   -0.4345 O   0  0  0  0  0  0  0  0  0  0  0  0
   -0.1453    2.8837   -1.8547 H   0  0  0  0  0  0  0  0  0  0  0  0
    3.0136   -0.7591    2.2743 H   0  0  0  0  0  0  0  0  0  0  0  0
   -2.3267   -0.5058    0.2898 H   0  0  0  0  0  0  0  0  0  0  0  0
   -1.3721   -1.5758    1.4901 H   0  0  0  0  0  0  0  0  0  0  0  0
  1  2  3  0
  2  3  1  0
  3  4  1  0
  4  5  3  0
  3  6  1  0
  6  7  1  0
  7  3  1  0
  1  8  1  0
  5  9  1  0
  6 10  1  0
  6 11  1  0
M  END
