
     RDKit          3D

 23 22  0  0  0  0  0  0  0  0999 V2000
    0.0074    1.1329   -3.8286 C   0  0  0  0  0  0  0  0  0  0  0  0
    0.4302    0.2538   -2.9738 C   0  0  0  0  0  0  0  0  0  0  0  0
    0.8311   -0.5731   -2.1808 C   0  0  0  0  0  0  0  0  0  0  0  0
    0.1074   -1.0590   -0.9519 C   0  0  0  0  0  0  0  0  0  0  0  0
   -0.3390    0.0170    0.0142 C   0  0  0  0  0  0  0  0  0  0  0  0
    0.8202    0.9555    0.3119 C   0  0  0  0  0  0  0  0  0  0  0  0
   -1.5183    0.5421   -0.2100 O   0  0  0  0  0  0  0  0  0  0  0  0
   -0.3895   -0.7483    1.4089 C   0  0  0  0  0  0  0  0  0  0  0  0
   -0.8607    0.0762    2.5355 C   0  0  0  0  0  0  0  0  0  0  0  0
   -0.3576    1.9176   -4.6094 H   0  0  0  0  0  0  0  0  0  0  0  0
    1.1138   -1.6269   -2.6860 H   0  0  0  0  0  0  0  0  0  0  0  0
    1.9841   -0.4267   -1.7803 H   0  0  0  0  0  0  0  0  0  0  0  0
   -0.8145   -1.5883   -1.3609 H   0  0  0  0  0  0  0  0  0  0  0  0
    0.6993   -1.8406   -0.4507 H   0  0  0  0  0  0  0  0  0  0  0  0
    1.7464    0.3295    0.4008 H   0  0  0  0  0  0  0  0  0  0  0  0
    0.6397    1.4245    1.2822 H   0  0  0  0  0  0  0  0  0  0  0  0
    0.9343    1.7618   -0.4193 H   0  0  0  0  0  0  0  0  0  0  0  0
   -1.7458    1.3812    0.2592 H   0  0  0  0  0  0  0  0  0  0  0  0
    0.7156   -0.9992    1.6244 H   0  0  0  0  0  0  0  0  0  0  0  0
   -0.9240   -1.6757    1.2921 H   0  0  0  0  0  0  0  0  0  0  0  0
   -0.2398   -0.1385    3.4521 H   0  0  0  0  0  0  0  0  0  0  0  0
   -0.9317    1.1630    2.3356 H   0  0  0  0  0  0  0  0  0  0  0  0
   -1.9086   -0.2788    2.8795 H   0  0  0  0  0  0  0  0  0  0  0  0
  1  2  3  0
  2  3  1  0
  3  4  1  0
  4  5  1  0
  5  6  1  0
  5  7  1  0
  5  8  1  0
  8  9  1  0
  1 10  1  0
  3 11  1  0
  3 12  1  0
  4 13  1  0
  4 14  1  0
  6 15  1  0
  6 16  1  0
  6 17  1  0
  7 18  1  0
  8 19  1  0
  8 20  1  0
  9 21  1  0
  9 22  1  0
  9 23  1  0
M  END
