
     RDKit          3D

 23 23  0  0  0  0  0  0  0  0999 V2000
   -0.6221    2.0280    2.2890 C   0  0  0  0  0  0  0  0  0  0  0  0
   -0.2448    1.4604    1.2933 C   0  0  0  0  0  0  0  0  0  0  0  0
    0.2267    0.7847    0.0616 C   0  0  0  0  0  0  0  0  0  0  0  0
    1.1897   -0.3010    0.4323 C   0  0  0  0  0  0  0  0  0  0  0  0
    2.5846    0.0321   -0.0385 C   0  0  0  0  0  0  0  0  0  0  0  0
    0.4567   -1.2147   -0.5298 C   0  0  0  0  0  0  0  0  0  0  0  0
   -0.7211   -0.2715   -0.4284 C   0  0  0  0  0  0  0  0  0  0  0  0
   -1.3346    0.1187   -1.7492 C   0  0  0  0  0  0  0  0  0  0  0  0
   -1.7082   -0.7798    0.5802 C   0  0  0  0  0  0  0  0  0  0  0  0
   -0.9573    2.5458    3.1615 H   0  0  0  0  0  0  0  0  0  0  0  0
    0.5765    1.4758   -0.7185 H   0  0  0  0  0  0  0  0  0  0  0  0
    1.1283   -0.6341    1.4908 H   0  0  0  0  0  0  0  0  0  0  0  0
    3.2585   -0.0639    0.8368 H   0  0  0  0  0  0  0  0  0  0  0  0
    2.6379    1.0612   -0.4770 H   0  0  0  0  0  0  0  0  0  0  0  0
    2.8683   -0.7191   -0.8130 H   0  0  0  0  0  0  0  0  0  0  0  0
    0.2541   -2.2343   -0.1150 H   0  0  0  0  0  0  0  0  0  0  0  0
    0.9177   -1.2995   -1.5304 H   0  0  0  0  0  0  0  0  0  0  0  0
   -0.5804    0.4685   -2.4497 H   0  0  0  0  0  0  0  0  0  0  0  0
   -2.0349    0.9741   -1.5366 H   0  0  0  0  0  0  0  0  0  0  0  0
   -1.9601   -0.6882   -2.1575 H   0  0  0  0  0  0  0  0  0  0  0  0
   -1.6543   -1.8794    0.5908 H   0  0  0  0  0  0  0  0  0  0  0  0
   -1.5596   -0.3573    1.5913 H   0  0  0  0  0  0  0  0  0  0  0  0
   -2.7217   -0.5065    0.2160 H   0  0  0  0  0  0  0  0  0  0  0  0
  1  2  3  0
  2  3  1  0
  3  4  1  0
  4  5  1  0
  4  6  1  0
  6  7  1  0
  7  8  1  0
  7  9  1  0
  7  3  1  0
  1 10  1  0
  3 11  1  0
  4 12  1  0
  5 13  1  0
  5 14  1  0
  5 15  1  0
  6 16  1  0
  6 17  1  0
  8 18  1  0
  8 19  1  0
  8 20  1  0
  9 21  1  0
  9 22  1  0
  9 23  1  0
M  END
