
     RDKit          3D

 15 14  0  0  0  0  0  0  0  0999 V2000
    1.8934   -1.5327    0.8774 C   0  0  0  0  0  0  0  0  0  0  0  0
    1.2193   -0.6369    0.9145 C   0  0  0  0  0  0  0  0  0  0  0  0
    0.2944    0.5907    0.9384 C   0  0  0  0  0  0  0  0  0  0  0  0
    0.6376    1.3837   -0.2136 C   0  0  0  0  0  0  0  0  0  0  0  0
    0.9440    2.0773   -1.1940 C   0  0  0  0  0  0  0  0  0  0  0  0
   -1.0860    0.0281    0.8713 C   0  0  0  0  0  0  0  0  0  0  0  0
   -1.2198   -0.7716   -0.3979 C   0  0  0  0  0  0  0  0  0  0  0  0
    2.5502   -2.3805    0.8337 H   0  0  0  0  0  0  0  0  0  0  0  0
    0.4755    1.1513    1.8643 H   0  0  0  0  0  0  0  0  0  0  0  0
    1.2160    2.6811   -2.0239 H   0  0  0  0  0  0  0  0  0  0  0  0
   -1.2262   -0.6089    1.7647 H   0  0  0  0  0  0  0  0  0  0  0  0
   -1.8664    0.8357    0.9276 H   0  0  0  0  0  0  0  0  0  0  0  0
   -1.2979   -0.0454   -1.2649 H   0  0  0  0  0  0  0  0  0  0  0  0
   -0.3387   -1.4397   -0.4776 H   0  0  0  0  0  0  0  0  0  0  0  0
   -2.1953   -1.3322   -0.3229 H   0  0  0  0  0  0  0  0  0  0  0  0
  1  2  3  0
  2  3  1  0
  3  4  1  0
  4  5  3  0
  3  6  1  0
  6  7  1  0
  1  8  1  0
  3  9  1  0
  5 10  1  0
  6 11  1  0
  6 12  1  0
  7 13  1  0
  7 14  1  0
  7 15  1  0
M  END
