
     RDKit          3D

 19 21  0  0  0  0  0  0  0  0999 V2000
    2.4072   -2.2138   -0.5438 C   0  0  0  0  0  0  0  0  0  0  0  0
    1.4631   -1.4819   -0.6121 C   0  0  0  0  0  0  0  0  0  0  0  0
    0.3006   -0.5820   -0.6705 C   0  0  0  0  0  0  0  0  0  0  0  0
   -0.9000   -0.9553    0.2039 C   0  0  0  0  0  0  0  0  0  0  0  0
   -1.4620    0.3929    0.4631 C   0  0  0  0  0  0  0  0  0  0  0  0
   -1.3265    1.3670    1.4693 C   0  0  0  0  0  0  0  0  0  0  0  0
   -0.0706    0.9208    0.9909 C   0  0  0  0  0  0  0  0  0  0  0  0
    0.6215    0.9085   -0.2767 C   0  0  0  0  0  0  0  0  0  0  0  0
    0.2412    0.5425   -1.6093 C   0  0  0  0  0  0  0  0  0  0  0  0
    3.2674   -2.8651   -0.4677 H   0  0  0  0  0  0  0  0  0  0  0  0
   -1.5907   -1.6469   -0.3110 H   0  0  0  0  0  0  0  0  0  0  0  0
   -0.4890   -1.4399    1.1114 H   0  0  0  0  0  0  0  0  0  0  0  0
   -1.7996    0.8105   -0.5262 H   0  0  0  0  0  0  0  0  0  0  0  0
   -1.5777    2.4421    1.2619 H   0  0  0  0  0  0  0  0  0  0  0  0
   -1.6758    1.1239    2.5034 H   0  0  0  0  0  0  0  0  0  0  0  0
    0.4519    0.2244    1.7289 H   0  0  0  0  0  0  0  0  0  0  0  0
    1.7357    1.1304   -0.1509 H   0  0  0  0  0  0  0  0  0  0  0  0
   -0.6626    0.8570   -2.1726 H   0  0  0  0  0  0  0  0  0  0  0  0
    1.0660    0.4650   -2.3919 H   0  0  0  0  0  0  0  0  0  0  0  0
  1  2  3  0
  2  3  1  0
  3  4  1  0
  4  5  1  0
  5  6  1  0
  6  7  1  0
  7  8  1  0
  8  9  1  0
  8  3  1  0
  9  3  1  0
  7  5  1  0
  1 10  1  0
  4 11  1  0
  4 12  1  0
  5 13  1  0
  6 14  1  0
  6 15  1  0
  7 16  1  0
  8 17  1  0
  9 18  1  0
  9 19  1  0
M  END
