
     RDKit          3D

 17 16  0  0  0  0  0  0  0  0999 V2000
    2.0703    0.4371    2.0850 C   0  0  0  0  0  0  0  0  0  0  0  0
    1.2070   -0.1538    1.4864 C   0  0  0  0  0  0  0  0  0  0  0  0
    0.1517   -0.8699    0.7275 C   0  0  0  0  0  0  0  0  0  0  0  0
    0.5097   -2.2173    0.6616 O   0  0  0  0  0  0  0  0  0  0  0  0
    0.2245   -0.3553   -0.7173 C   0  0  0  0  0  0  0  0  0  0  0  0
   -0.6600   -1.0832   -1.4958 O   0  0  0  0  0  0  0  0  0  0  0  0
   -0.1239    1.0780   -0.7938 C   0  0  0  0  0  0  0  0  0  0  0  0
   -1.2824    1.4844   -1.6312 C   0  0  0  0  0  0  0  0  0  0  0  0
    0.5215    1.9105   -0.1855 O   0  0  0  0  0  0  0  0  0  0  0  0
    2.8363    0.9588    2.5945 H   0  0  0  0  0  0  0  0  0  0  0  0
   -0.8460   -0.7021    1.1527 H   0  0  0  0  0  0  0  0  0  0  0  0
   -0.2904   -2.7262    0.9924 H   0  0  0  0  0  0  0  0  0  0  0  0
    1.2448   -0.5661   -1.1222 H   0  0  0  0  0  0  0  0  0  0  0  0
   -0.7791   -1.9768   -1.0826 H   0  0  0  0  0  0  0  0  0  0  0  0
   -1.0036    2.4007   -2.2210 H   0  0  0  0  0  0  0  0  0  0  0  0
   -1.6045    0.6661   -2.3088 H   0  0  0  0  0  0  0  0  0  0  0  0
   -2.1761    1.7149   -0.9982 H   0  0  0  0  0  0  0  0  0  0  0  0
  1  2  3  0
  2  3  1  0
  3  4  1  0
  3  5  1  0
  5  6  1  0
  5  7  1  0
  7  8  1  0
  7  9  2  0
  1 10  1  0
  3 11  1  0
  4 12  1  0
  5 13  1  0
  6 14  1  0
  8 15  1  0
  8 16  1  0
  8 17  1  0
M  END
