
     RDKit          3D

 21 21  0  0  0  0  0  0  0  0999 V2000
   -0.9677    2.2184    1.7557 C   0  0  0  0  0  0  0  0  0  0  0  0
   -0.6737    1.2526    0.8424 C   0  0  0  0  0  0  0  0  0  0  0  0
   -0.3692    0.2322   -0.1432 C   0  0  0  0  0  0  0  0  0  0  0  0
   -0.2272    1.2157   -1.4477 C   0  0  0  0  0  0  0  0  0  0  0  0
   -1.7053   -0.4170   -0.5886 C   0  0  0  0  0  0  0  0  0  0  0  0
    0.7228   -0.6436   -0.1085 C   0  0  0  0  0  0  0  0  0  0  0  0
    0.7636   -1.6623    1.0210 C   0  0  0  0  0  0  0  0  0  0  0  0
    1.6441   -0.8960    1.6746 O   0  0  0  0  0  0  0  0  0  0  0  0
    2.0815   -0.4307    0.4032 C   0  0  0  0  0  0  0  0  0  0  0  0
   -1.2182    3.0907    2.5551 H   0  0  0  0  0  0  0  0  0  0  0  0
   -1.3681    1.3632   -1.7689 H   0  0  0  0  0  0  0  0  0  0  0  0
    0.3482    0.7220   -2.2033 H   0  0  0  0  0  0  0  0  0  0  0  0
    0.0105    2.1737   -1.0489 H   0  0  0  0  0  0  0  0  0  0  0  0
   -2.5683   -0.1920   -0.0293 H   0  0  0  0  0  0  0  0  0  0  0  0
   -1.9034   -0.2205   -1.7007 H   0  0  0  0  0  0  0  0  0  0  0  0
   -1.4725   -1.5241   -0.6173 H   0  0  0  0  0  0  0  0  0  0  0  0
    0.7548   -1.2335   -1.1714 H   0  0  0  0  0  0  0  0  0  0  0  0
    1.0132   -2.6305    0.6390 H   0  0  0  0  0  0  0  0  0  0  0  0
   -0.2474   -1.7272    1.5426 H   0  0  0  0  0  0  0  0  0  0  0  0
    2.7968   -1.1877   -0.1031 H   0  0  0  0  0  0  0  0  0  0  0  0
    2.5855    0.4967    0.4972 H   0  0  0  0  0  0  0  0  0  0  0  0
  1  2  3  0
  2  3  1  0
  3  4  1  0
  3  5  1  0
  3  6  1  0
  6  7  1  0
  7  8  1  0
  8  9  1  0
  9  6  1  0
  1 10  1  0
  4 11  1  0
  4 12  1  0
  4 13  1  0
  5 14  1  0
  5 15  1  0
  5 16  1  0
  6 17  1  0
  7 18  1  0
  7 19  1  0
  9 20  1  0
  9 21  1  0
M  END
