
     RDKit          3D

 17 17  0  0  0  0  0  0  0  0999 V2000
    1.7148    1.8260   -0.5151 C   0  0  0  0  0  0  0  0  0  0  0  0
    1.2071    0.8262   -0.0793 C   0  0  0  0  0  0  0  0  0  0  0  0
    0.5869   -0.3986    0.4650 C   0  0  0  0  0  0  0  0  0  0  0  0
    1.3089   -1.6070   -0.0887 C   0  0  0  0  0  0  0  0  0  0  0  0
   -0.8311   -0.4317    0.0001 C   0  0  0  0  0  0  0  0  0  0  0  0
   -1.7992    0.6326    0.3318 C   0  0  0  0  0  0  0  0  0  0  0  0
   -1.2612    0.5379   -1.0616 C   0  0  0  0  0  0  0  0  0  0  0  0
    2.1524    2.7285   -0.9078 H   0  0  0  0  0  0  0  0  0  0  0  0
    0.6151   -0.3979    1.5846 H   0  0  0  0  0  0  0  0  0  0  0  0
    1.0025   -1.7234   -1.1511 H   0  0  0  0  0  0  0  0  0  0  0  0
    1.0405   -2.4657    0.5452 H   0  0  0  0  0  0  0  0  0  0  0  0
    2.3924   -1.3900   -0.0913 H   0  0  0  0  0  0  0  0  0  0  0  0
   -1.2282   -1.4748   -0.1396 H   0  0  0  0  0  0  0  0  0  0  0  0
   -2.8475    0.3029    0.4865 H   0  0  0  0  0  0  0  0  0  0  0  0
   -1.5331    1.5185    0.9163 H   0  0  0  0  0  0  0  0  0  0  0  0
   -1.9596    0.1789   -1.8734 H   0  0  0  0  0  0  0  0  0  0  0  0
   -0.5607    1.3376   -1.3854 H   0  0  0  0  0  0  0  0  0  0  0  0
  1  2  3  0
  2  3  1  0
  3  4  1  0
  3  5  1  0
  5  6  1  0
  6  7  1  0
  7  5  1  0
  1  8  1  0
  3  9  1  0
  4 10  1  0
  4 11  1  0
  4 12  1  0
  5 13  1  0
  6 14  1  0
  6 15  1  0
  7 16  1  0
  7 17  1  0
M  END
