
     RDKit          3D

 19 19  0  0  0  0  0  0  0  0999 V2000
    1.5489    2.5494    1.0318 C   0  0  0  0  0  0  0  0  0  0  0  0
    1.0922    1.4876    0.6937 C   0  0  0  0  0  0  0  0  0  0  0  0
    0.5571    0.1799    0.2759 C   0  0  0  0  0  0  0  0  0  0  0  0
    1.5286   -0.9303    0.5431 C   0  0  0  0  0  0  0  0  0  0  0  0
    0.2548    0.2312   -1.0546 O   0  0  0  0  0  0  0  0  0  0  0  0
   -0.8868   -0.4801   -1.3022 C   0  0  0  0  0  0  0  0  0  0  0  0
   -1.3756   -1.0628    0.0043 C   0  0  0  0  0  0  0  0  0  0  0  0
   -0.7795   -0.0490    0.9788 C   0  0  0  0  0  0  0  0  0  0  0  0
   -1.5336    1.0979    0.8886 O   0  0  0  0  0  0  0  0  0  0  0  0
    1.9463    3.4954    1.3199 H   0  0  0  0  0  0  0  0  0  0  0  0
    1.9044   -1.3499   -0.4224 H   0  0  0  0  0  0  0  0  0  0  0  0
    2.3915   -0.4943    1.1037 H   0  0  0  0  0  0  0  0  0  0  0  0
    1.1273   -1.7594    1.1272 H   0  0  0  0  0  0  0  0  0  0  0  0
   -1.6710    0.2464   -1.6346 H   0  0  0  0  0  0  0  0  0  0  0  0
   -0.7487   -1.2719   -2.0739 H   0  0  0  0  0  0  0  0  0  0  0  0
   -0.9666   -2.0838    0.1811 H   0  0  0  0  0  0  0  0  0  0  0  0
   -2.4826   -1.0799    0.0788 H   0  0  0  0  0  0  0  0  0  0  0  0
   -0.6616   -0.4475    1.9817 H   0  0  0  0  0  0  0  0  0  0  0  0
   -1.2453    1.7211    0.1902 H   0  0  0  0  0  0  0  0  0  0  0  0
  1  2  3  0
  2  3  1  0
  3  4  1  0
  3  5  1  0
  5  6  1  0
  6  7  1  0
  7  8  1  0
  8  9  1  0
  8  3  1  0
  1 10  1  0
  4 11  1  0
  4 12  1  0
  4 13  1  0
  6 14  1  0
  6 15  1  0
  7 16  1  0
  7 17  1  0
  8 18  1  0
  9 19  1  0
M  END
