
     RDKit          3D

 17 16  0  0  0  0  0  0  0  0999 V2000
    2.8457   -0.1699   -1.7192 C   0  0  0  0  0  0  0  0  0  0  0  0
    1.8355   -0.4713   -1.1148 C   0  0  0  0  0  0  0  0  0  0  0  0
    0.6257   -0.8270   -0.3680 C   0  0  0  0  0  0  0  0  0  0  0  0
    1.0284   -1.3727    0.9455 C   0  0  0  0  0  0  0  0  0  0  0  0
    2.1310   -1.1498    1.3778 O   0  0  0  0  0  0  0  0  0  0  0  0
   -0.2145    0.4213   -0.2552 C   0  0  0  0  0  0  0  0  0  0  0  0
   -1.4900    0.2187    0.4850 C   0  0  0  0  0  0  0  0  0  0  0  0
   -2.2188    1.5176    0.5237 C   0  0  0  0  0  0  0  0  0  0  0  0
   -3.3095    1.5921    1.0899 O   0  0  0  0  0  0  0  0  0  0  0  0
    3.7259    0.0833   -2.2470 H   0  0  0  0  0  0  0  0  0  0  0  0
    0.0901   -1.5947   -0.9924 H   0  0  0  0  0  0  0  0  0  0  0  0
    0.3467   -1.9690    1.5231 H   0  0  0  0  0  0  0  0  0  0  0  0
   -0.4544    0.7446   -1.2811 H   0  0  0  0  0  0  0  0  0  0  0  0
    0.3966    1.1688    0.2930 H   0  0  0  0  0  0  0  0  0  0  0  0
   -1.3568   -0.1005    1.5351 H   0  0  0  0  0  0  0  0  0  0  0  0
   -2.1622   -0.5018   -0.0246 H   0  0  0  0  0  0  0  0  0  0  0  0
   -1.8196    2.4102    0.0664 H   0  0  0  0  0  0  0  0  0  0  0  0
  1  2  3  0
  2  3  1  0
  3  4  1  0
  4  5  2  0
  3  6  1  0
  6  7  1  0
  7  8  1  0
  8  9  2  0
  1 10  1  0
  3 11  1  0
  4 12  1  0
  6 13  1  0
  6 14  1  0
  7 15  1  0
  7 16  1  0
  8 17  1  0
M  END
