
     RDKit          3D

 15 15  0  0  0  0  0  0  0  0999 V2000
    2.9427   -1.3719    3.1970 C   0  0  0  0  0  0  0  0  0  0  0  0
    2.0158   -1.1765    2.1882 C   0  0  0  0  0  0  0  0  0  0  0  0
    1.1618   -1.0178    1.2718 C   0  0  0  0  0  0  0  0  0  0  0  0
    0.3569   -0.8469    0.3988 C   0  0  0  0  0  0  0  0  0  0  0  0
   -0.6354   -0.6100   -0.6899 C   0  0  0  0  0  0  0  0  0  0  0  0
   -0.6876    0.2918   -1.8404 C   0  0  0  0  0  0  0  0  0  0  0  0
   -1.9368    0.3940   -2.5346 O   0  0  0  0  0  0  0  0  0  0  0  0
   -0.6318    1.0722   -0.6321 C   0  0  0  0  0  0  0  0  0  0  0  0
   -1.5849    1.7051    0.0694 O   0  0  0  0  0  0  0  0  0  0  0  0
    3.5096   -1.4912    3.8241 H   0  0  0  0  0  0  0  0  0  0  0  0
   -1.7128   -0.8372   -0.2548 H   0  0  0  0  0  0  0  0  0  0  0  0
    0.1372    0.2354   -2.5811 H   0  0  0  0  0  0  0  0  0  0  0  0
   -2.0848   -0.4904   -2.9530 H   0  0  0  0  0  0  0  0  0  0  0  0
    0.4175    1.4882   -0.4317 H   0  0  0  0  0  0  0  0  0  0  0  0
   -1.2673    2.6552    0.2588 H   0  0  0  0  0  0  0  0  0  0  0  0
  1  2  3  0
  2  3  1  0
  3  4  3  0
  4  5  1  0
  5  6  1  0
  6  7  1  0
  6  8  1  0
  8  9  1  0
  8  5  1  0
  1 10  1  0
  5 11  1  0
  6 12  1  0
  7 13  1  0
  8 14  1  0
  9 15  1  0
M  END
