
     RDKit          3D

 17 16  0  0  0  0  0  0  0  0999 V2000
   -0.2160    2.7230   -0.4207 C   0  0  0  0  0  0  0  0  0  0  0  0
   -0.6010    1.6565   -0.1187 C   0  0  0  0  0  0  0  0  0  0  0  0
   -1.0594    0.3344    0.2354 C   0  0  0  0  0  0  0  0  0  0  0  0
   -2.4324    0.2356   -0.0332 O   0  0  0  0  0  0  0  0  0  0  0  0
   -0.3545   -0.8690   -0.1874 C   0  0  0  0  0  0  0  0  0  0  0  0
   -0.7977   -1.9841    0.4155 O   0  0  0  0  0  0  0  0  0  0  0  0
    1.0798   -0.7147   -0.5660 C   0  0  0  0  0  0  0  0  0  0  0  0
    1.8472    0.0748    0.4483 C   0  0  0  0  0  0  0  0  0  0  0  0
    3.0122   -0.0253    0.5486 O   0  0  0  0  0  0  0  0  0  0  0  0
    0.1753    3.7697   -0.7224 H   0  0  0  0  0  0  0  0  0  0  0  0
   -1.0105    0.2801    1.3864 H   0  0  0  0  0  0  0  0  0  0  0  0
   -2.6773   -0.7361   -0.1730 H   0  0  0  0  0  0  0  0  0  0  0  0
   -0.8108   -1.0249   -1.3223 H   0  0  0  0  0  0  0  0  0  0  0  0
   -0.2689   -2.1322    1.2508 H   0  0  0  0  0  0  0  0  0  0  0  0
    1.4690   -1.8242   -0.3070 H   0  0  0  0  0  0  0  0  0  0  0  0
    1.3654   -0.5483   -1.5425 H   0  0  0  0  0  0  0  0  0  0  0  0
    1.2796    0.7848    1.1081 H   0  0  0  0  0  0  0  0  0  0  0  0
  1  2  3  0
  2  3  1  0
  3  4  1  0
  3  5  1  0
  5  6  1  0
  5  7  1  0
  7  8  1  0
  8  9  2  0
  1 10  1  0
  3 11  1  0
  4 12  1  0
  5 13  1  0
  6 14  1  0
  7 15  1  0
  7 16  1  0
  8 17  1  0
M  END
