
     RDKit          3D

 14 15  0  0  0  0  0  0  0  0999 V2000
    1.4343    1.4768    1.9052 C   0  0  0  0  0  0  0  0  0  0  0  0
    0.5531    0.9826    1.2479 C   0  0  0  0  0  0  0  0  0  0  0  0
   -0.5120    0.3571    0.4351 C   0  0  0  0  0  0  0  0  0  0  0  0
   -0.2958    0.4525   -1.0539 C   0  0  0  0  0  0  0  0  0  0  0  0
   -1.1121   -0.8065   -1.1442 C   0  0  0  0  0  0  0  0  0  0  0  0
   -0.1572   -1.0348    0.0152 C   0  0  0  0  0  0  0  0  0  0  0  0
    0.8667   -0.4323   -0.8429 C   0  0  0  0  0  0  0  0  0  0  0  0
    2.0061   -0.6501   -1.1267 O   0  0  0  0  0  0  0  0  0  0  0  0
    2.2108    1.9314    2.5011 H   0  0  0  0  0  0  0  0  0  0  0  0
   -1.5269    0.5040    0.8062 H   0  0  0  0  0  0  0  0  0  0  0  0
   -0.3548    1.2622   -1.6339 H   0  0  0  0  0  0  0  0  0  0  0  0
   -2.1547   -0.7546   -0.8372 H   0  0  0  0  0  0  0  0  0  0  0  0
   -0.8577   -1.4307   -2.0231 H   0  0  0  0  0  0  0  0  0  0  0  0
   -0.0999   -1.8576    0.5781 H   0  0  0  0  0  0  0  0  0  0  0  0
  1  2  3  0
  2  3  1  0
  3  4  1  0
  4  5  1  0
  5  6  1  0
  6  7  1  0
  7  8  2  0
  6  3  1  0
  7  4  1  0
  1  9  1  0
  3 10  1  0
  4 11  1  0
  5 12  1  0
  5 13  1  0
  6 14  1  0
M  END
