
     RDKit          3D

 19 19  0  0  0  0  0  0  0  0999 V2000
    3.8669   -0.2215    0.6440 C   0  0  0  0  0  0  0  0  0  0  0  0
    2.7252   -0.3845    0.3050 C   0  0  0  0  0  0  0  0  0  0  0  0
    1.3156   -0.5801   -0.0883 C   0  0  0  0  0  0  0  0  0  0  0  0
    0.9681    0.3366   -1.0895 O   0  0  0  0  0  0  0  0  0  0  0  0
   -0.4228    0.2248   -1.0766 C   0  0  0  0  0  0  0  0  0  0  0  0
   -0.6857    0.1035    0.4134 C   0  0  0  0  0  0  0  0  0  0  0  0
   -1.7051   -0.9779    0.6435 C   0  0  0  0  0  0  0  0  0  0  0  0
   -1.1873    1.4497    0.8893 C   0  0  0  0  0  0  0  0  0  0  0  0
    0.5429   -0.1955    0.9972 O   0  0  0  0  0  0  0  0  0  0  0  0
    4.8875   -0.0699    0.9501 H   0  0  0  0  0  0  0  0  0  0  0  0
    1.1128   -1.6272   -0.3890 H   0  0  0  0  0  0  0  0  0  0  0  0
   -0.7016   -0.7212   -1.5457 H   0  0  0  0  0  0  0  0  0  0  0  0
   -0.9267    1.1159   -1.4952 H   0  0  0  0  0  0  0  0  0  0  0  0
   -2.0834   -1.4268   -0.2933 H   0  0  0  0  0  0  0  0  0  0  0  0
   -2.5531   -0.5533    1.2303 H   0  0  0  0  0  0  0  0  0  0  0  0
   -1.2387   -1.8038    1.2197 H   0  0  0  0  0  0  0  0  0  0  0  0
   -1.2603    1.4373    1.9910 H   0  0  0  0  0  0  0  0  0  0  0  0
   -0.4943    2.2408    0.6048 H   0  0  0  0  0  0  0  0  0  0  0  0
   -2.1600    1.6530    0.3915 H   0  0  0  0  0  0  0  0  0  0  0  0
  1  2  3  0
  2  3  1  0
  3  4  1  0
  4  5  1  0
  5  6  1  0
  6  7  1  0
  6  8  1  0
  6  9  1  0
  9  3  1  0
  1 10  1  0
  3 11  1  0
  5 12  1  0
  5 13  1  0
  7 14  1  0
  7 15  1  0
  7 16  1  0
  8 17  1  0
  8 18  1  0
  8 19  1  0
M  END
