
     RDKit          3D

 21 20  0  0  0  0  0  0  0  0999 V2000
    2.7715    1.0757   -0.4323 C   0  0  0  0  0  0  0  0  0  0  0  0
    1.9878    0.5304    0.3120 C   0  0  0  0  0  0  0  0  0  0  0  0
    1.0578   -0.1159    1.1984 C   0  0  0  0  0  0  0  0  0  0  0  0
    1.4984   -1.3545    1.6542 O   0  0  0  0  0  0  0  0  0  0  0  0
   -0.2444   -0.3252    0.4516 C   0  0  0  0  0  0  0  0  0  0  0  0
   -0.7393    1.0344    0.0399 C   0  0  0  0  0  0  0  0  0  0  0  0
   -2.0441    0.9666   -0.7213 C   0  0  0  0  0  0  0  0  0  0  0  0
    0.0468   -1.2119   -0.7335 C   0  0  0  0  0  0  0  0  0  0  0  0
   -1.0895   -1.4694   -1.4936 O   0  0  0  0  0  0  0  0  0  0  0  0
    3.4684    1.5446   -1.0988 H   0  0  0  0  0  0  0  0  0  0  0  0
    0.8827    0.5585    2.0626 H   0  0  0  0  0  0  0  0  0  0  0  0
    1.7214   -1.2789    2.6294 H   0  0  0  0  0  0  0  0  0  0  0  0
   -0.9780   -0.7877    1.1087 H   0  0  0  0  0  0  0  0  0  0  0  0
   -0.9539    1.5965    0.9773 H   0  0  0  0  0  0  0  0  0  0  0  0
    0.0354    1.6312   -0.4921 H   0  0  0  0  0  0  0  0  0  0  0  0
   -2.6130    0.1116   -0.3116 H   0  0  0  0  0  0  0  0  0  0  0  0
   -2.5907    1.9163   -0.5408 H   0  0  0  0  0  0  0  0  0  0  0  0
   -1.8080    0.8215   -1.7963 H   0  0  0  0  0  0  0  0  0  0  0  0
    0.3875   -2.1942   -0.3202 H   0  0  0  0  0  0  0  0  0  0  0  0
    0.8325   -0.8323   -1.3828 H   0  0  0  0  0  0  0  0  0  0  0  0
   -1.6293   -2.2173   -1.1109 H   0  0  0  0  0  0  0  0  0  0  0  0
  1  2  3  0
  2  3  1  0
  3  4  1  0
  3  5  1  0
  5  6  1  0
  6  7  1  0
  5  8  1  0
  8  9  1  0
  1 10  1  0
  3 11  1  0
  4 12  1  0
  5 13  1  0
  6 14  1  0
  6 15  1  0
  7 16  1  0
  7 17  1  0
  7 18  1  0
  8 19  1  0
  8 20  1  0
  9 21  1  0
M  END
