
     RDKit          3D

 17 17  0  0  0  0  0  0  0  0999 V2000
   -2.8104    0.8458   -0.0196 C   0  0  0  0  0  0  0  0  0  0  0  0
   -1.8181    0.3588   -0.5000 C   0  0  0  0  0  0  0  0  0  0  0  0
   -0.5970   -0.2189   -1.1055 C   0  0  0  0  0  0  0  0  0  0  0  0
   -0.2050   -1.5120   -0.4479 C   0  0  0  0  0  0  0  0  0  0  0  0
    0.5498   -1.0400    0.7456 C   0  0  0  0  0  0  0  0  0  0  0  0
    0.9838    0.1933    0.5457 C   0  0  0  0  0  0  0  0  0  0  0  0
    1.7587    0.9865    1.4869 C   0  0  0  0  0  0  0  0  0  0  0  0
    2.0706    0.5039    2.6043 O   0  0  0  0  0  0  0  0  0  0  0  0
    0.5686    0.6781   -0.7961 C   0  0  0  0  0  0  0  0  0  0  0  0
   -3.6787    1.2864    0.3981 H   0  0  0  0  0  0  0  0  0  0  0  0
   -0.7369   -0.4133   -2.1825 H   0  0  0  0  0  0  0  0  0  0  0  0
    0.4509   -2.0558   -1.1686 H   0  0  0  0  0  0  0  0  0  0  0  0
   -1.0669   -2.1513   -0.1789 H   0  0  0  0  0  0  0  0  0  0  0  0
    0.7266   -1.6098    1.6518 H   0  0  0  0  0  0  0  0  0  0  0  0
    2.0916    1.9925    1.2785 H   0  0  0  0  0  0  0  0  0  0  0  0
    0.3169    1.7455   -0.8164 H   0  0  0  0  0  0  0  0  0  0  0  0
    1.3954    0.4104   -1.4954 H   0  0  0  0  0  0  0  0  0  0  0  0
  1  2  3  0
  2  3  1  0
  3  4  1  0
  4  5  1  0
  5  6  2  0
  6  7  1  0
  7  8  2  0
  6  9  1  0
  9  3  1  0
  1 10  1  0
  3 11  1  0
  4 12  1  0
  4 13  1  0
  5 14  1  0
  7 15  1  0
  9 16  1  0
  9 17  1  0
M  END
