
     RDKit          3D

 21 21  0  0  0  0  0  0  0  0999 V2000
    0.7196    1.3804    2.1190 C   0  0  0  0  0  0  0  0  0  0  0  0
    0.3417    0.6668    1.2222 C   0  0  0  0  0  0  0  0  0  0  0  0
   -0.0948   -0.2097    0.1456 C   0  0  0  0  0  0  0  0  0  0  0  0
    0.8357   -1.3641   -0.0892 C   0  0  0  0  0  0  0  0  0  0  0  0
    2.1958   -0.8075   -0.4505 C   0  0  0  0  0  0  0  0  0  0  0  0
   -1.5094   -0.6186    0.4194 C   0  0  0  0  0  0  0  0  0  0  0  0
   -2.2285    0.6812    0.1325 C   0  0  0  0  0  0  0  0  0  0  0  0
   -1.5238    1.3691   -0.7572 C   0  0  0  0  0  0  0  0  0  0  0  0
   -0.3033    0.6097   -1.1337 C   0  0  0  0  0  0  0  0  0  0  0  0
    1.0467    2.0277    2.9055 H   0  0  0  0  0  0  0  0  0  0  0  0
    0.9113   -1.9564    0.8190 H   0  0  0  0  0  0  0  0  0  0  0  0
    0.4080   -1.9781   -0.8995 H   0  0  0  0  0  0  0  0  0  0  0  0
    2.4344    0.0583    0.1895 H   0  0  0  0  0  0  0  0  0  0  0  0
    2.2033   -0.4524   -1.4953 H   0  0  0  0  0  0  0  0  0  0  0  0
    2.9990   -1.5662   -0.3383 H   0  0  0  0  0  0  0  0  0  0  0  0
   -1.6891   -0.9723    1.4337 H   0  0  0  0  0  0  0  0  0  0  0  0
   -1.8387   -1.3182   -0.3785 H   0  0  0  0  0  0  0  0  0  0  0  0
   -3.1602    1.0072    0.5714 H   0  0  0  0  0  0  0  0  0  0  0  0
   -1.7927    2.3360   -1.1514 H   0  0  0  0  0  0  0  0  0  0  0  0
   -0.5245   -0.1242   -1.9383 H   0  0  0  0  0  0  0  0  0  0  0  0
    0.5693    1.2310   -1.3259 H   0  0  0  0  0  0  0  0  0  0  0  0
  1  2  3  0
  2  3  1  0
  3  4  1  0
  4  5  1  0
  3  6  1  0
  6  7  1  0
  7  8  2  0
  8  9  1  0
  9  3  1  0
  1 10  1  0
  4 11  1  0
  4 12  1  0
  5 13  1  0
  5 14  1  0
  5 15  1  0
  6 16  1  0
  6 17  1  0
  7 18  1  0
  8 19  1  0
  9 20  1  0
  9 21  1  0
M  END
