
     RDKit          3D

 17 19  0  0  0  0  0  0  0  0999 V2000
    3.1780   -1.8881    0.9059 C   0  0  0  0  0  0  0  0  0  0  0  0
    2.1401   -1.7182    0.3497 C   0  0  0  0  0  0  0  0  0  0  0  0
    0.8624   -1.5341   -0.3389 C   0  0  0  0  0  0  0  0  0  0  0  0
    0.1075   -0.3902    0.2472 C   0  0  0  0  0  0  0  0  0  0  0  0
   -1.2308   -0.1474   -0.4260 C   0  0  0  0  0  0  0  0  0  0  0  0
   -2.1665    0.8416    0.1960 C   0  0  0  0  0  0  0  0  0  0  0  0
   -1.7780    1.4608    1.3496 O   0  0  0  0  0  0  0  0  0  0  0  0
   -1.0763    1.8424    0.2304 C   0  0  0  0  0  0  0  0  0  0  0  0
   -0.1630    0.8598   -0.4593 C   0  0  0  0  0  0  0  0  0  0  0  0
    4.1090   -2.0515    1.3887 H   0  0  0  0  0  0  0  0  0  0  0  0
    1.0449   -1.3581   -1.4354 H   0  0  0  0  0  0  0  0  0  0  0  0
    0.2420   -2.4652   -0.2209 H   0  0  0  0  0  0  0  0  0  0  0  0
    0.1545   -0.3155    1.3673 H   0  0  0  0  0  0  0  0  0  0  0  0
   -1.4936   -0.6843   -1.3337 H   0  0  0  0  0  0  0  0  0  0  0  0
   -3.0797    1.0784   -0.3368 H   0  0  0  0  0  0  0  0  0  0  0  0
   -1.1807    2.8660   -0.1210 H   0  0  0  0  0  0  0  0  0  0  0  0
    0.3303    1.2009   -1.3629 H   0  0  0  0  0  0  0  0  0  0  0  0
  1  2  3  0
  2  3  1  0
  3  4  1  0
  4  5  1  0
  5  6  1  0
  6  7  1  0
  7  8  1  0
  8  9  1  0
  9  4  1  0
  9  5  1  0
  8  6  1  0
  1 10  1  0
  3 11  1  0
  3 12  1  0
  4 13  1  0
  5 14  1  0
  6 15  1  0
  8 16  1  0
  9 17  1  0
M  END
