
     RDKit          3D

 19 18  0  0  0  0  0  0  0  0999 V2000
    1.0181   -2.5065    1.3239 C   0  0  0  0  0  0  0  0  0  0  0  0
    0.4109   -1.4551    1.2118 C   0  0  0  0  0  0  0  0  0  0  0  0
   -0.3190   -0.1974    1.0540 C   0  0  0  0  0  0  0  0  0  0  0  0
   -1.7734   -0.4680    0.7051 C   0  0  0  0  0  0  0  0  0  0  0  0
    0.3293    0.6325   -0.0684 C   0  0  0  0  0  0  0  0  0  0  0  0
    1.7118    0.9206    0.2480 C   0  0  0  0  0  0  0  0  0  0  0  0
    2.9266    1.1843    0.5063 C   0  0  0  0  0  0  0  0  0  0  0  0
    0.2219    0.0203   -1.2921 O   0  0  0  0  0  0  0  0  0  0  0  0
   -0.5937    0.7456   -2.1804 C   0  0  0  0  0  0  0  0  0  0  0  0
    1.5424   -3.4308    1.4099 H   0  0  0  0  0  0  0  0  0  0  0  0
   -0.2834    0.4240    1.9680 H   0  0  0  0  0  0  0  0  0  0  0  0
   -1.8239   -1.0083   -0.2871 H   0  0  0  0  0  0  0  0  0  0  0  0
   -2.3239    0.4739    0.5576 H   0  0  0  0  0  0  0  0  0  0  0  0
   -2.2568   -1.0788    1.4671 H   0  0  0  0  0  0  0  0  0  0  0  0
   -0.2853    1.5817   -0.1048 H   0  0  0  0  0  0  0  0  0  0  0  0
    3.8974    1.3915    0.7077 H   0  0  0  0  0  0  0  0  0  0  0  0
   -1.6228    0.8582   -1.7848 H   0  0  0  0  0  0  0  0  0  0  0  0
   -0.1099    1.7392   -2.3113 H   0  0  0  0  0  0  0  0  0  0  0  0
   -0.6663    0.1731   -3.1305 H   0  0  0  0  0  0  0  0  0  0  0  0
  1  2  3  0
  2  3  1  0
  3  4  1  0
  3  5  1  0
  5  6  1  0
  6  7  3  0
  5  8  1  0
  8  9  1  0
  1 10  1  0
  3 11  1  0
  4 12  1  0
  4 13  1  0
  4 14  1  0
  5 15  1  0
  7 16  1  0
  9 17  1  0
  9 18  1  0
  9 19  1  0
M  END
