
     RDKit          3D

 19 20  0  0  0  0  0  0  0  0999 V2000
   -0.0192    1.6188   -2.3582 C   0  0  0  0  0  0  0  0  0  0  0  0
   -0.1903    1.0264   -1.2248 C   0  0  0  0  0  0  0  0  0  0  0  0
   -0.3527    0.4148   -0.0214 C   0  0  0  0  0  0  0  0  0  0  0  0
   -1.5616    0.9455    0.7413 C   0  0  0  0  0  0  0  0  0  0  0  0
    0.8595    0.3936    0.8999 C   0  0  0  0  0  0  0  0  0  0  0  0
    1.5290   -0.8944    0.5229 C   0  0  0  0  0  0  0  0  0  0  0  0
    0.4222   -1.8190    0.0659 C   0  0  0  0  0  0  0  0  0  0  0  0
    0.1754   -1.6436   -1.3478 O   0  0  0  0  0  0  0  0  0  0  0  0
   -0.6730   -1.0725   -0.2324 C   0  0  0  0  0  0  0  0  0  0  0  0
    0.1151    2.1139   -3.3199 H   0  0  0  0  0  0  0  0  0  0  0  0
   -2.3053    0.1824    0.9967 H   0  0  0  0  0  0  0  0  0  0  0  0
   -2.0069    1.7588    0.1294 H   0  0  0  0  0  0  0  0  0  0  0  0
   -1.1866    1.4479    1.6944 H   0  0  0  0  0  0  0  0  0  0  0  0
    1.5093    1.2424    0.6323 H   0  0  0  0  0  0  0  0  0  0  0  0
    0.6059    0.3928    1.9652 H   0  0  0  0  0  0  0  0  0  0  0  0
    2.2168   -0.6669   -0.3609 H   0  0  0  0  0  0  0  0  0  0  0  0
    2.1876   -1.3351    1.2934 H   0  0  0  0  0  0  0  0  0  0  0  0
    0.3935   -2.8451    0.4436 H   0  0  0  0  0  0  0  0  0  0  0  0
   -1.7186   -1.2605   -0.5196 H   0  0  0  0  0  0  0  0  0  0  0  0
  1  2  3  0
  2  3  1  0
  3  4  1  0
  3  5  1  0
  5  6  1  0
  6  7  1  0
  7  8  1  0
  8  9  1  0
  9  3  1  0
  9  7  1  0
  1 10  1  0
  4 11  1  0
  4 12  1  0
  4 13  1  0
  5 14  1  0
  5 15  1  0
  6 16  1  0
  6 17  1  0
  7 18  1  0
  9 19  1  0
M  END
