
     RDKit          3D

 19 20  0  0  0  0  0  0  0  0999 V2000
   -3.3015    0.4821   -0.7083 C   0  0  0  0  0  0  0  0  0  0  0  0
   -2.3458   -0.1476   -0.3312 C   0  0  0  0  0  0  0  0  0  0  0  0
   -1.1719   -0.9310    0.1259 C   0  0  0  0  0  0  0  0  0  0  0  0
   -1.1764   -1.0185    1.5003 O   0  0  0  0  0  0  0  0  0  0  0  0
    0.0815   -0.3368   -0.4240 C   0  0  0  0  0  0  0  0  0  0  0  0
    0.3090    1.1280    0.0145 C   0  0  0  0  0  0  0  0  0  0  0  0
    1.7210    0.7286   -0.4302 C   0  0  0  0  0  0  0  0  0  0  0  0
    2.6368   -0.1146    0.2446 C   0  0  0  0  0  0  0  0  0  0  0  0
    1.2963   -0.5029    0.4830 C   0  0  0  0  0  0  0  0  0  0  0  0
   -4.1447    1.0367   -1.0347 H   0  0  0  0  0  0  0  0  0  0  0  0
   -1.2963   -1.9310   -0.3380 H   0  0  0  0  0  0  0  0  0  0  0  0
   -2.1328   -0.9327    1.7918 H   0  0  0  0  0  0  0  0  0  0  0  0
    0.2513   -0.4708   -1.4860 H   0  0  0  0  0  0  0  0  0  0  0  0
    0.3063    1.2951    1.0853 H   0  0  0  0  0  0  0  0  0  0  0  0
   -0.1502    1.8683   -0.6372 H   0  0  0  0  0  0  0  0  0  0  0  0
    1.6251    0.5124   -1.5444 H   0  0  0  0  0  0  0  0  0  0  0  0
    3.2782    0.3761    1.0381 H   0  0  0  0  0  0  0  0  0  0  0  0
    3.2882   -0.8435   -0.3256 H   0  0  0  0  0  0  0  0  0  0  0  0
    0.9257   -0.1978    1.5152 H   0  0  0  0  0  0  0  0  0  0  0  0
  1  2  3  0
  2  3  1  0
  3  4  1  0
  3  5  1  0
  5  6  1  0
  6  7  1  0
  7  8  1  0
  8  9  1  0
  9  5  1  0
  9  7  1  0
  1 10  1  0
  3 11  1  0
  4 12  1  0
  5 13  1  0
  6 14  1  0
  6 15  1  0
  7 16  1  0
  8 17  1  0
  8 18  1  0
  9 19  1  0
M  END
