
     RDKit          3D

 17 18  0  0  0  0  0  0  0  0999 V2000
    3.3787   -0.4148    1.3194 C   0  0  0  0  0  0  0  0  0  0  0  0
    2.1256   -0.4460    0.8633 C   0  0  0  0  0  0  0  0  0  0  0  0
    0.8133   -0.4769    0.4111 C   0  0  0  0  0  0  0  0  0  0  0  0
   -0.1975   -1.1918    1.0175 C   0  0  0  0  0  0  0  0  0  0  0  0
   -1.4476   -0.9379    0.2493 C   0  0  0  0  0  0  0  0  0  0  0  0
   -1.1470    0.5286    0.0249 C   0  0  0  0  0  0  0  0  0  0  0  0
   -0.6049    1.2830   -1.0090 C   0  0  0  0  0  0  0  0  0  0  0  0
   -1.3157    1.3861   -2.2083 O   0  0  0  0  0  0  0  0  0  0  0  0
    0.1707    0.1230   -0.7270 C   0  0  0  0  0  0  0  0  0  0  0  0
    4.3454   -0.4014    1.6595 H   0  0  0  0  0  0  0  0  0  0  0  0
   -0.0671   -1.8073    1.8818 H   0  0  0  0  0  0  0  0  0  0  0  0
   -1.4786   -1.4769   -0.6978 H   0  0  0  0  0  0  0  0  0  0  0  0
   -2.3540   -1.0700    0.8673 H   0  0  0  0  0  0  0  0  0  0  0  0
   -1.0049    0.9838    1.0553 H   0  0  0  0  0  0  0  0  0  0  0  0
   -0.0656    2.2574   -0.7727 H   0  0  0  0  0  0  0  0  0  0  0  0
   -1.2204    2.3060   -2.5418 H   0  0  0  0  0  0  0  0  0  0  0  0
    0.0697   -0.6448   -1.5526 H   0  0  0  0  0  0  0  0  0  0  0  0
  1  2  3  0
  2  3  1  0
  3  4  2  0
  4  5  1  0
  5  6  1  0
  6  7  1  0
  7  8  1  0
  7  9  1  0
  9  3  1  0
  9  6  1  0
  1 10  1  0
  4 11  1  0
  5 12  1  0
  5 13  1  0
  6 14  1  0
  7 15  1  0
  8 16  1  0
  9 17  1  0
M  END
