
     RDKit          3D

 22 21  0  0  0  0  0  0  0  0999 V2000
   -0.9690    2.6753   -0.6942 C   0  0  0  0  0  0  0  0  0  0  0  0
   -0.7624    1.4783   -0.4544 C   0  0  0  0  0  0  0  0  0  0  0  0
   -0.5070    0.0748   -0.1509 C   0  0  0  0  0  0  0  0  0  0  0  0
   -1.7011   -0.7579   -0.4705 C   0  0  0  0  0  0  0  0  0  0  0  0
   -0.0373    0.0178    1.2699 C   0  0  0  0  0  0  0  0  0  0  0  0
    0.2813   -1.3378    1.7906 C   0  0  0  0  0  0  0  0  0  0  0  0
    0.6024   -0.3416   -1.1286 C   0  0  0  0  0  0  0  0  0  0  0  0
    1.7750    0.5477   -0.8444 C   0  0  0  0  0  0  0  0  0  0  0  0
   -1.1453    3.6983   -0.9180 H   0  0  0  0  0  0  0  0  0  0  0  0
   -2.3366   -0.1691   -1.1681 H   0  0  0  0  0  0  0  0  0  0  0  0
   -1.4165   -1.6726   -1.0745 H   0  0  0  0  0  0  0  0  0  0  0  0
   -2.3167   -1.0370    0.3998 H   0  0  0  0  0  0  0  0  0  0  0  0
    0.8948    0.6640    1.3047 H   0  0  0  0  0  0  0  0  0  0  0  0
   -0.7406    0.5560    1.9438 H   0  0  0  0  0  0  0  0  0  0  0  0
   -0.6212   -1.8313    2.2130 H   0  0  0  0  0  0  0  0  0  0  0  0
    1.0710   -1.3534    2.5624 H   0  0  0  0  0  0  0  0  0  0  0  0
    0.6443   -1.9880    0.9439 H   0  0  0  0  0  0  0  0  0  0  0  0
    0.1609   -0.1606   -2.1535 H   0  0  0  0  0  0  0  0  0  0  0  0
    0.8665   -1.4185   -0.9818 H   0  0  0  0  0  0  0  0  0  0  0  0
    2.3141    0.7581   -1.8105 H   0  0  0  0  0  0  0  0  0  0  0  0
    1.4823    1.5543   -0.4660 H   0  0  0  0  0  0  0  0  0  0  0  0
    2.4612    0.0431   -0.1126 H   0  0  0  0  0  0  0  0  0  0  0  0
  1  2  3  0
  2  3  1  0
  3  4  1  0
  3  5  1  0
  5  6  1  0
  3  7  1  0
  7  8  1  0
  1  9  1  0
  4 10  1  0
  4 11  1  0
  4 12  1  0
  5 13  1  0
  5 14  1  0
  6 15  1  0
  6 16  1  0
  6 17  1  0
  7 18  1  0
  7 19  1  0
  8 20  1  0
  8 21  1  0
  8 22  1  0
M  END
