
     RDKit          3D

 17 17  0  0  0  0  0  0  0  0999 V2000
    2.4529   -0.4871    1.4163 C   0  0  0  0  0  0  0  0  0  0  0  0
    1.3506   -0.1375    1.0763 C   0  0  0  0  0  0  0  0  0  0  0  0
    0.0006    0.3151    0.6694 C   0  0  0  0  0  0  0  0  0  0  0  0
   -0.5243    1.1161    1.6541 O   0  0  0  0  0  0  0  0  0  0  0  0
    0.0998    0.9873   -0.6678 C   0  0  0  0  0  0  0  0  0  0  0  0
   -0.3033   -0.1242   -1.6459 C   0  0  0  0  0  0  0  0  0  0  0  0
   -1.3692   -0.7917   -0.8801 C   0  0  0  0  0  0  0  0  0  0  0  0
   -2.4213   -1.1756   -1.3045 O   0  0  0  0  0  0  0  0  0  0  0  0
   -0.8878   -0.8938    0.5066 C   0  0  0  0  0  0  0  0  0  0  0  0
    3.4248   -0.8038    1.7344 H   0  0  0  0  0  0  0  0  0  0  0  0
   -0.2413    2.0569    1.5273 H   0  0  0  0  0  0  0  0  0  0  0  0
   -0.6271    1.8310   -0.7812 H   0  0  0  0  0  0  0  0  0  0  0  0
    1.1421    1.3169   -0.8547 H   0  0  0  0  0  0  0  0  0  0  0  0
   -0.6393    0.2964   -2.6081 H   0  0  0  0  0  0  0  0  0  0  0  0
    0.5951   -0.7897   -1.8032 H   0  0  0  0  0  0  0  0  0  0  0  0
   -0.3307   -1.8335    0.7077 H   0  0  0  0  0  0  0  0  0  0  0  0
   -1.7217   -0.8828    1.2534 H   0  0  0  0  0  0  0  0  0  0  0  0
  1  2  3  0
  2  3  1  0
  3  4  1  0
  3  5  1  0
  5  6  1  0
  6  7  1  0
  7  8  2  0
  7  9  1  0
  9  3  1  0
  1 10  1  0
  4 11  1  0
  5 12  1  0
  5 13  1  0
  6 14  1  0
  6 15  1  0
  9 16  1  0
  9 17  1  0
M  END
