
     RDKit          3D

 16 17  0  0  0  0  0  0  0  0999 V2000
    2.1925    2.0772   -0.3246 C   0  0  0  0  0  0  0  0  0  0  0  0
    1.6736    1.0235   -0.0398 C   0  0  0  0  0  0  0  0  0  0  0  0
    1.0440   -0.2463    0.2782 C   0  0  0  0  0  0  0  0  0  0  0  0
    0.1533   -0.1738    1.3839 O   0  0  0  0  0  0  0  0  0  0  0  0
   -0.3198   -1.3634    0.8152 C   0  0  0  0  0  0  0  0  0  0  0  0
   -1.1946   -1.5286   -0.2945 C   0  0  0  0  0  0  0  0  0  0  0  0
   -0.2993   -0.4134   -0.4513 C   0  0  0  0  0  0  0  0  0  0  0  0
   -1.0428    0.9259   -0.2466 C   0  0  0  0  0  0  0  0  0  0  0  0
    2.6374    3.0122   -0.5724 H   0  0  0  0  0  0  0  0  0  0  0  0
    1.7152   -1.0912    0.2544 H   0  0  0  0  0  0  0  0  0  0  0  0
    0.5362   -2.1057    0.8542 H   0  0  0  0  0  0  0  0  0  0  0  0
   -2.3023   -1.4336   -0.0841 H   0  0  0  0  0  0  0  0  0  0  0  0
   -1.0426   -2.3769   -1.0255 H   0  0  0  0  0  0  0  0  0  0  0  0
   -2.0460    0.8791   -0.7593 H   0  0  0  0  0  0  0  0  0  0  0  0
   -1.2311    1.0466    0.8362 H   0  0  0  0  0  0  0  0  0  0  0  0
   -0.4736    1.7685   -0.6239 H   0  0  0  0  0  0  0  0  0  0  0  0
  1  2  3  0
  2  3  1  0
  3  4  1  0
  4  5  1  0
  5  6  1  0
  6  7  1  0
  7  8  1  0
  7  3  1  0
  7  5  1  0
  1  9  1  0
  3 10  1  0
  5 11  1  0
  6 12  1  0
  6 13  1  0
  8 14  1  0
  8 15  1  0
  8 16  1  0
M  END
