
     RDKit          3D

 17 18  0  0  0  0  0  0  0  0999 V2000
    2.4007   -1.1674   -2.5124 C   0  0  0  0  0  0  0  0  0  0  0  0
    1.6837   -0.4911   -1.9287 C   0  0  0  0  0  0  0  0  0  0  0  0
    0.8151    0.3010   -1.2483 C   0  0  0  0  0  0  0  0  0  0  0  0
    1.3664    1.3636   -0.4618 O   0  0  0  0  0  0  0  0  0  0  0  0
    0.1065    1.4635    0.2745 C   0  0  0  0  0  0  0  0  0  0  0  0
    0.0919   -0.0838   -0.0469 C   0  0  0  0  0  0  0  0  0  0  0  0
    0.5579   -0.9435    0.9494 O   0  0  0  0  0  0  0  0  0  0  0  0
   -0.8523   -0.8412    0.4877 C   0  0  0  0  0  0  0  0  0  0  0  0
   -1.7505   -0.2112    1.5851 C   0  0  0  0  0  0  0  0  0  0  0  0
    3.1779   -1.8876   -3.1201 H   0  0  0  0  0  0  0  0  0  0  0  0
    0.0629    0.8266   -1.9733 H   0  0  0  0  0  0  0  0  0  0  0  0
   -0.7225    1.8425   -0.3074 H   0  0  0  0  0  0  0  0  0  0  0  0
    0.2097    1.7084    1.2950 H   0  0  0  0  0  0  0  0  0  0  0  0
   -1.2661   -1.7813    0.0991 H   0  0  0  0  0  0  0  0  0  0  0  0
   -1.1625    0.2791    2.3410 H   0  0  0  0  0  0  0  0  0  0  0  0
   -2.3171    0.5799    1.0195 H   0  0  0  0  0  0  0  0  0  0  0  0
   -2.4017   -0.9577    2.0088 H   0  0  0  0  0  0  0  0  0  0  0  0
  1  2  3  0
  2  3  1  0
  3  4  1  0
  4  5  1  0
  5  6  1  0
  6  7  1  0
  7  8  1  0
  8  9  1  0
  6  3  1  0
  8  6  1  0
  1 10  1  0
  3 11  1  0
  5 12  1  0
  5 13  1  0
  8 14  1  0
  9 15  1  0
  9 16  1  0
  9 17  1  0
M  END
