
     RDKit          3D

 19 19  0  0  0  0  0  0  0  0999 V2000
    1.2039    3.1487   -0.2127 C   0  0  0  0  0  0  0  0  0  0  0  0
    0.7575    2.0651   -0.2518 C   0  0  0  0  0  0  0  0  0  0  0  0
    0.2093    0.7831   -0.3141 C   0  0  0  0  0  0  0  0  0  0  0  0
   -0.7630    0.3596   -1.1367 C   0  0  0  0  0  0  0  0  0  0  0  0
   -0.9881   -1.0750   -0.8194 C   0  0  0  0  0  0  0  0  0  0  0  0
   -2.1519   -1.1828    0.1386 C   0  0  0  0  0  0  0  0  0  0  0  0
    0.2327   -1.4876   -0.2118 O   0  0  0  0  0  0  0  0  0  0  0  0
    0.5570   -0.3865    0.5601 C   0  0  0  0  0  0  0  0  0  0  0  0
    1.9852   -0.4091    0.9566 C   0  0  0  0  0  0  0  0  0  0  0  0
    1.6276    4.2220   -0.1846 H   0  0  0  0  0  0  0  0  0  0  0  0
   -1.3026    0.9414   -1.8844 H   0  0  0  0  0  0  0  0  0  0  0  0
   -1.1211   -1.6403   -1.7520 H   0  0  0  0  0  0  0  0  0  0  0  0
   -3.0994   -1.4962   -0.3716 H   0  0  0  0  0  0  0  0  0  0  0  0
   -2.3913   -0.1827    0.6159 H   0  0  0  0  0  0  0  0  0  0  0  0
   -1.8610   -1.9245    0.9278 H   0  0  0  0  0  0  0  0  0  0  0  0
   -0.1199   -0.4378    1.4642 H   0  0  0  0  0  0  0  0  0  0  0  0
    2.1206   -0.1920    2.0607 H   0  0  0  0  0  0  0  0  0  0  0  0
    2.6263    0.3128    0.3669 H   0  0  0  0  0  0  0  0  0  0  0  0
    2.4784   -1.4180    0.8118 H   0  0  0  0  0  0  0  0  0  0  0  0
  1  2  3  0
  2  3  1  0
  3  4  2  0
  4  5  1  0
  5  6  1  0
  5  7  1  0
  7  8  1  0
  8  9  1  0
  8  3  1  0
  1 10  1  0
  4 11  1  0
  5 12  1  0
  6 13  1  0
  6 14  1  0
  6 15  1  0
  8 16  1  0
  9 17  1  0
  9 18  1  0
  9 19  1  0
M  END
