
     RDKit          3D

 19 18  0  0  0  0  0  0  0  0999 V2000
    2.6208    1.3232   -0.4645 C   0  0  0  0  0  0  0  0  0  0  0  0
    1.9663    0.3241   -0.1384 C   0  0  0  0  0  0  0  0  0  0  0  0
    1.1684   -0.8837    0.2420 C   0  0  0  0  0  0  0  0  0  0  0  0
   -0.2464   -0.7228    0.4612 C   0  0  0  0  0  0  0  0  0  0  0  0
   -0.5095   -0.0022    1.6887 O   0  0  0  0  0  0  0  0  0  0  0  0
   -1.0131   -1.9024    0.3355 C   0  0  0  0  0  0  0  0  0  0  0  0
   -1.6246   -2.8437    0.2300 C   0  0  0  0  0  0  0  0  0  0  0  0
   -0.8855    0.2902   -0.5559 C   0  0  0  0  0  0  0  0  0  0  0  0
   -0.3840    1.6770   -0.3782 C   0  0  0  0  0  0  0  0  0  0  0  0
    3.2047    2.1810   -0.7446 H   0  0  0  0  0  0  0  0  0  0  0  0
    1.6746   -1.2720    1.1956 H   0  0  0  0  0  0  0  0  0  0  0  0
    1.4436   -1.6510   -0.5364 H   0  0  0  0  0  0  0  0  0  0  0  0
   -1.1668    0.7205    1.5619 H   0  0  0  0  0  0  0  0  0  0  0  0
   -2.2535   -3.7995    0.1098 H   0  0  0  0  0  0  0  0  0  0  0  0
   -0.8554   -0.0405   -1.5845 H   0  0  0  0  0  0  0  0  0  0  0  0
   -1.9923    0.3029   -0.2519 H   0  0  0  0  0  0  0  0  0  0  0  0
   -0.0232    2.0935   -1.3627 H   0  0  0  0  0  0  0  0  0  0  0  0
   -1.3844    2.3034   -0.2516 H   0  0  0  0  0  0  0  0  0  0  0  0
    0.2601    1.9021    0.4438 H   0  0  0  0  0  0  0  0  0  0  0  0
  1  2  3  0
  2  3  1  0
  3  4  1  0
  4  5  1  0
  4  6  1  0
  6  7  3  0
  4  8  1  0
  8  9  1  0
  1 10  1  0
  3 11  1  0
  3 12  1  0
  5 13  1  0
  7 14  1  0
  8 15  1  0
  8 16  1  0
  9 17  1  0
  9 18  1  0
  9 19  1  0
M  END
