
     RDKit          3D

 15 15  0  0  0  0  0  0  0  0999 V2000
   -2.4393    0.9856   -0.3575 C   0  0  0  0  0  0  0  0  0  0  0  0
   -1.8286    0.1983    0.0112 C   0  0  0  0  0  0  0  0  0  0  0  0
   -0.9439   -0.9096    0.5175 C   0  0  0  0  0  0  0  0  0  0  0  0
   -0.1055   -1.5249   -0.5662 C   0  0  0  0  0  0  0  0  0  0  0  0
    0.5739   -0.6808    0.4103 C   0  0  0  0  0  0  0  0  0  0  0  0
    0.9146    0.7136    0.0770 C   0  0  0  0  0  0  0  0  0  0  0  0
    0.2463    1.3972   -0.7092 O   0  0  0  0  0  0  0  0  0  0  0  0
    2.0799    1.2931    0.7045 C   0  0  0  0  0  0  0  0  0  0  0  0
    2.8737    0.6472    1.3894 O   0  0  0  0  0  0  0  0  0  0  0  0
   -3.1477    1.8826   -0.7690 H   0  0  0  0  0  0  0  0  0  0  0  0
   -1.3032   -1.4805    1.3673 H   0  0  0  0  0  0  0  0  0  0  0  0
   -0.0579   -2.6215   -0.5603 H   0  0  0  0  0  0  0  0  0  0  0  0
   -0.2863   -1.1104   -1.6088 H   0  0  0  0  0  0  0  0  0  0  0  0
    1.1664   -1.1763    1.2479 H   0  0  0  0  0  0  0  0  0  0  0  0
    2.2575    2.3865    0.5528 H   0  0  0  0  0  0  0  0  0  0  0  0
  1  2  3  0
  2  3  1  0
  3  4  1  0
  4  5  1  0
  5  6  1  0
  6  7  2  0
  6  8  1  0
  8  9  2  0
  5  3  1  0
  1 10  1  0
  3 11  1  0
  4 12  1  0
  4 13  1  0
  5 14  1  0
  8 15  1  0
M  END
