
     RDKit          3D

 14 15  0  0  0  0  0  0  0  0999 V2000
    2.8932    0.1260   -0.2160 C   0  0  0  0  0  0  0  0  0  0  0  0
    1.6927    0.2713   -0.2023 C   0  0  0  0  0  0  0  0  0  0  0  0
    0.2314    0.4398   -0.1971 C   0  0  0  0  0  0  0  0  0  0  0  0
   -0.2182    1.7074   -0.4972 O   0  0  0  0  0  0  0  0  0  0  0  0
   -0.4138   -0.2460    0.9702 C   0  0  0  0  0  0  0  0  0  0  0  0
   -1.6726   -0.3009    0.1815 C   0  0  0  0  0  0  0  0  0  0  0  0
   -0.5475   -0.7116   -0.7189 C   0  0  0  0  0  0  0  0  0  0  0  0
   -0.0530   -1.4397    0.3578 O   0  0  0  0  0  0  0  0  0  0  0  0
    3.9585   -0.0163   -0.2152 H   0  0  0  0  0  0  0  0  0  0  0  0
   -0.4508    1.7183   -1.4601 H   0  0  0  0  0  0  0  0  0  0  0  0
   -0.2978   -0.0137    1.9441 H   0  0  0  0  0  0  0  0  0  0  0  0
   -2.3347   -1.1311    0.5389 H   0  0  0  0  0  0  0  0  0  0  0  0
   -2.1640    0.6315   -0.0902 H   0  0  0  0  0  0  0  0  0  0  0  0
   -0.6236   -1.0351   -1.6710 H   0  0  0  0  0  0  0  0  0  0  0  0
  1  2  3  0
  2  3  1  0
  3  4  1  0
  3  5  1  0
  5  6  1  0
  6  7  1  0
  7  8  1  0
  7  3  1  0
  8  5  1  0
  1  9  1  0
  4 10  1  0
  5 11  1  0
  6 12  1  0
  6 13  1  0
  7 14  1  0
M  END
