
     RDKit          3D

 15 16  0  0  0  0  0  0  0  0999 V2000
    3.0258   -0.0220    0.0359 C   0  0  0  0  0  0  0  0  0  0  0  0
    1.8505   -0.2927   -0.0048 C   0  0  0  0  0  0  0  0  0  0  0  0
    0.4146   -0.6066   -0.0730 C   0  0  0  0  0  0  0  0  0  0  0  0
   -0.4250    0.4229   -0.7731 C   0  0  0  0  0  0  0  0  0  0  0  0
   -0.1179    1.2989    0.3843 C   0  0  0  0  0  0  0  0  0  0  0  0
    0.1933    2.4427    0.5583 O   0  0  0  0  0  0  0  0  0  0  0  0
   -0.4155    0.0021    1.0108 C   0  0  0  0  0  0  0  0  0  0  0  0
   -1.5767   -0.0786    0.0480 C   0  0  0  0  0  0  0  0  0  0  0  0
   -2.0276   -1.3508   -0.2338 O   0  0  0  0  0  0  0  0  0  0  0  0
    4.0532    0.2335    0.0711 H   0  0  0  0  0  0  0  0  0  0  0  0
    0.2538   -1.6497   -0.3238 H   0  0  0  0  0  0  0  0  0  0  0  0
   -0.4171    0.6700   -1.7403 H   0  0  0  0  0  0  0  0  0  0  0  0
   -0.4321   -0.2275    1.9833 H   0  0  0  0  0  0  0  0  0  0  0  0
   -2.3768    0.6788    0.2660 H   0  0  0  0  0  0  0  0  0  0  0  0
   -2.0025   -1.5210   -1.2089 H   0  0  0  0  0  0  0  0  0  0  0  0
  1  2  3  0
  2  3  1  0
  3  4  1  0
  4  5  1  0
  5  6  2  0
  5  7  1  0
  7  8  1  0
  8  9  1  0
  7  3  1  0
  8  4  1  0
  1 10  1  0
  3 11  1  0
  4 12  1  0
  7 13  1  0
  8 14  1  0
  9 15  1  0
M  END
