
     RDKit          3D

 19 18  0  0  0  0  0  0  0  0999 V2000
   -0.7624    3.2231   -0.6340 C   0  0  0  0  0  0  0  0  0  0  0  0
   -0.6848    2.0169   -0.6985 C   0  0  0  0  0  0  0  0  0  0  0  0
   -0.5907    0.4453   -0.8069 C   0  0  0  0  0  0  0  0  0  0  0  0
   -1.9783    0.1173   -0.5597 O   0  0  0  0  0  0  0  0  0  0  0  0
   -0.1648    0.0866   -2.0975 C   0  0  0  0  0  0  0  0  0  0  0  0
   -1.0994   -0.4198   -2.8715 O   0  0  0  0  0  0  0  0  0  0  0  0
    0.1491    0.1297    0.4325 C   0  0  0  0  0  0  0  0  0  0  0  0
    0.4820   -1.2797    0.6474 C   0  0  0  0  0  0  0  0  0  0  0  0
    1.2129   -1.4373    1.9856 C   0  0  0  0  0  0  0  0  0  0  0  0
   -0.8448    4.2920   -0.5644 H   0  0  0  0  0  0  0  0  0  0  0  0
   -2.1643   -0.5788   -1.2656 H   0  0  0  0  0  0  0  0  0  0  0  0
    0.7489    0.1360   -2.5901 H   0  0  0  0  0  0  0  0  0  0  0  0
    1.0695    0.7960    0.5570 H   0  0  0  0  0  0  0  0  0  0  0  0
   -0.5210    0.4754    1.2852 H   0  0  0  0  0  0  0  0  0  0  0  0
   -0.3361   -1.9676    0.4977 H   0  0  0  0  0  0  0  0  0  0  0  0
    1.2380   -1.5453   -0.1868 H   0  0  0  0  0  0  0  0  0  0  0  0
    0.5145   -1.7228    2.7986 H   0  0  0  0  0  0  0  0  0  0  0  0
    1.9821   -2.2654    1.8974 H   0  0  0  0  0  0  0  0  0  0  0  0
    1.7496   -0.5019    2.1734 H   0  0  0  0  0  0  0  0  0  0  0  0
  1  2  3  0
  2  3  1  0
  3  4  1  0
  3  5  1  0
  5  6  2  0
  3  7  1  0
  7  8  1  0
  8  9  1  0
  1 10  1  0
  4 11  1  0
  5 12  1  0
  7 13  1  0
  7 14  1  0
  8 15  1  0
  8 16  1  0
  9 17  1  0
  9 18  1  0
  9 19  1  0
M  END
