
     RDKit          3D

 21 20  0  0  0  0  0  0  0  0999 V2000
    4.0135    0.5157   -0.2419 C   0  0  0  0  0  0  0  0  0  0  0  0
    3.1176   -0.2318    0.1008 C   0  0  0  0  0  0  0  0  0  0  0  0
    2.0532   -1.1222    0.5339 C   0  0  0  0  0  0  0  0  0  0  0  0
    0.7403   -0.4282    0.6785 C   0  0  0  0  0  0  0  0  0  0  0  0
    0.4760    0.1748    1.6838 O   0  0  0  0  0  0  0  0  0  0  0  0
   -0.1975   -0.5198   -0.4571 C   0  0  0  0  0  0  0  0  0  0  0  0
   -1.5013    0.1874   -0.2396 C   0  0  0  0  0  0  0  0  0  0  0  0
   -1.3829    1.6484    0.0142 C   0  0  0  0  0  0  0  0  0  0  0  0
   -2.3167   -0.4532    0.8434 C   0  0  0  0  0  0  0  0  0  0  0  0
    4.8055    1.1557   -0.5316 H   0  0  0  0  0  0  0  0  0  0  0  0
    2.3921   -1.5495    1.5169 H   0  0  0  0  0  0  0  0  0  0  0  0
    1.9574   -2.0198   -0.1351 H   0  0  0  0  0  0  0  0  0  0  0  0
   -0.4505   -1.6044   -0.5793 H   0  0  0  0  0  0  0  0  0  0  0  0
    0.3010   -0.1284   -1.3731 H   0  0  0  0  0  0  0  0  0  0  0  0
   -2.0614    0.0810   -1.2187 H   0  0  0  0  0  0  0  0  0  0  0  0
   -2.4080    2.0857   -0.1821 H   0  0  0  0  0  0  0  0  0  0  0  0
   -0.6940    2.1813   -0.6648 H   0  0  0  0  0  0  0  0  0  0  0  0
   -1.1899    1.9050    1.0919 H   0  0  0  0  0  0  0  0  0  0  0  0
   -3.3933   -0.4176    0.5518 H   0  0  0  0  0  0  0  0  0  0  0  0
   -2.2523    0.0575    1.8267 H   0  0  0  0  0  0  0  0  0  0  0  0
   -2.0090   -1.5175    1.0383 H   0  0  0  0  0  0  0  0  0  0  0  0
  1  2  3  0
  2  3  1  0
  3  4  1  0
  4  5  2  0
  4  6  1  0
  6  7  1  0
  7  8  1  0
  7  9  1  0
  1 10  1  0
  3 11  1  0
  3 12  1  0
  6 13  1  0
  6 14  1  0
  7 15  1  0
  8 16  1  0
  8 17  1  0
  8 18  1  0
  9 19  1  0
  9 20  1  0
  9 21  1  0
M  END
