
     RDKit          3D

 19 19  0  0  0  0  0  0  0  0999 V2000
    1.3335    2.5945   -0.3371 C   0  0  0  0  0  0  0  0  0  0  0  0
    0.8097    1.5272   -0.5712 C   0  0  0  0  0  0  0  0  0  0  0  0
    0.1681    0.2636   -0.8671 C   0  0  0  0  0  0  0  0  0  0  0  0
   -0.2929   -0.6216   -0.0231 C   0  0  0  0  0  0  0  0  0  0  0  0
   -0.2866   -0.5756    1.4377 C   0  0  0  0  0  0  0  0  0  0  0  0
    0.3106    0.6249    2.0759 C   0  0  0  0  0  0  0  0  0  0  0  0
   -0.8616   -1.7687   -0.8538 C   0  0  0  0  0  0  0  0  0  0  0  0
   -0.0729   -1.6546   -2.0159 O   0  0  0  0  0  0  0  0  0  0  0  0
   -0.1007   -0.2759   -2.2502 C   0  0  0  0  0  0  0  0  0  0  0  0
    1.7996    3.5346   -0.1489 H   0  0  0  0  0  0  0  0  0  0  0  0
   -1.3213   -0.7148    1.8731 H   0  0  0  0  0  0  0  0  0  0  0  0
    0.2674   -1.4835    1.8205 H   0  0  0  0  0  0  0  0  0  0  0  0
    1.3656    0.7906    1.8547 H   0  0  0  0  0  0  0  0  0  0  0  0
   -0.2535    1.5318    1.7729 H   0  0  0  0  0  0  0  0  0  0  0  0
    0.1728    0.5250    3.1819 H   0  0  0  0  0  0  0  0  0  0  0  0
   -1.9184   -1.6351   -1.0685 H   0  0  0  0  0  0  0  0  0  0  0  0
   -0.5648   -2.6917   -0.3536 H   0  0  0  0  0  0  0  0  0  0  0  0
    0.6133    0.0783   -2.9853 H   0  0  0  0  0  0  0  0  0  0  0  0
   -1.1679   -0.0491   -2.5419 H   0  0  0  0  0  0  0  0  0  0  0  0
  1  2  3  0
  2  3  1  0
  3  4  2  0
  4  5  1  0
  5  6  1  0
  4  7  1  0
  7  8  1  0
  8  9  1  0
  9  3  1  0
  1 10  1  0
  5 11  1  0
  5 12  1  0
  6 13  1  0
  6 14  1  0
  6 15  1  0
  7 16  1  0
  7 17  1  0
  9 18  1  0
  9 19  1  0
M  END
