
     RDKit          3D

 15 14  0  0  0  0  0  0  0  0999 V2000
    2.7395   -1.4889   -0.0474 C   0  0  0  0  0  0  0  0  0  0  0  0
    1.3650   -0.5053    0.0868 C   0  0  0  0  0  0  0  0  0  0  0  0
    0.3391    0.2494    0.2027 C   0  0  0  0  0  0  0  0  0  0  0  0
    0.0975    0.4146   -1.4036 O   0  0  0  0  0  0  0  0  0  0  0  0
    0.4597    1.2773    0.5925 C   0  0  0  0  0  0  0  0  0  0  0  0
    0.5863    2.5187    1.0473 C   0  0  0  0  0  0  0  0  0  0  0  0
   -0.8055   -0.7737    0.3959 C   0  0  0  0  0  0  0  0  0  0  0  0
   -2.2677   -0.5298    0.2986 C   0  0  0  0  0  0  0  0  0  0  0  0
   -0.4117   -2.0282    0.7049 O   0  0  0  0  0  0  0  0  0  0  0  0
    3.7995   -2.2529   -0.1392 H   0  0  0  0  0  0  0  0  0  0  0  0
    1.0654    0.6788   -1.5804 H   0  0  0  0  0  0  0  0  0  0  0  0
    0.7013    3.8129    1.5397 H   0  0  0  0  0  0  0  0  0  0  0  0
   -2.3556    0.5914    0.4745 H   0  0  0  0  0  0  0  0  0  0  0  0
   -2.7689   -1.0890    1.0833 H   0  0  0  0  0  0  0  0  0  0  0  0
   -2.5438   -0.8752   -0.6975 H   0  0  0  0  0  0  0  0  0  0  0  0
  1  2  3  0
  2  3  1  0
  3  4  1  0
  3  5  1  0
  5  6  3  0
  3  7  1  0
  7  8  1  0
  7  9  2  0
  1 10  1  0
  4 11  1  0
  6 12  1  0
  8 13  1  0
  8 14  1  0
  8 15  1  0
M  END
