
     RDKit          3D

 17 17  0  0  0  0  0  0  0  0999 V2000
    3.4680    0.7399    0.8635 C   0  0  0  0  0  0  0  0  0  0  0  0
    2.3397    0.4914    0.5148 C   0  0  0  0  0  0  0  0  0  0  0  0
    0.9842    0.1992    0.1215 C   0  0  0  0  0  0  0  0  0  0  0  0
    0.3755    0.9233   -0.8044 C   0  0  0  0  0  0  0  0  0  0  0  0
   -1.0013    0.6572   -1.2307 C   0  0  0  0  0  0  0  0  0  0  0  0
   -1.7811   -0.0811   -0.1765 C   0  0  0  0  0  0  0  0  0  0  0  0
   -1.0517   -1.2860    0.3537 C   0  0  0  0  0  0  0  0  0  0  0  0
    0.3186   -0.9123    0.7767 C   0  0  0  0  0  0  0  0  0  0  0  0
    0.8969   -1.5546    1.6953 O   0  0  0  0  0  0  0  0  0  0  0  0
    4.4554    0.9693    1.1818 H   0  0  0  0  0  0  0  0  0  0  0  0
    0.9122    1.7414   -1.2642 H   0  0  0  0  0  0  0  0  0  0  0  0
   -0.9681    0.0365   -2.1454 H   0  0  0  0  0  0  0  0  0  0  0  0
   -1.5680    1.6090   -1.4296 H   0  0  0  0  0  0  0  0  0  0  0  0
   -1.9237    0.6292    0.6755 H   0  0  0  0  0  0  0  0  0  0  0  0
   -2.7659   -0.3923   -0.5845 H   0  0  0  0  0  0  0  0  0  0  0  0
   -1.0423   -2.1262   -0.3640 H   0  0  0  0  0  0  0  0  0  0  0  0
   -1.6484   -1.6439    1.2419 H   0  0  0  0  0  0  0  0  0  0  0  0
  1  2  3  0
  2  3  1  0
  3  4  2  0
  4  5  1  0
  5  6  1  0
  6  7  1  0
  7  8  1  0
  8  9  2  0
  8  3  1  0
  1 10  1  0
  4 11  1  0
  5 12  1  0
  5 13  1  0
  6 14  1  0
  6 15  1  0
  7 16  1  0
  7 17  1  0
M  END
