
     RDKit          3D

 25 24  0  0  0  0  0  0  0  0999 V2000
   -3.3090    2.1170   -0.4005 C   0  0  0  0  0  0  0  0  0  0  0  0
   -2.5449    1.2452   -0.0640 C   0  0  0  0  0  0  0  0  0  0  0  0
   -1.6169    0.1884    0.3436 C   0  0  0  0  0  0  0  0  0  0  0  0
   -1.6874    0.0979    1.8525 C   0  0  0  0  0  0  0  0  0  0  0  0
   -0.2068    0.5920   -0.0557 C   0  0  0  0  0  0  0  0  0  0  0  0
    0.7041   -0.5332    0.3886 C   0  0  0  0  0  0  0  0  0  0  0  0
    0.3549   -1.8361   -0.2551 C   0  0  0  0  0  0  0  0  0  0  0  0
    2.1433   -0.1510    0.2755 C   0  0  0  0  0  0  0  0  0  0  0  0
    2.5873    0.2039   -1.1017 C   0  0  0  0  0  0  0  0  0  0  0  0
   -3.9774    2.9026   -0.7116 H   0  0  0  0  0  0  0  0  0  0  0  0
   -1.9237   -0.7659   -0.1235 H   0  0  0  0  0  0  0  0  0  0  0  0
   -2.6634    0.4460    2.2429 H   0  0  0  0  0  0  0  0  0  0  0  0
   -1.5906   -0.9755    2.1130 H   0  0  0  0  0  0  0  0  0  0  0  0
   -0.8447    0.6507    2.3467 H   0  0  0  0  0  0  0  0  0  0  0  0
    0.0523    1.4770    0.5560 H   0  0  0  0  0  0  0  0  0  0  0  0
   -0.1243    0.7959   -1.1353 H   0  0  0  0  0  0  0  0  0  0  0  0
    0.5016   -0.6596    1.4936 H   0  0  0  0  0  0  0  0  0  0  0  0
    1.1722   -2.5507   -0.3200 H   0  0  0  0  0  0  0  0  0  0  0  0
    0.0614   -1.5978   -1.3203 H   0  0  0  0  0  0  0  0  0  0  0  0
   -0.5104   -2.3371    0.2520 H   0  0  0  0  0  0  0  0  0  0  0  0
    2.3090    0.7253    0.9486 H   0  0  0  0  0  0  0  0  0  0  0  0
    2.8016   -0.9536    0.6595 H   0  0  0  0  0  0  0  0  0  0  0  0
    2.5335   -0.6581   -1.7857 H   0  0  0  0  0  0  0  0  0  0  0  0
    3.6797    0.4674   -1.0303 H   0  0  0  0  0  0  0  0  0  0  0  0
    2.0988    1.1094   -1.5083 H   0  0  0  0  0  0  0  0  0  0  0  0
  1  2  3  0
  2  3  1  0
  3  4  1  0
  3  5  1  0
  5  6  1  0
  6  7  1  0
  6  8  1  0
  8  9  1  0
  1 10  1  0
  3 11  1  0
  4 12  1  0
  4 13  1  0
  4 14  1  0
  5 15  1  0
  5 16  1  0
  6 17  1  0
  7 18  1  0
  7 19  1  0
  7 20  1  0
  8 21  1  0
  8 22  1  0
  9 23  1  0
  9 24  1  0
  9 25  1  0
M  END
