
     RDKit          3D

 21 21  0  0  0  0  0  0  0  0999 V2000
    1.9414    2.5276   -0.0852 C   0  0  0  0  0  0  0  0  0  0  0  0
    1.3612    1.6172   -0.0558 C   0  0  0  0  0  0  0  0  0  0  0  0
    0.6073    0.4051   -0.0038 C   0  0  0  0  0  0  0  0  0  0  0  0
    1.0492   -0.7166   -0.8855 C   0  0  0  0  0  0  0  0  0  0  0  0
    0.2337   -1.9663   -0.5666 C   0  0  0  0  0  0  0  0  0  0  0  0
   -1.0345   -1.5987    0.1143 C   0  0  0  0  0  0  0  0  0  0  0  0
   -1.5952   -0.4351   -0.3979 O   0  0  0  0  0  0  0  0  0  0  0  0
   -0.8628    0.6707   -0.1157 C   0  0  0  0  0  0  0  0  0  0  0  0
   -1.3623    1.1057    1.2913 C   0  0  0  0  0  0  0  0  0  0  0  0
    2.5933    3.5148   -0.1257 H   0  0  0  0  0  0  0  0  0  0  0  0
    0.6758   -0.0301    1.1057 H   0  0  0  0  0  0  0  0  0  0  0  0
    1.0105   -0.4165   -1.9619 H   0  0  0  0  0  0  0  0  0  0  0  0
    2.1365   -0.9300   -0.6304 H   0  0  0  0  0  0  0  0  0  0  0  0
   -0.0380   -2.5106   -1.5284 H   0  0  0  0  0  0  0  0  0  0  0  0
    0.9132   -2.6507   -0.0452 H   0  0  0  0  0  0  0  0  0  0  0  0
   -1.7087   -2.4637    0.1624 H   0  0  0  0  0  0  0  0  0  0  0  0
   -0.7628   -1.3767    1.1889 H   0  0  0  0  0  0  0  0  0  0  0  0
   -0.9708    1.5387   -0.7905 H   0  0  0  0  0  0  0  0  0  0  0  0
   -2.3712    0.7762    1.4950 H   0  0  0  0  0  0  0  0  0  0  0  0
   -1.2313    2.2231    1.3016 H   0  0  0  0  0  0  0  0  0  0  0  0
   -0.5845    0.7157    2.0045 H   0  0  0  0  0  0  0  0  0  0  0  0
  1  2  3  0
  2  3  1  0
  3  4  1  0
  4  5  1  0
  5  6  1  0
  6  7  1  0
  7  8  1  0
  8  9  1  0
  8  3  1  0
  1 10  1  0
  3 11  1  0
  4 12  1  0
  4 13  1  0
  5 14  1  0
  5 15  1  0
  6 16  1  0
  6 17  1  0
  8 18  1  0
  9 19  1  0
  9 20  1  0
  9 21  1  0
M  END
