
     RDKit          3D

 18 18  0  0  0  0  0  0  0  0999 V2000
   -1.5180   -2.4475    0.1896 C   0  0  0  0  0  0  0  0  0  0  0  0
   -1.1581   -1.1868   -0.0436 C   0  0  0  0  0  0  0  0  0  0  0  0
   -0.8225   -0.0383   -0.2464 C   0  0  0  0  0  0  0  0  0  0  0  0
   -1.3514    1.1052    0.7042 C   0  0  0  0  0  0  0  0  0  0  0  0
    0.5690   -0.2443    0.7968 O   0  0  0  0  0  0  0  0  0  0  0  0
    0.8991   -0.9581   -0.3403 C   0  0  0  0  0  0  0  0  0  0  0  0
    0.4374    0.2948   -1.0561 C   0  0  0  0  0  0  0  0  0  0  0  0
    1.4399    1.3656   -0.4409 C   0  0  0  0  0  0  0  0  0  0  0  0
   -1.9439   -3.9072    0.4497 H   0  0  0  0  0  0  0  0  0  0  0  0
   -1.5658    1.9705   -0.0231 H   0  0  0  0  0  0  0  0  0  0  0  0
   -0.7163    1.4260    1.5055 H   0  0  0  0  0  0  0  0  0  0  0  0
   -2.3560    0.7200    1.0303 H   0  0  0  0  0  0  0  0  0  0  0  0
    2.0628   -1.0300   -0.5319 H   0  0  0  0  0  0  0  0  0  0  0  0
    0.4989   -1.9164   -0.5681 H   0  0  0  0  0  0  0  0  0  0  0  0
    0.4603    0.3330   -2.0876 H   0  0  0  0  0  0  0  0  0  0  0  0
    2.0526    1.7179   -1.2918 H   0  0  0  0  0  0  0  0  0  0  0  0
    0.8852    2.0491    0.1423 H   0  0  0  0  0  0  0  0  0  0  0  0
    2.1269    0.7464    0.2242 H   0  0  0  0  0  0  0  0  0  0  0  0
  1  2  3  0
  2  3  1  0
  3  4  1  0
  3  5  1  0
  5  6  1  0
  6  7  1  0
  7  8  1  0
  7  3  1  0
  1  9  1  0
  4 10  1  0
  4 11  1  0
  4 12  1  0
  6 13  1  0
  6 14  1  0
  7 15  1  0
  8 16  1  0
  8 17  1  0
  8 18  1  0
M  END
