
     RDKit          3D

 19 18  0  0  0  0  0  0  0  0999 V2000
    1.8018    0.6602    2.1782 C   0  0  0  0  0  0  0  0  0  0  0  0
    1.2820    0.5269    1.0964 C   0  0  0  0  0  0  0  0  0  0  0  0
    0.6721    0.3525   -0.2232 C   0  0  0  0  0  0  0  0  0  0  0  0
    1.7073   -0.1980   -1.1828 C   0  0  0  0  0  0  0  0  0  0  0  0
    1.1881   -0.3854   -2.4544 O   0  0  0  0  0  0  0  0  0  0  0  0
   -0.4861   -0.6009   -0.0691 C   0  0  0  0  0  0  0  0  0  0  0  0
   -1.4527    0.0108    0.8989 C   0  0  0  0  0  0  0  0  0  0  0  0
   -2.6365    0.7004    0.3200 C   0  0  0  0  0  0  0  0  0  0  0  0
   -1.2292   -0.0833    2.0845 O   0  0  0  0  0  0  0  0  0  0  0  0
    2.2798    0.7737    3.1378 H   0  0  0  0  0  0  0  0  0  0  0  0
    0.3322    1.3381   -0.6385 H   0  0  0  0  0  0  0  0  0  0  0  0
    2.5587    0.4777   -1.2684 H   0  0  0  0  0  0  0  0  0  0  0  0
    2.0124   -1.1955   -0.7867 H   0  0  0  0  0  0  0  0  0  0  0  0
    1.8558   -0.9510   -2.9483 H   0  0  0  0  0  0  0  0  0  0  0  0
   -0.0722   -1.5480    0.3318 H   0  0  0  0  0  0  0  0  0  0  0  0
   -0.9404   -0.8198   -1.0407 H   0  0  0  0  0  0  0  0  0  0  0  0
   -3.2940    1.0112    1.1633 H   0  0  0  0  0  0  0  0  0  0  0  0
   -3.2479    0.0168   -0.3197 H   0  0  0  0  0  0  0  0  0  0  0  0
   -2.3311    1.6100   -0.2792 H   0  0  0  0  0  0  0  0  0  0  0  0
  1  2  3  0
  2  3  1  0
  3  4  1  0
  4  5  1  0
  3  6  1  0
  6  7  1  0
  7  8  1  0
  7  9  2  0
  1 10  1  0
  3 11  1  0
  4 12  1  0
  4 13  1  0
  5 14  1  0
  6 15  1  0
  6 16  1  0
  8 17  1  0
  8 18  1  0
  8 19  1  0
M  END
