
     RDKit          3D

 12 11  0  0  0  0  0  0  0  0999 V2000
   -3.6244    0.3418   -0.0897 C   0  0  0  0  0  0  0  0  0  0  0  0
   -2.5774    0.2338    0.0772 C   0  0  0  0  0  0  0  0  0  0  0  0
   -1.1753    0.1017    0.3174 C   0  0  0  0  0  0  0  0  0  0  0  0
   -0.0778   -0.0168    0.5185 C   0  0  0  0  0  0  0  0  0  0  0  0
    1.7150   -0.2237    0.8483 C   0  0  0  0  0  0  0  0  0  0  0  0
    1.6084   -1.4892    1.2437 O   0  0  0  0  0  0  0  0  0  0  0  0
    1.7868    0.2102   -0.3187 C   0  0  0  0  0  0  0  0  0  0  0  0
    1.8803    0.8164   -1.8657 C   0  0  0  0  0  0  0  0  0  0  0  0
   -4.5385    0.4502   -0.2271 H   0  0  0  0  0  0  0  0  0  0  0  0
    1.5724    0.5422    1.7347 H   0  0  0  0  0  0  0  0  0  0  0  0
    1.5189   -2.0132    0.3102 H   0  0  0  0  0  0  0  0  0  0  0  0
    1.9117    1.0466   -2.4249 H   0  0  0  0  0  0  0  0  0  0  0  0
  1  2  3  0
  2  3  1  0
  3  4  3  0
  4  5  1  0
  5  6  1  0
  5  7  1  0
  7  8  3  0
  1  9  1  0
  5 10  1  0
  6 11  1  0
  8 12  1  0
M  END
