
     RDKit          3D

 17 17  0  0  0  0  0  0  0  0999 V2000
    1.6420    0.4270    2.9838 C   0  0  0  0  0  0  0  0  0  0  0  0
    1.8104    0.4146    1.8731 C   0  0  0  0  0  0  0  0  0  0  0  0
    2.0089    0.4155    0.4376 C   0  0  0  0  0  0  0  0  0  0  0  0
    3.0823    0.8801   -0.0135 O   0  0  0  0  0  0  0  0  0  0  0  0
    1.0090   -0.1020   -0.5003 C   0  0  0  0  0  0  0  0  0  0  0  0
    0.3406   -1.4009   -0.0276 C   0  0  0  0  0  0  0  0  0  0  0  0
   -0.4356   -0.1053   -0.1814 C   0  0  0  0  0  0  0  0  0  0  0  0
   -1.3287   -0.1206   -1.2438 O   0  0  0  0  0  0  0  0  0  0  0  0
   -2.5041    0.5628   -0.9592 C   0  0  0  0  0  0  0  0  0  0  0  0
    1.4744    0.4198    4.0915 H   0  0  0  0  0  0  0  0  0  0  0  0
    1.2674   -0.0424   -1.5820 H   0  0  0  0  0  0  0  0  0  0  0  0
    0.5842   -1.7769    0.9743 H   0  0  0  0  0  0  0  0  0  0  0  0
    0.2547   -2.1727   -0.8092 H   0  0  0  0  0  0  0  0  0  0  0  0
   -0.7000    0.4184    0.7695 H   0  0  0  0  0  0  0  0  0  0  0  0
   -2.3409    1.6276   -0.7133 H   0  0  0  0  0  0  0  0  0  0  0  0
   -3.0248    0.0645   -0.1299 H   0  0  0  0  0  0  0  0  0  0  0  0
   -3.1399    0.4905   -1.8734 H   0  0  0  0  0  0  0  0  0  0  0  0
  1  2  3  0
  2  3  1  0
  3  4  2  0
  3  5  1  0
  5  6  1  0
  6  7  1  0
  7  8  1  0
  8  9  1  0
  7  5  1  0
  1 10  1  0
  5 11  1  0
  6 12  1  0
  6 13  1  0
  7 14  1  0
  9 15  1  0
  9 16  1  0
  9 17  1  0
M  END
