
     RDKit          3D

 19 19  0  0  0  0  0  0  0  0999 V2000
    2.7511    0.8981    1.9665 C   0  0  0  0  0  0  0  0  0  0  0  0
    1.8954    0.5095    1.1088 C   0  0  0  0  0  0  0  0  0  0  0  0
    1.0168    0.0918    0.2387 C   0  0  0  0  0  0  0  0  0  0  0  0
    1.5429   -1.1719   -0.5781 C   0  0  0  0  0  0  0  0  0  0  0  0
    0.0023    0.8414   -0.5563 C   0  0  0  0  0  0  0  0  0  0  0  0
   -0.9531   -0.1836    0.0028 C   0  0  0  0  0  0  0  0  0  0  0  0
   -2.3577    0.2915    0.2189 C   0  0  0  0  0  0  0  0  0  0  0  0
   -2.8463    0.4998   -1.0887 O   0  0  0  0  0  0  0  0  0  0  0  0
   -0.1269   -0.4582    1.0022 O   0  0  0  0  0  0  0  0  0  0  0  0
    3.4703    1.2059    2.6711 H   0  0  0  0  0  0  0  0  0  0  0  0
    2.1814   -1.7036    0.1646 H   0  0  0  0  0  0  0  0  0  0  0  0
    0.7847   -1.8640   -0.9335 H   0  0  0  0  0  0  0  0  0  0  0  0
    2.0939   -0.7719   -1.4395 H   0  0  0  0  0  0  0  0  0  0  0  0
   -0.2027    1.8495   -0.2123 H   0  0  0  0  0  0  0  0  0  0  0  0
    0.0594    0.7724   -1.6969 H   0  0  0  0  0  0  0  0  0  0  0  0
   -1.0281   -1.0626   -0.7655 H   0  0  0  0  0  0  0  0  0  0  0  0
   -2.5025    1.2002    0.7679 H   0  0  0  0  0  0  0  0  0  0  0  0
   -2.9564   -0.5467    0.6275 H   0  0  0  0  0  0  0  0  0  0  0  0
   -2.8245   -0.3976   -1.4983 H   0  0  0  0  0  0  0  0  0  0  0  0
  1  2  3  0
  2  3  1  0
  3  4  1  0
  3  5  1  0
  5  6  1  0
  6  7  1  0
  7  8  1  0
  6  9  1  0
  9  3  1  0
  1 10  1  0
  4 11  1  0
  4 12  1  0
  4 13  1  0
  5 14  1  0
  5 15  1  0
  6 16  1  0
  7 17  1  0
  7 18  1  0
  8 19  1  0
M  END
