
     RDKit          3D

 15 15  0  0  0  0  0  0  0  0999 V2000
    3.2531    0.8558    0.3562 C   0  0  0  0  0  0  0  0  0  0  0  0
    2.2064    0.3470    0.6767 C   0  0  0  0  0  0  0  0  0  0  0  0
    0.9118   -0.2589    1.0640 C   0  0  0  0  0  0  0  0  0  0  0  0
   -0.2227    0.5256    0.5456 C   0  0  0  0  0  0  0  0  0  0  0  0
   -0.9351   -0.1970   -0.2911 C   0  0  0  0  0  0  0  0  0  0  0  0
   -2.1549    0.3065   -0.9914 C   0  0  0  0  0  0  0  0  0  0  0  0
   -0.3202   -1.4988   -0.3789 C   0  0  0  0  0  0  0  0  0  0  0  0
   -0.7397   -2.4530   -1.0940 O   0  0  0  0  0  0  0  0  0  0  0  0
    0.7838   -1.5040    0.4445 O   0  0  0  0  0  0  0  0  0  0  0  0
    4.1863    1.2977    0.0876 H   0  0  0  0  0  0  0  0  0  0  0  0
    0.8264   -0.3094    2.1684 H   0  0  0  0  0  0  0  0  0  0  0  0
   -0.4412    1.5431    0.8103 H   0  0  0  0  0  0  0  0  0  0  0  0
   -2.6664    1.0161   -0.3072 H   0  0  0  0  0  0  0  0  0  0  0  0
   -2.8494   -0.5156   -1.2602 H   0  0  0  0  0  0  0  0  0  0  0  0
   -1.8381    0.8449   -1.8877 H   0  0  0  0  0  0  0  0  0  0  0  0
  1  2  3  0
  2  3  1  0
  3  4  1  0
  4  5  2  0
  5  6  1  0
  5  7  1  0
  7  8  2  0
  7  9  1  0
  9  3  1  0
  1 10  1  0
  3 11  1  0
  4 12  1  0
  6 13  1  0
  6 14  1  0
  6 15  1  0
M  END
