
     RDKit          3D

 22 21  0  0  0  0  0  0  0  0999 V2000
   -1.6202    2.8738    0.6040 C   0  0  0  0  0  0  0  0  0  0  0  0
   -1.0942    1.8922    0.1218 C   0  0  0  0  0  0  0  0  0  0  0  0
   -0.4592    0.6951   -0.4389 C   0  0  0  0  0  0  0  0  0  0  0  0
    0.4025    0.9988   -1.6076 C   0  0  0  0  0  0  0  0  0  0  0  0
   -1.6155   -0.2066   -0.8979 C   0  0  0  0  0  0  0  0  0  0  0  0
    0.2273   -0.0271    0.6764 C   0  0  0  0  0  0  0  0  0  0  0  0
    0.9280   -1.2809    0.2601 C   0  0  0  0  0  0  0  0  0  0  0  0
    1.5630   -1.8736    1.5189 C   0  0  0  0  0  0  0  0  0  0  0  0
   -2.0953    3.7223    1.0253 H   0  0  0  0  0  0  0  0  0  0  0  0
    0.0522    1.9834   -2.0360 H   0  0  0  0  0  0  0  0  0  0  0  0
    0.3368    0.2322   -2.4052 H   0  0  0  0  0  0  0  0  0  0  0  0
    1.4717    1.1502   -1.3593 H   0  0  0  0  0  0  0  0  0  0  0  0
   -2.2946    0.4127   -1.4801 H   0  0  0  0  0  0  0  0  0  0  0  0
   -1.2555   -1.1177   -1.3823 H   0  0  0  0  0  0  0  0  0  0  0  0
   -2.1354   -0.5028    0.0541 H   0  0  0  0  0  0  0  0  0  0  0  0
   -0.5344   -0.2961    1.4332 H   0  0  0  0  0  0  0  0  0  0  0  0
    0.9635    0.6340    1.1566 H   0  0  0  0  0  0  0  0  0  0  0  0
    1.7236   -1.1432   -0.4738 H   0  0  0  0  0  0  0  0  0  0  0  0
    0.2141   -2.0710   -0.1014 H   0  0  0  0  0  0  0  0  0  0  0  0
    1.8039   -2.9428    1.3091 H   0  0  0  0  0  0  0  0  0  0  0  0
    0.8819   -1.7807    2.3685 H   0  0  0  0  0  0  0  0  0  0  0  0
    2.5357   -1.3521    1.6548 H   0  0  0  0  0  0  0  0  0  0  0  0
  1  2  3  0
  2  3  1  0
  3  4  1  0
  3  5  1  0
  3  6  1  0
  6  7  1  0
  7  8  1  0
  1  9  1  0
  4 10  1  0
  4 11  1  0
  4 12  1  0
  5 13  1  0
  5 14  1  0
  5 15  1  0
  6 16  1  0
  6 17  1  0
  7 18  1  0
  7 19  1  0
  8 20  1  0
  8 21  1  0
  8 22  1  0
M  END
