
     RDKit          3D

 17 17  0  0  0  0  0  0  0  0999 V2000
    3.6110   -0.3021    0.3375 C   0  0  0  0  0  0  0  0  0  0  0  0
    2.4047   -0.2102    0.3656 C   0  0  0  0  0  0  0  0  0  0  0  0
    0.9477   -0.0867    0.3999 C   0  0  0  0  0  0  0  0  0  0  0  0
    0.5067    1.2195   -0.1578 C   0  0  0  0  0  0  0  0  0  0  0  0
   -0.7516    1.5492   -0.4108 C   0  0  0  0  0  0  0  0  0  0  0  0
   -1.9899    0.7623   -0.2221 C   0  0  0  0  0  0  0  0  0  0  0  0
   -1.9894   -0.5360    0.0404 C   0  0  0  0  0  0  0  0  0  0  0  0
   -0.8744   -1.5053    0.2098 C   0  0  0  0  0  0  0  0  0  0  0  0
    0.3101   -1.0769   -0.3404 O   0  0  0  0  0  0  0  0  0  0  0  0
    4.6721   -0.3979    0.3040 H   0  0  0  0  0  0  0  0  0  0  0  0
    0.6237   -0.1189    1.4708 H   0  0  0  0  0  0  0  0  0  0  0  0
    1.2472    1.9752   -0.3830 H   0  0  0  0  0  0  0  0  0  0  0  0
   -0.9471    2.5386   -0.8197 H   0  0  0  0  0  0  0  0  0  0  0  0
   -2.9336    1.2865   -0.3055 H   0  0  0  0  0  0  0  0  0  0  0  0
   -2.9610   -0.9744    0.1523 H   0  0  0  0  0  0  0  0  0  0  0  0
   -0.6979   -1.6930    1.2966 H   0  0  0  0  0  0  0  0  0  0  0  0
   -1.1783   -2.4299   -0.3280 H   0  0  0  0  0  0  0  0  0  0  0  0
  1  2  3  0
  2  3  1  0
  3  4  1  0
  4  5  2  0
  5  6  1  0
  6  7  2  0
  7  8  1  0
  8  9  1  0
  9  3  1  0
  1 10  1  0
  3 11  1  0
  4 12  1  0
  5 13  1  0
  6 14  1  0
  7 15  1  0
  8 16  1  0
  8 17  1  0
M  END
