
     RDKit          3D

 23 23  0  0  0  0  0  0  0  0999 V2000
   -1.1446    2.7186   -0.1933 C   0  0  0  0  0  0  0  0  0  0  0  0
   -1.2830    1.5014   -0.1295 C   0  0  0  0  0  0  0  0  0  0  0  0
   -1.4494    0.0682   -0.0795 C   0  0  0  0  0  0  0  0  0  0  0  0
   -2.0295   -0.3825    1.2680 C   0  0  0  0  0  0  0  0  0  0  0  0
   -0.8778   -1.3158    1.4223 C   0  0  0  0  0  0  0  0  0  0  0  0
   -0.2761   -0.7577    0.1488 C   0  0  0  0  0  0  0  0  0  0  0  0
    1.0922   -0.2183    0.3546 C   0  0  0  0  0  0  0  0  0  0  0  0
    1.6626    0.5461   -0.7689 C   0  0  0  0  0  0  0  0  0  0  0  0
    1.7747   -0.3088   -2.0468 C   0  0  0  0  0  0  0  0  0  0  0  0
   -1.0409    3.7768   -0.2404 H   0  0  0  0  0  0  0  0  0  0  0  0
   -2.0699   -0.2848   -0.9384 H   0  0  0  0  0  0  0  0  0  0  0  0
   -3.0150   -0.8144    1.1175 H   0  0  0  0  0  0  0  0  0  0  0  0
   -2.0566    0.4551    2.0176 H   0  0  0  0  0  0  0  0  0  0  0  0
   -1.1867   -2.3537    1.4332 H   0  0  0  0  0  0  0  0  0  0  0  0
   -0.2202   -1.1170    2.3075 H   0  0  0  0  0  0  0  0  0  0  0  0
   -0.2139   -1.6555   -0.5811 H   0  0  0  0  0  0  0  0  0  0  0  0
    1.1236    0.3680    1.3135 H   0  0  0  0  0  0  0  0  0  0  0  0
    1.7764   -1.0864    0.5671 H   0  0  0  0  0  0  0  0  0  0  0  0
    2.7420    0.8081   -0.5120 H   0  0  0  0  0  0  0  0  0  0  0  0
    1.1755    1.4923   -1.0310 H   0  0  0  0  0  0  0  0  0  0  0  0
    2.2725   -1.2451   -1.7740 H   0  0  0  0  0  0  0  0  0  0  0  0
    2.4375    0.2228   -2.7793 H   0  0  0  0  0  0  0  0  0  0  0  0
    0.8067   -0.4173   -2.5568 H   0  0  0  0  0  0  0  0  0  0  0  0
  1  2  3  0
  2  3  1  0
  3  4  1  0
  4  5  1  0
  5  6  1  0
  6  7  1  0
  7  8  1  0
  8  9  1  0
  6  3  1  0
  1 10  1  0
  3 11  1  0
  4 12  1  0
  4 13  1  0
  5 14  1  0
  5 15  1  0
  6 16  1  0
  7 17  1  0
  7 18  1  0
  8 19  1  0
  8 20  1  0
  9 21  1  0
  9 22  1  0
  9 23  1  0
M  END
