
     RDKit          3D

 19 19  0  0  0  0  0  0  0  0999 V2000
    2.9743   -0.8280   -0.7441 C   0  0  0  0  0  0  0  0  0  0  0  0
    1.8304   -0.5564   -1.0118 C   0  0  0  0  0  0  0  0  0  0  0  0
    0.4421   -0.2224   -1.3445 C   0  0  0  0  0  0  0  0  0  0  0  0
   -0.2185    0.2286   -0.0611 C   0  0  0  0  0  0  0  0  0  0  0  0
    0.5235    1.4311    0.4581 C   0  0  0  0  0  0  0  0  0  0  0  0
   -0.3671   -0.8721    0.9300 C   0  0  0  0  0  0  0  0  0  0  0  0
   -1.6764   -0.7750    1.3773 O   0  0  0  0  0  0  0  0  0  0  0  0
   -2.3799   -0.0288    0.4604 C   0  0  0  0  0  0  0  0  0  0  0  0
   -1.5106    0.6153   -0.3702 O   0  0  0  0  0  0  0  0  0  0  0  0
    3.9915   -1.0813   -0.4901 H   0  0  0  0  0  0  0  0  0  0  0  0
    0.4360    0.5958   -2.0919 H   0  0  0  0  0  0  0  0  0  0  0  0
   -0.0741   -1.1026   -1.7895 H   0  0  0  0  0  0  0  0  0  0  0  0
    0.2727    2.2800   -0.2423 H   0  0  0  0  0  0  0  0  0  0  0  0
    0.1430    1.7276    1.4547 H   0  0  0  0  0  0  0  0  0  0  0  0
    1.6231    1.2752    0.4906 H   0  0  0  0  0  0  0  0  0  0  0  0
    0.3562   -0.8309    1.7503 H   0  0  0  0  0  0  0  0  0  0  0  0
   -0.2792   -1.8528    0.4143 H   0  0  0  0  0  0  0  0  0  0  0  0
   -3.0412   -0.6788   -0.1668 H   0  0  0  0  0  0  0  0  0  0  0  0
   -3.0458    0.6754    0.9764 H   0  0  0  0  0  0  0  0  0  0  0  0
  1  2  3  0
  2  3  1  0
  3  4  1  0
  4  5  1  0
  4  6  1  0
  6  7  1  0
  7  8  1  0
  8  9  1  0
  9  4  1  0
  1 10  1  0
  3 11  1  0
  3 12  1  0
  5 13  1  0
  5 14  1  0
  5 15  1  0
  6 16  1  0
  6 17  1  0
  8 18  1  0
  8 19  1  0
M  END
