
     RDKit          3D

 17 18  0  0  0  0  0  0  0  0999 V2000
    0.0242    2.4786   -0.2935 C   0  0  0  0  0  0  0  0  0  0  0  0
   -0.0050    1.2599   -0.2987 C   0  0  0  0  0  0  0  0  0  0  0  0
   -0.0186   -0.1900   -0.2920 C   0  0  0  0  0  0  0  0  0  0  0  0
   -1.3760   -0.8802   -0.4075 C   0  0  0  0  0  0  0  0  0  0  0  0
   -2.4447   -0.0529   -0.9952 C   0  0  0  0  0  0  0  0  0  0  0  0
   -2.3204   -0.3482    0.4694 O   0  0  0  0  0  0  0  0  0  0  0  0
    0.9774   -0.7208   -1.1881 O   0  0  0  0  0  0  0  0  0  0  0  0
    1.0562   -0.9152    0.2798 C   0  0  0  0  0  0  0  0  0  0  0  0
    2.3093   -0.3188    0.8528 C   0  0  0  0  0  0  0  0  0  0  0  0
    0.0455    3.5361   -0.2911 H   0  0  0  0  0  0  0  0  0  0  0  0
   -1.3874   -1.9521   -0.6056 H   0  0  0  0  0  0  0  0  0  0  0  0
   -2.3556    1.0239   -1.1694 H   0  0  0  0  0  0  0  0  0  0  0  0
   -3.4093   -0.5283   -1.3139 H   0  0  0  0  0  0  0  0  0  0  0  0
    0.9649   -2.0141    0.4553 H   0  0  0  0  0  0  0  0  0  0  0  0
    2.1597    0.0513    1.8964 H   0  0  0  0  0  0  0  0  0  0  0  0
    2.6079    0.5919    0.2604 H   0  0  0  0  0  0  0  0  0  0  0  0
    3.1719   -1.0212    0.8117 H   0  0  0  0  0  0  0  0  0  0  0  0
  1  2  3  0
  2  3  1  0
  3  4  1  0
  4  5  1  0
  5  6  1  0
  3  7  1  0
  7  8  1  0
  8  9  1  0
  8  3  1  0
  6  4  1  0
  1 10  1  0
  4 11  1  0
  5 12  1  0
  5 13  1  0
  8 14  1  0
  9 15  1  0
  9 16  1  0
  9 17  1  0
M  END
