
     RDKit          3D

 23 23  0  0  0  0  0  0  0  0999 V2000
   -3.1275   -2.1505    0.8895 C   0  0  0  0  0  0  0  0  0  0  0  0
   -2.3005   -1.2873    1.1498 C   0  0  0  0  0  0  0  0  0  0  0  0
   -1.3274   -0.2369    1.4526 C   0  0  0  0  0  0  0  0  0  0  0  0
   -1.8770    1.1982    1.6223 C   0  0  0  0  0  0  0  0  0  0  0  0
   -1.0273    0.7729    0.4354 C   0  0  0  0  0  0  0  0  0  0  0  0
    0.2796    1.4676    0.3251 C   0  0  0  0  0  0  0  0  0  0  0  0
    1.4443    0.5402    0.0869 C   0  0  0  0  0  0  0  0  0  0  0  0
    1.2753   -0.2468   -1.2019 C   0  0  0  0  0  0  0  0  0  0  0  0
    2.4850   -1.1455   -1.3566 C   0  0  0  0  0  0  0  0  0  0  0  0
   -3.8311   -2.9064    0.6633 H   0  0  0  0  0  0  0  0  0  0  0  0
   -0.5743   -0.5620    2.2059 H   0  0  0  0  0  0  0  0  0  0  0  0
   -2.9598    1.3087    1.4278 H   0  0  0  0  0  0  0  0  0  0  0  0
   -1.4144    1.7867    2.4291 H   0  0  0  0  0  0  0  0  0  0  0  0
   -1.5588    0.6575   -0.5461 H   0  0  0  0  0  0  0  0  0  0  0  0
    0.4827    2.0577    1.2121 H   0  0  0  0  0  0  0  0  0  0  0  0
    0.2668    2.1811   -0.5412 H   0  0  0  0  0  0  0  0  0  0  0  0
    2.3498    1.1716   -0.0511 H   0  0  0  0  0  0  0  0  0  0  0  0
    1.5471   -0.1411    0.9389 H   0  0  0  0  0  0  0  0  0  0  0  0
    1.1715    0.4297   -2.0596 H   0  0  0  0  0  0  0  0  0  0  0  0
    0.3505   -0.8692   -1.0713 H   0  0  0  0  0  0  0  0  0  0  0  0
    2.7200   -1.2084   -2.4573 H   0  0  0  0  0  0  0  0  0  0  0  0
    3.3267   -0.6699   -0.8365 H   0  0  0  0  0  0  0  0  0  0  0  0
    2.2989   -2.1480   -0.9189 H   0  0  0  0  0  0  0  0  0  0  0  0
  1  2  3  0
  2  3  1  0
  3  4  1  0
  4  5  1  0
  5  6  1  0
  6  7  1  0
  7  8  1  0
  8  9  1  0
  5  3  1  0
  1 10  1  0
  3 11  1  0
  4 12  1  0
  4 13  1  0
  5 14  1  0
  6 15  1  0
  6 16  1  0
  7 17  1  0
  7 18  1  0
  8 19  1  0
  8 20  1  0
  9 21  1  0
  9 22  1  0
  9 23  1  0
M  END
