
     RDKit          3D

 19 19  0  0  0  0  0  0  0  0999 V2000
    2.3812   -1.4448    0.8307 C   0  0  0  0  0  0  0  0  0  0  0  0
    1.2293   -1.4002    0.4618 C   0  0  0  0  0  0  0  0  0  0  0  0
   -0.1659   -1.3689    0.0274 C   0  0  0  0  0  0  0  0  0  0  0  0
   -1.1016   -1.8039    1.1488 C   0  0  0  0  0  0  0  0  0  0  0  0
   -0.4889    0.0411   -0.3721 C   0  0  0  0  0  0  0  0  0  0  0  0
    0.3384    0.4532   -1.4113 O   0  0  0  0  0  0  0  0  0  0  0  0
    0.4632    1.8288   -1.3169 C   0  0  0  0  0  0  0  0  0  0  0  0
   -0.3581    2.1621   -0.0782 C   0  0  0  0  0  0  0  0  0  0  0  0
   -0.2596    0.9611    0.6319 O   0  0  0  0  0  0  0  0  0  0  0  0
    3.4047   -1.5018    1.1645 H   0  0  0  0  0  0  0  0  0  0  0  0
   -0.3022   -2.0267   -0.8551 H   0  0  0  0  0  0  0  0  0  0  0  0
   -0.7947   -1.3980    2.1199 H   0  0  0  0  0  0  0  0  0  0  0  0
   -2.1375   -1.5029    0.9213 H   0  0  0  0  0  0  0  0  0  0  0  0
   -0.9882   -2.9247    1.2310 H   0  0  0  0  0  0  0  0  0  0  0  0
   -1.5350    0.1674   -0.7194 H   0  0  0  0  0  0  0  0  0  0  0  0
    0.0582    2.3477   -2.2075 H   0  0  0  0  0  0  0  0  0  0  0  0
    1.5368    2.0680   -1.1678 H   0  0  0  0  0  0  0  0  0  0  0  0
    0.1145    3.0064    0.4519 H   0  0  0  0  0  0  0  0  0  0  0  0
   -1.3944    2.3359   -0.3644 H   0  0  0  0  0  0  0  0  0  0  0  0
  1  2  3  0
  2  3  1  0
  3  4  1  0
  3  5  1  0
  5  6  1  0
  6  7  1  0
  7  8  1  0
  8  9  1  0
  9  5  1  0
  1 10  1  0
  3 11  1  0
  4 12  1  0
  4 13  1  0
  4 14  1  0
  5 15  1  0
  7 16  1  0
  7 17  1  0
  8 18  1  0
  8 19  1  0
M  END
