
     RDKit          3D

 18 17  0  0  0  0  0  0  0  0999 V2000
    3.4002   -0.1080    0.4568 C   0  0  0  0  0  0  0  0  0  0  0  0
    2.3030   -0.2570   -0.1592 C   0  0  0  0  0  0  0  0  0  0  0  0
    0.7363   -0.4882   -1.0183 C   0  0  0  0  0  0  0  0  0  0  0  0
    1.0722   -1.9165   -0.9868 O   0  0  0  0  0  0  0  0  0  0  0  0
   -0.0519   -0.2343    0.2960 C   0  0  0  0  0  0  0  0  0  0  0  0
   -0.8312   -1.4646    0.5226 O   0  0  0  0  0  0  0  0  0  0  0  0
   -1.1586    0.7107   -0.2020 C   0  0  0  0  0  0  0  0  0  0  0  0
   -2.0243    1.2811    0.8622 C   0  0  0  0  0  0  0  0  0  0  0  0
    4.2262    0.0048    0.9170 H   0  0  0  0  0  0  0  0  0  0  0  0
    0.7866    0.0952   -1.7451 H   0  0  0  0  0  0  0  0  0  0  0  0
    1.7723   -2.0743   -0.2395 H   0  0  0  0  0  0  0  0  0  0  0  0
    0.4181    0.0433    1.1852 H   0  0  0  0  0  0  0  0  0  0  0  0
   -0.8937   -1.4747    1.5911 H   0  0  0  0  0  0  0  0  0  0  0  0
   -0.8599    1.4156   -0.9958 H   0  0  0  0  0  0  0  0  0  0  0  0
   -1.9202   -0.0425   -0.7688 H   0  0  0  0  0  0  0  0  0  0  0  0
   -2.2868    0.6214    1.7334 H   0  0  0  0  0  0  0  0  0  0  0  0
   -3.0293    1.5620    0.3539 H   0  0  0  0  0  0  0  0  0  0  0  0
   -1.6591    2.3259    1.2303 H   0  0  0  0  0  0  0  0  0  0  0  0
  1  2  3  0
  2  3  1  0
  3  4  1  0
  3  5  1  0
  5  6  1  0
  5  7  1  0
  7  8  1  0
  1  9  1  0
  3 10  1  0
  4 11  1  0
  5 12  1  0
  6 13  1  0
  7 14  1  0
  7 15  1  0
  8 16  1  0
  8 17  1  0
  8 18  1  0
M  END
