
     RDKit          3D

 15 14  0  0  0  0  0  0  0  0999 V2000
    3.4920    2.9477   -0.8895 C   0  0  0  0  0  0  0  0  0  0  0  0
    2.6651    2.0631   -0.6768 C   0  0  0  0  0  0  0  0  0  0  0  0
    1.7709    1.1114   -0.4398 C   0  0  0  0  0  0  0  0  0  0  0  0
    0.8604    0.1728   -0.2129 C   0  0  0  0  0  0  0  0  0  0  0  0
   -0.0565   -0.7710    0.0269 C   0  0  0  0  0  0  0  0  0  0  0  0
   -0.8388   -1.1591    1.1626 C   0  0  0  0  0  0  0  0  0  0  0  0
   -1.5078   -2.3921    0.5216 O   0  0  0  0  0  0  0  0  0  0  0  0
   -1.9544   -0.3707    1.4814 C   0  0  0  0  0  0  0  0  0  0  0  0
   -2.9479    0.3537    1.7763 C   0  0  0  0  0  0  0  0  0  0  0  0
    4.1953    3.6790   -1.0648 H   0  0  0  0  0  0  0  0  0  0  0  0
   -0.8517   -0.6814   -0.9094 H   0  0  0  0  0  0  0  0  0  0  0  0
    0.4867   -1.8362   -0.2921 H   0  0  0  0  0  0  0  0  0  0  0  0
   -0.3515   -1.7439    1.9389 H   0  0  0  0  0  0  0  0  0  0  0  0
   -1.0975   -2.3821   -0.4215 H   0  0  0  0  0  0  0  0  0  0  0  0
   -3.8642    1.0089    2.0316 H   0  0  0  0  0  0  0  0  0  0  0  0
  1  2  3  0
  2  3  1  0
  3  4  3  0
  4  5  1  0
  5  6  1  0
  6  7  1  0
  6  8  1  0
  8  9  3  0
  1 10  1  0
  5 11  1  0
  5 12  1  0
  6 13  1  0
  7 14  1  0
  9 15  1  0
M  END
