
     RDKit          3D

 19 20  0  0  0  0  0  0  0  0999 V2000
    3.3743    0.1473   -0.6138 C   0  0  0  0  0  0  0  0  0  0  0  0
    2.2021    0.0549   -0.2933 C   0  0  0  0  0  0  0  0  0  0  0  0
    0.7890   -0.0773    0.0823 C   0  0  0  0  0  0  0  0  0  0  0  0
    0.2346   -1.4549    0.0402 C   0  0  0  0  0  0  0  0  0  0  0  0
   -0.9491   -1.5821   -0.6652 O   0  0  0  0  0  0  0  0  0  0  0  0
   -1.9247   -0.6980   -0.2691 C   0  0  0  0  0  0  0  0  0  0  0  0
   -1.5340    0.7388   -0.4419 C   0  0  0  0  0  0  0  0  0  0  0  0
   -0.0951    1.0218   -0.2505 C   0  0  0  0  0  0  0  0  0  0  0  0
    0.3892    0.8597    1.1942 C   0  0  0  0  0  0  0  0  0  0  0  0
    4.3974    0.2250   -0.9126 H   0  0  0  0  0  0  0  0  0  0  0  0
    0.1352   -1.8521    1.0940 H   0  0  0  0  0  0  0  0  0  0  0  0
    0.9601   -2.1602   -0.4434 H   0  0  0  0  0  0  0  0  0  0  0  0
   -2.8222   -0.8882   -0.8940 H   0  0  0  0  0  0  0  0  0  0  0  0
   -2.2517   -0.8894    0.7918 H   0  0  0  0  0  0  0  0  0  0  0  0
   -1.8989    1.1496   -1.4065 H   0  0  0  0  0  0  0  0  0  0  0  0
   -2.1011    1.3171    0.3463 H   0  0  0  0  0  0  0  0  0  0  0  0
    0.3390    1.8722   -0.8429 H   0  0  0  0  0  0  0  0  0  0  0  0
    1.0824    1.6595    1.5202 H   0  0  0  0  0  0  0  0  0  0  0  0
   -0.3265    0.5566    1.9641 H   0  0  0  0  0  0  0  0  0  0  0  0
  1  2  3  0
  2  3  1  0
  3  4  1  0
  4  5  1  0
  5  6  1  0
  6  7  1  0
  7  8  1  0
  8  9  1  0
  8  3  1  0
  9  3  1  0
  1 10  1  0
  4 11  1  0
  4 12  1  0
  6 13  1  0
  6 14  1  0
  7 15  1  0
  7 16  1  0
  8 17  1  0
  9 18  1  0
  9 19  1  0
M  END
