
     RDKit          3D

 23 22  0  0  0  0  0  0  0  0999 V2000
   -2.4064    1.8088    1.2108 C   0  0  0  0  0  0  0  0  0  0  0  0
   -1.6612    1.1287    0.5529 C   0  0  0  0  0  0  0  0  0  0  0  0
   -0.7339    0.2966   -0.2514 C   0  0  0  0  0  0  0  0  0  0  0  0
   -1.1958   -1.1394   -0.1153 C   0  0  0  0  0  0  0  0  0  0  0  0
   -2.6168   -1.2286   -0.6421 C   0  0  0  0  0  0  0  0  0  0  0  0
    0.6381    0.5213    0.3005 C   0  0  0  0  0  0  0  0  0  0  0  0
    1.7027   -0.2508   -0.4062 C   0  0  0  0  0  0  0  0  0  0  0  0
    3.0766   -0.0193    0.1574 C   0  0  0  0  0  0  0  0  0  0  0  0
    3.4953    1.2788    0.1043 O   0  0  0  0  0  0  0  0  0  0  0  0
   -3.0649    2.4204    1.8009 H   0  0  0  0  0  0  0  0  0  0  0  0
   -0.8410    0.5827   -1.3075 H   0  0  0  0  0  0  0  0  0  0  0  0
   -0.5283   -1.7969   -0.7072 H   0  0  0  0  0  0  0  0  0  0  0  0
   -1.2310   -1.4363    0.9537 H   0  0  0  0  0  0  0  0  0  0  0  0
   -2.6261   -1.8605   -1.5420 H   0  0  0  0  0  0  0  0  0  0  0  0
   -3.3025   -1.6886    0.1031 H   0  0  0  0  0  0  0  0  0  0  0  0
   -3.0300   -0.2477   -0.9108 H   0  0  0  0  0  0  0  0  0  0  0  0
    0.8312    1.6175    0.2386 H   0  0  0  0  0  0  0  0  0  0  0  0
    0.6019    0.2799    1.3879 H   0  0  0  0  0  0  0  0  0  0  0  0
    1.4358   -1.3239   -0.4492 H   0  0  0  0  0  0  0  0  0  0  0  0
    1.7381    0.0878   -1.4707 H   0  0  0  0  0  0  0  0  0  0  0  0
    3.0500   -0.3550    1.2350 H   0  0  0  0  0  0  0  0  0  0  0  0
    3.8446   -0.6514   -0.3164 H   0  0  0  0  0  0  0  0  0  0  0  0
    2.8237    1.9760    0.0736 H   0  0  0  0  0  0  0  0  0  0  0  0
  1  2  3  0
  2  3  1  0
  3  4  1  0
  4  5  1  0
  3  6  1  0
  6  7  1  0
  7  8  1  0
  8  9  1  0
  1 10  1  0
  3 11  1  0
  4 12  1  0
  4 13  1  0
  5 14  1  0
  5 15  1  0
  5 16  1  0
  6 17  1  0
  6 18  1  0
  7 19  1  0
  7 20  1  0
  8 21  1  0
  8 22  1  0
  9 23  1  0
M  END
