
     RDKit          3D

 16 16  0  0  0  0  0  0  0  0999 V2000
    3.1633   -0.2881    0.6167 C   0  0  0  0  0  0  0  0  0  0  0  0
    1.9681   -0.3655    0.4821 C   0  0  0  0  0  0  0  0  0  0  0  0
    0.5347   -0.4331    0.3227 C   0  0  0  0  0  0  0  0  0  0  0  0
    0.1510    0.1178   -1.0543 C   0  0  0  0  0  0  0  0  0  0  0  0
   -1.0828    0.7095   -0.3690 C   0  0  0  0  0  0  0  0  0  0  0  0
   -2.2205   -0.2380   -0.3299 C   0  0  0  0  0  0  0  0  0  0  0  0
   -2.1671   -1.3956   -0.6945 O   0  0  0  0  0  0  0  0  0  0  0  0
   -0.2442    0.7341    0.9148 C   0  0  0  0  0  0  0  0  0  0  0  0
    4.2166   -0.2034    0.7402 H   0  0  0  0  0  0  0  0  0  0  0  0
    0.0498   -1.3935    0.4940 H   0  0  0  0  0  0  0  0  0  0  0  0
    0.8236    0.9297   -1.3915 H   0  0  0  0  0  0  0  0  0  0  0  0
   -0.0722   -0.6750   -1.7765 H   0  0  0  0  0  0  0  0  0  0  0  0
   -1.3791    1.6979   -0.7195 H   0  0  0  0  0  0  0  0  0  0  0  0
   -3.1708    0.1192    0.0494 H   0  0  0  0  0  0  0  0  0  0  0  0
    0.3172    1.6697    0.9520 H   0  0  0  0  0  0  0  0  0  0  0  0
   -0.8875    0.4787    1.7633 H   0  0  0  0  0  0  0  0  0  0  0  0
  1  2  3  0
  2  3  1  0
  3  4  1  0
  4  5  1  0
  5  6  1  0
  6  7  2  0
  5  8  1  0
  8  3  1  0
  1  9  1  0
  3 10  1  0
  4 11  1  0
  4 12  1  0
  5 13  1  0
  6 14  1  0
  8 15  1  0
  8 16  1  0
M  END
