
     RDKit          3D

 17 17  0  0  0  0  0  0  0  0999 V2000
    3.1442   -0.5270   -0.0863 C   0  0  0  0  0  0  0  0  0  0  0  0
    1.9447   -0.6411    0.1153 C   0  0  0  0  0  0  0  0  0  0  0  0
    0.5035   -0.7969    0.3757 C   0  0  0  0  0  0  0  0  0  0  0  0
   -0.2699   -0.9112   -0.9173 C   0  0  0  0  0  0  0  0  0  0  0  0
   -0.6842    0.5264   -0.8287 C   0  0  0  0  0  0  0  0  0  0  0  0
   -2.0336    0.7933   -0.9215 O   0  0  0  0  0  0  0  0  0  0  0  0
   -0.1774    0.5422    0.5960 C   0  0  0  0  0  0  0  0  0  0  0  0
   -1.2021    0.5221    1.6414 C   0  0  0  0  0  0  0  0  0  0  0  0
   -1.7304    1.5511    2.0034 O   0  0  0  0  0  0  0  0  0  0  0  0
    4.1790   -0.4262   -0.2789 H   0  0  0  0  0  0  0  0  0  0  0  0
    0.2900   -1.5747    1.1085 H   0  0  0  0  0  0  0  0  0  0  0  0
    0.3446   -1.1760   -1.8088 H   0  0  0  0  0  0  0  0  0  0  0  0
   -1.1489   -1.5876   -0.8863 H   0  0  0  0  0  0  0  0  0  0  0  0
   -0.0724    1.1426   -1.5079 H   0  0  0  0  0  0  0  0  0  0  0  0
   -2.1750    1.6220   -1.4458 H   0  0  0  0  0  0  0  0  0  0  0  0
    0.5770    1.3545    0.7489 H   0  0  0  0  0  0  0  0  0  0  0  0
   -1.4889   -0.4135    2.0923 H   0  0  0  0  0  0  0  0  0  0  0  0
  1  2  3  0
  2  3  1  0
  3  4  1  0
  4  5  1  0
  5  6  1  0
  5  7  1  0
  7  8  1  0
  8  9  2  0
  7  3  1  0
  1 10  1  0
  3 11  1  0
  4 12  1  0
  4 13  1  0
  5 14  1  0
  6 15  1  0
  7 16  1  0
  8 17  1  0
M  END
