
     RDKit          3D

 17 17  0  0  0  0  0  0  0  0999 V2000
    2.8174   -1.1726   -1.1423 C   0  0  0  0  0  0  0  0  0  0  0  0
    1.7100   -0.6783   -1.1074 C   0  0  0  0  0  0  0  0  0  0  0  0
    0.3779   -0.0772   -1.0901 C   0  0  0  0  0  0  0  0  0  0  0  0
    0.3639    1.4055   -1.2240 C   0  0  0  0  0  0  0  0  0  0  0  0
    0.9859    2.1842   -1.9122 O   0  0  0  0  0  0  0  0  0  0  0  0
   -0.7000    1.4044   -0.1794 C   0  0  0  0  0  0  0  0  0  0  0  0
   -0.0755    0.1209    0.3361 C   0  0  0  0  0  0  0  0  0  0  0  0
   -1.0670   -0.8987    0.8354 C   0  0  0  0  0  0  0  0  0  0  0  0
   -1.4032   -0.6105    2.1472 O   0  0  0  0  0  0  0  0  0  0  0  0
    3.7922   -1.5918   -1.1617 H   0  0  0  0  0  0  0  0  0  0  0  0
   -0.3725   -0.6176   -1.6984 H   0  0  0  0  0  0  0  0  0  0  0  0
   -0.6379    2.2452    0.5384 H   0  0  0  0  0  0  0  0  0  0  0  0
   -1.6818    1.2419   -0.6367 H   0  0  0  0  0  0  0  0  0  0  0  0
    0.7332    0.3653    1.0374 H   0  0  0  0  0  0  0  0  0  0  0  0
   -0.5307   -1.8902    0.8175 H   0  0  0  0  0  0  0  0  0  0  0  0
   -1.9222   -0.8918    0.1463 H   0  0  0  0  0  0  0  0  0  0  0  0
   -2.3894   -0.5387    2.2001 H   0  0  0  0  0  0  0  0  0  0  0  0
  1  2  3  0
  2  3  1  0
  3  4  1  0
  4  5  2  0
  4  6  1  0
  6  7  1  0
  7  8  1  0
  8  9  1  0
  7  3  1  0
  1 10  1  0
  3 11  1  0
  6 12  1  0
  6 13  1  0
  7 14  1  0
  8 15  1  0
  8 16  1  0
  9 17  1  0
M  END
