
     RDKit          3D

 16 17  0  0  0  0  0  0  0  0999 V2000
    2.6549    1.5028    0.1367 C   0  0  0  0  0  0  0  0  0  0  0  0
    1.6396    0.8355    0.0574 C   0  0  0  0  0  0  0  0  0  0  0  0
    0.4747    0.0985   -0.0296 C   0  0  0  0  0  0  0  0  0  0  0  0
    0.4296   -1.2793   -0.4931 C   0  0  0  0  0  0  0  0  0  0  0  0
   -0.8925   -1.5844   -0.4018 C   0  0  0  0  0  0  0  0  0  0  0  0
   -1.4742   -0.3293    0.1139 C   0  0  0  0  0  0  0  0  0  0  0  0
   -0.7387    0.7065   -0.7502 C   0  0  0  0  0  0  0  0  0  0  0  0
   -0.4757    0.0756    1.1796 C   0  0  0  0  0  0  0  0  0  0  0  0
    3.5446    2.0655    0.2067 H   0  0  0  0  0  0  0  0  0  0  0  0
    1.1927   -1.9849   -0.8471 H   0  0  0  0  0  0  0  0  0  0  0  0
   -1.3392   -2.5410   -0.6617 H   0  0  0  0  0  0  0  0  0  0  0  0
   -2.5031   -0.2139    0.2713 H   0  0  0  0  0  0  0  0  0  0  0  0
   -0.8283    0.4336   -1.7973 H   0  0  0  0  0  0  0  0  0  0  0  0
   -0.8666    1.7438   -0.4459 H   0  0  0  0  0  0  0  0  0  0  0  0
   -0.5802    1.1315    1.5226 H   0  0  0  0  0  0  0  0  0  0  0  0
   -0.2377   -0.6604    1.9384 H   0  0  0  0  0  0  0  0  0  0  0  0
  1  2  3  0
  2  3  1  0
  3  4  1  0
  4  5  2  0
  5  6  1  0
  6  7  1  0
  6  8  1  0
  7  3  1  0
  8  3  1  0
  1  9  1  0
  4 10  1  0
  5 11  1  0
  6 12  1  0
  7 13  1  0
  7 14  1  0
  8 15  1  0
  8 16  1  0
M  END
