
     RDKit          3D

 15 16  0  0  0  0  0  0  0  0999 V2000
    2.5566   -0.7356    1.9468 C   0  0  0  0  0  0  0  0  0  0  0  0
    1.4456   -0.8538    1.3679 C   0  0  0  0  0  0  0  0  0  0  0  0
    0.1657   -0.9893    0.7294 C   0  0  0  0  0  0  0  0  0  0  0  0
   -0.6639    0.2590    0.8595 C   0  0  0  0  0  0  0  0  0  0  0  0
   -1.2125    0.7556    1.8076 O   0  0  0  0  0  0  0  0  0  0  0  0
   -0.4359    0.4548   -0.5914 C   0  0  0  0  0  0  0  0  0  0  0  0
   -1.4350    1.1960   -1.4331 C   0  0  0  0  0  0  0  0  0  0  0  0
    0.8994    0.5087   -1.0372 O   0  0  0  0  0  0  0  0  0  0  0  0
    0.1675   -0.7382   -0.7414 C   0  0  0  0  0  0  0  0  0  0  0  0
    3.4819   -0.6239    2.4441 H   0  0  0  0  0  0  0  0  0  0  0  0
   -0.3717   -1.8943    1.0720 H   0  0  0  0  0  0  0  0  0  0  0  0
   -2.3584    1.4270   -0.8656 H   0  0  0  0  0  0  0  0  0  0  0  0
   -1.7172    0.5534   -2.2997 H   0  0  0  0  0  0  0  0  0  0  0  0
   -0.9284    2.1388   -1.7602 H   0  0  0  0  0  0  0  0  0  0  0  0
    0.4063   -1.4582   -1.4988 H   0  0  0  0  0  0  0  0  0  0  0  0
  1  2  3  0
  2  3  1  0
  3  4  1  0
  4  5  2  0
  4  6  1  0
  6  7  1  0
  6  8  1  0
  8  9  1  0
  9  3  1  0
  9  6  1  0
  1 10  1  0
  3 11  1  0
  7 12  1  0
  7 13  1  0
  7 14  1  0
  9 15  1  0
M  END
