
     RDKit          3D

 17 17  0  0  0  0  0  0  0  0999 V2000
   -0.5429    2.8494    0.1231 C   0  0  0  0  0  0  0  0  0  0  0  0
   -0.5836    1.6443    0.0640 C   0  0  0  0  0  0  0  0  0  0  0  0
   -0.6107    0.1808   -0.0113 C   0  0  0  0  0  0  0  0  0  0  0  0
    0.6514   -0.5068   -0.5389 C   0  0  0  0  0  0  0  0  0  0  0  0
    1.7254   -0.1751    0.3059 O   0  0  0  0  0  0  0  0  0  0  0  0
    2.9887   -0.6781    0.0393 C   0  0  0  0  0  0  0  0  0  0  0  0
    3.1210   -1.4182   -0.9587 O   0  0  0  0  0  0  0  0  0  0  0  0
   -1.5578   -0.5499    0.8416 C   0  0  0  0  0  0  0  0  0  0  0  0
   -1.9297   -0.4190   -0.5829 C   0  0  0  0  0  0  0  0  0  0  0  0
   -0.5102    3.9069    0.1799 H   0  0  0  0  0  0  0  0  0  0  0  0
    0.4648   -1.5993   -0.4115 H   0  0  0  0  0  0  0  0  0  0  0  0
    0.8295   -0.2751   -1.5971 H   0  0  0  0  0  0  0  0  0  0  0  0
    3.8337   -0.4477    0.6607 H   0  0  0  0  0  0  0  0  0  0  0  0
   -2.1186    0.0169    1.6192 H   0  0  0  0  0  0  0  0  0  0  0  0
   -1.2605   -1.5608    1.1792 H   0  0  0  0  0  0  0  0  0  0  0  0
   -2.6785    0.3316   -0.9229 H   0  0  0  0  0  0  0  0  0  0  0  0
   -1.8221   -1.2999   -1.2399 H   0  0  0  0  0  0  0  0  0  0  0  0
  1  2  3  0
  2  3  1  0
  3  4  1  0
  4  5  1  0
  5  6  1  0
  6  7  2  0
  3  8  1  0
  8  9  1  0
  9  3  1  0
  1 10  1  0
  4 11  1  0
  4 12  1  0
  6 13  1  0
  8 14  1  0
  8 15  1  0
  9 16  1  0
  9 17  1  0
M  END
