
     RDKit          3D

 17 17  0  0  0  0  0  0  0  0999 V2000
   -3.5576    1.4099    0.1725 C   0  0  0  0  0  0  0  0  0  0  0  0
   -2.4798    0.9093   -0.0031 C   0  0  0  0  0  0  0  0  0  0  0  0
   -1.1630    0.3200   -0.2176 C   0  0  0  0  0  0  0  0  0  0  0  0
   -1.1735   -1.1546   -0.0069 C   0  0  0  0  0  0  0  0  0  0  0  0
    0.0387   -1.4575    0.4472 C   0  0  0  0  0  0  0  0  0  0  0  0
    0.8011   -0.1566    0.5161 C   0  0  0  0  0  0  0  0  0  0  0  0
    1.3257    0.1189   -0.7186 O   0  0  0  0  0  0  0  0  0  0  0  0
    2.6996    0.3386   -0.7052 C   0  0  0  0  0  0  0  0  0  0  0  0
   -0.2473    0.7350    0.7490 O   0  0  0  0  0  0  0  0  0  0  0  0
   -4.5229    1.8389    0.3353 H   0  0  0  0  0  0  0  0  0  0  0  0
   -0.7932    0.4886   -1.2542 H   0  0  0  0  0  0  0  0  0  0  0  0
   -2.0097   -1.8449   -0.1895 H   0  0  0  0  0  0  0  0  0  0  0  0
    0.3852   -2.4450    0.7079 H   0  0  0  0  0  0  0  0  0  0  0  0
    1.5360   -0.1651    1.3389 H   0  0  0  0  0  0  0  0  0  0  0  0
    3.1626   -0.5966   -0.3132 H   0  0  0  0  0  0  0  0  0  0  0  0
    2.9998    0.4188   -1.7919 H   0  0  0  0  0  0  0  0  0  0  0  0
    2.9983    1.2422   -0.1707 H   0  0  0  0  0  0  0  0  0  0  0  0
  1  2  3  0
  2  3  1  0
  3  4  1  0
  4  5  2  0
  5  6  1  0
  6  7  1  0
  7  8  1  0
  6  9  1  0
  9  3  1  0
  1 10  1  0
  3 11  1  0
  4 12  1  0
  5 13  1  0
  6 14  1  0
  8 15  1  0
  8 16  1  0
  8 17  1  0
M  END
