
     RDKit          3D

 15 15  0  0  0  0  0  0  0  0999 V2000
   -4.9925   -0.3433    0.0594 C   0  0  0  0  0  0  0  0  0  0  0  0
   -3.8150   -0.0918    0.0022 C   0  0  0  0  0  0  0  0  0  0  0  0
   -2.4280    0.1892   -0.0546 C   0  0  0  0  0  0  0  0  0  0  0  0
   -1.2317    0.4475   -0.0996 C   0  0  0  0  0  0  0  0  0  0  0  0
    0.1739    0.7665   -0.1326 C   0  0  0  0  0  0  0  0  0  0  0  0
    0.5076    1.9320   -0.3977 O   0  0  0  0  0  0  0  0  0  0  0  0
    1.1840   -0.2885    0.1473 C   0  0  0  0  0  0  0  0  0  0  0  0
    2.3799   -0.2973   -0.8271 C   0  0  0  0  0  0  0  0  0  0  0  0
    2.5212    0.0000    0.6559 C   0  0  0  0  0  0  0  0  0  0  0  0
   -6.0508   -0.5527    0.1011 H   0  0  0  0  0  0  0  0  0  0  0  0
    0.7419   -1.2949    0.3746 H   0  0  0  0  0  0  0  0  0  0  0  0
    2.4581    0.5102   -1.5508 H   0  0  0  0  0  0  0  0  0  0  0  0
    2.6779   -1.3144   -1.2075 H   0  0  0  0  0  0  0  0  0  0  0  0
    3.0303   -0.7244    1.3185 H   0  0  0  0  0  0  0  0  0  0  0  0
    2.8432    1.0618    0.8446 H   0  0  0  0  0  0  0  0  0  0  0  0
  1  2  3  0
  2  3  1  0
  3  4  3  0
  4  5  1  0
  5  6  2  0
  5  7  1  0
  7  8  1  0
  8  9  1  0
  9  7  1  0
  1 10  1  0
  7 11  1  0
  8 12  1  0
  8 13  1  0
  9 14  1  0
  9 15  1  0
M  END
