
     RDKit          3D

 21 22  0  0  0  0  0  0  0  0999 V2000
    2.1969   -1.9017   -1.9997 C   0  0  0  0  0  0  0  0  0  0  0  0
    1.6592   -1.5344   -0.8311 C   0  0  0  0  0  0  0  0  0  0  0  0
    1.1641   -1.2006    0.2846 C   0  0  0  0  0  0  0  0  0  0  0  0
    0.1821   -0.1419    0.4267 C   0  0  0  0  0  0  0  0  0  0  0  0
    0.4999    1.2378    0.0063 C   0  0  0  0  0  0  0  0  0  0  0  0
   -0.9476    1.8387    0.1180 C   0  0  0  0  0  0  0  0  0  0  0  0
   -1.6613    0.5863    0.5016 C   0  0  0  0  0  0  0  0  0  0  0  0
   -0.7864   -0.0573    1.5587 C   0  0  0  0  0  0  0  0  0  0  0  0
   -1.0833   -0.4223   -0.4534 C   0  0  0  0  0  0  0  0  0  0  0  0
    2.6353   -2.2158   -2.9990 H   0  0  0  0  0  0  0  0  0  0  0  0
    1.0365   -2.0097    1.0886 H   0  0  0  0  0  0  0  0  0  0  0  0
    2.1128   -0.6636    0.9110 H   0  0  0  0  0  0  0  0  0  0  0  0
    1.1641    1.8322    0.6736 H   0  0  0  0  0  0  0  0  0  0  0  0
    0.7656    1.2724   -1.0620 H   0  0  0  0  0  0  0  0  0  0  0  0
   -1.2531    2.2107   -0.8812 H   0  0  0  0  0  0  0  0  0  0  0  0
   -0.9267    2.6122    0.9098 H   0  0  0  0  0  0  0  0  0  0  0  0
   -2.7363    0.5699    0.7002 H   0  0  0  0  0  0  0  0  0  0  0  0
   -1.1651   -1.0564    1.8944 H   0  0  0  0  0  0  0  0  0  0  0  0
   -0.4624    0.5468    2.4139 H   0  0  0  0  0  0  0  0  0  0  0  0
   -0.9864   -0.0142   -1.4699 H   0  0  0  0  0  0  0  0  0  0  0  0
   -1.4079   -1.4892   -0.3480 H   0  0  0  0  0  0  0  0  0  0  0  0
  1  2  3  0
  2  3  1  0
  3  4  1  0
  4  5  1  0
  5  6  1  0
  6  7  1  0
  7  8  1  0
  7  9  1  0
  8  4  1  0
  9  4  1  0
  1 10  1  0
  3 11  1  0
  3 12  1  0
  5 13  1  0
  5 14  1  0
  6 15  1  0
  6 16  1  0
  7 17  1  0
  8 18  1  0
  8 19  1  0
  9 20  1  0
  9 21  1  0
M  END
