
     RDKit          3D

 19 18  0  0  0  0  0  0  0  0999 V2000
   -0.6906    1.6598   -0.9001 C   0  0  0  0  0  0  0  0  0  0  0  0
   -1.0532    0.8725   -0.5104 C   0  0  0  0  0  0  0  0  0  0  0  0
   -1.6387   -0.4545    0.1586 C   0  0  0  0  0  0  0  0  0  0  0  0
   -1.6453   -1.4787   -0.9145 C   0  0  0  0  0  0  0  0  0  0  0  0
   -2.8501   -0.0487    0.6617 O   0  0  0  0  0  0  0  0  0  0  0  0
   -0.6187   -0.6677    1.1370 C   0  0  0  0  0  0  0  0  0  0  0  0
    0.8007   -0.0540    0.9387 C   0  0  0  0  0  0  0  0  0  0  0  0
    1.8917    0.4368    0.7964 C   0  0  0  0  0  0  0  0  0  0  0  0
    3.4754    1.1724    0.6073 C   0  0  0  0  0  0  0  0  0  0  0  0
   -0.0443    2.9950   -1.5647 H   0  0  0  0  0  0  0  0  0  0  0  0
   -1.6907   -2.5598   -0.4640 H   0  0  0  0  0  0  0  0  0  0  0  0
   -0.6188   -1.5253   -1.3763 H   0  0  0  0  0  0  0  0  0  0  0  0
   -2.5053   -1.2515   -1.5173 H   0  0  0  0  0  0  0  0  0  0  0  0
   -3.1741    0.8368    0.1528 H   0  0  0  0  0  0  0  0  0  0  0  0
   -0.0979   -1.8306    0.7384 H   0  0  0  0  0  0  0  0  0  0  0  0
   -0.6332   -1.0406    2.1515 H   0  0  0  0  0  0  0  0  0  0  0  0
    3.9297    0.0431    0.7444 H   0  0  0  0  0  0  0  0  0  0  0  0
    3.7484    1.6715    1.3488 H   0  0  0  0  0  0  0  0  0  0  0  0
    3.4151    1.2235   -0.5064 H   0  0  0  0  0  0  0  0  0  0  0  0
  1  2  3  0
  2  3  1  0
  3  4  1  0
  3  5  1  0
  3  6  1  0
  6  7  1  0
  7  8  3  0
  8  9  1  0
  1 10  1  0
  4 11  1  0
  4 12  1  0
  4 13  1  0
  5 14  1  0
  6 15  1  0
  6 16  1  0
  9 17  1  0
  9 18  1  0
  9 19  1  0
M  END
