
     RDKit          3D

 12 13  0  0  0  0  0  0  0  0999 V2000
    1.8615   -1.2005   -1.6187 C   0  0  0  0  0  0  0  0  0  0  0  0
    1.1311   -0.6273   -0.8660 C   0  0  0  0  0  0  0  0  0  0  0  0
    0.3017    0.0185   -0.0307 C   0  0  0  0  0  0  0  0  0  0  0  0
   -0.8667   -0.5454    0.6752 C   0  0  0  0  0  0  0  0  0  0  0  0
   -0.6981    0.8861    1.1047 C   0  0  0  0  0  0  0  0  0  0  0  0
    0.6646    0.6085    1.1667 O   0  0  0  0  0  0  0  0  0  0  0  0
   -0.4767    1.2119   -0.3071 C   0  0  0  0  0  0  0  0  0  0  0  0
   -0.8039    2.0331   -1.1390 O   0  0  0  0  0  0  0  0  0  0  0  0
    2.5091   -1.7271   -2.3093 H   0  0  0  0  0  0  0  0  0  0  0  0
   -1.7898   -0.7311    0.1174 H   0  0  0  0  0  0  0  0  0  0  0  0
   -0.5877   -1.3081    1.4207 H   0  0  0  0  0  0  0  0  0  0  0  0
   -1.2451    1.3815    1.7861 H   0  0  0  0  0  0  0  0  0  0  0  0
  1  2  3  0
  2  3  1  0
  3  4  1  0
  4  5  1  0
  5  6  1  0
  5  7  1  0
  7  8  2  0
  6  3  1  0
  7  3  1  0
  1  9  1  0
  4 10  1  0
  4 11  1  0
  5 12  1  0
M  END
