
     RDKit          3D

 13 14  0  0  0  0  0  0  0  0999 V2000
    2.4771    1.7154    0.4239 C   0  0  0  0  0  0  0  0  0  0  0  0
    1.7075    0.8067    0.2241 C   0  0  0  0  0  0  0  0  0  0  0  0
    0.7640   -0.2791    0.0008 C   0  0  0  0  0  0  0  0  0  0  0  0
    0.0727   -0.1798   -1.1874 O   0  0  0  0  0  0  0  0  0  0  0  0
   -0.8321   -0.9271   -0.4255 C   0  0  0  0  0  0  0  0  0  0  0  0
   -1.9263   -0.3425    0.1533 C   0  0  0  0  0  0  0  0  0  0  0  0
   -0.5099   -0.2550    0.7725 C   0  0  0  0  0  0  0  0  0  0  0  0
    3.1563    2.5187    0.5863 H   0  0  0  0  0  0  0  0  0  0  0  0
    1.2734   -1.2748    0.1617 H   0  0  0  0  0  0  0  0  0  0  0  0
   -0.6159   -2.0274   -0.4671 H   0  0  0  0  0  0  0  0  0  0  0  0
   -2.6066   -0.8967    0.8623 H   0  0  0  0  0  0  0  0  0  0  0  0
   -2.4048    0.5618   -0.2415 H   0  0  0  0  0  0  0  0  0  0  0  0
   -0.5555    0.5797    1.3967 H   0  0  0  0  0  0  0  0  0  0  0  0
  1  2  3  0
  2  3  1  0
  3  4  1  0
  4  5  1  0
  5  6  1  0
  6  7  1  0
  7  3  1  0
  7  5  1  0
  1  8  1  0
  3  9  1  0
  5 10  1  0
  6 11  1  0
  6 12  1  0
  7 13  1  0
M  END
