
     RDKit          3D

 13 12  0  0  0  0  0  0  0  0999 V2000
    2.4760    0.5006    0.5390 C   0  0  0  0  0  0  0  0  0  0  0  0
    1.6299   -0.1776    0.0120 C   0  0  0  0  0  0  0  0  0  0  0  0
    0.5855   -0.9987   -0.6529 C   0  0  0  0  0  0  0  0  0  0  0  0
   -0.3170   -0.1286   -1.1881 O   0  0  0  0  0  0  0  0  0  0  0  0
   -0.9592    0.7217   -0.3444 C   0  0  0  0  0  0  0  0  0  0  0  0
   -1.7917    0.0805    0.7038 C   0  0  0  0  0  0  0  0  0  0  0  0
   -1.8729   -1.1318    0.7463 O   0  0  0  0  0  0  0  0  0  0  0  0
    3.2089    1.0983    1.0171 H   0  0  0  0  0  0  0  0  0  0  0  0
    1.0689   -1.5277   -1.5298 H   0  0  0  0  0  0  0  0  0  0  0  0
    0.2147   -1.7695    0.0172 H   0  0  0  0  0  0  0  0  0  0  0  0
   -1.6658    1.3298   -0.9636 H   0  0  0  0  0  0  0  0  0  0  0  0
   -0.2357    1.3794    0.1973 H   0  0  0  0  0  0  0  0  0  0  0  0
   -2.3415    0.6236    1.4460 H   0  0  0  0  0  0  0  0  0  0  0  0
  1  2  3  0
  2  3  1  0
  3  4  1  0
  4  5  1  0
  5  6  1  0
  6  7  2  0
  1  8  1  0
  3  9  1  0
  3 10  1  0
  5 11  1  0
  5 12  1  0
  6 13  1  0
M  END
