
     RDKit          3D

 21 21  0  0  0  0  0  0  0  0999 V2000
    0.2218   -1.6521    3.0863 C   0  0  0  0  0  0  0  0  0  0  0  0
    0.5409   -1.9557    1.8288 C   0  0  0  0  0  0  0  0  0  0  0  0
    0.8587   -2.2865    0.4782 C   0  0  0  0  0  0  0  0  0  0  0  0
    0.8921   -0.9855   -0.3264 C   0  0  0  0  0  0  0  0  0  0  0  0
   -0.4718   -0.3310   -0.2249 C   0  0  0  0  0  0  0  0  0  0  0  0
   -0.4803    0.9732   -1.0258 C   0  0  0  0  0  0  0  0  0  0  0  0
   -0.2204    0.8727   -2.3745 O   0  0  0  0  0  0  0  0  0  0  0  0
   -1.4844    2.0260   -0.6386 C   0  0  0  0  0  0  0  0  0  0  0  0
   -0.0098    2.1826   -0.2698 C   0  0  0  0  0  0  0  0  0  0  0  0
    0.0070   -1.4250    3.9812 H   0  0  0  0  0  0  0  0  0  0  0  0
    1.8380   -2.8108    0.4013 H   0  0  0  0  0  0  0  0  0  0  0  0
    0.0346   -2.9297    0.0480 H   0  0  0  0  0  0  0  0  0  0  0  0
    1.6895   -0.3450    0.1050 H   0  0  0  0  0  0  0  0  0  0  0  0
    1.1697   -1.1713   -1.3848 H   0  0  0  0  0  0  0  0  0  0  0  0
   -1.2619   -0.9881   -0.5805 H   0  0  0  0  0  0  0  0  0  0  0  0
   -0.6439   -0.0418    0.8324 H   0  0  0  0  0  0  0  0  0  0  0  0
    0.5655    1.3881   -2.6485 H   0  0  0  0  0  0  0  0  0  0  0  0
   -1.8513    2.7422   -1.3804 H   0  0  0  0  0  0  0  0  0  0  0  0
   -2.1806    1.7498    0.1690 H   0  0  0  0  0  0  0  0  0  0  0  0
    0.5852    2.8784   -0.8947 H   0  0  0  0  0  0  0  0  0  0  0  0
    0.2012    2.1095    0.8187 H   0  0  0  0  0  0  0  0  0  0  0  0
  1  2  3  0
  2  3  1  0
  3  4  1  0
  4  5  1  0
  5  6  1  0
  6  7  1  0
  6  8  1  0
  8  9  1  0
  9  6  1  0
  1 10  1  0
  3 11  1  0
  3 12  1  0
  4 13  1  0
  4 14  1  0
  5 15  1  0
  5 16  1  0
  7 17  1  0
  8 18  1  0
  8 19  1  0
  9 20  1  0
  9 21  1  0
M  END
