
     RDKit          3D

 15 15  0  0  0  0  0  0  0  0999 V2000
    0.8146   -0.6056    2.4910 C   0  0  0  0  0  0  0  0  0  0  0  0
    0.0365   -0.8263    1.1958 C   0  0  0  0  0  0  0  0  0  0  0  0
   -0.6688   -1.0185    0.0372 C   0  0  0  0  0  0  0  0  0  0  0  0
    0.5060   -1.7161   -0.7674 O   0  0  0  0  0  0  0  0  0  0  0  0
    0.9868   -0.4559   -1.4689 C   0  0  0  0  0  0  0  0  0  0  0  0
    2.2777   -0.3305   -1.2741 O   0  0  0  0  0  0  0  0  0  0  0  0
   -0.1161   -0.0308   -1.9639 O   0  0  0  0  0  0  0  0  0  0  0  0
   -0.9414    0.1942   -0.7371 C   0  0  0  0  0  0  0  0  0  0  0  0
   -0.3350    1.4540   -0.1025 C   0  0  0  0  0  0  0  0  0  0  0  0
    1.3573   -0.4625    3.3621 H   0  0  0  0  0  0  0  0  0  0  0  0
   -1.3787   -1.8108    0.0328 H   0  0  0  0  0  0  0  0  0  0  0  0
   -1.9275    0.4567   -1.0383 H   0  0  0  0  0  0  0  0  0  0  0  0
   -0.1379    2.2531   -0.8332 H   0  0  0  0  0  0  0  0  0  0  0  0
   -1.1063    1.7541    0.6794 H   0  0  0  0  0  0  0  0  0  0  0  0
    0.6328    1.1448    0.3871 H   0  0  0  0  0  0  0  0  0  0  0  0
  1  2  3  0
  2  3  1  0
  3  4  1  0
  4  5  1  0
  5  6  2  0
  5  7  1  0
  7  8  1  0
  8  9  1  0
  8  3  1  0
  1 10  1  0
  3 11  1  0
  8 12  1  0
  9 13  1  0
  9 14  1  0
  9 15  1  0
M  END
