
     RDKit          3D

 17 17  0  0  0  0  0  0  0  0999 V2000
    2.6159    1.6806    0.6923 C   0  0  0  0  0  0  0  0  0  0  0  0
    1.8013    0.8003    0.6098 C   0  0  0  0  0  0  0  0  0  0  0  0
    0.7952   -0.2798    0.5218 C   0  0  0  0  0  0  0  0  0  0  0  0
    1.4353   -1.4320   -0.1652 C   0  0  0  0  0  0  0  0  0  0  0  0
   -0.4622    0.2073   -0.1733 C   0  0  0  0  0  0  0  0  0  0  0  0
   -0.9968    1.3365    0.6346 O   0  0  0  0  0  0  0  0  0  0  0  0
   -1.7077    0.0162    0.4981 C   0  0  0  0  0  0  0  0  0  0  0  0
   -3.0364    0.2715   -0.0594 C   0  0  0  0  0  0  0  0  0  0  0  0
   -3.2207    0.7862   -1.1654 O   0  0  0  0  0  0  0  0  0  0  0  0
    3.3285    2.4718    0.7540 H   0  0  0  0  0  0  0  0  0  0  0  0
    0.5537   -0.5773    1.5566 H   0  0  0  0  0  0  0  0  0  0  0  0
    1.9516   -2.0899    0.5955 H   0  0  0  0  0  0  0  0  0  0  0  0
    2.2377   -1.1424   -0.8754 H   0  0  0  0  0  0  0  0  0  0  0  0
    0.7187   -2.1051   -0.6776 H   0  0  0  0  0  0  0  0  0  0  0  0
   -0.4014    0.5055   -1.2210 H   0  0  0  0  0  0  0  0  0  0  0  0
   -1.6962   -0.4509    1.5004 H   0  0  0  0  0  0  0  0  0  0  0  0
   -3.9165    0.0016    0.5133 H   0  0  0  0  0  0  0  0  0  0  0  0
  1  2  3  0
  2  3  1  0
  3  4  1  0
  3  5  1  0
  5  6  1  0
  6  7  1  0
  7  8  1  0
  8  9  2  0
  7  5  1  0
  1 10  1  0
  3 11  1  0
  4 12  1  0
  4 13  1  0
  4 14  1  0
  5 15  1  0
  7 16  1  0
  8 17  1  0
M  END
