
     RDKit          3D

 21 20  0  0  0  0  0  0  0  0999 V2000
    0.8469    2.1497    2.2146 C   0  0  0  0  0  0  0  0  0  0  0  0
    0.3996    1.1769    1.6220 C   0  0  0  0  0  0  0  0  0  0  0  0
   -0.1599    0.0107    0.9214 C   0  0  0  0  0  0  0  0  0  0  0  0
   -1.2075    0.4812   -0.0376 C   0  0  0  0  0  0  0  0  0  0  0  0
   -1.8421   -0.6463   -0.8047 C   0  0  0  0  0  0  0  0  0  0  0  0
   -0.7443    1.4384   -0.9253 O   0  0  0  0  0  0  0  0  0  0  0  0
    0.9161   -0.8203    0.2985 C   0  0  0  0  0  0  0  0  0  0  0  0
    1.7565   -0.1351   -0.7053 C   0  0  0  0  0  0  0  0  0  0  0  0
    0.3136   -1.9244   -0.3004 O   0  0  0  0  0  0  0  0  0  0  0  0
    1.2168    2.9968    2.7322 H   0  0  0  0  0  0  0  0  0  0  0  0
   -0.6733   -0.6379    1.6641 H   0  0  0  0  0  0  0  0  0  0  0  0
   -2.0157    0.9604    0.5597 H   0  0  0  0  0  0  0  0  0  0  0  0
   -1.9900   -1.5601   -0.1896 H   0  0  0  0  0  0  0  0  0  0  0  0
   -2.8517   -0.3601   -1.2055 H   0  0  0  0  0  0  0  0  0  0  0  0
   -1.2258   -0.8616   -1.7008 H   0  0  0  0  0  0  0  0  0  0  0  0
   -1.3842    1.4693   -1.6793 H   0  0  0  0  0  0  0  0  0  0  0  0
    1.5539   -1.2101    1.1211 H   0  0  0  0  0  0  0  0  0  0  0  0
    2.7888   -0.5818   -0.6618 H   0  0  0  0  0  0  0  0  0  0  0  0
    1.8917    0.9536   -0.5494 H   0  0  0  0  0  0  0  0  0  0  0  0
    1.3959   -0.3734   -1.7403 H   0  0  0  0  0  0  0  0  0  0  0  0
    1.0147   -2.5258   -0.6335 H   0  0  0  0  0  0  0  0  0  0  0  0
  1  2  3  0
  2  3  1  0
  3  4  1  0
  4  5  1  0
  4  6  1  0
  3  7  1  0
  7  8  1  0
  7  9  1  0
  1 10  1  0
  3 11  1  0
  4 12  1  0
  5 13  1  0
  5 14  1  0
  5 15  1  0
  6 16  1  0
  7 17  1  0
  8 18  1  0
  8 19  1  0
  8 20  1  0
  9 21  1  0
M  END
