
     RDKit          3D

 19 18  0  0  0  0  0  0  0  0999 V2000
    2.9993    1.8012   -0.5475 C   0  0  0  0  0  0  0  0  0  0  0  0
    1.9215    1.4420   -0.9316 C   0  0  0  0  0  0  0  0  0  0  0  0
    0.6230    1.0287   -1.4017 C   0  0  0  0  0  0  0  0  0  0  0  0
    0.0752    1.5651   -2.3956 O   0  0  0  0  0  0  0  0  0  0  0  0
   -0.0813   -0.0461   -0.7044 C   0  0  0  0  0  0  0  0  0  0  0  0
    0.6751   -1.3507   -0.6933 C   0  0  0  0  0  0  0  0  0  0  0  0
   -0.3614    0.4425    0.6993 C   0  0  0  0  0  0  0  0  0  0  0  0
   -1.0171   -0.4514    1.5011 O   0  0  0  0  0  0  0  0  0  0  0  0
   -2.2437   -0.8133    1.0227 C   0  0  0  0  0  0  0  0  0  0  0  0
    3.9649    2.1173   -0.1850 H   0  0  0  0  0  0  0  0  0  0  0  0
   -1.0415   -0.2320   -1.2245 H   0  0  0  0  0  0  0  0  0  0  0  0
    1.6876   -1.1232   -0.2756 H   0  0  0  0  0  0  0  0  0  0  0  0
    0.1548   -2.1099   -0.1086 H   0  0  0  0  0  0  0  0  0  0  0  0
    0.8473   -1.6508   -1.7475 H   0  0  0  0  0  0  0  0  0  0  0  0
   -0.9804    1.3817    0.5894 H   0  0  0  0  0  0  0  0  0  0  0  0
    0.5933    0.7968    1.1402 H   0  0  0  0  0  0  0  0  0  0  0  0
   -2.9504    0.0259    0.8863 H   0  0  0  0  0  0  0  0  0  0  0  0
   -2.1185   -1.3207    0.0569 H   0  0  0  0  0  0  0  0  0  0  0  0
   -2.7478   -1.5031    1.7535 H   0  0  0  0  0  0  0  0  0  0  0  0
  1  2  3  0
  2  3  1  0
  3  4  2  0
  3  5  1  0
  5  6  1  0
  5  7  1  0
  7  8  1  0
  8  9  1  0
  1 10  1  0
  5 11  1  0
  6 12  1  0
  6 13  1  0
  6 14  1  0
  7 15  1  0
  7 16  1  0
  9 17  1  0
  9 18  1  0
  9 19  1  0
M  END
