
     RDKit          3D

 19 20  0  0  0  0  0  0  0  0999 V2000
    1.7310    0.7390    2.4205 C   0  0  0  0  0  0  0  0  0  0  0  0
    1.1968    0.2420    1.4613 C   0  0  0  0  0  0  0  0  0  0  0  0
    0.5271   -0.3581    0.3082 C   0  0  0  0  0  0  0  0  0  0  0  0
    0.5092   -1.8767    0.3300 C   0  0  0  0  0  0  0  0  0  0  0  0
    0.9222    0.2949   -1.0345 C   0  0  0  0  0  0  0  0  0  0  0  0
   -0.4207    0.3666   -0.4950 C   0  0  0  0  0  0  0  0  0  0  0  0
   -1.1688    1.5783   -0.1478 C   0  0  0  0  0  0  0  0  0  0  0  0
   -2.1345    1.2053   -1.0861 O   0  0  0  0  0  0  0  0  0  0  0  0
   -1.6494   -0.1214   -1.1197 C   0  0  0  0  0  0  0  0  0  0  0  0
    2.1923    1.1858    3.2873 H   0  0  0  0  0  0  0  0  0  0  0  0
    0.1314   -2.1683    1.3314 H   0  0  0  0  0  0  0  0  0  0  0  0
   -0.1091   -2.2949   -0.4825 H   0  0  0  0  0  0  0  0  0  0  0  0
    1.5407   -2.2723    0.2433 H   0  0  0  0  0  0  0  0  0  0  0  0
    1.0967   -0.4264   -1.8776 H   0  0  0  0  0  0  0  0  0  0  0  0
    1.6532    1.1086   -1.0134 H   0  0  0  0  0  0  0  0  0  0  0  0
   -1.5523    1.5464    0.9125 H   0  0  0  0  0  0  0  0  0  0  0  0
   -0.7075    2.5674   -0.3188 H   0  0  0  0  0  0  0  0  0  0  0  0
   -2.2946   -0.8264   -0.5515 H   0  0  0  0  0  0  0  0  0  0  0  0
   -1.4638   -0.4896   -2.1674 H   0  0  0  0  0  0  0  0  0  0  0  0
  1  2  3  0
  2  3  1  0
  3  4  1  0
  3  5  1  0
  5  6  1  0
  6  7  1  0
  7  8  1  0
  8  9  1  0
  6  3  1  0
  9  6  1  0
  1 10  1  0
  4 11  1  0
  4 12  1  0
  4 13  1  0
  5 14  1  0
  5 15  1  0
  7 16  1  0
  7 17  1  0
  9 18  1  0
  9 19  1  0
M  END
