
     RDKit          3D

 19 19  0  0  0  0  0  0  0  0999 V2000
    2.5320   -1.9263   -1.3433 C   0  0  0  0  0  0  0  0  0  0  0  0
    2.0634   -0.9445   -0.8244 C   0  0  0  0  0  0  0  0  0  0  0  0
    1.5033    0.2568   -0.1834 C   0  0  0  0  0  0  0  0  0  0  0  0
    0.7840   -0.1052    1.1344 C   0  0  0  0  0  0  0  0  0  0  0  0
    0.0788    0.4893   -0.0757 C   0  0  0  0  0  0  0  0  0  0  0  0
   -0.4073    1.8847    0.3322 C   0  0  0  0  0  0  0  0  0  0  0  0
   -0.9514   -0.3629   -0.6922 C   0  0  0  0  0  0  0  0  0  0  0  0
   -2.2721   -0.5700   -0.0555 C   0  0  0  0  0  0  0  0  0  0  0  0
   -0.6925   -0.9522   -1.7304 O   0  0  0  0  0  0  0  0  0  0  0  0
    2.9439   -2.8174   -1.7977 H   0  0  0  0  0  0  0  0  0  0  0  0
    2.2676    1.0711   -0.0900 H   0  0  0  0  0  0  0  0  0  0  0  0
    0.9608    0.4854    2.0296 H   0  0  0  0  0  0  0  0  0  0  0  0
    0.5744   -1.1677    1.3521 H   0  0  0  0  0  0  0  0  0  0  0  0
    0.4667    2.5953    0.3829 H   0  0  0  0  0  0  0  0  0  0  0  0
   -0.8629    1.7852    1.3719 H   0  0  0  0  0  0  0  0  0  0  0  0
   -1.1504    2.2257   -0.3599 H   0  0  0  0  0  0  0  0  0  0  0  0
   -2.2240   -1.5060    0.6069 H   0  0  0  0  0  0  0  0  0  0  0  0
   -2.5332    0.2660    0.6603 H   0  0  0  0  0  0  0  0  0  0  0  0
   -3.0808   -0.7073   -0.7177 H   0  0  0  0  0  0  0  0  0  0  0  0
  1  2  3  0
  2  3  1  0
  3  4  1  0
  4  5  1  0
  5  6  1  0
  5  7  1  0
  7  8  1  0
  7  9  2  0
  5  3  1  0
  1 10  1  0
  3 11  1  0
  4 12  1  0
  4 13  1  0
  6 14  1  0
  6 15  1  0
  6 16  1  0
  8 17  1  0
  8 18  1  0
  8 19  1  0
M  END
