
     RDKit          3D

 15 14  0  0  0  0  0  0  0  0999 V2000
   -2.0695    2.3962   -0.7795 C   0  0  0  0  0  0  0  0  0  0  0  0
   -1.6655    1.2061   -0.9151 C   0  0  0  0  0  0  0  0  0  0  0  0
   -1.2330   -0.1198   -1.0831 C   0  0  0  0  0  0  0  0  0  0  0  0
    0.1618   -0.2114   -0.5738 C   0  0  0  0  0  0  0  0  0  0  0  0
    1.2801   -0.2797   -0.1851 C   0  0  0  0  0  0  0  0  0  0  0  0
    2.6931   -0.3455    0.3117 C   0  0  0  0  0  0  0  0  0  0  0  0
    2.7651   -1.2327    1.3981 O   0  0  0  0  0  0  0  0  0  0  0  0
   -2.1021   -1.0078   -0.2195 C   0  0  0  0  0  0  0  0  0  0  0  0
   -2.9104   -1.7648   -0.5081 O   0  0  0  0  0  0  0  0  0  0  0  0
   -2.4293    3.4353   -0.6694 H   0  0  0  0  0  0  0  0  0  0  0  0
   -1.1929   -0.4767   -2.1327 H   0  0  0  0  0  0  0  0  0  0  0  0
    3.3120   -0.6980   -0.5162 H   0  0  0  0  0  0  0  0  0  0  0  0
    2.9902    0.6932    0.5758 H   0  0  0  0  0  0  0  0  0  0  0  0
    2.2427   -0.7711    2.1292 H   0  0  0  0  0  0  0  0  0  0  0  0
   -1.8422   -0.8234    0.8745 H   0  0  0  0  0  0  0  0  0  0  0  0
  1  2  3  0
  2  3  1  0
  3  4  1  0
  4  5  3  0
  5  6  1  0
  6  7  1  0
  3  8  1  0
  8  9  2  0
  1 10  1  0
  3 11  1  0
  6 12  1  0
  6 13  1  0
  7 14  1  0
  8 15  1  0
M  END
