
     RDKit          3D

 17 18  0  0  0  0  0  0  0  0999 V2000
    3.2908    1.4089    0.3083 C   0  0  0  0  0  0  0  0  0  0  0  0
    2.1824    0.9904    0.2172 C   0  0  0  0  0  0  0  0  0  0  0  0
    0.8512    0.4732    0.1255 C   0  0  0  0  0  0  0  0  0  0  0  0
   -0.2749    0.9333    0.6987 C   0  0  0  0  0  0  0  0  0  0  0  0
   -1.2990   -0.0127    0.2027 C   0  0  0  0  0  0  0  0  0  0  0  0
   -2.5619    0.0795    0.5292 O   0  0  0  0  0  0  0  0  0  0  0  0
   -0.5546   -1.3448    0.3665 C   0  0  0  0  0  0  0  0  0  0  0  0
    0.3950   -0.6954   -0.6245 C   0  0  0  0  0  0  0  0  0  0  0  0
   -0.8842   -0.1355   -1.2652 C   0  0  0  0  0  0  0  0  0  0  0  0
    4.3012    1.7711    0.3890 H   0  0  0  0  0  0  0  0  0  0  0  0
   -0.3689    1.7890    1.3558 H   0  0  0  0  0  0  0  0  0  0  0  0
   -2.7798   -0.3425    1.3958 H   0  0  0  0  0  0  0  0  0  0  0  0
   -1.0946   -2.2170   -0.0042 H   0  0  0  0  0  0  0  0  0  0  0  0
   -0.0687   -1.4134    1.3492 H   0  0  0  0  0  0  0  0  0  0  0  0
    1.0324   -1.2876   -1.2068 H   0  0  0  0  0  0  0  0  0  0  0  0
   -0.7088    0.8552   -1.6889 H   0  0  0  0  0  0  0  0  0  0  0  0
   -1.4576   -0.8516   -1.8514 H   0  0  0  0  0  0  0  0  0  0  0  0
  1  2  3  0
  2  3  1  0
  3  4  2  0
  4  5  1  0
  5  6  1  0
  5  7  1  0
  7  8  1  0
  8  9  1  0
  8  3  1  0
  9  5  1  0
  1 10  1  0
  4 11  1  0
  6 12  1  0
  7 13  1  0
  7 14  1  0
  8 15  1  0
  9 16  1  0
  9 17  1  0
M  END
