
     RDKit          3D

 19 20  0  0  0  0  0  0  0  0999 V2000
    2.8686   -1.1415   -0.1505 C   0  0  0  0  0  0  0  0  0  0  0  0
    2.0482   -0.3197    0.2505 C   0  0  0  0  0  0  0  0  0  0  0  0
    1.0967    0.6676    0.7324 C   0  0  0  0  0  0  0  0  0  0  0  0
   -0.0075    0.8437   -0.2083 C   0  0  0  0  0  0  0  0  0  0  0  0
   -0.9508    1.8387    0.2306 C   0  0  0  0  0  0  0  0  0  0  0  0
   -1.5186    0.5675    0.1693 C   0  0  0  0  0  0  0  0  0  0  0  0
   -1.2028   -0.8092    0.5937 C   0  0  0  0  0  0  0  0  0  0  0  0
   -0.4797   -1.2024   -0.7173 C   0  0  0  0  0  0  0  0  0  0  0  0
    0.0056   -0.0062   -1.2399 O   0  0  0  0  0  0  0  0  0  0  0  0
    3.5646   -1.8398   -0.5100 H   0  0  0  0  0  0  0  0  0  0  0  0
    1.7120    1.6170    0.8542 H   0  0  0  0  0  0  0  0  0  0  0  0
    0.8537    0.3818    1.7645 H   0  0  0  0  0  0  0  0  0  0  0  0
   -0.8521    2.3282    1.2101 H   0  0  0  0  0  0  0  0  0  0  0  0
   -1.1531    2.6358   -0.5490 H   0  0  0  0  0  0  0  0  0  0  0  0
   -2.2138    0.4583   -0.7336 H   0  0  0  0  0  0  0  0  0  0  0  0
   -0.6188   -0.9811    1.4733 H   0  0  0  0  0  0  0  0  0  0  0  0
   -2.1099   -1.4457    0.6605 H   0  0  0  0  0  0  0  0  0  0  0  0
   -1.2743   -1.5923   -1.4382 H   0  0  0  0  0  0  0  0  0  0  0  0
    0.2320   -2.0007   -0.5905 H   0  0  0  0  0  0  0  0  0  0  0  0
  1  2  3  0
  2  3  1  0
  3  4  1  0
  4  5  1  0
  5  6  1  0
  6  7  1  0
  7  8  1  0
  8  9  1  0
  6  4  1  0
  9  4  1  0
  1 10  1  0
  3 11  1  0
  3 12  1  0
  5 13  1  0
  5 14  1  0
  6 15  1  0
  7 16  1  0
  7 17  1  0
  8 18  1  0
  8 19  1  0
M  END
