
     RDKit          3D

 21 22  0  0  0  0  0  0  0  0999 V2000
    0.6883   -3.0134    0.1125 C   0  0  0  0  0  0  0  0  0  0  0  0
    0.3743   -1.9420   -0.2899 C   0  0  0  0  0  0  0  0  0  0  0  0
    0.0019   -0.6224   -0.7618 C   0  0  0  0  0  0  0  0  0  0  0  0
    1.2112    0.0967   -1.2799 C   0  0  0  0  0  0  0  0  0  0  0  0
    0.8626    1.5744   -1.0958 C   0  0  0  0  0  0  0  0  0  0  0  0
    0.0558    1.6190    0.1870 C   0  0  0  0  0  0  0  0  0  0  0  0
   -0.5275    0.2495    0.3686 C   0  0  0  0  0  0  0  0  0  0  0  0
   -1.8769    0.0482    0.9006 C   0  0  0  0  0  0  0  0  0  0  0  0
   -0.6508   -0.3512    1.7019 C   0  0  0  0  0  0  0  0  0  0  0  0
    0.9992   -4.0081    0.4938 H   0  0  0  0  0  0  0  0  0  0  0  0
   -0.7383   -0.7276   -1.5892 H   0  0  0  0  0  0  0  0  0  0  0  0
    1.3830   -0.1153   -2.3559 H   0  0  0  0  0  0  0  0  0  0  0  0
    2.1347   -0.1100   -0.7579 H   0  0  0  0  0  0  0  0  0  0  0  0
    1.7647    2.2021   -1.0670 H   0  0  0  0  0  0  0  0  0  0  0  0
    0.2139    1.8818   -1.9106 H   0  0  0  0  0  0  0  0  0  0  0  0
    0.7067    1.9506    1.0393 H   0  0  0  0  0  0  0  0  0  0  0  0
   -0.7379    2.3896    0.1268 H   0  0  0  0  0  0  0  0  0  0  0  0
   -2.4971   -0.7876    0.4428 H   0  0  0  0  0  0  0  0  0  0  0  0
   -2.4436    0.9238    1.2914 H   0  0  0  0  0  0  0  0  0  0  0  0
   -0.4496    0.1839    2.6481 H   0  0  0  0  0  0  0  0  0  0  0  0
   -0.4748   -1.4419    1.7954 H   0  0  0  0  0  0  0  0  0  0  0  0
  1  2  3  0
  2  3  1  0
  3  4  1  0
  4  5  1  0
  5  6  1  0
  6  7  1  0
  7  8  1  0
  8  9  1  0
  7  3  1  0
  9  7  1  0
  1 10  1  0
  3 11  1  0
  4 12  1  0
  4 13  1  0
  5 14  1  0
  5 15  1  0
  6 16  1  0
  6 17  1  0
  8 18  1  0
  8 19  1  0
  9 20  1  0
  9 21  1  0
M  END
