
     RDKit          3D

 21 20  0  0  0  0  0  0  0  0999 V2000
   -2.8655    1.7810    0.6532 C   0  0  0  0  0  0  0  0  0  0  0  0
   -1.9838    0.9598    0.6965 C   0  0  0  0  0  0  0  0  0  0  0  0
   -0.8855   -0.0472    0.7278 C   0  0  0  0  0  0  0  0  0  0  0  0
   -1.3301   -1.3121    0.0498 C   0  0  0  0  0  0  0  0  0  0  0  0
   -2.4630   -1.8565    0.6865 O   0  0  0  0  0  0  0  0  0  0  0  0
    0.2982    0.6181    0.1287 C   0  0  0  0  0  0  0  0  0  0  0  0
    1.5503   -0.1967    0.0435 C   0  0  0  0  0  0  0  0  0  0  0  0
    2.6194    0.7130   -0.5944 C   0  0  0  0  0  0  0  0  0  0  0  0
    1.3240   -1.2782   -0.8342 O   0  0  0  0  0  0  0  0  0  0  0  0
   -3.6311    2.5169    0.6230 H   0  0  0  0  0  0  0  0  0  0  0  0
   -0.6644   -0.2623    1.7928 H   0  0  0  0  0  0  0  0  0  0  0  0
   -1.5505   -1.2023   -1.0208 H   0  0  0  0  0  0  0  0  0  0  0  0
   -0.5472   -2.0969    0.1881 H   0  0  0  0  0  0  0  0  0  0  0  0
   -2.8648   -1.2165    1.3142 H   0  0  0  0  0  0  0  0  0  0  0  0
    0.5056    1.5307    0.7623 H   0  0  0  0  0  0  0  0  0  0  0  0
    0.1038    1.0434   -0.8842 H   0  0  0  0  0  0  0  0  0  0  0  0
    1.9506   -0.5239    1.0169 H   0  0  0  0  0  0  0  0  0  0  0  0
    2.4040    1.7536   -0.2719 H   0  0  0  0  0  0  0  0  0  0  0  0
    2.5355    0.6808   -1.6848 H   0  0  0  0  0  0  0  0  0  0  0  0
    3.6277    0.4617   -0.2157 H   0  0  0  0  0  0  0  0  0  0  0  0
    1.8668   -2.0663   -0.5665 H   0  0  0  0  0  0  0  0  0  0  0  0
  1  2  3  0
  2  3  1  0
  3  4  1  0
  4  5  1  0
  3  6  1  0
  6  7  1  0
  7  8  1  0
  7  9  1  0
  1 10  1  0
  3 11  1  0
  4 12  1  0
  4 13  1  0
  5 14  1  0
  6 15  1  0
  6 16  1  0
  7 17  1  0
  8 18  1  0
  8 19  1  0
  8 20  1  0
  9 21  1  0
M  END
