
     RDKit          3D

 17 18  0  0  0  0  0  0  0  0999 V2000
    2.3610   -0.6603    2.2056 C   0  0  0  0  0  0  0  0  0  0  0  0
    1.3233   -0.9257    1.6614 C   0  0  0  0  0  0  0  0  0  0  0  0
    0.0404   -1.2407    0.9992 C   0  0  0  0  0  0  0  0  0  0  0  0
   -0.0809   -0.6278   -0.3579 C   0  0  0  0  0  0  0  0  0  0  0  0
   -1.3688   -0.9050   -1.0776 C   0  0  0  0  0  0  0  0  0  0  0  0
   -1.4768    0.4875   -1.5588 C   0  0  0  0  0  0  0  0  0  0  0  0
   -2.0393    1.1219   -2.4012 O   0  0  0  0  0  0  0  0  0  0  0  0
   -0.5201    0.8479   -0.4860 C   0  0  0  0  0  0  0  0  0  0  0  0
    0.8670    0.4018   -0.7450 C   0  0  0  0  0  0  0  0  0  0  0  0
    3.2853   -0.4122    2.6798 H   0  0  0  0  0  0  0  0  0  0  0  0
    0.0474   -2.3625    0.8875 H   0  0  0  0  0  0  0  0  0  0  0  0
   -0.7992   -1.0314    1.6818 H   0  0  0  0  0  0  0  0  0  0  0  0
   -2.1933   -1.0708   -0.3224 H   0  0  0  0  0  0  0  0  0  0  0  0
   -1.3661   -1.7100   -1.8084 H   0  0  0  0  0  0  0  0  0  0  0  0
   -0.8909    1.2213    0.4809 H   0  0  0  0  0  0  0  0  0  0  0  0
    1.6209    0.7296   -0.0227 H   0  0  0  0  0  0  0  0  0  0  0  0
    1.1897    0.5697   -1.8164 H   0  0  0  0  0  0  0  0  0  0  0  0
  1  2  3  0
  2  3  1  0
  3  4  1  0
  4  5  1  0
  5  6  1  0
  6  7  2  0
  6  8  1  0
  8  9  1  0
  8  4  1  0
  9  4  1  0
  1 10  1  0
  3 11  1  0
  3 12  1  0
  5 13  1  0
  5 14  1  0
  8 15  1  0
  9 16  1  0
  9 17  1  0
M  END
