
     RDKit          3D

 19 20  0  0  0  0  0  0  0  0999 V2000
    1.8635    2.0766    1.5070 C   0  0  0  0  0  0  0  0  0  0  0  0
    0.9488    1.0571    1.0347 C   0  0  0  0  0  0  0  0  0  0  0  0
    0.0209    0.0213    0.5294 C   0  0  0  0  0  0  0  0  0  0  0  0
    0.5799    0.3936   -1.1437 O   0  0  0  0  0  0  0  0  0  0  0  0
    1.8122   -0.0829   -0.7724 C   0  0  0  0  0  0  0  0  0  0  0  0
   -0.1754   -1.2425    0.1823 C   0  0  0  0  0  0  0  0  0  0  0  0
   -1.6731   -0.9488   -0.0098 C   0  0  0  0  0  0  0  0  0  0  0  0
   -2.1792    0.0350   -0.9684 C   0  0  0  0  0  0  0  0  0  0  0  0
   -1.3596    0.5245    0.1945 C   0  0  0  0  0  0  0  0  0  0  0  0
    2.4512    2.7377    1.8085 H   0  0  0  0  0  0  0  0  0  0  0  0
    1.9646   -0.9087   -0.1332 H   0  0  0  0  0  0  0  0  0  0  0  0
    2.6308    0.6912   -0.7400 H   0  0  0  0  0  0  0  0  0  0  0  0
    2.1666   -0.6834   -1.8049 H   0  0  0  0  0  0  0  0  0  0  0  0
    0.3430   -1.8922   -0.6792 H   0  0  0  0  0  0  0  0  0  0  0  0
    0.1901   -1.8011    1.1877 H   0  0  0  0  0  0  0  0  0  0  0  0
   -2.3890   -1.3937    0.7480 H   0  0  0  0  0  0  0  0  0  0  0  0
   -1.8054    0.1381   -1.9522 H   0  0  0  0  0  0  0  0  0  0  0  0
   -3.3217    0.2253   -0.8870 H   0  0  0  0  0  0  0  0  0  0  0  0
   -2.0682    1.0529    0.9269 H   0  0  0  0  0  0  0  0  0  0  0  0
  1  2  3  0
  2  3  1  0
  3  4  1  0
  4  5  1  0
  3  6  1  0
  6  7  1  0
  7  8  1  0
  8  9  1  0
  9  3  1  0
  9  7  1  0
  1 10  1  0
  5 11  1  0
  5 12  1  0
  5 13  1  0
  6 14  1  0
  6 15  1  0
  7 16  1  0
  8 17  1  0
  8 18  1  0
  9 19  1  0
M  END
