
     RDKit          3D

 19 19  0  0  0  0  0  0  0  0999 V2000
    2.8219   -1.3036   -0.3725 C   0  0  0  0  0  0  0  0  0  0  0  0
    1.6698   -0.9989   -0.6605 C   0  0  0  0  0  0  0  0  0  0  0  0
    0.3007   -0.6139   -0.9957 C   0  0  0  0  0  0  0  0  0  0  0  0
    0.1875    0.3971   -1.9363 O   0  0  0  0  0  0  0  0  0  0  0  0
    0.1698    1.3753   -0.9132 C   0  0  0  0  0  0  0  0  0  0  0  0
   -0.3043    0.3208    0.0270 C   0  0  0  0  0  0  0  0  0  0  0  0
    0.3450    0.2033    1.3597 C   0  0  0  0  0  0  0  0  0  0  0  0
   -1.8094    0.1988    0.0206 C   0  0  0  0  0  0  0  0  0  0  0  0
   -2.2345   -1.1000    0.3258 O   0  0  0  0  0  0  0  0  0  0  0  0
    3.8163   -1.5802   -0.1366 H   0  0  0  0  0  0  0  0  0  0  0  0
   -0.2951   -1.5013   -1.2407 H   0  0  0  0  0  0  0  0  0  0  0  0
   -0.6133    2.1197   -1.1552 H   0  0  0  0  0  0  0  0  0  0  0  0
    1.1850    1.7711   -0.7758 H   0  0  0  0  0  0  0  0  0  0  0  0
   -0.3792   -0.2630    2.0804 H   0  0  0  0  0  0  0  0  0  0  0  0
    0.6658    1.1642    1.7820 H   0  0  0  0  0  0  0  0  0  0  0  0
    1.2690   -0.4448    1.3331 H   0  0  0  0  0  0  0  0  0  0  0  0
   -2.1695    0.5535   -0.9562 H   0  0  0  0  0  0  0  0  0  0  0  0
   -2.1885    0.9009    0.8131 H   0  0  0  0  0  0  0  0  0  0  0  0
   -2.4369   -1.1990    1.2938 H   0  0  0  0  0  0  0  0  0  0  0  0
  1  2  3  0
  2  3  1  0
  3  4  1  0
  4  5  1  0
  5  6  1  0
  6  7  1  0
  6  8  1  0
  8  9  1  0
  6  3  1  0
  1 10  1  0
  3 11  1  0
  5 12  1  0
  5 13  1  0
  7 14  1  0
  7 15  1  0
  7 16  1  0
  8 17  1  0
  8 18  1  0
  9 19  1  0
M  END
