
     RDKit          3D

 19 20  0  0  0  0  0  0  0  0999 V2000
    4.1596    0.0239    0.3466 C   0  0  0  0  0  0  0  0  0  0  0  0
    3.0029    0.3077    0.1525 C   0  0  0  0  0  0  0  0  0  0  0  0
    1.5900    0.6321   -0.0972 C   0  0  0  0  0  0  0  0  0  0  0  0
    0.9168    1.0941    1.1713 O   0  0  0  0  0  0  0  0  0  0  0  0
    0.5853   -0.1952    0.4699 C   0  0  0  0  0  0  0  0  0  0  0  0
   -0.8512   -0.1876    0.0730 C   0  0  0  0  0  0  0  0  0  0  0  0
   -1.2322   -0.5106   -1.3523 C   0  0  0  0  0  0  0  0  0  0  0  0
   -1.8261    0.7432    0.7926 C   0  0  0  0  0  0  0  0  0  0  0  0
   -1.8299   -0.6759    1.1617 C   0  0  0  0  0  0  0  0  0  0  0  0
    5.1900   -0.2451    0.5094 H   0  0  0  0  0  0  0  0  0  0  0  0
    1.3598    1.3942   -0.8622 H   0  0  0  0  0  0  0  0  0  0  0  0
    0.8720   -1.0162    1.1642 H   0  0  0  0  0  0  0  0  0  0  0  0
   -0.4977   -0.0083   -2.0105 H   0  0  0  0  0  0  0  0  0  0  0  0
   -2.2337   -0.1484   -1.5857 H   0  0  0  0  0  0  0  0  0  0  0  0
   -1.1885   -1.5835   -1.5849 H   0  0  0  0  0  0  0  0  0  0  0  0
   -1.2810    1.4876    1.4288 H   0  0  0  0  0  0  0  0  0  0  0  0
   -2.6848    1.1496    0.2100 H   0  0  0  0  0  0  0  0  0  0  0  0
   -1.3827   -0.9541    2.1409 H   0  0  0  0  0  0  0  0  0  0  0  0
   -2.6685   -1.3076    0.8059 H   0  0  0  0  0  0  0  0  0  0  0  0
  1  2  3  0
  2  3  1  0
  3  4  1  0
  4  5  1  0
  5  6  1  0
  6  7  1  0
  6  8  1  0
  8  9  1  0
  5  3  1  0
  9  6  1  0
  1 10  1  0
  3 11  1  0
  5 12  1  0
  7 13  1  0
  7 14  1  0
  7 15  1  0
  8 16  1  0
  8 17  1  0
  9 18  1  0
  9 19  1  0
M  END
