
     RDKit          3D

 17 17  0  0  0  0  0  0  0  0999 V2000
   -2.3387    1.1121   -2.0184 C   0  0  0  0  0  0  0  0  0  0  0  0
   -1.8418    0.8786   -0.9368 C   0  0  0  0  0  0  0  0  0  0  0  0
   -1.2470    0.6202    0.3778 C   0  0  0  0  0  0  0  0  0  0  0  0
   -2.0415   -0.2571    1.1105 O   0  0  0  0  0  0  0  0  0  0  0  0
    0.1142    0.0113    0.2382 C   0  0  0  0  0  0  0  0  0  0  0  0
    0.5042   -1.1708    0.7019 C   0  0  0  0  0  0  0  0  0  0  0  0
    1.9322   -1.3290    0.3149 C   0  0  0  0  0  0  0  0  0  0  0  0
    2.0726   -0.5145   -0.8069 O   0  0  0  0  0  0  0  0  0  0  0  0
    1.3068    0.5887   -0.4363 C   0  0  0  0  0  0  0  0  0  0  0  0
   -2.7825    1.3351   -2.9671 H   0  0  0  0  0  0  0  0  0  0  0  0
   -1.1576    1.5732    0.9201 H   0  0  0  0  0  0  0  0  0  0  0  0
   -2.0111   -0.0674    2.0820 H   0  0  0  0  0  0  0  0  0  0  0  0
   -0.1374   -1.8386    1.2451 H   0  0  0  0  0  0  0  0  0  0  0  0
    2.5579   -0.9563    1.1302 H   0  0  0  0  0  0  0  0  0  0  0  0
    2.0926   -2.3776    0.0517 H   0  0  0  0  0  0  0  0  0  0  0  0
    1.0293    1.2286   -1.3010 H   0  0  0  0  0  0  0  0  0  0  0  0
    1.9478    1.1636    0.2943 H   0  0  0  0  0  0  0  0  0  0  0  0
  1  2  3  0
  2  3  1  0
  3  4  1  0
  3  5  1  0
  5  6  2  0
  6  7  1  0
  7  8  1  0
  8  9  1  0
  9  5  1  0
  1 10  1  0
  3 11  1  0
  4 12  1  0
  6 13  1  0
  7 14  1  0
  7 15  1  0
  9 16  1  0
  9 17  1  0
M  END
