
     RDKit          3D

 17 18  0  0  0  0  0  0  0  0999 V2000
    1.7427   -0.9205   -1.7860 C   0  0  0  0  0  0  0  0  0  0  0  0
    1.1757   -0.5107   -0.8043 C   0  0  0  0  0  0  0  0  0  0  0  0
    0.5090    0.0022    0.3716 C   0  0  0  0  0  0  0  0  0  0  0  0
    1.4081    0.2869    1.5384 C   0  0  0  0  0  0  0  0  0  0  0  0
   -0.7841   -0.6683    0.6752 C   0  0  0  0  0  0  0  0  0  0  0  0
   -1.1542    0.5152    1.3167 O   0  0  0  0  0  0  0  0  0  0  0  0
   -0.5874    0.9954    0.1521 C   0  0  0  0  0  0  0  0  0  0  0  0
   -1.3421   -0.0740   -0.5712 C   0  0  0  0  0  0  0  0  0  0  0  0
   -2.7279    0.0224   -0.5395 O   0  0  0  0  0  0  0  0  0  0  0  0
    2.2338   -1.2950   -2.6701 H   0  0  0  0  0  0  0  0  0  0  0  0
    1.9649   -0.6635    1.7592 H   0  0  0  0  0  0  0  0  0  0  0  0
    0.7978    0.5823    2.4115 H   0  0  0  0  0  0  0  0  0  0  0  0
    2.1257    1.1033    1.2455 H   0  0  0  0  0  0  0  0  0  0  0  0
   -0.9297   -1.5991    1.0338 H   0  0  0  0  0  0  0  0  0  0  0  0
   -0.4861    1.9607   -0.1241 H   0  0  0  0  0  0  0  0  0  0  0  0
   -0.9093   -0.3715   -1.5281 H   0  0  0  0  0  0  0  0  0  0  0  0
   -3.0368    0.6342    0.1733 H   0  0  0  0  0  0  0  0  0  0  0  0
  1  2  3  0
  2  3  1  0
  3  4  1  0
  3  5  1  0
  5  6  1  0
  6  7  1  0
  7  8  1  0
  8  9  1  0
  7  3  1  0
  8  5  1  0
  1 10  1  0
  4 11  1  0
  4 12  1  0
  4 13  1  0
  5 14  1  0
  7 15  1  0
  8 16  1  0
  9 17  1  0
M  END
