
     RDKit          3D

 19 19  0  0  0  0  0  0  0  0999 V2000
    2.6618   -0.2250   -2.0812 C   0  0  0  0  0  0  0  0  0  0  0  0
    1.6889   -0.3956   -1.4411 C   0  0  0  0  0  0  0  0  0  0  0  0
    0.4585   -0.5857   -0.6264 C   0  0  0  0  0  0  0  0  0  0  0  0
    0.4278   -1.7918    0.2785 C   0  0  0  0  0  0  0  0  0  0  0  0
   -0.8099   -0.1411   -1.2242 C   0  0  0  0  0  0  0  0  0  0  0  0
   -0.1490    0.6660   -0.1236 C   0  0  0  0  0  0  0  0  0  0  0  0
   -0.7812    0.5977    1.2596 C   0  0  0  0  0  0  0  0  0  0  0  0
   -1.3437    1.8806    1.6821 C   0  0  0  0  0  0  0  0  0  0  0  0
   -0.6228    2.7755    2.0750 O   0  0  0  0  0  0  0  0  0  0  0  0
    3.5607   -0.0863   -2.6726 H   0  0  0  0  0  0  0  0  0  0  0  0
    1.0741   -1.5435    1.1530 H   0  0  0  0  0  0  0  0  0  0  0  0
   -0.6386   -1.9246    0.6112 H   0  0  0  0  0  0  0  0  0  0  0  0
    0.7065   -2.6807   -0.2687 H   0  0  0  0  0  0  0  0  0  0  0  0
   -1.7601   -0.6261   -0.9399 H   0  0  0  0  0  0  0  0  0  0  0  0
   -0.7819    0.3338   -2.2454 H   0  0  0  0  0  0  0  0  0  0  0  0
    0.2289    1.6604   -0.4325 H   0  0  0  0  0  0  0  0  0  0  0  0
    0.0262    0.2505    1.9395 H   0  0  0  0  0  0  0  0  0  0  0  0
   -1.5421   -0.2258    1.2738 H   0  0  0  0  0  0  0  0  0  0  0  0
   -2.4041    2.0618    1.6556 H   0  0  0  0  0  0  0  0  0  0  0  0
  1  2  3  0
  2  3  1  0
  3  4  1  0
  3  5  1  0
  5  6  1  0
  6  7  1  0
  7  8  1  0
  8  9  2  0
  6  3  1  0
  1 10  1  0
  4 11  1  0
  4 12  1  0
  4 13  1  0
  5 14  1  0
  5 15  1  0
  6 16  1  0
  7 17  1  0
  7 18  1  0
  8 19  1  0
M  END
