
     RDKit          3D

 19 18  0  0  0  0  0  0  0  0999 V2000
    4.3824    1.1692   -0.0753 C   0  0  0  0  0  0  0  0  0  0  0  0
    3.1835    0.9842   -0.0587 C   0  0  0  0  0  0  0  0  0  0  0  0
    1.7887    0.7510   -0.0233 C   0  0  0  0  0  0  0  0  0  0  0  0
    0.6156    0.5688   -0.0090 C   0  0  0  0  0  0  0  0  0  0  0  0
   -0.8073    0.3300    0.0130 C   0  0  0  0  0  0  0  0  0  0  0  0
   -1.4543    1.2715    1.0262 C   0  0  0  0  0  0  0  0  0  0  0  0
   -1.3756    0.5723   -1.2418 O   0  0  0  0  0  0  0  0  0  0  0  0
   -1.1452   -1.0740    0.4451 C   0  0  0  0  0  0  0  0  0  0  0  0
   -0.5738   -2.1241   -0.4380 C   0  0  0  0  0  0  0  0  0  0  0  0
    5.4303    1.3244   -0.1021 H   0  0  0  0  0  0  0  0  0  0  0  0
   -2.2451    0.7487    1.6065 H   0  0  0  0  0  0  0  0  0  0  0  0
   -1.8603    2.1560    0.5198 H   0  0  0  0  0  0  0  0  0  0  0  0
   -0.6987    1.6082    1.7802 H   0  0  0  0  0  0  0  0  0  0  0  0
   -0.9485    1.4065   -1.5716 H   0  0  0  0  0  0  0  0  0  0  0  0
   -2.2516   -1.1586    0.4274 H   0  0  0  0  0  0  0  0  0  0  0  0
   -0.8266   -1.2299    1.4890 H   0  0  0  0  0  0  0  0  0  0  0  0
   -1.2809   -2.9783   -0.4828 H   0  0  0  0  0  0  0  0  0  0  0  0
    0.3788   -2.5593   -0.0236 H   0  0  0  0  0  0  0  0  0  0  0  0
   -0.3115   -1.7666   -1.4553 H   0  0  0  0  0  0  0  0  0  0  0  0
  1  2  3  0
  2  3  1  0
  3  4  3  0
  4  5  1  0
  5  6  1  0
  5  7  1  0
  5  8  1  0
  8  9  1  0
  1 10  1  0
  6 11  1  0
  6 12  1  0
  6 13  1  0
  7 14  1  0
  8 15  1  0
  8 16  1  0
  9 17  1  0
  9 18  1  0
  9 19  1  0
M  END
