
     RDKit          3D

 19 18  0  0  0  0  0  0  0  0999 V2000
   -2.7004    2.2024   -0.5007 C   0  0  0  0  0  0  0  0  0  0  0  0
   -2.0317    1.2695   -0.0870 C   0  0  0  0  0  0  0  0  0  0  0  0
   -1.2174    0.1731    0.3993 C   0  0  0  0  0  0  0  0  0  0  0  0
   -2.0060   -1.0579    0.5193 C   0  0  0  0  0  0  0  0  0  0  0  0
   -2.6320   -2.0691    0.6082 C   0  0  0  0  0  0  0  0  0  0  0  0
   -0.1413   -0.1013   -0.4237 O   0  0  0  0  0  0  0  0  0  0  0  0
    1.0834    0.0246    0.1846 C   0  0  0  0  0  0  0  0  0  0  0  0
    1.8818    1.0581   -0.6076 C   0  0  0  0  0  0  0  0  0  0  0  0
    1.8022   -1.2968   -0.0131 C   0  0  0  0  0  0  0  0  0  0  0  0
   -3.2652    3.0217   -0.8605 H   0  0  0  0  0  0  0  0  0  0  0  0
   -0.7766    0.4416    1.4051 H   0  0  0  0  0  0  0  0  0  0  0  0
   -3.1833   -2.9757    0.6917 H   0  0  0  0  0  0  0  0  0  0  0  0
    1.0356    0.3265    1.2429 H   0  0  0  0  0  0  0  0  0  0  0  0
    1.2789    1.9215   -0.8955 H   0  0  0  0  0  0  0  0  0  0  0  0
    2.2210    0.5470   -1.5374 H   0  0  0  0  0  0  0  0  0  0  0  0
    2.7803    1.3343   -0.0457 H   0  0  0  0  0  0  0  0  0  0  0  0
    2.3181   -1.3218   -0.9970 H   0  0  0  0  0  0  0  0  0  0  0  0
    1.0321   -2.0904    0.0915 H   0  0  0  0  0  0  0  0  0  0  0  0
    2.5204   -1.4071    0.8258 H   0  0  0  0  0  0  0  0  0  0  0  0
  1  2  3  0
  2  3  1  0
  3  4  1  0
  4  5  3  0
  3  6  1  0
  6  7  1  0
  7  8  1  0
  7  9  1  0
  1 10  1  0
  3 11  1  0
  5 12  1  0
  7 13  1  0
  8 14  1  0
  8 15  1  0
  8 16  1  0
  9 17  1  0
  9 18  1  0
  9 19  1  0
M  END
