
     RDKit          3D

 20 20  0  0  0  0  0  0  0  0999 V2000
    2.6290   -0.5969    1.4747 C   0  0  0  0  0  0  0  0  0  0  0  0
    1.8227    0.2869    1.2910 C   0  0  0  0  0  0  0  0  0  0  0  0
    0.8703    1.3683    1.0726 C   0  0  0  0  0  0  0  0  0  0  0  0
   -0.2409    0.8702    0.1800 C   0  0  0  0  0  0  0  0  0  0  0  0
    0.2620    0.4086   -1.1589 C   0  0  0  0  0  0  0  0  0  0  0  0
   -0.7671   -0.5563   -1.6424 C   0  0  0  0  0  0  0  0  0  0  0  0
   -1.7306   -0.8028   -0.4920 C   0  0  0  0  0  0  0  0  0  0  0  0
   -0.8634   -0.4076    0.7083 C   0  0  0  0  0  0  0  0  0  0  0  0
    3.3433   -1.3742    1.6549 H   0  0  0  0  0  0  0  0  0  0  0  0
    1.3725    2.2029    0.5925 H   0  0  0  0  0  0  0  0  0  0  0  0
    0.4238    1.7159    2.0201 H   0  0  0  0  0  0  0  0  0  0  0  0
   -1.0559    1.5999    0.0688 H   0  0  0  0  0  0  0  0  0  0  0  0
    1.2360   -0.1026   -0.9805 H   0  0  0  0  0  0  0  0  0  0  0  0
    0.4746    1.2355   -1.8581 H   0  0  0  0  0  0  0  0  0  0  0  0
   -1.2892   -0.2384   -2.5619 H   0  0  0  0  0  0  0  0  0  0  0  0
   -0.2771   -1.5398   -1.8528 H   0  0  0  0  0  0  0  0  0  0  0  0
   -2.0834   -1.8314   -0.4335 H   0  0  0  0  0  0  0  0  0  0  0  0
   -2.5649   -0.0543   -0.5106 H   0  0  0  0  0  0  0  0  0  0  0  0
   -1.4751   -0.2325    1.6102 H   0  0  0  0  0  0  0  0  0  0  0  0
   -0.0866   -1.1643    0.8176 H   0  0  0  0  0  0  0  0  0  0  0  0
  1  2  3  0
  2  3  1  0
  3  4  1  0
  4  5  1  0
  5  6  1  0
  6  7  1  0
  7  8  1  0
  8  4  1  0
  1  9  1  0
  3 10  1  0
  3 11  1  0
  4 12  1  0
  5 13  1  0
  5 14  1  0
  6 15  1  0
  6 16  1  0
  7 17  1  0
  7 18  1  0
  8 19  1  0
  8 20  1  0
M  END
