
     RDKit          3D

 12 13  0  0  0  0  0  0  0  0999 V2000
    2.1503    0.3986    0.2133 C   0  0  0  0  0  0  0  0  0  0  0  0
    1.1695    0.1201   -0.2529 C   0  0  0  0  0  0  0  0  0  0  0  0
   -0.0165   -0.2215   -0.8160 C   0  0  0  0  0  0  0  0  0  0  0  0
   -1.1159    0.8288   -0.7032 C   0  0  0  0  0  0  0  0  0  0  0  0
   -1.0333    0.0876    0.6033 C   0  0  0  0  0  0  0  0  0  0  0  0
   -1.2612   -1.1847    0.7628 O   0  0  0  0  0  0  0  0  0  0  0  0
   -0.3678   -1.6259   -0.0485 C   0  0  0  0  0  0  0  0  0  0  0  0
    0.2382   -2.6740   -0.3688 O   0  0  0  0  0  0  0  0  0  0  0  0
    3.5188    0.7940    0.8901 H   0  0  0  0  0  0  0  0  0  0  0  0
   -2.1032    0.8964   -1.1944 H   0  0  0  0  0  0  0  0  0  0  0  0
   -0.7381    1.9192   -0.5193 H   0  0  0  0  0  0  0  0  0  0  0  0
   -0.4407    0.6613    1.4336 H   0  0  0  0  0  0  0  0  0  0  0  0
  1  2  3  0
  2  3  1  0
  3  4  1  0
  4  5  1  0
  5  6  1  0
  6  7  1  0
  7  8  2  0
  5  3  1  0
  7  3  1  0
  1  9  1  0
  4 10  1  0
  4 11  1  0
  5 12  1  0
M  END
