
     RDKit          3D

 17 17  0  0  0  0  0  0  0  0999 V2000
    3.2199    0.4906   -0.4639 C   0  0  0  0  0  0  0  0  0  0  0  0
    2.3062   -0.1953   -0.0809 C   0  0  0  0  0  0  0  0  0  0  0  0
    1.1849   -1.0440    0.3836 C   0  0  0  0  0  0  0  0  0  0  0  0
   -0.0211   -0.6298   -0.4166 C   0  0  0  0  0  0  0  0  0  0  0  0
   -0.3579    0.8271   -0.2083 C   0  0  0  0  0  0  0  0  0  0  0  0
   -1.8801    0.7966   -0.3026 C   0  0  0  0  0  0  0  0  0  0  0  0
   -2.2482   -0.5595    0.1596 C   0  0  0  0  0  0  0  0  0  0  0  0
   -3.3459   -0.9141    0.6902 O   0  0  0  0  0  0  0  0  0  0  0  0
   -1.1625   -1.3675   -0.0988 O   0  0  0  0  0  0  0  0  0  0  0  0
    4.0220    1.1145   -0.8026 H   0  0  0  0  0  0  0  0  0  0  0  0
    1.3815   -2.1091    0.2035 H   0  0  0  0  0  0  0  0  0  0  0  0
    1.0494   -0.8160    1.4681 H   0  0  0  0  0  0  0  0  0  0  0  0
    0.2192   -0.7768   -1.4845 H   0  0  0  0  0  0  0  0  0  0  0  0
   -0.0653    1.1928    0.8064 H   0  0  0  0  0  0  0  0  0  0  0  0
    0.0968    1.4433   -0.9867 H   0  0  0  0  0  0  0  0  0  0  0  0
   -2.1303    0.9671   -1.3702 H   0  0  0  0  0  0  0  0  0  0  0  0
   -2.2685    1.5802    0.3723 H   0  0  0  0  0  0  0  0  0  0  0  0
  1  2  3  0
  2  3  1  0
  3  4  1  0
  4  5  1  0
  5  6  1  0
  6  7  1  0
  7  8  2  0
  7  9  1  0
  9  4  1  0
  1 10  1  0
  3 11  1  0
  3 12  1  0
  4 13  1  0
  5 14  1  0
  5 15  1  0
  6 16  1  0
  6 17  1  0
M  END
