
     RDKit          3D

 19 20  0  0  0  0  0  0  0  0999 V2000
    3.2771    0.1465   -0.3690 C   0  0  0  0  0  0  0  0  0  0  0  0
    2.1130    0.3354   -0.1616 C   0  0  0  0  0  0  0  0  0  0  0  0
    0.6918    0.5602    0.0663 C   0  0  0  0  0  0  0  0  0  0  0  0
   -0.1313    0.7030   -1.2214 C   0  0  0  0  0  0  0  0  0  0  0  0
    0.1652   -0.7930   -1.4024 C   0  0  0  0  0  0  0  0  0  0  0  0
   -0.0498   -0.7826    0.1102 C   0  0  0  0  0  0  0  0  0  0  0  0
   -1.4517   -0.2932    0.2084 C   0  0  0  0  0  0  0  0  0  0  0  0
   -1.6627    0.3201    1.5880 C   0  0  0  0  0  0  0  0  0  0  0  0
   -1.4268    0.7362   -0.7702 O   0  0  0  0  0  0  0  0  0  0  0  0
    4.3297   -0.0061   -0.5500 H   0  0  0  0  0  0  0  0  0  0  0  0
    0.4161    1.2645    0.8564 H   0  0  0  0  0  0  0  0  0  0  0  0
    0.2215    1.3682   -1.9609 H   0  0  0  0  0  0  0  0  0  0  0  0
    1.1923   -0.9753   -1.7203 H   0  0  0  0  0  0  0  0  0  0  0  0
   -0.6340   -1.3508   -1.8925 H   0  0  0  0  0  0  0  0  0  0  0  0
    0.3358   -1.5585    0.6945 H   0  0  0  0  0  0  0  0  0  0  0  0
   -2.2028   -1.0434   -0.0397 H   0  0  0  0  0  0  0  0  0  0  0  0
   -0.7374    0.2353    2.1949 H   0  0  0  0  0  0  0  0  0  0  0  0
   -1.9849    1.3877    1.4646 H   0  0  0  0  0  0  0  0  0  0  0  0
   -2.4611   -0.2544    2.0839 H   0  0  0  0  0  0  0  0  0  0  0  0
  1  2  3  0
  2  3  1  0
  3  4  1  0
  4  5  1  0
  5  6  1  0
  6  7  1  0
  7  8  1  0
  7  9  1  0
  6  3  1  0
  9  4  1  0
  1 10  1  0
  3 11  1  0
  4 12  1  0
  5 13  1  0
  5 14  1  0
  6 15  1  0
  7 16  1  0
  8 17  1  0
  8 18  1  0
  8 19  1  0
M  END
