
     RDKit          3D

 20 19  0  0  0  0  0  0  0  0999 V2000
   -0.6970    2.7991   -0.9862 C   0  0  0  0  0  0  0  0  0  0  0  0
   -0.2754    1.8641   -0.3571 C   0  0  0  0  0  0  0  0  0  0  0  0
    0.2307    0.7379    0.3710 C   0  0  0  0  0  0  0  0  0  0  0  0
   -0.8319   -0.0637    1.0669 C   0  0  0  0  0  0  0  0  0  0  0  0
   -1.8581   -0.6400    0.1617 C   0  0  0  0  0  0  0  0  0  0  0  0
    1.1392   -0.1481   -0.4830 C   0  0  0  0  0  0  0  0  0  0  0  0
    1.6303   -1.3141    0.3628 C   0  0  0  0  0  0  0  0  0  0  0  0
    0.5241   -0.5888   -1.6215 O   0  0  0  0  0  0  0  0  0  0  0  0
   -1.0595    3.6275   -1.5591 H   0  0  0  0  0  0  0  0  0  0  0  0
    0.9081    1.1327    1.1791 H   0  0  0  0  0  0  0  0  0  0  0  0
   -0.2966   -0.9192    1.5755 H   0  0  0  0  0  0  0  0  0  0  0  0
   -1.2798    0.5591    1.8575 H   0  0  0  0  0  0  0  0  0  0  0  0
   -1.9128   -1.7570    0.2129 H   0  0  0  0  0  0  0  0  0  0  0  0
   -2.8890   -0.2980    0.4736 H   0  0  0  0  0  0  0  0  0  0  0  0
   -1.6971   -0.4086   -0.9163 H   0  0  0  0  0  0  0  0  0  0  0  0
    2.0296    0.4545   -0.7288 H   0  0  0  0  0  0  0  0  0  0  0  0
    0.8931   -2.1417    0.3459 H   0  0  0  0  0  0  0  0  0  0  0  0
    2.6453   -1.6399    0.0167 H   0  0  0  0  0  0  0  0  0  0  0  0
    1.7543   -0.9876    1.4288 H   0  0  0  0  0  0  0  0  0  0  0  0
    1.0425   -0.2680   -2.4004 H   0  0  0  0  0  0  0  0  0  0  0  0
  1  2  3  0
  2  3  1  0
  3  4  1  0
  4  5  1  0
  3  6  1  0
  6  7  1  0
  6  8  1  0
  1  9  1  0
  3 10  1  0
  4 11  1  0
  4 12  1  0
  5 13  1  0
  5 14  1  0
  5 15  1  0
  6 16  1  0
  7 17  1  0
  7 18  1  0
  7 19  1  0
  8 20  1  0
M  END
