
     RDKit          3D

 19 19  0  0  0  0  0  0  0  0999 V2000
    2.3151    2.6522    0.7285 C   0  0  0  0  0  0  0  0  0  0  0  0
    2.1683    1.4431    0.6462 C   0  0  0  0  0  0  0  0  0  0  0  0
    1.9730   -0.0062    0.5432 C   0  0  0  0  0  0  0  0  0  0  0  0
    0.6064   -0.2312   -0.0626 C   0  0  0  0  0  0  0  0  0  0  0  0
    0.2578   -1.6395   -0.2327 C   0  0  0  0  0  0  0  0  0  0  0  0
   -1.0698   -1.7094   -0.0158 C   0  0  0  0  0  0  0  0  0  0  0  0
   -1.5384   -0.3407    0.2885 C   0  0  0  0  0  0  0  0  0  0  0  0
   -2.1623    0.3451   -0.8916 C   0  0  0  0  0  0  0  0  0  0  0  0
   -0.3732    0.3178    0.7260 O   0  0  0  0  0  0  0  0  0  0  0  0
    2.4333    3.6960    0.8160 H   0  0  0  0  0  0  0  0  0  0  0  0
    2.0436   -0.4179    1.5622 H   0  0  0  0  0  0  0  0  0  0  0  0
    2.7602   -0.4950   -0.0565 H   0  0  0  0  0  0  0  0  0  0  0  0
    0.5993    0.2685   -1.0504 H   0  0  0  0  0  0  0  0  0  0  0  0
    0.8608   -2.5194   -0.4802 H   0  0  0  0  0  0  0  0  0  0  0  0
   -1.6974   -2.5928   -0.0522 H   0  0  0  0  0  0  0  0  0  0  0  0
   -2.2356   -0.3134    1.1572 H   0  0  0  0  0  0  0  0  0  0  0  0
   -2.1011   -0.3269   -1.7758 H   0  0  0  0  0  0  0  0  0  0  0  0
   -1.6369    1.2789   -1.1819 H   0  0  0  0  0  0  0  0  0  0  0  0
   -3.2030    0.5909   -0.6681 H   0  0  0  0  0  0  0  0  0  0  0  0
  1  2  3  0
  2  3  1  0
  3  4  1  0
  4  5  1  0
  5  6  2  0
  6  7  1  0
  7  8  1  0
  7  9  1  0
  9  4  1  0
  1 10  1  0
  3 11  1  0
  3 12  1  0
  4 13  1  0
  5 14  1  0
  6 15  1  0
  7 16  1  0
  8 17  1  0
  8 18  1  0
  8 19  1  0
M  END
