
     RDKit          3D

 21 20  0  0  0  0  0  0  0  0999 V2000
    5.6975    0.3027   -0.1809 C   0  0  0  0  0  0  0  0  0  0  0  0
    4.5050    0.2328   -0.0136 C   0  0  0  0  0  0  0  0  0  0  0  0
    3.1063    0.1345    0.1641 C   0  0  0  0  0  0  0  0  0  0  0  0
    1.9128    0.0494    0.3032 C   0  0  0  0  0  0  0  0  0  0  0  0
    0.4232   -0.0661    0.4950 C   0  0  0  0  0  0  0  0  0  0  0  0
   -0.1849    0.8914   -0.4505 C   0  0  0  0  0  0  0  0  0  0  0  0
   -1.6714    0.9612   -0.3763 C   0  0  0  0  0  0  0  0  0  0  0  0
   -2.4330   -0.2827   -0.6691 C   0  0  0  0  0  0  0  0  0  0  0  0
   -2.2372   -1.4422    0.2522 C   0  0  0  0  0  0  0  0  0  0  0  0
    6.7437    0.3659   -0.3457 H   0  0  0  0  0  0  0  0  0  0  0  0
    0.2497   -1.1386    0.2541 H   0  0  0  0  0  0  0  0  0  0  0  0
    0.1610    0.1121    1.5302 H   0  0  0  0  0  0  0  0  0  0  0  0
    0.1806    0.7487   -1.4983 H   0  0  0  0  0  0  0  0  0  0  0  0
    0.1849    1.9257   -0.1854 H   0  0  0  0  0  0  0  0  0  0  0  0
   -2.0687    1.7318   -1.1127 H   0  0  0  0  0  0  0  0  0  0  0  0
   -1.9988    1.3611    0.6330 H   0  0  0  0  0  0  0  0  0  0  0  0
   -3.5326    0.0208   -0.6815 H   0  0  0  0  0  0  0  0  0  0  0  0
   -2.2507   -0.6060   -1.7320 H   0  0  0  0  0  0  0  0  0  0  0  0
   -1.8398   -1.1388    1.2364 H   0  0  0  0  0  0  0  0  0  0  0  0
   -1.6894   -2.2644   -0.2331 H   0  0  0  0  0  0  0  0  0  0  0  0
   -3.2584   -1.8993    0.5302 H   0  0  0  0  0  0  0  0  0  0  0  0
  1  2  3  0
  2  3  1  0
  3  4  3  0
  4  5  1  0
  5  6  1  0
  6  7  1  0
  7  8  1  0
  8  9  1  0
  1 10  1  0
  5 11  1  0
  5 12  1  0
  6 13  1  0
  6 14  1  0
  7 15  1  0
  7 16  1  0
  8 17  1  0
  8 18  1  0
  9 19  1  0
  9 20  1  0
  9 21  1  0
M  END
