
     RDKit          3D

 15 16  0  0  0  0  0  0  0  0999 V2000
    1.0576    2.1885   -1.0929 C   0  0  0  0  0  0  0  0  0  0  0  0
    0.7827    1.4450   -0.7199 C   0  0  0  0  0  0  0  0  0  0  0  0
    0.1728   -0.2246    0.1532 C   0  0  0  0  0  0  0  0  0  0  0  0
    1.0686   -0.1669    0.8947 C   0  0  0  0  0  0  0  0  0  0  0  0
    1.9102   -0.1270    1.6050 C   0  0  0  0  0  0  0  0  0  0  0  0
   -0.3633   -0.7811   -1.0237 C   0  0  0  0  0  0  0  0  0  0  0  0
   -1.4367   -1.4361   -0.0738 C   0  0  0  0  0  0  0  0  0  0  0  0
   -1.2374    0.0789    0.2010 C   0  0  0  0  0  0  0  0  0  0  0  0
   -1.3387    0.2091   -1.0947 O   0  0  0  0  0  0  0  0  0  0  0  0
    1.5228    3.3777   -1.6990 H   0  0  0  0  0  0  0  0  0  0  0  0
    2.9155   -0.0955    2.4731 H   0  0  0  0  0  0  0  0  0  0  0  0
   -0.0570   -1.2624   -1.8828 H   0  0  0  0  0  0  0  0  0  0  0  0
   -0.9393   -2.0890    0.6268 H   0  0  0  0  0  0  0  0  0  0  0  0
   -2.2977   -1.6957   -0.5928 H   0  0  0  0  0  0  0  0  0  0  0  0
   -1.7601    0.5792    0.9613 H   0  0  0  0  0  0  0  0  0  0  0  0
  1  2  3  0
  2  3  1  0
  3  4  1  0
  4  5  3  0
  3  6  1  0
  6  7  1  0
  7  8  1  0
  8  9  1  0
  8  3  1  0
  9  6  1  0
  1 10  1  0
  5 11  1  0
  6 12  1  0
  7 13  1  0
  7 14  1  0
  8 15  1  0
M  END
