
     RDKit          3D

 20 19  0  0  0  0  0  0  0  0999 V2000
   -2.4690    1.7878    0.9140 C   0  0  0  0  0  0  0  0  0  0  0  0
   -1.7847    0.8806    0.4797 C   0  0  0  0  0  0  0  0  0  0  0  0
   -0.9753   -0.2211   -0.0606 C   0  0  0  0  0  0  0  0  0  0  0  0
   -1.8543   -1.3980   -0.3238 C   0  0  0  0  0  0  0  0  0  0  0  0
    0.1449   -0.5604    0.9299 C   0  0  0  0  0  0  0  0  0  0  0  0
    0.9675    0.5068    1.1547 O   0  0  0  0  0  0  0  0  0  0  0  0
    1.6088    0.9986    0.0528 C   0  0  0  0  0  0  0  0  0  0  0  0
    2.5020    0.0269   -0.6496 C   0  0  0  0  0  0  0  0  0  0  0  0
   -3.0533    2.5777    1.3055 H   0  0  0  0  0  0  0  0  0  0  0  0
   -0.4796    0.0521   -1.0154 H   0  0  0  0  0  0  0  0  0  0  0  0
   -2.2955   -1.3992   -1.3407 H   0  0  0  0  0  0  0  0  0  0  0  0
   -1.3352   -2.3714   -0.1788 H   0  0  0  0  0  0  0  0  0  0  0  0
   -2.7198   -1.3906    0.3993 H   0  0  0  0  0  0  0  0  0  0  0  0
    0.6377   -1.4891    0.6266 H   0  0  0  0  0  0  0  0  0  0  0  0
   -0.3951   -0.7703    1.8977 H   0  0  0  0  0  0  0  0  0  0  0  0
    0.9117    1.5026   -0.6704 H   0  0  0  0  0  0  0  0  0  0  0  0
    2.2719    1.8405    0.4124 H   0  0  0  0  0  0  0  0  0  0  0  0
    3.5490    0.0410   -0.2368 H   0  0  0  0  0  0  0  0  0  0  0  0
    2.1511   -1.0052   -0.6525 H   0  0  0  0  0  0  0  0  0  0  0  0
    2.6174    0.3908   -1.7097 H   0  0  0  0  0  0  0  0  0  0  0  0
  1  2  3  0
  2  3  1  0
  3  4  1  0
  3  5  1  0
  5  6  1  0
  6  7  1  0
  7  8  1  0
  1  9  1  0
  3 10  1  0
  4 11  1  0
  4 12  1  0
  4 13  1  0
  5 14  1  0
  5 15  1  0
  7 16  1  0
  7 17  1  0
  8 18  1  0
  8 19  1  0
  8 20  1  0
M  END
