
     RDKit          3D

 18 17  0  0  0  0  0  0  0  0999 V2000
    4.6129   -1.3115    0.5937 C   0  0  0  0  0  0  0  0  0  0  0  0
    3.5145   -0.9568    0.1894 C   0  0  0  0  0  0  0  0  0  0  0  0
    2.2462   -0.5457   -0.3037 C   0  0  0  0  0  0  0  0  0  0  0  0
    1.1598   -0.2048   -0.7055 C   0  0  0  0  0  0  0  0  0  0  0  0
   -0.1586    0.1931   -1.2134 C   0  0  0  0  0  0  0  0  0  0  0  0
   -1.0066    0.6505   -0.0592 C   0  0  0  0  0  0  0  0  0  0  0  0
   -2.3826    1.0726   -0.5307 C   0  0  0  0  0  0  0  0  0  0  0  0
   -1.0775   -0.4950    0.9427 C   0  0  0  0  0  0  0  0  0  0  0  0
    5.5681   -1.6010    0.9411 H   0  0  0  0  0  0  0  0  0  0  0  0
   -0.0631    1.0517   -1.9398 H   0  0  0  0  0  0  0  0  0  0  0  0
   -0.5968   -0.6738   -1.7480 H   0  0  0  0  0  0  0  0  0  0  0  0
   -0.5384    1.5448    0.3859 H   0  0  0  0  0  0  0  0  0  0  0  0
   -2.2212    1.8981   -1.2517 H   0  0  0  0  0  0  0  0  0  0  0  0
   -2.9832    1.4388    0.3265 H   0  0  0  0  0  0  0  0  0  0  0  0
   -2.8917    0.2647   -1.0996 H   0  0  0  0  0  0  0  0  0  0  0  0
   -1.2925   -0.1052    1.9717 H   0  0  0  0  0  0  0  0  0  0  0  0
   -0.0788   -0.9641    0.9336 H   0  0  0  0  0  0  0  0  0  0  0  0
   -1.8105   -1.2565    0.6303 H   0  0  0  0  0  0  0  0  0  0  0  0
  1  2  3  0
  2  3  1  0
  3  4  3  0
  4  5  1  0
  5  6  1  0
  6  7  1  0
  6  8  1  0
  1  9  1  0
  5 10  1  0
  5 11  1  0
  6 12  1  0
  7 13  1  0
  7 14  1  0
  7 15  1  0
  8 16  1  0
  8 17  1  0
  8 18  1  0
M  END
