
     RDKit          3D

 17 16  0  0  0  0  0  0  0  0999 V2000
   -1.2553   -2.7821    0.5467 C   0  0  0  0  0  0  0  0  0  0  0  0
   -0.9676   -1.5601    0.1950 C   0  0  0  0  0  0  0  0  0  0  0  0
   -0.6944   -0.3031   -0.1565 C   0  0  0  0  0  0  0  0  0  0  0  0
   -1.5532    0.7576    0.5906 C   0  0  0  0  0  0  0  0  0  0  0  0
   -0.7997    0.0369   -1.5038 O   0  0  0  0  0  0  0  0  0  0  0  0
    0.7610    0.0595    0.2346 C   0  0  0  0  0  0  0  0  0  0  0  0
    1.1767   -0.2056    1.3292 O   0  0  0  0  0  0  0  0  0  0  0  0
    1.6644    0.7389   -0.7274 C   0  0  0  0  0  0  0  0  0  0  0  0
    2.9305    0.8172   -0.1098 O   0  0  0  0  0  0  0  0  0  0  0  0
   -1.5093   -3.8103    0.8275 H   0  0  0  0  0  0  0  0  0  0  0  0
   -1.2684    0.6729    1.6369 H   0  0  0  0  0  0  0  0  0  0  0  0
   -1.3175    1.7577    0.1419 H   0  0  0  0  0  0  0  0  0  0  0  0
   -2.5987    0.5139    0.4494 H   0  0  0  0  0  0  0  0  0  0  0  0
   -0.5009    1.0107   -1.6027 H   0  0  0  0  0  0  0  0  0  0  0  0
    1.3023    1.7957   -0.8342 H   0  0  0  0  0  0  0  0  0  0  0  0
    1.7038    0.2699   -1.7189 H   0  0  0  0  0  0  0  0  0  0  0  0
    2.9263    0.2302    0.7013 H   0  0  0  0  0  0  0  0  0  0  0  0
  1  2  3  0
  2  3  1  0
  3  4  1  0
  3  5  1  0
  3  6  1  0
  6  7  2  0
  6  8  1  0
  8  9  1  0
  1 10  1  0
  4 11  1  0
  4 12  1  0
  4 13  1  0
  5 14  1  0
  8 15  1  0
  8 16  1  0
  9 17  1  0
M  END
