
     RDKit          3D

 15 14  0  0  0  0  0  0  0  0999 V2000
   -0.8495    2.2045    0.8285 C   0  0  0  0  0  0  0  0  0  0  0  0
   -0.6322    1.1965    0.2035 C   0  0  0  0  0  0  0  0  0  0  0  0
   -0.3402   -0.0403   -0.5580 C   0  0  0  0  0  0  0  0  0  0  0  0
   -0.8444   -1.2002    0.3105 C   0  0  0  0  0  0  0  0  0  0  0  0
   -0.9794   -0.0078   -1.7674 O   0  0  0  0  0  0  0  0  0  0  0  0
    1.1164   -0.2384   -0.7081 C   0  0  0  0  0  0  0  0  0  0  0  0
    1.5650   -0.3470   -1.8791 O   0  0  0  0  0  0  0  0  0  0  0  0
    2.0199   -0.3097    0.4188 C   0  0  0  0  0  0  0  0  0  0  0  0
    1.6179   -0.2069    1.6021 O   0  0  0  0  0  0  0  0  0  0  0  0
   -1.0234    3.0995    1.3805 H   0  0  0  0  0  0  0  0  0  0  0  0
   -0.3699   -2.1441    0.0321 H   0  0  0  0  0  0  0  0  0  0  0  0
   -1.9509   -1.2057    0.2478 H   0  0  0  0  0  0  0  0  0  0  0  0
   -0.5977   -0.9134    1.3545 H   0  0  0  0  0  0  0  0  0  0  0  0
   -1.8006    0.5674   -1.7253 H   0  0  0  0  0  0  0  0  0  0  0  0
    3.0691   -0.4544    0.2597 H   0  0  0  0  0  0  0  0  0  0  0  0
  1  2  3  0
  2  3  1  0
  3  4  1  0
  3  5  1  0
  3  6  1  0
  6  7  2  0
  6  8  1  0
  8  9  2  0
  1 10  1  0
  4 11  1  0
  4 12  1  0
  4 13  1  0
  5 14  1  0
  8 15  1  0
M  END
