
     RDKit          3D

 17 18  0  0  0  0  0  0  0  0999 V2000
    3.1247   -0.3522   -0.5124 C   0  0  0  0  0  0  0  0  0  0  0  0
    1.9035   -0.6011   -0.3534 C   0  0  0  0  0  0  0  0  0  0  0  0
    0.5221   -0.8936   -0.1569 C   0  0  0  0  0  0  0  0  0  0  0  0
    0.0939   -1.6506    1.1055 C   0  0  0  0  0  0  0  0  0  0  0  0
   -0.3064   -0.2441    0.8417 C   0  0  0  0  0  0  0  0  0  0  0  0
   -1.2437   -0.0692   -0.3091 C   0  0  0  0  0  0  0  0  0  0  0  0
   -1.4450    1.3044   -0.8617 C   0  0  0  0  0  0  0  0  0  0  0  0
   -0.1728    1.9257   -0.9313 O   0  0  0  0  0  0  0  0  0  0  0  0
   -0.3860   -0.7833   -1.1776 O   0  0  0  0  0  0  0  0  0  0  0  0
    4.1175   -0.1677   -0.6436 H   0  0  0  0  0  0  0  0  0  0  0  0
   -0.5916   -2.4814    0.8469 H   0  0  0  0  0  0  0  0  0  0  0  0
    0.9019   -1.8100    1.8281 H   0  0  0  0  0  0  0  0  0  0  0  0
   -0.0202    0.5617    1.5110 H   0  0  0  0  0  0  0  0  0  0  0  0
   -2.2100   -0.6107   -0.1078 H   0  0  0  0  0  0  0  0  0  0  0  0
   -1.7939    1.1584   -1.9185 H   0  0  0  0  0  0  0  0  0  0  0  0
   -2.1316    1.9350   -0.3075 H   0  0  0  0  0  0  0  0  0  0  0  0
   -0.3625    2.7787   -1.4192 H   0  0  0  0  0  0  0  0  0  0  0  0
  1  2  3  0
  2  3  1  0
  3  4  1  0
  4  5  1  0
  5  6  1  0
  6  7  1  0
  7  8  1  0
  6  9  1  0
  5  3  1  0
  9  3  1  0
  1 10  1  0
  4 11  1  0
  4 12  1  0
  5 13  1  0
  6 14  1  0
  7 15  1  0
  7 16  1  0
  8 17  1  0
M  END
