
     RDKit          3D

 15 15  0  0  0  0  0  0  0  0999 V2000
    2.8927   -1.0971   -0.1265 C   0  0  0  0  0  0  0  0  0  0  0  0
    1.7777   -0.6049   -0.2162 C   0  0  0  0  0  0  0  0  0  0  0  0
    0.4388   -0.0115   -0.3051 C   0  0  0  0  0  0  0  0  0  0  0  0
    0.3039    0.6159   -1.6707 C   0  0  0  0  0  0  0  0  0  0  0  0
   -0.5595    0.1781   -2.4085 O   0  0  0  0  0  0  0  0  0  0  0  0
   -0.4818   -1.0162   -0.1262 O   0  0  0  0  0  0  0  0  0  0  0  0
   -1.5798   -0.4650    0.5186 C   0  0  0  0  0  0  0  0  0  0  0  0
   -1.0065    0.7316    1.2338 C   0  0  0  0  0  0  0  0  0  0  0  0
    0.2208    0.9607    0.6363 O   0  0  0  0  0  0  0  0  0  0  0  0
    3.8672   -1.5071   -0.0469 H   0  0  0  0  0  0  0  0  0  0  0  0
    0.9770    1.4243   -1.9345 H   0  0  0  0  0  0  0  0  0  0  0  0
   -2.3467   -0.1169   -0.1995 H   0  0  0  0  0  0  0  0  0  0  0  0
   -2.0137   -1.1851    1.2484 H   0  0  0  0  0  0  0  0  0  0  0  0
   -1.6705    1.6097    1.1027 H   0  0  0  0  0  0  0  0  0  0  0  0
   -0.8196    0.4835    2.2942 H   0  0  0  0  0  0  0  0  0  0  0  0
  1  2  3  0
  2  3  1  0
  3  4  1  0
  4  5  2  0
  3  6  1  0
  6  7  1  0
  7  8  1  0
  8  9  1  0
  9  3  1  0
  1 10  1  0
  4 11  1  0
  7 12  1  0
  7 13  1  0
  8 14  1  0
  8 15  1  0
M  END
