
     RDKit          3D

 20 20  0  0  0  0  0  0  0  0999 V2000
    2.8013    1.2230   -1.1672 C   0  0  0  0  0  0  0  0  0  0  0  0
    1.9439    0.9054   -0.3766 C   0  0  0  0  0  0  0  0  0  0  0  0
    0.9097    0.5224    0.6098 C   0  0  0  0  0  0  0  0  0  0  0  0
    0.9652   -0.8143    1.1993 C   0  0  0  0  0  0  0  0  0  0  0  0
   -0.0860   -0.4795    0.1667 C   0  0  0  0  0  0  0  0  0  0  0  0
    0.0535   -1.2177   -1.1317 C   0  0  0  0  0  0  0  0  0  0  0  0
   -1.4972   -0.2517    0.6309 C   0  0  0  0  0  0  0  0  0  0  0  0
   -1.9265    1.1093    0.0801 C   0  0  0  0  0  0  0  0  0  0  0  0
    3.5479    1.5175   -1.8678 H   0  0  0  0  0  0  0  0  0  0  0  0
    0.5536    1.3762    1.2398 H   0  0  0  0  0  0  0  0  0  0  0  0
    1.7568   -1.5529    0.9277 H   0  0  0  0  0  0  0  0  0  0  0  0
    0.6016   -0.8990    2.2596 H   0  0  0  0  0  0  0  0  0  0  0  0
    1.1142   -1.3509   -1.4125 H   0  0  0  0  0  0  0  0  0  0  0  0
   -0.3438   -2.2521   -0.9582 H   0  0  0  0  0  0  0  0  0  0  0  0
   -0.5575   -0.7780   -1.9447 H   0  0  0  0  0  0  0  0  0  0  0  0
   -2.1741   -1.0502    0.2716 H   0  0  0  0  0  0  0  0  0  0  0  0
   -1.5410   -0.2710    1.7381 H   0  0  0  0  0  0  0  0  0  0  0  0
   -1.3159    1.3960   -0.8069 H   0  0  0  0  0  0  0  0  0  0  0  0
   -2.9743    0.9902   -0.2582 H   0  0  0  0  0  0  0  0  0  0  0  0
   -1.8314    1.8773    0.8782 H   0  0  0  0  0  0  0  0  0  0  0  0
  1  2  3  0
  2  3  1  0
  3  4  1  0
  4  5  1  0
  5  6  1  0
  5  7  1  0
  7  8  1  0
  5  3  1  0
  1  9  1  0
  3 10  1  0
  4 11  1  0
  4 12  1  0
  6 13  1  0
  6 14  1  0
  6 15  1  0
  7 16  1  0
  7 17  1  0
  8 18  1  0
  8 19  1  0
  8 20  1  0
M  END
