
     RDKit          3D

 19 19  0  0  0  0  0  0  0  0999 V2000
    3.4025    0.7252   -0.8482 C   0  0  0  0  0  0  0  0  0  0  0  0
    2.4857    0.0179   -0.5408 C   0  0  0  0  0  0  0  0  0  0  0  0
    1.3688   -0.8329   -0.1925 C   0  0  0  0  0  0  0  0  0  0  0  0
    0.4632   -0.1262    0.8038 C   0  0  0  0  0  0  0  0  0  0  0  0
   -0.6649   -1.0366    1.1296 C   0  0  0  0  0  0  0  0  0  0  0  0
   -1.9234   -0.7503    0.4389 C   0  0  0  0  0  0  0  0  0  0  0  0
   -2.1755    0.4948    0.0825 C   0  0  0  0  0  0  0  0  0  0  0  0
   -1.1502    1.5035    0.4175 C   0  0  0  0  0  0  0  0  0  0  0  0
    0.1449    1.0853    0.2716 O   0  0  0  0  0  0  0  0  0  0  0  0
    4.1904    1.3496   -1.1268 H   0  0  0  0  0  0  0  0  0  0  0  0
    1.6828   -1.7841    0.2882 H   0  0  0  0  0  0  0  0  0  0  0  0
    0.7216   -1.0549   -1.0808 H   0  0  0  0  0  0  0  0  0  0  0  0
    1.0814    0.0345    1.7141 H   0  0  0  0  0  0  0  0  0  0  0  0
   -0.8795   -1.0064    2.2384 H   0  0  0  0  0  0  0  0  0  0  0  0
   -0.3939   -2.0931    0.9246 H   0  0  0  0  0  0  0  0  0  0  0  0
   -2.6114   -1.5765    0.2428 H   0  0  0  0  0  0  0  0  0  0  0  0
   -3.0799    0.7588   -0.4245 H   0  0  0  0  0  0  0  0  0  0  0  0
   -1.3620    1.9291    1.4264 H   0  0  0  0  0  0  0  0  0  0  0  0
   -1.3006    2.3623   -0.2897 H   0  0  0  0  0  0  0  0  0  0  0  0
  1  2  3  0
  2  3  1  0
  3  4  1  0
  4  5  1  0
  5  6  1  0
  6  7  2  0
  7  8  1  0
  8  9  1  0
  9  4  1  0
  1 10  1  0
  3 11  1  0
  3 12  1  0
  4 13  1  0
  5 14  1  0
  5 15  1  0
  6 16  1  0
  7 17  1  0
  8 18  1  0
  8 19  1  0
M  END
