
     RDKit          3D

 15 16  0  0  0  0  0  0  0  0999 V2000
    3.3343    0.6518   -0.1237 C   0  0  0  0  0  0  0  0  0  0  0  0
    2.1546    0.3863   -0.0769 C   0  0  0  0  0  0  0  0  0  0  0  0
    0.8597    0.0871   -0.0036 C   0  0  0  0  0  0  0  0  0  0  0  0
   -0.1690    0.8989   -0.3917 C   0  0  0  0  0  0  0  0  0  0  0  0
   -1.4626    0.2023   -0.1526 C   0  0  0  0  0  0  0  0  0  0  0  0
   -1.8873   -0.5162   -1.2377 O   0  0  0  0  0  0  0  0  0  0  0  0
   -1.0135   -0.5893    1.0560 C   0  0  0  0  0  0  0  0  0  0  0  0
   -0.4801   -1.7262    1.3095 O   0  0  0  0  0  0  0  0  0  0  0  0
    0.1878   -1.1917    0.3285 C   0  0  0  0  0  0  0  0  0  0  0  0
    4.5375    0.9230   -0.1929 H   0  0  0  0  0  0  0  0  0  0  0  0
   -0.0354    1.8690   -0.7473 H   0  0  0  0  0  0  0  0  0  0  0  0
   -2.2437    0.9656    0.1550 H   0  0  0  0  0  0  0  0  0  0  0  0
   -2.8866   -0.4104   -1.3235 H   0  0  0  0  0  0  0  0  0  0  0  0
   -0.8117    0.1641    1.8978 H   0  0  0  0  0  0  0  0  0  0  0  0
   -0.0839   -1.7145   -0.6697 H   0  0  0  0  0  0  0  0  0  0  0  0
  1  2  3  0
  2  3  1  0
  3  4  2  0
  4  5  1  0
  5  6  1  0
  5  7  1  0
  7  8  1  0
  8  9  1  0
  9  3  1  0
  9  7  1  0
  1 10  1  0
  4 11  1  0
  5 12  1  0
  6 13  1  0
  7 14  1  0
  9 15  1  0
M  END
