
     RDKit          3D

 17 19  0  0  0  0  0  0  0  0999 V2000
    3.3894    0.4933    1.1530 C   0  0  0  0  0  0  0  0  0  0  0  0
    2.2007    0.3473    1.0097 C   0  0  0  0  0  0  0  0  0  0  0  0
    0.7691    0.1820    0.8140 C   0  0  0  0  0  0  0  0  0  0  0  0
   -0.1304    1.0507    1.3719 O   0  0  0  0  0  0  0  0  0  0  0  0
   -0.8959    1.1040    0.1929 C   0  0  0  0  0  0  0  0  0  0  0  0
   -1.9312   -0.0222    0.1027 C   0  0  0  0  0  0  0  0  0  0  0  0
   -1.1546   -1.2947   -0.0624 C   0  0  0  0  0  0  0  0  0  0  0  0
    0.3074   -0.8826   -0.1392 C   0  0  0  0  0  0  0  0  0  0  0  0
    0.2592    0.5131   -0.5335 C   0  0  0  0  0  0  0  0  0  0  0  0
    4.4488    0.6223    1.2626 H   0  0  0  0  0  0  0  0  0  0  0  0
   -1.2546    2.0868   -0.0989 H   0  0  0  0  0  0  0  0  0  0  0  0
   -2.5167    0.1897   -0.8170 H   0  0  0  0  0  0  0  0  0  0  0  0
   -2.6146   -0.0254    0.9563 H   0  0  0  0  0  0  0  0  0  0  0  0
   -1.3508   -1.9965    0.7585 H   0  0  0  0  0  0  0  0  0  0  0  0
   -1.3898   -1.7713   -1.0434 H   0  0  0  0  0  0  0  0  0  0  0  0
    1.0397   -1.6027   -0.4914 H   0  0  0  0  0  0  0  0  0  0  0  0
    0.8243    1.0062   -1.2977 H   0  0  0  0  0  0  0  0  0  0  0  0
  1  2  3  0
  2  3  1  0
  3  4  1  0
  4  5  1  0
  5  6  1  0
  6  7  1  0
  7  8  1  0
  8  9  1  0
  8  3  1  0
  9  3  1  0
  9  5  1  0
  1 10  1  0
  5 11  1  0
  6 12  1  0
  6 13  1  0
  7 14  1  0
  7 15  1  0
  8 16  1  0
  9 17  1  0
M  END
