
     RDKit          3D

 16 15  0  0  0  0  0  0  0  0999 V2000
    2.8723   -1.6550    0.1094 C   0  0  0  0  0  0  0  0  0  0  0  0
    2.0354   -0.7749   -0.0367 C   0  0  0  0  0  0  0  0  0  0  0  0
    1.0423    0.2535   -0.1862 C   0  0  0  0  0  0  0  0  0  0  0  0
    1.3242    1.4741   -0.1294 O   0  0  0  0  0  0  0  0  0  0  0  0
   -0.3703   -0.1185   -0.4161 C   0  0  0  0  0  0  0  0  0  0  0  0
   -0.9310   -0.9428    0.7073 C   0  0  0  0  0  0  0  0  0  0  0  0
   -1.1820    1.1048   -0.7046 C   0  0  0  0  0  0  0  0  0  0  0  0
   -1.1152    1.9835    0.3724 O   0  0  0  0  0  0  0  0  0  0  0  0
    3.5896   -2.4252    0.2376 H   0  0  0  0  0  0  0  0  0  0  0  0
   -0.3706   -0.7728   -1.3289 H   0  0  0  0  0  0  0  0  0  0  0  0
   -1.8025   -1.5103    0.3048 H   0  0  0  0  0  0  0  0  0  0  0  0
   -1.2433   -0.2797    1.5550 H   0  0  0  0  0  0  0  0  0  0  0  0
   -0.1362   -1.6510    1.0306 H   0  0  0  0  0  0  0  0  0  0  0  0
   -2.2575    0.8619   -0.8432 H   0  0  0  0  0  0  0  0  0  0  0  0
   -0.8510    1.6458   -1.6051 H   0  0  0  0  0  0  0  0  0  0  0  0
   -0.6044    2.8066    0.1665 H   0  0  0  0  0  0  0  0  0  0  0  0
  1  2  3  0
  2  3  1  0
  3  4  2  0
  3  5  1  0
  5  6  1  0
  5  7  1  0
  7  8  1  0
  1  9  1  0
  5 10  1  0
  6 11  1  0
  6 12  1  0
  6 13  1  0
  7 14  1  0
  7 15  1  0
  8 16  1  0
M  END
