
     RDKit          3D

 19 18  0  0  0  0  0  0  0  0999 V2000
    3.1123    0.2563    1.6203 C   0  0  0  0  0  0  0  0  0  0  0  0
    2.6860   -0.1974    0.7674 C   0  0  0  0  0  0  0  0  0  0  0  0
    2.0038   -0.9342   -0.5798 C   0  0  0  0  0  0  0  0  0  0  0  0
    0.5141   -0.2116   -0.2112 C   0  0  0  0  0  0  0  0  0  0  0  0
   -0.2961   -0.4317   -1.1997 O   0  0  0  0  0  0  0  0  0  0  0  0
   -1.4509   -0.3046   -1.4468 C   0  0  0  0  0  0  0  0  0  0  0  0
   -1.5901    1.4088   -0.8644 C   0  0  0  0  0  0  0  0  0  0  0  0
   -1.8177   -0.7446    0.2534 C   0  0  0  0  0  0  0  0  0  0  0  0
   -2.0803   -1.0769    1.5797 C   0  0  0  0  0  0  0  0  0  0  0  0
    3.5780    0.7820    2.5838 H   0  0  0  0  0  0  0  0  0  0  0  0
    2.2342   -0.2711   -1.3503 H   0  0  0  0  0  0  0  0  0  0  0  0
    1.8705   -1.8953   -0.4907 H   0  0  0  0  0  0  0  0  0  0  0  0
    0.1894   -0.5390    0.7967 H   0  0  0  0  0  0  0  0  0  0  0  0
    0.7834    0.8624   -0.0514 H   0  0  0  0  0  0  0  0  0  0  0  0
   -2.5429   -0.1627   -1.5516 H   0  0  0  0  0  0  0  0  0  0  0  0
   -2.6568    1.5182   -0.6677 H   0  0  0  0  0  0  0  0  0  0  0  0
   -1.2591    1.8186   -1.7765 H   0  0  0  0  0  0  0  0  0  0  0  0
   -1.0208    1.4506    0.0292 H   0  0  0  0  0  0  0  0  0  0  0  0
   -2.2570   -1.3279    2.5596 H   0  0  0  0  0  0  0  0  0  0  0  0
  1  2  3  0
  2  3  1  0
  3  4  1  0
  4  5  1  0
  5  6  1  0
  6  7  1  0
  6  8  1  0
  8  9  3  0
  1 10  1  0
  3 11  1  0
  3 12  1  0
  4 13  1  0
  4 14  1  0
  6 15  1  0
  7 16  1  0
  7 17  1  0
  7 18  1  0
  9 19  1  0
M  END
