
     RDKit          3D

 18 18  0  0  0  0  0  0  0  0999 V2000
    3.4443    1.1307   -0.0078 C   0  0  0  0  0  0  0  0  0  0  0  0
    2.2639    0.6874   -0.5496 C   0  0  0  0  0  0  0  0  0  0  0  0
    1.0383    0.2160   -1.0894 C   0  0  0  0  0  0  0  0  0  0  0  0
    0.5783   -0.5404    0.1513 C   0  0  0  0  0  0  0  0  0  0  0  0
   -0.4999   -1.3318    0.6057 C   0  0  0  0  0  0  0  0  0  0  0  0
   -1.2042    0.0435    0.7126 C   0  0  0  0  0  0  0  0  0  0  0  0
   -2.2046    0.1305   -0.3616 C   0  0  0  0  0  0  0  0  0  0  0  0
   -0.0125    0.5848    0.9737 O   0  0  0  0  0  0  0  0  0  0  0  0
    4.4352    1.5106    0.4690 H   0  0  0  0  0  0  0  0  0  0  0  0
    0.9819   -0.1541   -2.0268 H   0  0  0  0  0  0  0  0  0  0  0  0
    0.3693    1.2238   -1.1615 H   0  0  0  0  0  0  0  0  0  0  0  0
    1.5174   -0.8331    0.8048 H   0  0  0  0  0  0  0  0  0  0  0  0
   -0.4286   -1.7407    1.6967 H   0  0  0  0  0  0  0  0  0  0  0  0
   -1.0172   -1.9923   -0.0433 H   0  0  0  0  0  0  0  0  0  0  0  0
   -1.7244   -0.0262    1.7651 H   0  0  0  0  0  0  0  0  0  0  0  0
   -3.2225   -0.1568    0.1179 H   0  0  0  0  0  0  0  0  0  0  0  0
   -2.2544    1.1458   -0.8781 H   0  0  0  0  0  0  0  0  0  0  0  0
   -2.0605   -0.6205   -1.1787 H   0  0  0  0  0  0  0  0  0  0  0  0
  1  2  3  0
  2  3  1  0
  3  4  1  0
  4  5  1  0
  5  6  1  0
  6  7  1  0
  6  8  1  0
  8  4  1  0
  1  9  1  0
  3 10  1  0
  3 11  1  0
  4 12  1  0
  5 13  1  0
  5 14  1  0
  6 15  1  0
  7 16  1  0
  7 17  1  0
  7 18  1  0
M  END
