
     RDKit          3D

 17 18  0  0  0  0  0  0  0  0999 V2000
   -0.5604    2.1513   -1.1242 C   0  0  0  0  0  0  0  0  0  0  0  0
   -0.6513    1.1712   -0.3904 C   0  0  0  0  0  0  0  0  0  0  0  0
   -0.7518   -0.0043    0.5198 C   0  0  0  0  0  0  0  0  0  0  0  0
   -2.0305   -0.7683    0.1329 C   0  0  0  0  0  0  0  0  0  0  0  0
   -1.2631   -0.9375   -1.0541 O   0  0  0  0  0  0  0  0  0  0  0  0
   -0.3016   -1.3697   -0.1410 C   0  0  0  0  0  0  0  0  0  0  0  0
    0.5364   -0.6221    0.7287 C   0  0  0  0  0  0  0  0  0  0  0  0
    1.8308   -0.0490    0.1279 C   0  0  0  0  0  0  0  0  0  0  0  0
    1.9591    1.2387    0.6492 O   0  0  0  0  0  0  0  0  0  0  0  0
   -0.4714    2.9933   -1.7593 H   0  0  0  0  0  0  0  0  0  0  0  0
   -2.8790   -0.0658    0.0106 H   0  0  0  0  0  0  0  0  0  0  0  0
   -2.2369   -1.6648    0.7042 H   0  0  0  0  0  0  0  0  0  0  0  0
   -0.7385   -2.2977    0.3476 H   0  0  0  0  0  0  0  0  0  0  0  0
    0.7354   -0.9468    1.7940 H   0  0  0  0  0  0  0  0  0  0  0  0
    2.6876   -0.6620    0.4370 H   0  0  0  0  0  0  0  0  0  0  0  0
    1.7239    0.0445   -0.9641 H   0  0  0  0  0  0  0  0  0  0  0  0
    2.4113    1.7889   -0.0186 H   0  0  0  0  0  0  0  0  0  0  0  0
  1  2  3  0
  2  3  1  0
  3  4  1  0
  4  5  1  0
  5  6  1  0
  6  7  1  0
  7  8  1  0
  8  9  1  0
  6  3  1  0
  7  3  1  0
  1 10  1  0
  4 11  1  0
  4 12  1  0
  6 13  1  0
  7 14  1  0
  8 15  1  0
  8 16  1  0
  9 17  1  0
M  END
