
     RDKit          3D

 19 19  0  0  0  0  0  0  0  0999 V2000
    2.3461   -1.8386   -1.2950 C   0  0  0  0  0  0  0  0  0  0  0  0
    1.5297   -1.0211   -0.4921 C   0  0  0  0  0  0  0  0  0  0  0  0
    0.8602   -0.3524    0.1770 C   0  0  0  0  0  0  0  0  0  0  0  0
    1.5946    0.6320    1.2073 C   0  0  0  0  0  0  0  0  0  0  0  0
   -0.2391   -0.8083    0.9134 O   0  0  0  0  0  0  0  0  0  0  0  0
   -1.0294    0.2516    0.5978 C   0  0  0  0  0  0  0  0  0  0  0  0
   -2.4639   -0.0054    0.2133 C   0  0  0  0  0  0  0  0  0  0  0  0
   -0.1809    0.6280   -0.5615 C   0  0  0  0  0  0  0  0  0  0  0  0
   -0.5684   -0.0176   -1.7408 O   0  0  0  0  0  0  0  0  0  0  0  0
    3.0516   -2.5731   -1.9922 H   0  0  0  0  0  0  0  0  0  0  0  0
    1.2419    0.5462    2.2094 H   0  0  0  0  0  0  0  0  0  0  0  0
    2.6678    0.2319    1.1727 H   0  0  0  0  0  0  0  0  0  0  0  0
    1.6219    1.6357    0.8131 H   0  0  0  0  0  0  0  0  0  0  0  0
   -1.0144    1.1230    1.3914 H   0  0  0  0  0  0  0  0  0  0  0  0
   -3.1378    0.7837    0.6461 H   0  0  0  0  0  0  0  0  0  0  0  0
   -2.7414   -1.0020    0.6625 H   0  0  0  0  0  0  0  0  0  0  0  0
   -2.5989   -0.0779   -0.8656 H   0  0  0  0  0  0  0  0  0  0  0  0
    0.0892    1.6598   -0.6566 H   0  0  0  0  0  0  0  0  0  0  0  0
   -1.0284    0.5805   -2.4002 H   0  0  0  0  0  0  0  0  0  0  0  0
  1  2  3  0
  2  3  1  0
  3  4  1  0
  3  5  1  0
  5  6  1  0
  6  7  1  0
  6  8  1  0
  8  9  1  0
  8  3  1  0
  1 10  1  0
  4 11  1  0
  4 12  1  0
  4 13  1  0
  6 14  1  0
  7 15  1  0
  7 16  1  0
  7 17  1  0
  8 18  1  0
  9 19  1  0
M  END
