
     RDKit          3D

 18 18  0  0  0  0  0  0  0  0999 V2000
    2.1613    1.6014    0.4804 C   0  0  0  0  0  0  0  0  0  0  0  0
    1.3445    0.7161    0.3412 C   0  0  0  0  0  0  0  0  0  0  0  0
    0.3632   -0.3734    0.1907 C   0  0  0  0  0  0  0  0  0  0  0  0
    1.1025   -1.6756    0.2965 C   0  0  0  0  0  0  0  0  0  0  0  0
   -0.2506   -0.2018   -1.2062 C   0  0  0  0  0  0  0  0  0  0  0  0
   -1.2879    0.8837   -0.8735 C   0  0  0  0  0  0  0  0  0  0  0  0
   -1.7301    0.3682    0.4808 C   0  0  0  0  0  0  0  0  0  0  0  0
   -0.6540   -0.2168    1.0865 O   0  0  0  0  0  0  0  0  0  0  0  0
    2.8750    2.3753    0.6099 H   0  0  0  0  0  0  0  0  0  0  0  0
    1.8041   -1.6473    1.1418 H   0  0  0  0  0  0  0  0  0  0  0  0
    1.6612   -1.8230   -0.6584 H   0  0  0  0  0  0  0  0  0  0  0  0
    0.4161   -2.5452    0.4359 H   0  0  0  0  0  0  0  0  0  0  0  0
   -0.7475   -1.1211   -1.5310 H   0  0  0  0  0  0  0  0  0  0  0  0
    0.5242    0.1680   -1.8845 H   0  0  0  0  0  0  0  0  0  0  0  0
   -2.0866    0.9307   -1.6105 H   0  0  0  0  0  0  0  0  0  0  0  0
   -0.7492    1.8362   -0.7046 H   0  0  0  0  0  0  0  0  0  0  0  0
   -2.2348    1.1425    1.0840 H   0  0  0  0  0  0  0  0  0  0  0  0
   -2.5113   -0.4179    0.2839 H   0  0  0  0  0  0  0  0  0  0  0  0
  1  2  3  0
  2  3  1  0
  3  4  1  0
  3  5  1  0
  5  6  1  0
  6  7  1  0
  7  8  1  0
  8  3  1  0
  1  9  1  0
  4 10  1  0
  4 11  1  0
  4 12  1  0
  5 13  1  0
  5 14  1  0
  6 15  1  0
  6 16  1  0
  7 17  1  0
  7 18  1  0
M  END
