
     RDKit          3D

 17 17  0  0  0  0  0  0  0  0999 V2000
    2.5112    0.1225    0.5162 C   0  0  0  0  0  0  0  0  0  0  0  0
    1.5894    0.0787   -0.2267 C   0  0  0  0  0  0  0  0  0  0  0  0
    0.4410    0.0440   -1.1308 C   0  0  0  0  0  0  0  0  0  0  0  0
    0.1663   -1.2855   -1.4332 O   0  0  0  0  0  0  0  0  0  0  0  0
   -0.3604   -1.8352   -0.2596 C   0  0  0  0  0  0  0  0  0  0  0  0
   -1.2508   -0.7780    0.2258 C   0  0  0  0  0  0  0  0  0  0  0  0
   -2.1875   -0.8574    0.9863 O   0  0  0  0  0  0  0  0  0  0  0  0
   -0.7970    0.4844   -0.3992 C   0  0  0  0  0  0  0  0  0  0  0  0
   -0.5547    1.5880    0.5805 C   0  0  0  0  0  0  0  0  0  0  0  0
    3.3387    0.1724    1.2034 H   0  0  0  0  0  0  0  0  0  0  0  0
    0.6070    0.6170   -2.0471 H   0  0  0  0  0  0  0  0  0  0  0  0
   -0.8637   -2.7690   -0.5155 H   0  0  0  0  0  0  0  0  0  0  0  0
    0.4856   -2.0601    0.4142 H   0  0  0  0  0  0  0  0  0  0  0  0
   -1.5225    0.8555   -1.1607 H   0  0  0  0  0  0  0  0  0  0  0  0
   -0.4217    2.5281   -0.0035 H   0  0  0  0  0  0  0  0  0  0  0  0
    0.3058    1.3707    1.2454 H   0  0  0  0  0  0  0  0  0  0  0  0
   -1.4866    1.7240    1.1693 H   0  0  0  0  0  0  0  0  0  0  0  0
  1  2  3  0
  2  3  1  0
  3  4  1  0
  4  5  1  0
  5  6  1  0
  6  7  2  0
  6  8  1  0
  8  9  1  0
  8  3  1  0
  1 10  1  0
  3 11  1  0
  5 12  1  0
  5 13  1  0
  8 14  1  0
  9 15  1  0
  9 16  1  0
  9 17  1  0
M  END
