
     RDKit          3D

 15 15  0  0  0  0  0  0  0  0999 V2000
    1.5264    2.5464   -0.3531 C   0  0  0  0  0  0  0  0  0  0  0  0
    1.3461    1.3731   -0.5639 C   0  0  0  0  0  0  0  0  0  0  0  0
    1.1377   -0.0578   -0.8391 C   0  0  0  0  0  0  0  0  0  0  0  0
    1.2576   -1.0452    0.2841 C   0  0  0  0  0  0  0  0  0  0  0  0
   -0.1128   -0.6452   -0.2495 C   0  0  0  0  0  0  0  0  0  0  0  0
   -0.8703    0.0928    0.6472 O   0  0  0  0  0  0  0  0  0  0  0  0
   -2.2025   -0.2439    0.6506 C   0  0  0  0  0  0  0  0  0  0  0  0
    1.6712    3.5965   -0.1556 H   0  0  0  0  0  0  0  0  0  0  0  0
    1.4506   -0.4168   -1.8484 H   0  0  0  0  0  0  0  0  0  0  0  0
    1.5512   -0.6772    1.3015 H   0  0  0  0  0  0  0  0  0  0  0  0
    1.5933   -2.0640    0.0220 H   0  0  0  0  0  0  0  0  0  0  0  0
   -0.6629   -1.4141   -0.8546 H   0  0  0  0  0  0  0  0  0  0  0  0
   -2.6134   -0.0683   -0.3728 H   0  0  0  0  0  0  0  0  0  0  0  0
   -2.7060    0.3536    1.4281 H   0  0  0  0  0  0  0  0  0  0  0  0
   -2.3662   -1.3298    0.9035 H   0  0  0  0  0  0  0  0  0  0  0  0
  1  2  3  0
  2  3  1  0
  3  4  1  0
  4  5  1  0
  5  6  1  0
  6  7  1  0
  5  3  1  0
  1  8  1  0
  3  9  1  0
  4 10  1  0
  4 11  1  0
  5 12  1  0
  7 13  1  0
  7 14  1  0
  7 15  1  0
M  END
