
     RDKit          3D

 17 17  0  0  0  0  0  0  0  0999 V2000
    3.0342   -0.3067   -0.0074 C   0  0  0  0  0  0  0  0  0  0  0  0
    1.8374   -0.1138   -0.0967 C   0  0  0  0  0  0  0  0  0  0  0  0
    0.4064    0.1424   -0.2054 C   0  0  0  0  0  0  0  0  0  0  0  0
    0.1260    1.6445   -0.2544 C   0  0  0  0  0  0  0  0  0  0  0  0
   -0.2526   -0.3767    1.0570 C   0  0  0  0  0  0  0  0  0  0  0  0
   -1.6245   -0.6308    0.5267 C   0  0  0  0  0  0  0  0  0  0  0  0
   -2.7024   -0.5456    1.0614 O   0  0  0  0  0  0  0  0  0  0  0  0
   -1.3697   -1.0362   -0.8863 C   0  0  0  0  0  0  0  0  0  0  0  0
   -0.1772   -0.4809   -1.2678 O   0  0  0  0  0  0  0  0  0  0  0  0
    4.0841   -0.4908    0.0623 H   0  0  0  0  0  0  0  0  0  0  0  0
   -0.1869    2.0434    0.7164 H   0  0  0  0  0  0  0  0  0  0  0  0
   -0.6971    1.8544   -0.9827 H   0  0  0  0  0  0  0  0  0  0  0  0
    1.0625    2.1907   -0.5517 H   0  0  0  0  0  0  0  0  0  0  0  0
    0.1476   -1.3580    1.3613 H   0  0  0  0  0  0  0  0  0  0  0  0
   -0.2508    0.3715    1.8660 H   0  0  0  0  0  0  0  0  0  0  0  0
   -2.2146   -0.7605   -1.5488 H   0  0  0  0  0  0  0  0  0  0  0  0
   -1.2224   -2.1470   -0.8498 H   0  0  0  0  0  0  0  0  0  0  0  0
  1  2  3  0
  2  3  1  0
  3  4  1  0
  3  5  1  0
  5  6  1  0
  6  7  2  0
  6  8  1  0
  8  9  1  0
  9  3  1  0
  1 10  1  0
  4 11  1  0
  4 12  1  0
  4 13  1  0
  5 14  1  0
  5 15  1  0
  8 16  1  0
  8 17  1  0
M  END
