
     RDKit          3D

 22 21  0  0  0  0  0  0  0  0999 V2000
    2.8075    0.3698    1.9984 C   0  0  0  0  0  0  0  0  0  0  0  0
    1.9854   -0.4143    1.6687 C   0  0  0  0  0  0  0  0  0  0  0  0
    0.9822   -1.3985    1.2772 C   0  0  0  0  0  0  0  0  0  0  0  0
   -0.3879   -0.8074    1.5165 C   0  0  0  0  0  0  0  0  0  0  0  0
   -0.5203    0.4358    0.7188 C   0  0  0  0  0  0  0  0  0  0  0  0
   -0.3359    0.2943   -0.7635 C   0  0  0  0  0  0  0  0  0  0  0  0
   -1.3157   -0.6575   -1.3930 C   0  0  0  0  0  0  0  0  0  0  0  0
   -0.4949    1.6716   -1.3735 C   0  0  0  0  0  0  0  0  0  0  0  0
    3.5697    1.0956    2.2915 H   0  0  0  0  0  0  0  0  0  0  0  0
    1.1157   -1.6294    0.2049 H   0  0  0  0  0  0  0  0  0  0  0  0
    1.1278   -2.3068    1.9115 H   0  0  0  0  0  0  0  0  0  0  0  0
   -1.1962   -1.5412    1.3613 H   0  0  0  0  0  0  0  0  0  0  0  0
   -0.4493   -0.5131    2.6003 H   0  0  0  0  0  0  0  0  0  0  0  0
    0.1975    1.1914    1.0946 H   0  0  0  0  0  0  0  0  0  0  0  0
   -1.5486    0.8576    0.9255 H   0  0  0  0  0  0  0  0  0  0  0  0
    0.6846   -0.0637   -0.9893 H   0  0  0  0  0  0  0  0  0  0  0  0
   -0.7959   -1.5814   -1.7248 H   0  0  0  0  0  0  0  0  0  0  0  0
   -2.1899   -0.8824   -0.7497 H   0  0  0  0  0  0  0  0  0  0  0  0
   -1.7128   -0.1697   -2.3045 H   0  0  0  0  0  0  0  0  0  0  0  0
   -0.7972    2.4100   -0.6043 H   0  0  0  0  0  0  0  0  0  0  0  0
    0.4924    1.9919   -1.7567 H   0  0  0  0  0  0  0  0  0  0  0  0
   -1.2181    1.6474   -2.2168 H   0  0  0  0  0  0  0  0  0  0  0  0
  1  2  3  0
  2  3  1  0
  3  4  1  0
  4  5  1  0
  5  6  1  0
  6  7  1  0
  6  8  1  0
  1  9  1  0
  3 10  1  0
  3 11  1  0
  4 12  1  0
  4 13  1  0
  5 14  1  0
  5 15  1  0
  6 16  1  0
  7 17  1  0
  7 18  1  0
  7 19  1  0
  8 20  1  0
  8 21  1  0
  8 22  1  0
M  END
