
     RDKit          3D

 19 20  0  0  0  0  0  0  0  0999 V2000
    3.4282    0.2095   -0.0692 C   0  0  0  0  0  0  0  0  0  0  0  0
    2.2905   -0.1933   -0.0906 C   0  0  0  0  0  0  0  0  0  0  0  0
    0.9254   -0.6744   -0.0913 C   0  0  0  0  0  0  0  0  0  0  0  0
   -0.0780   -0.0470   -0.9775 C   0  0  0  0  0  0  0  0  0  0  0  0
   -1.3528   -0.7154   -1.3067 C   0  0  0  0  0  0  0  0  0  0  0  0
   -2.0112   -1.0513   -0.0312 C   0  0  0  0  0  0  0  0  0  0  0  0
   -1.3348   -0.5733    0.9916 C   0  0  0  0  0  0  0  0  0  0  0  0
   -0.1295    0.1480    0.5290 C   0  0  0  0  0  0  0  0  0  0  0  0
    0.0817    1.5479    0.9850 C   0  0  0  0  0  0  0  0  0  0  0  0
    4.4388    0.5816   -0.0630 H   0  0  0  0  0  0  0  0  0  0  0  0
    0.8425   -1.7787    0.0123 H   0  0  0  0  0  0  0  0  0  0  0  0
    0.2850    0.7960   -1.6019 H   0  0  0  0  0  0  0  0  0  0  0  0
   -2.0420   -0.0732   -1.9133 H   0  0  0  0  0  0  0  0  0  0  0  0
   -1.1320   -1.6726   -1.8308 H   0  0  0  0  0  0  0  0  0  0  0  0
   -2.9363   -1.6207    0.0503 H   0  0  0  0  0  0  0  0  0  0  0  0
   -1.6067   -0.6833    2.0194 H   0  0  0  0  0  0  0  0  0  0  0  0
    0.0760    2.2777    0.1609 H   0  0  0  0  0  0  0  0  0  0  0  0
    1.0118    1.7011    1.5645 H   0  0  0  0  0  0  0  0  0  0  0  0
   -0.7566    1.8215    1.6623 H   0  0  0  0  0  0  0  0  0  0  0  0
  1  2  3  0
  2  3  1  0
  3  4  1  0
  4  5  1  0
  5  6  1  0
  6  7  2  0
  7  8  1  0
  8  9  1  0
  8  3  1  0
  8  4  1  0
  1 10  1  0
  3 11  1  0
  4 12  1  0
  5 13  1  0
  5 14  1  0
  6 15  1  0
  7 16  1  0
  9 17  1  0
  9 18  1  0
  9 19  1  0
M  END
