
     RDKit          3D

 19 18  0  0  0  0  0  0  0  0999 V2000
   -0.6974   -2.7866    1.0064 C   0  0  0  0  0  0  0  0  0  0  0  0
   -0.4770   -1.6716    0.6026 C   0  0  0  0  0  0  0  0  0  0  0  0
   -0.2334   -0.4822    0.1878 C   0  0  0  0  0  0  0  0  0  0  0  0
   -0.2110   -0.3766   -1.3850 C   0  0  0  0  0  0  0  0  0  0  0  0
    0.1593    0.9538   -1.7615 O   0  0  0  0  0  0  0  0  0  0  0  0
   -0.9182    0.7878    0.6862 C   0  0  0  0  0  0  0  0  0  0  0  0
   -0.3497    1.9489   -0.0312 O   0  0  0  0  0  0  0  0  0  0  0  0
    1.3372   -0.1594    0.3950 C   0  0  0  0  0  0  0  0  0  0  0  0
    1.6055    1.1327   -0.0504 O   0  0  0  0  0  0  0  0  0  0  0  0
   -0.9244   -3.8607    1.4032 H   0  0  0  0  0  0  0  0  0  0  0  0
    0.4284   -1.1314   -1.7912 H   0  0  0  0  0  0  0  0  0  0  0  0
   -1.2530   -0.5047   -1.6846 H   0  0  0  0  0  0  0  0  0  0  0  0
   -0.6418    1.3553   -2.1771 H   0  0  0  0  0  0  0  0  0  0  0  0
   -1.9621    0.7844    0.4354 H   0  0  0  0  0  0  0  0  0  0  0  0
   -0.7557    0.9980    1.7538 H   0  0  0  0  0  0  0  0  0  0  0  0
   -0.6185    2.7188    0.5773 H   0  0  0  0  0  0  0  0  0  0  0  0
    1.7806   -0.8864   -0.3031 H   0  0  0  0  0  0  0  0  0  0  0  0
    1.5725   -0.3448    1.4359 H   0  0  0  0  0  0  0  0  0  0  0  0
    2.1586    1.5247    0.7006 H   0  0  0  0  0  0  0  0  0  0  0  0
  1  2  3  0
  2  3  1  0
  3  4  1  0
  4  5  1  0
  3  6  1  0
  6  7  1  0
  3  8  1  0
  8  9  1  0
  1 10  1  0
  4 11  1  0
  4 12  1  0
  5 13  1  0
  6 14  1  0
  6 15  1  0
  7 16  1  0
  8 17  1  0
  8 18  1  0
  9 19  1  0
M  END
