
     RDKit          3D

 19 20  0  0  0  0  0  0  0  0999 V2000
    2.9430   -1.1545    0.7954 C   0  0  0  0  0  0  0  0  0  0  0  0
    2.0887   -0.7984    0.1318 C   0  0  0  0  0  0  0  0  0  0  0  0
    0.9954   -0.3183   -0.7403 C   0  0  0  0  0  0  0  0  0  0  0  0
   -0.2593   -1.1273   -0.7189 C   0  0  0  0  0  0  0  0  0  0  0  0
   -0.9455   -0.0569    0.0834 C   0  0  0  0  0  0  0  0  0  0  0  0
   -2.3295    0.4080   -0.3120 C   0  0  0  0  0  0  0  0  0  0  0  0
   -0.3108    0.4058    1.3316 C   0  0  0  0  0  0  0  0  0  0  0  0
    0.2544    0.7687    0.0195 C   0  0  0  0  0  0  0  0  0  0  0  0
    0.3472    2.0810   -0.3144 O   0  0  0  0  0  0  0  0  0  0  0  0
    3.7837   -1.5074    1.4698 H   0  0  0  0  0  0  0  0  0  0  0  0
    1.3164   -0.0529   -1.7437 H   0  0  0  0  0  0  0  0  0  0  0  0
   -0.6719   -1.2813   -1.7428 H   0  0  0  0  0  0  0  0  0  0  0  0
   -0.1133   -2.1017   -0.2263 H   0  0  0  0  0  0  0  0  0  0  0  0
   -2.9168    0.6236    0.5804 H   0  0  0  0  0  0  0  0  0  0  0  0
   -2.7733   -0.3556   -0.9609 H   0  0  0  0  0  0  0  0  0  0  0  0
   -2.1745    1.3521   -0.9230 H   0  0  0  0  0  0  0  0  0  0  0  0
    0.3434   -0.2858    1.9289 H   0  0  0  0  0  0  0  0  0  0  0  0
   -0.8780    1.1550    1.8928 H   0  0  0  0  0  0  0  0  0  0  0  0
    1.3006    2.2459   -0.5516 H   0  0  0  0  0  0  0  0  0  0  0  0
  1  2  3  0
  2  3  1  0
  3  4  1  0
  4  5  1  0
  5  6  1  0
  5  7  1  0
  7  8  1  0
  8  9  1  0
  8  3  1  0
  8  5  1  0
  1 10  1  0
  3 11  1  0
  4 12  1  0
  4 13  1  0
  6 14  1  0
  6 15  1  0
  6 16  1  0
  7 17  1  0
  7 18  1  0
  9 19  1  0
M  END
