
     RDKit          3D

 17 17  0  0  0  0  0  0  0  0999 V2000
    3.6061    0.7550    0.2970 C   0  0  0  0  0  0  0  0  0  0  0  0
    2.4432    0.4350    0.3284 C   0  0  0  0  0  0  0  0  0  0  0  0
    1.0568    0.0563    0.3907 C   0  0  0  0  0  0  0  0  0  0  0  0
    0.0708    0.9042    0.6971 C   0  0  0  0  0  0  0  0  0  0  0  0
   -1.2388    0.1713    0.6680 C   0  0  0  0  0  0  0  0  0  0  0  0
   -2.2551    0.9930   -0.0345 C   0  0  0  0  0  0  0  0  0  0  0  0
   -2.0644    2.1307   -0.4126 O   0  0  0  0  0  0  0  0  0  0  0  0
   -0.9709   -1.0919   -0.1181 C   0  0  0  0  0  0  0  0  0  0  0  0
    0.5094   -1.2980    0.1329 C   0  0  0  0  0  0  0  0  0  0  0  0
    4.6395    1.0590    0.2692 H   0  0  0  0  0  0  0  0  0  0  0  0
    0.1297    1.9552    0.9372 H   0  0  0  0  0  0  0  0  0  0  0  0
   -1.5151   -0.0224    1.7197 H   0  0  0  0  0  0  0  0  0  0  0  0
   -3.2288    0.5548   -0.2239 H   0  0  0  0  0  0  0  0  0  0  0  0
   -1.5792   -1.9542    0.2378 H   0  0  0  0  0  0  0  0  0  0  0  0
   -1.1943   -0.8907   -1.1756 H   0  0  0  0  0  0  0  0  0  0  0  0
    0.9830   -1.7962   -0.7353 H   0  0  0  0  0  0  0  0  0  0  0  0
    0.6081   -1.9612    1.0407 H   0  0  0  0  0  0  0  0  0  0  0  0
  1  2  3  0
  2  3  1  0
  3  4  2  0
  4  5  1  0
  5  6  1  0
  6  7  2  0
  5  8  1  0
  8  9  1  0
  9  3  1  0
  1 10  1  0
  4 11  1  0
  5 12  1  0
  6 13  1  0
  8 14  1  0
  8 15  1  0
  9 16  1  0
  9 17  1  0
M  END
