
     RDKit          3D

 19 19  0  0  0  0  0  0  0  0999 V2000
    3.0949   -0.0774    1.2131 C   0  0  0  0  0  0  0  0  0  0  0  0
    1.9920   -0.1318    0.7519 C   0  0  0  0  0  0  0  0  0  0  0  0
    0.6572   -0.2178    0.2097 C   0  0  0  0  0  0  0  0  0  0  0  0
   -0.2520    0.7167    0.4057 C   0  0  0  0  0  0  0  0  0  0  0  0
   -0.1159    1.9871    1.1802 C   0  0  0  0  0  0  0  0  0  0  0  0
   -1.4974    0.3301   -0.2854 C   0  0  0  0  0  0  0  0  0  0  0  0
   -1.4095   -1.1787   -0.2611 C   0  0  0  0  0  0  0  0  0  0  0  0
    0.0784   -1.3263   -0.6266 C   0  0  0  0  0  0  0  0  0  0  0  0
    0.2024   -1.0563   -1.9837 O   0  0  0  0  0  0  0  0  0  0  0  0
    4.0697   -0.0226    1.6197 H   0  0  0  0  0  0  0  0  0  0  0  0
   -1.1040    2.2805    1.5855 H   0  0  0  0  0  0  0  0  0  0  0  0
    0.5624    1.8566    2.0474 H   0  0  0  0  0  0  0  0  0  0  0  0
    0.2394    2.7641    0.4728 H   0  0  0  0  0  0  0  0  0  0  0  0
   -1.3949    0.6862   -1.3433 H   0  0  0  0  0  0  0  0  0  0  0  0
   -2.4080    0.7258    0.1956 H   0  0  0  0  0  0  0  0  0  0  0  0
   -2.0451   -1.6489   -1.0262 H   0  0  0  0  0  0  0  0  0  0  0  0
   -1.5949   -1.5331    0.7560 H   0  0  0  0  0  0  0  0  0  0  0  0
    0.4837   -2.2926   -0.3179 H   0  0  0  0  0  0  0  0  0  0  0  0
    0.4415   -1.8617   -2.5108 H   0  0  0  0  0  0  0  0  0  0  0  0
  1  2  3  0
  2  3  1  0
  3  4  2  0
  4  5  1  0
  4  6  1  0
  6  7  1  0
  7  8  1  0
  8  9  1  0
  8  3  1  0
  1 10  1  0
  5 11  1  0
  5 12  1  0
  5 13  1  0
  6 14  1  0
  6 15  1  0
  7 16  1  0
  7 17  1  0
  8 18  1  0
  9 19  1  0
M  END
