
     RDKit          3D

 23 23  0  0  0  0  0  0  0  0999 V2000
    3.8257   -0.6659    0.4927 C   0  0  0  0  0  0  0  0  0  0  0  0
    2.6951   -1.0295    0.2557 C   0  0  0  0  0  0  0  0  0  0  0  0
    1.3265   -1.4685   -0.0283 C   0  0  0  0  0  0  0  0  0  0  0  0
    0.6016   -0.3235   -0.6643 C   0  0  0  0  0  0  0  0  0  0  0  0
   -0.8446   -0.5942   -1.0323 C   0  0  0  0  0  0  0  0  0  0  0  0
   -1.0842    0.8591   -0.6844 C   0  0  0  0  0  0  0  0  0  0  0  0
   -2.4159    1.1982   -0.1262 C   0  0  0  0  0  0  0  0  0  0  0  0
    0.0595    0.7231    0.2859 C   0  0  0  0  0  0  0  0  0  0  0  0
   -0.3233    0.2278    1.6574 C   0  0  0  0  0  0  0  0  0  0  0  0
    4.8301   -0.3380    0.6896 H   0  0  0  0  0  0  0  0  0  0  0  0
    1.3592   -2.3701   -0.6505 H   0  0  0  0  0  0  0  0  0  0  0  0
    0.8966   -1.7650    0.9540 H   0  0  0  0  0  0  0  0  0  0  0  0
    1.1401    0.1646   -1.4924 H   0  0  0  0  0  0  0  0  0  0  0  0
   -1.0184   -0.8733   -2.0771 H   0  0  0  0  0  0  0  0  0  0  0  0
   -1.3627   -1.2286   -0.2759 H   0  0  0  0  0  0  0  0  0  0  0  0
   -0.7873    1.5294   -1.5288 H   0  0  0  0  0  0  0  0  0  0  0  0
   -2.5569    2.2979   -0.1807 H   0  0  0  0  0  0  0  0  0  0  0  0
   -2.5571    0.9250    0.9371 H   0  0  0  0  0  0  0  0  0  0  0  0
   -3.2051    0.7247   -0.7370 H   0  0  0  0  0  0  0  0  0  0  0  0
    0.6878    1.6336    0.3315 H   0  0  0  0  0  0  0  0  0  0  0  0
   -0.7060    1.1284    2.2067 H   0  0  0  0  0  0  0  0  0  0  0  0
    0.5383   -0.1989    2.2048 H   0  0  0  0  0  0  0  0  0  0  0  0
   -1.0990   -0.5563    1.6294 H   0  0  0  0  0  0  0  0  0  0  0  0
  1  2  3  0
  2  3  1  0
  3  4  1  0
  4  5  1  0
  5  6  1  0
  6  7  1  0
  6  8  1  0
  8  9  1  0
  8  4  1  0
  1 10  1  0
  3 11  1  0
  3 12  1  0
  4 13  1  0
  5 14  1  0
  5 15  1  0
  6 16  1  0
  7 17  1  0
  7 18  1  0
  7 19  1  0
  8 20  1  0
  9 21  1  0
  9 22  1  0
  9 23  1  0
M  END
