
     RDKit          3D

 21 22  0  0  0  0  0  0  0  0999 V2000
    3.9094    1.2000   -1.1211 C   0  0  0  0  0  0  0  0  0  0  0  0
    2.6693    1.3791   -0.8351 C   0  0  0  0  0  0  0  0  0  0  0  0
    1.0849    1.5901   -0.4838 C   0  0  0  0  0  0  0  0  0  0  0  0
    0.7211    0.2788    0.0285 C   0  0  0  0  0  0  0  0  0  0  0  0
   -0.5274   -0.1059    0.3706 C   0  0  0  0  0  0  0  0  0  0  0  0
   -0.8442   -1.4620    1.0200 C   0  0  0  0  0  0  0  0  0  0  0  0
   -2.1392   -1.0318    0.4530 C   0  0  0  0  0  0  0  0  0  0  0  0
   -1.7465    0.3442    0.9624 C   0  0  0  0  0  0  0  0  0  0  0  0
   -1.4655   -0.6697   -0.7729 C   0  0  0  0  0  0  0  0  0  0  0  0
    4.9019    1.0529   -1.3680 H   0  0  0  0  0  0  0  0  0  0  0  0
    0.7890    1.7669   -1.5541 H   0  0  0  0  0  0  0  0  0  0  0  0
    1.1474    2.4528    0.1027 H   0  0  0  0  0  0  0  0  0  0  0  0
    1.4780   -0.0842    0.7966 H   0  0  0  0  0  0  0  0  0  0  0  0
    1.0386   -0.4541   -0.8989 H   0  0  0  0  0  0  0  0  0  0  0  0
   -0.2531   -2.2311    0.5930 H   0  0  0  0  0  0  0  0  0  0  0  0
   -0.8409   -1.4214    2.1468 H   0  0  0  0  0  0  0  0  0  0  0  0
   -3.0448   -1.5005    0.5894 H   0  0  0  0  0  0  0  0  0  0  0  0
   -2.2842    1.2123    0.5466 H   0  0  0  0  0  0  0  0  0  0  0  0
   -1.8610    0.3411    2.0927 H   0  0  0  0  0  0  0  0  0  0  0  0
   -0.9203   -1.4326   -1.3075 H   0  0  0  0  0  0  0  0  0  0  0  0
   -1.8125    0.2357   -1.3608 H   0  0  0  0  0  0  0  0  0  0  0  0
  1  2  3  0
  2  3  1  0
  3  4  1  0
  4  5  1  0
  5  6  1  0
  6  7  1  0
  7  8  1  0
  7  9  1  0
  8  5  1  0
  9  5  1  0
  1 10  1  0
  3 11  1  0
  3 12  1  0
  4 13  1  0
  4 14  1  0
  6 15  1  0
  6 16  1  0
  7 17  1  0
  8 18  1  0
  8 19  1  0
  9 20  1  0
  9 21  1  0
M  END
