
     RDKit          3D

 19 19  0  0  0  0  0  0  0  0999 V2000
    2.9830   -0.4525    1.6897 C   0  0  0  0  0  0  0  0  0  0  0  0
    1.8935   -0.2542    1.1007 C   0  0  0  0  0  0  0  0  0  0  0  0
    0.6531   -0.0174    0.4544 C   0  0  0  0  0  0  0  0  0  0  0  0
    0.7363    0.5913   -0.9300 C   0  0  0  0  0  0  0  0  0  0  0  0
   -0.6514    1.2395   -1.1277 C   0  0  0  0  0  0  0  0  0  0  0  0
   -1.5635    0.1879   -1.1647 O   0  0  0  0  0  0  0  0  0  0  0  0
   -2.1351   -0.1334    0.0463 C   0  0  0  0  0  0  0  0  0  0  0  0
   -1.4485   -1.1694    0.6925 O   0  0  0  0  0  0  0  0  0  0  0  0
   -0.1209   -1.2922    0.3305 C   0  0  0  0  0  0  0  0  0  0  0  0
    3.9772   -0.6161    2.2335 H   0  0  0  0  0  0  0  0  0  0  0  0
    0.1057    0.7348    1.1065 H   0  0  0  0  0  0  0  0  0  0  0  0
    1.5594    1.2728   -1.1022 H   0  0  0  0  0  0  0  0  0  0  0  0
    0.8262   -0.2415   -1.6965 H   0  0  0  0  0  0  0  0  0  0  0  0
   -0.7978    1.8267   -0.1945 H   0  0  0  0  0  0  0  0  0  0  0  0
   -0.7022    1.8281   -2.0277 H   0  0  0  0  0  0  0  0  0  0  0  0
   -2.3364    0.7597    0.7090 H   0  0  0  0  0  0  0  0  0  0  0  0
   -3.1544   -0.5522   -0.1754 H   0  0  0  0  0  0  0  0  0  0  0  0
    0.3242   -2.1579    0.8294 H   0  0  0  0  0  0  0  0  0  0  0  0
   -0.1483   -1.5540   -0.7740 H   0  0  0  0  0  0  0  0  0  0  0  0
  1  2  3  0
  2  3  1  0
  3  4  1  0
  4  5  1  0
  5  6  1  0
  6  7  1  0
  7  8  1  0
  8  9  1  0
  9  3  1  0
  1 10  1  0
  3 11  1  0
  4 12  1  0
  4 13  1  0
  5 14  1  0
  5 15  1  0
  7 16  1  0
  7 17  1  0
  9 18  1  0
  9 19  1  0
M  END
