
     RDKit          3D

 19 20  0  0  0  0  0  0  0  0999 V2000
    2.3392    1.5013    0.4883 C   0  0  0  0  0  0  0  0  0  0  0  0
    1.6779    0.5403    0.2225 C   0  0  0  0  0  0  0  0  0  0  0  0
    0.8955   -0.6092   -0.1189 C   0  0  0  0  0  0  0  0  0  0  0  0
    1.1623   -1.9461    0.5575 C   0  0  0  0  0  0  0  0  0  0  0  0
   -0.2003   -2.0026    0.8450 O   0  0  0  0  0  0  0  0  0  0  0  0
   -0.4790   -0.7884    0.2795 C   0  0  0  0  0  0  0  0  0  0  0  0
   -1.3506    0.2183    0.9380 C   0  0  0  0  0  0  0  0  0  0  0  0
   -1.5001    1.4436    0.0630 C   0  0  0  0  0  0  0  0  0  0  0  0
   -0.1334   -0.6170   -1.1741 C   0  0  0  0  0  0  0  0  0  0  0  0
    2.9294    2.3448    0.7392 H   0  0  0  0  0  0  0  0  0  0  0  0
    1.8310   -1.7910    1.4138 H   0  0  0  0  0  0  0  0  0  0  0  0
    1.5281   -2.6634   -0.1773 H   0  0  0  0  0  0  0  0  0  0  0  0
   -1.0558    0.5240    1.9369 H   0  0  0  0  0  0  0  0  0  0  0  0
   -2.3811   -0.2236    1.0235 H   0  0  0  0  0  0  0  0  0  0  0  0
   -0.4968    1.8807   -0.1194 H   0  0  0  0  0  0  0  0  0  0  0  0
   -2.0280    1.1792   -0.8898 H   0  0  0  0  0  0  0  0  0  0  0  0
   -2.1209    2.2165    0.5833 H   0  0  0  0  0  0  0  0  0  0  0  0
   -0.3320    0.3487   -1.6671 H   0  0  0  0  0  0  0  0  0  0  0  0
   -0.2856   -1.5560   -1.7697 H   0  0  0  0  0  0  0  0  0  0  0  0
  1  2  3  0
  2  3  1  0
  3  4  1  0
  4  5  1  0
  5  6  1  0
  6  7  1  0
  7  8  1  0
  6  9  1  0
  6  3  1  0
  9  3  1  0
  1 10  1  0
  4 11  1  0
  4 12  1  0
  7 13  1  0
  7 14  1  0
  8 15  1  0
  8 16  1  0
  8 17  1  0
  9 18  1  0
  9 19  1  0
M  END
