
     RDKit          3D

 19 19  0  0  0  0  0  0  0  0999 V2000
    3.2064    1.2390   -0.1264 C   0  0  0  0  0  0  0  0  0  0  0  0
    2.0020    1.0701   -0.1788 C   0  0  0  0  0  0  0  0  0  0  0  0
    0.5395    0.8519   -0.2209 C   0  0  0  0  0  0  0  0  0  0  0  0
    0.0818    0.2727    1.0708 C   0  0  0  0  0  0  0  0  0  0  0  0
   -1.4313    0.0603    1.0514 C   0  0  0  0  0  0  0  0  0  0  0  0
   -1.6775   -1.0514    0.0413 C   0  0  0  0  0  0  0  0  0  0  0  0
   -0.4869   -1.2658   -0.8015 C   0  0  0  0  0  0  0  0  0  0  0  0
   -0.1035   -2.3818   -1.0316 O   0  0  0  0  0  0  0  0  0  0  0  0
    0.2133   -0.0936   -1.3483 C   0  0  0  0  0  0  0  0  0  0  0  0
    4.2785    1.4065   -0.0868 H   0  0  0  0  0  0  0  0  0  0  0  0
    0.0020    1.7964   -0.4033 H   0  0  0  0  0  0  0  0  0  0  0  0
    0.3611    0.8251    1.9668 H   0  0  0  0  0  0  0  0  0  0  0  0
    0.5124   -0.7652    1.1724 H   0  0  0  0  0  0  0  0  0  0  0  0
   -1.9748    0.9844    0.8177 H   0  0  0  0  0  0  0  0  0  0  0  0
   -1.7561   -0.2836    2.0420 H   0  0  0  0  0  0  0  0  0  0  0  0
   -2.5584   -0.7611   -0.5510 H   0  0  0  0  0  0  0  0  0  0  0  0
   -1.9261   -1.9579    0.6015 H   0  0  0  0  0  0  0  0  0  0  0  0
    1.1441   -0.3810   -1.9081 H   0  0  0  0  0  0  0  0  0  0  0  0
   -0.4265    0.4350   -2.1072 H   0  0  0  0  0  0  0  0  0  0  0  0
  1  2  3  0
  2  3  1  0
  3  4  1  0
  4  5  1  0
  5  6  1  0
  6  7  1  0
  7  8  2  0
  7  9  1  0
  9  3  1  0
  1 10  1  0
  3 11  1  0
  4 12  1  0
  4 13  1  0
  5 14  1  0
  5 15  1  0
  6 16  1  0
  6 17  1  0
  9 18  1  0
  9 19  1  0
M  END
