
     RDKit          3D

 14 14  0  0  0  0  0  0  0  0999 V2000
    2.5138    1.0916   -1.6046 C   0  0  0  0  0  0  0  0  0  0  0  0
    1.4889    0.9627   -0.8341 C   0  0  0  0  0  0  0  0  0  0  0  0
    0.3051    0.8373    0.0681 C   0  0  0  0  0  0  0  0  0  0  0  0
   -0.9115    0.2724   -0.6133 C   0  0  0  0  0  0  0  0  0  0  0  0
   -0.7730   -1.0157    0.1824 C   0  0  0  0  0  0  0  0  0  0  0  0
   -1.8964   -1.1600    1.0140 O   0  0  0  0  0  0  0  0  0  0  0  0
    0.4019   -0.4581    0.8459 C   0  0  0  0  0  0  0  0  0  0  0  0
    1.1970   -0.8053    1.6840 O   0  0  0  0  0  0  0  0  0  0  0  0
    3.2480    1.1910   -2.1418 H   0  0  0  0  0  0  0  0  0  0  0  0
    0.1578    1.7298    0.6621 H   0  0  0  0  0  0  0  0  0  0  0  0
   -0.7562    0.0839   -1.7222 H   0  0  0  0  0  0  0  0  0  0  0  0
   -1.8195    0.8460   -0.4213 H   0  0  0  0  0  0  0  0  0  0  0  0
   -0.6047   -1.8837   -0.5166 H   0  0  0  0  0  0  0  0  0  0  0  0
   -2.5512   -1.6918    0.4968 H   0  0  0  0  0  0  0  0  0  0  0  0
  1  2  3  0
  2  3  1  0
  3  4  1  0
  4  5  1  0
  5  6  1  0
  5  7  1  0
  7  8  2  0
  7  3  1  0
  1  9  1  0
  3 10  1  0
  4 11  1  0
  4 12  1  0
  5 13  1  0
  6 14  1  0
M  END
