
     RDKit          3D

 15 14  0  0  0  0  0  0  0  0999 V2000
    3.6600   -1.2163    0.9314 C   0  0  0  0  0  0  0  0  0  0  0  0
    2.4937   -1.1883    0.6716 C   0  0  0  0  0  0  0  0  0  0  0  0
    1.1083   -1.1752    0.3482 C   0  0  0  0  0  0  0  0  0  0  0  0
    0.3842   -2.1826    0.2446 O   0  0  0  0  0  0  0  0  0  0  0  0
    0.4553   -0.0160    0.1206 O   0  0  0  0  0  0  0  0  0  0  0  0
   -0.8488    0.2110   -0.1999 C   0  0  0  0  0  0  0  0  0  0  0  0
   -1.4974    0.9057    0.9864 C   0  0  0  0  0  0  0  0  0  0  0  0
   -1.2133    0.9407   -1.3937 C   0  0  0  0  0  0  0  0  0  0  0  0
   -0.5376    1.4385   -2.2421 O   0  0  0  0  0  0  0  0  0  0  0  0
    4.7187   -1.2600    1.1720 H   0  0  0  0  0  0  0  0  0  0  0  0
   -1.3520   -0.7926   -0.2506 H   0  0  0  0  0  0  0  0  0  0  0  0
   -2.4451    0.4114    1.2962 H   0  0  0  0  0  0  0  0  0  0  0  0
   -1.7999    1.9482    0.7033 H   0  0  0  0  0  0  0  0  0  0  0  0
   -0.8357    0.9112    1.8810 H   0  0  0  0  0  0  0  0  0  0  0  0
   -2.2906    1.0643   -1.5580 H   0  0  0  0  0  0  0  0  0  0  0  0
  1  2  3  0
  2  3  1  0
  3  4  2  0
  3  5  1  0
  5  6  1  0
  6  7  1  0
  6  8  1  0
  8  9  2  0
  1 10  1  0
  6 11  1  0
  7 12  1  0
  7 13  1  0
  7 14  1  0
  8 15  1  0
M  END
