
     RDKit          3D

 11 10  0  0  0  0  0  0  0  0999 V2000
    2.6733    0.5572    0.7484 C   0  0  0  0  0  0  0  0  0  0  0  0
    1.5817   -0.2465    0.5778 C   0  0  0  0  0  0  0  0  0  0  0  0
    0.4660   -1.0668    0.3789 C   0  0  0  0  0  0  0  0  0  0  0  0
    0.6925   -2.3178    0.6982 O   0  0  0  0  0  0  0  0  0  0  0  0
   -0.7179   -0.5122   -0.1024 C   0  0  0  0  0  0  0  0  0  0  0  0
   -1.8463    0.1705   -0.6218 C   0  0  0  0  0  0  0  0  0  0  0  0
    0.1859    0.8786   -0.4434 O   0  0  0  0  0  0  0  0  0  0  0  0
    3.7483    1.3382    0.8936 H   0  0  0  0  0  0  0  0  0  0  0  0
   -2.7905   -0.4511   -0.5284 H   0  0  0  0  0  0  0  0  0  0  0  0
   -1.8631    0.5721   -1.6600 H   0  0  0  0  0  0  0  0  0  0  0  0
   -2.1300    1.0779    0.0592 H   0  0  0  0  0  0  0  0  0  0  0  0
  1  2  3  0
  2  3  1  0
  3  4  2  0
  3  5  1  0
  5  6  1  0
  5  7  2  0
  1  8  1  0
  6  9  1  0
  6 10  1  0
  6 11  1  0
M  END
