
     RDKit          3D

 21 21  0  0  0  0  0  0  0  0999 V2000
    0.8710    2.7793    0.7557 C   0  0  0  0  0  0  0  0  0  0  0  0
    0.6399    1.7887    0.0986 C   0  0  0  0  0  0  0  0  0  0  0  0
    0.3546    0.6098   -0.6892 C   0  0  0  0  0  0  0  0  0  0  0  0
   -1.1216    0.5430   -1.0234 C   0  0  0  0  0  0  0  0  0  0  0  0
   -1.3134   -0.9413   -1.2411 C   0  0  0  0  0  0  0  0  0  0  0  0
   -0.5662   -1.4970   -0.0236 C   0  0  0  0  0  0  0  0  0  0  0  0
    0.6986   -0.6735   -0.0065 C   0  0  0  0  0  0  0  0  0  0  0  0
    1.2535   -0.4768    1.3748 C   0  0  0  0  0  0  0  0  0  0  0  0
    0.3444    0.1720    2.1764 O   0  0  0  0  0  0  0  0  0  0  0  0
    1.0680    3.6601    1.3198 H   0  0  0  0  0  0  0  0  0  0  0  0
    0.8905    0.6284   -1.6743 H   0  0  0  0  0  0  0  0  0  0  0  0
   -1.7835    0.8389   -0.1963 H   0  0  0  0  0  0  0  0  0  0  0  0
   -1.3515    1.1245   -1.9478 H   0  0  0  0  0  0  0  0  0  0  0  0
   -2.3555   -1.2552   -1.2675 H   0  0  0  0  0  0  0  0  0  0  0  0
   -0.7462   -1.1887   -2.1807 H   0  0  0  0  0  0  0  0  0  0  0  0
   -1.1742   -1.2701    0.8470 H   0  0  0  0  0  0  0  0  0  0  0  0
   -0.3507   -2.5775   -0.1539 H   0  0  0  0  0  0  0  0  0  0  0  0
    1.4302   -1.2802   -0.6229 H   0  0  0  0  0  0  0  0  0  0  0  0
    2.1706    0.1528    1.3506 H   0  0  0  0  0  0  0  0  0  0  0  0
    1.5068   -1.4941    1.8024 H   0  0  0  0  0  0  0  0  0  0  0  0
   -0.4654    0.3569    1.6993 H   0  0  0  0  0  0  0  0  0  0  0  0
  1  2  3  0
  2  3  1  0
  3  4  1  0
  4  5  1  0
  5  6  1  0
  6  7  1  0
  7  8  1  0
  8  9  1  0
  7  3  1  0
  1 10  1  0
  3 11  1  0
  4 12  1  0
  4 13  1  0
  5 14  1  0
  5 15  1  0
  6 16  1  0
  6 17  1  0
  7 18  1  0
  8 19  1  0
  8 20  1  0
  9 21  1  0
M  END
