
     RDKit          3D

 19 18  0  0  0  0  0  0  0  0999 V2000
    2.3118   -2.4237   -0.0249 C   0  0  0  0  0  0  0  0  0  0  0  0
    1.9081   -1.2934    0.1167 C   0  0  0  0  0  0  0  0  0  0  0  0
    1.4176    0.0736    0.2899 C   0  0  0  0  0  0  0  0  0  0  0  0
    2.3202    0.9766   -0.3996 C   0  0  0  0  0  0  0  0  0  0  0  0
    3.0836    1.7272   -0.9632 C   0  0  0  0  0  0  0  0  0  0  0  0
   -0.0110    0.1822   -0.2412 C   0  0  0  0  0  0  0  0  0  0  0  0
   -0.7676   -0.7216    0.5082 O   0  0  0  0  0  0  0  0  0  0  0  0
   -2.0858   -0.6579    0.0573 C   0  0  0  0  0  0  0  0  0  0  0  0
   -2.6058    0.7379    0.2443 C   0  0  0  0  0  0  0  0  0  0  0  0
    2.6529   -3.4199   -0.1616 H   0  0  0  0  0  0  0  0  0  0  0  0
    1.3658    0.3321    1.3572 H   0  0  0  0  0  0  0  0  0  0  0  0
    3.7634    2.3705   -1.4607 H   0  0  0  0  0  0  0  0  0  0  0  0
   -0.0039   -0.1034   -1.3291 H   0  0  0  0  0  0  0  0  0  0  0  0
   -0.3656    1.2108   -0.1728 H   0  0  0  0  0  0  0  0  0  0  0  0
   -2.7077   -1.3628    0.6360 H   0  0  0  0  0  0  0  0  0  0  0  0
   -2.0518   -0.9431   -1.0282 H   0  0  0  0  0  0  0  0  0  0  0  0
   -3.6570    0.7024    0.6254 H   0  0  0  0  0  0  0  0  0  0  0  0
   -2.5296    1.2987   -0.7082 H   0  0  0  0  0  0  0  0  0  0  0  0
   -2.0375    1.3138    1.0081 H   0  0  0  0  0  0  0  0  0  0  0  0
  1  2  3  0
  2  3  1  0
  3  4  1  0
  4  5  3  0
  3  6  1  0
  6  7  1  0
  7  8  1  0
  8  9  1  0
  1 10  1  0
  3 11  1  0
  5 12  1  0
  6 13  1  0
  6 14  1  0
  8 15  1  0
  8 16  1  0
  9 17  1  0
  9 18  1  0
  9 19  1  0
M  END
