
     RDKit          3D

 16 16  0  0  0  0  0  0  0  0999 V2000
    2.8910    1.1347    0.3616 C   0  0  0  0  0  0  0  0  0  0  0  0
    1.8723    0.5783    0.0138 C   0  0  0  0  0  0  0  0  0  0  0  0
    0.6497   -0.1009   -0.4169 C   0  0  0  0  0  0  0  0  0  0  0  0
    0.8861   -1.5753   -0.2227 C   0  0  0  0  0  0  0  0  0  0  0  0
    0.7241   -2.3847   -1.1153 O   0  0  0  0  0  0  0  0  0  0  0  0
   -0.5302    0.2788    0.4457 C   0  0  0  0  0  0  0  0  0  0  0  0
   -1.8199   -0.4158    0.0184 C   0  0  0  0  0  0  0  0  0  0  0  0
   -1.6484    1.0762   -0.0562 C   0  0  0  0  0  0  0  0  0  0  0  0
    3.7947    1.6132    0.6815 H   0  0  0  0  0  0  0  0  0  0  0  0
    0.4417    0.0378   -1.4985 H   0  0  0  0  0  0  0  0  0  0  0  0
    1.2079   -1.9355    0.7286 H   0  0  0  0  0  0  0  0  0  0  0  0
   -0.2855    0.2894    1.5327 H   0  0  0  0  0  0  0  0  0  0  0  0
   -1.8549   -0.9119   -0.9666 H   0  0  0  0  0  0  0  0  0  0  0  0
   -2.4124   -0.8827    0.8047 H   0  0  0  0  0  0  0  0  0  0  0  0
   -2.2490    1.6211    0.7187 H   0  0  0  0  0  0  0  0  0  0  0  0
   -1.6673    1.5772   -1.0296 H   0  0  0  0  0  0  0  0  0  0  0  0
  1  2  3  0
  2  3  1  0
  3  4  1  0
  4  5  2  0
  3  6  1  0
  6  7  1  0
  7  8  1  0
  8  6  1  0
  1  9  1  0
  3 10  1  0
  4 11  1  0
  6 12  1  0
  7 13  1  0
  7 14  1  0
  8 15  1  0
  8 16  1  0
M  END
