
     RDKit          3D

 19 20  0  0  0  0  0  0  0  0999 V2000
   -1.6216   -2.2125   -0.3283 C   0  0  0  0  0  0  0  0  0  0  0  0
   -1.0916   -1.1283   -0.3318 C   0  0  0  0  0  0  0  0  0  0  0  0
   -0.4450    0.1766   -0.3207 C   0  0  0  0  0  0  0  0  0  0  0  0
    1.0514    0.2742   -0.3412 C   0  0  0  0  0  0  0  0  0  0  0  0
    1.8037   -0.9801   -0.6323 C   0  0  0  0  0  0  0  0  0  0  0  0
    1.0001    0.6998    1.1094 C   0  0  0  0  0  0  0  0  0  0  0  0
   -0.4708    0.9069    1.0605 C   0  0  0  0  0  0  0  0  0  0  0  0
   -1.1967    1.4158   -0.0991 C   0  0  0  0  0  0  0  0  0  0  0  0
   -2.5682    1.3835   -0.0736 O   0  0  0  0  0  0  0  0  0  0  0  0
   -2.1019   -3.1695   -0.3396 H   0  0  0  0  0  0  0  0  0  0  0  0
    1.3972    1.1009   -1.0178 H   0  0  0  0  0  0  0  0  0  0  0  0
    1.3046   -1.8946   -0.2819 H   0  0  0  0  0  0  0  0  0  0  0  0
    2.7915   -0.9409   -0.1083 H   0  0  0  0  0  0  0  0  0  0  0  0
    2.0405   -1.0048   -1.7131 H   0  0  0  0  0  0  0  0  0  0  0  0
    1.6116    1.5639    1.3811 H   0  0  0  0  0  0  0  0  0  0  0  0
    1.2592   -0.1942    1.7484 H   0  0  0  0  0  0  0  0  0  0  0  0
   -1.0824    0.3948    1.8511 H   0  0  0  0  0  0  0  0  0  0  0  0
   -0.7839    2.3536   -0.5653 H   0  0  0  0  0  0  0  0  0  0  0  0
   -2.8979    1.2550   -0.9975 H   0  0  0  0  0  0  0  0  0  0  0  0
  1  2  3  0
  2  3  1  0
  3  4  1  0
  4  5  1  0
  4  6  1  0
  6  7  1  0
  7  8  1  0
  8  9  1  0
  7  3  1  0
  8  3  1  0
  1 10  1  0
  4 11  1  0
  5 12  1  0
  5 13  1  0
  5 14  1  0
  6 15  1  0
  6 16  1  0
  7 17  1  0
  8 18  1  0
  9 19  1  0
M  END
