
     RDKit          3D

 19 20  0  0  0  0  0  0  0  0999 V2000
    3.0915    0.7132   -0.1059 C   0  0  0  0  0  0  0  0  0  0  0  0
    2.1781   -0.0377    0.1415 C   0  0  0  0  0  0  0  0  0  0  0  0
    1.0527   -0.9422    0.4230 C   0  0  0  0  0  0  0  0  0  0  0  0
    0.1110   -0.3389    1.4061 C   0  0  0  0  0  0  0  0  0  0  0  0
   -1.2748   -0.1322    0.9279 C   0  0  0  0  0  0  0  0  0  0  0  0
   -1.5676    1.1894    0.2110 C   0  0  0  0  0  0  0  0  0  0  0  0
   -1.4982   -0.1214   -0.5127 C   0  0  0  0  0  0  0  0  0  0  0  0
   -0.3022   -0.4080   -1.3729 C   0  0  0  0  0  0  0  0  0  0  0  0
    0.4522   -1.3857   -0.7433 O   0  0  0  0  0  0  0  0  0  0  0  0
    3.9014    1.3895   -0.3169 H   0  0  0  0  0  0  0  0  0  0  0  0
    1.5127   -1.8513    0.8895 H   0  0  0  0  0  0  0  0  0  0  0  0
    0.0770   -0.9338    2.3658 H   0  0  0  0  0  0  0  0  0  0  0  0
    0.5185    0.6577    1.7234 H   0  0  0  0  0  0  0  0  0  0  0  0
   -2.1190   -0.5307    1.5564 H   0  0  0  0  0  0  0  0  0  0  0  0
   -2.5572    1.6533    0.4203 H   0  0  0  0  0  0  0  0  0  0  0  0
   -0.7165    1.8983    0.1594 H   0  0  0  0  0  0  0  0  0  0  0  0
   -2.4988   -0.4664   -0.9001 H   0  0  0  0  0  0  0  0  0  0  0  0
   -0.6381   -0.8454   -2.3434 H   0  0  0  0  0  0  0  0  0  0  0  0
    0.2774    0.4922   -1.6276 H   0  0  0  0  0  0  0  0  0  0  0  0
  1  2  3  0
  2  3  1  0
  3  4  1  0
  4  5  1  0
  5  6  1  0
  6  7  1  0
  7  8  1  0
  8  9  1  0
  9  3  1  0
  7  5  1  0
  1 10  1  0
  3 11  1  0
  4 12  1  0
  4 13  1  0
  5 14  1  0
  6 15  1  0
  6 16  1  0
  7 17  1  0
  8 18  1  0
  8 19  1  0
M  END
