
     RDKit          3D

 15 16  0  0  0  0  0  0  0  0999 V2000
    2.9828    0.9967    0.7467 C   0  0  0  0  0  0  0  0  0  0  0  0
    1.5082    0.4440   -0.5367 C   0  0  0  0  0  0  0  0  0  0  0  0
    0.9254    0.2213   -1.0280 C   0  0  0  0  0  0  0  0  0  0  0  0
    0.9063   -1.2761   -0.0011 O   0  0  0  0  0  0  0  0  0  0  0  0
   -0.1434   -0.7408    0.4164 C   0  0  0  0  0  0  0  0  0  0  0  0
   -1.5238   -0.7920   -0.2436 C   0  0  0  0  0  0  0  0  0  0  0  0
   -2.4269   -0.1495    0.7528 O   0  0  0  0  0  0  0  0  0  0  0  0
   -0.4695   -0.0173   -0.9757 C   0  0  0  0  0  0  0  0  0  0  0  0
   -1.0192    1.4875   -0.5712 O   0  0  0  0  0  0  0  0  0  0  0  0
    3.8529    1.3244    1.5317 H   0  0  0  0  0  0  0  0  0  0  0  0
    1.6154   -0.7252   -1.7800 H   0  0  0  0  0  0  0  0  0  0  0  0
   -0.1441    0.2825    1.1284 H   0  0  0  0  0  0  0  0  0  0  0  0
   -1.9486   -1.6434   -0.8841 H   0  0  0  0  0  0  0  0  0  0  0  0
   -2.2307   -0.6366    1.6769 H   0  0  0  0  0  0  0  0  0  0  0  0
   -1.8849    1.2245   -0.2325 H   0  0  0  0  0  0  0  0  0  0  0  0
  1  2  3  0
  2  3  1  0
  3  4  1  0
  4  5  1  0
  5  6  1  0
  6  7  1  0
  6  8  1  0
  8  9  1  0
  8  3  1  0
  8  5  1  0
  1 10  1  0
  3 11  1  0
  5 12  1  0
  6 13  1  0
  7 14  1  0
  9 15  1  0
M  END
