
     RDKit          3D

 22 21  0  0  0  0  0  0  0  0999 V2000
    1.6072    2.2693   -2.4140 C   0  0  0  0  0  0  0  0  0  0  0  0
    1.2829    1.5720   -1.4871 C   0  0  0  0  0  0  0  0  0  0  0  0
    0.8783    0.6866   -0.3534 C   0  0  0  0  0  0  0  0  0  0  0  0
    0.5456    1.6464    0.7738 C   0  0  0  0  0  0  0  0  0  0  0  0
   -0.2667   -0.1123   -0.8508 C   0  0  0  0  0  0  0  0  0  0  0  0
   -0.8832   -1.1019    0.0543 C   0  0  0  0  0  0  0  0  0  0  0  0
   -1.4661   -0.5845    1.3177 C   0  0  0  0  0  0  0  0  0  0  0  0
    0.0327   -2.2740    0.3541 C   0  0  0  0  0  0  0  0  0  0  0  0
    1.8791    2.8965   -3.2401 H   0  0  0  0  0  0  0  0  0  0  0  0
    1.7290    0.0319   -0.0974 H   0  0  0  0  0  0  0  0  0  0  0  0
    1.3939    2.3828    0.8692 H   0  0  0  0  0  0  0  0  0  0  0  0
   -0.3471    2.2403    0.5360 H   0  0  0  0  0  0  0  0  0  0  0  0
    0.5157    1.1281    1.7278 H   0  0  0  0  0  0  0  0  0  0  0  0
   -1.0553    0.5638   -1.2610 H   0  0  0  0  0  0  0  0  0  0  0  0
    0.1147   -0.6806   -1.7528 H   0  0  0  0  0  0  0  0  0  0  0  0
   -1.7354   -1.5712   -0.5291 H   0  0  0  0  0  0  0  0  0  0  0  0
   -1.7441    0.4860    1.2952 H   0  0  0  0  0  0  0  0  0  0  0  0
   -0.7673   -0.8194    2.1521 H   0  0  0  0  0  0  0  0  0  0  0  0
   -2.4427   -1.1125    1.5435 H   0  0  0  0  0  0  0  0  0  0  0  0
   -0.6070   -3.1370    0.6269 H   0  0  0  0  0  0  0  0  0  0  0  0
    0.6758   -2.4464   -0.5112 H   0  0  0  0  0  0  0  0  0  0  0  0
    0.6599   -2.0638    1.2467 H   0  0  0  0  0  0  0  0  0  0  0  0
  1  2  3  0
  2  3  1  0
  3  4  1  0
  3  5  1  0
  5  6  1  0
  6  7  1  0
  6  8  1  0
  1  9  1  0
  3 10  1  0
  4 11  1  0
  4 12  1  0
  4 13  1  0
  5 14  1  0
  5 15  1  0
  6 16  1  0
  7 17  1  0
  7 18  1  0
  7 19  1  0
  8 20  1  0
  8 21  1  0
  8 22  1  0
M  END
