
     RDKit          3D

 17 17  0  0  0  0  0  0  0  0999 V2000
   -2.3420    2.0069    1.5569 C   0  0  0  0  0  0  0  0  0  0  0  0
   -1.2492    1.4504    1.7788 C   0  0  0  0  0  0  0  0  0  0  0  0
    0.0106    0.8110    2.0106 C   0  0  0  0  0  0  0  0  0  0  0  0
    0.5965    0.4636    0.8261 O   0  0  0  0  0  0  0  0  0  0  0  0
   -0.3078   -0.0657   -0.0826 C   0  0  0  0  0  0  0  0  0  0  0  0
    0.0782    0.1990   -1.5178 C   0  0  0  0  0  0  0  0  0  0  0  0
    0.1096   -1.2093   -0.9390 C   0  0  0  0  0  0  0  0  0  0  0  0
    1.3924   -1.8425   -0.6198 C   0  0  0  0  0  0  0  0  0  0  0  0
    2.4593   -2.3727   -0.3749 C   0  0  0  0  0  0  0  0  0  0  0  0
   -3.3277    2.5223    1.3418 H   0  0  0  0  0  0  0  0  0  0  0  0
   -0.0454    0.0359    2.7920 H   0  0  0  0  0  0  0  0  0  0  0  0
    0.7398    1.6288    2.4404 H   0  0  0  0  0  0  0  0  0  0  0  0
   -1.3555   -0.0290    0.1986 H   0  0  0  0  0  0  0  0  0  0  0  0
    1.1198    0.6120   -1.6860 H   0  0  0  0  0  0  0  0  0  0  0  0
   -0.6418    0.5689   -2.2105 H   0  0  0  0  0  0  0  0  0  0  0  0
   -0.6874   -1.9342   -1.1660 H   0  0  0  0  0  0  0  0  0  0  0  0
    3.4506   -2.8453   -0.1566 H   0  0  0  0  0  0  0  0  0  0  0  0
  1  2  3  0
  2  3  1  0
  3  4  1  0
  4  5  1  0
  5  6  1  0
  6  7  1  0
  7  8  1  0
  8  9  3  0
  7  5  1  0
  1 10  1  0
  3 11  1  0
  3 12  1  0
  5 13  1  0
  6 14  1  0
  6 15  1  0
  7 16  1  0
  9 17  1  0
M  END
