
     RDKit          3D

 18 18  0  0  0  0  0  0  0  0999 V2000
    3.6072    0.6934    0.7311 C   0  0  0  0  0  0  0  0  0  0  0  0
    2.4729    0.6028    0.2824 C   0  0  0  0  0  0  0  0  0  0  0  0
    1.1076    0.4877   -0.2312 C   0  0  0  0  0  0  0  0  0  0  0  0
    0.2289   -0.2940    0.7125 C   0  0  0  0  0  0  0  0  0  0  0  0
   -1.1671   -0.4493    0.2526 C   0  0  0  0  0  0  0  0  0  0  0  0
   -1.4064   -1.1443   -1.0429 C   0  0  0  0  0  0  0  0  0  0  0  0
   -2.3336   -0.1783   -1.4087 O   0  0  0  0  0  0  0  0  0  0  0  0
   -1.8412    0.6849   -0.4142 C   0  0  0  0  0  0  0  0  0  0  0  0
    4.5879    0.7788    1.1161 H   0  0  0  0  0  0  0  0  0  0  0  0
    1.1724   -0.0225   -1.2287 H   0  0  0  0  0  0  0  0  0  0  0  0
    0.7499    1.5019   -0.4159 H   0  0  0  0  0  0  0  0  0  0  0  0
    0.2140    0.2802    1.6739 H   0  0  0  0  0  0  0  0  0  0  0  0
    0.6883   -1.2668    0.9531 H   0  0  0  0  0  0  0  0  0  0  0  0
   -1.7780   -0.9351    1.0642 H   0  0  0  0  0  0  0  0  0  0  0  0
   -0.4919   -1.1892   -1.6600 H   0  0  0  0  0  0  0  0  0  0  0  0
   -1.9103   -2.1319   -0.9506 H   0  0  0  0  0  0  0  0  0  0  0  0
   -1.2419    1.4886   -0.8386 H   0  0  0  0  0  0  0  0  0  0  0  0
   -2.6588    1.0930    0.2442 H   0  0  0  0  0  0  0  0  0  0  0  0
  1  2  3  0
  2  3  1  0
  3  4  1  0
  4  5  1  0
  5  6  1  0
  6  7  1  0
  7  8  1  0
  8  5  1  0
  1  9  1  0
  3 10  1  0
  3 11  1  0
  4 12  1  0
  4 13  1  0
  5 14  1  0
  6 15  1  0
  6 16  1  0
  8 17  1  0
  8 18  1  0
M  END
