
     RDKit          3D

 17 18  0  0  0  0  0  0  0  0999 V2000
    3.9046   -0.9179   -0.0263 C   0  0  0  0  0  0  0  0  0  0  0  0
    2.7582   -0.5558   -0.2067 C   0  0  0  0  0  0  0  0  0  0  0  0
    1.4058   -0.1077   -0.4092 C   0  0  0  0  0  0  0  0  0  0  0  0
    1.2083    0.5723   -1.4548 O   0  0  0  0  0  0  0  0  0  0  0  0
    0.3031   -0.4160    0.5395 C   0  0  0  0  0  0  0  0  0  0  0  0
   -1.0335   -0.8065    0.0508 C   0  0  0  0  0  0  0  0  0  0  0  0
   -1.7785   -0.0051   -0.9726 C   0  0  0  0  0  0  0  0  0  0  0  0
   -1.3977    1.3066   -0.3221 C   0  0  0  0  0  0  0  0  0  0  0  0
   -0.7842    0.5361    0.7940 C   0  0  0  0  0  0  0  0  0  0  0  0
    4.9012   -1.2400    0.1139 H   0  0  0  0  0  0  0  0  0  0  0  0
    0.6500   -1.0286    1.4136 H   0  0  0  0  0  0  0  0  0  0  0  0
   -1.6556   -1.5438    0.5975 H   0  0  0  0  0  0  0  0  0  0  0  0
   -2.8851   -0.1262   -0.9377 H   0  0  0  0  0  0  0  0  0  0  0  0
   -1.4329   -0.1235   -2.0206 H   0  0  0  0  0  0  0  0  0  0  0  0
   -2.2578    1.9265    0.0076 H   0  0  0  0  0  0  0  0  0  0  0  0
   -0.7125    1.9396   -0.9315 H   0  0  0  0  0  0  0  0  0  0  0  0
   -1.1933    0.5901    1.8162 H   0  0  0  0  0  0  0  0  0  0  0  0
  1  2  3  0
  2  3  1  0
  3  4  2  0
  3  5  1  0
  5  6  1  0
  6  7  1  0
  7  8  1  0
  8  9  1  0
  9  5  1  0
  9  6  1  0
  1 10  1  0
  5 11  1  0
  6 12  1  0
  7 13  1  0
  7 14  1  0
  8 15  1  0
  8 16  1  0
  9 17  1  0
M  END
