
     RDKit          3D

 19 21  0  0  0  0  0  0  0  0999 V2000
    3.3246    0.9342    0.5057 C   0  0  0  0  0  0  0  0  0  0  0  0
    2.1710    0.6412    0.6185 C   0  0  0  0  0  0  0  0  0  0  0  0
    0.7787    0.3036    0.7699 C   0  0  0  0  0  0  0  0  0  0  0  0
    0.3237   -0.7437    1.7356 C   0  0  0  0  0  0  0  0  0  0  0  0
    0.2824   -1.0053    0.2815 C   0  0  0  0  0  0  0  0  0  0  0  0
   -0.7426   -0.3099   -0.5428 C   0  0  0  0  0  0  0  0  0  0  0  0
   -2.1712   -0.6743   -0.2827 C   0  0  0  0  0  0  0  0  0  0  0  0
   -0.3951    0.7556   -1.5067 C   0  0  0  0  0  0  0  0  0  0  0  0
   -0.2212    1.0447   -0.0714 C   0  0  0  0  0  0  0  0  0  0  0  0
    4.3506    1.2114    0.3956 H   0  0  0  0  0  0  0  0  0  0  0  0
   -0.6496   -0.5041    2.2444 H   0  0  0  0  0  0  0  0  0  0  0  0
    1.1370   -1.1797    2.3487 H   0  0  0  0  0  0  0  0  0  0  0  0
    0.9775   -1.7491   -0.1666 H   0  0  0  0  0  0  0  0  0  0  0  0
   -2.7432    0.2027    0.0397 H   0  0  0  0  0  0  0  0  0  0  0  0
   -2.2337   -1.4774    0.4716 H   0  0  0  0  0  0  0  0  0  0  0  0
   -2.5758   -1.1005   -1.2424 H   0  0  0  0  0  0  0  0  0  0  0  0
   -1.2287    1.2534   -2.0102 H   0  0  0  0  0  0  0  0  0  0  0  0
    0.5313    0.6631   -2.1020 H   0  0  0  0  0  0  0  0  0  0  0  0
   -0.9158    1.7340    0.4373 H   0  0  0  0  0  0  0  0  0  0  0  0
  1  2  3  0
  2  3  1  0
  3  4  1  0
  4  5  1  0
  5  6  1  0
  6  7  1  0
  6  8  1  0
  8  9  1  0
  5  3  1  0
  9  6  1  0
  9  3  1  0
  1 10  1  0
  4 11  1  0
  4 12  1  0
  5 13  1  0
  7 14  1  0
  7 15  1  0
  7 16  1  0
  8 17  1  0
  8 18  1  0
  9 19  1  0
M  END
