
     RDKit          3D

 15 16  0  0  0  0  0  0  0  0999 V2000
    2.7506   -0.6635   -0.0070 C   0  0  0  0  0  0  0  0  0  0  0  0
    1.5762   -0.7166    0.1612 C   0  0  0  0  0  0  0  0  0  0  0  0
    0.1418   -0.7947    0.3449 C   0  0  0  0  0  0  0  0  0  0  0  0
   -0.5199   -2.0406    0.2789 O   0  0  0  0  0  0  0  0  0  0  0  0
   -1.4011   -1.6433   -0.7121 C   0  0  0  0  0  0  0  0  0  0  0  0
   -2.3348   -2.2297   -1.2929 O   0  0  0  0  0  0  0  0  0  0  0  0
   -0.7526   -0.3371   -0.7273 C   0  0  0  0  0  0  0  0  0  0  0  0
   -0.7071    0.3777    0.5756 C   0  0  0  0  0  0  0  0  0  0  0  0
   -0.2034    1.7835    0.4952 C   0  0  0  0  0  0  0  0  0  0  0  0
    3.8059   -0.6235   -0.1536 H   0  0  0  0  0  0  0  0  0  0  0  0
   -0.4039    0.1349   -1.6584 H   0  0  0  0  0  0  0  0  0  0  0  0
   -1.5395    0.2265    1.3187 H   0  0  0  0  0  0  0  0  0  0  0  0
   -0.9257    2.3518   -0.1608 H   0  0  0  0  0  0  0  0  0  0  0  0
   -0.2785    2.3086    1.4897 H   0  0  0  0  0  0  0  0  0  0  0  0
    0.7920    1.8659    0.0480 H   0  0  0  0  0  0  0  0  0  0  0  0
  1  2  3  0
  2  3  1  0
  3  4  1  0
  4  5  1  0
  5  6  2  0
  5  7  1  0
  7  8  1  0
  8  9  1  0
  7  3  1  0
  8  3  1  0
  1 10  1  0
  7 11  1  0
  8 12  1  0
  9 13  1  0
  9 14  1  0
  9 15  1  0
M  END
