
     RDKit          3D

 19 20  0  0  0  0  0  0  0  0999 V2000
    3.4777    1.4647   -0.0835 C   0  0  0  0  0  0  0  0  0  0  0  0
    2.4681    0.8109    0.0667 C   0  0  0  0  0  0  0  0  0  0  0  0
    1.2482    0.0498    0.2449 C   0  0  0  0  0  0  0  0  0  0  0  0
    0.7234   -0.4780   -1.0731 C   0  0  0  0  0  0  0  0  0  0  0  0
   -0.7083   -0.7940   -0.6920 C   0  0  0  0  0  0  0  0  0  0  0  0
   -1.7131    0.3064   -0.7685 C   0  0  0  0  0  0  0  0  0  0  0  0
   -0.9378    0.1444    0.4614 C   0  0  0  0  0  0  0  0  0  0  0  0
   -1.6705   -0.3920    1.6792 C   0  0  0  0  0  0  0  0  0  0  0  0
    0.2104    0.8791    0.6462 O   0  0  0  0  0  0  0  0  0  0  0  0
    4.3608    2.0587   -0.2156 H   0  0  0  0  0  0  0  0  0  0  0  0
    1.3249   -0.7749    0.9452 H   0  0  0  0  0  0  0  0  0  0  0  0
    0.6730    0.3578   -1.8147 H   0  0  0  0  0  0  0  0  0  0  0  0
    1.2712   -1.3395   -1.4537 H   0  0  0  0  0  0  0  0  0  0  0  0
   -1.0145   -1.8473   -0.5662 H   0  0  0  0  0  0  0  0  0  0  0  0
   -1.4399    1.1364   -1.4801 H   0  0  0  0  0  0  0  0  0  0  0  0
   -2.7808    0.0592   -0.8212 H   0  0  0  0  0  0  0  0  0  0  0  0
   -2.7399   -0.5347    1.4294 H   0  0  0  0  0  0  0  0  0  0  0  0
   -1.5288    0.2808    2.5473 H   0  0  0  0  0  0  0  0  0  0  0  0
   -1.2240   -1.3878    1.9601 H   0  0  0  0  0  0  0  0  0  0  0  0
  1  2  3  0
  2  3  1  0
  3  4  1  0
  4  5  1  0
  5  6  1  0
  6  7  1  0
  7  8  1  0
  7  9  1  0
  9  3  1  0
  7  5  1  0
  1 10  1  0
  3 11  1  0
  4 12  1  0
  4 13  1  0
  5 14  1  0
  6 15  1  0
  6 16  1  0
  8 17  1  0
  8 18  1  0
  8 19  1  0
M  END
