
     RDKit          3D

 21 20  0  0  0  0  0  0  0  0999 V2000
    2.2386    0.4523   -1.9233 C   0  0  0  0  0  0  0  0  0  0  0  0
    1.4803    0.1856   -1.0236 C   0  0  0  0  0  0  0  0  0  0  0  0
    0.5478   -0.1165    0.0643 C   0  0  0  0  0  0  0  0  0  0  0  0
    0.3182   -1.6050    0.1188 C   0  0  0  0  0  0  0  0  0  0  0  0
    1.1707    0.3576    1.3599 C   0  0  0  0  0  0  0  0  0  0  0  0
   -0.7428    0.6463   -0.1732 C   0  0  0  0  0  0  0  0  0  0  0  0
   -1.7533    0.3968    0.8907 C   0  0  0  0  0  0  0  0  0  0  0  0
   -1.3321    0.2854   -1.4882 C   0  0  0  0  0  0  0  0  0  0  0  0
   -2.1172    1.0563   -1.9982 O   0  0  0  0  0  0  0  0  0  0  0  0
    2.9173    0.6791   -2.7055 H   0  0  0  0  0  0  0  0  0  0  0  0
    0.1330   -1.9901   -0.8986 H   0  0  0  0  0  0  0  0  0  0  0  0
    1.2747   -2.0600    0.4818 H   0  0  0  0  0  0  0  0  0  0  0  0
   -0.5089   -1.8160    0.8296 H   0  0  0  0  0  0  0  0  0  0  0  0
    2.2245    0.0129    1.3683 H   0  0  0  0  0  0  0  0  0  0  0  0
    0.6408   -0.0593    2.2414 H   0  0  0  0  0  0  0  0  0  0  0  0
    1.1842    1.4755    1.3792 H   0  0  0  0  0  0  0  0  0  0  0  0
   -0.4608    1.7327   -0.1515 H   0  0  0  0  0  0  0  0  0  0  0  0
   -2.2508    1.3523    1.1745 H   0  0  0  0  0  0  0  0  0  0  0  0
   -1.3548   -0.0508    1.8165 H   0  0  0  0  0  0  0  0  0  0  0  0
   -2.5861   -0.2797    0.5570 H   0  0  0  0  0  0  0  0  0  0  0  0
   -1.0231   -0.6555   -1.9199 H   0  0  0  0  0  0  0  0  0  0  0  0
  1  2  3  0
  2  3  1  0
  3  4  1  0
  3  5  1  0
  3  6  1  0
  6  7  1  0
  6  8  1  0
  8  9  2  0
  1 10  1  0
  4 11  1  0
  4 12  1  0
  4 13  1  0
  5 14  1  0
  5 15  1  0
  5 16  1  0
  6 17  1  0
  7 18  1  0
  7 19  1  0
  7 20  1  0
  8 21  1  0
M  END
