
     RDKit          3D

 18 19  0  0  0  0  0  0  0  0999 V2000
    1.6412    1.0171    2.1906 C   0  0  0  0  0  0  0  0  0  0  0  0
    1.0766    0.4593    1.2379 C   0  0  0  0  0  0  0  0  0  0  0  0
    0.4147   -0.2069    0.1205 C   0  0  0  0  0  0  0  0  0  0  0  0
    1.1539   -1.3714   -0.4195 C   0  0  0  0  0  0  0  0  0  0  0  0
   -1.0542   -0.3719    0.3537 C   0  0  0  0  0  0  0  0  0  0  0  0
   -1.2026   -0.3032   -1.1411 C   0  0  0  0  0  0  0  0  0  0  0  0
   -0.1981    0.7718   -0.8225 C   0  0  0  0  0  0  0  0  0  0  0  0
   -1.1257    1.1329    0.3219 C   0  0  0  0  0  0  0  0  0  0  0  0
    2.1235    1.4876    2.9719 H   0  0  0  0  0  0  0  0  0  0  0  0
    0.5074   -2.2705   -0.5418 H   0  0  0  0  0  0  0  0  0  0  0  0
    1.9794   -1.6381    0.3047 H   0  0  0  0  0  0  0  0  0  0  0  0
    1.6347   -1.1820   -1.3914 H   0  0  0  0  0  0  0  0  0  0  0  0
   -1.5193   -0.9841    0.9883 H   0  0  0  0  0  0  0  0  0  0  0  0
   -0.7952   -1.1743   -1.6495 H   0  0  0  0  0  0  0  0  0  0  0  0
   -2.1702    0.0196   -1.5282 H   0  0  0  0  0  0  0  0  0  0  0  0
    0.2270    1.4035   -1.4659 H   0  0  0  0  0  0  0  0  0  0  0  0
   -0.6053    1.6460    1.1355 H   0  0  0  0  0  0  0  0  0  0  0  0
   -2.0877    1.5646    0.0160 H   0  0  0  0  0  0  0  0  0  0  0  0
  1  2  3  0
  2  3  1  0
  3  4  1  0
  3  5  1  0
  5  6  1  0
  6  7  1  0
  7  8  1  0
  7  3  1  0
  8  5  1  0
  1  9  1  0
  4 10  1  0
  4 11  1  0
  4 12  1  0
  5 13  1  0
  6 14  1  0
  6 15  1  0
  7 16  1  0
  8 17  1  0
  8 18  1  0
M  END
