
     RDKit          3D

 21 22  0  0  0  0  0  0  0  0999 V2000
    3.3399    0.8013    0.9989 C   0  0  0  0  0  0  0  0  0  0  0  0
    2.2355    0.3334    0.8045 C   0  0  0  0  0  0  0  0  0  0  0  0
    0.8913   -0.2279    0.5932 C   0  0  0  0  0  0  0  0  0  0  0  0
    0.7849   -0.6613   -0.8314 C   0  0  0  0  0  0  0  0  0  0  0  0
   -0.6487   -0.7079   -1.2980 C   0  0  0  0  0  0  0  0  0  0  0  0
   -1.5019   -1.0768   -0.0771 C   0  0  0  0  0  0  0  0  0  0  0  0
   -1.4592    0.3965    0.2768 C   0  0  0  0  0  0  0  0  0  0  0  0
   -0.1558    0.8046    0.9036 C   0  0  0  0  0  0  0  0  0  0  0  0
   -1.3064    0.6535   -1.2306 C   0  0  0  0  0  0  0  0  0  0  0  0
    4.2950    1.2107    1.1689 H   0  0  0  0  0  0  0  0  0  0  0  0
    0.7584   -1.0644    1.3137 H   0  0  0  0  0  0  0  0  0  0  0  0
    1.1671   -1.7110   -0.8862 H   0  0  0  0  0  0  0  0  0  0  0  0
    1.4349   -0.0780   -1.5197 H   0  0  0  0  0  0  0  0  0  0  0  0
   -0.8637   -1.2711   -2.1984 H   0  0  0  0  0  0  0  0  0  0  0  0
   -1.0300   -1.7612    0.6198 H   0  0  0  0  0  0  0  0  0  0  0  0
   -2.5089   -1.3404   -0.4265 H   0  0  0  0  0  0  0  0  0  0  0  0
   -2.3728    0.8101    0.7085 H   0  0  0  0  0  0  0  0  0  0  0  0
   -0.2382    1.0199    1.9881 H   0  0  0  0  0  0  0  0  0  0  0  0
    0.1657    1.7473    0.3704 H   0  0  0  0  0  0  0  0  0  0  0  0
   -0.6799    1.5112   -1.4594 H   0  0  0  0  0  0  0  0  0  0  0  0
   -2.3074    0.6114   -1.6967 H   0  0  0  0  0  0  0  0  0  0  0  0
  1  2  3  0
  2  3  1  0
  3  4  1  0
  4  5  1  0
  5  6  1  0
  6  7  1  0
  7  8  1  0
  7  9  1  0
  8  3  1  0
  9  5  1  0
  1 10  1  0
  3 11  1  0
  4 12  1  0
  4 13  1  0
  5 14  1  0
  6 15  1  0
  6 16  1  0
  7 17  1  0
  8 18  1  0
  8 19  1  0
  9 20  1  0
  9 21  1  0
M  END
