
     RDKit          3D

 19 20  0  0  0  0  0  0  0  0999 V2000
    2.5263    0.8391    1.4313 C   0  0  0  0  0  0  0  0  0  0  0  0
    1.5430    0.1858    1.2237 C   0  0  0  0  0  0  0  0  0  0  0  0
    0.3338   -0.6209    0.9857 C   0  0  0  0  0  0  0  0  0  0  0  0
    0.6503   -1.7962    0.0921 C   0  0  0  0  0  0  0  0  0  0  0  0
   -0.7993   -1.8654   -0.2103 C   0  0  0  0  0  0  0  0  0  0  0  0
   -0.3620   -0.4049   -0.2978 C   0  0  0  0  0  0  0  0  0  0  0  0
   -1.2059    0.6275   -0.6594 C   0  0  0  0  0  0  0  0  0  0  0  0
   -0.5509    1.9871   -0.5919 C   0  0  0  0  0  0  0  0  0  0  0  0
    0.7483   -0.8684   -0.9392 O   0  0  0  0  0  0  0  0  0  0  0  0
    3.4129    1.4076    1.6089 H   0  0  0  0  0  0  0  0  0  0  0  0
   -0.2796   -0.8256    1.8676 H   0  0  0  0  0  0  0  0  0  0  0  0
    1.2988   -2.5393    0.2984 H   0  0  0  0  0  0  0  0  0  0  0  0
   -1.0033   -2.3511   -1.1631 H   0  0  0  0  0  0  0  0  0  0  0  0
   -1.4901   -2.0392    0.6227 H   0  0  0  0  0  0  0  0  0  0  0  0
   -2.1246    0.6903   -0.0398 H   0  0  0  0  0  0  0  0  0  0  0  0
   -1.5929    0.5394   -1.7176 H   0  0  0  0  0  0  0  0  0  0  0  0
   -1.2921    2.8014   -0.4562 H   0  0  0  0  0  0  0  0  0  0  0  0
    0.1676    2.0114    0.2309 H   0  0  0  0  0  0  0  0  0  0  0  0
    0.0198    2.2215   -1.5330 H   0  0  0  0  0  0  0  0  0  0  0  0
  1  2  3  0
  2  3  1  0
  3  4  1  0
  4  5  1  0
  5  6  1  0
  6  7  1  0
  7  8  1  0
  6  9  1  0
  6  3  1  0
  9  4  1  0
  1 10  1  0
  3 11  1  0
  4 12  1  0
  5 13  1  0
  5 14  1  0
  7 15  1  0
  7 16  1  0
  8 17  1  0
  8 18  1  0
  8 19  1  0
M  END
