
     RDKit          3D

 19 20  0  0  0  0  0  0  0  0999 V2000
    3.0674   -1.7024    0.0394 C   0  0  0  0  0  0  0  0  0  0  0  0
    1.9467   -1.2873    0.2043 C   0  0  0  0  0  0  0  0  0  0  0  0
    0.5730   -0.7659    0.3840 C   0  0  0  0  0  0  0  0  0  0  0  0
   -0.0675   -1.4241    1.4264 O   0  0  0  0  0  0  0  0  0  0  0  0
   -0.1537   -0.8157   -0.9489 C   0  0  0  0  0  0  0  0  0  0  0  0
   -0.0044    0.6902   -1.0270 C   0  0  0  0  0  0  0  0  0  0  0  0
   -0.6601    1.4977    0.0112 C   0  0  0  0  0  0  0  0  0  0  0  0
   -2.0253    1.1655    0.5236 C   0  0  0  0  0  0  0  0  0  0  0  0
    0.5322    0.7215    0.4261 C   0  0  0  0  0  0  0  0  0  0  0  0
    4.0648   -2.0561   -0.0994 H   0  0  0  0  0  0  0  0  0  0  0  0
   -1.0270   -1.6067    1.2046 H   0  0  0  0  0  0  0  0  0  0  0  0
    0.3936   -1.3499   -1.7519 H   0  0  0  0  0  0  0  0  0  0  0  0
   -1.1895   -1.1732   -0.8929 H   0  0  0  0  0  0  0  0  0  0  0  0
    0.6402    1.1246   -1.8014 H   0  0  0  0  0  0  0  0  0  0  0  0
   -0.4658    2.6085   -0.0372 H   0  0  0  0  0  0  0  0  0  0  0  0
   -2.0329    0.8978    1.6041 H   0  0  0  0  0  0  0  0  0  0  0  0
   -2.3825    0.2564   -0.0461 H   0  0  0  0  0  0  0  0  0  0  0  0
   -2.7175    1.9955    0.2759 H   0  0  0  0  0  0  0  0  0  0  0  0
    1.5084    1.2236    0.5835 H   0  0  0  0  0  0  0  0  0  0  0  0
  1  2  3  0
  2  3  1  0
  3  4  1  0
  3  5  1  0
  5  6  1  0
  6  7  1  0
  7  8  1  0
  7  9  1  0
  9  3  1  0
  9  6  1  0
  1 10  1  0
  4 11  1  0
  5 12  1  0
  5 13  1  0
  6 14  1  0
  7 15  1  0
  8 16  1  0
  8 17  1  0
  8 18  1  0
  9 19  1  0
M  END
