
     RDKit          3D

 19 18  0  0  0  0  0  0  0  0999 V2000
    3.7665   -0.0940   -1.8542 C   0  0  0  0  0  0  0  0  0  0  0  0
    3.0201   -0.6540   -0.8493 C   0  0  0  0  0  0  0  0  0  0  0  0
    2.2423   -1.2095    0.1661 C   0  0  0  0  0  0  0  0  0  0  0  0
    2.4948   -0.5034    1.3748 O   0  0  0  0  0  0  0  0  0  0  0  0
    0.7235   -0.5532   -0.1194 C   0  0  0  0  0  0  0  0  0  0  0  0
   -0.0688   -0.2166   -0.2597 C   0  0  0  0  0  0  0  0  0  0  0  0
   -1.4695    0.3590   -0.5089 C   0  0  0  0  0  0  0  0  0  0  0  0
   -1.5731    1.6151    0.3203 C   0  0  0  0  0  0  0  0  0  0  0  0
   -2.4886   -0.6787   -0.0107 C   0  0  0  0  0  0  0  0  0  0  0  0
    4.2635    0.2779   -2.5138 H   0  0  0  0  0  0  0  0  0  0  0  0
    2.0970   -2.2307    0.2611 H   0  0  0  0  0  0  0  0  0  0  0  0
    1.7047    0.1374    1.5478 H   0  0  0  0  0  0  0  0  0  0  0  0
   -1.6492    0.5836   -1.5500 H   0  0  0  0  0  0  0  0  0  0  0  0
   -0.6030    2.1843    0.3055 H   0  0  0  0  0  0  0  0  0  0  0  0
   -2.3721    2.3040    0.0042 H   0  0  0  0  0  0  0  0  0  0  0  0
   -1.8404    1.3839    1.4030 H   0  0  0  0  0  0  0  0  0  0  0  0
   -3.4620   -0.1901    0.1795 H   0  0  0  0  0  0  0  0  0  0  0  0
   -2.6412   -1.3600   -0.8433 H   0  0  0  0  0  0  0  0  0  0  0  0
   -2.1445   -1.1550    0.9466 H   0  0  0  0  0  0  0  0  0  0  0  0
  1  2  3  0
  2  3  1  0
  3  4  1  0
  3  5  1  0
  5  6  3  0
  6  7  1  0
  7  8  1  0
  7  9  1  0
  1 10  1  0
  3 11  1  0
  4 12  1  0
  7 13  1  0
  8 14  1  0
  8 15  1  0
  8 16  1  0
  9 17  1  0
  9 18  1  0
  9 19  1  0
M  END
