
     RDKit          3D

 19 20  0  0  0  0  0  0  0  0999 V2000
    2.3453   -0.0867    1.5436 C   0  0  0  0  0  0  0  0  0  0  0  0
    1.1999   -0.1333    1.1716 C   0  0  0  0  0  0  0  0  0  0  0  0
   -0.2030   -0.1904    0.6887 C   0  0  0  0  0  0  0  0  0  0  0  0
   -1.1795   -0.4155    1.7821 C   0  0  0  0  0  0  0  0  0  0  0  0
   -0.2558   -1.1290   -0.4933 C   0  0  0  0  0  0  0  0  0  0  0  0
   -0.0596   -0.0096   -1.4547 C   0  0  0  0  0  0  0  0  0  0  0  0
   -0.8742   -0.0169   -2.5764 O   0  0  0  0  0  0  0  0  0  0  0  0
    0.6782    1.2303   -1.1628 C   0  0  0  0  0  0  0  0  0  0  0  0
   -0.4774    0.9379   -0.2807 C   0  0  0  0  0  0  0  0  0  0  0  0
    3.3769   -0.0412    1.8592 H   0  0  0  0  0  0  0  0  0  0  0  0
   -1.9281   -1.2023    1.5721 H   0  0  0  0  0  0  0  0  0  0  0  0
   -1.7005    0.5171    2.0593 H   0  0  0  0  0  0  0  0  0  0  0  0
   -0.6185   -0.7656    2.6789 H   0  0  0  0  0  0  0  0  0  0  0  0
   -1.2797   -1.5750   -0.5745 H   0  0  0  0  0  0  0  0  0  0  0  0
    0.4967   -1.9125   -0.4620 H   0  0  0  0  0  0  0  0  0  0  0  0
   -0.3382    0.2112   -3.3876 H   0  0  0  0  0  0  0  0  0  0  0  0
    1.6723    1.1943   -0.6505 H   0  0  0  0  0  0  0  0  0  0  0  0
    0.6141    2.0300   -1.8994 H   0  0  0  0  0  0  0  0  0  0  0  0
   -1.4688    1.3574   -0.4137 H   0  0  0  0  0  0  0  0  0  0  0  0
  1  2  3  0
  2  3  1  0
  3  4  1  0
  3  5  1  0
  5  6  1  0
  6  7  1  0
  6  8  1  0
  8  9  1  0
  9  3  1  0
  9  6  1  0
  1 10  1  0
  4 11  1  0
  4 12  1  0
  4 13  1  0
  5 14  1  0
  5 15  1  0
  7 16  1  0
  8 17  1  0
  8 18  1  0
  9 19  1  0
M  END
