
     RDKit          3D

 21 21  0  0  0  0  0  0  0  0999 V2000
    1.5690    2.4956    0.0909 C   0  0  0  0  0  0  0  0  0  0  0  0
    1.2028    1.4344   -0.1384 C   0  0  0  0  0  0  0  0  0  0  0  0
    0.7068    0.0756   -0.4364 C   0  0  0  0  0  0  0  0  0  0  0  0
    1.2231   -0.7766    0.5220 O   0  0  0  0  0  0  0  0  0  0  0  0
    2.0990   -1.7291    0.0769 C   0  0  0  0  0  0  0  0  0  0  0  0
   -0.7948    0.0642   -0.3383 C   0  0  0  0  0  0  0  0  0  0  0  0
   -1.4066   -1.3064   -0.6227 C   0  0  0  0  0  0  0  0  0  0  0  0
   -1.5331    1.2872   -0.7099 C   0  0  0  0  0  0  0  0  0  0  0  0
   -1.4771    0.8478    0.7200 C   0  0  0  0  0  0  0  0  0  0  0  0
    1.9491    3.5418    0.3266 H   0  0  0  0  0  0  0  0  0  0  0  0
    1.0903   -0.1940   -1.4391 H   0  0  0  0  0  0  0  0  0  0  0  0
    3.0124   -1.3545   -0.3943 H   0  0  0  0  0  0  0  0  0  0  0  0
    1.5517   -2.3691   -0.6831 H   0  0  0  0  0  0  0  0  0  0  0  0
    2.2901   -2.4351    0.9087 H   0  0  0  0  0  0  0  0  0  0  0  0
   -1.4438   -1.5021   -1.7195 H   0  0  0  0  0  0  0  0  0  0  0  0
   -0.7567   -2.0441   -0.1107 H   0  0  0  0  0  0  0  0  0  0  0  0
   -2.4219   -1.3541   -0.1730 H   0  0  0  0  0  0  0  0  0  0  0  0
   -2.5247    1.2234   -1.2463 H   0  0  0  0  0  0  0  0  0  0  0  0
   -0.9499    2.1677   -0.9792 H   0  0  0  0  0  0  0  0  0  0  0  0
   -0.9421    1.4763    1.4390 H   0  0  0  0  0  0  0  0  0  0  0  0
   -2.4436    0.4510    1.1214 H   0  0  0  0  0  0  0  0  0  0  0  0
  1  2  3  0
  2  3  1  0
  3  4  1  0
  4  5  1  0
  3  6  1  0
  6  7  1  0
  6  8  1  0
  8  9  1  0
  9  6  1  0
  1 10  1  0
  3 11  1  0
  5 12  1  0
  5 13  1  0
  5 14  1  0
  7 15  1  0
  7 16  1  0
  7 17  1  0
  8 18  1  0
  8 19  1  0
  9 20  1  0
  9 21  1  0
M  END
