
     RDKit          3D

 19 20  0  0  0  0  0  0  0  0999 V2000
    1.0340    3.9223   -0.1628 C   0  0  0  0  0  0  0  0  0  0  0  0
    1.0513    2.7886   -0.4592 C   0  0  0  0  0  0  0  0  0  0  0  0
    1.0937    1.4728   -0.7954 C   0  0  0  0  0  0  0  0  0  0  0  0
    1.2440    0.7430    0.6731 C   0  0  0  0  0  0  0  0  0  0  0  0
    0.2934    0.3374   -0.4184 C   0  0  0  0  0  0  0  0  0  0  0  0
   -0.9823    0.1132   -0.0516 O   0  0  0  0  0  0  0  0  0  0  0  0
   -1.2853   -1.2413   -0.5218 C   0  0  0  0  0  0  0  0  0  0  0  0
   -0.6992   -2.2022    0.5909 C   0  0  0  0  0  0  0  0  0  0  0  0
   -2.1170   -2.2020    0.0962 C   0  0  0  0  0  0  0  0  0  0  0  0
    0.9909    5.2838    0.2043 H   0  0  0  0  0  0  0  0  0  0  0  0
    2.1788    1.2955   -1.3124 H   0  0  0  0  0  0  0  0  0  0  0  0
    0.8846    1.4043    1.5211 H   0  0  0  0  0  0  0  0  0  0  0  0
    2.0402    0.1160    0.8811 H   0  0  0  0  0  0  0  0  0  0  0  0
    0.7248   -0.6080   -1.0774 H   0  0  0  0  0  0  0  0  0  0  0  0
   -0.5947   -1.3861   -1.4259 H   0  0  0  0  0  0  0  0  0  0  0  0
   -0.5286   -1.8335    1.5977 H   0  0  0  0  0  0  0  0  0  0  0  0
   -0.0101   -3.0139    0.2290 H   0  0  0  0  0  0  0  0  0  0  0  0
   -2.8828   -1.8865    0.8969 H   0  0  0  0  0  0  0  0  0  0  0  0
   -2.4354   -3.1035   -0.4655 H   0  0  0  0  0  0  0  0  0  0  0  0
  1  2  3  0
  2  3  1  0
  3  4  1  0
  4  5  1  0
  5  6  1  0
  6  7  1  0
  7  8  1  0
  8  9  1  0
  5  3  1  0
  9  7  1  0
  1 10  1  0
  3 11  1  0
  4 12  1  0
  4 13  1  0
  5 14  1  0
  7 15  1  0
  8 16  1  0
  8 17  1  0
  9 18  1  0
  9 19  1  0
M  END
