
     RDKit          3D

 23 22  0  0  0  0  0  0  0  0999 V2000
    2.1020    1.8253   -1.1148 C   0  0  0  0  0  0  0  0  0  0  0  0
    1.4914    1.0541   -0.4098 C   0  0  0  0  0  0  0  0  0  0  0  0
    0.7352    0.1012    0.4303 C   0  0  0  0  0  0  0  0  0  0  0  0
    1.5338   -1.1495    0.6179 C   0  0  0  0  0  0  0  0  0  0  0  0
    0.6182    0.7058    1.6866 O   0  0  0  0  0  0  0  0  0  0  0  0
   -0.6334   -0.0782   -0.0888 C   0  0  0  0  0  0  0  0  0  0  0  0
   -0.7489   -0.6043   -1.4802 C   0  0  0  0  0  0  0  0  0  0  0  0
   -1.3790    1.2403    0.0434 C   0  0  0  0  0  0  0  0  0  0  0  0
   -1.3539   -1.0783    0.8273 C   0  0  0  0  0  0  0  0  0  0  0  0
    2.6293    2.5147   -1.7226 H   0  0  0  0  0  0  0  0  0  0  0  0
    2.6181   -0.9430    0.6448 H   0  0  0  0  0  0  0  0  0  0  0  0
    1.3781   -1.7724   -0.3117 H   0  0  0  0  0  0  0  0  0  0  0  0
    1.2620   -1.7692    1.4571 H   0  0  0  0  0  0  0  0  0  0  0  0
    1.2879    1.4223    1.8094 H   0  0  0  0  0  0  0  0  0  0  0  0
   -1.0068    0.2323   -2.1747 H   0  0  0  0  0  0  0  0  0  0  0  0
   -1.5633   -1.3502   -1.5916 H   0  0  0  0  0  0  0  0  0  0  0  0
    0.1708   -1.0610   -1.8770 H   0  0  0  0  0  0  0  0  0  0  0  0
   -0.9485    1.8690    0.8509 H   0  0  0  0  0  0  0  0  0  0  0  0
   -2.4570    1.0685    0.2338 H   0  0  0  0  0  0  0  0  0  0  0  0
   -1.3123    1.8475   -0.8862 H   0  0  0  0  0  0  0  0  0  0  0  0
   -2.4389   -0.9788    0.7479 H   0  0  0  0  0  0  0  0  0  0  0  0
   -1.0256   -2.0903    0.4471 H   0  0  0  0  0  0  0  0  0  0  0  0
   -0.9592   -1.0057    1.8609 H   0  0  0  0  0  0  0  0  0  0  0  0
  1  2  3  0
  2  3  1  0
  3  4  1  0
  3  5  1  0
  3  6  1  0
  6  7  1  0
  6  8  1  0
  6  9  1  0
  1 10  1  0
  4 11  1  0
  4 12  1  0
  4 13  1  0
  5 14  1  0
  7 15  1  0
  7 16  1  0
  7 17  1  0
  8 18  1  0
  8 19  1  0
  8 20  1  0
  9 21  1  0
  9 22  1  0
  9 23  1  0
M  END
