
     RDKit          3D

 17 18  0  0  0  0  0  0  0  0999 V2000
    3.1286   -0.5088   -0.0274 C   0  0  0  0  0  0  0  0  0  0  0  0
    1.9192   -0.3577    0.0029 C   0  0  0  0  0  0  0  0  0  0  0  0
    0.4781   -0.1873    0.0317 C   0  0  0  0  0  0  0  0  0  0  0  0
   -0.3806   -1.1757    0.6761 C   0  0  0  0  0  0  0  0  0  0  0  0
   -1.5496   -1.2918    0.0556 C   0  0  0  0  0  0  0  0  0  0  0  0
   -1.6227   -0.3810   -1.1016 C   0  0  0  0  0  0  0  0  0  0  0  0
   -0.2533    0.2680   -1.1448 C   0  0  0  0  0  0  0  0  0  0  0  0
   -0.0356    1.2780   -0.0613 C   0  0  0  0  0  0  0  0  0  0  0  0
    0.9497    2.2294   -0.3222 O   0  0  0  0  0  0  0  0  0  0  0  0
    4.1827   -0.6221   -0.0518 H   0  0  0  0  0  0  0  0  0  0  0  0
   -0.1221   -1.7563    1.5520 H   0  0  0  0  0  0  0  0  0  0  0  0
   -2.3778   -1.9606    0.3307 H   0  0  0  0  0  0  0  0  0  0  0  0
   -2.4272    0.3779   -0.9095 H   0  0  0  0  0  0  0  0  0  0  0  0
   -1.8941   -0.8774   -2.0428 H   0  0  0  0  0  0  0  0  0  0  0  0
    0.1761    0.4203   -2.1361 H   0  0  0  0  0  0  0  0  0  0  0  0
   -0.7981    1.4702    0.6989 H   0  0  0  0  0  0  0  0  0  0  0  0
    0.6267    3.0750    0.0980 H   0  0  0  0  0  0  0  0  0  0  0  0
  1  2  3  0
  2  3  1  0
  3  4  1  0
  4  5  2  0
  5  6  1  0
  6  7  1  0
  7  8  1  0
  8  9  1  0
  7  3  1  0
  8  3  1  0
  1 10  1  0
  4 11  1  0
  5 12  1  0
  6 13  1  0
  6 14  1  0
  7 15  1  0
  8 16  1  0
  9 17  1  0
M  END
