
     RDKit          3D

 15 14  0  0  0  0  0  0  0  0999 V2000
    2.1089    1.3696    0.6595 C   0  0  0  0  0  0  0  0  0  0  0  0
    1.4649    0.5875    0.0080 C   0  0  0  0  0  0  0  0  0  0  0  0
    0.6757   -0.3855   -0.7880 C   0  0  0  0  0  0  0  0  0  0  0  0
    1.1510   -1.6724   -0.5829 O   0  0  0  0  0  0  0  0  0  0  0  0
   -0.7750   -0.3354   -0.3352 C   0  0  0  0  0  0  0  0  0  0  0  0
   -1.3151    1.0491   -0.5470 C   0  0  0  0  0  0  0  0  0  0  0  0
   -1.8524    1.6632    0.3535 O   0  0  0  0  0  0  0  0  0  0  0  0
   -0.8964   -0.6986    1.0978 C   0  0  0  0  0  0  0  0  0  0  0  0
   -1.2237   -1.8290    1.4490 O   0  0  0  0  0  0  0  0  0  0  0  0
    2.6936    2.0619    1.2267 H   0  0  0  0  0  0  0  0  0  0  0  0
    0.7734   -0.1230   -1.8496 H   0  0  0  0  0  0  0  0  0  0  0  0
    0.4880   -2.2024   -0.0959 H   0  0  0  0  0  0  0  0  0  0  0  0
   -1.3460   -1.0339   -0.9795 H   0  0  0  0  0  0  0  0  0  0  0  0
   -1.2432    1.5397   -1.5020 H   0  0  0  0  0  0  0  0  0  0  0  0
   -0.7037    0.0093    1.8855 H   0  0  0  0  0  0  0  0  0  0  0  0
  1  2  3  0
  2  3  1  0
  3  4  1  0
  3  5  1  0
  5  6  1  0
  6  7  2  0
  5  8  1  0
  8  9  2  0
  1 10  1  0
  3 11  1  0
  4 12  1  0
  5 13  1  0
  6 14  1  0
  8 15  1  0
M  END
