
     RDKit          3D

 16 16  0  0  0  0  0  0  0  0999 V2000
    1.6664    1.9764   -0.4030 C   0  0  0  0  0  0  0  0  0  0  0  0
    0.9747    1.1177    0.0668 C   0  0  0  0  0  0  0  0  0  0  0  0
    0.1435    0.0937    0.6553 C   0  0  0  0  0  0  0  0  0  0  0  0
   -0.3048    0.3714    2.0486 C   0  0  0  0  0  0  0  0  0  0  0  0
    0.2669    1.2147    2.7182 O   0  0  0  0  0  0  0  0  0  0  0  0
    0.4794   -1.3267    0.2704 C   0  0  0  0  0  0  0  0  0  0  0  0
   -0.7812   -0.6535   -0.1943 C   0  0  0  0  0  0  0  0  0  0  0  0
   -0.9193   -0.2999   -1.6421 C   0  0  0  0  0  0  0  0  0  0  0  0
    2.2951    2.7808   -0.8246 H   0  0  0  0  0  0  0  0  0  0  0  0
   -1.1168   -0.1559    2.4645 H   0  0  0  0  0  0  0  0  0  0  0  0
    1.2218   -1.4948   -0.5297 H   0  0  0  0  0  0  0  0  0  0  0  0
    0.5239   -1.9917    1.1273 H   0  0  0  0  0  0  0  0  0  0  0  0
   -1.6966   -1.1598    0.2494 H   0  0  0  0  0  0  0  0  0  0  0  0
   -0.6083    0.7905   -1.7073 H   0  0  0  0  0  0  0  0  0  0  0  0
   -1.9497   -0.4207   -2.0064 H   0  0  0  0  0  0  0  0  0  0  0  0
   -0.1947   -0.8422   -2.2931 H   0  0  0  0  0  0  0  0  0  0  0  0
  1  2  3  0
  2  3  1  0
  3  4  1  0
  4  5  2  0
  3  6  1  0
  6  7  1  0
  7  8  1  0
  7  3  1  0
  1  9  1  0
  4 10  1  0
  6 11  1  0
  6 12  1  0
  7 13  1  0
  8 14  1  0
  8 15  1  0
  8 16  1  0
M  END
