
     RDKit          3D

 17 18  0  0  0  0  0  0  0  0999 V2000
    3.5235    0.4598   -0.3112 C   0  0  0  0  0  0  0  0  0  0  0  0
    2.3227    0.3171   -0.2474 C   0  0  0  0  0  0  0  0  0  0  0  0
    0.8842    0.1682   -0.1583 C   0  0  0  0  0  0  0  0  0  0  0  0
    0.1194    1.2287   -0.1469 C   0  0  0  0  0  0  0  0  0  0  0  0
   -1.3532    1.1544   -0.0581 C   0  0  0  0  0  0  0  0  0  0  0  0
   -1.8531   -0.1340    0.4760 C   0  0  0  0  0  0  0  0  0  0  0  0
   -2.0835   -1.1118   -0.5654 O   0  0  0  0  0  0  0  0  0  0  0  0
   -1.0641   -1.2866    0.3834 C   0  0  0  0  0  0  0  0  0  0  0  0
    0.3451   -1.2011   -0.0835 C   0  0  0  0  0  0  0  0  0  0  0  0
    4.5840    0.5806   -0.3740 H   0  0  0  0  0  0  0  0  0  0  0  0
    0.5699    2.2067   -0.2041 H   0  0  0  0  0  0  0  0  0  0  0  0
   -1.6827    2.0036    0.5990 H   0  0  0  0  0  0  0  0  0  0  0  0
   -1.8043    1.3234   -1.0790 H   0  0  0  0  0  0  0  0  0  0  0  0
   -2.6909   -0.0579    1.1956 H   0  0  0  0  0  0  0  0  0  0  0  0
   -1.2812   -2.1563    1.0543 H   0  0  0  0  0  0  0  0  0  0  0  0
    0.4525   -1.7194   -1.0802 H   0  0  0  0  0  0  0  0  0  0  0  0
    1.0117   -1.7751    0.5998 H   0  0  0  0  0  0  0  0  0  0  0  0
  1  2  3  0
  2  3  1  0
  3  4  2  0
  4  5  1  0
  5  6  1  0
  6  7  1  0
  7  8  1  0
  8  9  1  0
  9  3  1  0
  8  6  1  0
  1 10  1  0
  4 11  1  0
  5 12  1  0
  5 13  1  0
  6 14  1  0
  8 15  1  0
  9 16  1  0
  9 17  1  0
M  END
