
     RDKit          3D

 15 15  0  0  0  0  0  0  0  0999 V2000
    2.5270   -0.8887    0.1381 C   0  0  0  0  0  0  0  0  0  0  0  0
    1.3257   -0.9856    0.0797 C   0  0  0  0  0  0  0  0  0  0  0  0
   -0.1311   -1.0776    0.0115 C   0  0  0  0  0  0  0  0  0  0  0  0
   -0.9563   -0.4217    1.0422 C   0  0  0  0  0  0  0  0  0  0  0  0
   -0.8795    0.2303   -0.2595 C   0  0  0  0  0  0  0  0  0  0  0  0
    0.0027    1.4743   -0.3614 C   0  0  0  0  0  0  0  0  0  0  0  0
   -1.8390    0.1264   -1.2394 O   0  0  0  0  0  0  0  0  0  0  0  0
    3.5814   -0.7927    0.2006 H   0  0  0  0  0  0  0  0  0  0  0  0
   -0.5712   -2.0182   -0.4156 H   0  0  0  0  0  0  0  0  0  0  0  0
   -1.9509   -0.8662    1.3261 H   0  0  0  0  0  0  0  0  0  0  0  0
   -0.4070    0.0533    1.8842 H   0  0  0  0  0  0  0  0  0  0  0  0
    0.8023    1.4209    0.4195 H   0  0  0  0  0  0  0  0  0  0  0  0
    0.4774    1.5010   -1.3646 H   0  0  0  0  0  0  0  0  0  0  0  0
   -0.5958    2.3856   -0.2549 H   0  0  0  0  0  0  0  0  0  0  0  0
   -1.3858   -0.1412   -2.1008 H   0  0  0  0  0  0  0  0  0  0  0  0
  1  2  3  0
  2  3  1  0
  3  4  1  0
  4  5  1  0
  5  6  1  0
  5  7  1  0
  5  3  1  0
  1  8  1  0
  3  9  1  0
  4 10  1  0
  4 11  1  0
  6 12  1  0
  6 13  1  0
  6 14  1  0
  7 15  1  0
M  END
