
     RDKit          3D

 12 11  0  0  0  0  0  0  0  0999 V2000
    2.0534   -1.0601   -0.7955 C   0  0  0  0  0  0  0  0  0  0  0  0
    1.1442   -0.3884   -0.3760 C   0  0  0  0  0  0  0  0  0  0  0  0
    0.0258    0.4138    0.1528 C   0  0  0  0  0  0  0  0  0  0  0  0
   -0.9037   -0.4898    0.8769 C   0  0  0  0  0  0  0  0  0  0  0  0
   -0.6360    1.1703   -0.9619 C   0  0  0  0  0  0  0  0  0  0  0  0
    0.1276    1.7580   -1.7111 O   0  0  0  0  0  0  0  0  0  0  0  0
    2.8574   -1.6766   -1.1672 H   0  0  0  0  0  0  0  0  0  0  0  0
    0.4536    1.1820    0.8245 H   0  0  0  0  0  0  0  0  0  0  0  0
   -1.8617   -0.6299    0.3392 H   0  0  0  0  0  0  0  0  0  0  0  0
   -1.1380   -0.0161    1.8694 H   0  0  0  0  0  0  0  0  0  0  0  0
   -0.4115   -1.4410    1.1075 H   0  0  0  0  0  0  0  0  0  0  0  0
   -1.7111    1.1778   -1.0705 H   0  0  0  0  0  0  0  0  0  0  0  0
  1  2  3  0
  2  3  1  0
  3  4  1  0
  3  5  1  0
  5  6  2  0
  1  7  1  0
  3  8  1  0
  4  9  1  0
  4 10  1  0
  4 11  1  0
  5 12  1  0
M  END
