
     RDKit          3D

 16 15  0  0  0  0  0  0  0  0999 V2000
    2.7535   -0.5158    1.2761 C   0  0  0  0  0  0  0  0  0  0  0  0
    1.8214    0.0112    0.9799 C   0  0  0  0  0  0  0  0  0  0  0  0
    0.5814    0.7403    0.5736 C   0  0  0  0  0  0  0  0  0  0  0  0
   -0.4250   -0.2171   -0.0765 C   0  0  0  0  0  0  0  0  0  0  0  0
    0.1099   -0.8406   -1.3169 C   0  0  0  0  0  0  0  0  0  0  0  0
   -0.6566   -1.2165    0.8852 O   0  0  0  0  0  0  0  0  0  0  0  0
   -1.6419    0.4811   -0.3025 C   0  0  0  0  0  0  0  0  0  0  0  0
   -2.7255    1.1191   -0.5208 C   0  0  0  0  0  0  0  0  0  0  0  0
    3.6990   -1.0375    1.5916 H   0  0  0  0  0  0  0  0  0  0  0  0
    0.8880    1.5430   -0.1489 H   0  0  0  0  0  0  0  0  0  0  0  0
    0.0883    1.2497    1.4009 H   0  0  0  0  0  0  0  0  0  0  0  0
    0.2989   -1.9181   -1.1322 H   0  0  0  0  0  0  0  0  0  0  0  0
    1.0415   -0.2908   -1.6537 H   0  0  0  0  0  0  0  0  0  0  0  0
   -0.6636   -0.7691   -2.1262 H   0  0  0  0  0  0  0  0  0  0  0  0
   -1.5648   -1.1686    1.2868 H   0  0  0  0  0  0  0  0  0  0  0  0
   -3.6044    1.6407   -0.7163 H   0  0  0  0  0  0  0  0  0  0  0  0
  1  2  3  0
  2  3  1  0
  3  4  1  0
  4  5  1  0
  4  6  1  0
  4  7  1  0
  7  8  3  0
  1  9  1  0
  3 10  1  0
  3 11  1  0
  5 12  1  0
  5 13  1  0
  5 14  1  0
  6 15  1  0
  8 16  1  0
M  END
