
     RDKit          3D

 21 20  0  0  0  0  0  0  0  0999 V2000
    4.1260    0.2329   -2.4327 C   0  0  0  0  0  0  0  0  0  0  0  0
    3.1441    0.3393   -1.9531 C   0  0  0  0  0  0  0  0  0  0  0  0
    1.6695    0.4972   -1.2184 C   0  0  0  0  0  0  0  0  0  0  0  0
    0.9544    0.5868   -0.8676 C   0  0  0  0  0  0  0  0  0  0  0  0
   -0.3382    0.7258   -0.2442 C   0  0  0  0  0  0  0  0  0  0  0  0
   -0.6822    1.7775    0.6845 C   0  0  0  0  0  0  0  0  0  0  0  0
   -0.8307   -0.6342    0.2526 C   0  0  0  0  0  0  0  0  0  0  0  0
   -2.0912   -0.6310    1.0025 C   0  0  0  0  0  0  0  0  0  0  0  0
    0.2066   -1.5734    0.7367 C   0  0  0  0  0  0  0  0  0  0  0  0
    5.0918    0.1185   -2.8999 H   0  0  0  0  0  0  0  0  0  0  0  0
   -1.0889    0.8265   -1.2054 H   0  0  0  0  0  0  0  0  0  0  0  0
   -1.8547    1.7195    0.9869 H   0  0  0  0  0  0  0  0  0  0  0  0
   -0.1656    1.9841    1.6082 H   0  0  0  0  0  0  0  0  0  0  0  0
   -0.7656    2.8690    0.2553 H   0  0  0  0  0  0  0  0  0  0  0  0
   -1.2092   -1.1988   -0.7703 H   0  0  0  0  0  0  0  0  0  0  0  0
   -1.9664   -0.3774    2.1117 H   0  0  0  0  0  0  0  0  0  0  0  0
   -2.5906   -1.5880    0.9990 H   0  0  0  0  0  0  0  0  0  0  0  0
   -2.8538    0.1161    0.5659 H   0  0  0  0  0  0  0  0  0  0  0  0
    0.7656   -1.3761    1.6497 H   0  0  0  0  0  0  0  0  0  0  0  0
   -0.4122   -2.5414    0.8965 H   0  0  0  0  0  0  0  0  0  0  0  0
    0.8912   -1.8729   -0.1578 H   0  0  0  0  0  0  0  0  0  0  0  0
  1  2  3  0
  2  3  1  0
  3  4  3  0
  4  5  1  0
  5  6  1  0
  5  7  1  0
  7  8  1  0
  7  9  1  0
  1 10  1  0
  5 11  1  0
  6 12  1  0
  6 13  1  0
  6 14  1  0
  7 15  1  0
  8 16  1  0
  8 17  1  0
  8 18  1  0
  9 19  1  0
  9 20  1  0
  9 21  1  0
M  END
