
     RDKit          3D

 12 11  0  0  0  0  0  0  0  0999 V2000
    2.6074   -0.6892   -0.6758 C   0  0  0  0  0  0  0  0  0  0  0  0
    1.7265    0.1402   -0.7623 C   0  0  0  0  0  0  0  0  0  0  0  0
    0.6794    1.1318   -0.8883 C   0  0  0  0  0  0  0  0  0  0  0  0
   -0.5910    0.5240   -0.7982 O   0  0  0  0  0  0  0  0  0  0  0  0
   -1.0038   -0.1837    0.3185 C   0  0  0  0  0  0  0  0  0  0  0  0
   -0.2021   -0.2741    1.2717 O   0  0  0  0  0  0  0  0  0  0  0  0
   -2.3331   -0.8048    0.3811 C   0  0  0  0  0  0  0  0  0  0  0  0
   -3.1509   -0.7234   -0.5679 O   0  0  0  0  0  0  0  0  0  0  0  0
    3.3817   -1.4065   -0.5865 H   0  0  0  0  0  0  0  0  0  0  0  0
    0.7323    1.8723   -0.0358 H   0  0  0  0  0  0  0  0  0  0  0  0
    0.7622    1.7523   -1.8033 H   0  0  0  0  0  0  0  0  0  0  0  0
   -2.6087   -1.3389    1.2577 H   0  0  0  0  0  0  0  0  0  0  0  0
  1  2  3  0
  2  3  1  0
  3  4  1  0
  4  5  1  0
  5  6  2  0
  5  7  1  0
  7  8  2  0
  1  9  1  0
  3 10  1  0
  3 11  1  0
  7 12  1  0
M  END
