
     RDKit          3D

 18 18  0  0  0  0  0  0  0  0999 V2000
    3.2811    1.5853    0.3073 C   0  0  0  0  0  0  0  0  0  0  0  0
    2.3041    0.9176    0.6122 C   0  0  0  0  0  0  0  0  0  0  0  0
    1.1480    0.1557    0.9786 C   0  0  0  0  0  0  0  0  0  0  0  0
    0.6826   -0.8570   -0.0783 C   0  0  0  0  0  0  0  0  0  0  0  0
   -0.6972   -0.6043    0.5276 C   0  0  0  0  0  0  0  0  0  0  0  0
   -1.8354   -0.7612   -0.4223 C   0  0  0  0  0  0  0  0  0  0  0  0
   -3.0125   -0.5094    0.2378 O   0  0  0  0  0  0  0  0  0  0  0  0
   -0.2012    0.8383    0.7031 C   0  0  0  0  0  0  0  0  0  0  0  0
    4.1216    2.1746    0.0433 H   0  0  0  0  0  0  0  0  0  0  0  0
    1.1637   -0.3441    1.9498 H   0  0  0  0  0  0  0  0  0  0  0  0
    0.7511   -0.4363   -1.1217 H   0  0  0  0  0  0  0  0  0  0  0  0
    1.0696   -1.8645    0.0476 H   0  0  0  0  0  0  0  0  0  0  0  0
   -0.8050   -1.1013    1.4921 H   0  0  0  0  0  0  0  0  0  0  0  0
   -1.6778   -0.1719   -1.3304 H   0  0  0  0  0  0  0  0  0  0  0  0
   -1.8590   -1.8467   -0.7291 H   0  0  0  0  0  0  0  0  0  0  0  0
   -3.6273    0.0856   -0.2263 H   0  0  0  0  0  0  0  0  0  0  0  0
   -0.1945    1.3745   -0.2687 H   0  0  0  0  0  0  0  0  0  0  0  0
   -0.6119    1.3649    1.5632 H   0  0  0  0  0  0  0  0  0  0  0  0
  1  2  3  0
  2  3  1  0
  3  4  1  0
  4  5  1  0
  5  6  1  0
  6  7  1  0
  5  8  1  0
  8  3  1  0
  1  9  1  0
  3 10  1  0
  4 11  1  0
  4 12  1  0
  5 13  1  0
  6 14  1  0
  6 15  1  0
  7 16  1  0
  8 17  1  0
  8 18  1  0
M  END
