
     RDKit          3D

 15 16  0  0  0  0  0  0  0  0999 V2000
    1.7733    0.0382    2.0333 C   0  0  0  0  0  0  0  0  0  0  0  0
    1.1537    0.2904    1.0137 C   0  0  0  0  0  0  0  0  0  0  0  0
    0.3881    0.5906   -0.1973 C   0  0  0  0  0  0  0  0  0  0  0  0
    0.2555    2.0212   -0.5094 C   0  0  0  0  0  0  0  0  0  0  0  0
   -0.0274    2.7817    0.3896 O   0  0  0  0  0  0  0  0  0  0  0  0
    0.7162   -0.2265   -1.2833 O   0  0  0  0  0  0  0  0  0  0  0  0
   -0.3267   -1.1268   -1.1804 C   0  0  0  0  0  0  0  0  0  0  0  0
   -0.8837   -1.5598    0.1093 C   0  0  0  0  0  0  0  0  0  0  0  0
   -0.9531   -0.1130   -0.1645 C   0  0  0  0  0  0  0  0  0  0  0  0
    2.3123   -0.1920    2.9151 H   0  0  0  0  0  0  0  0  0  0  0  0
    0.4078    2.3778   -1.5164 H   0  0  0  0  0  0  0  0  0  0  0  0
   -0.8769   -1.2978   -2.1035 H   0  0  0  0  0  0  0  0  0  0  0  0
   -1.8395   -2.1087    0.0676 H   0  0  0  0  0  0  0  0  0  0  0  0
   -0.2484   -1.8534    0.9658 H   0  0  0  0  0  0  0  0  0  0  0  0
   -1.8512    0.3781   -0.5395 H   0  0  0  0  0  0  0  0  0  0  0  0
  1  2  3  0
  2  3  1  0
  3  4  1  0
  4  5  2  0
  3  6  1  0
  6  7  1  0
  7  8  1  0
  8  9  1  0
  9  3  1  0
  9  7  1  0
  1 10  1  0
  4 11  1  0
  7 12  1  0
  8 13  1  0
  8 14  1  0
  9 15  1  0
M  END
