
     RDKit          3D

 19 18  0  0  0  0  0  0  0  0999 V2000
   -2.4381    0.2716   -1.8224 C   0  0  0  0  0  0  0  0  0  0  0  0
   -1.9389    0.5544   -0.7216 C   0  0  0  0  0  0  0  0  0  0  0  0
   -1.3499    0.9109    0.5641 C   0  0  0  0  0  0  0  0  0  0  0  0
   -0.9633   -0.3826    1.2664 C   0  0  0  0  0  0  0  0  0  0  0  0
    0.0410   -1.1451    0.4114 C   0  0  0  0  0  0  0  0  0  0  0  0
    1.2131   -0.2320    0.2645 C   0  0  0  0  0  0  0  0  0  0  0  0
    1.7223    0.2114    1.2569 O   0  0  0  0  0  0  0  0  0  0  0  0
    1.7482    0.1327   -1.0957 C   0  0  0  0  0  0  0  0  0  0  0  0
    2.8294    0.9941   -0.9755 O   0  0  0  0  0  0  0  0  0  0  0  0
   -2.8675    0.0169   -2.7521 H   0  0  0  0  0  0  0  0  0  0  0  0
   -2.0489    1.4710    1.2101 H   0  0  0  0  0  0  0  0  0  0  0  0
   -0.4385    1.5207    0.4391 H   0  0  0  0  0  0  0  0  0  0  0  0
   -1.8026   -1.0617    1.4723 H   0  0  0  0  0  0  0  0  0  0  0  0
   -0.4845   -0.1131    2.2239 H   0  0  0  0  0  0  0  0  0  0  0  0
    0.4091   -2.0077    1.0274 H   0  0  0  0  0  0  0  0  0  0  0  0
   -0.3719   -1.4380   -0.5646 H   0  0  0  0  0  0  0  0  0  0  0  0
    0.9595    0.6002   -1.7373 H   0  0  0  0  0  0  0  0  0  0  0  0
    2.0739   -0.8411   -1.5559 H   0  0  0  0  0  0  0  0  0  0  0  0
    3.7074    0.5376   -0.8853 H   0  0  0  0  0  0  0  0  0  0  0  0
  1  2  3  0
  2  3  1  0
  3  4  1  0
  4  5  1  0
  5  6  1  0
  6  7  2  0
  6  8  1  0
  8  9  1  0
  1 10  1  0
  3 11  1  0
  3 12  1  0
  4 13  1  0
  4 14  1  0
  5 15  1  0
  5 16  1  0
  8 17  1  0
  8 18  1  0
  9 19  1  0
M  END
