
     RDKit          3D

 19 18  0  0  0  0  0  0  0  0999 V2000
    2.3878   -0.4728   -1.3969 C   0  0  0  0  0  0  0  0  0  0  0  0
    1.9705    0.1245   -0.6988 C   0  0  0  0  0  0  0  0  0  0  0  0
    1.4189    0.8985    0.1958 C   0  0  0  0  0  0  0  0  0  0  0  0
    1.3882    0.5344    1.5006 O   0  0  0  0  0  0  0  0  0  0  0  0
   -0.1660    0.9930   -0.2210 C   0  0  0  0  0  0  0  0  0  0  0  0
   -0.7585    1.8721    0.5762 O   0  0  0  0  0  0  0  0  0  0  0  0
   -0.6451   -0.4134    0.0211 C   0  0  0  0  0  0  0  0  0  0  0  0
   -2.0286   -0.7109   -0.3617 C   0  0  0  0  0  0  0  0  0  0  0  0
   -0.4142   -0.7366    1.3812 O   0  0  0  0  0  0  0  0  0  0  0  0
    3.0183   -1.3588   -2.4421 H   0  0  0  0  0  0  0  0  0  0  0  0
    1.6940    1.9970    0.0732 H   0  0  0  0  0  0  0  0  0  0  0  0
    1.8371   -0.3471    1.7436 H   0  0  0  0  0  0  0  0  0  0  0  0
   -0.1651    1.2704   -1.2804 H   0  0  0  0  0  0  0  0  0  0  0  0
   -1.1742    1.5341    1.4061 H   0  0  0  0  0  0  0  0  0  0  0  0
    0.0215   -1.1588   -0.5353 H   0  0  0  0  0  0  0  0  0  0  0  0
   -2.4459   -1.5778    0.2362 H   0  0  0  0  0  0  0  0  0  0  0  0
   -2.7683    0.0741   -0.3195 H   0  0  0  0  0  0  0  0  0  0  0  0
   -2.0806   -1.0670   -1.4610 H   0  0  0  0  0  0  0  0  0  0  0  0
   -1.0898   -1.4551    1.5826 H   0  0  0  0  0  0  0  0  0  0  0  0
  1  2  3  0
  2  3  1  0
  3  4  1  0
  3  5  1  0
  5  6  1  0
  5  7  1  0
  7  8  1  0
  7  9  1  0
  1 10  1  0
  3 11  1  0
  4 12  1  0
  5 13  1  0
  6 14  1  0
  7 15  1  0
  8 16  1  0
  8 17  1  0
  8 18  1  0
  9 19  1  0
M  END
