
     RDKit          3D

 15 16  0  0  0  0  0  0  0  0999 V2000
    2.9246    0.1086    0.8790 C   0  0  0  0  0  0  0  0  0  0  0  0
    1.8377   -0.2802    0.5334 C   0  0  0  0  0  0  0  0  0  0  0  0
    0.5262   -0.7416    0.0916 C   0  0  0  0  0  0  0  0  0  0  0  0
    0.4507   -1.8879   -0.6543 O   0  0  0  0  0  0  0  0  0  0  0  0
    0.2157   -0.7638   -1.3934 C   0  0  0  0  0  0  0  0  0  0  0  0
   -1.1277   -0.1086   -1.1367 C   0  0  0  0  0  0  0  0  0  0  0  0
   -0.6190    0.1812    0.2729 C   0  0  0  0  0  0  0  0  0  0  0  0
   -1.5662   -0.1007    1.3526 C   0  0  0  0  0  0  0  0  0  0  0  0
   -1.5042   -1.0373    2.1266 O   0  0  0  0  0  0  0  0  0  0  0  0
    3.8789    0.4687    1.1835 H   0  0  0  0  0  0  0  0  0  0  0  0
    0.9087   -0.3582   -2.1180 H   0  0  0  0  0  0  0  0  0  0  0  0
   -1.9137   -0.9151   -1.1681 H   0  0  0  0  0  0  0  0  0  0  0  0
   -1.3512    0.7727   -1.7445 H   0  0  0  0  0  0  0  0  0  0  0  0
   -0.2595    1.2507    0.2894 H   0  0  0  0  0  0  0  0  0  0  0  0
   -2.4009    0.5755    1.4860 H   0  0  0  0  0  0  0  0  0  0  0  0
  1  2  3  0
  2  3  1  0
  3  4  1  0
  4  5  1  0
  5  6  1  0
  6  7  1  0
  7  8  1  0
  8  9  2  0
  5  3  1  0
  7  3  1  0
  1 10  1  0
  5 11  1  0
  6 12  1  0
  6 13  1  0
  7 14  1  0
  8 15  1  0
M  END
