
     RDKit          3D

 21 21  0  0  0  0  0  0  0  0999 V2000
    2.6500    0.9540    1.3028 C   0  0  0  0  0  0  0  0  0  0  0  0
    1.9999    0.3291    0.5015 C   0  0  0  0  0  0  0  0  0  0  0  0
    1.1791   -0.4371   -0.4709 C   0  0  0  0  0  0  0  0  0  0  0  0
    0.8806   -1.7478    0.1743 C   0  0  0  0  0  0  0  0  0  0  0  0
    0.0519    0.3827   -0.9165 C   0  0  0  0  0  0  0  0  0  0  0  0
   -1.0175    0.9638   -0.1271 C   0  0  0  0  0  0  0  0  0  0  0  0
   -1.2798    0.7356    1.3194 C   0  0  0  0  0  0  0  0  0  0  0  0
   -1.3215   -0.2452   -1.0175 C   0  0  0  0  0  0  0  0  0  0  0  0
   -2.0927   -0.0309   -2.1560 O   0  0  0  0  0  0  0  0  0  0  0  0
    3.2092    1.5149    2.0170 H   0  0  0  0  0  0  0  0  0  0  0  0
    1.8405   -0.6474   -1.3365 H   0  0  0  0  0  0  0  0  0  0  0  0
    0.7308   -1.6620    1.2864 H   0  0  0  0  0  0  0  0  0  0  0  0
    0.1177   -2.3580   -0.3203 H   0  0  0  0  0  0  0  0  0  0  0  0
    1.8268   -2.3687    0.1030 H   0  0  0  0  0  0  0  0  0  0  0  0
    0.3093    0.9686   -1.8574 H   0  0  0  0  0  0  0  0  0  0  0  0
   -1.4852    1.9049   -0.4926 H   0  0  0  0  0  0  0  0  0  0  0  0
   -1.1934   -0.2938    1.6671 H   0  0  0  0  0  0  0  0  0  0  0  0
   -0.6983    1.4270    1.9646 H   0  0  0  0  0  0  0  0  0  0  0  0
   -2.3601    1.0167    1.5031 H   0  0  0  0  0  0  0  0  0  0  0  0
   -1.5420   -1.1990   -0.5223 H   0  0  0  0  0  0  0  0  0  0  0  0
   -1.8052    0.7926   -2.6220 H   0  0  0  0  0  0  0  0  0  0  0  0
  1  2  3  0
  2  3  1  0
  3  4  1  0
  3  5  1  0
  5  6  1  0
  6  7  1  0
  6  8  1  0
  8  9  1  0
  8  5  1  0
  1 10  1  0
  3 11  1  0
  4 12  1  0
  4 13  1  0
  4 14  1  0
  5 15  1  0
  6 16  1  0
  7 17  1  0
  7 18  1  0
  7 19  1  0
  8 20  1  0
  9 21  1  0
M  END
