
     RDKit          3D

 17 18  0  0  0  0  0  0  0  0999 V2000
    2.3184   -0.5796   -1.8044 C   0  0  0  0  0  0  0  0  0  0  0  0
    1.6376   -0.3699   -0.8253 C   0  0  0  0  0  0  0  0  0  0  0  0
    0.8318   -0.0968    0.3396 C   0  0  0  0  0  0  0  0  0  0  0  0
   -0.4837   -0.8198    0.2758 C   0  0  0  0  0  0  0  0  0  0  0  0
   -0.7074   -2.0484    0.3496 O   0  0  0  0  0  0  0  0  0  0  0  0
   -0.9913    0.2595    1.2144 C   0  0  0  0  0  0  0  0  0  0  0  0
   -0.1895    1.0170    0.1899 C   0  0  0  0  0  0  0  0  0  0  0  0
    0.0325    2.2437    0.1264 O   0  0  0  0  0  0  0  0  0  0  0  0
   -0.8488    0.1288   -0.8328 C   0  0  0  0  0  0  0  0  0  0  0  0
    2.9217   -0.7463   -2.6701 H   0  0  0  0  0  0  0  0  0  0  0  0
    1.3303   -0.0801    1.3109 H   0  0  0  0  0  0  0  0  0  0  0  0
   -0.9117   -2.4180    1.2225 H   0  0  0  0  0  0  0  0  0  0  0  0
   -2.0843    0.3757    1.1515 H   0  0  0  0  0  0  0  0  0  0  0  0
   -0.5394    0.2608    2.2145 H   0  0  0  0  0  0  0  0  0  0  0  0
   -0.0348    2.6663   -0.7795 H   0  0  0  0  0  0  0  0  0  0  0  0
   -1.9585    0.2168   -0.8974 H   0  0  0  0  0  0  0  0  0  0  0  0
   -0.3228   -0.0098   -1.7813 H   0  0  0  0  0  0  0  0  0  0  0  0
  1  2  3  0
  2  3  1  0
  3  4  1  0
  4  5  1  0
  4  6  1  0
  6  7  1  0
  7  8  1  0
  7  9  1  0
  7  3  1  0
  9  4  1  0
  1 10  1  0
  3 11  1  0
  5 12  1  0
  6 13  1  0
  6 14  1  0
  8 15  1  0
  9 16  1  0
  9 17  1  0
M  END
