
     RDKit          3D

 14 13  0  0  0  0  0  0  0  0999 V2000
    2.9633   -0.8127    0.3210 C   0  0  0  0  0  0  0  0  0  0  0  0
    1.8341   -0.2993    0.5605 C   0  0  0  0  0  0  0  0  0  0  0  0
    0.5456    0.2708    0.8117 C   0  0  0  0  0  0  0  0  0  0  0  0
   -0.2722    0.3064   -0.4413 C   0  0  0  0  0  0  0  0  0  0  0  0
   -1.5645    0.9133   -0.0628 C   0  0  0  0  0  0  0  0  0  0  0  0
   -2.6177    1.4062    0.2239 C   0  0  0  0  0  0  0  0  0  0  0  0
   -0.5623   -1.0251   -0.9994 C   0  0  0  0  0  0  0  0  0  0  0  0
   -0.9452   -1.1344   -2.1388 O   0  0  0  0  0  0  0  0  0  0  0  0
    3.8861   -1.2357    0.1430 H   0  0  0  0  0  0  0  0  0  0  0  0
    0.6199    1.3301    1.1724 H   0  0  0  0  0  0  0  0  0  0  0  0
   -0.0416   -0.3329    1.5554 H   0  0  0  0  0  0  0  0  0  0  0  0
    0.1576    0.9620   -1.2284 H   0  0  0  0  0  0  0  0  0  0  0  0
   -3.5699    1.8703    0.4762 H   0  0  0  0  0  0  0  0  0  0  0  0
   -0.4334   -1.8995   -0.3933 H   0  0  0  0  0  0  0  0  0  0  0  0
  1  2  3  0
  2  3  1  0
  3  4  1  0
  4  5  1  0
  5  6  3  0
  4  7  1  0
  7  8  2  0
  1  9  1  0
  3 10  1  0
  3 11  1  0
  4 12  1  0
  6 13  1  0
  7 14  1  0
M  END
