
     RDKit          3D

 18 18  0  0  0  0  0  0  0  0999 V2000
    3.1179   -1.1654   -0.3583 C   0  0  0  0  0  0  0  0  0  0  0  0
    1.9334   -0.9586   -0.2607 C   0  0  0  0  0  0  0  0  0  0  0  0
    0.5285   -0.6917   -0.1578 C   0  0  0  0  0  0  0  0  0  0  0  0
   -0.4150   -1.3585   -0.7978 C   0  0  0  0  0  0  0  0  0  0  0  0
   -1.7648   -0.8152   -0.4585 C   0  0  0  0  0  0  0  0  0  0  0  0
   -1.5183    0.4589    0.3017 C   0  0  0  0  0  0  0  0  0  0  0  0
   -0.0607    0.3798    0.6892 C   0  0  0  0  0  0  0  0  0  0  0  0
    0.5841    1.7130    0.4313 C   0  0  0  0  0  0  0  0  0  0  0  0
    4.1752   -1.3562   -0.4414 H   0  0  0  0  0  0  0  0  0  0  0  0
   -0.3070   -2.1920   -1.4871 H   0  0  0  0  0  0  0  0  0  0  0  0
   -2.2879   -1.5270    0.2341 H   0  0  0  0  0  0  0  0  0  0  0  0
   -2.3510   -0.6315   -1.3724 H   0  0  0  0  0  0  0  0  0  0  0  0
   -2.1473    0.5599    1.2084 H   0  0  0  0  0  0  0  0  0  0  0  0
   -1.7286    1.3311   -0.3478 H   0  0  0  0  0  0  0  0  0  0  0  0
    0.0053    0.0810    1.7598 H   0  0  0  0  0  0  0  0  0  0  0  0
    0.1620    2.1803   -0.4819 H   0  0  0  0  0  0  0  0  0  0  0  0
    1.6920    1.5869    0.2691 H   0  0  0  0  0  0  0  0  0  0  0  0
    0.3823    2.4053    1.2700 H   0  0  0  0  0  0  0  0  0  0  0  0
  1  2  3  0
  2  3  1  0
  3  4  2  0
  4  5  1  0
  5  6  1  0
  6  7  1  0
  7  8  1  0
  7  3  1  0
  1  9  1  0
  4 10  1  0
  5 11  1  0
  5 12  1  0
  6 13  1  0
  6 14  1  0
  7 15  1  0
  8 16  1  0
  8 17  1  0
  8 18  1  0
M  END
