
     RDKit          3D

 19 19  0  0  0  0  0  0  0  0999 V2000
    4.0543    1.1409   -1.3466 C   0  0  0  0  0  0  0  0  0  0  0  0
    3.0519    0.6731   -0.8713 C   0  0  0  0  0  0  0  0  0  0  0  0
    1.8143    0.0709   -0.2944 C   0  0  0  0  0  0  0  0  0  0  0  0
    0.9325   -0.0489   -1.3208 O   0  0  0  0  0  0  0  0  0  0  0  0
   -0.2805   -0.6023   -1.0897 C   0  0  0  0  0  0  0  0  0  0  0  0
   -1.1015    0.1197   -0.0913 C   0  0  0  0  0  0  0  0  0  0  0  0
   -2.2221   -0.7484    0.5040 C   0  0  0  0  0  0  0  0  0  0  0  0
   -1.9626    0.1968    1.6342 C   0  0  0  0  0  0  0  0  0  0  0  0
   -0.6154    0.2359    1.2036 O   0  0  0  0  0  0  0  0  0  0  0  0
    4.9310    1.5656   -1.7777 H   0  0  0  0  0  0  0  0  0  0  0  0
    2.0463   -0.8342    0.2671 H   0  0  0  0  0  0  0  0  0  0  0  0
    1.4381    0.8325    0.4495 H   0  0  0  0  0  0  0  0  0  0  0  0
   -0.2452   -1.6810   -0.8138 H   0  0  0  0  0  0  0  0  0  0  0  0
   -0.8474   -0.5666   -2.0692 H   0  0  0  0  0  0  0  0  0  0  0  0
   -1.5845    1.0565   -0.4424 H   0  0  0  0  0  0  0  0  0  0  0  0
   -3.1801   -0.6578   -0.0181 H   0  0  0  0  0  0  0  0  0  0  0  0
   -1.8300   -1.7590    0.6575 H   0  0  0  0  0  0  0  0  0  0  0  0
   -1.9990   -0.1912    2.6487 H   0  0  0  0  0  0  0  0  0  0  0  0
   -2.4002    1.1974    1.4606 H   0  0  0  0  0  0  0  0  0  0  0  0
  1  2  3  0
  2  3  1  0
  3  4  1  0
  4  5  1  0
  5  6  1  0
  6  7  1  0
  7  8  1  0
  8  9  1  0
  9  6  1  0
  1 10  1  0
  3 11  1  0
  3 12  1  0
  5 13  1  0
  5 14  1  0
  6 15  1  0
  7 16  1  0
  7 17  1  0
  8 18  1  0
  8 19  1  0
M  END
