
     RDKit          3D

 15 16  0  0  0  0  0  0  0  0999 V2000
    2.8906    0.1834    0.1255 C   0  0  0  0  0  0  0  0  0  0  0  0
    1.7150    0.0876   -0.0769 C   0  0  0  0  0  0  0  0  0  0  0  0
    0.2941   -0.0069   -0.3297 C   0  0  0  0  0  0  0  0  0  0  0  0
   -0.4210    1.2855   -0.5773 C   0  0  0  0  0  0  0  0  0  0  0  0
   -1.4921    0.9543    0.3927 C   0  0  0  0  0  0  0  0  0  0  0  0
   -2.5965    1.4153    0.6089 O   0  0  0  0  0  0  0  0  0  0  0  0
   -0.6382   -0.1161    0.9230 C   0  0  0  0  0  0  0  0  0  0  0  0
   -0.3879   -1.2591   -0.0103 C   0  0  0  0  0  0  0  0  0  0  0  0
   -1.4828   -1.7260   -0.7297 O   0  0  0  0  0  0  0  0  0  0  0  0
    3.9272    0.2551    0.2984 H   0  0  0  0  0  0  0  0  0  0  0  0
    0.1762    2.1639   -0.2117 H   0  0  0  0  0  0  0  0  0  0  0  0
   -0.7424    1.4899   -1.6060 H   0  0  0  0  0  0  0  0  0  0  0  0
   -0.1424   -0.0446    1.8944 H   0  0  0  0  0  0  0  0  0  0  0  0
    0.2352   -2.0664    0.4237 H   0  0  0  0  0  0  0  0  0  0  0  0
   -1.3350   -2.6159   -1.1250 H   0  0  0  0  0  0  0  0  0  0  0  0
  1  2  3  0
  2  3  1  0
  3  4  1  0
  4  5  1  0
  5  6  2  0
  5  7  1  0
  7  8  1  0
  8  9  1  0
  7  3  1  0
  8  3  1  0
  1 10  1  0
  4 11  1  0
  4 12  1  0
  7 13  1  0
  8 14  1  0
  9 15  1  0
M  END
