
     RDKit          3D

 14 14  0  0  0  0  0  0  0  0999 V2000
    2.7531   -1.1851   -0.6635 C   0  0  0  0  0  0  0  0  0  0  0  0
    1.6851   -1.1471   -0.1015 C   0  0  0  0  0  0  0  0  0  0  0  0
    0.3677   -1.1221    0.5761 C   0  0  0  0  0  0  0  0  0  0  0  0
   -0.1800    0.2612    0.3949 C   0  0  0  0  0  0  0  0  0  0  0  0
   -0.3655    0.6629   -0.9272 O   0  0  0  0  0  0  0  0  0  0  0  0
   -1.3775    1.4955   -0.4386 C   0  0  0  0  0  0  0  0  0  0  0  0
   -1.6276    0.4272    0.5891 C   0  0  0  0  0  0  0  0  0  0  0  0
   -2.5116   -0.0499    1.2320 O   0  0  0  0  0  0  0  0  0  0  0  0
    3.6914   -1.2321   -1.1720 H   0  0  0  0  0  0  0  0  0  0  0  0
    0.4713   -1.3038    1.6594 H   0  0  0  0  0  0  0  0  0  0  0  0
   -0.2708   -1.9077    0.1382 H   0  0  0  0  0  0  0  0  0  0  0  0
    0.4692    1.0007    0.9030 H   0  0  0  0  0  0  0  0  0  0  0  0
   -2.2019    1.6794   -1.1268 H   0  0  0  0  0  0  0  0  0  0  0  0
   -0.9030    2.4209    0.0003 H   0  0  0  0  0  0  0  0  0  0  0  0
  1  2  3  0
  2  3  1  0
  3  4  1  0
  4  5  1  0
  5  6  1  0
  6  7  1  0
  7  8  2  0
  7  4  1  0
  1  9  1  0
  3 10  1  0
  3 11  1  0
  4 12  1  0
  6 13  1  0
  6 14  1  0
M  END
