
     RDKit          3D

 17 17  0  0  0  0  0  0  0  0999 V2000
    0.6205    2.2270    2.4279 C   0  0  0  0  0  0  0  0  0  0  0  0
    0.2105    1.2297    1.4546 C   0  0  0  0  0  0  0  0  0  0  0  0
   -0.1384    0.4252    0.6571 C   0  0  0  0  0  0  0  0  0  0  0  0
    1.0297   -0.8322    1.1149 C   0  0  0  0  0  0  0  0  0  0  0  0
    0.7533    1.0230   -0.5978 O   0  0  0  0  0  0  0  0  0  0  0  0
   -0.3689    0.1003   -0.7065 C   0  0  0  0  0  0  0  0  0  0  0  0
    0.3274   -1.2354   -1.3165 C   0  0  0  0  0  0  0  0  0  0  0  0
   -1.4833    0.1844   -1.2123 C   0  0  0  0  0  0  0  0  0  0  0  0
   -2.9390    0.3212   -1.8737 C   0  0  0  0  0  0  0  0  0  0  0  0
    1.0203    3.1473    3.3164 H   0  0  0  0  0  0  0  0  0  0  0  0
    1.3098   -0.3795    2.0703 H   0  0  0  0  0  0  0  0  0  0  0  0
    0.4574   -1.7166    1.1896 H   0  0  0  0  0  0  0  0  0  0  0  0
    1.7855   -0.6296    0.4111 H   0  0  0  0  0  0  0  0  0  0  0  0
   -0.5422   -1.9411   -1.5902 H   0  0  0  0  0  0  0  0  0  0  0  0
    1.0874   -1.5910   -0.7869 H   0  0  0  0  0  0  0  0  0  0  0  0
    0.5887   -0.7421   -2.3297 H   0  0  0  0  0  0  0  0  0  0  0  0
   -3.7187    0.4092   -2.2280 H   0  0  0  0  0  0  0  0  0  0  0  0
  1  2  3  0
  2  3  1  0
  3  4  1  0
  3  5  1  0
  5  6  1  0
  6  7  1  0
  6  8  1  0
  8  9  3  0
  6  3  1  0
  1 10  1  0
  4 11  1  0
  4 12  1  0
  4 13  1  0
  7 14  1  0
  7 15  1  0
  7 16  1  0
  9 17  1  0
M  END
