
     RDKit          3D

 15 14  0  0  0  0  0  0  0  0999 V2000
   -2.6254    0.1893    0.4882 C   0  0  0  0  0  0  0  0  0  0  0  0
   -1.7540   -0.2615    1.3168 C   0  0  0  0  0  0  0  0  0  0  0  0
   -0.8561   -0.7489    2.1791 C   0  0  0  0  0  0  0  0  0  0  0  0
    0.2601    0.1913    2.0097 C   0  0  0  0  0  0  0  0  0  0  0  0
    1.1036    0.9846    2.3114 O   0  0  0  0  0  0  0  0  0  0  0  0
    0.5987    0.1137    0.4904 C   0  0  0  0  0  0  0  0  0  0  0  0
    0.9547    0.0447   -1.0030 C   0  0  0  0  0  0  0  0  0  0  0  0
    1.3110   -0.0513   -2.4947 C   0  0  0  0  0  0  0  0  0  0  0  0
    2.6640    0.0236   -2.3767 O   0  0  0  0  0  0  0  0  0  0  0  0
   -3.8171    0.8296   -0.6785 H   0  0  0  0  0  0  0  0  0  0  0  0
   -1.4232   -0.2220    3.2099 H   0  0  0  0  0  0  0  0  0  0  0  0
   -0.7801   -1.7385    2.1838 H   0  0  0  0  0  0  0  0  0  0  0  0
    0.8775    0.9615   -2.8906 H   0  0  0  0  0  0  0  0  0  0  0  0
    0.6791   -0.8187   -2.7830 H   0  0  0  0  0  0  0  0  0  0  0  0
    2.8071    0.5027   -1.4215 H   0  0  0  0  0  0  0  0  0  0  0  0
  1  2  3  0
  2  3  1  0
  3  4  1  0
  4  5  2  0
  4  6  1  0
  6  7  3  0
  7  8  1  0
  8  9  1  0
  1 10  1  0
  3 11  1  0
  3 12  1  0
  8 13  1  0
  8 14  1  0
  9 15  1  0
M  END
