
     RDKit          3D

 17 19  0  0  0  0  0  0  0  0999 V2000
    3.2608    1.0679   -0.5605 C   0  0  0  0  0  0  0  0  0  0  0  0
    2.1675    0.8763   -0.4170 C   0  0  0  0  0  0  0  0  0  0  0  0
    0.7406    0.6187   -0.2299 C   0  0  0  0  0  0  0  0  0  0  0  0
   -0.2620    1.1042   -0.9383 C   0  0  0  0  0  0  0  0  0  0  0  0
   -1.5580    0.5721   -0.3852 C   0  0  0  0  0  0  0  0  0  0  0  0
   -1.5472   -0.8996   -0.1147 C   0  0  0  0  0  0  0  0  0  0  0  0
   -0.2188   -1.5595    0.2460 C   0  0  0  0  0  0  0  0  0  0  0  0
    0.2320   -0.2606    0.8474 C   0  0  0  0  0  0  0  0  0  0  0  0
   -1.1994    0.1252    0.9495 C   0  0  0  0  0  0  0  0  0  0  0  0
    4.3099    1.2429   -0.7046 H   0  0  0  0  0  0  0  0  0  0  0  0
   -0.1310    1.7652   -1.7507 H   0  0  0  0  0  0  0  0  0  0  0  0
   -2.4685    1.0707   -0.6413 H   0  0  0  0  0  0  0  0  0  0  0  0
   -2.4414   -1.4770   -0.1841 H   0  0  0  0  0  0  0  0  0  0  0  0
   -0.3149   -2.4057    0.9461 H   0  0  0  0  0  0  0  0  0  0  0  0
    0.3393   -1.8274   -0.6730 H   0  0  0  0  0  0  0  0  0  0  0  0
    0.8160   -0.2914    1.7587 H   0  0  0  0  0  0  0  0  0  0  0  0
   -1.7248    0.2781    1.8516 H   0  0  0  0  0  0  0  0  0  0  0  0
  1  2  3  0
  2  3  1  0
  3  4  2  0
  4  5  1  0
  5  6  1  0
  6  7  1  0
  7  8  1  0
  8  9  1  0
  8  3  1  0
  9  5  1  0
  9  6  1  0
  1 10  1  0
  4 11  1  0
  5 12  1  0
  6 13  1  0
  7 14  1  0
  7 15  1  0
  8 16  1  0
  9 17  1  0
M  END
