
     RDKit          3D

 17 18  0  0  0  0  0  0  0  0999 V2000
    2.9299   -1.2930    0.0693 C   0  0  0  0  0  0  0  0  0  0  0  0
    1.8284   -0.8715    0.2092 C   0  0  0  0  0  0  0  0  0  0  0  0
    0.4819   -0.3580    0.3741 C   0  0  0  0  0  0  0  0  0  0  0  0
   -0.1044   -0.2514    1.6045 O   0  0  0  0  0  0  0  0  0  0  0  0
    0.1093    0.8953    0.8813 C   0  0  0  0  0  0  0  0  0  0  0  0
   -0.7887    1.1771   -0.2907 C   0  0  0  0  0  0  0  0  0  0  0  0
   -0.3489    2.2467   -1.0676 O   0  0  0  0  0  0  0  0  0  0  0  0
   -0.3894   -0.1945   -0.8438 C   0  0  0  0  0  0  0  0  0  0  0  0
   -1.5527   -1.1466   -0.8005 C   0  0  0  0  0  0  0  0  0  0  0  0
    3.9326   -1.6577   -0.0630 H   0  0  0  0  0  0  0  0  0  0  0  0
    0.8390    1.6547    1.1993 H   0  0  0  0  0  0  0  0  0  0  0  0
   -1.8600    1.2355   -0.0161 H   0  0  0  0  0  0  0  0  0  0  0  0
    0.3277    2.7768   -0.5843 H   0  0  0  0  0  0  0  0  0  0  0  0
    0.1187   -0.0624   -1.7950 H   0  0  0  0  0  0  0  0  0  0  0  0
   -1.2319   -2.1792   -1.0296 H   0  0  0  0  0  0  0  0  0  0  0  0
   -1.9365   -1.1555    0.2424 H   0  0  0  0  0  0  0  0  0  0  0  0
   -2.3549   -0.8163   -1.4862 H   0  0  0  0  0  0  0  0  0  0  0  0
  1  2  3  0
  2  3  1  0
  3  4  1  0
  4  5  1  0
  5  6  1  0
  6  7  1  0
  6  8  1  0
  8  9  1  0
  5  3  1  0
  8  3  1  0
  1 10  1  0
  5 11  1  0
  6 12  1  0
  7 13  1  0
  8 14  1  0
  9 15  1  0
  9 16  1  0
  9 17  1  0
M  END
