
     RDKit          3D

 19 18  0  0  0  0  0  0  0  0999 V2000
   -3.0448    1.1805    0.0823 C   0  0  0  0  0  0  0  0  0  0  0  0
   -2.2897    0.3316   -0.3468 C   0  0  0  0  0  0  0  0  0  0  0  0
   -1.3748   -0.7035   -0.8598 C   0  0  0  0  0  0  0  0  0  0  0  0
   -1.6056   -1.9461   -0.1199 C   0  0  0  0  0  0  0  0  0  0  0  0
   -2.0566   -2.9325   -0.6612 O   0  0  0  0  0  0  0  0  0  0  0  0
    0.0525   -0.2164   -0.7760 C   0  0  0  0  0  0  0  0  0  0  0  0
    0.4291    0.0775    0.5291 O   0  0  0  0  0  0  0  0  0  0  0  0
    1.7502    0.5126    0.4841 C   0  0  0  0  0  0  0  0  0  0  0  0
    2.3096    0.8714    1.8200 C   0  0  0  0  0  0  0  0  0  0  0  0
   -3.6979    1.9389    0.4500 H   0  0  0  0  0  0  0  0  0  0  0  0
   -1.6530   -0.8483   -1.9238 H   0  0  0  0  0  0  0  0  0  0  0  0
   -1.3729   -1.9960    0.9301 H   0  0  0  0  0  0  0  0  0  0  0  0
    0.1425    0.6678   -1.4414 H   0  0  0  0  0  0  0  0  0  0  0  0
    0.7111   -0.9946   -1.2111 H   0  0  0  0  0  0  0  0  0  0  0  0
    1.8013    1.4138   -0.1663 H   0  0  0  0  0  0  0  0  0  0  0  0
    2.3453   -0.3008    0.0388 H   0  0  0  0  0  0  0  0  0  0  0  0
    3.4278    0.9154    1.7062 H   0  0  0  0  0  0  0  0  0  0  0  0
    2.1010    0.1231    2.6079 H   0  0  0  0  0  0  0  0  0  0  0  0
    2.0248    1.9056    2.1543 H   0  0  0  0  0  0  0  0  0  0  0  0
  1  2  3  0
  2  3  1  0
  3  4  1  0
  4  5  2  0
  3  6  1  0
  6  7  1  0
  7  8  1  0
  8  9  1  0
  1 10  1  0
  3 11  1  0
  4 12  1  0
  6 13  1  0
  6 14  1  0
  8 15  1  0
  8 16  1  0
  9 17  1  0
  9 18  1  0
  9 19  1  0
M  END
