
     RDKit          3D

 15 16  0  0  0  0  0  0  0  0999 V2000
    2.2630   -0.9474    1.6460 C   0  0  0  0  0  0  0  0  0  0  0  0
    1.2961   -1.1879    0.9535 C   0  0  0  0  0  0  0  0  0  0  0  0
    0.1744   -1.4600    0.1224 C   0  0  0  0  0  0  0  0  0  0  0  0
   -0.2187   -2.6353    0.0102 O   0  0  0  0  0  0  0  0  0  0  0  0
   -0.5161   -0.3948   -0.5935 C   0  0  0  0  0  0  0  0  0  0  0  0
   -1.0602    0.6210    0.4403 C   0  0  0  0  0  0  0  0  0  0  0  0
   -1.0479    1.4818   -0.8040 C   0  0  0  0  0  0  0  0  0  0  0  0
   -0.0048    1.9529   -1.4552 O   0  0  0  0  0  0  0  0  0  0  0  0
    0.3513    0.7973   -0.9337 C   0  0  0  0  0  0  0  0  0  0  0  0
    3.1180   -0.7375    2.2434 H   0  0  0  0  0  0  0  0  0  0  0  0
   -1.2506   -0.6805   -1.3540 H   0  0  0  0  0  0  0  0  0  0  0  0
   -0.2755    0.8188    1.1626 H   0  0  0  0  0  0  0  0  0  0  0  0
   -2.0502    0.3527    0.7729 H   0  0  0  0  0  0  0  0  0  0  0  0
   -1.8209    1.0551   -1.5227 H   0  0  0  0  0  0  0  0  0  0  0  0
    1.0422    0.9638   -0.0450 H   0  0  0  0  0  0  0  0  0  0  0  0
  1  2  3  0
  2  3  1  0
  3  4  2  0
  3  5  1  0
  5  6  1  0
  6  7  1  0
  7  8  1  0
  8  9  1  0
  9  5  1  0
  9  7  1  0
  1 10  1  0
  5 11  1  0
  6 12  1  0
  6 13  1  0
  7 14  1  0
  9 15  1  0
M  END
