
     RDKit          3D

 17 16  0  0  0  0  0  0  0  0999 V2000
   -0.2899    3.2006   -0.1402 C   0  0  0  0  0  0  0  0  0  0  0  0
   -0.0821    2.0225   -0.2616 C   0  0  0  0  0  0  0  0  0  0  0  0
    0.1708    0.5545   -0.4364 C   0  0  0  0  0  0  0  0  0  0  0  0
    1.1972    0.1672    0.6241 C   0  0  0  0  0  0  0  0  0  0  0  0
    1.5412   -1.2501    0.5426 C   0  0  0  0  0  0  0  0  0  0  0  0
    2.2228   -1.6520   -0.4126 O   0  0  0  0  0  0  0  0  0  0  0  0
   -1.1334   -0.1047   -0.2743 C   0  0  0  0  0  0  0  0  0  0  0  0
   -1.3776   -1.5498   -0.4445 C   0  0  0  0  0  0  0  0  0  0  0  0
   -2.1173    0.5848    0.0286 O   0  0  0  0  0  0  0  0  0  0  0  0
   -0.4778    4.2476   -0.0137 H   0  0  0  0  0  0  0  0  0  0  0  0
    0.5561    0.4362   -1.4500 H   0  0  0  0  0  0  0  0  0  0  0  0
    2.1174    0.7694    0.4409 H   0  0  0  0  0  0  0  0  0  0  0  0
    0.8510    0.4455    1.6314 H   0  0  0  0  0  0  0  0  0  0  0  0
    1.2655   -2.0315    1.2398 H   0  0  0  0  0  0  0  0  0  0  0  0
   -1.9044   -1.7446   -1.4177 H   0  0  0  0  0  0  0  0  0  0  0  0
   -2.0769   -1.9427    0.3561 H   0  0  0  0  0  0  0  0  0  0  0  0
   -0.4625   -2.1528   -0.4084 H   0  0  0  0  0  0  0  0  0  0  0  0
  1  2  3  0
  2  3  1  0
  3  4  1  0
  4  5  1  0
  5  6  2  0
  3  7  1  0
  7  8  1  0
  7  9  2  0
  1 10  1  0
  3 11  1  0
  4 12  1  0
  4 13  1  0
  5 14  1  0
  8 15  1  0
  8 16  1  0
  8 17  1  0
M  END
