
     RDKit          3D

 16 17  0  0  0  0  0  0  0  0999 V2000
    3.3258    1.2132   -0.1199 C   0  0  0  0  0  0  0  0  0  0  0  0
    2.1982    0.7510   -0.1690 C   0  0  0  0  0  0  0  0  0  0  0  0
    0.8757    0.2114   -0.2107 C   0  0  0  0  0  0  0  0  0  0  0  0
   -0.0381    0.4824   -1.0908 C   0  0  0  0  0  0  0  0  0  0  0  0
   -1.2883   -0.2628   -0.8182 C   0  0  0  0  0  0  0  0  0  0  0  0
   -2.0328    0.2286    0.3677 C   0  0  0  0  0  0  0  0  0  0  0  0
   -1.0929   -0.8736    0.5589 C   0  0  0  0  0  0  0  0  0  0  0  0
    0.3601   -0.7566    0.7636 C   0  0  0  0  0  0  0  0  0  0  0  0
    4.3041    1.6230   -0.0616 H   0  0  0  0  0  0  0  0  0  0  0  0
    0.0816    1.1547   -1.9121 H   0  0  0  0  0  0  0  0  0  0  0  0
   -1.7349   -0.9108   -1.5764 H   0  0  0  0  0  0  0  0  0  0  0  0
   -1.8120    1.2700    0.7430 H   0  0  0  0  0  0  0  0  0  0  0  0
   -3.1016    0.0060    0.3887 H   0  0  0  0  0  0  0  0  0  0  0  0
   -1.5233   -1.8722    0.7679 H   0  0  0  0  0  0  0  0  0  0  0  0
    0.8163   -1.7485    0.4533 H   0  0  0  0  0  0  0  0  0  0  0  0
    0.6621   -0.5156    1.8068 H   0  0  0  0  0  0  0  0  0  0  0  0
  1  2  3  0
  2  3  1  0
  3  4  2  0
  4  5  1  0
  5  6  1  0
  6  7  1  0
  7  8  1  0
  8  3  1  0
  7  5  1  0
  1  9  1  0
  4 10  1  0
  5 11  1  0
  6 12  1  0
  6 13  1  0
  7 14  1  0
  8 15  1  0
  8 16  1  0
M  END
