
     RDKit          3D

 19 19  0  0  0  0  0  0  0  0999 V2000
    2.6809   -0.0961    3.1537 C   0  0  0  0  0  0  0  0  0  0  0  0
    2.5253   -0.5742    2.3157 C   0  0  0  0  0  0  0  0  0  0  0  0
    2.2507   -1.3875    0.9364 C   0  0  0  0  0  0  0  0  0  0  0  0
    0.8271   -1.5231    0.6703 C   0  0  0  0  0  0  0  0  0  0  0  0
    0.1121   -0.4714    0.0858 C   0  0  0  0  0  0  0  0  0  0  0  0
   -0.6294    0.6357   -0.5487 C   0  0  0  0  0  0  0  0  0  0  0  0
   -1.2463    1.5285   -1.0631 C   0  0  0  0  0  0  0  0  0  0  0  0
   -2.8161    1.2721   -1.3201 C   0  0  0  0  0  0  0  0  0  0  0  0
   -1.9489    1.3384   -2.4762 C   0  0  0  0  0  0  0  0  0  0  0  0
    2.9128    0.5545    4.2809 H   0  0  0  0  0  0  0  0  0  0  0  0
    2.7017   -2.3806    1.1392 H   0  0  0  0  0  0  0  0  0  0  0  0
    2.8327   -0.7539    0.2087 H   0  0  0  0  0  0  0  0  0  0  0  0
    0.3352   -1.9046    1.6589 H   0  0  0  0  0  0  0  0  0  0  0  0
    0.7262   -2.4527   -0.0486 H   0  0  0  0  0  0  0  0  0  0  0  0
   -1.0713    2.6981   -1.0384 H   0  0  0  0  0  0  0  0  0  0  0  0
   -3.4473    2.0479   -0.9195 H   0  0  0  0  0  0  0  0  0  0  0  0
   -3.1041    0.2366   -0.8830 H   0  0  0  0  0  0  0  0  0  0  0  0
   -2.0184    2.1527   -3.1819 H   0  0  0  0  0  0  0  0  0  0  0  0
   -1.6230    0.3585   -2.9702 H   0  0  0  0  0  0  0  0  0  0  0  0
  1  2  3  0
  2  3  1  0
  3  4  1  0
  4  5  1  0
  5  6  3  0
  6  7  1  0
  7  8  1  0
  8  9  1  0
  9  7  1  0
  1 10  1  0
  3 11  1  0
  3 12  1  0
  4 13  1  0
  4 14  1  0
  7 15  1  0
  8 16  1  0
  8 17  1  0
  9 18  1  0
  9 19  1  0
M  END
