
     RDKit          3D

 17 17  0  0  0  0  0  0  0  0999 V2000
    0.7703    2.4888    1.4373 C   0  0  0  0  0  0  0  0  0  0  0  0
    0.4342    1.4902    0.7526 C   0  0  0  0  0  0  0  0  0  0  0  0
    0.0797    0.3665   -0.0171 C   0  0  0  0  0  0  0  0  0  0  0  0
   -1.1709    0.4539   -0.8163 C   0  0  0  0  0  0  0  0  0  0  0  0
   -1.4704   -0.8018   -1.4118 O   0  0  0  0  0  0  0  0  0  0  0  0
    0.0339   -0.8916    0.9554 C   0  0  0  0  0  0  0  0  0  0  0  0
    0.5160   -1.6661   -0.2720 C   0  0  0  0  0  0  0  0  0  0  0  0
    0.4533   -2.6897   -0.8485 O   0  0  0  0  0  0  0  0  0  0  0  0
    1.2794   -0.3620   -0.5621 C   0  0  0  0  0  0  0  0  0  0  0  0
    1.0339    3.3265    2.0142 H   0  0  0  0  0  0  0  0  0  0  0  0
   -1.0998    1.1709   -1.6825 H   0  0  0  0  0  0  0  0  0  0  0  0
   -2.0072    0.7704   -0.1940 H   0  0  0  0  0  0  0  0  0  0  0  0
   -2.1507   -1.2022   -0.7340 H   0  0  0  0  0  0  0  0  0  0  0  0
    0.6831   -0.8168    1.7835 H   0  0  0  0  0  0  0  0  0  0  0  0
   -1.0573   -1.1537    1.0690 H   0  0  0  0  0  0  0  0  0  0  0  0
    1.5300   -0.2825   -1.6130 H   0  0  0  0  0  0  0  0  0  0  0  0
    2.1424   -0.2008    0.1394 H   0  0  0  0  0  0  0  0  0  0  0  0
  1  2  3  0
  2  3  1  0
  3  4  1  0
  4  5  1  0
  3  6  1  0
  6  7  1  0
  7  8  2  0
  7  9  1  0
  9  3  1  0
  1 10  1  0
  4 11  1  0
  4 12  1  0
  5 13  1  0
  6 14  1  0
  6 15  1  0
  9 16  1  0
  9 17  1  0
M  END
