
     RDKit          3D

 23 23  0  0  0  0  0  0  0  0999 V2000
    3.1171   -2.2099    0.5732 C   0  0  0  0  0  0  0  0  0  0  0  0
    2.7924   -1.0806    0.3026 C   0  0  0  0  0  0  0  0  0  0  0  0
    2.3933    0.2941   -0.0532 C   0  0  0  0  0  0  0  0  0  0  0  0
    1.5840    0.4608   -1.3381 C   0  0  0  0  0  0  0  0  0  0  0  0
    0.9999    0.7260    0.0406 C   0  0  0  0  0  0  0  0  0  0  0  0
   -0.0763   -0.2045    0.5000 C   0  0  0  0  0  0  0  0  0  0  0  0
   -1.4450    0.4700    0.5156 C   0  0  0  0  0  0  0  0  0  0  0  0
   -1.8176    0.9536   -0.8761 C   0  0  0  0  0  0  0  0  0  0  0  0
   -2.5090   -0.5202    0.9393 C   0  0  0  0  0  0  0  0  0  0  0  0
    3.4082   -3.1993    0.8139 H   0  0  0  0  0  0  0  0  0  0  0  0
    3.2228    1.0138    0.0338 H   0  0  0  0  0  0  0  0  0  0  0  0
    1.2919   -0.4564   -1.8690 H   0  0  0  0  0  0  0  0  0  0  0  0
    1.8012    1.3401   -1.9812 H   0  0  0  0  0  0  0  0  0  0  0  0
    0.8338    1.8035    0.3221 H   0  0  0  0  0  0  0  0  0  0  0  0
   -0.1075   -1.0943   -0.1571 H   0  0  0  0  0  0  0  0  0  0  0  0
    0.0916   -0.5836    1.5361 H   0  0  0  0  0  0  0  0  0  0  0  0
   -1.4546    1.3391    1.1793 H   0  0  0  0  0  0  0  0  0  0  0  0
   -2.8973    1.1781   -0.8976 H   0  0  0  0  0  0  0  0  0  0  0  0
   -1.2645    1.8744   -1.0805 H   0  0  0  0  0  0  0  0  0  0  0  0
   -1.5717    0.1232   -1.5900 H   0  0  0  0  0  0  0  0  0  0  0  0
   -3.4780   -0.1526    0.5227 H   0  0  0  0  0  0  0  0  0  0  0  0
   -2.5838   -0.5486    2.0484 H   0  0  0  0  0  0  0  0  0  0  0  0
   -2.3308   -1.5266    0.5151 H   0  0  0  0  0  0  0  0  0  0  0  0
  1  2  3  0
  2  3  1  0
  3  4  1  0
  4  5  1  0
  5  6  1  0
  6  7  1  0
  7  8  1  0
  7  9  1  0
  5  3  1  0
  1 10  1  0
  3 11  1  0
  4 12  1  0
  4 13  1  0
  5 14  1  0
  6 15  1  0
  6 16  1  0
  7 17  1  0
  8 18  1  0
  8 19  1  0
  8 20  1  0
  9 21  1  0
  9 22  1  0
  9 23  1  0
M  END
