
     RDKit          3D

 16 17  0  0  0  0  0  0  0  0999 V2000
    3.0122   -0.0802    0.4002 C   0  0  0  0  0  0  0  0  0  0  0  0
    1.8288   -0.2897    0.2211 C   0  0  0  0  0  0  0  0  0  0  0  0
    0.3997   -0.5423   -0.0108 C   0  0  0  0  0  0  0  0  0  0  0  0
    0.0873   -1.8831    0.1073 O   0  0  0  0  0  0  0  0  0  0  0  0
   -0.1312    0.0637   -1.2947 C   0  0  0  0  0  0  0  0  0  0  0  0
   -1.1806    0.8511   -0.5740 C   0  0  0  0  0  0  0  0  0  0  0  0
   -1.9614    0.2541    0.5403 C   0  0  0  0  0  0  0  0  0  0  0  0
   -0.5181    0.3759    0.7553 C   0  0  0  0  0  0  0  0  0  0  0  0
    4.0485    0.0979    0.5703 H   0  0  0  0  0  0  0  0  0  0  0  0
    0.5455   -2.2312    0.9154 H   0  0  0  0  0  0  0  0  0  0  0  0
    0.6509    0.6983   -1.7697 H   0  0  0  0  0  0  0  0  0  0  0  0
   -0.4934   -0.6951   -2.0125 H   0  0  0  0  0  0  0  0  0  0  0  0
   -1.2042    1.9259   -0.7612 H   0  0  0  0  0  0  0  0  0  0  0  0
   -2.4112   -0.7410    0.4762 H   0  0  0  0  0  0  0  0  0  0  0  0
   -2.6016    0.9843    1.0939 H   0  0  0  0  0  0  0  0  0  0  0  0
   -0.0714    1.2114    1.3428 H   0  0  0  0  0  0  0  0  0  0  0  0
  1  2  3  0
  2  3  1  0
  3  4  1  0
  3  5  1  0
  5  6  1  0
  6  7  1  0
  7  8  1  0
  8  3  1  0
  8  6  1  0
  1  9  1  0
  4 10  1  0
  5 11  1  0
  5 12  1  0
  6 13  1  0
  7 14  1  0
  7 15  1  0
  8 16  1  0
M  END
