
     RDKit          3D

 23 23  0  0  0  0  0  0  0  0999 V2000
    3.0520    0.0470    0.6496 C   0  0  0  0  0  0  0  0  0  0  0  0
    2.0921    0.3982   -0.0020 C   0  0  0  0  0  0  0  0  0  0  0  0
    0.9160    0.8318   -0.7717 C   0  0  0  0  0  0  0  0  0  0  0  0
    0.8018   -0.0302   -2.0136 C   0  0  0  0  0  0  0  0  0  0  0  0
   -0.2949    0.5131    0.0799 C   0  0  0  0  0  0  0  0  0  0  0  0
   -1.6030    0.8977   -0.5665 C   0  0  0  0  0  0  0  0  0  0  0  0
   -0.2510    0.6457    1.5529 C   0  0  0  0  0  0  0  0  0  0  0  0
   -0.1787   -0.6943    0.9227 C   0  0  0  0  0  0  0  0  0  0  0  0
   -1.3324   -1.6662    1.0422 C   0  0  0  0  0  0  0  0  0  0  0  0
    3.9063   -0.2743    1.2120 H   0  0  0  0  0  0  0  0  0  0  0  0
    0.9785    1.9078   -1.0280 H   0  0  0  0  0  0  0  0  0  0  0  0
    0.6393    0.6125   -2.9044 H   0  0  0  0  0  0  0  0  0  0  0  0
    1.7044   -0.6675   -2.1138 H   0  0  0  0  0  0  0  0  0  0  0  0
   -0.0615   -0.7268   -1.9802 H   0  0  0  0  0  0  0  0  0  0  0  0
   -1.4660    1.9243   -0.9745 H   0  0  0  0  0  0  0  0  0  0  0  0
   -2.4444    0.9486    0.1488 H   0  0  0  0  0  0  0  0  0  0  0  0
   -1.8470    0.2458   -1.4318 H   0  0  0  0  0  0  0  0  0  0  0  0
    0.6790    1.1208    1.9543 H   0  0  0  0  0  0  0  0  0  0  0  0
   -1.1634    0.9580    2.0941 H   0  0  0  0  0  0  0  0  0  0  0  0
    0.8102   -1.1931    0.9953 H   0  0  0  0  0  0  0  0  0  0  0  0
   -2.0861   -1.3617    1.7669 H   0  0  0  0  0  0  0  0  0  0  0  0
   -1.8501   -1.7473    0.0522 H   0  0  0  0  0  0  0  0  0  0  0  0
   -1.0010   -2.6899    1.3156 H   0  0  0  0  0  0  0  0  0  0  0  0
  1  2  3  0
  2  3  1  0
  3  4  1  0
  3  5  1  0
  5  6  1  0
  5  7  1  0
  7  8  1  0
  8  9  1  0
  8  5  1  0
  1 10  1  0
  3 11  1  0
  4 12  1  0
  4 13  1  0
  4 14  1  0
  6 15  1  0
  6 16  1  0
  6 17  1  0
  7 18  1  0
  7 19  1  0
  8 20  1  0
  9 21  1  0
  9 22  1  0
  9 23  1  0
M  END
