
     RDKit          3D

 13 13  0  0  0  0  0  0  0  0999 V2000
    2.6383   -0.6874    0.3879 C   0  0  0  0  0  0  0  0  0  0  0  0
    1.4458   -0.8575    0.4302 C   0  0  0  0  0  0  0  0  0  0  0  0
   -0.0239   -1.0508    0.5024 C   0  0  0  0  0  0  0  0  0  0  0  0
   -0.4916   -0.1235    1.4323 O   0  0  0  0  0  0  0  0  0  0  0  0
   -0.7839    1.0116    0.6595 C   0  0  0  0  0  0  0  0  0  0  0  0
   -1.1558    0.4761   -0.7061 C   0  0  0  0  0  0  0  0  0  0  0  0
   -0.5723   -0.7636   -0.7228 O   0  0  0  0  0  0  0  0  0  0  0  0
    3.6929   -0.5340    0.3667 H   0  0  0  0  0  0  0  0  0  0  0  0
   -0.2376   -2.0576    0.8763 H   0  0  0  0  0  0  0  0  0  0  0  0
    0.1461    1.6041    0.5931 H   0  0  0  0  0  0  0  0  0  0  0  0
   -1.6510    1.5827    1.0356 H   0  0  0  0  0  0  0  0  0  0  0  0
   -0.7387    1.0681   -1.5276 H   0  0  0  0  0  0  0  0  0  0  0  0
   -2.2683    0.3318   -0.8081 H   0  0  0  0  0  0  0  0  0  0  0  0
  1  2  3  0
  2  3  1  0
  3  4  1  0
  4  5  1  0
  5  6  1  0
  6  7  1  0
  7  3  1  0
  1  8  1  0
  3  9  1  0
  5 10  1  0
  5 11  1  0
  6 12  1  0
  6 13  1  0
M  END
