
     RDKit          3D

 14 14  0  0  0  0  0  0  0  0999 V2000
    2.6431   -1.2567    0.8910 C   0  0  0  0  0  0  0  0  0  0  0  0
    1.5999   -0.5849    0.7876 C   0  0  0  0  0  0  0  0  0  0  0  0
    0.3703    0.2277    0.6761 C   0  0  0  0  0  0  0  0  0  0  0  0
    0.1921    0.7358   -0.7262 C   0  0  0  0  0  0  0  0  0  0  0  0
   -1.3840    0.8575   -0.6908 C   0  0  0  0  0  0  0  0  0  0  0  0
   -1.8391    1.8220   -1.1549 O   0  0  0  0  0  0  0  0  0  0  0  0
   -1.6867   -0.3894   -0.0229 C   0  0  0  0  0  0  0  0  0  0  0  0
   -0.7346   -0.5408    1.0051 O   0  0  0  0  0  0  0  0  0  0  0  0
    3.5413   -1.8141    0.9755 H   0  0  0  0  0  0  0  0  0  0  0  0
    0.4122    1.1158    1.3224 H   0  0  0  0  0  0  0  0  0  0  0  0
    0.3647   -0.0620   -1.5115 H   0  0  0  0  0  0  0  0  0  0  0  0
    0.6333    1.6850   -0.9617 H   0  0  0  0  0  0  0  0  0  0  0  0
   -2.6847   -0.5414    0.3874 H   0  0  0  0  0  0  0  0  0  0  0  0
   -1.4277   -1.2544   -0.7199 H   0  0  0  0  0  0  0  0  0  0  0  0
  1  2  3  0
  2  3  1  0
  3  4  1  0
  4  5  1  0
  5  6  2  0
  5  7  1  0
  7  8  1  0
  8  3  1  0
  1  9  1  0
  3 10  1  0
  4 11  1  0
  4 12  1  0
  7 13  1  0
  7 14  1  0
M  END
