
     RDKit          3D

 19 19  0  0  0  0  0  0  0  0999 V2000
    3.0894   -0.8760    0.1301 C   0  0  0  0  0  0  0  0  0  0  0  0
    2.1807   -0.1995   -0.2855 C   0  0  0  0  0  0  0  0  0  0  0  0
    1.0736    0.5966   -0.7752 C   0  0  0  0  0  0  0  0  0  0  0  0
    0.8269    1.8815    0.0240 C   0  0  0  0  0  0  0  0  0  0  0  0
    0.0772    1.0769    0.9122 O   0  0  0  0  0  0  0  0  0  0  0  0
   -0.2673    0.3305   -0.1831 C   0  0  0  0  0  0  0  0  0  0  0  0
   -0.6414   -1.0981    0.0570 C   0  0  0  0  0  0  0  0  0  0  0  0
   -2.0525   -1.0716    0.6633 C   0  0  0  0  0  0  0  0  0  0  0  0
   -1.9559   -0.3322    1.8545 O   0  0  0  0  0  0  0  0  0  0  0  0
    3.8910   -1.4618    0.5115 H   0  0  0  0  0  0  0  0  0  0  0  0
    1.0969    0.7457   -1.8691 H   0  0  0  0  0  0  0  0  0  0  0  0
    0.1920    2.5479   -0.5973 H   0  0  0  0  0  0  0  0  0  0  0  0
    1.7296    2.3241    0.4576 H   0  0  0  0  0  0  0  0  0  0  0  0
   -1.0601    0.8301   -0.7904 H   0  0  0  0  0  0  0  0  0  0  0  0
    0.0474   -1.6152    0.7511 H   0  0  0  0  0  0  0  0  0  0  0  0
   -0.7144   -1.6438   -0.8876 H   0  0  0  0  0  0  0  0  0  0  0  0
   -2.4377   -2.0783    0.8436 H   0  0  0  0  0  0  0  0  0  0  0  0
   -2.7317   -0.5476   -0.0275 H   0  0  0  0  0  0  0  0  0  0  0  0
   -2.3437    0.5908    1.7327 H   0  0  0  0  0  0  0  0  0  0  0  0
  1  2  3  0
  2  3  1  0
  3  4  1  0
  4  5  1  0
  5  6  1  0
  6  7  1  0
  7  8  1  0
  8  9  1  0
  6  3  1  0
  1 10  1  0
  3 11  1  0
  4 12  1  0
  4 13  1  0
  6 14  1  0
  7 15  1  0
  7 16  1  0
  8 17  1  0
  8 18  1  0
  9 19  1  0
M  END
