
     RDKit          3D

 11 10  0  0  0  0  0  0  0  0999 V2000
    2.3560    0.6006   -0.2952 C   0  0  0  0  0  0  0  0  0  0  0  0
    1.1222    0.0854   -0.3547 C   0  0  0  0  0  0  0  0  0  0  0  0
   -0.1510   -0.4717   -0.4102 C   0  0  0  0  0  0  0  0  0  0  0  0
   -1.0957    0.5387    0.3035 C   0  0  0  0  0  0  0  0  0  0  0  0
   -0.2213   -1.6830    0.2921 O   0  0  0  0  0  0  0  0  0  0  0  0
    3.3148    1.0023   -0.2559 H   0  0  0  0  0  0  0  0  0  0  0  0
   -0.4882   -0.6831   -1.4171 H   0  0  0  0  0  0  0  0  0  0  0  0
   -0.6459    0.6617    1.3459 H   0  0  0  0  0  0  0  0  0  0  0  0
   -2.1183    0.2476    0.3759 H   0  0  0  0  0  0  0  0  0  0  0  0
   -0.8955    1.5258   -0.1883 H   0  0  0  0  0  0  0  0  0  0  0  0
   -1.1771   -1.8243    0.6041 H   0  0  0  0  0  0  0  0  0  0  0  0
  1  2  3  0
  2  3  1  0
  3  4  1  0
  3  5  1  0
  1  6  1  0
  3  7  1  0
  4  8  1  0
  4  9  1  0
  4 10  1  0
  5 11  1  0
M  END
