
     RDKit          3D

 15 14  0  0  0  0  0  0  0  0999 V2000
    1.9554    0.1825   -1.6490 C   0  0  0  0  0  0  0  0  0  0  0  0
    1.0534    0.1197   -0.8458 C   0  0  0  0  0  0  0  0  0  0  0  0
   -0.0335    0.0668    0.1362 C   0  0  0  0  0  0  0  0  0  0  0  0
   -1.2521    0.7092   -0.4631 C   0  0  0  0  0  0  0  0  0  0  0  0
   -0.2925   -1.4063    0.4459 C   0  0  0  0  0  0  0  0  0  0  0  0
    0.3985    0.7017    1.3955 C   0  0  0  0  0  0  0  0  0  0  0  0
   -0.3878    1.3575    2.0485 O   0  0  0  0  0  0  0  0  0  0  0  0
    2.7527    0.2557   -2.3550 H   0  0  0  0  0  0  0  0  0  0  0  0
   -1.1225    1.8111   -0.4412 H   0  0  0  0  0  0  0  0  0  0  0  0
   -1.2601    0.4416   -1.5575 H   0  0  0  0  0  0  0  0  0  0  0  0
   -2.1941    0.4135    0.0258 H   0  0  0  0  0  0  0  0  0  0  0  0
   -0.6007   -1.5430    1.5067 H   0  0  0  0  0  0  0  0  0  0  0  0
    0.6317   -1.9636    0.2602 H   0  0  0  0  0  0  0  0  0  0  0  0
   -1.0572   -1.7467   -0.2685 H   0  0  0  0  0  0  0  0  0  0  0  0
    1.4089    0.6002    1.7615 H   0  0  0  0  0  0  0  0  0  0  0  0
  1  2  3  0
  2  3  1  0
  3  4  1  0
  3  5  1  0
  3  6  1  0
  6  7  2  0
  1  8  1  0
  4  9  1  0
  4 10  1  0
  4 11  1  0
  5 12  1  0
  5 13  1  0
  5 14  1  0
  6 15  1  0
M  END
