
     RDKit          3D

 19 20  0  0  0  0  0  0  0  0999 V2000
    1.8113    2.2823   -2.2284 C   0  0  0  0  0  0  0  0  0  0  0  0
    1.3852    1.4754   -1.4726 C   0  0  0  0  0  0  0  0  0  0  0  0
    0.9497    0.6086   -0.6809 C   0  0  0  0  0  0  0  0  0  0  0  0
    2.3459    0.2099   -0.0632 O   0  0  0  0  0  0  0  0  0  0  0  0
    1.5533   -0.7941   -0.3416 C   0  0  0  0  0  0  0  0  0  0  0  0
    0.0628   -0.9453   -0.8299 C   0  0  0  0  0  0  0  0  0  0  0  0
   -0.0007    0.1490    0.2871 C   0  0  0  0  0  0  0  0  0  0  0  0
   -1.3051    0.6175    0.6700 C   0  0  0  0  0  0  0  0  0  0  0  0
   -1.8399   -0.1828    1.8438 C   0  0  0  0  0  0  0  0  0  0  0  0
    2.3334    3.2844   -3.1607 H   0  0  0  0  0  0  0  0  0  0  0  0
    1.3866   -1.4300    0.6208 H   0  0  0  0  0  0  0  0  0  0  0  0
   -0.3218   -1.8759   -0.8498 H   0  0  0  0  0  0  0  0  0  0  0  0
    0.0495   -0.5210   -1.9182 H   0  0  0  0  0  0  0  0  0  0  0  0
    0.6263   -0.2064    1.1801 H   0  0  0  0  0  0  0  0  0  0  0  0
   -2.0624    0.2417   -0.1511 H   0  0  0  0  0  0  0  0  0  0  0  0
   -1.4432    1.6700    0.6740 H   0  0  0  0  0  0  0  0  0  0  0  0
   -1.7994    0.1965    2.9117 H   0  0  0  0  0  0  0  0  0  0  0  0
   -0.9887   -1.0516    1.9379 H   0  0  0  0  0  0  0  0  0  0  0  0
   -2.7429   -0.7653    1.5712 H   0  0  0  0  0  0  0  0  0  0  0  0
  1  2  3  0
  2  3  1  0
  3  4  1  0
  4  5  1  0
  5  6  1  0
  6  7  1  0
  7  8  1  0
  8  9  1  0
  5  3  1  0
  7  3  1  0
  1 10  1  0
  5 11  1  0
  6 12  1  0
  6 13  1  0
  7 14  1  0
  8 15  1  0
  8 16  1  0
  9 17  1  0
  9 18  1  0
  9 19  1  0
M  END
