
     RDKit          3D

 19 20  0  0  0  0  0  0  0  0999 V2000
   -2.6661    2.5755   -0.5429 C   0  0  0  0  0  0  0  0  0  0  0  0
   -1.9449    1.6326   -0.7091 C   0  0  0  0  0  0  0  0  0  0  0  0
   -1.0330    0.4726   -0.8984 C   0  0  0  0  0  0  0  0  0  0  0  0
    0.3669    0.5010   -0.5530 C   0  0  0  0  0  0  0  0  0  0  0  0
    1.1332   -0.4661    0.3248 C   0  0  0  0  0  0  0  0  0  0  0  0
    2.5445   -0.0026    0.6233 C   0  0  0  0  0  0  0  0  0  0  0  0
    0.1794   -0.0298    1.2784 O   0  0  0  0  0  0  0  0  0  0  0  0
   -0.7274   -0.2806    0.2713 C   0  0  0  0  0  0  0  0  0  0  0  0
   -0.8523   -1.7738    0.0342 C   0  0  0  0  0  0  0  0  0  0  0  0
   -3.3048    3.4133   -0.3844 H   0  0  0  0  0  0  0  0  0  0  0  0
   -1.2480    0.0046   -1.9060 H   0  0  0  0  0  0  0  0  0  0  0  0
    0.6220    1.5280   -0.1307 H   0  0  0  0  0  0  0  0  0  0  0  0
    1.1460   -1.5080    0.0678 H   0  0  0  0  0  0  0  0  0  0  0  0
    2.6625    0.4118    1.6206 H   0  0  0  0  0  0  0  0  0  0  0  0
    2.7998    0.7598   -0.1578 H   0  0  0  0  0  0  0  0  0  0  0  0
    3.2944   -0.8104    0.4993 H   0  0  0  0  0  0  0  0  0  0  0  0
   -0.5042   -2.3967    0.8497 H   0  0  0  0  0  0  0  0  0  0  0  0
   -1.9704   -1.9559   -0.0212 H   0  0  0  0  0  0  0  0  0  0  0  0
   -0.4976   -2.0752   -0.9813 H   0  0  0  0  0  0  0  0  0  0  0  0
  1  2  3  0
  2  3  1  0
  3  4  1  0
  4  5  1  0
  5  6  1  0
  5  7  1  0
  7  8  1  0
  8  9  1  0
  8  3  1  0
  8  4  1  0
  1 10  1  0
  3 11  1  0
  4 12  1  0
  5 13  1  0
  6 14  1  0
  6 15  1  0
  6 16  1  0
  9 17  1  0
  9 18  1  0
  9 19  1  0
M  END
