
     RDKit          3D

 21 20  0  0  0  0  0  0  0  0999 V2000
    2.2739    0.6690    2.1583 C   0  0  0  0  0  0  0  0  0  0  0  0
    2.0332    0.5403    0.8823 C   0  0  0  0  0  0  0  0  0  0  0  0
    1.7478    0.4106   -0.5279 C   0  0  0  0  0  0  0  0  0  0  0  0
    0.7283   -0.6818   -0.8019 C   0  0  0  0  0  0  0  0  0  0  0  0
    0.5775   -0.7114   -2.2062 O   0  0  0  0  0  0  0  0  0  0  0  0
   -0.6243   -0.3183   -0.2624 C   0  0  0  0  0  0  0  0  0  0  0  0
   -1.5977   -1.3763   -0.8034 C   0  0  0  0  0  0  0  0  0  0  0  0
   -0.7074   -0.2175    1.1039 O   0  0  0  0  0  0  0  0  0  0  0  0
   -1.2257    1.0642    1.3970 C   0  0  0  0  0  0  0  0  0  0  0  0
    2.4682    0.7663    3.1006 H   0  0  0  0  0  0  0  0  0  0  0  0
    2.6511    0.3140   -1.1464 H   0  0  0  0  0  0  0  0  0  0  0  0
    1.2135    1.3590   -0.8333 H   0  0  0  0  0  0  0  0  0  0  0  0
    1.0320   -1.6723   -0.4472 H   0  0  0  0  0  0  0  0  0  0  0  0
   -0.0206   -0.0240   -2.5394 H   0  0  0  0  0  0  0  0  0  0  0  0
   -0.9619    0.6282   -0.7818 H   0  0  0  0  0  0  0  0  0  0  0  0
   -1.4683   -2.2805   -0.2105 H   0  0  0  0  0  0  0  0  0  0  0  0
   -2.6445   -1.0369   -0.6286 H   0  0  0  0  0  0  0  0  0  0  0  0
   -1.3635   -1.5524   -1.8535 H   0  0  0  0  0  0  0  0  0  0  0  0
   -0.5359    1.8048    0.9725 H   0  0  0  0  0  0  0  0  0  0  0  0
   -1.3355    1.2222    2.4754 H   0  0  0  0  0  0  0  0  0  0  0  0
   -2.2404    1.0927    0.9525 H   0  0  0  0  0  0  0  0  0  0  0  0
  1  2  3  0
  2  3  1  0
  3  4  1  0
  4  5  1  0
  4  6  1  0
  6  7  1  0
  6  8  1  0
  8  9  1  0
  1 10  1  0
  3 11  1  0
  3 12  1  0
  4 13  1  0
  5 14  1  0
  6 15  1  0
  7 16  1  0
  7 17  1  0
  7 18  1  0
  9 19  1  0
  9 20  1  0
  9 21  1  0
M  END
