
     RDKit          3D

 17 18  0  0  0  0  0  0  0  0999 V2000
    2.9791   -0.9697   -0.5464 C   0  0  0  0  0  0  0  0  0  0  0  0
    1.9696   -0.3107   -0.4368 C   0  0  0  0  0  0  0  0  0  0  0  0
    0.7437    0.4684   -0.3227 C   0  0  0  0  0  0  0  0  0  0  0  0
    0.0169    0.5381    0.9791 C   0  0  0  0  0  0  0  0  0  0  0  0
   -1.2804    0.1877    0.2554 C   0  0  0  0  0  0  0  0  0  0  0  0
   -2.0139   -0.9532    0.7907 C   0  0  0  0  0  0  0  0  0  0  0  0
   -1.4990   -2.0494    0.8673 O   0  0  0  0  0  0  0  0  0  0  0  0
   -0.4460   -0.0697   -0.9787 C   0  0  0  0  0  0  0  0  0  0  0  0
    0.2136    1.1342   -1.5509 C   0  0  0  0  0  0  0  0  0  0  0  0
    3.8700   -1.5317   -0.6500 H   0  0  0  0  0  0  0  0  0  0  0  0
    0.3268   -0.3239    1.6395 H   0  0  0  0  0  0  0  0  0  0  0  0
    0.0263    1.5172    1.4731 H   0  0  0  0  0  0  0  0  0  0  0  0
   -1.8962    1.1109    0.1922 H   0  0  0  0  0  0  0  0  0  0  0  0
   -3.0323   -0.8426    1.1298 H   0  0  0  0  0  0  0  0  0  0  0  0
   -0.5029   -1.0244   -1.4952 H   0  0  0  0  0  0  0  0  0  0  0  0
    0.8324    1.0222   -2.4463 H   0  0  0  0  0  0  0  0  0  0  0  0
   -0.3075    2.0969   -1.3726 H   0  0  0  0  0  0  0  0  0  0  0  0
  1  2  3  0
  2  3  1  0
  3  4  1  0
  4  5  1  0
  5  6  1  0
  6  7  2  0
  5  8  1  0
  8  9  1  0
  8  3  1  0
  9  3  1  0
  1 10  1  0
  4 11  1  0
  4 12  1  0
  5 13  1  0
  6 14  1  0
  8 15  1  0
  9 16  1  0
  9 17  1  0
M  END
