
     RDKit          3D

 19 20  0  0  0  0  0  0  0  0999 V2000
    2.4031    0.9552   -2.7092 C   0  0  0  0  0  0  0  0  0  0  0  0
    2.0529    0.2203   -1.8212 C   0  0  0  0  0  0  0  0  0  0  0  0
    1.6380   -0.6961   -0.7480 C   0  0  0  0  0  0  0  0  0  0  0  0
    0.4423   -0.3529   -0.1523 C   0  0  0  0  0  0  0  0  0  0  0  0
   -0.2473   -1.0720    0.9654 C   0  0  0  0  0  0  0  0  0  0  0  0
   -1.1775   -0.0167    0.4699 C   0  0  0  0  0  0  0  0  0  0  0  0
   -2.4433    0.2683    0.9424 C   0  0  0  0  0  0  0  0  0  0  0  0
   -0.0075    0.9188    0.4295 C   0  0  0  0  0  0  0  0  0  0  0  0
   -0.8104   -0.4039   -0.8067 O   0  0  0  0  0  0  0  0  0  0  0  0
    2.7087    1.6008   -3.5162 H   0  0  0  0  0  0  0  0  0  0  0  0
    2.4874   -0.7863   -0.0589 H   0  0  0  0  0  0  0  0  0  0  0  0
    1.5791   -1.7116   -1.2488 H   0  0  0  0  0  0  0  0  0  0  0  0
   -0.5529   -2.0912    0.6904 H   0  0  0  0  0  0  0  0  0  0  0  0
    0.2069   -0.9328    1.9492 H   0  0  0  0  0  0  0  0  0  0  0  0
   -3.1046    0.8052    0.2327 H   0  0  0  0  0  0  0  0  0  0  0  0
   -3.0371   -0.6201    1.2751 H   0  0  0  0  0  0  0  0  0  0  0  0
   -2.4210    0.9230    1.8644 H   0  0  0  0  0  0  0  0  0  0  0  0
    0.4103    1.2353    1.3999 H   0  0  0  0  0  0  0  0  0  0  0  0
   -0.1273    1.7567   -0.3129 H   0  0  0  0  0  0  0  0  0  0  0  0
  1  2  3  0
  2  3  1  0
  3  4  1  0
  4  5  1  0
  5  6  1  0
  6  7  1  0
  6  8  1  0
  6  9  1  0
  8  4  1  0
  9  4  1  0
  1 10  1  0
  3 11  1  0
  3 12  1  0
  5 13  1  0
  5 14  1  0
  7 15  1  0
  7 16  1  0
  7 17  1  0
  8 18  1  0
  8 19  1  0
M  END
