
     RDKit          3D

 19 20  0  0  0  0  0  0  0  0999 V2000
    3.4586   -0.6205    0.3347 C   0  0  0  0  0  0  0  0  0  0  0  0
    2.3970   -0.0784    0.0710 C   0  0  0  0  0  0  0  0  0  0  0  0
    1.1367    0.5790   -0.2447 C   0  0  0  0  0  0  0  0  0  0  0  0
    0.2315   -0.3966   -1.0039 C   0  0  0  0  0  0  0  0  0  0  0  0
   -0.8039   -0.1554    0.0253 C   0  0  0  0  0  0  0  0  0  0  0  0
   -2.1825    0.2286   -0.2445 C   0  0  0  0  0  0  0  0  0  0  0  0
   -1.8173   -1.1129    0.4412 C   0  0  0  0  0  0  0  0  0  0  0  0
    0.1340    0.5516    0.9091 C   0  0  0  0  0  0  0  0  0  0  0  0
   -0.1979    1.8300    1.3287 O   0  0  0  0  0  0  0  0  0  0  0  0
    4.3843   -1.0944    0.5460 H   0  0  0  0  0  0  0  0  0  0  0  0
    1.2294    1.5740   -0.7351 H   0  0  0  0  0  0  0  0  0  0  0  0
    0.0239   -0.1015   -2.0413 H   0  0  0  0  0  0  0  0  0  0  0  0
    0.5914   -1.4531   -0.9749 H   0  0  0  0  0  0  0  0  0  0  0  0
   -2.6511    0.9729    0.4541 H   0  0  0  0  0  0  0  0  0  0  0  0
   -2.5989    0.1134   -1.2635 H   0  0  0  0  0  0  0  0  0  0  0  0
   -2.0383   -1.1899    1.5193 H   0  0  0  0  0  0  0  0  0  0  0  0
   -1.9315   -2.0279   -0.1674 H   0  0  0  0  0  0  0  0  0  0  0  0
    0.5207   -0.1015    1.7341 H   0  0  0  0  0  0  0  0  0  0  0  0
    0.1138    2.4826    0.6665 H   0  0  0  0  0  0  0  0  0  0  0  0
  1  2  3  0
  2  3  1  0
  3  4  1  0
  4  5  1  0
  5  6  1  0
  6  7  1  0
  5  8  1  0
  8  9  1  0
  8  3  1  0
  7  5  1  0
  1 10  1  0
  3 11  1  0
  4 12  1  0
  4 13  1  0
  6 14  1  0
  6 15  1  0
  7 16  1  0
  7 17  1  0
  8 18  1  0
  9 19  1  0
M  END
