
     RDKit          3D

 19 19  0  0  0  0  0  0  0  0999 V2000
    0.5633    2.1176    2.2278 C   0  0  0  0  0  0  0  0  0  0  0  0
    0.5384    1.4531    1.2222 C   0  0  0  0  0  0  0  0  0  0  0  0
    0.5272    0.6482   -0.0269 C   0  0  0  0  0  0  0  0  0  0  0  0
    1.5691   -0.4222    0.1084 C   0  0  0  0  0  0  0  0  0  0  0  0
    0.8544    1.4443   -1.1174 O   0  0  0  0  0  0  0  0  0  0  0  0
   -0.8604    0.1289   -0.2209 C   0  0  0  0  0  0  0  0  0  0  0  0
   -1.1347   -0.7148   -1.4182 C   0  0  0  0  0  0  0  0  0  0  0  0
   -2.0653   -1.4274   -0.6237 O   0  0  0  0  0  0  0  0  0  0  0  0
   -1.1635   -1.2004    0.4362 C   0  0  0  0  0  0  0  0  0  0  0  0
    0.5752    2.7034    3.1194 H   0  0  0  0  0  0  0  0  0  0  0  0
    1.4388   -1.2201   -0.6329 H   0  0  0  0  0  0  0  0  0  0  0  0
    2.5846    0.0215   -0.1090 H   0  0  0  0  0  0  0  0  0  0  0  0
    1.6031   -0.7993    1.1533 H   0  0  0  0  0  0  0  0  0  0  0  0
    0.4796    1.0521   -1.9529 H   0  0  0  0  0  0  0  0  0  0  0  0
   -1.6544    0.8500    0.0327 H   0  0  0  0  0  0  0  0  0  0  0  0
   -1.5982   -0.1990   -2.2791 H   0  0  0  0  0  0  0  0  0  0  0  0
   -0.3057   -1.3962   -1.6583 H   0  0  0  0  0  0  0  0  0  0  0  0
   -1.6307   -1.1371    1.4250 H   0  0  0  0  0  0  0  0  0  0  0  0
   -0.3208   -1.9024    0.3142 H   0  0  0  0  0  0  0  0  0  0  0  0
  1  2  3  0
  2  3  1  0
  3  4  1  0
  3  5  1  0
  3  6  1  0
  6  7  1  0
  7  8  1  0
  8  9  1  0
  9  6  1  0
  1 10  1  0
  4 11  1  0
  4 12  1  0
  4 13  1  0
  5 14  1  0
  6 15  1  0
  7 16  1  0
  7 17  1  0
  9 18  1  0
  9 19  1  0
M  END
