
     RDKit          3D

 21 22  0  0  0  0  0  0  0  0999 V2000
    2.9002   -1.3242   -0.2075 C   0  0  0  0  0  0  0  0  0  0  0  0
    1.8969   -0.6558   -0.1676 C   0  0  0  0  0  0  0  0  0  0  0  0
    0.6665    0.1422   -0.1047 C   0  0  0  0  0  0  0  0  0  0  0  0
    0.8661    1.5604   -0.4882 C   0  0  0  0  0  0  0  0  0  0  0  0
   -0.4469   -0.6029   -0.8190 C   0  0  0  0  0  0  0  0  0  0  0  0
   -1.6702    0.2386   -0.6143 C   0  0  0  0  0  0  0  0  0  0  0  0
   -1.4163    0.6658    0.8466 C   0  0  0  0  0  0  0  0  0  0  0  0
   -0.1740   -0.1137    1.1230 C   0  0  0  0  0  0  0  0  0  0  0  0
   -0.4769   -1.4633    0.4533 C   0  0  0  0  0  0  0  0  0  0  0  0
    3.7998   -1.9111   -0.2585 H   0  0  0  0  0  0  0  0  0  0  0  0
    0.0007    2.0672   -0.9246 H   0  0  0  0  0  0  0  0  0  0  0  0
    1.7162    1.5887   -1.2310 H   0  0  0  0  0  0  0  0  0  0  0  0
    1.2586    2.1035    0.4202 H   0  0  0  0  0  0  0  0  0  0  0  0
   -0.2518   -1.0799   -1.7366 H   0  0  0  0  0  0  0  0  0  0  0  0
   -2.5948   -0.3756   -0.5902 H   0  0  0  0  0  0  0  0  0  0  0  0
   -1.7580    1.0974   -1.2791 H   0  0  0  0  0  0  0  0  0  0  0  0
   -2.2650    0.4448    1.4880 H   0  0  0  0  0  0  0  0  0  0  0  0
   -1.2388    1.7643    0.8150 H   0  0  0  0  0  0  0  0  0  0  0  0
    0.2747   -0.1276    2.0799 H   0  0  0  0  0  0  0  0  0  0  0  0
   -1.4642   -1.8682    0.6658 H   0  0  0  0  0  0  0  0  0  0  0  0
    0.3772   -2.1508    0.5298 H   0  0  0  0  0  0  0  0  0  0  0  0
  1  2  3  0
  2  3  1  0
  3  4  1  0
  3  5  1  0
  5  6  1  0
  6  7  1  0
  7  8  1  0
  8  9  1  0
  8  3  1  0
  9  5  1  0
  1 10  1  0
  4 11  1  0
  4 12  1  0
  4 13  1  0
  5 14  1  0
  6 15  1  0
  6 16  1  0
  7 17  1  0
  7 18  1  0
  8 19  1  0
  9 20  1  0
  9 21  1  0
M  END
