
     RDKit          3D

 19 19  0  0  0  0  0  0  0  0999 V2000
    3.6701    0.1159    1.1911 C   0  0  0  0  0  0  0  0  0  0  0  0
    2.8190    0.0358    0.3190 C   0  0  0  0  0  0  0  0  0  0  0  0
    1.8017   -0.0350   -0.7294 C   0  0  0  0  0  0  0  0  0  0  0  0
    0.5659   -0.6545   -0.1387 C   0  0  0  0  0  0  0  0  0  0  0  0
   -0.5706   -0.7645   -1.1672 C   0  0  0  0  0  0  0  0  0  0  0  0
   -0.7013    0.2476   -0.0770 C   0  0  0  0  0  0  0  0  0  0  0  0
   -1.6794   -0.0107    1.0433 C   0  0  0  0  0  0  0  0  0  0  0  0
   -2.7890    0.9864    0.8559 C   0  0  0  0  0  0  0  0  0  0  0  0
   -3.8927    0.6447    0.5283 O   0  0  0  0  0  0  0  0  0  0  0  0
    4.4321    0.1867    1.9451 H   0  0  0  0  0  0  0  0  0  0  0  0
    1.5296    1.0086   -1.0806 H   0  0  0  0  0  0  0  0  0  0  0  0
    2.1615   -0.6746   -1.5578 H   0  0  0  0  0  0  0  0  0  0  0  0
    0.6172   -1.5198    0.5363 H   0  0  0  0  0  0  0  0  0  0  0  0
   -1.1990   -1.6484   -1.1785 H   0  0  0  0  0  0  0  0  0  0  0  0
   -0.4051   -0.3345   -2.1888 H   0  0  0  0  0  0  0  0  0  0  0  0
   -0.4504    1.3187   -0.2478 H   0  0  0  0  0  0  0  0  0  0  0  0
   -1.1940    0.0786    2.0066 H   0  0  0  0  0  0  0  0  0  0  0  0
   -2.1288   -1.0277    0.8973 H   0  0  0  0  0  0  0  0  0  0  0  0
   -2.5869    2.0466    1.0207 H   0  0  0  0  0  0  0  0  0  0  0  0
  1  2  3  0
  2  3  1  0
  3  4  1  0
  4  5  1  0
  5  6  1  0
  6  7  1  0
  7  8  1  0
  8  9  2  0
  6  4  1  0
  1 10  1  0
  3 11  1  0
  3 12  1  0
  4 13  1  0
  5 14  1  0
  5 15  1  0
  6 16  1  0
  7 17  1  0
  7 18  1  0
  8 19  1  0
M  END
