
     RDKit          3D

 23 23  0  0  0  0  0  0  0  0999 V2000
    3.3294    0.9058   -0.1108 C   0  0  0  0  0  0  0  0  0  0  0  0
    2.6203    0.3613    0.6815 C   0  0  0  0  0  0  0  0  0  0  0  0
    1.7567   -0.3100    1.6186 C   0  0  0  0  0  0  0  0  0  0  0  0
    0.3785   -0.4900    1.0508 C   0  0  0  0  0  0  0  0  0  0  0  0
    0.3979   -1.3152   -0.2208 C   0  0  0  0  0  0  0  0  0  0  0  0
   -1.0293   -1.0746   -0.7077 C   0  0  0  0  0  0  0  0  0  0  0  0
   -1.1123    0.4379   -0.6159 C   0  0  0  0  0  0  0  0  0  0  0  0
   -2.5404    0.8856   -0.4466 C   0  0  0  0  0  0  0  0  0  0  0  0
   -0.2680    0.7755    0.6131 C   0  0  0  0  0  0  0  0  0  0  0  0
    3.9757    1.3805   -0.8307 H   0  0  0  0  0  0  0  0  0  0  0  0
    1.6518    0.3542    2.5128 H   0  0  0  0  0  0  0  0  0  0  0  0
    2.1517   -1.2720    2.0010 H   0  0  0  0  0  0  0  0  0  0  0  0
   -0.2957   -1.0165    1.7556 H   0  0  0  0  0  0  0  0  0  0  0  0
    0.5876   -2.3851   -0.0194 H   0  0  0  0  0  0  0  0  0  0  0  0
    1.0800   -0.8924   -0.9827 H   0  0  0  0  0  0  0  0  0  0  0  0
   -1.1858   -1.4471   -1.7240 H   0  0  0  0  0  0  0  0  0  0  0  0
   -1.7176   -1.4781    0.0424 H   0  0  0  0  0  0  0  0  0  0  0  0
   -0.6404    0.8637   -1.5456 H   0  0  0  0  0  0  0  0  0  0  0  0
   -3.1810   -0.0052   -0.4100 H   0  0  0  0  0  0  0  0  0  0  0  0
   -2.8806    1.5011   -1.3235 H   0  0  0  0  0  0  0  0  0  0  0  0
   -2.6211    1.5128    0.4609 H   0  0  0  0  0  0  0  0  0  0  0  0
   -0.9129    1.1516    1.4482 H   0  0  0  0  0  0  0  0  0  0  0  0
    0.4554    1.5563    0.3045 H   0  0  0  0  0  0  0  0  0  0  0  0
  1  2  3  0
  2  3  1  0
  3  4  1  0
  4  5  1  0
  5  6  1  0
  6  7  1  0
  7  8  1  0
  7  9  1  0
  9  4  1  0
  1 10  1  0
  3 11  1  0
  3 12  1  0
  4 13  1  0
  5 14  1  0
  5 15  1  0
  6 16  1  0
  6 17  1  0
  7 18  1  0
  8 19  1  0
  8 20  1  0
  8 21  1  0
  9 22  1  0
  9 23  1  0
M  END
