
     RDKit          3D

 15 16  0  0  0  0  0  0  0  0999 V2000
    2.8616   -0.7919    1.1158 C   0  0  0  0  0  0  0  0  0  0  0  0
    1.9691   -0.4778    0.3550 C   0  0  0  0  0  0  0  0  0  0  0  0
    0.8788   -0.1194   -0.5634 C   0  0  0  0  0  0  0  0  0  0  0  0
   -0.3249   -0.9541   -0.5765 C   0  0  0  0  0  0  0  0  0  0  0  0
   -0.7487   -1.4431    0.6562 O   0  0  0  0  0  0  0  0  0  0  0  0
   -1.2575   -0.1856    0.9297 C   0  0  0  0  0  0  0  0  0  0  0  0
   -0.3592    0.4953   -0.0476 C   0  0  0  0  0  0  0  0  0  0  0  0
   -1.0098    1.5184   -0.8996 C   0  0  0  0  0  0  0  0  0  0  0  0
   -0.4665    2.5973   -1.1497 O   0  0  0  0  0  0  0  0  0  0  0  0
    3.6439   -1.0697    1.7747 H   0  0  0  0  0  0  0  0  0  0  0  0
    1.2466    0.2209   -1.5612 H   0  0  0  0  0  0  0  0  0  0  0  0
   -0.9507   -1.1229   -1.4540 H   0  0  0  0  0  0  0  0  0  0  0  0
   -1.1528    0.1083    1.9967 H   0  0  0  0  0  0  0  0  0  0  0  0
   -2.3437   -0.1309    0.6351 H   0  0  0  0  0  0  0  0  0  0  0  0
   -1.9861    1.3553   -1.3334 H   0  0  0  0  0  0  0  0  0  0  0  0
  1  2  3  0
  2  3  1  0
  3  4  1  0
  4  5  1  0
  5  6  1  0
  6  7  1  0
  7  8  1  0
  8  9  2  0
  7  3  1  0
  7  4  1  0
  1 10  1  0
  3 11  1  0
  4 12  1  0
  6 13  1  0
  6 14  1  0
  8 15  1  0
M  END
