
     RDKit          3D

 15 15  0  0  0  0  0  0  0  0999 V2000
    2.6990    1.8277   -0.5052 C   0  0  0  0  0  0  0  0  0  0  0  0
    1.6738    1.2189   -0.3469 C   0  0  0  0  0  0  0  0  0  0  0  0
    0.4591    0.4878   -0.1350 C   0  0  0  0  0  0  0  0  0  0  0  0
    0.3667   -0.2662    0.9465 C   0  0  0  0  0  0  0  0  0  0  0  0
   -0.9006   -1.0532    1.2038 C   0  0  0  0  0  0  0  0  0  0  0  0
   -1.3467   -1.5369   -0.1301 C   0  0  0  0  0  0  0  0  0  0  0  0
   -1.7599   -2.7025   -0.3162 O   0  0  0  0  0  0  0  0  0  0  0  0
   -1.3037   -0.6605   -1.2192 O   0  0  0  0  0  0  0  0  0  0  0  0
   -0.6601    0.6004   -1.1319 C   0  0  0  0  0  0  0  0  0  0  0  0
    3.6174    2.3814   -0.6299 H   0  0  0  0  0  0  0  0  0  0  0  0
    1.1691   -0.3474    1.6685 H   0  0  0  0  0  0  0  0  0  0  0  0
   -0.6955   -1.8837    1.8847 H   0  0  0  0  0  0  0  0  0  0  0  0
   -1.6279   -0.3223    1.6244 H   0  0  0  0  0  0  0  0  0  0  0  0
   -0.2826    0.9084   -2.1139 H   0  0  0  0  0  0  0  0  0  0  0  0
   -1.4081    1.3481   -0.7996 H   0  0  0  0  0  0  0  0  0  0  0  0
  1  2  3  0
  2  3  1  0
  3  4  2  0
  4  5  1  0
  5  6  1  0
  6  7  2  0
  6  8  1  0
  8  9  1  0
  9  3  1  0
  1 10  1  0
  4 11  1  0
  5 12  1  0
  5 13  1  0
  9 14  1  0
  9 15  1  0
M  END
