
     RDKit          3D

 21 20  0  0  0  0  0  0  0  0999 V2000
    1.7477    2.1448   -2.1551 C   0  0  0  0  0  0  0  0  0  0  0  0
    1.8206    1.0994   -1.4704 C   0  0  0  0  0  0  0  0  0  0  0  0
    1.8827   -0.1012   -0.6700 C   0  0  0  0  0  0  0  0  0  0  0  0
    0.8017   -0.1708    0.3736 C   0  0  0  0  0  0  0  0  0  0  0  0
   -0.6049   -0.1672   -0.1563 C   0  0  0  0  0  0  0  0  0  0  0  0
   -0.7575   -1.3783   -1.0526 C   0  0  0  0  0  0  0  0  0  0  0  0
   -1.4912   -0.4030    1.0577 C   0  0  0  0  0  0  0  0  0  0  0  0
   -1.4521    0.5729    2.1647 C   0  0  0  0  0  0  0  0  0  0  0  0
   -2.2231   -1.3678    1.1379 O   0  0  0  0  0  0  0  0  0  0  0  0
    1.6823    3.0607   -2.7366 H   0  0  0  0  0  0  0  0  0  0  0  0
    2.8883   -0.1899   -0.1771 H   0  0  0  0  0  0  0  0  0  0  0  0
    1.8322   -0.9992   -1.3433 H   0  0  0  0  0  0  0  0  0  0  0  0
    0.9259   -1.0245    1.0543 H   0  0  0  0  0  0  0  0  0  0  0  0
    0.9012    0.7735    0.9780 H   0  0  0  0  0  0  0  0  0  0  0  0
   -0.9061    0.7552   -0.6684 H   0  0  0  0  0  0  0  0  0  0  0  0
    0.1362   -2.0203   -1.0924 H   0  0  0  0  0  0  0  0  0  0  0  0
   -1.6329   -1.9698   -0.6469 H   0  0  0  0  0  0  0  0  0  0  0  0
   -1.1070   -1.0298   -2.0498 H   0  0  0  0  0  0  0  0  0  0  0  0
   -1.3041    0.0220    3.1314 H   0  0  0  0  0  0  0  0  0  0  0  0
   -2.4654    1.0611    2.2687 H   0  0  0  0  0  0  0  0  0  0  0  0
   -0.6746    1.3323    2.1099 H   0  0  0  0  0  0  0  0  0  0  0  0
  1  2  3  0
  2  3  1  0
  3  4  1  0
  4  5  1  0
  5  6  1  0
  5  7  1  0
  7  8  1  0
  7  9  2  0
  1 10  1  0
  3 11  1  0
  3 12  1  0
  4 13  1  0
  4 14  1  0
  5 15  1  0
  6 16  1  0
  6 17  1  0
  6 18  1  0
  8 19  1  0
  8 20  1  0
  8 21  1  0
M  END
