
     RDKit          3D

 17 17  0  0  0  0  0  0  0  0999 V2000
    2.7579   -0.8418    1.1293 C   0  0  0  0  0  0  0  0  0  0  0  0
    1.6679   -0.3714    0.9187 C   0  0  0  0  0  0  0  0  0  0  0  0
    0.3393    0.2199    0.6406 C   0  0  0  0  0  0  0  0  0  0  0  0
   -0.2905    0.7230    1.7466 O   0  0  0  0  0  0  0  0  0  0  0  0
    0.2517    1.0256   -0.6168 C   0  0  0  0  0  0  0  0  0  0  0  0
   -0.4285    2.2341   -0.5604 O   0  0  0  0  0  0  0  0  0  0  0  0
   -0.4098   -0.2671   -0.5528 C   0  0  0  0  0  0  0  0  0  0  0  0
   -1.8882   -0.4418   -0.3530 C   0  0  0  0  0  0  0  0  0  0  0  0
    0.1969   -1.3538   -1.2127 O   0  0  0  0  0  0  0  0  0  0  0  0
    3.7213   -1.2605    1.3344 H   0  0  0  0  0  0  0  0  0  0  0  0
   -0.5691    0.0447    2.4081 H   0  0  0  0  0  0  0  0  0  0  0  0
    1.1575    1.0875   -1.2891 H   0  0  0  0  0  0  0  0  0  0  0  0
    0.2423    2.9666   -0.3902 H   0  0  0  0  0  0  0  0  0  0  0  0
   -2.0125   -1.3012    0.3607 H   0  0  0  0  0  0  0  0  0  0  0  0
   -2.3829   -0.7808   -1.2920 H   0  0  0  0  0  0  0  0  0  0  0  0
   -2.3685    0.4781    0.0005 H   0  0  0  0  0  0  0  0  0  0  0  0
    0.0151   -2.1611   -0.6747 H   0  0  0  0  0  0  0  0  0  0  0  0
  1  2  3  0
  2  3  1  0
  3  4  1  0
  3  5  1  0
  5  6  1  0
  5  7  1  0
  7  8  1  0
  7  9  1  0
  7  3  1  0
  1 10  1  0
  4 11  1  0
  5 12  1  0
  6 13  1  0
  8 14  1  0
  8 15  1  0
  8 16  1  0
  9 17  1  0
M  END
