
     RDKit          3D

 17 17  0  0  0  0  0  0  0  0999 V2000
    2.7226   -1.1817   -0.7983 C   0  0  0  0  0  0  0  0  0  0  0  0
    1.6595   -0.6549   -0.5326 C   0  0  0  0  0  0  0  0  0  0  0  0
    0.3746   -0.0256   -0.2374 C   0  0  0  0  0  0  0  0  0  0  0  0
   -0.7125   -1.0392   -0.1381 C   0  0  0  0  0  0  0  0  0  0  0  0
   -2.0588   -0.4743    0.1620 C   0  0  0  0  0  0  0  0  0  0  0  0
    0.0992    1.0904   -1.0153 O   0  0  0  0  0  0  0  0  0  0  0  0
    0.5288    1.9560    0.0160 C   0  0  0  0  0  0  0  0  0  0  0  0
    0.4698    0.8155    0.9605 C   0  0  0  0  0  0  0  0  0  0  0  0
    0.4846    0.5756    2.1552 O   0  0  0  0  0  0  0  0  0  0  0  0
    3.6590   -1.6313   -1.0398 H   0  0  0  0  0  0  0  0  0  0  0  0
   -0.7619   -1.6641   -1.0647 H   0  0  0  0  0  0  0  0  0  0  0  0
   -0.4239   -1.7601    0.6740 H   0  0  0  0  0  0  0  0  0  0  0  0
   -2.0501    0.5727    0.5060 H   0  0  0  0  0  0  0  0  0  0  0  0
   -2.5455   -1.0604    0.9953 H   0  0  0  0  0  0  0  0  0  0  0  0
   -2.7398   -0.5976   -0.7155 H   0  0  0  0  0  0  0  0  0  0  0  0
    1.5494    2.3718   -0.1615 H   0  0  0  0  0  0  0  0  0  0  0  0
   -0.2549    2.7070    0.2341 H   0  0  0  0  0  0  0  0  0  0  0  0
  1  2  3  0
  2  3  1  0
  3  4  1  0
  4  5  1  0
  3  6  1  0
  6  7  1  0
  7  8  1  0
  8  9  2  0
  8  3  1  0
  1 10  1  0
  4 11  1  0
  4 12  1  0
  5 13  1  0
  5 14  1  0
  5 15  1  0
  7 16  1  0
  7 17  1  0
M  END
