
     RDKit          3D

 17 18  0  0  0  0  0  0  0  0999 V2000
    2.8376    1.2752    1.1424 C   0  0  0  0  0  0  0  0  0  0  0  0
    1.8776    1.0936    0.4351 C   0  0  0  0  0  0  0  0  0  0  0  0
    0.6990    0.8870   -0.4248 C   0  0  0  0  0  0  0  0  0  0  0  0
    0.4875   -0.4335   -1.0821 C   0  0  0  0  0  0  0  0  0  0  0  0
    1.1536   -1.4970   -0.5069 O   0  0  0  0  0  0  0  0  0  0  0  0
    0.1919   -1.4716    0.5219 C   0  0  0  0  0  0  0  0  0  0  0  0
   -0.2742   -0.1091    0.1233 C   0  0  0  0  0  0  0  0  0  0  0  0
   -1.7214    0.2503    0.1217 C   0  0  0  0  0  0  0  0  0  0  0  0
   -2.2094    0.4979   -1.1668 O   0  0  0  0  0  0  0  0  0  0  0  0
    3.6896    1.4231    1.7851 H   0  0  0  0  0  0  0  0  0  0  0  0
    0.2943    1.7522   -0.9784 H   0  0  0  0  0  0  0  0  0  0  0  0
    0.0411   -0.5203   -2.0844 H   0  0  0  0  0  0  0  0  0  0  0  0
   -0.4972   -2.3069    0.3867 H   0  0  0  0  0  0  0  0  0  0  0  0
    0.6488   -1.4512    1.5428 H   0  0  0  0  0  0  0  0  0  0  0  0
   -1.8578    1.1641    0.7717 H   0  0  0  0  0  0  0  0  0  0  0  0
   -2.2837   -0.5567    0.6372 H   0  0  0  0  0  0  0  0  0  0  0  0
   -3.0773    0.0030   -1.2244 H   0  0  0  0  0  0  0  0  0  0  0  0
  1  2  3  0
  2  3  1  0
  3  4  1  0
  4  5  1  0
  5  6  1  0
  6  7  1  0
  7  8  1  0
  8  9  1  0
  7  3  1  0
  7  4  1  0
  1 10  1  0
  3 11  1  0
  4 12  1  0
  6 13  1  0
  6 14  1  0
  8 15  1  0
  8 16  1  0
  9 17  1  0
M  END
