
     RDKit          3D

 17 17  0  0  0  0  0  0  0  0999 V2000
    1.1526    0.1773   -2.8681 C   0  0  0  0  0  0  0  0  0  0  0  0
    0.6845    0.3428   -1.5443 C   0  0  0  0  0  0  0  0  0  0  0  0
    0.2297    0.4881   -0.2852 C   0  0  0  0  0  0  0  0  0  0  0  0
    0.4400    1.8450    0.3695 C   0  0  0  0  0  0  0  0  0  0  0  0
    0.6004    2.8869    0.8925 C   0  0  0  0  0  0  0  0  0  0  0  0
   -0.7642   -0.3624    0.3990 C   0  0  0  0  0  0  0  0  0  0  0  0
   -1.5584   -1.4414   -0.2834 C   0  0  0  0  0  0  0  0  0  0  0  0
    0.6373   -0.6444    0.7598 C   0  0  0  0  0  0  0  0  0  0  0  0
    1.1727   -0.1407    1.9357 O   0  0  0  0  0  0  0  0  0  0  0  0
    1.4645    0.0716   -3.7032 H   0  0  0  0  0  0  0  0  0  0  0  0
    0.7485    3.8589    1.3761 H   0  0  0  0  0  0  0  0  0  0  0  0
   -1.3434    0.1223    1.2044 H   0  0  0  0  0  0  0  0  0  0  0  0
   -1.9659   -2.1369    0.5214 H   0  0  0  0  0  0  0  0  0  0  0  0
   -1.0043   -1.9671   -1.0625 H   0  0  0  0  0  0  0  0  0  0  0  0
   -2.4829   -0.9622   -0.7029 H   0  0  0  0  0  0  0  0  0  0  0  0
    1.1482   -1.4777    0.2809 H   0  0  0  0  0  0  0  0  0  0  0  0
    0.8409   -0.6600    2.7104 H   0  0  0  0  0  0  0  0  0  0  0  0
  1  2  3  0
  2  3  1  0
  3  4  1  0
  4  5  3  0
  3  6  1  0
  6  7  1  0
  6  8  1  0
  8  9  1  0
  8  3  1  0
  1 10  1  0
  5 11  1  0
  6 12  1  0
  7 13  1  0
  7 14  1  0
  7 15  1  0
  8 16  1  0
  9 17  1  0
M  END
