
     RDKit          3D

 17 18  0  0  0  0  0  0  0  0999 V2000
   -0.3170    1.4997    2.6717 C   0  0  0  0  0  0  0  0  0  0  0  0
   -0.4593    1.1704    1.5629 C   0  0  0  0  0  0  0  0  0  0  0  0
   -0.6297    0.7942    0.2481 C   0  0  0  0  0  0  0  0  0  0  0  0
    0.3299    0.7647   -0.8584 C   0  0  0  0  0  0  0  0  0  0  0  0
    1.6361    0.8956   -0.5494 O   0  0  0  0  0  0  0  0  0  0  0  0
   -0.1241   -0.6403   -1.2087 C   0  0  0  0  0  0  0  0  0  0  0  0
    0.7130   -1.8153   -1.1868 C   0  0  0  0  0  0  0  0  0  0  0  0
   -1.4735   -0.6962   -1.5654 O   0  0  0  0  0  0  0  0  0  0  0  0
   -1.2722   -0.4504   -0.2140 C   0  0  0  0  0  0  0  0  0  0  0  0
   -0.1731    1.8370    3.7404 H   0  0  0  0  0  0  0  0  0  0  0  0
   -1.4536    1.6835   -0.1886 H   0  0  0  0  0  0  0  0  0  0  0  0
    0.1257    1.4405   -1.7994 H   0  0  0  0  0  0  0  0  0  0  0  0
    1.8949    1.2951    0.2939 H   0  0  0  0  0  0  0  0  0  0  0  0
    0.7398   -2.2827   -0.1732 H   0  0  0  0  0  0  0  0  0  0  0  0
    1.7608   -1.6428   -1.4931 H   0  0  0  0  0  0  0  0  0  0  0  0
    0.2661   -2.5600   -1.9196 H   0  0  0  0  0  0  0  0  0  0  0  0
   -1.5638   -1.2929    0.4615 H   0  0  0  0  0  0  0  0  0  0  0  0
  1  2  3  0
  2  3  1  0
  3  4  1  0
  4  5  1  0
  4  6  1  0
  6  7  1  0
  6  8  1  0
  8  9  1  0
  9  3  1  0
  9  6  1  0
  1 10  1  0
  3 11  1  0
  4 12  1  0
  5 13  1  0
  7 14  1  0
  7 15  1  0
  7 16  1  0
  9 17  1  0
M  END
