
     RDKit          3D

 15 14  0  0  0  0  0  0  0  0999 V2000
   -3.1112   -1.0739    0.5894 C   0  0  0  0  0  0  0  0  0  0  0  0
   -2.3152   -0.1937    0.1995 C   0  0  0  0  0  0  0  0  0  0  0  0
   -1.3347    0.9302   -0.2824 C   0  0  0  0  0  0  0  0  0  0  0  0
   -1.2750    1.0723   -1.3761 C   0  0  0  0  0  0  0  0  0  0  0  0
   -1.1756    1.2457   -2.7686 C   0  0  0  0  0  0  0  0  0  0  0  0
    0.1202    0.1927    0.2221 C   0  0  0  0  0  0  0  0  0  0  0  0
    1.0114   -0.2491    0.5351 C   0  0  0  0  0  0  0  0  0  0  0  0
    2.4032   -0.9255    1.0035 C   0  0  0  0  0  0  0  0  0  0  0  0
    3.1570    0.2794    1.3721 O   0  0  0  0  0  0  0  0  0  0  0  0
   -3.8675   -1.9270    0.9759 H   0  0  0  0  0  0  0  0  0  0  0  0
   -1.4045    1.6501    0.5915 H   0  0  0  0  0  0  0  0  0  0  0  0
   -1.0936    1.3766   -3.9436 H   0  0  0  0  0  0  0  0  0  0  0  0
    2.1265   -1.2817    2.0019 H   0  0  0  0  0  0  0  0  0  0  0  0
    2.8403   -1.4925    0.2846 H   0  0  0  0  0  0  0  0  0  0  0  0
    3.9187    0.3965    0.7464 H   0  0  0  0  0  0  0  0  0  0  0  0
  1  2  3  0
  2  3  1  0
  3  4  1  0
  4  5  3  0
  3  6  1  0
  6  7  3  0
  7  8  1  0
  8  9  1  0
  1 10  1  0
  3 11  1  0
  5 12  1  0
  8 13  1  0
  8 14  1  0
  9 15  1  0
M  END
