
     RDKit          3D

 13 13  0  0  0  0  0  0  0  0999 V2000
   -2.6494    0.6209   -0.2460 C   0  0  0  0  0  0  0  0  0  0  0  0
   -1.6292    0.1717    0.2129 C   0  0  0  0  0  0  0  0  0  0  0  0
   -0.3684   -0.3573    0.7864 C   0  0  0  0  0  0  0  0  0  0  0  0
    0.4534   -1.0500   -0.2591 C   0  0  0  0  0  0  0  0  0  0  0  0
    1.6070   -0.1227   -0.5242 C   0  0  0  0  0  0  0  0  0  0  0  0
    2.6233   -0.3073   -1.2048 O   0  0  0  0  0  0  0  0  0  0  0  0
    1.3032    1.1063    0.2035 C   0  0  0  0  0  0  0  0  0  0  0  0
    1.7892    2.2564   -0.0178 O   0  0  0  0  0  0  0  0  0  0  0  0
    0.3772    0.7755    1.1881 O   0  0  0  0  0  0  0  0  0  0  0  0
   -3.5466    1.0252   -0.6352 H   0  0  0  0  0  0  0  0  0  0  0  0
   -0.6331   -0.9997    1.6422 H   0  0  0  0  0  0  0  0  0  0  0  0
    0.8063   -2.0509    0.0545 H   0  0  0  0  0  0  0  0  0  0  0  0
   -0.1328   -1.0681   -1.2006 H   0  0  0  0  0  0  0  0  0  0  0  0
  1  2  3  0
  2  3  1  0
  3  4  1  0
  4  5  1  0
  5  6  2  0
  5  7  1  0
  7  8  2  0
  7  9  1  0
  9  3  1  0
  1 10  1  0
  3 11  1  0
  4 12  1  0
  4 13  1  0
M  END
