
     RDKit          3D

 18 17  0  0  0  0  0  0  0  0999 V2000
    2.8583    0.8258   -0.5600 C   0  0  0  0  0  0  0  0  0  0  0  0
    1.7375    0.4510   -0.8072 C   0  0  0  0  0  0  0  0  0  0  0  0
    0.3741    0.0146   -1.1171 C   0  0  0  0  0  0  0  0  0  0  0  0
   -0.3924    1.0520   -1.6455 O   0  0  0  0  0  0  0  0  0  0  0  0
   -0.3414   -0.5025    0.1060 C   0  0  0  0  0  0  0  0  0  0  0  0
   -0.5713    0.5728    1.1140 C   0  0  0  0  0  0  0  0  0  0  0  0
   -1.6878   -1.0337   -0.3517 C   0  0  0  0  0  0  0  0  0  0  0  0
    0.4448   -1.5485    0.6271 O   0  0  0  0  0  0  0  0  0  0  0  0
    3.8558    1.1738   -0.3522 H   0  0  0  0  0  0  0  0  0  0  0  0
    0.4141   -0.7859   -1.8830 H   0  0  0  0  0  0  0  0  0  0  0  0
    0.1768    1.8857   -1.5961 H   0  0  0  0  0  0  0  0  0  0  0  0
   -0.4835    1.5612    0.5752 H   0  0  0  0  0  0  0  0  0  0  0  0
   -1.5632    0.5008    1.6051 H   0  0  0  0  0  0  0  0  0  0  0  0
    0.2709    0.5691    1.8371 H   0  0  0  0  0  0  0  0  0  0  0  0
   -1.7100   -1.1739   -1.4553 H   0  0  0  0  0  0  0  0  0  0  0  0
   -1.8615   -2.0100    0.1807 H   0  0  0  0  0  0  0  0  0  0  0  0
   -2.4884   -0.3263   -0.0633 H   0  0  0  0  0  0  0  0  0  0  0  0
    0.9672   -1.2260    1.4241 H   0  0  0  0  0  0  0  0  0  0  0  0
  1  2  3  0
  2  3  1  0
  3  4  1  0
  3  5  1  0
  5  6  1  0
  5  7  1  0
  5  8  1  0
  1  9  1  0
  3 10  1  0
  4 11  1  0
  6 12  1  0
  6 13  1  0
  6 14  1  0
  7 15  1  0
  7 16  1  0
  7 17  1  0
  8 18  1  0
M  END
