
     RDKit          3D

 17 16  0  0  0  0  0  0  0  0999 V2000
    4.3787    0.4589    0.7155 C   0  0  0  0  0  0  0  0  0  0  0  0
    3.3118    0.0221    0.3120 C   0  0  0  0  0  0  0  0  0  0  0  0
    2.0884   -0.4986   -0.1710 C   0  0  0  0  0  0  0  0  0  0  0  0
    1.0379   -0.9236   -0.5817 C   0  0  0  0  0  0  0  0  0  0  0  0
   -0.2643   -1.4463   -1.0635 C   0  0  0  0  0  0  0  0  0  0  0  0
   -0.9533   -0.3625   -1.5865 O   0  0  0  0  0  0  0  0  0  0  0  0
   -1.1401    0.5885   -0.6148 C   0  0  0  0  0  0  0  0  0  0  0  0
   -1.9224    0.1249    0.5777 C   0  0  0  0  0  0  0  0  0  0  0  0
   -2.0060    1.2327    1.4531 O   0  0  0  0  0  0  0  0  0  0  0  0
    5.3112    0.8210    1.0638 H   0  0  0  0  0  0  0  0  0  0  0  0
   -0.8149   -1.9727   -0.2681 H   0  0  0  0  0  0  0  0  0  0  0  0
   -0.0461   -2.2142   -1.8618 H   0  0  0  0  0  0  0  0  0  0  0  0
   -1.6048    1.5153   -0.9942 H   0  0  0  0  0  0  0  0  0  0  0  0
   -0.1178    0.8673   -0.2343 H   0  0  0  0  0  0  0  0  0  0  0  0
   -1.3715   -0.6513    1.1786 H   0  0  0  0  0  0  0  0  0  0  0  0
   -2.9308   -0.2540    0.3142 H   0  0  0  0  0  0  0  0  0  0  0  0
   -2.9561    1.3166    1.7612 H   0  0  0  0  0  0  0  0  0  0  0  0
  1  2  3  0
  2  3  1  0
  3  4  3  0
  4  5  1  0
  5  6  1  0
  6  7  1  0
  7  8  1  0
  8  9  1  0
  1 10  1  0
  5 11  1  0
  5 12  1  0
  7 13  1  0
  7 14  1  0
  8 15  1  0
  8 16  1  0
  9 17  1  0
M  END
