
     RDKit          3D

 17 19  0  0  0  0  0  0  0  0999 V2000
    2.0794   -1.3375    1.4712 C   0  0  0  0  0  0  0  0  0  0  0  0
    0.9505   -1.4183    0.9148 C   0  0  0  0  0  0  0  0  0  0  0  0
   -0.3235   -1.5076    0.2629 C   0  0  0  0  0  0  0  0  0  0  0  0
   -0.5652   -0.1632   -0.4139 C   0  0  0  0  0  0  0  0  0  0  0  0
    0.3951    0.2519   -1.4780 C   0  0  0  0  0  0  0  0  0  0  0  0
    0.4518    0.9182   -0.1925 C   0  0  0  0  0  0  0  0  0  0  0  0
   -0.6878    1.8144    0.2093 C   0  0  0  0  0  0  0  0  0  0  0  0
   -1.5284    1.4021    1.2572 O   0  0  0  0  0  0  0  0  0  0  0  0
   -1.6313    0.7370    0.0312 C   0  0  0  0  0  0  0  0  0  0  0  0
    3.1536   -1.2726    1.9819 H   0  0  0  0  0  0  0  0  0  0  0  0
   -0.1597   -2.2895   -0.5626 H   0  0  0  0  0  0  0  0  0  0  0  0
   -1.1268   -1.8462    0.8959 H   0  0  0  0  0  0  0  0  0  0  0  0
    1.1228   -0.5522   -1.7926 H   0  0  0  0  0  0  0  0  0  0  0  0
   -0.0808    0.7576   -2.3462 H   0  0  0  0  0  0  0  0  0  0  0  0
    1.2947    0.7603    0.5301 H   0  0  0  0  0  0  0  0  0  0  0  0
   -0.7940    2.8507   -0.1916 H   0  0  0  0  0  0  0  0  0  0  0  0
   -2.5502    0.8949   -0.5770 H   0  0  0  0  0  0  0  0  0  0  0  0
  1  2  3  0
  2  3  1  0
  3  4  1  0
  4  5  1  0
  5  6  1  0
  6  7  1  0
  7  8  1  0
  8  9  1  0
  6  4  1  0
  9  7  1  0
  9  4  1  0
  1 10  1  0
  3 11  1  0
  3 12  1  0
  5 13  1  0
  5 14  1  0
  6 15  1  0
  7 16  1  0
  9 17  1  0
M  END
