
     RDKit          3D

 23 22  0  0  0  0  0  0  0  0999 V2000
   -3.4808   -0.6923    1.3201 C   0  0  0  0  0  0  0  0  0  0  0  0
   -2.9154   -0.6613    0.5150 C   0  0  0  0  0  0  0  0  0  0  0  0
   -2.0185   -0.5852   -0.7764 C   0  0  0  0  0  0  0  0  0  0  0  0
   -0.5683   -0.7010   -0.3391 C   0  0  0  0  0  0  0  0  0  0  0  0
    0.2247   -0.6072   -1.6429 C   0  0  0  0  0  0  0  0  0  0  0  0
   -0.2336    0.5246    0.4609 C   0  0  0  0  0  0  0  0  0  0  0  0
    1.1165    0.6510    1.0466 C   0  0  0  0  0  0  0  0  0  0  0  0
    2.2876    0.7253    0.1475 C   0  0  0  0  0  0  0  0  0  0  0  0
    3.4181    0.8926    1.0038 O   0  0  0  0  0  0  0  0  0  0  0  0
   -4.1189   -0.7080    2.2321 H   0  0  0  0  0  0  0  0  0  0  0  0
   -2.2497    0.3627   -1.2148 H   0  0  0  0  0  0  0  0  0  0  0  0
   -2.3539   -1.4082   -1.4201 H   0  0  0  0  0  0  0  0  0  0  0  0
   -0.3297   -1.6211    0.2079 H   0  0  0  0  0  0  0  0  0  0  0  0
   -0.4543   -0.6409   -2.5266 H   0  0  0  0  0  0  0  0  0  0  0  0
    1.0039   -1.3704   -1.7208 H   0  0  0  0  0  0  0  0  0  0  0  0
    0.6760    0.3969   -1.6705 H   0  0  0  0  0  0  0  0  0  0  0  0
   -0.3468    1.4383   -0.2461 H   0  0  0  0  0  0  0  0  0  0  0  0
   -1.0121    0.7075    1.2113 H   0  0  0  0  0  0  0  0  0  0  0  0
    1.2936   -0.1549    1.8137 H   0  0  0  0  0  0  0  0  0  0  0  0
    1.1143    1.5997    1.6541 H   0  0  0  0  0  0  0  0  0  0  0  0
    2.5297   -0.1610   -0.4343 H   0  0  0  0  0  0  0  0  0  0  0  0
    2.2595    1.6894   -0.4277 H   0  0  0  0  0  0  0  0  0  0  0  0
    4.1579    0.3234    0.8062 H   0  0  0  0  0  0  0  0  0  0  0  0
  1  2  3  0
  2  3  1  0
  3  4  1  0
  4  5  1  0
  4  6  1  0
  6  7  1  0
  7  8  1  0
  8  9  1  0
  1 10  1  0
  3 11  1  0
  3 12  1  0
  4 13  1  0
  5 14  1  0
  5 15  1  0
  5 16  1  0
  6 17  1  0
  6 18  1  0
  7 19  1  0
  7 20  1  0
  8 21  1  0
  8 22  1  0
  9 23  1  0
M  END
