
     RDKit          3D

 15 16  0  0  0  0  0  0  0  0999 V2000
   -0.6473   -2.9886    0.5235 C   0  0  0  0  0  0  0  0  0  0  0  0
   -0.5239   -1.7989    0.4350 C   0  0  0  0  0  0  0  0  0  0  0  0
   -0.3667   -0.3746    0.3522 C   0  0  0  0  0  0  0  0  0  0  0  0
   -1.5023    0.3383   -0.2596 C   0  0  0  0  0  0  0  0  0  0  0  0
   -2.4226    0.9187   -0.7791 C   0  0  0  0  0  0  0  0  0  0  0  0
    0.1382    0.2720    1.4704 O   0  0  0  0  0  0  0  0  0  0  0  0
    1.2158    0.8793    0.8525 C   0  0  0  0  0  0  0  0  0  0  0  0
    1.1156    1.4605   -0.5058 C   0  0  0  0  0  0  0  0  0  0  0  0
    0.9082    0.0075   -0.3720 C   0  0  0  0  0  0  0  0  0  0  0  0
   -0.7682   -4.0344    0.5885 H   0  0  0  0  0  0  0  0  0  0  0  0
   -3.2571    1.4276   -1.2328 H   0  0  0  0  0  0  0  0  0  0  0  0
    2.1936    0.8011    1.3209 H   0  0  0  0  0  0  0  0  0  0  0  0
    2.0594    1.7778   -0.9636 H   0  0  0  0  0  0  0  0  0  0  0  0
    0.2117    2.0617   -0.7880 H   0  0  0  0  0  0  0  0  0  0  0  0
    1.6455   -0.7480   -0.6421 H   0  0  0  0  0  0  0  0  0  0  0  0
  1  2  3  0
  2  3  1  0
  3  4  1  0
  4  5  3  0
  3  6  1  0
  6  7  1  0
  7  8  1  0
  8  9  1  0
  9  3  1  0
  9  7  1  0
  1 10  1  0
  5 11  1  0
  7 12  1  0
  8 13  1  0
  8 14  1  0
  9 15  1  0
M  END
