
     RDKit          3D

 15 14  0  0  0  0  0  0  0  0999 V2000
    3.9111   -0.4227   -0.6633 C   0  0  0  0  0  0  0  0  0  0  0  0
    3.0062    0.1841   -0.9690 C   0  0  0  0  0  0  0  0  0  0  0  0
    1.8831    0.9264   -1.3562 C   0  0  0  0  0  0  0  0  0  0  0  0
    0.6478    0.7013   -0.5509 C   0  0  0  0  0  0  0  0  0  0  0  0
   -0.3863    0.5008    0.1460 C   0  0  0  0  0  0  0  0  0  0  0  0
   -1.5341    0.2960    0.9373 C   0  0  0  0  0  0  0  0  0  0  0  0
   -2.0143   -1.0969    0.7666 O   0  0  0  0  0  0  0  0  0  0  0  0
   -3.0954   -1.2438    1.7335 C   0  0  0  0  0  0  0  0  0  0  0  0
   -3.6022   -0.6997    2.5325 O   0  0  0  0  0  0  0  0  0  0  0  0
    4.8236   -1.0178   -0.3622 H   0  0  0  0  0  0  0  0  0  0  0  0
    2.1196    2.0476   -1.2378 H   0  0  0  0  0  0  0  0  0  0  0  0
    1.6078    0.8245   -2.4778 H   0  0  0  0  0  0  0  0  0  0  0  0
   -1.4388    0.4700    2.0113 H   0  0  0  0  0  0  0  0  0  0  0  0
   -2.4088    0.8814    0.5057 H   0  0  0  0  0  0  0  0  0  0  0  0
   -3.5194   -2.3512    1.5159 H   0  0  0  0  0  0  0  0  0  0  0  0
  1  2  3  0
  2  3  1  0
  3  4  1  0
  4  5  3  0
  5  6  1  0
  6  7  1  0
  7  8  1  0
  8  9  2  0
  1 10  1  0
  3 11  1  0
  3 12  1  0
  6 13  1  0
  6 14  1  0
  8 15  1  0
M  END
