
     RDKit          3D

 19 18  0  0  0  0  0  0  0  0999 V2000
    0.3620    2.4354   -0.2244 C   0  0  0  0  0  0  0  0  0  0  0  0
    0.2400    1.2323   -0.2714 C   0  0  0  0  0  0  0  0  0  0  0  0
    0.1075   -0.2279   -0.3082 C   0  0  0  0  0  0  0  0  0  0  0  0
    1.2671   -0.8115    0.4091 C   0  0  0  0  0  0  0  0  0  0  0  0
    2.6435   -0.5617   -0.0385 C   0  0  0  0  0  0  0  0  0  0  0  0
    1.0880   -1.5159    1.3932 O   0  0  0  0  0  0  0  0  0  0  0  0
   -1.2034   -0.6460    0.2668 C   0  0  0  0  0  0  0  0  0  0  0  0
   -2.3179   -0.0311   -0.5351 C   0  0  0  0  0  0  0  0  0  0  0  0
   -1.3205   -0.4048    1.6228 O   0  0  0  0  0  0  0  0  0  0  0  0
    0.4544    3.4909   -0.1900 H   0  0  0  0  0  0  0  0  0  0  0  0
    0.1521   -0.6109   -1.3568 H   0  0  0  0  0  0  0  0  0  0  0  0
    2.6310    0.2165   -0.8279 H   0  0  0  0  0  0  0  0  0  0  0  0
    3.1054   -1.4783   -0.4609 H   0  0  0  0  0  0  0  0  0  0  0  0
    3.2994   -0.1935    0.7753 H   0  0  0  0  0  0  0  0  0  0  0  0
   -1.2781   -1.7618    0.1399 H   0  0  0  0  0  0  0  0  0  0  0  0
   -1.9343    0.1848   -1.5403 H   0  0  0  0  0  0  0  0  0  0  0  0
   -2.7221    0.8932   -0.0665 H   0  0  0  0  0  0  0  0  0  0  0  0
   -3.1572   -0.7486   -0.6404 H   0  0  0  0  0  0  0  0  0  0  0  0
   -1.4170    0.5388    1.8535 H   0  0  0  0  0  0  0  0  0  0  0  0
  1  2  3  0
  2  3  1  0
  3  4  1  0
  4  5  1  0
  4  6  2  0
  3  7  1  0
  7  8  1  0
  7  9  1  0
  1 10  1  0
  3 11  1  0
  5 12  1  0
  5 13  1  0
  5 14  1  0
  7 15  1  0
  8 16  1  0
  8 17  1  0
  8 18  1  0
  9 19  1  0
M  END
