
     RDKit          3D

 17 18  0  0  0  0  0  0  0  0999 V2000
    2.9933   -0.3649    1.4262 C   0  0  0  0  0  0  0  0  0  0  0  0
    2.2409   -0.8838    0.6326 C   0  0  0  0  0  0  0  0  0  0  0  0
    1.3142   -1.4991   -0.3116 C   0  0  0  0  0  0  0  0  0  0  0  0
    0.0360   -0.9908   -0.1067 O   0  0  0  0  0  0  0  0  0  0  0  0
    0.0375    0.3718   -0.2964 C   0  0  0  0  0  0  0  0  0  0  0  0
   -1.1679    0.9682   -0.9030 C   0  0  0  0  0  0  0  0  0  0  0  0
   -2.5122    0.9231   -0.2766 C   0  0  0  0  0  0  0  0  0  0  0  0
   -1.9968    0.7200    0.9875 O   0  0  0  0  0  0  0  0  0  0  0  0
   -0.8033    1.2576    0.5477 C   0  0  0  0  0  0  0  0  0  0  0  0
    3.6480    0.1055    2.1305 H   0  0  0  0  0  0  0  0  0  0  0  0
    1.6148   -1.2980   -1.3580 H   0  0  0  0  0  0  0  0  0  0  0  0
    1.2588   -2.6054   -0.1649 H   0  0  0  0  0  0  0  0  0  0  0  0
    1.0240    0.8168   -0.5708 H   0  0  0  0  0  0  0  0  0  0  0  0
   -1.0017    1.7419   -1.6662 H   0  0  0  0  0  0  0  0  0  0  0  0
   -2.9996    1.9340   -0.3185 H   0  0  0  0  0  0  0  0  0  0  0  0
   -3.2047    0.1240   -0.5922 H   0  0  0  0  0  0  0  0  0  0  0  0
   -0.4814    2.2562    0.8406 H   0  0  0  0  0  0  0  0  0  0  0  0
  1  2  3  0
  2  3  1  0
  3  4  1  0
  4  5  1  0
  5  6  1  0
  6  7  1  0
  7  8  1  0
  8  9  1  0
  9  5  1  0
  9  6  1  0
  1 10  1  0
  3 11  1  0
  3 12  1  0
  5 13  1  0
  6 14  1  0
  7 15  1  0
  7 16  1  0
  9 17  1  0
M  END
