
     RDKit          3D

 21 22  0  0  0  0  0  0  0  0999 V2000
    1.3251   -0.9860   -3.9254 C   0  0  0  0  0  0  0  0  0  0  0  0
    1.0992   -1.1032   -2.7014 C   0  0  0  0  0  0  0  0  0  0  0  0
    0.8702   -1.2331   -1.3267 C   0  0  0  0  0  0  0  0  0  0  0  0
   -0.5058   -1.3831   -0.7127 C   0  0  0  0  0  0  0  0  0  0  0  0
    0.3270   -0.1038   -0.5078 C   0  0  0  0  0  0  0  0  0  0  0  0
    0.8392    0.1297    0.9013 C   0  0  0  0  0  0  0  0  0  0  0  0
    0.0262    1.3446    1.4057 C   0  0  0  0  0  0  0  0  0  0  0  0
   -1.4844    0.9967    1.3575 C   0  0  0  0  0  0  0  0  0  0  0  0
   -0.7562    1.2771    2.6368 C   0  0  0  0  0  0  0  0  0  0  0  0
    1.5126   -0.8734   -4.9975 H   0  0  0  0  0  0  0  0  0  0  0  0
    1.6273   -1.9085   -0.8079 H   0  0  0  0  0  0  0  0  0  0  0  0
   -0.6157   -2.0123    0.2023 H   0  0  0  0  0  0  0  0  0  0  0  0
   -1.4231   -1.2322   -1.3048 H   0  0  0  0  0  0  0  0  0  0  0  0
    0.0133    0.7845   -1.0783 H   0  0  0  0  0  0  0  0  0  0  0  0
    0.5552   -0.7027    1.5672 H   0  0  0  0  0  0  0  0  0  0  0  0
    1.9149    0.3331    0.9515 H   0  0  0  0  0  0  0  0  0  0  0  0
    0.2664    2.3003    0.8969 H   0  0  0  0  0  0  0  0  0  0  0  0
   -1.7945   -0.0104    1.0898 H   0  0  0  0  0  0  0  0  0  0  0  0
   -2.1686    1.7691    0.9430 H   0  0  0  0  0  0  0  0  0  0  0  0
   -0.6237    0.3798    3.2713 H   0  0  0  0  0  0  0  0  0  0  0  0
   -1.0045    2.2338    3.1522 H   0  0  0  0  0  0  0  0  0  0  0  0
  1  2  3  0
  2  3  1  0
  3  4  1  0
  4  5  1  0
  5  6  1  0
  6  7  1  0
  7  8  1  0
  8  9  1  0
  5  3  1  0
  9  7  1  0
  1 10  1  0
  3 11  1  0
  4 12  1  0
  4 13  1  0
  5 14  1  0
  6 15  1  0
  6 16  1  0
  7 17  1  0
  8 18  1  0
  8 19  1  0
  9 20  1  0
  9 21  1  0
M  END
