
     RDKit          3D

 15 14  0  0  0  0  0  0  0  0999 V2000
    1.3523   -2.0850    0.7421 C   0  0  0  0  0  0  0  0  0  0  0  0
    0.7596   -1.0753    0.4442 C   0  0  0  0  0  0  0  0  0  0  0  0
    0.0559    0.1670    0.0678 C   0  0  0  0  0  0  0  0  0  0  0  0
    0.9207    1.0132   -0.7714 C   0  0  0  0  0  0  0  0  0  0  0  0
    1.6454    1.7013   -1.4465 C   0  0  0  0  0  0  0  0  0  0  0  0
   -0.3661    0.9104    1.2890 C   0  0  0  0  0  0  0  0  0  0  0  0
   -1.2725    1.6962    1.3232 O   0  0  0  0  0  0  0  0  0  0  0  0
   -1.1454   -0.1904   -0.7560 C   0  0  0  0  0  0  0  0  0  0  0  0
   -2.0502   -0.9997   -0.1065 O   0  0  0  0  0  0  0  0  0  0  0  0
    1.8824   -2.9841    0.9886 H   0  0  0  0  0  0  0  0  0  0  0  0
    2.2791    2.3185   -2.0615 H   0  0  0  0  0  0  0  0  0  0  0  0
    0.2078    0.7060    2.2024 H   0  0  0  0  0  0  0  0  0  0  0  0
   -1.6540    0.7761   -1.0218 H   0  0  0  0  0  0  0  0  0  0  0  0
   -0.8324   -0.6802   -1.6933 H   0  0  0  0  0  0  0  0  0  0  0  0
   -1.7824   -1.2740    0.7998 H   0  0  0  0  0  0  0  0  0  0  0  0
  1  2  3  0
  2  3  1  0
  3  4  1  0
  4  5  3  0
  3  6  1  0
  6  7  2  0
  3  8  1  0
  8  9  1  0
  1 10  1  0
  5 11  1  0
  6 12  1  0
  8 13  1  0
  8 14  1  0
  9 15  1  0
M  END
