
     RDKit          3D

 19 20  0  0  0  0  0  0  0  0999 V2000
    1.4954   -0.3205    2.8339 C   0  0  0  0  0  0  0  0  0  0  0  0
    1.1224   -0.1419    1.5705 C   0  0  0  0  0  0  0  0  0  0  0  0
    0.7636    0.0253    0.2868 C   0  0  0  0  0  0  0  0  0  0  0  0
    1.2495    1.0010   -0.7770 C   0  0  0  0  0  0  0  0  0  0  0  0
   -0.1849    0.9320   -1.3613 C   0  0  0  0  0  0  0  0  0  0  0  0
   -0.4484   -0.2447   -0.4507 C   0  0  0  0  0  0  0  0  0  0  0  0
   -1.8186   -0.5159    0.0498 C   0  0  0  0  0  0  0  0  0  0  0  0
   -2.3226    0.5313    0.7952 O   0  0  0  0  0  0  0  0  0  0  0  0
    0.5199   -1.3374   -0.4270 C   0  0  0  0  0  0  0  0  0  0  0  0
    1.7645   -0.4650    3.7444 H   0  0  0  0  0  0  0  0  0  0  0  0
    1.9524    0.4428   -1.4778 H   0  0  0  0  0  0  0  0  0  0  0  0
    1.5881    1.9390   -0.4106 H   0  0  0  0  0  0  0  0  0  0  0  0
   -0.2190    0.7239   -2.4310 H   0  0  0  0  0  0  0  0  0  0  0  0
   -0.7187    1.8576   -1.0495 H   0  0  0  0  0  0  0  0  0  0  0  0
   -1.8370   -1.5126    0.5515 H   0  0  0  0  0  0  0  0  0  0  0  0
   -2.5100   -0.5602   -0.8696 H   0  0  0  0  0  0  0  0  0  0  0  0
   -1.9720    1.3903    0.4559 H   0  0  0  0  0  0  0  0  0  0  0  0
    0.2764   -2.2114    0.1452 H   0  0  0  0  0  0  0  0  0  0  0  0
    1.2990   -1.5337   -1.1787 H   0  0  0  0  0  0  0  0  0  0  0  0
  1  2  3  0
  2  3  1  0
  3  4  1  0
  4  5  1  0
  5  6  1  0
  6  7  1  0
  7  8  1  0
  6  9  1  0
  6  3  1  0
  9  3  1  0
  1 10  1  0
  4 11  1  0
  4 12  1  0
  5 13  1  0
  5 14  1  0
  7 15  1  0
  7 16  1  0
  8 17  1  0
  9 18  1  0
  9 19  1  0
M  END
