
     RDKit          3D

 17 17  0  0  0  0  0  0  0  0999 V2000
   -0.3684    2.9148   -0.0037 C   0  0  0  0  0  0  0  0  0  0  0  0
    0.2525    1.7521   -0.0360 C   0  0  0  0  0  0  0  0  0  0  0  0
    0.9159    0.4849   -0.0523 C   0  0  0  0  0  0  0  0  0  0  0  0
    0.4528   -0.3510   -1.2783 C   0  0  0  0  0  0  0  0  0  0  0  0
   -1.0726   -0.5049   -1.0624 C   0  0  0  0  0  0  0  0  0  0  0  0
    1.9453    0.1425    0.7442 O   0  0  0  0  0  0  0  0  0  0  0  0
    0.5793   -0.2436    1.2051 C   0  0  0  0  0  0  0  0  0  0  0  0
    0.3348   -1.6438    1.1991 C   0  0  0  0  0  0  0  0  0  0  0  0
    0.1247   -1.7958    2.7143 O   0  0  0  0  0  0  0  0  0  0  0  0
   -0.9446    3.9561    0.0275 H   0  0  0  0  0  0  0  0  0  0  0  0
    0.6083    0.2717   -2.1502 H   0  0  0  0  0  0  0  0  0  0  0  0
    0.9319   -1.3176   -1.3458 H   0  0  0  0  0  0  0  0  0  0  0  0
   -1.5727   -0.2504   -2.0364 H   0  0  0  0  0  0  0  0  0  0  0  0
   -1.3589    0.3092   -0.3716 H   0  0  0  0  0  0  0  0  0  0  0  0
   -1.3567   -1.5000   -0.7343 H   0  0  0  0  0  0  0  0  0  0  0  0
    0.3519    0.3897    2.0785 H   0  0  0  0  0  0  0  0  0  0  0  0
    0.1764   -2.6140    1.1023 H   0  0  0  0  0  0  0  0  0  0  0  0
  1  2  3  0
  2  3  1  0
  3  4  1  0
  4  5  1  0
  3  6  1  0
  6  7  1  0
  7  8  1  0
  8  9  2  0
  7  3  1  0
  1 10  1  0
  4 11  1  0
  4 12  1  0
  5 13  1  0
  5 14  1  0
  5 15  1  0
  7 16  1  0
  8 17  1  0
M  END
