
     RDKit          3D

 19 19  0  0  0  0  0  0  0  0999 V2000
    5.3858   -0.0914   -0.6591 C   0  0  0  0  0  0  0  0  0  0  0  0
    4.2030   -0.3130   -0.4631 C   0  0  0  0  0  0  0  0  0  0  0  0
    2.8311   -0.5567   -0.2149 C   0  0  0  0  0  0  0  0  0  0  0  0
    1.6631   -0.7699   -0.0060 C   0  0  0  0  0  0  0  0  0  0  0  0
    0.2310   -1.0344    0.2370 C   0  0  0  0  0  0  0  0  0  0  0  0
   -0.3208   -0.3739    1.4552 C   0  0  0  0  0  0  0  0  0  0  0  0
   -0.6504    0.1343    0.0612 C   0  0  0  0  0  0  0  0  0  0  0  0
   -2.0781   -0.0762   -0.3396 C   0  0  0  0  0  0  0  0  0  0  0  0
   -2.7854    1.2771   -0.4578 C   0  0  0  0  0  0  0  0  0  0  0  0
    6.4101    0.1082   -0.8121 H   0  0  0  0  0  0  0  0  0  0  0  0
   -0.1373   -2.0499   -0.0496 H   0  0  0  0  0  0  0  0  0  0  0  0
    0.3223    0.2511    2.0991 H   0  0  0  0  0  0  0  0  0  0  0  0
   -1.0836   -0.9716    1.9952 H   0  0  0  0  0  0  0  0  0  0  0  0
   -0.2405    1.1225   -0.2554 H   0  0  0  0  0  0  0  0  0  0  0  0
   -2.1715   -0.6468   -1.2961 H   0  0  0  0  0  0  0  0  0  0  0  0
   -2.6589   -0.6754    0.4072 H   0  0  0  0  0  0  0  0  0  0  0  0
   -2.1329    1.9904   -0.9662 H   0  0  0  0  0  0  0  0  0  0  0  0
   -3.7074    1.0776   -1.0676 H   0  0  0  0  0  0  0  0  0  0  0  0
   -3.0798    1.5982    0.5752 H   0  0  0  0  0  0  0  0  0  0  0  0
  1  2  3  0
  2  3  1  0
  3  4  3  0
  4  5  1  0
  5  6  1  0
  6  7  1  0
  7  8  1  0
  8  9  1  0
  7  5  1  0
  1 10  1  0
  5 11  1  0
  6 12  1  0
  6 13  1  0
  7 14  1  0
  8 15  1  0
  8 16  1  0
  9 17  1  0
  9 18  1  0
  9 19  1  0
M  END
