
     RDKit          3D

 21 21  0  0  0  0  0  0  0  0999 V2000
   -3.6930   -0.3862   -0.3609 C   0  0  0  0  0  0  0  0  0  0  0  0
   -2.6444   -0.1732   -0.9073 C   0  0  0  0  0  0  0  0  0  0  0  0
   -1.3414    0.0832   -1.5578 C   0  0  0  0  0  0  0  0  0  0  0  0
   -0.1808   -0.3107   -0.6346 C   0  0  0  0  0  0  0  0  0  0  0  0
   -0.1872    0.4359    0.6261 C   0  0  0  0  0  0  0  0  0  0  0  0
    0.8605    0.1910    1.6473 C   0  0  0  0  0  0  0  0  0  0  0  0
    2.2586    0.5134    1.2508 C   0  0  0  0  0  0  0  0  0  0  0  0
    1.0277   -0.7278   -1.4120 C   0  0  0  0  0  0  0  0  0  0  0  0
    0.1998   -1.6566   -0.6520 O   0  0  0  0  0  0  0  0  0  0  0  0
   -4.6314   -0.5733    0.1397 H   0  0  0  0  0  0  0  0  0  0  0  0
   -1.2675    1.1582   -1.8188 H   0  0  0  0  0  0  0  0  0  0  0  0
   -1.2944   -0.5053   -2.4928 H   0  0  0  0  0  0  0  0  0  0  0  0
   -1.1851    0.3171    1.1624 H   0  0  0  0  0  0  0  0  0  0  0  0
   -0.1972    1.5487    0.3837 H   0  0  0  0  0  0  0  0  0  0  0  0
    0.6257    0.7794    2.5909 H   0  0  0  0  0  0  0  0  0  0  0  0
    0.8051   -0.8795    2.0271 H   0  0  0  0  0  0  0  0  0  0  0  0
    2.8504   -0.4031    1.1049 H   0  0  0  0  0  0  0  0  0  0  0  0
    2.3061    1.1607    0.3526 H   0  0  0  0  0  0  0  0  0  0  0  0
    2.7703    1.0843    2.0951 H   0  0  0  0  0  0  0  0  0  0  0  0
    0.8745   -0.9902   -2.5029 H   0  0  0  0  0  0  0  0  0  0  0  0
    2.0436   -0.6661   -1.0415 H   0  0  0  0  0  0  0  0  0  0  0  0
  1  2  3  0
  2  3  1  0
  3  4  1  0
  4  5  1  0
  5  6  1  0
  6  7  1  0
  4  8  1  0
  8  9  1  0
  9  4  1  0
  1 10  1  0
  3 11  1  0
  3 12  1  0
  5 13  1  0
  5 14  1  0
  6 15  1  0
  6 16  1  0
  7 17  1  0
  7 18  1  0
  7 19  1  0
  8 20  1  0
  8 21  1  0
M  END
