
     RDKit          3D

 14 13  0  0  0  0  0  0  0  0999 V2000
   -2.1658    1.5045    0.1172 C   0  0  0  0  0  0  0  0  0  0  0  0
   -1.4715    0.5268    0.2261 C   0  0  0  0  0  0  0  0  0  0  0  0
   -0.6256   -0.6332    0.3738 C   0  0  0  0  0  0  0  0  0  0  0  0
   -1.2706   -1.7658   -0.1286 O   0  0  0  0  0  0  0  0  0  0  0  0
    0.6894   -0.5036   -0.3428 C   0  0  0  0  0  0  0  0  0  0  0  0
    1.5176    0.6501    0.1290 C   0  0  0  0  0  0  0  0  0  0  0  0
   -2.7753    2.3821    0.0327 H   0  0  0  0  0  0  0  0  0  0  0  0
   -0.4400   -0.7883    1.4587 H   0  0  0  0  0  0  0  0  0  0  0  0
   -0.6642   -2.3326   -0.6688 H   0  0  0  0  0  0  0  0  0  0  0  0
    0.5404   -0.4141   -1.4313 H   0  0  0  0  0  0  0  0  0  0  0  0
    1.2753   -1.4295   -0.1690 H   0  0  0  0  0  0  0  0  0  0  0  0
    2.5838    0.4186   -0.1503 H   0  0  0  0  0  0  0  0  0  0  0  0
    1.2819    1.6070   -0.3466 H   0  0  0  0  0  0  0  0  0  0  0  0
    1.5245    0.7778    1.2274 H   0  0  0  0  0  0  0  0  0  0  0  0
  1  2  3  0
  2  3  1  0
  3  4  1  0
  3  5  1  0
  5  6  1  0
  1  7  1  0
  3  8  1  0
  4  9  1  0
  5 10  1  0
  5 11  1  0
  6 12  1  0
  6 13  1  0
  6 14  1  0
M  END
