
     RDKit          3D

 17 17  0  0  0  0  0  0  0  0999 V2000
    1.5033    2.0600    0.4224 C   0  0  0  0  0  0  0  0  0  0  0  0
    1.0263    0.9527    0.3834 C   0  0  0  0  0  0  0  0  0  0  0  0
    0.5293   -0.2227    0.3418 C   0  0  0  0  0  0  0  0  0  0  0  0
    1.5956   -1.2103   -0.2698 C   0  0  0  0  0  0  0  0  0  0  0  0
    2.1320   -2.0516    0.2653 O   0  0  0  0  0  0  0  0  0  0  0  0
   -0.8508   -0.2652   -0.4366 C   0  0  0  0  0  0  0  0  0  0  0  0
   -1.5321    1.0733   -0.5101 C   0  0  0  0  0  0  0  0  0  0  0  0
   -0.5487   -0.7940    0.9867 C   0  0  0  0  0  0  0  0  0  0  0  0
   -0.5344   -2.2637    1.0223 O   0  0  0  0  0  0  0  0  0  0  0  0
    2.0450    3.3054    0.4846 H   0  0  0  0  0  0  0  0  0  0  0  0
    1.8726   -0.9996   -1.5087 H   0  0  0  0  0  0  0  0  0  0  0  0
   -1.0076   -1.0322   -1.3181 H   0  0  0  0  0  0  0  0  0  0  0  0
   -0.7310    1.8766   -0.6416 H   0  0  0  0  0  0  0  0  0  0  0  0
   -2.3084    1.1546   -1.2371 H   0  0  0  0  0  0  0  0  0  0  0  0
   -1.9813    1.2663    0.5266 H   0  0  0  0  0  0  0  0  0  0  0  0
   -0.9818   -0.3342    1.8464 H   0  0  0  0  0  0  0  0  0  0  0  0
   -0.2280   -2.5154    0.0767 H   0  0  0  0  0  0  0  0  0  0  0  0
  1  2  3  0
  2  3  1  0
  3  4  1  0
  4  5  2  0
  3  6  1  0
  6  7  1  0
  6  8  1  0
  8  9  1  0
  8  3  1  0
  1 10  1  0
  4 11  1  0
  6 12  1  0
  7 13  1  0
  7 14  1  0
  7 15  1  0
  8 16  1  0
  9 17  1  0
M  END
