
     RDKit          3D

 23 22  0  0  0  0  0  0  0  0999 V2000
   -3.3918    1.2756    0.9698 C   0  0  0  0  0  0  0  0  0  0  0  0
   -2.2797    0.7318    0.7909 C   0  0  0  0  0  0  0  0  0  0  0  0
   -1.0888    0.1381    0.6009 C   0  0  0  0  0  0  0  0  0  0  0  0
   -0.9016   -1.1583    1.3410 C   0  0  0  0  0  0  0  0  0  0  0  0
   -0.7327    0.0594   -0.8589 C   0  0  0  0  0  0  0  0  0  0  0  0
    0.5604   -0.5807   -1.2405 C   0  0  0  0  0  0  0  0  0  0  0  0
    0.7376   -1.8750   -0.8518 O   0  0  0  0  0  0  0  0  0  0  0  0
    1.7161    0.3380   -1.0565 C   0  0  0  0  0  0  0  0  0  0  0  0
    2.0700    0.8140    0.2936 C   0  0  0  0  0  0  0  0  0  0  0  0
   -4.4272    1.7954    1.1205 H   0  0  0  0  0  0  0  0  0  0  0  0
   -0.3100    0.9063    1.0358 H   0  0  0  0  0  0  0  0  0  0  0  0
   -1.0930   -2.0209    0.5974 H   0  0  0  0  0  0  0  0  0  0  0  0
   -1.6895   -1.2555    2.1207 H   0  0  0  0  0  0  0  0  0  0  0  0
    0.0619   -1.2210    1.8130 H   0  0  0  0  0  0  0  0  0  0  0  0
   -1.5989   -0.2985   -1.4123 H   0  0  0  0  0  0  0  0  0  0  0  0
   -0.6382    1.1665   -1.1680 H   0  0  0  0  0  0  0  0  0  0  0  0
    0.4772   -0.6512   -2.4060 H   0  0  0  0  0  0  0  0  0  0  0  0
    1.6271   -2.0526   -0.4710 H   0  0  0  0  0  0  0  0  0  0  0  0
    2.6198   -0.0852   -1.5724 H   0  0  0  0  0  0  0  0  0  0  0  0
    1.4150    1.2726   -1.6517 H   0  0  0  0  0  0  0  0  0  0  0  0
    1.7713    1.8133    0.5744 H   0  0  0  0  0  0  0  0  0  0  0  0
    1.8710    0.0447    1.0997 H   0  0  0  0  0  0  0  0  0  0  0  0
    3.2242    0.8431    0.3315 H   0  0  0  0  0  0  0  0  0  0  0  0
  1  2  3  0
  2  3  1  0
  3  4  1  0
  3  5  1  0
  5  6  1  0
  6  7  1  0
  6  8  1  0
  8  9  1  0
  1 10  1  0
  3 11  1  0
  4 12  1  0
  4 13  1  0
  4 14  1  0
  5 15  1  0
  5 16  1  0
  6 17  1  0
  7 18  1  0
  8 19  1  0
  8 20  1  0
  9 21  1  0
  9 22  1  0
  9 23  1  0
M  END
