
     RDKit          3D

 14 14  0  0  0  0  0  0  0  0999 V2000
    4.2555    0.0102   -0.6654 C   0  0  0  0  0  0  0  0  0  0  0  0
    3.0522    0.0335   -0.5630 C   0  0  0  0  0  0  0  0  0  0  0  0
    1.6399    0.0462   -0.4534 C   0  0  0  0  0  0  0  0  0  0  0  0
    0.4459    0.0627   -0.3406 C   0  0  0  0  0  0  0  0  0  0  0  0
   -1.0204    0.1000   -0.1860 C   0  0  0  0  0  0  0  0  0  0  0  0
   -1.6086   -1.2632    0.1470 C   0  0  0  0  0  0  0  0  0  0  0  0
   -1.6210    1.3299    0.2247 C   0  0  0  0  0  0  0  0  0  0  0  0
   -1.6425    0.8440   -1.1796 O   0  0  0  0  0  0  0  0  0  0  0  0
    5.3157    0.0018   -0.7421 H   0  0  0  0  0  0  0  0  0  0  0  0
   -0.9422   -1.7076    0.9230 H   0  0  0  0  0  0  0  0  0  0  0  0
   -1.5716   -1.9355   -0.7518 H   0  0  0  0  0  0  0  0  0  0  0  0
   -2.6293   -1.1990    0.5286 H   0  0  0  0  0  0  0  0  0  0  0  0
   -2.6609    1.4384    0.5441 H   0  0  0  0  0  0  0  0  0  0  0  0
   -1.0127    2.2383    0.3454 H   0  0  0  0  0  0  0  0  0  0  0  0
  1  2  3  0
  2  3  1  0
  3  4  3  0
  4  5  1  0
  5  6  1  0
  5  7  1  0
  7  8  1  0
  8  5  1  0
  1  9  1  0
  6 10  1  0
  6 11  1  0
  6 12  1  0
  7 13  1  0
  7 14  1  0
M  END
