
     RDKit          3D

 15 15  0  0  0  0  0  0  0  0999 V2000
    3.0169   -0.5719    1.0972 C   0  0  0  0  0  0  0  0  0  0  0  0
    2.2216   -0.1634    0.6298 C   0  0  0  0  0  0  0  0  0  0  0  0
    0.9622    0.5145   -0.1103 C   0  0  0  0  0  0  0  0  0  0  0  0
    1.0768    1.7297   -0.1048 O   0  0  0  0  0  0  0  0  0  0  0  0
    0.0232   -0.4622   -0.5522 C   0  0  0  0  0  0  0  0  0  0  0  0
   -1.1167   -0.4165   -1.4394 C   0  0  0  0  0  0  0  0  0  0  0  0
   -1.3807   -0.2273    0.0148 C   0  0  0  0  0  0  0  0  0  0  0  0
   -1.5812    1.1073    0.5887 C   0  0  0  0  0  0  0  0  0  0  0  0
   -1.8744    1.2080    1.7849 O   0  0  0  0  0  0  0  0  0  0  0  0
    4.0318   -1.1152    1.6864 H   0  0  0  0  0  0  0  0  0  0  0  0
    0.4161   -1.5532   -0.3885 H   0  0  0  0  0  0  0  0  0  0  0  0
   -1.1769    0.3877   -2.1770 H   0  0  0  0  0  0  0  0  0  0  0  0
   -1.4257   -1.3987   -1.9441 H   0  0  0  0  0  0  0  0  0  0  0  0
   -1.7006   -1.0726    0.6439 H   0  0  0  0  0  0  0  0  0  0  0  0
   -1.4923    2.0337    0.0448 H   0  0  0  0  0  0  0  0  0  0  0  0
  1  2  3  0
  2  3  1  0
  3  4  2  0
  3  5  1  0
  5  6  1  0
  6  7  1  0
  7  8  1  0
  8  9  2  0
  7  5  1  0
  1 10  1  0
  5 11  1  0
  6 12  1  0
  6 13  1  0
  7 14  1  0
  8 15  1  0
M  END
