
     RDKit          3D

 21 21  0  0  0  0  0  0  0  0999 V2000
   -0.3495    2.6662   -0.5628 C   0  0  0  0  0  0  0  0  0  0  0  0
   -0.4890    1.5315   -0.6107 C   0  0  0  0  0  0  0  0  0  0  0  0
   -0.6774    0.0495   -0.6605 C   0  0  0  0  0  0  0  0  0  0  0  0
    0.7205   -0.4099   -1.1253 C   0  0  0  0  0  0  0  0  0  0  0  0
    1.2644   -1.6742   -1.4909 C   0  0  0  0  0  0  0  0  0  0  0  0
   -0.5071   -0.4875    0.8672 C   0  0  0  0  0  0  0  0  0  0  0  0
    0.3967    0.4261    1.6005 C   0  0  0  0  0  0  0  0  0  0  0  0
   -1.7474   -0.3710    0.1556 C   0  0  0  0  0  0  0  0  0  0  0  0
   -2.6157    0.5482    0.8275 O   0  0  0  0  0  0  0  0  0  0  0  0
   -0.1665    4.0841   -0.5027 H   0  0  0  0  0  0  0  0  0  0  0  0
    1.3730   -0.1889   -0.0673 H   0  0  0  0  0  0  0  0  0  0  0  0
    1.2654    0.4460   -1.6478 H   0  0  0  0  0  0  0  0  0  0  0  0
    0.5714   -2.4636   -1.8618 H   0  0  0  0  0  0  0  0  0  0  0  0
    1.9207   -2.1791   -0.7273 H   0  0  0  0  0  0  0  0  0  0  0  0
    2.0220   -1.5267   -2.3525 H   0  0  0  0  0  0  0  0  0  0  0  0
   -0.0800   -1.5785    0.8730 H   0  0  0  0  0  0  0  0  0  0  0  0
    1.3012   -0.1524    1.9608 H   0  0  0  0  0  0  0  0  0  0  0  0
    0.7222    1.3403    1.0699 H   0  0  0  0  0  0  0  0  0  0  0  0
   -0.0734    0.8034    2.5675 H   0  0  0  0  0  0  0  0  0  0  0  0
   -2.3718   -1.2994   -0.1290 H   0  0  0  0  0  0  0  0  0  0  0  0
   -2.4798    0.4358    1.8167 H   0  0  0  0  0  0  0  0  0  0  0  0
  1  2  3  0
  2  3  1  0
  3  4  1  0
  4  5  1  0
  3  6  1  0
  6  7  1  0
  6  8  1  0
  8  9  1  0
  8  3  1  0
  1 10  1  0
  4 11  1  0
  4 12  1  0
  5 13  1  0
  5 14  1  0
  5 15  1  0
  6 16  1  0
  7 17  1  0
  7 18  1  0
  7 19  1  0
  8 20  1  0
  9 21  1  0
M  END
