
     RDKit          3D

 19 20  0  0  0  0  0  0  0  0999 V2000
    3.1308    0.5881   -1.1426 C   0  0  0  0  0  0  0  0  0  0  0  0
    2.3001    0.1868   -0.3651 C   0  0  0  0  0  0  0  0  0  0  0  0
    1.2923   -0.2898    0.5942 C   0  0  0  0  0  0  0  0  0  0  0  0
    0.6911   -1.5975    0.3478 C   0  0  0  0  0  0  0  0  0  0  0  0
   -0.1273   -0.3388    0.2422 C   0  0  0  0  0  0  0  0  0  0  0  0
   -0.6452    0.1054   -1.1065 C   0  0  0  0  0  0  0  0  0  0  0  0
   -1.6631    1.1408   -0.7437 C   0  0  0  0  0  0  0  0  0  0  0  0
   -1.9871    1.0423    0.5449 C   0  0  0  0  0  0  0  0  0  0  0  0
   -1.2335   -0.0622    1.2023 C   0  0  0  0  0  0  0  0  0  0  0  0
    3.8580    0.9493   -1.8299 H   0  0  0  0  0  0  0  0  0  0  0  0
    1.5126    0.0509    1.6483 H   0  0  0  0  0  0  0  0  0  0  0  0
    0.5500   -2.2734    1.2155 H   0  0  0  0  0  0  0  0  0  0  0  0
    0.8963   -2.0915   -0.6154 H   0  0  0  0  0  0  0  0  0  0  0  0
    0.1288    0.4816   -1.7759 H   0  0  0  0  0  0  0  0  0  0  0  0
   -1.2126   -0.7440   -1.5446 H   0  0  0  0  0  0  0  0  0  0  0  0
   -2.0941    1.8833   -1.4235 H   0  0  0  0  0  0  0  0  0  0  0  0
   -2.6915    1.6429    1.1143 H   0  0  0  0  0  0  0  0  0  0  0  0
   -0.7975    0.2635    2.1681 H   0  0  0  0  0  0  0  0  0  0  0  0
   -1.9081   -0.9375    1.3073 H   0  0  0  0  0  0  0  0  0  0  0  0
  1  2  3  0
  2  3  1  0
  3  4  1  0
  4  5  1  0
  5  6  1  0
  6  7  1  0
  7  8  2  0
  8  9  1  0
  5  3  1  0
  9  5  1  0
  1 10  1  0
  3 11  1  0
  4 12  1  0
  4 13  1  0
  6 14  1  0
  6 15  1  0
  7 16  1  0
  8 17  1  0
  9 18  1  0
  9 19  1  0
M  END
