
     RDKit          3D

 19 20  0  0  0  0  0  0  0  0999 V2000
    0.9266   -3.0744    1.0568 C   0  0  0  0  0  0  0  0  0  0  0  0
    0.5984   -2.0205    0.4296 C   0  0  0  0  0  0  0  0  0  0  0  0
    0.2557   -0.9120   -0.2039 C   0  0  0  0  0  0  0  0  0  0  0  0
    0.3603   -0.7358   -1.5784 C   0  0  0  0  0  0  0  0  0  0  0  0
   -0.1294    0.6569   -1.8717 C   0  0  0  0  0  0  0  0  0  0  0  0
   -1.1242    0.9165   -0.7279 C   0  0  0  0  0  0  0  0  0  0  0  0
   -0.1800    0.3872    0.3535 C   0  0  0  0  0  0  0  0  0  0  0  0
   -0.5226    0.5056    1.7741 C   0  0  0  0  0  0  0  0  0  0  0  0
    0.6502    1.2742    1.1491 C   0  0  0  0  0  0  0  0  0  0  0  0
    1.2253   -4.0274    1.6415 H   0  0  0  0  0  0  0  0  0  0  0  0
    0.7237   -1.4272   -2.3258 H   0  0  0  0  0  0  0  0  0  0  0  0
    0.7172    1.3880   -1.7553 H   0  0  0  0  0  0  0  0  0  0  0  0
   -0.5960    0.7627   -2.8322 H   0  0  0  0  0  0  0  0  0  0  0  0
   -1.9721    0.2198   -0.7729 H   0  0  0  0  0  0  0  0  0  0  0  0
   -1.4380    1.9285   -0.6330 H   0  0  0  0  0  0  0  0  0  0  0  0
   -0.2775   -0.3180    2.5192 H   0  0  0  0  0  0  0  0  0  0  0  0
   -1.3278    1.1355    2.1967 H   0  0  0  0  0  0  0  0  0  0  0  0
    0.4910    2.3603    1.0170 H   0  0  0  0  0  0  0  0  0  0  0  0
    1.6192    0.9802    1.5643 H   0  0  0  0  0  0  0  0  0  0  0  0
  1  2  3  0
  2  3  1  0
  3  4  2  0
  4  5  1  0
  5  6  1  0
  6  7  1  0
  7  8  1  0
  8  9  1  0
  7  3  1  0
  9  7  1  0
  1 10  1  0
  4 11  1  0
  5 12  1  0
  5 13  1  0
  6 14  1  0
  6 15  1  0
  8 16  1  0
  8 17  1  0
  9 18  1  0
  9 19  1  0
M  END
