
     RDKit          3D

 19 20  0  0  0  0  0  0  0  0999 V2000
   -3.2283    0.9464   -0.2076 C   0  0  0  0  0  0  0  0  0  0  0  0
   -2.0683    0.7247   -0.4483 C   0  0  0  0  0  0  0  0  0  0  0  0
   -0.6918    0.4457   -0.7438 C   0  0  0  0  0  0  0  0  0  0  0  0
   -0.2397    0.7450   -2.0180 O   0  0  0  0  0  0  0  0  0  0  0  0
    0.2383    0.7823    0.3869 C   0  0  0  0  0  0  0  0  0  0  0  0
   -0.3664   -0.4123    1.0875 C   0  0  0  0  0  0  0  0  0  0  0  0
   -0.1530   -0.8932   -0.3087 C   0  0  0  0  0  0  0  0  0  0  0  0
    1.1765   -0.1851   -0.2606 C   0  0  0  0  0  0  0  0  0  0  0  0
    2.2305   -0.7946    0.5921 C   0  0  0  0  0  0  0  0  0  0  0  0
   -4.2623    1.1602   -0.0025 H   0  0  0  0  0  0  0  0  0  0  0  0
   -0.7735    1.4345   -2.4823 H   0  0  0  0  0  0  0  0  0  0  0  0
    0.4300    1.6780    0.7772 H   0  0  0  0  0  0  0  0  0  0  0  0
    0.2177   -0.8632    1.8872 H   0  0  0  0  0  0  0  0  0  0  0  0
   -1.4330   -0.3130    1.3479 H   0  0  0  0  0  0  0  0  0  0  0  0
   -0.3514   -1.7851   -0.7075 H   0  0  0  0  0  0  0  0  0  0  0  0
    1.5607    0.1979   -1.2209 H   0  0  0  0  0  0  0  0  0  0  0  0
    1.9190   -1.7016    1.1354 H   0  0  0  0  0  0  0  0  0  0  0  0
    2.7238   -0.0400    1.2713 H   0  0  0  0  0  0  0  0  0  0  0  0
    3.0711   -1.1267   -0.0853 H   0  0  0  0  0  0  0  0  0  0  0  0
  1  2  3  0
  2  3  1  0
  3  4  1  0
  3  5  1  0
  5  6  1  0
  6  7  1  0
  7  8  1  0
  8  9  1  0
  7  3  1  0
  8  5  1  0
  1 10  1  0
  4 11  1  0
  5 12  1  0
  6 13  1  0
  6 14  1  0
  7 15  1  0
  8 16  1  0
  9 17  1  0
  9 18  1  0
  9 19  1  0
M  END
