
     RDKit          3D

 19 19  0  0  0  0  0  0  0  0999 V2000
   -2.2993    1.3040   -1.0583 C   0  0  0  0  0  0  0  0  0  0  0  0
   -1.6545    0.2968   -0.8432 C   0  0  0  0  0  0  0  0  0  0  0  0
   -0.8891   -0.9152   -0.5612 C   0  0  0  0  0  0  0  0  0  0  0  0
    0.1580   -1.1308   -1.6630 C   0  0  0  0  0  0  0  0  0  0  0  0
    1.0051   -0.1197   -0.8822 C   0  0  0  0  0  0  0  0  0  0  0  0
    0.2766   -0.6411    0.3642 C   0  0  0  0  0  0  0  0  0  0  0  0
    0.0123    0.3857    1.3809 C   0  0  0  0  0  0  0  0  0  0  0  0
    1.0293    0.7854    2.3699 C   0  0  0  0  0  0  0  0  0  0  0  0
   -1.0763    0.9288    1.4162 O   0  0  0  0  0  0  0  0  0  0  0  0
   -2.8616    2.1981   -1.2336 H   0  0  0  0  0  0  0  0  0  0  0  0
   -1.4868   -1.8098   -0.3333 H   0  0  0  0  0  0  0  0  0  0  0  0
   -0.1597   -0.8099   -2.6532 H   0  0  0  0  0  0  0  0  0  0  0  0
    0.5380   -2.1771   -1.5884 H   0  0  0  0  0  0  0  0  0  0  0  0
    2.0723   -0.3307   -0.9055 H   0  0  0  0  0  0  0  0  0  0  0  0
    0.6653    0.8967   -1.0985 H   0  0  0  0  0  0  0  0  0  0  0  0
    0.7174   -1.5726    0.7671 H   0  0  0  0  0  0  0  0  0  0  0  0
    1.6527    1.5923    1.8951 H   0  0  0  0  0  0  0  0  0  0  0  0
    1.6772   -0.0776    2.6232 H   0  0  0  0  0  0  0  0  0  0  0  0
    0.6230    1.1967    3.3004 H   0  0  0  0  0  0  0  0  0  0  0  0
  1  2  3  0
  2  3  1  0
  3  4  1  0
  4  5  1  0
  5  6  1  0
  6  7  1  0
  7  8  1  0
  7  9  2  0
  6  3  1  0
  1 10  1  0
  3 11  1  0
  4 12  1  0
  4 13  1  0
  5 14  1  0
  5 15  1  0
  6 16  1  0
  8 17  1  0
  8 18  1  0
  8 19  1  0
M  END
