
     RDKit          3D

 21 21  0  0  0  0  0  0  0  0999 V2000
   -1.6191    2.6642   -0.2258 C   0  0  0  0  0  0  0  0  0  0  0  0
   -1.2659    1.5339    0.0821 C   0  0  0  0  0  0  0  0  0  0  0  0
   -0.8403    0.1830    0.4705 C   0  0  0  0  0  0  0  0  0  0  0  0
   -0.7175   -0.7230   -0.7402 C   0  0  0  0  0  0  0  0  0  0  0  0
   -0.8028   -2.1604   -0.3292 C   0  0  0  0  0  0  0  0  0  0  0  0
    0.6932   -0.1856   -0.8921 C   0  0  0  0  0  0  0  0  0  0  0  0
    1.6285   -1.1653   -1.2747 O   0  0  0  0  0  0  0  0  0  0  0  0
    0.6382    0.0992    0.5852 C   0  0  0  0  0  0  0  0  0  0  0  0
    1.3609    1.3273    1.0412 C   0  0  0  0  0  0  0  0  0  0  0  0
   -1.9074    3.6473   -0.4951 H   0  0  0  0  0  0  0  0  0  0  0  0
   -1.3908   -0.2414    1.3286 H   0  0  0  0  0  0  0  0  0  0  0  0
   -1.4118   -0.4085   -1.5449 H   0  0  0  0  0  0  0  0  0  0  0  0
    0.0411   -2.4061    0.3245 H   0  0  0  0  0  0  0  0  0  0  0  0
   -1.7293   -2.3911    0.2446 H   0  0  0  0  0  0  0  0  0  0  0  0
   -0.8041   -2.8018   -1.2341 H   0  0  0  0  0  0  0  0  0  0  0  0
    0.7200    0.7263   -1.5385 H   0  0  0  0  0  0  0  0  0  0  0  0
    1.7840   -1.7370   -0.4930 H   0  0  0  0  0  0  0  0  0  0  0  0
    0.9579   -0.7999    1.1629 H   0  0  0  0  0  0  0  0  0  0  0  0
    0.7134    2.2276    0.9994 H   0  0  0  0  0  0  0  0  0  0  0  0
    1.6772    1.1519    2.0883 H   0  0  0  0  0  0  0  0  0  0  0  0
    2.2747    1.4593    0.4401 H   0  0  0  0  0  0  0  0  0  0  0  0
  1  2  3  0
  2  3  1  0
  3  4  1  0
  4  5  1  0
  4  6  1  0
  6  7  1  0
  6  8  1  0
  8  9  1  0
  8  3  1  0
  1 10  1  0
  3 11  1  0
  4 12  1  0
  5 13  1  0
  5 14  1  0
  5 15  1  0
  6 16  1  0
  7 17  1  0
  8 18  1  0
  9 19  1  0
  9 20  1  0
  9 21  1  0
M  END
