
     RDKit          3D

 14 15  0  0  0  0  0  0  0  0999 V2000
    1.2441    2.6103    0.1364 C   0  0  0  0  0  0  0  0  0  0  0  0
    1.1208    1.4064    0.0610 C   0  0  0  0  0  0  0  0  0  0  0  0
    0.9816   -0.0295   -0.0051 C   0  0  0  0  0  0  0  0  0  0  0  0
   -0.0354   -0.5836    0.9016 C   0  0  0  0  0  0  0  0  0  0  0  0
   -0.9907   -0.1629   -0.2283 C   0  0  0  0  0  0  0  0  0  0  0  0
   -2.0641   -1.0868   -0.1494 O   0  0  0  0  0  0  0  0  0  0  0  0
    0.0940   -0.7197   -1.0718 C   0  0  0  0  0  0  0  0  0  0  0  0
    1.3624   -0.4465   -1.2476 O   0  0  0  0  0  0  0  0  0  0  0  0
    1.3343    3.6690    0.2075 H   0  0  0  0  0  0  0  0  0  0  0  0
   -0.0418   -1.6623    1.0442 H   0  0  0  0  0  0  0  0  0  0  0  0
   -0.1469    0.0241    1.8174 H   0  0  0  0  0  0  0  0  0  0  0  0
   -1.2406    0.8779   -0.3051 H   0  0  0  0  0  0  0  0  0  0  0  0
   -1.6781   -2.0158   -0.1777 H   0  0  0  0  0  0  0  0  0  0  0  0
    0.0606   -1.8804   -0.9832 H   0  0  0  0  0  0  0  0  0  0  0  0
  1  2  3  0
  2  3  1  0
  3  4  1  0
  4  5  1  0
  5  6  1  0
  5  7  1  0
  7  8  1  0
  7  3  1  0
  8  3  1  0
  1  9  1  0
  4 10  1  0
  4 11  1  0
  5 12  1  0
  6 13  1  0
  7 14  1  0
M  END
