
     RDKit          3D

 17 18  0  0  0  0  0  0  0  0999 V2000
    3.1543   -0.4982    0.0455 C   0  0  0  0  0  0  0  0  0  0  0  0
    2.0092   -0.1559    0.2026 C   0  0  0  0  0  0  0  0  0  0  0  0
    0.6826    0.2210    0.3902 C   0  0  0  0  0  0  0  0  0  0  0  0
    0.1246    1.3687   -0.3738 C   0  0  0  0  0  0  0  0  0  0  0  0
   -1.1135    1.4411    0.1592 C   0  0  0  0  0  0  0  0  0  0  0  0
   -1.0509    0.3095    1.1394 C   0  0  0  0  0  0  0  0  0  0  0  0
    0.2337    0.5253    1.6951 O   0  0  0  0  0  0  0  0  0  0  0  0
   -0.4151   -0.8042    0.3520 C   0  0  0  0  0  0  0  0  0  0  0  0
   -1.0166   -1.0123   -1.0097 C   0  0  0  0  0  0  0  0  0  0  0  0
    4.1728   -0.8200   -0.0866 H   0  0  0  0  0  0  0  0  0  0  0  0
    0.5992    1.9636   -1.1390 H   0  0  0  0  0  0  0  0  0  0  0  0
   -1.9217    2.1287   -0.0645 H   0  0  0  0  0  0  0  0  0  0  0  0
   -1.8607    0.1288    1.7872 H   0  0  0  0  0  0  0  0  0  0  0  0
   -0.1495   -1.7010    0.9099 H   0  0  0  0  0  0  0  0  0  0  0  0
   -2.0114   -1.4924   -0.8987 H   0  0  0  0  0  0  0  0  0  0  0  0
   -0.3188   -1.6077   -1.6381 H   0  0  0  0  0  0  0  0  0  0  0  0
   -1.1181    0.0050   -1.4707 H   0  0  0  0  0  0  0  0  0  0  0  0
  1  2  3  0
  2  3  1  0
  3  4  1  0
  4  5  2  0
  5  6  1  0
  6  7  1  0
  6  8  1  0
  8  9  1  0
  7  3  1  0
  8  3  1  0
  1 10  1  0
  4 11  1  0
  5 12  1  0
  6 13  1  0
  8 14  1  0
  9 15  1  0
  9 16  1  0
  9 17  1  0
M  END
