
     RDKit          3D

 17 17  0  0  0  0  0  0  0  0999 V2000
    3.6548    1.6890   -1.7310 C   0  0  0  0  0  0  0  0  0  0  0  0
    2.8539    0.9021   -1.2883 C   0  0  0  0  0  0  0  0  0  0  0  0
    1.9055   -0.0339   -0.7367 C   0  0  0  0  0  0  0  0  0  0  0  0
    2.2325   -1.2412   -0.5779 O   0  0  0  0  0  0  0  0  0  0  0  0
    0.6231    0.3276   -0.3617 O   0  0  0  0  0  0  0  0  0  0  0  0
   -0.3036   -0.6218    0.1852 C   0  0  0  0  0  0  0  0  0  0  0  0
   -0.8420   -0.0860    1.4800 C   0  0  0  0  0  0  0  0  0  0  0  0
   -2.2189   -0.0518    0.8944 C   0  0  0  0  0  0  0  0  0  0  0  0
   -1.6621   -0.5740   -0.4216 C   0  0  0  0  0  0  0  0  0  0  0  0
    4.3762    2.3776   -2.1369 H   0  0  0  0  0  0  0  0  0  0  0  0
    0.1107   -1.6447    0.2708 H   0  0  0  0  0  0  0  0  0  0  0  0
   -0.7634   -0.7691    2.3473 H   0  0  0  0  0  0  0  0  0  0  0  0
   -0.5010    0.9349    1.7650 H   0  0  0  0  0  0  0  0  0  0  0  0
   -2.9392   -0.7364    1.3620 H   0  0  0  0  0  0  0  0  0  0  0  0
   -2.6513    0.9670    0.8288 H   0  0  0  0  0  0  0  0  0  0  0  0
   -2.0524   -1.5897   -0.6351 H   0  0  0  0  0  0  0  0  0  0  0  0
   -1.8227    0.1505   -1.2444 H   0  0  0  0  0  0  0  0  0  0  0  0
  1  2  3  0
  2  3  1  0
  3  4  2  0
  3  5  1  0
  5  6  1  0
  6  7  1  0
  7  8  1  0
  8  9  1  0
  9  6  1  0
  1 10  1  0
  6 11  1  0
  7 12  1  0
  7 13  1  0
  8 14  1  0
  8 15  1  0
  9 16  1  0
  9 17  1  0
M  END
