
     RDKit          3D

 19 19  0  0  0  0  0  0  0  0999 V2000
    2.9164    0.0181    1.1118 C   0  0  0  0  0  0  0  0  0  0  0  0
    2.1423   -0.9173    0.2065 C   0  0  0  0  0  0  0  0  0  0  0  0
    1.5274   -1.6458   -0.4812 C   0  0  0  0  0  0  0  0  0  0  0  0
    1.6029   -2.9155   -0.7006 O   0  0  0  0  0  0  0  0  0  0  0  0
    0.3332   -0.9948   -1.3589 C   0  0  0  0  0  0  0  0  0  0  0  0
    0.0250    0.2096   -0.5531 C   0  0  0  0  0  0  0  0  0  0  0  0
   -0.5059   -0.2354    0.8399 C   0  0  0  0  0  0  0  0  0  0  0  0
   -0.9479    1.0003    0.0881 C   0  0  0  0  0  0  0  0  0  0  0  0
   -2.3517    1.3971    0.1108 C   0  0  0  0  0  0  0  0  0  0  0  0
    3.4396    0.6787    1.7364 H   0  0  0  0  0  0  0  0  0  0  0  0
   -0.4364   -1.7906   -1.3533 H   0  0  0  0  0  0  0  0  0  0  0  0
    0.7184   -0.8195   -2.3350 H   0  0  0  0  0  0  0  0  0  0  0  0
    1.1293    0.6830   -0.3376 H   0  0  0  0  0  0  0  0  0  0  0  0
    0.1237   -0.2258    1.7191 H   0  0  0  0  0  0  0  0  0  0  0  0
   -1.2126   -1.0975    0.8410 H   0  0  0  0  0  0  0  0  0  0  0  0
   -0.3967    1.9599    0.6543 H   0  0  0  0  0  0  0  0  0  0  0  0
   -2.6540    1.5281    1.1910 H   0  0  0  0  0  0  0  0  0  0  0  0
   -3.0640    0.7707   -0.4112 H   0  0  0  0  0  0  0  0  0  0  0  0
   -2.3890    2.3964   -0.4785 H   0  0  0  0  0  0  0  0  0  0  0  0
  1  2  3  0
  2  3  1  0
  3  4  2  0
  3  5  1  0
  5  6  1  0
  6  7  1  0
  7  8  1  0
  8  9  1  0
  8  6  1  0
  1 10  1  0
  5 11  1  0
  5 12  1  0
  6 13  1  0
  7 14  1  0
  7 15  1  0
  8 16  1  0
  9 17  1  0
  9 18  1  0
  9 19  1  0
M  END
