
     RDKit          3D

 23 22  0  0  0  0  0  0  0  0999 V2000
    3.2410   -0.2273    0.6917 C   0  0  0  0  0  0  0  0  0  0  0  0
    2.3334    0.3395    0.0915 C   0  0  0  0  0  0  0  0  0  0  0  0
    1.2700    1.0316   -0.6309 C   0  0  0  0  0  0  0  0  0  0  0  0
   -0.0223    0.9092    0.1012 C   0  0  0  0  0  0  0  0  0  0  0  0
   -1.1305    1.6282   -0.6395 C   0  0  0  0  0  0  0  0  0  0  0  0
   -0.3372   -0.5468    0.3164 C   0  0  0  0  0  0  0  0  0  0  0  0
   -1.6440   -0.7437    1.0549 C   0  0  0  0  0  0  0  0  0  0  0  0
   -0.3551   -1.3220   -0.9794 C   0  0  0  0  0  0  0  0  0  0  0  0
    0.6699   -1.0833    1.1135 O   0  0  0  0  0  0  0  0  0  0  0  0
    4.0361   -0.7102    1.1971 H   0  0  0  0  0  0  0  0  0  0  0  0
    1.2030    0.6808   -1.6939 H   0  0  0  0  0  0  0  0  0  0  0  0
    1.4928    2.1323   -0.7217 H   0  0  0  0  0  0  0  0  0  0  0  0
    0.0961    1.3901    1.0928 H   0  0  0  0  0  0  0  0  0  0  0  0
   -1.7088    0.9551   -1.2893 H   0  0  0  0  0  0  0  0  0  0  0  0
   -0.6407    2.4035   -1.2642 H   0  0  0  0  0  0  0  0  0  0  0  0
   -1.7979    2.1501    0.0717 H   0  0  0  0  0  0  0  0  0  0  0  0
   -1.6086   -1.7649    1.5282 H   0  0  0  0  0  0  0  0  0  0  0  0
   -1.7963    0.0066    1.8381 H   0  0  0  0  0  0  0  0  0  0  0  0
   -2.4616   -0.7818    0.3039 H   0  0  0  0  0  0  0  0  0  0  0  0
   -0.4888   -0.6568   -1.8590 H   0  0  0  0  0  0  0  0  0  0  0  0
    0.5523   -1.9790   -1.0854 H   0  0  0  0  0  0  0  0  0  0  0  0
   -1.2165   -2.0374   -0.9579 H   0  0  0  0  0  0  0  0  0  0  0  0
    0.3138   -1.7740    1.7201 H   0  0  0  0  0  0  0  0  0  0  0  0
  1  2  3  0
  2  3  1  0
  3  4  1  0
  4  5  1  0
  4  6  1  0
  6  7  1  0
  6  8  1  0
  6  9  1  0
  1 10  1  0
  3 11  1  0
  3 12  1  0
  4 13  1  0
  5 14  1  0
  5 15  1  0
  5 16  1  0
  7 17  1  0
  7 18  1  0
  7 19  1  0
  8 20  1  0
  8 21  1  0
  8 22  1  0
  9 23  1  0
M  END
