
     RDKit          3D

 21 20  0  0  0  0  0  0  0  0999 V2000
    1.5573    3.1683    0.0881 C   0  0  0  0  0  0  0  0  0  0  0  0
    1.3820    1.9772    0.0213 C   0  0  0  0  0  0  0  0  0  0  0  0
    1.1500    0.5116   -0.0471 C   0  0  0  0  0  0  0  0  0  0  0  0
    1.7426   -0.1072    1.1840 C   0  0  0  0  0  0  0  0  0  0  0  0
    1.5904   -1.4813    1.2345 O   0  0  0  0  0  0  0  0  0  0  0  0
   -0.3077    0.3192   -0.2168 C   0  0  0  0  0  0  0  0  0  0  0  0
   -0.7990   -1.0785   -0.3129 C   0  0  0  0  0  0  0  0  0  0  0  0
   -2.3192   -1.0103   -0.4863 C   0  0  0  0  0  0  0  0  0  0  0  0
   -2.6663   -0.3088   -1.6373 O   0  0  0  0  0  0  0  0  0  0  0  0
    1.7167    4.2144    0.1318 H   0  0  0  0  0  0  0  0  0  0  0  0
    1.7192    0.1713   -0.9324 H   0  0  0  0  0  0  0  0  0  0  0  0
    1.3425    0.3285    2.1223 H   0  0  0  0  0  0  0  0  0  0  0  0
    2.8318    0.1053    1.1911 H   0  0  0  0  0  0  0  0  0  0  0  0
    1.4559   -1.8123    2.1792 H   0  0  0  0  0  0  0  0  0  0  0  0
   -0.8298    0.8147    0.6511 H   0  0  0  0  0  0  0  0  0  0  0  0
   -0.6036    0.8473   -1.1606 H   0  0  0  0  0  0  0  0  0  0  0  0
   -0.3503   -1.6835   -1.0940 H   0  0  0  0  0  0  0  0  0  0  0  0
   -0.6672   -1.5868    0.6869 H   0  0  0  0  0  0  0  0  0  0  0  0
   -2.6655   -2.0779   -0.5710 H   0  0  0  0  0  0  0  0  0  0  0  0
   -2.7982   -0.5142    0.3609 H   0  0  0  0  0  0  0  0  0  0  0  0
   -2.4818   -0.7969   -2.4675 H   0  0  0  0  0  0  0  0  0  0  0  0
  1  2  3  0
  2  3  1  0
  3  4  1  0
  4  5  1  0
  3  6  1  0
  6  7  1  0
  7  8  1  0
  8  9  1  0
  1 10  1  0
  3 11  1  0
  4 12  1  0
  4 13  1  0
  5 14  1  0
  6 15  1  0
  6 16  1  0
  7 17  1  0
  7 18  1  0
  8 19  1  0
  8 20  1  0
  9 21  1  0
M  END
