
     RDKit          3D

 16 17  0  0  0  0  0  0  0  0999 V2000
    3.0922   -0.0748    0.9911 C   0  0  0  0  0  0  0  0  0  0  0  0
    2.0482    0.3423    0.5121 C   0  0  0  0  0  0  0  0  0  0  0  0
    0.7953    0.8673   -0.0589 C   0  0  0  0  0  0  0  0  0  0  0  0
    0.1125    0.0693   -0.9865 C   0  0  0  0  0  0  0  0  0  0  0  0
   -0.5988   -1.2293   -0.9411 C   0  0  0  0  0  0  0  0  0  0  0  0
   -1.9168   -0.8037   -0.7160 O   0  0  0  0  0  0  0  0  0  0  0  0
   -1.8490    0.4398   -0.0477 C   0  0  0  0  0  0  0  0  0  0  0  0
   -0.4611    0.4612    0.4402 C   0  0  0  0  0  0  0  0  0  0  0  0
    4.0151   -0.4289    1.3983 H   0  0  0  0  0  0  0  0  0  0  0  0
    0.9175    1.9776   -0.2409 H   0  0  0  0  0  0  0  0  0  0  0  0
   -0.3396    0.6508   -1.8547 H   0  0  0  0  0  0  0  0  0  0  0  0
   -0.6058   -1.7379   -1.9193 H   0  0  0  0  0  0  0  0  0  0  0  0
   -0.2758   -1.9091   -0.1447 H   0  0  0  0  0  0  0  0  0  0  0  0
   -2.6003    0.5079    0.7382 H   0  0  0  0  0  0  0  0  0  0  0  0
   -1.9652    1.2140   -0.8399 H   0  0  0  0  0  0  0  0  0  0  0  0
   -0.3685   -0.3464    1.2346 H   0  0  0  0  0  0  0  0  0  0  0  0
  1  2  3  0
  2  3  1  0
  3  4  1  0
  4  5  1  0
  5  6  1  0
  6  7  1  0
  7  8  1  0
  8  3  1  0
  8  4  1  0
  1  9  1  0
  3 10  1  0
  4 11  1  0
  5 12  1  0
  5 13  1  0
  7 14  1  0
  7 15  1  0
  8 16  1  0
M  END
