
     RDKit          3D

 17 19  0  0  0  0  0  0  0  0999 V2000
    3.0739    0.1869    0.0058 C   0  0  0  0  0  0  0  0  0  0  0  0
    1.8998    0.0222   -0.0973 C   0  0  0  0  0  0  0  0  0  0  0  0
    0.5101   -0.1770   -0.2435 C   0  0  0  0  0  0  0  0  0  0  0  0
   -0.3896    0.5580   -1.1419 C   0  0  0  0  0  0  0  0  0  0  0  0
   -0.7261    1.4563    0.0585 C   0  0  0  0  0  0  0  0  0  0  0  0
   -0.3335    0.3301    0.9500 C   0  0  0  0  0  0  0  0  0  0  0  0
   -0.3482   -1.0755    0.4950 C   0  0  0  0  0  0  0  0  0  0  0  0
   -1.4286   -1.3634   -0.5603 C   0  0  0  0  0  0  0  0  0  0  0  0
   -1.4504   -0.2993   -1.4107 O   0  0  0  0  0  0  0  0  0  0  0  0
    4.1223    0.3381    0.1151 H   0  0  0  0  0  0  0  0  0  0  0  0
    0.0343    1.0876   -1.9941 H   0  0  0  0  0  0  0  0  0  0  0  0
    0.0607    2.2639    0.0839 H   0  0  0  0  0  0  0  0  0  0  0  0
   -1.7574    1.7973    0.0821 H   0  0  0  0  0  0  0  0  0  0  0  0
    0.1910    0.5673    1.8751 H   0  0  0  0  0  0  0  0  0  0  0  0
    0.0676   -1.8674    1.0867 H   0  0  0  0  0  0  0  0  0  0  0  0
   -2.3734   -1.4991    0.0226 H   0  0  0  0  0  0  0  0  0  0  0  0
   -1.1527   -2.3259   -1.0087 H   0  0  0  0  0  0  0  0  0  0  0  0
  1  2  3  0
  2  3  1  0
  3  4  1  0
  4  5  1  0
  5  6  1  0
  6  7  1  0
  7  8  1  0
  8  9  1  0
  6  3  1  0
  7  3  1  0
  9  4  1  0
  1 10  1  0
  4 11  1  0
  5 12  1  0
  5 13  1  0
  6 14  1  0
  7 15  1  0
  8 16  1  0
  8 17  1  0
M  END
