
     RDKit          3D

 21 21  0  0  0  0  0  0  0  0999 V2000
   -0.6463    3.1821   -1.4250 C   0  0  0  0  0  0  0  0  0  0  0  0
   -0.6340    2.1765   -0.7580 C   0  0  0  0  0  0  0  0  0  0  0  0
   -0.6432    0.9412    0.0709 C   0  0  0  0  0  0  0  0  0  0  0  0
    0.1170   -0.2070   -0.5745 C   0  0  0  0  0  0  0  0  0  0  0  0
    0.1365   -1.4553    0.2209 C   0  0  0  0  0  0  0  0  0  0  0  0
    0.8293   -2.4496   -0.4215 O   0  0  0  0  0  0  0  0  0  0  0  0
    2.1284   -2.1253   -0.6434 C   0  0  0  0  0  0  0  0  0  0  0  0
   -1.9223    0.6437    0.7047 C   0  0  0  0  0  0  0  0  0  0  0  0
   -0.7409    1.0783    1.5332 C   0  0  0  0  0  0  0  0  0  0  0  0
   -0.6705    4.0603   -2.0230 H   0  0  0  0  0  0  0  0  0  0  0  0
    1.1432    0.2334   -0.7509 H   0  0  0  0  0  0  0  0  0  0  0  0
   -0.3608   -0.3950   -1.5567 H   0  0  0  0  0  0  0  0  0  0  0  0
   -0.9067   -1.7868    0.4026 H   0  0  0  0  0  0  0  0  0  0  0  0
    0.5963   -1.2134    1.2112 H   0  0  0  0  0  0  0  0  0  0  0  0
    2.3352   -1.2473   -1.2746 H   0  0  0  0  0  0  0  0  0  0  0  0
    2.6051   -1.9016    0.3548 H   0  0  0  0  0  0  0  0  0  0  0  0
    2.7259   -2.9639   -1.0964 H   0  0  0  0  0  0  0  0  0  0  0  0
   -2.7862    1.3559    0.6663 H   0  0  0  0  0  0  0  0  0  0  0  0
   -2.2773   -0.3942    0.8336 H   0  0  0  0  0  0  0  0  0  0  0  0
   -0.7691    2.1224    1.9579 H   0  0  0  0  0  0  0  0  0  0  0  0
   -0.2594    0.3456    2.2135 H   0  0  0  0  0  0  0  0  0  0  0  0
  1  2  3  0
  2  3  1  0
  3  4  1  0
  4  5  1  0
  5  6  1  0
  6  7  1  0
  3  8  1  0
  8  9  1  0
  9  3  1  0
  1 10  1  0
  4 11  1  0
  4 12  1  0
  5 13  1  0
  5 14  1  0
  7 15  1  0
  7 16  1  0
  7 17  1  0
  8 18  1  0
  8 19  1  0
  9 20  1  0
  9 21  1  0
M  END
