
     RDKit          3D

 17 16  0  0  0  0  0  0  0  0999 V2000
   -1.5661    1.8781   -1.4386 C   0  0  0  0  0  0  0  0  0  0  0  0
   -0.8351    1.0985   -0.8517 C   0  0  0  0  0  0  0  0  0  0  0  0
    0.0526    0.1727   -0.1277 C   0  0  0  0  0  0  0  0  0  0  0  0
    0.6683    1.0104    0.9951 C   0  0  0  0  0  0  0  0  0  0  0  0
   -0.8090   -0.8578    0.4983 C   0  0  0  0  0  0  0  0  0  0  0  0
   -1.5091   -1.6309   -0.4286 O   0  0  0  0  0  0  0  0  0  0  0  0
    1.0464   -0.2112   -0.9785 O   0  0  0  0  0  0  0  0  0  0  0  0
    2.0855   -1.0614   -0.7255 C   0  0  0  0  0  0  0  0  0  0  0  0
    2.0661   -1.5082    0.4466 O   0  0  0  0  0  0  0  0  0  0  0  0
   -2.1994    2.5629   -1.9314 H   0  0  0  0  0  0  0  0  0  0  0  0
   -0.0688    1.1533    1.8224 H   0  0  0  0  0  0  0  0  0  0  0  0
    0.9444    1.9792    0.5230 H   0  0  0  0  0  0  0  0  0  0  0  0
    1.5500    0.5455    1.4351 H   0  0  0  0  0  0  0  0  0  0  0  0
   -0.3095   -1.5357    1.2044 H   0  0  0  0  0  0  0  0  0  0  0  0
   -1.5845   -0.3286    1.0995 H   0  0  0  0  0  0  0  0  0  0  0  0
   -2.3872   -1.9239   -0.1184 H   0  0  0  0  0  0  0  0  0  0  0  0
    2.8554   -1.3431   -1.4240 H   0  0  0  0  0  0  0  0  0  0  0  0
  1  2  3  0
  2  3  1  0
  3  4  1  0
  3  5  1  0
  5  6  1  0
  3  7  1  0
  7  8  1  0
  8  9  2  0
  1 10  1  0
  4 11  1  0
  4 12  1  0
  4 13  1  0
  5 14  1  0
  5 15  1  0
  6 16  1  0
  8 17  1  0
M  END
