
     RDKit          3D

 19 20  0  0  0  0  0  0  0  0999 V2000
    2.3709    2.2905   -0.6701 C   0  0  0  0  0  0  0  0  0  0  0  0
    1.4686    1.5180   -0.4948 C   0  0  0  0  0  0  0  0  0  0  0  0
    0.3935    0.5999   -0.3106 C   0  0  0  0  0  0  0  0  0  0  0  0
    0.6011   -0.7448   -0.9815 C   0  0  0  0  0  0  0  0  0  0  0  0
   -0.4453   -1.5955   -0.2469 C   0  0  0  0  0  0  0  0  0  0  0  0
   -0.9651   -0.7174    0.8550 C   0  0  0  0  0  0  0  0  0  0  0  0
   -1.7870    0.3754    0.2027 C   0  0  0  0  0  0  0  0  0  0  0  0
   -0.8672    1.0970   -0.5486 O   0  0  0  0  0  0  0  0  0  0  0  0
    0.3048    0.1046    1.1413 C   0  0  0  0  0  0  0  0  0  0  0  0
    3.1735    2.9747   -0.8425 H   0  0  0  0  0  0  0  0  0  0  0  0
    1.6096   -1.0992   -0.7466 H   0  0  0  0  0  0  0  0  0  0  0  0
    0.3797   -0.6918   -2.0636 H   0  0  0  0  0  0  0  0  0  0  0  0
   -1.2965   -1.8305   -0.9245 H   0  0  0  0  0  0  0  0  0  0  0  0
    0.0010   -2.5337    0.1102 H   0  0  0  0  0  0  0  0  0  0  0  0
   -1.3885   -1.1889    1.7059 H   0  0  0  0  0  0  0  0  0  0  0  0
   -2.1479    1.0778    1.0006 H   0  0  0  0  0  0  0  0  0  0  0  0
   -2.6184   -0.0017   -0.3870 H   0  0  0  0  0  0  0  0  0  0  0  0
    0.0537    0.8855    1.8392 H   0  0  0  0  0  0  0  0  0  0  0  0
    1.1597   -0.5200    1.3618 H   0  0  0  0  0  0  0  0  0  0  0  0
  1  2  3  0
  2  3  1  0
  3  4  1  0
  4  5  1  0
  5  6  1  0
  6  7  1  0
  7  8  1  0
  6  9  1  0
  8  3  1  0
  9  3  1  0
  1 10  1  0
  4 11  1  0
  4 12  1  0
  5 13  1  0
  5 14  1  0
  6 15  1  0
  7 16  1  0
  7 17  1  0
  9 18  1  0
  9 19  1  0
M  END
