
     RDKit          3D

 19 18  0  0  0  0  0  0  0  0999 V2000
   -2.0851   -2.5646   -0.0300 C   0  0  0  0  0  0  0  0  0  0  0  0
   -1.3112   -1.1348   -0.2282 C   0  0  0  0  0  0  0  0  0  0  0  0
   -0.5216    0.3433   -0.4042 C   0  0  0  0  0  0  0  0  0  0  0  0
   -1.4019    0.9062   -1.3170 C   0  0  0  0  0  0  0  0  0  0  0  0
   -1.0885    1.2353    1.1248 C   0  0  0  0  0  0  0  0  0  0  0  0
   -1.4593    1.8149    2.1146 C   0  0  0  0  0  0  0  0  0  0  0  0
    0.7264   -0.1189   -0.0018 C   0  0  0  0  0  0  0  0  0  0  0  0
    1.7609    0.6390    0.3920 O   0  0  0  0  0  0  0  0  0  0  0  0
    2.9190   -0.2312    0.2537 C   0  0  0  0  0  0  0  0  0  0  0  0
   -2.6175   -3.5820    0.1222 H   0  0  0  0  0  0  0  0  0  0  0  0
   -2.4732    0.8547   -0.9904 H   0  0  0  0  0  0  0  0  0  0  0  0
   -1.0400    1.9595   -1.5324 H   0  0  0  0  0  0  0  0  0  0  0  0
   -1.2356    0.3773   -2.3288 H   0  0  0  0  0  0  0  0  0  0  0  0
   -1.8152    2.3509    3.0699 H   0  0  0  0  0  0  0  0  0  0  0  0
    1.1995   -0.4363   -1.1152 H   0  0  0  0  0  0  0  0  0  0  0  0
    0.7551   -1.0811    0.5491 H   0  0  0  0  0  0  0  0  0  0  0  0
    2.9942   -0.4015   -0.8727 H   0  0  0  0  0  0  0  0  0  0  0  0
    2.8532   -1.2167    0.6707 H   0  0  0  0  0  0  0  0  0  0  0  0
    3.8408    0.2860    0.5239 H   0  0  0  0  0  0  0  0  0  0  0  0
  1  2  3  0
  2  3  1  0
  3  4  1  0
  3  5  1  0
  5  6  3  0
  3  7  1  0
  7  8  1  0
  8  9  1  0
  1 10  1  0
  4 11  1  0
  4 12  1  0
  4 13  1  0
  6 14  1  0
  7 15  1  0
  7 16  1  0
  9 17  1  0
  9 18  1  0
  9 19  1  0
M  END
