
     RDKit          3D

 15 18  0  0  0  0  0  0  0  0999 V2000
    1.3073    2.3521    1.1982 C   0  0  0  0  0  0  0  0  0  0  0  0
    0.6208    1.5746    0.5713 C   0  0  0  0  0  0  0  0  0  0  0  0
   -0.2416    0.5783   -0.2510 C   0  0  0  0  0  0  0  0  0  0  0  0
   -0.5908    0.2301   -1.4563 C   0  0  0  0  0  0  0  0  0  0  0  0
   -1.0522   -1.1700   -0.8292 C   0  0  0  0  0  0  0  0  0  0  0  0
    0.2682   -1.4199   -0.5308 C   0  0  0  0  0  0  0  0  0  0  0  0
    0.7500   -0.1921   -1.0901 C   0  0  0  0  0  0  0  0  0  0  0  0
   -0.5823   -0.6514    0.4196 C   0  0  0  0  0  0  0  0  0  0  0  0
   -0.6850   -0.9391    1.7307 O   0  0  0  0  0  0  0  0  0  0  0  0
    2.0137    3.1559    1.8706 H   0  0  0  0  0  0  0  0  0  0  0  0
   -0.9287    0.5138   -2.4413 H   0  0  0  0  0  0  0  0  0  0  0  0
   -2.0652   -1.4989   -1.0141 H   0  0  0  0  0  0  0  0  0  0  0  0
    0.8808   -2.2379   -0.1218 H   0  0  0  0  0  0  0  0  0  0  0  0
    1.7395    0.1245   -1.3420 H   0  0  0  0  0  0  0  0  0  0  0  0
   -1.4345   -0.4201    2.1656 H   0  0  0  0  0  0  0  0  0  0  0  0
  1  2  3  0
  2  3  1  0
  3  4  1  0
  4  5  1  0
  5  6  1  0
  6  7  1  0
  6  8  1  0
  8  9  1  0
  7  3  1  0
  8  3  1  0
  7  4  1  0
  8  5  1  0
  1 10  1  0
  4 11  1  0
  5 12  1  0
  6 13  1  0
  7 14  1  0
  9 15  1  0
M  END
