
     RDKit          3D

 17 17  0  0  0  0  0  0  0  0999 V2000
    2.2258   -0.7392   -1.5779 C   0  0  0  0  0  0  0  0  0  0  0  0
    1.2616    0.0810   -1.4001 C   0  0  0  0  0  0  0  0  0  0  0  0
    0.1781    1.0085   -1.1814 C   0  0  0  0  0  0  0  0  0  0  0  0
    0.9512    2.2341   -0.8733 O   0  0  0  0  0  0  0  0  0  0  0  0
   -0.4830    0.7541    0.0936 C   0  0  0  0  0  0  0  0  0  0  0  0
    0.3208    0.4755    1.2451 O   0  0  0  0  0  0  0  0  0  0  0  0
   -0.0335   -0.8128    1.1269 C   0  0  0  0  0  0  0  0  0  0  0  0
   -1.3373   -0.3717    0.4587 C   0  0  0  0  0  0  0  0  0  0  0  0
   -2.3935   -0.1110    1.2853 O   0  0  0  0  0  0  0  0  0  0  0  0
    3.1289   -1.5012   -1.7477 H   0  0  0  0  0  0  0  0  0  0  0  0
   -0.4152    1.1020   -2.0857 H   0  0  0  0  0  0  0  0  0  0  0  0
    1.4390    1.8854   -0.0398 H   0  0  0  0  0  0  0  0  0  0  0  0
   -0.9917    1.7500    0.5315 H   0  0  0  0  0  0  0  0  0  0  0  0
    0.5562   -1.4642    0.4475 H   0  0  0  0  0  0  0  0  0  0  0  0
   -0.2068   -1.2630    2.1157 H   0  0  0  0  0  0  0  0  0  0  0  0
   -1.5526   -1.1578   -0.3186 H   0  0  0  0  0  0  0  0  0  0  0  0
   -2.6480   -0.8575    1.9201 H   0  0  0  0  0  0  0  0  0  0  0  0
  1  2  3  0
  2  3  1  0
  3  4  1  0
  3  5  1  0
  5  6  1  0
  6  7  1  0
  7  8  1  0
  8  9  1  0
  8  5  1  0
  1 10  1  0
  3 11  1  0
  4 12  1  0
  5 13  1  0
  7 14  1  0
  7 15  1  0
  8 16  1  0
  9 17  1  0
M  END
