
     RDKit          3D

 21 20  0  0  0  0  0  0  0  0999 V2000
    1.4968    3.1587    0.1937 C   0  0  0  0  0  0  0  0  0  0  0  0
    1.2875    2.0008   -0.0853 C   0  0  0  0  0  0  0  0  0  0  0  0
    1.0534    0.5840   -0.4152 C   0  0  0  0  0  0  0  0  0  0  0  0
    1.9765   -0.2594    0.4368 C   0  0  0  0  0  0  0  0  0  0  0  0
   -0.3829    0.2601    0.0225 C   0  0  0  0  0  0  0  0  0  0  0  0
   -0.5620    0.4579    1.3642 O   0  0  0  0  0  0  0  0  0  0  0  0
   -0.7468   -1.1538   -0.3434 C   0  0  0  0  0  0  0  0  0  0  0  0
   -2.1814   -1.3794    0.0367 C   0  0  0  0  0  0  0  0  0  0  0  0
   -0.5574   -1.3364   -1.7174 O   0  0  0  0  0  0  0  0  0  0  0  0
    1.6794    4.1921    0.4239 H   0  0  0  0  0  0  0  0  0  0  0  0
    1.1849    0.3927   -1.4777 H   0  0  0  0  0  0  0  0  0  0  0  0
    1.8459   -1.3242    0.1832 H   0  0  0  0  0  0  0  0  0  0  0  0
    3.0353    0.0635    0.2272 H   0  0  0  0  0  0  0  0  0  0  0  0
    1.7218   -0.0422    1.5122 H   0  0  0  0  0  0  0  0  0  0  0  0
   -1.0994    0.9408   -0.5231 H   0  0  0  0  0  0  0  0  0  0  0  0
   -1.4137    0.0454    1.6293 H   0  0  0  0  0  0  0  0  0  0  0  0
   -0.1227   -1.8548    0.2484 H   0  0  0  0  0  0  0  0  0  0  0  0
   -2.6880   -2.1056   -0.6448 H   0  0  0  0  0  0  0  0  0  0  0  0
   -2.2108   -1.7550    1.0928 H   0  0  0  0  0  0  0  0  0  0  0  0
   -2.7098   -0.4035    0.0387 H   0  0  0  0  0  0  0  0  0  0  0  0
   -0.6064   -0.4817   -2.2029 H   0  0  0  0  0  0  0  0  0  0  0  0
  1  2  3  0
  2  3  1  0
  3  4  1  0
  3  5  1  0
  5  6  1  0
  5  7  1  0
  7  8  1  0
  7  9  1  0
  1 10  1  0
  3 11  1  0
  4 12  1  0
  4 13  1  0
  4 14  1  0
  5 15  1  0
  6 16  1  0
  7 17  1  0
  8 18  1  0
  8 19  1  0
  8 20  1  0
  9 21  1  0
M  END
