
     RDKit          3D

 19 20  0  0  0  0  0  0  0  0999 V2000
    3.0623    0.3400   -1.0667 C   0  0  0  0  0  0  0  0  0  0  0  0
    2.2904   -0.4693   -0.5585 C   0  0  0  0  0  0  0  0  0  0  0  0
    1.3552   -1.4347    0.0748 C   0  0  0  0  0  0  0  0  0  0  0  0
    0.0346   -1.3983   -0.6652 C   0  0  0  0  0  0  0  0  0  0  0  0
   -0.0121   -0.0088    0.0138 C   0  0  0  0  0  0  0  0  0  0  0  0
   -1.4527    0.4215    0.0854 C   0  0  0  0  0  0  0  0  0  0  0  0
   -1.6415    1.7562    0.7237 C   0  0  0  0  0  0  0  0  0  0  0  0
    0.4345   -0.8412    1.1875 C   0  0  0  0  0  0  0  0  0  0  0  0
    1.5535   -1.5157    1.3717 O   0  0  0  0  0  0  0  0  0  0  0  0
    3.7230    1.0493   -1.4914 H   0  0  0  0  0  0  0  0  0  0  0  0
   -0.7668   -2.0079   -0.2532 H   0  0  0  0  0  0  0  0  0  0  0  0
    0.1630   -1.3551   -1.7423 H   0  0  0  0  0  0  0  0  0  0  0  0
    0.6776    0.7275   -0.3859 H   0  0  0  0  0  0  0  0  0  0  0  0
   -1.9850   -0.3319    0.7117 H   0  0  0  0  0  0  0  0  0  0  0  0
   -1.9422    0.3607   -0.9196 H   0  0  0  0  0  0  0  0  0  0  0  0
   -1.3211    1.6752    1.7854 H   0  0  0  0  0  0  0  0  0  0  0  0
   -1.0312    2.5089    0.1881 H   0  0  0  0  0  0  0  0  0  0  0  0
   -2.6979    2.0296    0.6836 H   0  0  0  0  0  0  0  0  0  0  0  0
   -0.4437   -1.5058    1.4801 H   0  0  0  0  0  0  0  0  0  0  0  0
  1  2  3  0
  2  3  1  0
  3  4  1  0
  4  5  1  0
  5  6  1  0
  6  7  1  0
  5  8  1  0
  8  9  1  0
  8  3  1  0
  9  3  1  0
  1 10  1  0
  4 11  1  0
  4 12  1  0
  5 13  1  0
  6 14  1  0
  6 15  1  0
  7 16  1  0
  7 17  1  0
  7 18  1  0
  8 19  1  0
M  END
