
     RDKit          3D

 18 18  0  0  0  0  0  0  0  0999 V2000
    1.9411    1.7749    0.9432 C   0  0  0  0  0  0  0  0  0  0  0  0
    1.0181    1.0483    0.7679 C   0  0  0  0  0  0  0  0  0  0  0  0
   -0.1336    0.1151    0.5420 C   0  0  0  0  0  0  0  0  0  0  0  0
   -1.0397   -0.0951    1.7006 C   0  0  0  0  0  0  0  0  0  0  0  0
   -0.4314   -0.2796   -0.8544 C   0  0  0  0  0  0  0  0  0  0  0  0
    0.1138    0.6334   -1.9342 C   0  0  0  0  0  0  0  0  0  0  0  0
    0.4109   -1.1783   -0.0477 C   0  0  0  0  0  0  0  0  0  0  0  0
   -0.2753   -2.3950    0.3097 O   0  0  0  0  0  0  0  0  0  0  0  0
    2.8364    2.4818    1.1073 H   0  0  0  0  0  0  0  0  0  0  0  0
   -2.0818    0.2203    1.4231 H   0  0  0  0  0  0  0  0  0  0  0  0
   -1.1475   -1.1885    1.9877 H   0  0  0  0  0  0  0  0  0  0  0  0
   -0.7207    0.4867    2.5835 H   0  0  0  0  0  0  0  0  0  0  0  0
   -1.5261   -0.5955   -1.0327 H   0  0  0  0  0  0  0  0  0  0  0  0
    0.6250    1.5389   -1.5633 H   0  0  0  0  0  0  0  0  0  0  0  0
   -0.7174    0.9655   -2.5767 H   0  0  0  0  0  0  0  0  0  0  0  0
    0.8513    0.1471   -2.6072 H   0  0  0  0  0  0  0  0  0  0  0  0
    1.4783   -1.2899    0.0443 H   0  0  0  0  0  0  0  0  0  0  0  0
   -1.2012   -2.3903   -0.0641 H   0  0  0  0  0  0  0  0  0  0  0  0
  1  2  3  0
  2  3  1  0
  3  4  1  0
  3  5  1  0
  5  6  1  0
  5  7  1  0
  7  8  1  0
  7  3  1  0
  1  9  1  0
  4 10  1  0
  4 11  1  0
  4 12  1  0
  5 13  1  0
  6 14  1  0
  6 15  1  0
  6 16  1  0
  7 17  1  0
  8 18  1  0
M  END
