
     RDKit          3D

 15 17  0  0  0  0  0  0  0  0999 V2000
    2.6296   -0.3103   -1.6204 C   0  0  0  0  0  0  0  0  0  0  0  0
    1.5548   -0.1949   -1.0369 C   0  0  0  0  0  0  0  0  0  0  0  0
    0.3406   -0.0441   -0.3758 C   0  0  0  0  0  0  0  0  0  0  0  0
   -0.9252   -0.1050   -1.1326 C   0  0  0  0  0  0  0  0  0  0  0  0
   -1.8509   -0.0177   -0.1678 C   0  0  0  0  0  0  0  0  0  0  0  0
   -1.0619    0.2181    1.0583 C   0  0  0  0  0  0  0  0  0  0  0  0
    0.0884   -0.7316    0.9224 C   0  0  0  0  0  0  0  0  0  0  0  0
    0.8658    0.2249    1.4945 O   0  0  0  0  0  0  0  0  0  0  0  0
    0.1209    1.0075    0.6336 C   0  0  0  0  0  0  0  0  0  0  0  0
    3.5473   -0.4160   -2.1001 H   0  0  0  0  0  0  0  0  0  0  0  0
   -1.0614   -0.1945   -2.2019 H   0  0  0  0  0  0  0  0  0  0  0  0
   -2.9285   -0.0919   -0.2033 H   0  0  0  0  0  0  0  0  0  0  0  0
   -1.5556    0.3742    1.9846 H   0  0  0  0  0  0  0  0  0  0  0  0
    0.0458   -1.7324    1.0772 H   0  0  0  0  0  0  0  0  0  0  0  0
    0.1902    2.0137    0.5321 H   0  0  0  0  0  0  0  0  0  0  0  0
  1  2  3  0
  2  3  1  0
  3  4  1  0
  4  5  2  0
  5  6  1  0
  6  7  1  0
  7  8  1  0
  8  9  1  0
  7  3  1  0
  9  3  1  0
  9  6  1  0
  1 10  1  0
  4 11  1  0
  5 12  1  0
  6 13  1  0
  7 14  1  0
  9 15  1  0
M  END
