
     RDKit          3D

 15 15  0  0  0  0  0  0  0  0999 V2000
    2.3040   -1.6271    0.0062 C   0  0  0  0  0  0  0  0  0  0  0  0
    1.4377   -0.7818   -0.0288 C   0  0  0  0  0  0  0  0  0  0  0  0
    0.3747    0.2288   -0.0827 C   0  0  0  0  0  0  0  0  0  0  0  0
    0.8738    1.5031    0.4994 C   0  0  0  0  0  0  0  0  0  0  0  0
    0.7266    2.5332   -0.1083 O   0  0  0  0  0  0  0  0  0  0  0  0
   -0.2386    0.3620   -1.3248 O   0  0  0  0  0  0  0  0  0  0  0  0
   -1.2921   -0.4889   -0.9344 C   0  0  0  0  0  0  0  0  0  0  0  0
   -0.9180   -0.2823    0.5191 C   0  0  0  0  0  0  0  0  0  0  0  0
   -1.6702    0.7623    1.0567 O   0  0  0  0  0  0  0  0  0  0  0  0
    3.0614   -2.3668    0.0549 H   0  0  0  0  0  0  0  0  0  0  0  0
    1.3564    1.4663    1.4557 H   0  0  0  0  0  0  0  0  0  0  0  0
   -2.2635   -0.0586   -1.2356 H   0  0  0  0  0  0  0  0  0  0  0  0
   -1.1500   -1.4926   -1.3305 H   0  0  0  0  0  0  0  0  0  0  0  0
   -0.8446   -1.1882    1.1255 H   0  0  0  0  0  0  0  0  0  0  0  0
   -1.7578    1.4304    0.3276 H   0  0  0  0  0  0  0  0  0  0  0  0
  1  2  3  0
  2  3  1  0
  3  4  1  0
  4  5  2  0
  3  6  1  0
  6  7  1  0
  7  8  1  0
  8  9  1  0
  8  3  1  0
  1 10  1  0
  4 11  1  0
  7 12  1  0
  7 13  1  0
  8 14  1  0
  9 15  1  0
M  END
