
     RDKit          3D

 19 19  0  0  0  0  0  0  0  0999 V2000
    2.7917   -0.4681    1.1388 C   0  0  0  0  0  0  0  0  0  0  0  0
    1.8241   -0.1836    0.6605 C   0  0  0  0  0  0  0  0  0  0  0  0
    0.5760    0.1781    0.0167 C   0  0  0  0  0  0  0  0  0  0  0  0
    0.2484    1.6392    0.3957 C   0  0  0  0  0  0  0  0  0  0  0  0
    0.4384   -0.0471   -1.3878 C   0  0  0  0  0  0  0  0  0  0  0  0
    0.7580    0.4159   -2.4844 O   0  0  0  0  0  0  0  0  0  0  0  0
   -0.4064   -1.3068   -1.1441 C   0  0  0  0  0  0  0  0  0  0  0  0
   -0.5672   -0.7645    0.2573 C   0  0  0  0  0  0  0  0  0  0  0  0
   -1.9133   -0.0146    0.3435 C   0  0  0  0  0  0  0  0  0  0  0  0
    3.8104   -0.7511    1.6322 H   0  0  0  0  0  0  0  0  0  0  0  0
   -0.1920    2.1475   -0.4408 H   0  0  0  0  0  0  0  0  0  0  0  0
    1.2158    2.1256    0.6189 H   0  0  0  0  0  0  0  0  0  0  0  0
   -0.3442    1.6563    1.3166 H   0  0  0  0  0  0  0  0  0  0  0  0
   -1.3337   -1.2832   -1.7789 H   0  0  0  0  0  0  0  0  0  0  0  0
    0.2453   -2.1576   -1.3208 H   0  0  0  0  0  0  0  0  0  0  0  0
   -0.4136   -1.5219    1.0315 H   0  0  0  0  0  0  0  0  0  0  0  0
   -1.8226    1.0610    0.2007 H   0  0  0  0  0  0  0  0  0  0  0  0
   -2.5824   -0.4845   -0.4061 H   0  0  0  0  0  0  0  0  0  0  0  0
   -2.3325   -0.2407    1.3506 H   0  0  0  0  0  0  0  0  0  0  0  0
  1  2  3  0
  2  3  1  0
  3  4  1  0
  3  5  1  0
  5  6  2  0
  5  7  1  0
  7  8  1  0
  8  9  1  0
  8  3  1  0
  1 10  1  0
  4 11  1  0
  4 12  1  0
  4 13  1  0
  7 14  1  0
  7 15  1  0
  8 16  1  0
  9 17  1  0
  9 18  1  0
  9 19  1  0
M  END
