
     RDKit          3D

 18 18  0  0  0  0  0  0  0  0999 V2000
    3.7052   -0.0062   -0.0920 C   0  0  0  0  0  0  0  0  0  0  0  0
    2.8486   -0.5658   -0.0194 C   0  0  0  0  0  0  0  0  0  0  0  0
    1.7753   -1.2559    0.0528 C   0  0  0  0  0  0  0  0  0  0  0  0
    0.3743   -1.0282   -0.4268 C   0  0  0  0  0  0  0  0  0  0  0  0
   -0.3911   -0.1137   -0.0122 O   0  0  0  0  0  0  0  0  0  0  0  0
   -1.1349    0.7749    0.3907 C   0  0  0  0  0  0  0  0  0  0  0  0
   -2.0591    1.7077   -0.4241 C   0  0  0  0  0  0  0  0  0  0  0  0
   -2.6775    0.5146    0.2371 C   0  0  0  0  0  0  0  0  0  0  0  0
    4.8631    0.7326   -0.1713 H   0  0  0  0  0  0  0  0  0  0  0  0
    1.5308   -1.5614    1.2739 H   0  0  0  0  0  0  0  0  0  0  0  0
    2.0125   -2.3757   -0.2453 H   0  0  0  0  0  0  0  0  0  0  0  0
   -0.1618   -2.0506   -0.6379 H   0  0  0  0  0  0  0  0  0  0  0  0
    0.6382   -0.7077   -1.5623 H   0  0  0  0  0  0  0  0  0  0  0  0
   -1.0428    1.2706    1.4698 H   0  0  0  0  0  0  0  0  0  0  0  0
   -2.2570    2.7427    0.0030 H   0  0  0  0  0  0  0  0  0  0  0  0
   -1.9082    1.6708   -1.5342 H   0  0  0  0  0  0  0  0  0  0  0  0
   -3.2476    0.6935    1.1721 H   0  0  0  0  0  0  0  0  0  0  0  0
   -2.8680   -0.4425   -0.2328 H   0  0  0  0  0  0  0  0  0  0  0  0
  1  2  3  0
  2  3  1  0
  3  4  1  0
  4  5  1  0
  5  6  1  0
  6  7  1  0
  7  8  1  0
  8  6  1  0
  1  9  1  0
  3 10  1  0
  3 11  1  0
  4 12  1  0
  4 13  1  0
  6 14  1  0
  7 15  1  0
  7 16  1  0
  8 17  1  0
  8 18  1  0
M  END
