
     RDKit          3D

 23 22  0  0  0  0  0  0  0  0999 V2000
   -0.9030   -1.7701    2.2064 C   0  0  0  0  0  0  0  0  0  0  0  0
   -0.5023   -0.9858    1.3738 C   0  0  0  0  0  0  0  0  0  0  0  0
    0.0023   -0.0351    0.3597 C   0  0  0  0  0  0  0  0  0  0  0  0
   -1.0482    0.1937   -0.6749 C   0  0  0  0  0  0  0  0  0  0  0  0
   -1.4216   -1.0753   -1.3541 C   0  0  0  0  0  0  0  0  0  0  0  0
    0.3186    1.2307    1.1262 C   0  0  0  0  0  0  0  0  0  0  0  0
    0.8518    2.3270    0.2449 C   0  0  0  0  0  0  0  0  0  0  0  0
    1.2356   -0.6337   -0.2673 C   0  0  0  0  0  0  0  0  0  0  0  0
    1.0054   -1.8361   -0.8785 O   0  0  0  0  0  0  0  0  0  0  0  0
   -1.2709   -2.4508    2.9417 H   0  0  0  0  0  0  0  0  0  0  0  0
   -0.6153    0.8858   -1.4574 H   0  0  0  0  0  0  0  0  0  0  0  0
   -1.9351    0.7371   -0.2912 H   0  0  0  0  0  0  0  0  0  0  0  0
   -0.7805   -1.2230   -2.2309 H   0  0  0  0  0  0  0  0  0  0  0  0
   -1.3052   -1.9474   -0.6673 H   0  0  0  0  0  0  0  0  0  0  0  0
   -2.4663   -1.0441   -1.7529 H   0  0  0  0  0  0  0  0  0  0  0  0
   -0.5925    1.5821    1.6074 H   0  0  0  0  0  0  0  0  0  0  0  0
    1.0789    0.9740    1.8758 H   0  0  0  0  0  0  0  0  0  0  0  0
    1.7624    1.9219   -0.2458 H   0  0  0  0  0  0  0  0  0  0  0  0
    1.1717    3.1678    0.8644 H   0  0  0  0  0  0  0  0  0  0  0  0
    0.1624    2.6121   -0.5618 H   0  0  0  0  0  0  0  0  0  0  0  0
    1.6430    0.0567   -1.0564 H   0  0  0  0  0  0  0  0  0  0  0  0
    2.0272   -0.6733    0.5095 H   0  0  0  0  0  0  0  0  0  0  0  0
    1.5815   -2.0140   -1.6712 H   0  0  0  0  0  0  0  0  0  0  0  0
  1  2  3  0
  2  3  1  0
  3  4  1  0
  4  5  1  0
  3  6  1  0
  6  7  1  0
  3  8  1  0
  8  9  1  0
  1 10  1  0
  4 11  1  0
  4 12  1  0
  5 13  1  0
  5 14  1  0
  5 15  1  0
  6 16  1  0
  6 17  1  0
  7 18  1  0
  7 19  1  0
  7 20  1  0
  8 21  1  0
  8 22  1  0
  9 23  1  0
M  END
