
     RDKit          3D

 19 19  0  0  0  0  0  0  0  0999 V2000
    3.3989    0.3613   -0.3110 C   0  0  0  0  0  0  0  0  0  0  0  0
    2.2281    0.4954   -0.1766 C   0  0  0  0  0  0  0  0  0  0  0  0
    0.7983    0.6819   -0.0028 C   0  0  0  0  0  0  0  0  0  0  0  0
    0.3718    1.0680    1.2466 O   0  0  0  0  0  0  0  0  0  0  0  0
   -0.7930    0.2971    1.0227 C   0  0  0  0  0  0  0  0  0  0  0  0
   -1.9045    1.0573    0.3691 C   0  0  0  0  0  0  0  0  0  0  0  0
    0.0184   -0.5986    0.1597 C   0  0  0  0  0  0  0  0  0  0  0  0
   -0.5855   -1.0420   -1.1330 C   0  0  0  0  0  0  0  0  0  0  0  0
    0.6478   -1.5887    0.8951 O   0  0  0  0  0  0  0  0  0  0  0  0
    4.4571    0.2287   -0.4184 H   0  0  0  0  0  0  0  0  0  0  0  0
    0.3162    1.3013   -0.8010 H   0  0  0  0  0  0  0  0  0  0  0  0
   -1.0937   -0.1662    1.9801 H   0  0  0  0  0  0  0  0  0  0  0  0
   -2.7271    1.1847    1.0833 H   0  0  0  0  0  0  0  0  0  0  0  0
   -1.5669    2.0890    0.0789 H   0  0  0  0  0  0  0  0  0  0  0  0
   -2.2305    0.5172   -0.5278 H   0  0  0  0  0  0  0  0  0  0  0  0
    0.1864   -1.6763   -1.6525 H   0  0  0  0  0  0  0  0  0  0  0  0
   -1.5126   -1.6487   -0.9857 H   0  0  0  0  0  0  0  0  0  0  0  0
   -0.7726   -0.1637   -1.7854 H   0  0  0  0  0  0  0  0  0  0  0  0
    0.7633   -2.3976    0.3447 H   0  0  0  0  0  0  0  0  0  0  0  0
  1  2  3  0
  2  3  1  0
  3  4  1  0
  4  5  1  0
  5  6  1  0
  5  7  1  0
  7  8  1  0
  7  9  1  0
  7  3  1  0
  1 10  1  0
  3 11  1  0
  5 12  1  0
  6 13  1  0
  6 14  1  0
  6 15  1  0
  8 16  1  0
  8 17  1  0
  8 18  1  0
  9 19  1  0
M  END
