
     RDKit          3D

 19 20  0  0  0  0  0  0  0  0999 V2000
    2.7463    0.5044    0.9523 C   0  0  0  0  0  0  0  0  0  0  0  0
    1.5967    0.1469    0.9240 C   0  0  0  0  0  0  0  0  0  0  0  0
    0.2098   -0.2811    0.8665 C   0  0  0  0  0  0  0  0  0  0  0  0
   -0.4929   -0.2578    2.0446 O   0  0  0  0  0  0  0  0  0  0  0  0
    0.0145   -1.5124    0.0184 C   0  0  0  0  0  0  0  0  0  0  0  0
    0.4549   -0.6531   -1.1362 C   0  0  0  0  0  0  0  0  0  0  0  0
   -0.4865    0.2297   -0.3584 C   0  0  0  0  0  0  0  0  0  0  0  0
   -0.8598    1.5132   -0.6502 C   0  0  0  0  0  0  0  0  0  0  0  0
   -1.3641   -0.9849   -0.2426 C   0  0  0  0  0  0  0  0  0  0  0  0
    3.7771    0.8148    0.9933 H   0  0  0  0  0  0  0  0  0  0  0  0
   -0.6089    0.6579    2.3874 H   0  0  0  0  0  0  0  0  0  0  0  0
    0.2937   -2.4455    0.2291 H   0  0  0  0  0  0  0  0  0  0  0  0
    1.5070   -0.3450   -1.1352 H   0  0  0  0  0  0  0  0  0  0  0  0
    0.0363   -0.9807   -2.1032 H   0  0  0  0  0  0  0  0  0  0  0  0
   -1.9655    1.6749   -0.6765 H   0  0  0  0  0  0  0  0  0  0  0  0
   -0.4881    2.2718    0.0919 H   0  0  0  0  0  0  0  0  0  0  0  0
   -0.4945    1.8892   -1.6353 H   0  0  0  0  0  0  0  0  0  0  0  0
   -2.0482   -0.9615    0.6306 H   0  0  0  0  0  0  0  0  0  0  0  0
   -1.8278   -1.2806   -1.2004 H   0  0  0  0  0  0  0  0  0  0  0  0
  1  2  3  0
  2  3  1  0
  3  4  1  0
  3  5  1  0
  5  6  1  0
  6  7  1  0
  7  8  1  0
  7  9  1  0
  7  3  1  0
  9  5  1  0
  1 10  1  0
  4 11  1  0
  5 12  1  0
  6 13  1  0
  6 14  1  0
  8 15  1  0
  8 16  1  0
  8 17  1  0
  9 18  1  0
  9 19  1  0
M  END
