
     RDKit          3D

 16 16  0  0  0  0  0  0  0  0999 V2000
    0.7597    2.9747   -0.6875 C   0  0  0  0  0  0  0  0  0  0  0  0
    0.5154    1.8033   -0.5787 C   0  0  0  0  0  0  0  0  0  0  0  0
    0.2269    0.3614   -0.4341 C   0  0  0  0  0  0  0  0  0  0  0  0
    1.4442   -0.4360   -0.1538 C   0  0  0  0  0  0  0  0  0  0  0  0
    2.4249   -1.0963    0.0890 C   0  0  0  0  0  0  0  0  0  0  0  0
   -0.8701   -0.2665   -1.1685 C   0  0  0  0  0  0  0  0  0  0  0  0
   -1.0106   -0.0569    0.2794 C   0  0  0  0  0  0  0  0  0  0  0  0
   -0.9850   -1.1749    1.2738 C   0  0  0  0  0  0  0  0  0  0  0  0
    0.9625    4.0280   -0.7761 H   0  0  0  0  0  0  0  0  0  0  0  0
    3.2888   -1.6674    0.3116 H   0  0  0  0  0  0  0  0  0  0  0  0
   -0.6765   -1.3069   -1.5672 H   0  0  0  0  0  0  0  0  0  0  0  0
   -1.5313    0.2899   -1.8653 H   0  0  0  0  0  0  0  0  0  0  0  0
   -1.6907    0.7978    0.5643 H   0  0  0  0  0  0  0  0  0  0  0  0
   -1.0724   -0.7208    2.2989 H   0  0  0  0  0  0  0  0  0  0  0  0
   -1.8051   -1.8877    1.1848 H   0  0  0  0  0  0  0  0  0  0  0  0
    0.0193   -1.6416    1.2294 H   0  0  0  0  0  0  0  0  0  0  0  0
  1  2  3  0
  2  3  1  0
  3  4  1  0
  4  5  3  0
  3  6  1  0
  6  7  1  0
  7  8  1  0
  7  3  1  0
  1  9  1  0
  5 10  1  0
  6 11  1  0
  6 12  1  0
  7 13  1  0
  8 14  1  0
  8 15  1  0
  8 16  1  0
M  END
