
     RDKit          3D

 17 18  0  0  0  0  0  0  0  0999 V2000
    2.9137   -0.1811   -0.9585 C   0  0  0  0  0  0  0  0  0  0  0  0
    1.8528   -0.2659   -0.3886 C   0  0  0  0  0  0  0  0  0  0  0  0
    0.5799   -0.3452    0.3075 C   0  0  0  0  0  0  0  0  0  0  0  0
    0.4864   -1.4405    1.1547 O   0  0  0  0  0  0  0  0  0  0  0  0
    0.2022    0.9246    1.0724 C   0  0  0  0  0  0  0  0  0  0  0  0
   -1.1173    0.9243    0.4008 C   0  0  0  0  0  0  0  0  0  0  0  0
   -1.9436   -0.2697    0.1916 C   0  0  0  0  0  0  0  0  0  0  0  0
   -0.6461   -0.1272   -0.5211 C   0  0  0  0  0  0  0  0  0  0  0  0
   -0.5951    0.0194   -1.8764 O   0  0  0  0  0  0  0  0  0  0  0  0
    3.8500   -0.0972   -1.4581 H   0  0  0  0  0  0  0  0  0  0  0  0
    1.1046   -2.1696    0.9369 H   0  0  0  0  0  0  0  0  0  0  0  0
    0.8423    1.7548    0.6857 H   0  0  0  0  0  0  0  0  0  0  0  0
    0.2527    0.8208    2.1528 H   0  0  0  0  0  0  0  0  0  0  0  0
   -1.4864    1.9067    0.0559 H   0  0  0  0  0  0  0  0  0  0  0  0
   -1.9629   -1.1201    0.9331 H   0  0  0  0  0  0  0  0  0  0  0  0
   -2.8395   -0.1611   -0.4198 H   0  0  0  0  0  0  0  0  0  0  0  0
   -1.4936   -0.1731   -2.2689 H   0  0  0  0  0  0  0  0  0  0  0  0
  1  2  3  0
  2  3  1  0
  3  4  1  0
  3  5  1  0
  5  6  1  0
  6  7  1  0
  7  8  1  0
  8  9  1  0
  8  3  1  0
  8  6  1  0
  1 10  1  0
  4 11  1  0
  5 12  1  0
  5 13  1  0
  6 14  1  0
  7 15  1  0
  7 16  1  0
  9 17  1  0
M  END
