
     RDKit          3D

 21 20  0  0  0  0  0  0  0  0999 V2000
    3.0833    1.0025   -1.7372 C   0  0  0  0  0  0  0  0  0  0  0  0
    2.2456    0.9336   -0.8728 C   0  0  0  0  0  0  0  0  0  0  0  0
    1.2199    0.8261    0.1744 C   0  0  0  0  0  0  0  0  0  0  0  0
    0.1441   -0.1201   -0.3374 C   0  0  0  0  0  0  0  0  0  0  0  0
    0.6990   -1.4742   -0.6320 C   0  0  0  0  0  0  0  0  0  0  0  0
   -0.8909   -0.2233    0.7603 C   0  0  0  0  0  0  0  0  0  0  0  0
   -2.0277   -1.1325    0.3984 C   0  0  0  0  0  0  0  0  0  0  0  0
   -1.4190    1.1274    0.9609 C   0  0  0  0  0  0  0  0  0  0  0  0
   -1.8571    2.2497    1.1447 C   0  0  0  0  0  0  0  0  0  0  0  0
    3.8266    1.0816   -2.5147 H   0  0  0  0  0  0  0  0  0  0  0  0
    0.7770    1.8212    0.3617 H   0  0  0  0  0  0  0  0  0  0  0  0
    1.6524    0.4315    1.1159 H   0  0  0  0  0  0  0  0  0  0  0  0
   -0.3725    0.2993   -1.2226 H   0  0  0  0  0  0  0  0  0  0  0  0
    0.8581   -2.0144    0.3238 H   0  0  0  0  0  0  0  0  0  0  0  0
    0.0277   -1.9966   -1.3143 H   0  0  0  0  0  0  0  0  0  0  0  0
    1.7012   -1.4058   -1.1149 H   0  0  0  0  0  0  0  0  0  0  0  0
   -0.3947   -0.5943    1.6764 H   0  0  0  0  0  0  0  0  0  0  0  0
   -2.8959   -0.8512    1.0398 H   0  0  0  0  0  0  0  0  0  0  0  0
   -2.3630   -1.0050   -0.6441 H   0  0  0  0  0  0  0  0  0  0  0  0
   -1.7862   -2.1827    0.6505 H   0  0  0  0  0  0  0  0  0  0  0  0
   -2.2278    3.2272    1.3199 H   0  0  0  0  0  0  0  0  0  0  0  0
  1  2  3  0
  2  3  1  0
  3  4  1  0
  4  5  1  0
  4  6  1  0
  6  7  1  0
  6  8  1  0
  8  9  3  0
  1 10  1  0
  3 11  1  0
  3 12  1  0
  4 13  1  0
  5 14  1  0
  5 15  1  0
  5 16  1  0
  6 17  1  0
  7 18  1  0
  7 19  1  0
  7 20  1  0
  9 21  1  0
M  END
