
     RDKit          3D

 15 15  0  0  0  0  0  0  0  0999 V2000
    2.3592   -0.5645   -1.9787 C   0  0  0  0  0  0  0  0  0  0  0  0
    1.6022    0.3597   -1.1975 C   0  0  0  0  0  0  0  0  0  0  0  0
    0.9226    1.2062   -0.4820 C   0  0  0  0  0  0  0  0  0  0  0  0
    1.4143    2.3847   -0.1678 O   0  0  0  0  0  0  0  0  0  0  0  0
   -0.4462    0.9726    0.0933 C   0  0  0  0  0  0  0  0  0  0  0  0
   -0.3005   -0.0629    1.2318 C   0  0  0  0  0  0  0  0  0  0  0  0
   -0.3971   -1.3005    0.4917 O   0  0  0  0  0  0  0  0  0  0  0  0
   -1.4707   -0.9767   -0.3952 C   0  0  0  0  0  0  0  0  0  0  0  0
   -1.3026    0.3064   -0.7690 O   0  0  0  0  0  0  0  0  0  0  0  0
    2.9431   -1.2810   -2.5662 H   0  0  0  0  0  0  0  0  0  0  0  0
   -0.9047    1.8866    0.4471 H   0  0  0  0  0  0  0  0  0  0  0  0
    0.6189   -0.0256    1.7397 H   0  0  0  0  0  0  0  0  0  0  0  0
   -1.1928   -0.0280    1.9034 H   0  0  0  0  0  0  0  0  0  0  0  0
   -2.4075   -1.2074    0.1485 H   0  0  0  0  0  0  0  0  0  0  0  0
   -1.4382   -1.6696   -1.3176 H   0  0  0  0  0  0  0  0  0  0  0  0
  1  2  3  0
  2  3  1  0
  3  4  2  0
  3  5  1  0
  5  6  1  0
  6  7  1  0
  7  8  1  0
  8  9  1  0
  9  5  1  0
  1 10  1  0
  5 11  1  0
  6 12  1  0
  6 13  1  0
  8 14  1  0
  8 15  1  0
M  END
