
     RDKit          3D

 19 19  0  0  0  0  0  0  0  0999 V2000
    2.9903   -0.9461   -1.8535 C   0  0  0  0  0  0  0  0  0  0  0  0
    1.7214   -0.5502   -1.5143 C   0  0  0  0  0  0  0  0  0  0  0  0
    0.4605   -0.1617   -1.1841 C   0  0  0  0  0  0  0  0  0  0  0  0
   -0.2427   -1.0290   -0.1538 C   0  0  0  0  0  0  0  0  0  0  0  0
    0.4531   -0.9643    1.0375 O   0  0  0  0  0  0  0  0  0  0  0  0
    0.2888    0.2571    1.7102 C   0  0  0  0  0  0  0  0  0  0  0  0
   -1.1124    0.7133    1.7282 C   0  0  0  0  0  0  0  0  0  0  0  0
   -1.7405    0.5765    0.3142 C   0  0  0  0  0  0  0  0  0  0  0  0
   -1.5570   -0.7253   -0.0844 O   0  0  0  0  0  0  0  0  0  0  0  0
    4.0058   -1.2624   -2.1115 H   0  0  0  0  0  0  0  0  0  0  0  0
   -0.1728   -0.1067   -2.1451 H   0  0  0  0  0  0  0  0  0  0  0  0
    0.4681    0.9340   -0.8773 H   0  0  0  0  0  0  0  0  0  0  0  0
   -0.1198   -2.0921   -0.5068 H   0  0  0  0  0  0  0  0  0  0  0  0
    0.8501    0.9949    1.0427 H   0  0  0  0  0  0  0  0  0  0  0  0
    0.8134    0.2879    2.6776 H   0  0  0  0  0  0  0  0  0  0  0  0
   -1.1833    1.8023    2.0325 H   0  0  0  0  0  0  0  0  0  0  0  0
   -1.7530    0.1228    2.4335 H   0  0  0  0  0  0  0  0  0  0  0  0
   -2.8610    0.7890    0.4606 H   0  0  0  0  0  0  0  0  0  0  0  0
   -1.3091    1.3598   -0.3205 H   0  0  0  0  0  0  0  0  0  0  0  0
  1  2  3  0
  2  3  1  0
  3  4  1  0
  4  5  1  0
  5  6  1  0
  6  7  1  0
  7  8  1  0
  8  9  1  0
  9  4  1  0
  1 10  1  0
  3 11  1  0
  3 12  1  0
  4 13  1  0
  6 14  1  0
  6 15  1  0
  7 16  1  0
  7 17  1  0
  8 18  1  0
  8 19  1  0
M  END
