
     RDKit          3D

 17 17  0  0  0  0  0  0  0  0999 V2000
    3.6415   -0.5499    0.0247 C   0  0  0  0  0  0  0  0  0  0  0  0
    2.5384   -0.3403   -0.3780 C   0  0  0  0  0  0  0  0  0  0  0  0
    1.1856   -0.0792   -0.8988 C   0  0  0  0  0  0  0  0  0  0  0  0
    0.1254   -0.7146   -0.0685 C   0  0  0  0  0  0  0  0  0  0  0  0
   -0.0283   -0.3907    1.2640 O   0  0  0  0  0  0  0  0  0  0  0  0
   -1.0692   -0.0361    0.4063 C   0  0  0  0  0  0  0  0  0  0  0  0
   -1.2342    1.4696    0.2986 C   0  0  0  0  0  0  0  0  0  0  0  0
   -2.3376   -0.7963    0.4705 C   0  0  0  0  0  0  0  0  0  0  0  0
   -3.3630   -0.2691    0.1094 O   0  0  0  0  0  0  0  0  0  0  0  0
    4.6348   -0.7348    0.3678 H   0  0  0  0  0  0  0  0  0  0  0  0
    1.1083    1.0009   -1.0357 H   0  0  0  0  0  0  0  0  0  0  0  0
    1.1119   -0.5276   -1.9286 H   0  0  0  0  0  0  0  0  0  0  0  0
    0.0087   -1.8188   -0.2780 H   0  0  0  0  0  0  0  0  0  0  0  0
   -0.6261    1.9151   -0.4979 H   0  0  0  0  0  0  0  0  0  0  0  0
   -1.0359    1.9443    1.2904 H   0  0  0  0  0  0  0  0  0  0  0  0
   -2.2975    1.7358    0.0644 H   0  0  0  0  0  0  0  0  0  0  0  0
   -2.3627   -1.8081    0.8323 H   0  0  0  0  0  0  0  0  0  0  0  0
  1  2  3  0
  2  3  1  0
  3  4  1  0
  4  5  1  0
  5  6  1  0
  6  7  1  0
  6  8  1  0
  8  9  2  0
  6  4  1  0
  1 10  1  0
  3 11  1  0
  3 12  1  0
  4 13  1  0
  7 14  1  0
  7 15  1  0
  7 16  1  0
  8 17  1  0
M  END
