
     RDKit          3D

 15 15  0  0  0  0  0  0  0  0999 V2000
    2.1869   -0.7390    1.5146 C   0  0  0  0  0  0  0  0  0  0  0  0
    1.4593   -0.3375    0.6215 C   0  0  0  0  0  0  0  0  0  0  0  0
    0.5638    0.1345   -0.4423 C   0  0  0  0  0  0  0  0  0  0  0  0
   -0.1197   -0.9858   -1.1561 C   0  0  0  0  0  0  0  0  0  0  0  0
   -1.1708   -1.3243   -0.2640 O   0  0  0  0  0  0  0  0  0  0  0  0
   -1.4831   -0.2858    0.5658 C   0  0  0  0  0  0  0  0  0  0  0  0
   -2.3731   -0.2993    1.4614 O   0  0  0  0  0  0  0  0  0  0  0  0
   -0.5899    0.8516    0.2222 C   0  0  0  0  0  0  0  0  0  0  0  0
   -1.2465    1.7036   -0.6552 O   0  0  0  0  0  0  0  0  0  0  0  0
    2.8174   -1.1046    2.2829 H   0  0  0  0  0  0  0  0  0  0  0  0
    1.0956    0.7772   -1.1701 H   0  0  0  0  0  0  0  0  0  0  0  0
   -0.5575   -0.5527   -2.0984 H   0  0  0  0  0  0  0  0  0  0  0  0
    0.5108   -1.8426   -1.3807 H   0  0  0  0  0  0  0  0  0  0  0  0
   -0.2617    1.3903    1.1362 H   0  0  0  0  0  0  0  0  0  0  0  0
   -0.8314    2.6145   -0.6380 H   0  0  0  0  0  0  0  0  0  0  0  0
  1  2  3  0
  2  3  1  0
  3  4  1  0
  4  5  1  0
  5  6  1  0
  6  7  2  0
  6  8  1  0
  8  9  1  0
  8  3  1  0
  1 10  1  0
  3 11  1  0
  4 12  1  0
  4 13  1  0
  8 14  1  0
  9 15  1  0
M  END
