
     RDKit          3D

 23 23  0  0  0  0  0  0  0  0999 V2000
    3.6975    0.1458    1.0468 C   0  0  0  0  0  0  0  0  0  0  0  0
    2.7479    0.2322    0.3081 C   0  0  0  0  0  0  0  0  0  0  0  0
    1.5618    0.3338   -0.5822 C   0  0  0  0  0  0  0  0  0  0  0  0
    0.6172   -0.7321   -0.1818 C   0  0  0  0  0  0  0  0  0  0  0  0
    0.1298   -0.6368    1.2825 C   0  0  0  0  0  0  0  0  0  0  0  0
   -0.7995   -0.5453    0.1444 C   0  0  0  0  0  0  0  0  0  0  0  0
   -1.6448   -1.8227   -0.0675 C   0  0  0  0  0  0  0  0  0  0  0  0
   -1.5873    0.6679   -0.1962 C   0  0  0  0  0  0  0  0  0  0  0  0
   -1.1305    1.9550    0.3579 C   0  0  0  0  0  0  0  0  0  0  0  0
    4.5400    0.0861    1.6943 H   0  0  0  0  0  0  0  0  0  0  0  0
    1.2198    1.3593   -0.5123 H   0  0  0  0  0  0  0  0  0  0  0  0
    1.9632    0.0713   -1.5990 H   0  0  0  0  0  0  0  0  0  0  0  0
    0.9905   -1.7639   -0.4568 H   0  0  0  0  0  0  0  0  0  0  0  0
    0.4787    0.2168    1.8736 H   0  0  0  0  0  0  0  0  0  0  0  0
    0.1850   -1.5929    1.8841 H   0  0  0  0  0  0  0  0  0  0  0  0
   -2.5890   -1.7097    0.4873 H   0  0  0  0  0  0  0  0  0  0  0  0
   -1.8043   -1.8926   -1.1539 H   0  0  0  0  0  0  0  0  0  0  0  0
   -1.0585   -2.7069    0.2392 H   0  0  0  0  0  0  0  0  0  0  0  0
   -2.6537    0.4918    0.1234 H   0  0  0  0  0  0  0  0  0  0  0  0
   -1.6688    0.7597   -1.3194 H   0  0  0  0  0  0  0  0  0  0  0  0
   -2.0070    2.5184    0.8012 H   0  0  0  0  0  0  0  0  0  0  0  0
   -0.7946    2.6516   -0.4682 H   0  0  0  0  0  0  0  0  0  0  0  0
   -0.3934    1.9130    1.1704 H   0  0  0  0  0  0  0  0  0  0  0  0
  1  2  3  0
  2  3  1  0
  3  4  1  0
  4  5  1  0
  5  6  1  0
  6  7  1  0
  6  8  1  0
  8  9  1  0
  6  4  1  0
  1 10  1  0
  3 11  1  0
  3 12  1  0
  4 13  1  0
  5 14  1  0
  5 15  1  0
  7 16  1  0
  7 17  1  0
  7 18  1  0
  8 19  1  0
  8 20  1  0
  9 21  1  0
  9 22  1  0
  9 23  1  0
M  END
