
     RDKit          3D

 17 17  0  0  0  0  0  0  0  0999 V2000
    3.9998    1.4233   -0.7914 C   0  0  0  0  0  0  0  0  0  0  0  0
    2.7232    0.9385   -0.8459 C   0  0  0  0  0  0  0  0  0  0  0  0
    1.4988    0.4492   -0.9019 C   0  0  0  0  0  0  0  0  0  0  0  0
    0.7723    0.3074    0.2925 O   0  0  0  0  0  0  0  0  0  0  0  0
   -0.4698   -0.2915    0.0827 C   0  0  0  0  0  0  0  0  0  0  0  0
   -0.8550   -1.3468    1.0748 C   0  0  0  0  0  0  0  0  0  0  0  0
   -1.5086   -0.0025    1.0936 C   0  0  0  0  0  0  0  0  0  0  0  0
   -2.9152    0.0045    0.6814 C   0  0  0  0  0  0  0  0  0  0  0  0
   -3.8342    0.6078    1.1520 O   0  0  0  0  0  0  0  0  0  0  0  0
    5.0217    1.8142   -0.7611 H   0  0  0  0  0  0  0  0  0  0  0  0
    0.7998    1.0270   -1.6455 H   0  0  0  0  0  0  0  0  0  0  0  0
    1.4489   -0.6233   -1.3694 H   0  0  0  0  0  0  0  0  0  0  0  0
   -0.7103   -0.5512   -0.9554 H   0  0  0  0  0  0  0  0  0  0  0  0
   -0.0921   -1.6230    1.8122 H   0  0  0  0  0  0  0  0  0  0  0  0
   -1.4542   -2.1976    0.6996 H   0  0  0  0  0  0  0  0  0  0  0  0
   -1.2483    0.7132    1.9173 H   0  0  0  0  0  0  0  0  0  0  0  0
   -3.1768   -0.6491   -0.2104 H   0  0  0  0  0  0  0  0  0  0  0  0
  1  2  3  0
  2  3  1  0
  3  4  1  0
  4  5  1  0
  5  6  1  0
  6  7  1  0
  7  8  1  0
  8  9  2  0
  7  5  1  0
  1 10  1  0
  3 11  1  0
  3 12  1  0
  5 13  1  0
  6 14  1  0
  6 15  1  0
  7 16  1  0
  8 17  1  0
M  END
