
     RDKit          3D

 18 18  0  0  0  0  0  0  0  0999 V2000
    3.0175   -0.4684    1.4474 C   0  0  0  0  0  0  0  0  0  0  0  0
    1.9638   -0.4916    0.8087 C   0  0  0  0  0  0  0  0  0  0  0  0
    0.7027   -0.5077    0.0377 C   0  0  0  0  0  0  0  0  0  0  0  0
    0.8048   -0.9048   -1.2466 O   0  0  0  0  0  0  0  0  0  0  0  0
   -0.5129   -0.7450    0.8715 C   0  0  0  0  0  0  0  0  0  0  0  0
   -1.1754    0.4215    0.1001 C   0  0  0  0  0  0  0  0  0  0  0  0
   -1.7099    0.1256   -1.2399 C   0  0  0  0  0  0  0  0  0  0  0  0
    0.2280    1.0101    0.0772 C   0  0  0  0  0  0  0  0  0  0  0  0
    3.9270   -0.4536    2.0143 H   0  0  0  0  0  0  0  0  0  0  0  0
    0.7502   -0.1304   -1.8814 H   0  0  0  0  0  0  0  0  0  0  0  0
   -0.3441   -0.3680    1.9486 H   0  0  0  0  0  0  0  0  0  0  0  0
   -1.0473   -1.6852    0.7931 H   0  0  0  0  0  0  0  0  0  0  0  0
   -1.8970    0.9138    0.7795 H   0  0  0  0  0  0  0  0  0  0  0  0
   -1.4624   -0.8534   -1.6739 H   0  0  0  0  0  0  0  0  0  0  0  0
   -2.8437    0.1616   -1.2728 H   0  0  0  0  0  0  0  0  0  0  0  0
   -1.3388    0.9488   -1.9190 H   0  0  0  0  0  0  0  0  0  0  0  0
    0.5001    1.5655   -0.7950 H   0  0  0  0  0  0  0  0  0  0  0  0
    0.4375    1.4611    1.0594 H   0  0  0  0  0  0  0  0  0  0  0  0
  1  2  3  0
  2  3  1  0
  3  4  1  0
  3  5  1  0
  5  6  1  0
  6  7  1  0
  6  8  1  0
  8  3  1  0
  1  9  1  0
  4 10  1  0
  5 11  1  0
  5 12  1  0
  6 13  1  0
  7 14  1  0
  7 15  1  0
  7 16  1  0
  8 17  1  0
  8 18  1  0
M  END
