
     RDKit          3D

 17 17  0  0  0  0  0  0  0  0999 V2000
    3.7888   -0.1147   -2.3953 C   0  0  0  0  0  0  0  0  0  0  0  0
    2.7153   -0.2470   -1.8409 C   0  0  0  0  0  0  0  0  0  0  0  0
    1.4506   -0.3986   -1.2088 C   0  0  0  0  0  0  0  0  0  0  0  0
    0.3770   -0.5080   -0.6670 C   0  0  0  0  0  0  0  0  0  0  0  0
   -0.9368   -0.6174    0.0047 C   0  0  0  0  0  0  0  0  0  0  0  0
   -0.7710   -1.3767    1.3256 C   0  0  0  0  0  0  0  0  0  0  0  0
   -1.4761    0.7572    0.2239 C   0  0  0  0  0  0  0  0  0  0  0  0
   -0.8099    1.7742    1.0111 C   0  0  0  0  0  0  0  0  0  0  0  0
   -2.0510    1.0567    1.4632 O   0  0  0  0  0  0  0  0  0  0  0  0
    4.7297    0.0001   -2.8748 H   0  0  0  0  0  0  0  0  0  0  0  0
   -1.6604   -1.1943   -0.5886 H   0  0  0  0  0  0  0  0  0  0  0  0
   -1.7528   -1.8717    1.5723 H   0  0  0  0  0  0  0  0  0  0  0  0
   -0.4797   -0.6815    2.1481 H   0  0  0  0  0  0  0  0  0  0  0  0
    0.0480   -2.1186    1.2404 H   0  0  0  0  0  0  0  0  0  0  0  0
   -2.1119    1.1294   -0.6320 H   0  0  0  0  0  0  0  0  0  0  0  0
    0.0085    1.5809    1.7035 H   0  0  0  0  0  0  0  0  0  0  0  0
   -1.0683    2.8298    0.8507 H   0  0  0  0  0  0  0  0  0  0  0  0
  1  2  3  0
  2  3  1  0
  3  4  3  0
  4  5  1  0
  5  6  1  0
  5  7  1  0
  7  8  1  0
  8  9  1  0
  9  7  1  0
  1 10  1  0
  5 11  1  0
  6 12  1  0
  6 13  1  0
  6 14  1  0
  7 15  1  0
  8 16  1  0
  8 17  1  0
M  END
