
     RDKit          3D

 19 20  0  0  0  0  0  0  0  0999 V2000
    2.5785   -1.2442    0.6738 C   0  0  0  0  0  0  0  0  0  0  0  0
    1.6063   -0.6988    0.2133 C   0  0  0  0  0  0  0  0  0  0  0  0
    0.3999   -0.0410   -0.3421 C   0  0  0  0  0  0  0  0  0  0  0  0
    0.3721    0.0217   -1.8313 C   0  0  0  0  0  0  0  0  0  0  0  0
    0.0432    1.1910    0.4272 C   0  0  0  0  0  0  0  0  0  0  0  0
   -1.3793    0.9172    0.0046 C   0  0  0  0  0  0  0  0  0  0  0  0
   -0.8410   -0.4469    0.3758 C   0  0  0  0  0  0  0  0  0  0  0  0
   -1.4517   -1.5352    0.3667 O   0  0  0  0  0  0  0  0  0  0  0  0
   -0.2376    0.2611    1.5732 C   0  0  0  0  0  0  0  0  0  0  0  0
    3.4392   -1.7068    1.0810 H   0  0  0  0  0  0  0  0  0  0  0  0
   -0.1901   -0.8420   -2.2889 H   0  0  0  0  0  0  0  0  0  0  0  0
    1.4281   -0.1465   -2.1928 H   0  0  0  0  0  0  0  0  0  0  0  0
    0.0703    0.9819   -2.2672 H   0  0  0  0  0  0  0  0  0  0  0  0
    0.5085    2.0733    0.4564 H   0  0  0  0  0  0  0  0  0  0  0  0
   -1.5611    1.0473   -1.0596 H   0  0  0  0  0  0  0  0  0  0  0  0
   -2.1379    1.2933    0.7176 H   0  0  0  0  0  0  0  0  0  0  0  0
   -2.3034   -1.5734   -0.1628 H   0  0  0  0  0  0  0  0  0  0  0  0
    0.6397   -0.2363    2.0047 H   0  0  0  0  0  0  0  0  0  0  0  0
   -0.9835    0.6844    2.2503 H   0  0  0  0  0  0  0  0  0  0  0  0
  1  2  3  0
  2  3  1  0
  3  4  1  0
  3  5  1  0
  5  6  1  0
  6  7  1  0
  7  8  1  0
  7  9  1  0
  7  3  1  0
  9  5  1  0
  1 10  1  0
  4 11  1  0
  4 12  1  0
  4 13  1  0
  5 14  1  0
  6 15  1  0
  6 16  1  0
  8 17  1  0
  9 18  1  0
  9 19  1  0
M  END
