
     RDKit          3D

 25 24  0  0  0  0  0  0  0  0999 V2000
    2.2180    3.0672    2.0269 C   0  0  0  0  0  0  0  0  0  0  0  0
    1.6895    1.9021    1.7232 C   0  0  0  0  0  0  0  0  0  0  0  0
    1.1156    0.6445    1.4062 C   0  0  0  0  0  0  0  0  0  0  0  0
    0.7343   -0.0990    2.6138 C   0  0  0  0  0  0  0  0  0  0  0  0
    0.2311    0.6758    0.2246 C   0  0  0  0  0  0  0  0  0  0  0  0
   -0.3067   -0.6264   -0.2016 C   0  0  0  0  0  0  0  0  0  0  0  0
   -1.2375   -0.5579   -1.3385 C   0  0  0  0  0  0  0  0  0  0  0  0
   -1.6547   -1.9841   -1.7288 C   0  0  0  0  0  0  0  0  0  0  0  0
   -0.7640    0.1652   -2.5549 C   0  0  0  0  0  0  0  0  0  0  0  0
    2.6334    3.9769    2.2794 H   0  0  0  0  0  0  0  0  0  0  0  0
    2.0154   -0.0225    0.9659 H   0  0  0  0  0  0  0  0  0  0  0  0
    1.6862   -0.1521    3.2505 H   0  0  0  0  0  0  0  0  0  0  0  0
    0.0163    0.3102    3.3119 H   0  0  0  0  0  0  0  0  0  0  0  0
    0.5204   -1.1757    2.4051 H   0  0  0  0  0  0  0  0  0  0  0  0
    1.0021    0.9306   -0.6546 H   0  0  0  0  0  0  0  0  0  0  0  0
   -0.4746    1.5244    0.1265 H   0  0  0  0  0  0  0  0  0  0  0  0
   -0.6930   -1.3168    0.5959 H   0  0  0  0  0  0  0  0  0  0  0  0
    0.6264   -1.2236   -0.5788 H   0  0  0  0  0  0  0  0  0  0  0  0
   -2.1864   -0.0788   -0.9820 H   0  0  0  0  0  0  0  0  0  0  0  0
   -2.0038   -1.9258   -2.7654 H   0  0  0  0  0  0  0  0  0  0  0  0
   -2.4373   -2.4250   -1.0978 H   0  0  0  0  0  0  0  0  0  0  0  0
   -0.7298   -2.6290   -1.7425 H   0  0  0  0  0  0  0  0  0  0  0  0
   -0.6151   -0.5851   -3.3950 H   0  0  0  0  0  0  0  0  0  0  0  0
    0.1812    0.7161   -2.2934 H   0  0  0  0  0  0  0  0  0  0  0  0
   -1.5671    0.8888   -2.8799 H   0  0  0  0  0  0  0  0  0  0  0  0
  1  2  3  0
  2  3  1  0
  3  4  1  0
  3  5  1  0
  5  6  1  0
  6  7  1  0
  7  8  1  0
  7  9  1  0
  1 10  1  0
  3 11  1  0
  4 12  1  0
  4 13  1  0
  4 14  1  0
  5 15  1  0
  5 16  1  0
  6 17  1  0
  6 18  1  0
  7 19  1  0
  8 20  1  0
  8 21  1  0
  8 22  1  0
  9 23  1  0
  9 24  1  0
  9 25  1  0
M  END
