
     RDKit          3D

 17 17  0  0  0  0  0  0  0  0999 V2000
    2.0070    2.3477   -0.2450 C   0  0  0  0  0  0  0  0  0  0  0  0
    1.5751    1.2410   -0.3788 C   0  0  0  0  0  0  0  0  0  0  0  0
    1.0556   -0.1418   -0.5633 C   0  0  0  0  0  0  0  0  0  0  0  0
   -0.3460   -0.1697   -0.0198 C   0  0  0  0  0  0  0  0  0  0  0  0
   -0.3843    0.1918    1.4502 C   0  0  0  0  0  0  0  0  0  0  0  0
   -1.0912   -1.4413   -0.3450 C   0  0  0  0  0  0  0  0  0  0  0  0
   -1.4672   -0.6549   -1.5246 C   0  0  0  0  0  0  0  0  0  0  0  0
   -1.7774   -0.9242   -2.7092 O   0  0  0  0  0  0  0  0  0  0  0  0
   -1.3269    0.4900   -0.7526 O   0  0  0  0  0  0  0  0  0  0  0  0
    2.4096    3.3475   -0.1354 H   0  0  0  0  0  0  0  0  0  0  0  0
    1.0883   -0.4297   -1.6267 H   0  0  0  0  0  0  0  0  0  0  0  0
    1.6588   -0.8291    0.0667 H   0  0  0  0  0  0  0  0  0  0  0  0
   -1.4404    0.2438    1.7746 H   0  0  0  0  0  0  0  0  0  0  0  0
    0.1714   -0.5269    2.0601 H   0  0  0  0  0  0  0  0  0  0  0  0
    0.1338    1.1864    1.5543 H   0  0  0  0  0  0  0  0  0  0  0  0
   -1.8966   -1.6684    0.3767 H   0  0  0  0  0  0  0  0  0  0  0  0
   -0.3698   -2.2623   -0.5243 H   0  0  0  0  0  0  0  0  0  0  0  0
  1  2  3  0
  2  3  1  0
  3  4  1  0
  4  5  1  0
  4  6  1  0
  6  7  1  0
  7  8  2  0
  7  9  1  0
  9  4  1  0
  1 10  1  0
  3 11  1  0
  3 12  1  0
  5 13  1  0
  5 14  1  0
  5 15  1  0
  6 16  1  0
  6 17  1  0
M  END
