
     RDKit          3D

 21 20  0  0  0  0  0  0  0  0999 V2000
    4.1275    1.0391    1.4801 C   0  0  0  0  0  0  0  0  0  0  0  0
    3.1677    0.7121    0.8315 C   0  0  0  0  0  0  0  0  0  0  0  0
    1.9805    0.2883    0.0062 C   0  0  0  0  0  0  0  0  0  0  0  0
    0.9851    1.1346    0.2927 O   0  0  0  0  0  0  0  0  0  0  0  0
   -0.2172    1.0580   -0.2678 C   0  0  0  0  0  0  0  0  0  0  0  0
   -1.1570   -0.0333    0.0579 C   0  0  0  0  0  0  0  0  0  0  0  0
   -2.4566    0.0924   -0.7417 C   0  0  0  0  0  0  0  0  0  0  0  0
   -0.6879   -1.4414    0.0601 C   0  0  0  0  0  0  0  0  0  0  0  0
   -1.7835   -2.3180    0.3510 O   0  0  0  0  0  0  0  0  0  0  0  0
    4.9780    1.3096    2.0488 H   0  0  0  0  0  0  0  0  0  0  0  0
    1.7801   -0.7627    0.1771 H   0  0  0  0  0  0  0  0  0  0  0  0
    2.3552    0.3983   -1.0746 H   0  0  0  0  0  0  0  0  0  0  0  0
   -0.7369    2.0577   -0.0287 H   0  0  0  0  0  0  0  0  0  0  0  0
   -0.0872    1.0967   -1.4276 H   0  0  0  0  0  0  0  0  0  0  0  0
   -1.5109    0.1398    1.1405 H   0  0  0  0  0  0  0  0  0  0  0  0
   -2.3154   -0.4345   -1.7266 H   0  0  0  0  0  0  0  0  0  0  0  0
   -2.6665    1.1590   -0.9471 H   0  0  0  0  0  0  0  0  0  0  0  0
   -3.2528   -0.4029   -0.1846 H   0  0  0  0  0  0  0  0  0  0  0  0
   -0.1313   -1.7368   -0.8132 H   0  0  0  0  0  0  0  0  0  0  0  0
   -0.0319   -1.5493    0.9839 H   0  0  0  0  0  0  0  0  0  0  0  0
   -2.3392   -1.8067    0.9828 H   0  0  0  0  0  0  0  0  0  0  0  0
  1  2  3  0
  2  3  1  0
  3  4  1  0
  4  5  1  0
  5  6  1  0
  6  7  1  0
  6  8  1  0
  8  9  1  0
  1 10  1  0
  3 11  1  0
  3 12  1  0
  5 13  1  0
  5 14  1  0
  6 15  1  0
  7 16  1  0
  7 17  1  0
  7 18  1  0
  8 19  1  0
  8 20  1  0
  9 21  1  0
M  END
