
     RDKit          3D

 17 18  0  0  0  0  0  0  0  0999 V2000
    2.0907    1.8433    0.9997 C   0  0  0  0  0  0  0  0  0  0  0  0
    1.5403    1.1108    0.2347 C   0  0  0  0  0  0  0  0  0  0  0  0
    0.8752    0.1888   -0.6974 C   0  0  0  0  0  0  0  0  0  0  0  0
   -0.5674    0.5821   -1.1300 C   0  0  0  0  0  0  0  0  0  0  0  0
   -1.0750    1.7538   -0.5577 O   0  0  0  0  0  0  0  0  0  0  0  0
   -0.2856   -0.5099   -0.2346 C   0  0  0  0  0  0  0  0  0  0  0  0
   -0.6327   -1.9216   -0.3958 C   0  0  0  0  0  0  0  0  0  0  0  0
   -0.6798   -2.0351    1.0143 O   0  0  0  0  0  0  0  0  0  0  0  0
   -0.7489   -0.6304    1.1724 C   0  0  0  0  0  0  0  0  0  0  0  0
    2.5844    2.4729    1.6754 H   0  0  0  0  0  0  0  0  0  0  0  0
    1.5258   -0.2194   -1.5060 H   0  0  0  0  0  0  0  0  0  0  0  0
   -0.7785    0.4163   -2.2227 H   0  0  0  0  0  0  0  0  0  0  0  0
   -0.4355    2.1831    0.0621 H   0  0  0  0  0  0  0  0  0  0  0  0
   -1.6284   -2.0766   -0.8306 H   0  0  0  0  0  0  0  0  0  0  0  0
    0.1287   -2.6198   -0.8019 H   0  0  0  0  0  0  0  0  0  0  0  0
   -1.8215   -0.3099    1.2627 H   0  0  0  0  0  0  0  0  0  0  0  0
   -0.0919   -0.2285    1.9552 H   0  0  0  0  0  0  0  0  0  0  0  0
  1  2  3  0
  2  3  1  0
  3  4  1  0
  4  5  1  0
  4  6  1  0
  6  7  1  0
  7  8  1  0
  8  9  1  0
  6  3  1  0
  9  6  1  0
  1 10  1  0
  3 11  1  0
  4 12  1  0
  5 13  1  0
  7 14  1  0
  7 15  1  0
  9 16  1  0
  9 17  1  0
M  END
