
     RDKit          3D

 17 17  0  0  0  0  0  0  0  0999 V2000
    2.2856   -1.4568    0.3886 C   0  0  0  0  0  0  0  0  0  0  0  0
    1.3199   -0.7575    0.4431 C   0  0  0  0  0  0  0  0  0  0  0  0
    0.1577    0.0856    0.5288 C   0  0  0  0  0  0  0  0  0  0  0  0
    0.4183    1.3405    1.3347 C   0  0  0  0  0  0  0  0  0  0  0  0
   -1.0177   -0.5728    1.0077 O   0  0  0  0  0  0  0  0  0  0  0  0
   -1.7354    0.3219    0.1868 C   0  0  0  0  0  0  0  0  0  0  0  0
   -2.8397    0.8848    0.2033 O   0  0  0  0  0  0  0  0  0  0  0  0
   -0.5866    0.3118   -0.7368 C   0  0  0  0  0  0  0  0  0  0  0  0
   -0.6013   -0.8640   -1.6561 C   0  0  0  0  0  0  0  0  0  0  0  0
    3.1673   -2.0886    0.3208 H   0  0  0  0  0  0  0  0  0  0  0  0
    0.5896    1.1087    2.4056 H   0  0  0  0  0  0  0  0  0  0  0  0
   -0.4328    2.0513    1.1680 H   0  0  0  0  0  0  0  0  0  0  0  0
    1.3395    1.8432    0.9761 H   0  0  0  0  0  0  0  0  0  0  0  0
   -0.4599    1.3015   -1.2243 H   0  0  0  0  0  0  0  0  0  0  0  0
   -0.2305   -0.5023   -2.6437 H   0  0  0  0  0  0  0  0  0  0  0  0
    0.1729   -1.6019   -1.2989 H   0  0  0  0  0  0  0  0  0  0  0  0
   -1.5470   -1.4054   -1.7216 H   0  0  0  0  0  0  0  0  0  0  0  0
  1  2  3  0
  2  3  1  0
  3  4  1  0
  3  5  1  0
  5  6  1  0
  6  7  2  0
  6  8  1  0
  8  9  1  0
  8  3  1  0
  1 10  1  0
  4 11  1  0
  4 12  1  0
  4 13  1  0
  8 14  1  0
  9 15  1  0
  9 16  1  0
  9 17  1  0
M  END
