
     RDKit          3D

 15 15  0  0  0  0  0  0  0  0999 V2000
   -2.4389   -1.1315    0.0004 C   0  0  0  0  0  0  0  0  0  0  0  0
   -1.3050   -0.6780    0.0621 C   0  0  0  0  0  0  0  0  0  0  0  0
    0.0315   -0.1229    0.1512 C   0  0  0  0  0  0  0  0  0  0  0  0
    0.0352    1.3307    0.5758 C   0  0  0  0  0  0  0  0  0  0  0  0
   -0.9212    2.0429   -0.1464 O   0  0  0  0  0  0  0  0  0  0  0  0
    0.9376   -0.9257    0.8002 O   0  0  0  0  0  0  0  0  0  0  0  0
    1.4668   -1.4323   -0.3985 C   0  0  0  0  0  0  0  0  0  0  0  0
    0.8596   -0.2807   -1.0833 C   0  0  0  0  0  0  0  0  0  0  0  0
    0.8960    0.3434   -2.1054 O   0  0  0  0  0  0  0  0  0  0  0  0
   -3.4182   -1.5267   -0.0710 H   0  0  0  0  0  0  0  0  0  0  0  0
   -0.1624    1.4616    1.6428 H   0  0  0  0  0  0  0  0  0  0  0  0
    1.0218    1.8110    0.3729 H   0  0  0  0  0  0  0  0  0  0  0  0
   -0.6093    2.9722   -0.2370 H   0  0  0  0  0  0  0  0  0  0  0  0
    1.0243   -2.4042   -0.7212 H   0  0  0  0  0  0  0  0  0  0  0  0
    2.5821   -1.4598   -0.3688 H   0  0  0  0  0  0  0  0  0  0  0  0
  1  2  3  0
  2  3  1  0
  3  4  1  0
  4  5  1  0
  3  6  1  0
  6  7  1  0
  7  8  1  0
  8  9  2  0
  8  3  1  0
  1 10  1  0
  4 11  1  0
  4 12  1  0
  5 13  1  0
  7 14  1  0
  7 15  1  0
M  END
