
     RDKit          3D

 21 21  0  0  0  0  0  0  0  0999 V2000
   -2.2432    2.6798   -0.7782 C   0  0  0  0  0  0  0  0  0  0  0  0
   -2.0716    1.5443   -0.4182 C   0  0  0  0  0  0  0  0  0  0  0  0
   -1.8500    0.1622    0.0182 C   0  0  0  0  0  0  0  0  0  0  0  0
   -2.5762   -0.0814    1.2094 O   0  0  0  0  0  0  0  0  0  0  0  0
   -0.4188   -0.1434    0.2657 C   0  0  0  0  0  0  0  0  0  0  0  0
   -0.2119   -1.6128    0.7230 C   0  0  0  0  0  0  0  0  0  0  0  0
    0.4318   -1.0188   -0.5243 C   0  0  0  0  0  0  0  0  0  0  0  0
    1.9133   -0.8696   -0.4259 C   0  0  0  0  0  0  0  0  0  0  0  0
    2.4319    0.4836   -0.8204 C   0  0  0  0  0  0  0  0  0  0  0  0
   -2.3784    3.7003   -1.1000 H   0  0  0  0  0  0  0  0  0  0  0  0
   -2.3231   -0.5079   -0.7295 H   0  0  0  0  0  0  0  0  0  0  0  0
   -2.6257    0.7983    1.6586 H   0  0  0  0  0  0  0  0  0  0  0  0
    0.1139    0.6224    0.8979 H   0  0  0  0  0  0  0  0  0  0  0  0
   -1.0324   -2.3309    0.5474 H   0  0  0  0  0  0  0  0  0  0  0  0
    0.3868   -1.7511    1.6273 H   0  0  0  0  0  0  0  0  0  0  0  0
    0.0012   -1.3761   -1.5024 H   0  0  0  0  0  0  0  0  0  0  0  0
    2.3647   -1.6080   -1.1355 H   0  0  0  0  0  0  0  0  0  0  0  0
    2.2640   -1.1485    0.5632 H   0  0  0  0  0  0  0  0  0  0  0  0
    3.3373    0.6714   -0.1982 H   0  0  0  0  0  0  0  0  0  0  0  0
    2.7610    0.4787   -1.8651 H   0  0  0  0  0  0  0  0  0  0  0  0
    1.7252    1.3075   -0.6054 H   0  0  0  0  0  0  0  0  0  0  0  0
  1  2  3  0
  2  3  1  0
  3  4  1  0
  3  5  1  0
  5  6  1  0
  6  7  1  0
  7  8  1  0
  8  9  1  0
  7  5  1  0
  1 10  1  0
  3 11  1  0
  4 12  1  0
  5 13  1  0
  6 14  1  0
  6 15  1  0
  7 16  1  0
  8 17  1  0
  8 18  1  0
  9 19  1  0
  9 20  1  0
  9 21  1  0
M  END
