
     RDKit          3D

 15 15  0  0  0  0  0  0  0  0999 V2000
    2.8282   -0.5217    0.3843 C   0  0  0  0  0  0  0  0  0  0  0  0
    1.7667    0.0608    0.3008 C   0  0  0  0  0  0  0  0  0  0  0  0
    0.4980    0.7310    0.1917 C   0  0  0  0  0  0  0  0  0  0  0  0
    0.3868    1.6715   -0.8636 O   0  0  0  0  0  0  0  0  0  0  0  0
   -0.9482    1.3371   -0.9352 C   0  0  0  0  0  0  0  0  0  0  0  0
   -1.9903    1.9565   -1.1954 O   0  0  0  0  0  0  0  0  0  0  0  0
   -0.5813   -0.0408   -0.5744 C   0  0  0  0  0  0  0  0  0  0  0  0
   -1.4865   -0.7459    0.3890 C   0  0  0  0  0  0  0  0  0  0  0  0
   -0.1018   -0.8228   -1.6063 O   0  0  0  0  0  0  0  0  0  0  0  0
    3.7627   -1.0163    0.4665 H   0  0  0  0  0  0  0  0  0  0  0  0
    0.0524    1.1262    1.1194 H   0  0  0  0  0  0  0  0  0  0  0  0
   -0.8598   -1.5097    0.9321 H   0  0  0  0  0  0  0  0  0  0  0  0
   -2.2741   -1.3244   -0.1336 H   0  0  0  0  0  0  0  0  0  0  0  0
   -1.9444   -0.0154    1.0786 H   0  0  0  0  0  0  0  0  0  0  0  0
    0.8915   -0.8860   -1.5962 H   0  0  0  0  0  0  0  0  0  0  0  0
  1  2  3  0
  2  3  1  0
  3  4  1  0
  4  5  1  0
  5  6  2  0
  5  7  1  0
  7  8  1  0
  7  9  1  0
  7  3  1  0
  1 10  1  0
  3 11  1  0
  8 12  1  0
  8 13  1  0
  8 14  1  0
  9 15  1  0
M  END
