
     RDKit          3D

 21 21  0  0  0  0  0  0  0  0999 V2000
   -1.1177    2.5286   -0.6397 C   0  0  0  0  0  0  0  0  0  0  0  0
   -0.8514    1.3656   -0.8214 C   0  0  0  0  0  0  0  0  0  0  0  0
   -0.5063   -0.0387   -1.0448 C   0  0  0  0  0  0  0  0  0  0  0  0
   -1.8120   -0.7556   -1.3652 C   0  0  0  0  0  0  0  0  0  0  0  0
   -1.6180   -2.1014   -1.5989 O   0  0  0  0  0  0  0  0  0  0  0  0
    0.1084   -0.6472    0.2123 C   0  0  0  0  0  0  0  0  0  0  0  0
    1.3578    0.0728    0.6208 C   0  0  0  0  0  0  0  0  0  0  0  0
    2.0358   -0.4556    1.8452 C   0  0  0  0  0  0  0  0  0  0  0  0
    1.3286    0.8389    1.9518 C   0  0  0  0  0  0  0  0  0  0  0  0
   -1.3484    3.5737   -0.4930 H   0  0  0  0  0  0  0  0  0  0  0  0
    0.1540   -0.1905   -1.9179 H   0  0  0  0  0  0  0  0  0  0  0  0
   -2.4296   -0.6660   -0.4447 H   0  0  0  0  0  0  0  0  0  0  0  0
   -2.3098   -0.2161   -2.1920 H   0  0  0  0  0  0  0  0  0  0  0  0
   -1.6870   -2.3774   -2.5254 H   0  0  0  0  0  0  0  0  0  0  0  0
    0.2816   -1.7248    0.0952 H   0  0  0  0  0  0  0  0  0  0  0  0
   -0.6561   -0.4786    1.0151 H   0  0  0  0  0  0  0  0  0  0  0  0
    1.9767    0.5078   -0.1780 H   0  0  0  0  0  0  0  0  0  0  0  0
    1.6190   -1.3411    2.3699 H   0  0  0  0  0  0  0  0  0  0  0  0
    3.1430   -0.4966    1.7729 H   0  0  0  0  0  0  0  0  0  0  0  0
    0.3638    0.8630    2.4974 H   0  0  0  0  0  0  0  0  0  0  0  0
    1.9677    1.7392    2.0276 H   0  0  0  0  0  0  0  0  0  0  0  0
  1  2  3  0
  2  3  1  0
  3  4  1  0
  4  5  1  0
  3  6  1  0
  6  7  1  0
  7  8  1  0
  8  9  1  0
  9  7  1  0
  1 10  1  0
  3 11  1  0
  4 12  1  0
  4 13  1  0
  5 14  1  0
  6 15  1  0
  6 16  1  0
  7 17  1  0
  8 18  1  0
  8 19  1  0
  9 20  1  0
  9 21  1  0
M  END
