
     RDKit          3D

 19 19  0  0  0  0  0  0  0  0999 V2000
   -2.5510    2.3750    0.0020 C   0  0  0  0  0  0  0  0  0  0  0  0
   -1.5995    1.7584    0.3694 C   0  0  0  0  0  0  0  0  0  0  0  0
   -0.4663    0.9944    0.8143 C   0  0  0  0  0  0  0  0  0  0  0  0
    0.2045    1.4699    1.7661 O   0  0  0  0  0  0  0  0  0  0  0  0
   -0.0878   -0.2992    0.1926 C   0  0  0  0  0  0  0  0  0  0  0  0
    1.3180   -0.8138    0.4065 C   0  0  0  0  0  0  0  0  0  0  0  0
    2.3506    0.1567   -0.1271 C   0  0  0  0  0  0  0  0  0  0  0  0
   -0.8437   -0.6828   -1.0460 C   0  0  0  0  0  0  0  0  0  0  0  0
   -1.1284   -1.4311    0.2161 C   0  0  0  0  0  0  0  0  0  0  0  0
   -3.3923    2.9376   -0.3377 H   0  0  0  0  0  0  0  0  0  0  0  0
    1.4750   -1.7801   -0.1091 H   0  0  0  0  0  0  0  0  0  0  0  0
    1.5158   -0.9898    1.4854 H   0  0  0  0  0  0  0  0  0  0  0  0
    1.8884    0.8020   -0.9013 H   0  0  0  0  0  0  0  0  0  0  0  0
    3.1738   -0.3919   -0.6225 H   0  0  0  0  0  0  0  0  0  0  0  0
    2.8292    0.7542    0.6899 H   0  0  0  0  0  0  0  0  0  0  0  0
   -1.6402   -0.0434   -1.4179 H   0  0  0  0  0  0  0  0  0  0  0  0
   -0.2423   -1.1603   -1.8430 H   0  0  0  0  0  0  0  0  0  0  0  0
   -0.7871   -2.4730    0.2235 H   0  0  0  0  0  0  0  0  0  0  0  0
   -2.0164   -1.1828    0.8008 H   0  0  0  0  0  0  0  0  0  0  0  0
  1  2  3  0
  2  3  1  0
  3  4  2  0
  3  5  1  0
  5  6  1  0
  6  7  1  0
  5  8  1  0
  8  9  1  0
  9  5  1  0
  1 10  1  0
  6 11  1  0
  6 12  1  0
  7 13  1  0
  7 14  1  0
  7 15  1  0
  8 16  1  0
  8 17  1  0
  9 18  1  0
  9 19  1  0
M  END
