
     RDKit          3D

 17 17  0  0  0  0  0  0  0  0999 V2000
    0.8999    2.5693    0.3631 C   0  0  0  0  0  0  0  0  0  0  0  0
    0.6055    1.4099    0.1408 C   0  0  0  0  0  0  0  0  0  0  0  0
    0.2744    0.0028   -0.1261 C   0  0  0  0  0  0  0  0  0  0  0  0
    1.5926   -0.7773   -0.1963 C   0  0  0  0  0  0  0  0  0  0  0  0
    2.2303   -0.5596    1.0325 O   0  0  0  0  0  0  0  0  0  0  0  0
   -0.4486   -0.1306   -1.2790 O   0  0  0  0  0  0  0  0  0  0  0  0
   -1.7368   -0.5232   -0.9344 C   0  0  0  0  0  0  0  0  0  0  0  0
   -1.7732   -0.1889    0.5414 C   0  0  0  0  0  0  0  0  0  0  0  0
   -0.4813   -0.5231    0.9232 O   0  0  0  0  0  0  0  0  0  0  0  0
    1.1571    3.5747    0.5744 H   0  0  0  0  0  0  0  0  0  0  0  0
    2.1803   -0.3967   -1.0509 H   0  0  0  0  0  0  0  0  0  0  0  0
    1.3492   -1.8561   -0.3052 H   0  0  0  0  0  0  0  0  0  0  0  0
    2.9783   -1.2243    1.1076 H   0  0  0  0  0  0  0  0  0  0  0  0
   -2.4895    0.1108   -1.4489 H   0  0  0  0  0  0  0  0  0  0  0  0
   -1.9064   -1.6011   -1.0832 H   0  0  0  0  0  0  0  0  0  0  0  0
   -2.5441   -0.7818    1.0677 H   0  0  0  0  0  0  0  0  0  0  0  0
   -1.8879    0.8954    0.6733 H   0  0  0  0  0  0  0  0  0  0  0  0
  1  2  3  0
  2  3  1  0
  3  4  1  0
  4  5  1  0
  3  6  1  0
  6  7  1  0
  7  8  1  0
  8  9  1  0
  9  3  1  0
  1 10  1  0
  4 11  1  0
  4 12  1  0
  5 13  1  0
  7 14  1  0
  7 15  1  0
  8 16  1  0
  8 17  1  0
M  END
