
     RDKit          3D

 19 20  0  0  0  0  0  0  0  0999 V2000
   -2.3184   -2.3774   -1.2661 C   0  0  0  0  0  0  0  0  0  0  0  0
   -1.7029   -1.6025   -0.5807 C   0  0  0  0  0  0  0  0  0  0  0  0
   -0.9514   -0.6624    0.2839 C   0  0  0  0  0  0  0  0  0  0  0  0
   -0.6324    0.7133   -0.3427 C   0  0  0  0  0  0  0  0  0  0  0  0
   -0.9127    1.9085    0.5317 C   0  0  0  0  0  0  0  0  0  0  0  0
    0.4074   -0.2573   -0.0541 C   0  0  0  0  0  0  0  0  0  0  0  0
    1.5239   -0.0922    0.8846 C   0  0  0  0  0  0  0  0  0  0  0  0
    2.3095   -0.2798   -0.4178 C   0  0  0  0  0  0  0  0  0  0  0  0
    1.1726   -0.8216   -1.0368 O   0  0  0  0  0  0  0  0  0  0  0  0
   -2.8608   -3.0696   -1.8541 H   0  0  0  0  0  0  0  0  0  0  0  0
   -1.2649   -0.6602    1.3410 H   0  0  0  0  0  0  0  0  0  0  0  0
   -0.9812    0.8452   -1.3913 H   0  0  0  0  0  0  0  0  0  0  0  0
   -0.8150    1.7037    1.6021 H   0  0  0  0  0  0  0  0  0  0  0  0
   -0.2360    2.7683    0.2799 H   0  0  0  0  0  0  0  0  0  0  0  0
   -1.9378    2.2696    0.3007 H   0  0  0  0  0  0  0  0  0  0  0  0
    1.6836    0.8870    1.3547 H   0  0  0  0  0  0  0  0  0  0  0  0
    1.7689   -0.9574    1.5526 H   0  0  0  0  0  0  0  0  0  0  0  0
    2.6254    0.7000   -0.8263 H   0  0  0  0  0  0  0  0  0  0  0  0
    3.1224   -1.0152   -0.3614 H   0  0  0  0  0  0  0  0  0  0  0  0
  1  2  3  0
  2  3  1  0
  3  4  1  0
  4  5  1  0
  4  6  1  0
  6  7  1  0
  7  8  1  0
  8  9  1  0
  6  3  1  0
  9  6  1  0
  1 10  1  0
  3 11  1  0
  4 12  1  0
  5 13  1  0
  5 14  1  0
  5 15  1  0
  7 16  1  0
  7 17  1  0
  8 18  1  0
  8 19  1  0
M  END
