
     RDKit          3D

 21 20  0  0  0  0  0  0  0  0999 V2000
    0.3870    2.9190    0.8225 C   0  0  0  0  0  0  0  0  0  0  0  0
    0.4813    1.8366    0.2976 C   0  0  0  0  0  0  0  0  0  0  0  0
    0.6224    0.5121   -0.3497 C   0  0  0  0  0  0  0  0  0  0  0  0
    2.0004    0.0147   -0.0043 C   0  0  0  0  0  0  0  0  0  0  0  0
    2.2732   -1.2185   -0.5441 O   0  0  0  0  0  0  0  0  0  0  0  0
   -0.4650   -0.3646    0.2323 C   0  0  0  0  0  0  0  0  0  0  0  0
   -0.4242   -1.7576   -0.3564 C   0  0  0  0  0  0  0  0  0  0  0  0
   -1.8027    0.2628   -0.0156 C   0  0  0  0  0  0  0  0  0  0  0  0
   -2.8115   -0.5409    0.5191 O   0  0  0  0  0  0  0  0  0  0  0  0
    0.2906    3.8790    1.2754 H   0  0  0  0  0  0  0  0  0  0  0  0
    0.4923    0.6904   -1.4271 H   0  0  0  0  0  0  0  0  0  0  0  0
    2.0910    0.0085    1.0995 H   0  0  0  0  0  0  0  0  0  0  0  0
    2.7290    0.7475   -0.3922 H   0  0  0  0  0  0  0  0  0  0  0  0
    3.2479   -1.3917   -0.5202 H   0  0  0  0  0  0  0  0  0  0  0  0
   -0.2455   -0.4662    1.3208 H   0  0  0  0  0  0  0  0  0  0  0  0
   -0.3469   -1.7414   -1.4653 H   0  0  0  0  0  0  0  0  0  0  0  0
    0.3574   -2.3839    0.1167 H   0  0  0  0  0  0  0  0  0  0  0  0
   -1.4149   -2.2278   -0.0845 H   0  0  0  0  0  0  0  0  0  0  0  0
   -1.9584    0.3190   -1.1114 H   0  0  0  0  0  0  0  0  0  0  0  0
   -1.8062    1.2580    0.4775 H   0  0  0  0  0  0  0  0  0  0  0  0
   -3.6973   -0.3550    0.1094 H   0  0  0  0  0  0  0  0  0  0  0  0
  1  2  3  0
  2  3  1  0
  3  4  1  0
  4  5  1  0
  3  6  1  0
  6  7  1  0
  6  8  1  0
  8  9  1  0
  1 10  1  0
  3 11  1  0
  4 12  1  0
  4 13  1  0
  5 14  1  0
  6 15  1  0
  7 16  1  0
  7 17  1  0
  7 18  1  0
  8 19  1  0
  8 20  1  0
  9 21  1  0
M  END
