
     RDKit          3D

 19 18  0  0  0  0  0  0  0  0999 V2000
    0.2059    2.9285    0.1544 C   0  0  0  0  0  0  0  0  0  0  0  0
   -0.4149    1.9091    0.3027 C   0  0  0  0  0  0  0  0  0  0  0  0
   -1.1593    0.7047    0.5020 C   0  0  0  0  0  0  0  0  0  0  0  0
   -1.9870    0.2023   -0.6026 C   0  0  0  0  0  0  0  0  0  0  0  0
   -2.6605   -0.9956   -0.2059 O   0  0  0  0  0  0  0  0  0  0  0  0
   -0.3591   -0.3676    1.1982 C   0  0  0  0  0  0  0  0  0  0  0  0
    0.8228   -0.6952    0.5638 C   0  0  0  0  0  0  0  0  0  0  0  0
    1.9540   -1.0320   -0.0405 C   0  0  0  0  0  0  0  0  0  0  0  0
    3.1111   -1.3529   -0.6547 C   0  0  0  0  0  0  0  0  0  0  0  0
    0.7569    3.8346    0.0409 H   0  0  0  0  0  0  0  0  0  0  0  0
   -1.9618    1.0468    1.3246 H   0  0  0  0  0  0  0  0  0  0  0  0
   -1.4261   -0.0784   -1.4915 H   0  0  0  0  0  0  0  0  0  0  0  0
   -2.8329    0.8959   -0.9209 H   0  0  0  0  0  0  0  0  0  0  0  0
   -3.3077   -1.1711   -0.9798 H   0  0  0  0  0  0  0  0  0  0  0  0
   -0.2296   -0.1131    2.2724 H   0  0  0  0  0  0  0  0  0  0  0  0
   -1.0724   -1.3224    1.1826 H   0  0  0  0  0  0  0  0  0  0  0  0
    3.7884   -0.4517   -0.8360 H   0  0  0  0  0  0  0  0  0  0  0  0
    3.7609   -2.1362   -0.0965 H   0  0  0  0  0  0  0  0  0  0  0  0
    3.0112   -1.8056   -1.7132 H   0  0  0  0  0  0  0  0  0  0  0  0
  1  2  3  0
  2  3  1  0
  3  4  1  0
  4  5  1  0
  3  6  1  0
  6  7  1  0
  7  8  3  0
  8  9  1  0
  1 10  1  0
  3 11  1  0
  4 12  1  0
  4 13  1  0
  5 14  1  0
  6 15  1  0
  6 16  1  0
  9 17  1  0
  9 18  1  0
  9 19  1  0
M  END
