
     RDKit          3D

 19 18  0  0  0  0  0  0  0  0999 V2000
    2.9403    1.1854    1.8103 C   0  0  0  0  0  0  0  0  0  0  0  0
    2.2072    0.3603    1.2789 C   0  0  0  0  0  0  0  0  0  0  0  0
    1.3433   -0.6055    0.6399 C   0  0  0  0  0  0  0  0  0  0  0  0
    0.3873    0.1802   -0.2330 C   0  0  0  0  0  0  0  0  0  0  0  0
   -0.3498    1.0802    0.3002 C   0  0  0  0  0  0  0  0  0  0  0  0
   -1.2025    2.1140    0.8866 C   0  0  0  0  0  0  0  0  0  0  0  0
   -0.5310   -0.9973   -0.7717 C   0  0  0  0  0  0  0  0  0  0  0  0
   -1.5332   -0.4658   -1.7428 C   0  0  0  0  0  0  0  0  0  0  0  0
   -1.2635   -1.3436    0.4089 O   0  0  0  0  0  0  0  0  0  0  0  0
    3.6034    1.9049    2.2891 H   0  0  0  0  0  0  0  0  0  0  0  0
    0.8491   -1.2838    1.3509 H   0  0  0  0  0  0  0  0  0  0  0  0
    1.9138   -1.2684   -0.0921 H   0  0  0  0  0  0  0  0  0  0  0  0
    1.0030    0.4975   -1.1550 H   0  0  0  0  0  0  0  0  0  0  0  0
   -1.6921    2.6926    1.2285 H   0  0  0  0  0  0  0  0  0  0  0  0
    0.0316   -1.8390   -1.1020 H   0  0  0  0  0  0  0  0  0  0  0  0
   -1.1134    0.2650   -2.4331 H   0  0  0  0  0  0  0  0  0  0  0  0
   -2.3990   -0.0427   -1.1963 H   0  0  0  0  0  0  0  0  0  0  0  0
   -1.9710   -1.2979   -2.3916 H   0  0  0  0  0  0  0  0  0  0  0  0
   -2.2235   -1.1361    0.2672 H   0  0  0  0  0  0  0  0  0  0  0  0
  1  2  3  0
  2  3  1  0
  3  4  1  0
  4  5  1  0
  5  6  3  0
  4  7  1  0
  7  8  1  0
  7  9  1  0
  1 10  1  0
  3 11  1  0
  3 12  1  0
  4 13  1  0
  6 14  1  0
  7 15  1  0
  8 16  1  0
  8 17  1  0
  8 18  1  0
  9 19  1  0
M  END
