
     RDKit          3D

 17 17  0  0  0  0  0  0  0  0999 V2000
    4.2520    0.6496   -0.7062 C   0  0  0  0  0  0  0  0  0  0  0  0
    3.0522    0.7836   -0.5789 C   0  0  0  0  0  0  0  0  0  0  0  0
    1.6043    0.9204   -0.4263 C   0  0  0  0  0  0  0  0  0  0  0  0
    1.3000    1.0906    1.0212 O   0  0  0  0  0  0  0  0  0  0  0  0
    0.8052    0.0116    0.2632 C   0  0  0  0  0  0  0  0  0  0  0  0
   -0.6725    0.0640    0.1149 C   0  0  0  0  0  0  0  0  0  0  0  0
   -1.2200    1.0936   -0.1942 O   0  0  0  0  0  0  0  0  0  0  0  0
   -1.4764   -1.1564    0.3485 C   0  0  0  0  0  0  0  0  0  0  0  0
   -2.9278   -0.8322    0.1311 C   0  0  0  0  0  0  0  0  0  0  0  0
    5.2986    0.5433   -0.8324 H   0  0  0  0  0  0  0  0  0  0  0  0
    1.1596    1.7810   -1.0037 H   0  0  0  0  0  0  0  0  0  0  0  0
    1.2116   -0.9927    0.5517 H   0  0  0  0  0  0  0  0  0  0  0  0
   -1.1740   -1.9824   -0.3456 H   0  0  0  0  0  0  0  0  0  0  0  0
   -1.2967   -1.5457    1.3890 H   0  0  0  0  0  0  0  0  0  0  0  0
   -3.0679    0.2591    0.1841 H   0  0  0  0  0  0  0  0  0  0  0  0
   -3.2779   -1.2647   -0.8316 H   0  0  0  0  0  0  0  0  0  0  0  0
   -3.5705   -1.3088    0.9150 H   0  0  0  0  0  0  0  0  0  0  0  0
  1  2  3  0
  2  3  1  0
  3  4  1  0
  4  5  1  0
  5  6  1  0
  6  7  2  0
  6  8  1  0
  8  9  1  0
  5  3  1  0
  1 10  1  0
  3 11  1  0
  5 12  1  0
  8 13  1  0
  8 14  1  0
  9 15  1  0
  9 16  1  0
  9 17  1  0
M  END
