
     RDKit          3D

 17 18  0  0  0  0  0  0  0  0999 V2000
    1.0019   -3.3653    0.5849 C   0  0  0  0  0  0  0  0  0  0  0  0
    0.8139   -2.2274    0.4928 C   0  0  0  0  0  0  0  0  0  0  0  0
    0.6025   -0.8024    0.3837 C   0  0  0  0  0  0  0  0  0  0  0  0
   -0.3980   -0.1525   -0.0822 C   0  0  0  0  0  0  0  0  0  0  0  0
   -1.7214    0.2713   -0.6956 C   0  0  0  0  0  0  0  0  0  0  0  0
   -0.9519    1.5395   -1.1571 C   0  0  0  0  0  0  0  0  0  0  0  0
   -0.0882    1.3292    0.0286 C   0  0  0  0  0  0  0  0  0  0  0  0
    1.3154    1.2380   -0.1618 O   0  0  0  0  0  0  0  0  0  0  0  0
    1.5648    0.2668    0.8445 C   0  0  0  0  0  0  0  0  0  0  0  0
    1.1650   -4.4485    0.6810 H   0  0  0  0  0  0  0  0  0  0  0  0
   -2.4695    0.4572    0.0773 H   0  0  0  0  0  0  0  0  0  0  0  0
   -2.0898   -0.3319   -1.5099 H   0  0  0  0  0  0  0  0  0  0  0  0
   -1.6539    2.3891   -1.0104 H   0  0  0  0  0  0  0  0  0  0  0  0
   -0.5083    1.4129   -2.1485 H   0  0  0  0  0  0  0  0  0  0  0  0
   -0.3366    1.7542    0.9884 H   0  0  0  0  0  0  0  0  0  0  0  0
    2.5818   -0.0656    0.9155 H   0  0  0  0  0  0  0  0  0  0  0  0
    1.1724    0.7356    1.7686 H   0  0  0  0  0  0  0  0  0  0  0  0
  1  2  3  0
  2  3  1  0
  3  4  2  0
  4  5  1  0
  5  6  1  0
  6  7  1  0
  7  8  1  0
  8  9  1  0
  9  3  1  0
  7  4  1  0
  1 10  1  0
  5 11  1  0
  5 12  1  0
  6 13  1  0
  6 14  1  0
  7 15  1  0
  9 16  1  0
  9 17  1  0
M  END
