
     RDKit          3D

 15 16  0  0  0  0  0  0  0  0999 V2000
    2.5309    1.6173    1.0137 C   0  0  0  0  0  0  0  0  0  0  0  0
    1.5333    1.0608    0.6372 C   0  0  0  0  0  0  0  0  0  0  0  0
    0.3510    0.3755    0.1758 C   0  0  0  0  0  0  0  0  0  0  0  0
   -0.2111   -0.7622    0.9530 C   0  0  0  0  0  0  0  0  0  0  0  0
   -1.3226   -1.1068   -0.0671 C   0  0  0  0  0  0  0  0  0  0  0  0
   -0.6733   -0.3923   -1.2465 C   0  0  0  0  0  0  0  0  0  0  0  0
    0.7387   -0.4673   -1.0000 O   0  0  0  0  0  0  0  0  0  0  0  0
   -0.5497    0.9444   -0.7678 C   0  0  0  0  0  0  0  0  0  0  0  0
   -1.0353    2.1159   -1.0665 O   0  0  0  0  0  0  0  0  0  0  0  0
    3.3845    2.0874    1.3170 H   0  0  0  0  0  0  0  0  0  0  0  0
   -0.5815   -0.5208    1.9288 H   0  0  0  0  0  0  0  0  0  0  0  0
    0.5472   -1.6030    0.9109 H   0  0  0  0  0  0  0  0  0  0  0  0
   -2.2439   -0.5262    0.2117 H   0  0  0  0  0  0  0  0  0  0  0  0
   -1.4715   -2.1661   -0.1987 H   0  0  0  0  0  0  0  0  0  0  0  0
   -0.9969   -0.6564   -2.2277 H   0  0  0  0  0  0  0  0  0  0  0  0
  1  2  3  0
  2  3  1  0
  3  4  1  0
  4  5  1  0
  5  6  1  0
  6  7  1  0
  6  8  1  0
  8  9  2  0
  7  3  1  0
  8  3  1  0
  1 10  1  0
  4 11  1  0
  4 12  1  0
  5 13  1  0
  5 14  1  0
  6 15  1  0
M  END
