
     RDKit          3D

 17 17  0  0  0  0  0  0  0  0999 V2000
   -2.2210    2.4391   -0.1484 C   0  0  0  0  0  0  0  0  0  0  0  0
   -1.6432    1.4906   -0.0476 C   0  0  0  0  0  0  0  0  0  0  0  0
   -0.8546    0.2145    0.0769 C   0  0  0  0  0  0  0  0  0  0  0  0
   -1.7985   -1.1984    0.1259 C   0  0  0  0  0  0  0  0  0  0  0  0
   -2.2861   -1.9493    0.1457 C   0  0  0  0  0  0  0  0  0  0  0  0
    0.0492    0.2945    1.3370 C   0  0  0  0  0  0  0  0  0  0  0  0
    0.5423    0.1278   -0.1077 C   0  0  0  0  0  0  0  0  0  0  0  0
    1.2596   -0.9709   -0.3222 O   0  0  0  0  0  0  0  0  0  0  0  0
    2.5681   -0.6946   -0.7916 C   0  0  0  0  0  0  0  0  0  0  0  0
   -2.7839    3.3798   -0.2626 H   0  0  0  0  0  0  0  0  0  0  0  0
   -3.0080   -3.0238    0.1836 H   0  0  0  0  0  0  0  0  0  0  0  0
    0.1763   -0.5962    1.9949 H   0  0  0  0  0  0  0  0  0  0  0  0
    0.2414    1.2929    1.8004 H   0  0  0  0  0  0  0  0  0  0  0  0
    1.1094    1.1270   -0.4455 H   0  0  0  0  0  0  0  0  0  0  0  0
    3.1355   -1.6567   -0.7115 H   0  0  0  0  0  0  0  0  0  0  0  0
    2.9551    0.1675   -0.2524 H   0  0  0  0  0  0  0  0  0  0  0  0
    2.5583   -0.4437   -1.8965 H   0  0  0  0  0  0  0  0  0  0  0  0
  1  2  3  0
  2  3  1  0
  3  4  1  0
  4  5  3  0
  3  6  1  0
  6  7  1  0
  7  8  1  0
  8  9  1  0
  7  3  1  0
  1 10  1  0
  5 11  1  0
  6 12  1  0
  6 13  1  0
  7 14  1  0
  9 15  1  0
  9 16  1  0
  9 17  1  0
M  END
