
     RDKit          3D

 19 19  0  0  0  0  0  0  0  0999 V2000
   -2.0140   -0.9911   -2.0220 C   0  0  0  0  0  0  0  0  0  0  0  0
   -1.7081   -0.4410   -0.9516 C   0  0  0  0  0  0  0  0  0  0  0  0
   -1.3415    0.2189    0.3273 C   0  0  0  0  0  0  0  0  0  0  0  0
    0.0838    0.0325    0.7502 C   0  0  0  0  0  0  0  0  0  0  0  0
    0.9549    0.5911   -0.3909 C   0  0  0  0  0  0  0  0  0  0  0  0
    2.2463    0.5115    0.0155 O   0  0  0  0  0  0  0  0  0  0  0  0
    2.7258   -0.7037    0.4026 C   0  0  0  0  0  0  0  0  0  0  0  0
   -2.1859    1.2250    0.9951 C   0  0  0  0  0  0  0  0  0  0  0  0
   -2.3451   -0.1393    1.2875 O   0  0  0  0  0  0  0  0  0  0  0  0
   -2.2512   -1.4497   -2.8841 H   0  0  0  0  0  0  0  0  0  0  0  0
    0.4009    0.4292    1.6845 H   0  0  0  0  0  0  0  0  0  0  0  0
    0.3370   -1.1110    0.7217 H   0  0  0  0  0  0  0  0  0  0  0  0
    0.7358   -0.1760   -1.2217 H   0  0  0  0  0  0  0  0  0  0  0  0
    0.5878    1.5373   -0.7492 H   0  0  0  0  0  0  0  0  0  0  0  0
    3.8137   -0.5834    0.6369 H   0  0  0  0  0  0  0  0  0  0  0  0
    2.5248   -1.5336   -0.2768 H   0  0  0  0  0  0  0  0  0  0  0  0
    2.2642   -0.9581    1.4145 H   0  0  0  0  0  0  0  0  0  0  0  0
   -1.8384    1.7682    1.9214 H   0  0  0  0  0  0  0  0  0  0  0  0
   -2.9910    1.7731    0.4717 H   0  0  0  0  0  0  0  0  0  0  0  0
  1  2  3  0
  2  3  1  0
  3  4  1  0
  4  5  1  0
  5  6  1  0
  6  7  1  0
  3  8  1  0
  8  9  1  0
  9  3  1  0
  1 10  1  0
  4 11  1  0
  4 12  1  0
  5 13  1  0
  5 14  1  0
  7 15  1  0
  7 16  1  0
  7 17  1  0
  8 18  1  0
  8 19  1  0
M  END
