
     RDKit          3D

 23 22  0  0  0  0  0  0  0  0999 V2000
   -0.6542    2.9046    0.1924 C   0  0  0  0  0  0  0  0  0  0  0  0
   -0.2946    1.8176   -0.1858 C   0  0  0  0  0  0  0  0  0  0  0  0
    0.1456    0.4723   -0.6275 C   0  0  0  0  0  0  0  0  0  0  0  0
    1.4500    0.1912    0.0532 C   0  0  0  0  0  0  0  0  0  0  0  0
    2.0258   -1.1432   -0.2963 C   0  0  0  0  0  0  0  0  0  0  0  0
    3.2375   -1.2813    0.4021 O   0  0  0  0  0  0  0  0  0  0  0  0
   -0.9000   -0.5627   -0.2244 C   0  0  0  0  0  0  0  0  0  0  0  0
   -1.0631   -0.5526    1.2854 C   0  0  0  0  0  0  0  0  0  0  0  0
   -2.2107   -0.2513   -0.9101 C   0  0  0  0  0  0  0  0  0  0  0  0
   -0.9811    3.8515    0.5360 H   0  0  0  0  0  0  0  0  0  0  0  0
    0.2211    0.4947   -1.7219 H   0  0  0  0  0  0  0  0  0  0  0  0
    2.1347    1.0339   -0.1494 H   0  0  0  0  0  0  0  0  0  0  0  0
    1.2520    0.2328    1.1635 H   0  0  0  0  0  0  0  0  0  0  0  0
    1.3466   -1.9314    0.0616 H   0  0  0  0  0  0  0  0  0  0  0  0
    2.2240   -1.2188   -1.3661 H   0  0  0  0  0  0  0  0  0  0  0  0
    3.5570   -0.3829    0.7372 H   0  0  0  0  0  0  0  0  0  0  0  0
   -0.5536   -1.5376   -0.5666 H   0  0  0  0  0  0  0  0  0  0  0  0
   -0.9423    0.4834    1.6205 H   0  0  0  0  0  0  0  0  0  0  0  0
   -0.3374   -1.2570    1.6997 H   0  0  0  0  0  0  0  0  0  0  0  0
   -2.0898   -0.9043    1.5743 H   0  0  0  0  0  0  0  0  0  0  0  0
   -2.9755   -0.0517   -0.1218 H   0  0  0  0  0  0  0  0  0  0  0  0
   -2.0845    0.6570   -1.5689 H   0  0  0  0  0  0  0  0  0  0  0  0
   -2.5073   -1.0643   -1.5871 H   0  0  0  0  0  0  0  0  0  0  0  0
  1  2  3  0
  2  3  1  0
  3  4  1  0
  4  5  1  0
  5  6  1  0
  3  7  1  0
  7  8  1  0
  7  9  1  0
  1 10  1  0
  3 11  1  0
  4 12  1  0
  4 13  1  0
  5 14  1  0
  5 15  1  0
  6 16  1  0
  7 17  1  0
  8 18  1  0
  8 19  1  0
  8 20  1  0
  9 21  1  0
  9 22  1  0
  9 23  1  0
M  END
