
     RDKit          3D

 15 15  0  0  0  0  0  0  0  0999 V2000
    3.9832    1.0581    0.0998 C   0  0  0  0  0  0  0  0  0  0  0  0
    2.5714    0.3443    0.0890 C   0  0  0  0  0  0  0  0  0  0  0  0
    1.2626   -0.2988    0.0782 C   0  0  0  0  0  0  0  0  0  0  0  0
    0.3670   -0.7527    0.0744 C   0  0  0  0  0  0  0  0  0  0  0  0
   -0.6973   -1.3012    0.0885 C   0  0  0  0  0  0  0  0  0  0  0  0
   -1.3081   -2.4199    0.1178 O   0  0  0  0  0  0  0  0  0  0  0  0
   -1.7179   -0.0333   -0.5977 C   0  0  0  0  0  0  0  0  0  0  0  0
   -1.4244    1.2595    0.1126 C   0  0  0  0  0  0  0  0  0  0  0  0
   -0.5501    1.0006   -0.9238 O   0  0  0  0  0  0  0  0  0  0  0  0
    5.1120    1.6331    0.0919 H   0  0  0  0  0  0  0  0  0  0  0  0
   -1.2142   -0.8181    1.2645 H   0  0  0  0  0  0  0  0  0  0  0  0
   -1.1871   -2.8815    1.0502 H   0  0  0  0  0  0  0  0  0  0  0  0
   -2.1359   -0.1963   -1.4952 H   0  0  0  0  0  0  0  0  0  0  0  0
   -1.0107    1.2250    1.1347 H   0  0  0  0  0  0  0  0  0  0  0  0
   -2.0505    2.1810   -0.1481 H   0  0  0  0  0  0  0  0  0  0  0  0
  1  2  3  0
  2  3  1  0
  3  4  3  0
  4  5  1  0
  5  6  1  0
  5  7  1  0
  7  8  1  0
  8  9  1  0
  9  7  1  0
  1 10  1  0
  5 11  1  0
  6 12  1  0
  7 13  1  0
  8 14  1  0
  8 15  1  0
M  END
