
     RDKit          3D

 15 15  0  0  0  0  0  0  0  0999 V2000
   -2.8105    1.3062   -0.3634 C   0  0  0  0  0  0  0  0  0  0  0  0
   -1.6319    1.2501   -0.4695 C   0  0  0  0  0  0  0  0  0  0  0  0
   -0.1818    1.1641   -0.5841 C   0  0  0  0  0  0  0  0  0  0  0  0
    0.5001    0.7265    0.7213 C   0  0  0  0  0  0  0  0  0  0  0  0
    0.1386   -0.6810    0.2448 C   0  0  0  0  0  0  0  0  0  0  0  0
    1.1600   -1.6595    0.5051 C   0  0  0  0  0  0  0  0  0  0  0  0
    2.0774   -2.5076    0.7361 C   0  0  0  0  0  0  0  0  0  0  0  0
    0.2707   -0.1236   -1.1661 C   0  0  0  0  0  0  0  0  0  0  0  0
    0.6130   -0.6659   -2.1804 O   0  0  0  0  0  0  0  0  0  0  0  0
   -3.8950    1.3560   -0.2707 H   0  0  0  0  0  0  0  0  0  0  0  0
    0.2838    2.0825   -0.9417 H   0  0  0  0  0  0  0  0  0  0  0  0
   -0.0296    1.0261    1.6395 H   0  0  0  0  0  0  0  0  0  0  0  0
    1.5835    0.8661    0.7388 H   0  0  0  0  0  0  0  0  0  0  0  0
   -0.8937   -0.9733    0.4758 H   0  0  0  0  0  0  0  0  0  0  0  0
    2.8155   -3.1669    0.9143 H   0  0  0  0  0  0  0  0  0  0  0  0
  1  2  3  0
  2  3  1  0
  3  4  1  0
  4  5  1  0
  5  6  1  0
  6  7  3  0
  5  8  1  0
  8  9  2  0
  8  3  1  0
  1 10  1  0
  3 11  1  0
  4 12  1  0
  4 13  1  0
  5 14  1  0
  7 15  1  0
M  END
