
     RDKit          3D

 15 15  0  0  0  0  0  0  0  0999 V2000
    2.5777   -0.0725   -1.5155 C   0  0  0  0  0  0  0  0  0  0  0  0
    1.6213   -0.1516   -0.7818 C   0  0  0  0  0  0  0  0  0  0  0  0
    0.4575   -0.2717    0.1027 C   0  0  0  0  0  0  0  0  0  0  0  0
    0.7929   -1.1806    1.0944 O   0  0  0  0  0  0  0  0  0  0  0  0
   -0.7730   -0.7119   -0.5995 C   0  0  0  0  0  0  0  0  0  0  0  0
   -1.8638   -0.0427    0.1476 C   0  0  0  0  0  0  0  0  0  0  0  0
   -1.3609    0.9622    0.8575 C   0  0  0  0  0  0  0  0  0  0  0  0
    0.0744    1.0484    0.6511 C   0  0  0  0  0  0  0  0  0  0  0  0
    0.7708    2.0513    0.9039 O   0  0  0  0  0  0  0  0  0  0  0  0
    3.4272    0.0166   -2.1689 H   0  0  0  0  0  0  0  0  0  0  0  0
    0.8301   -0.8040    1.9878 H   0  0  0  0  0  0  0  0  0  0  0  0
   -0.7925   -0.2800   -1.6318 H   0  0  0  0  0  0  0  0  0  0  0  0
   -0.9024   -1.8127   -0.6314 H   0  0  0  0  0  0  0  0  0  0  0  0
   -2.8960   -0.3709    0.0828 H   0  0  0  0  0  0  0  0  0  0  0  0
   -1.9632    1.6203    1.5012 H   0  0  0  0  0  0  0  0  0  0  0  0
  1  2  3  0
  2  3  1  0
  3  4  1  0
  3  5  1  0
  5  6  1  0
  6  7  2  0
  7  8  1  0
  8  9  2  0
  8  3  1  0
  1 10  1  0
  4 11  1  0
  5 12  1  0
  5 13  1  0
  6 14  1  0
  7 15  1  0
M  END
