
     RDKit          3D

 21 20  0  0  0  0  0  0  0  0999 V2000
   -1.5723    2.2158    1.7352 C   0  0  0  0  0  0  0  0  0  0  0  0
   -1.7382    1.1589    0.9788 C   0  0  0  0  0  0  0  0  0  0  0  0
   -1.8866    0.1933    0.2765 C   0  0  0  0  0  0  0  0  0  0  0  0
   -3.1915   -0.3361   -0.3442 C   0  0  0  0  0  0  0  0  0  0  0  0
   -0.9877    0.2194   -1.1597 C   0  0  0  0  0  0  0  0  0  0  0  0
    0.2929    0.0077   -0.9774 C   0  0  0  0  0  0  0  0  0  0  0  0
    1.6863   -0.2198   -0.7770 C   0  0  0  0  0  0  0  0  0  0  0  0
    3.0471   -0.4592   -0.5812 C   0  0  0  0  0  0  0  0  0  0  0  0
    3.2445   -0.9851    0.8003 C   0  0  0  0  0  0  0  0  0  0  0  0
   -1.4319    3.1550    2.4006 H   0  0  0  0  0  0  0  0  0  0  0  0
   -1.3964   -0.7786    0.7686 H   0  0  0  0  0  0  0  0  0  0  0  0
   -2.9905   -0.9506   -1.2864 H   0  0  0  0  0  0  0  0  0  0  0  0
   -3.9624    0.3743   -0.4258 H   0  0  0  0  0  0  0  0  0  0  0  0
   -3.3719   -1.1990    0.4206 H   0  0  0  0  0  0  0  0  0  0  0  0
   -1.4726   -0.0368   -1.9950 H   0  0  0  0  0  0  0  0  0  0  0  0
   -0.9893    1.5129   -1.2747 H   0  0  0  0  0  0  0  0  0  0  0  0
    3.3565   -1.1117   -1.4367 H   0  0  0  0  0  0  0  0  0  0  0  0
    3.6925    0.4966   -0.7529 H   0  0  0  0  0  0  0  0  0  0  0  0
    4.0510   -0.5069    1.3988 H   0  0  0  0  0  0  0  0  0  0  0  0
    3.3070   -2.0975    0.8134 H   0  0  0  0  0  0  0  0  0  0  0  0
    2.3136   -0.6524    1.4185 H   0  0  0  0  0  0  0  0  0  0  0  0
  1  2  3  0
  2  3  1  0
  3  4  1  0
  3  5  1  0
  5  6  1  0
  6  7  3  0
  7  8  1  0
  8  9  1  0
  1 10  1  0
  3 11  1  0
  4 12  1  0
  4 13  1  0
  4 14  1  0
  5 15  1  0
  5 16  1  0
  8 17  1  0
  8 18  1  0
  9 19  1  0
  9 20  1  0
  9 21  1  0
M  END
