
     RDKit          3D

 17 17  0  0  0  0  0  0  0  0999 V2000
    3.1529    0.1663   -1.9421 C   0  0  0  0  0  0  0  0  0  0  0  0
    2.4373   -0.2602   -1.0355 C   0  0  0  0  0  0  0  0  0  0  0  0
    1.5886   -0.7712    0.0323 C   0  0  0  0  0  0  0  0  0  0  0  0
    0.1454   -0.6389   -0.2454 C   0  0  0  0  0  0  0  0  0  0  0  0
   -0.3146   -1.1289   -1.2549 O   0  0  0  0  0  0  0  0  0  0  0  0
   -0.7772    0.0727    0.6705 C   0  0  0  0  0  0  0  0  0  0  0  0
   -0.1548    0.6131    1.7850 O   0  0  0  0  0  0  0  0  0  0  0  0
   -1.8231    0.9002   -0.0599 C   0  0  0  0  0  0  0  0  0  0  0  0
   -2.1912   -0.3212    0.7469 C   0  0  0  0  0  0  0  0  0  0  0  0
    3.7588    0.5388   -2.7396 H   0  0  0  0  0  0  0  0  0  0  0  0
    1.8502   -0.2470    0.9982 H   0  0  0  0  0  0  0  0  0  0  0  0
    1.7822   -1.8726    0.1336 H   0  0  0  0  0  0  0  0  0  0  0  0
   -0.2634    1.5730    1.8900 H   0  0  0  0  0  0  0  0  0  0  0  0
   -1.9337    0.7605   -1.1621 H   0  0  0  0  0  0  0  0  0  0  0  0
   -1.9371    1.9070    0.3359 H   0  0  0  0  0  0  0  0  0  0  0  0
   -2.8087   -0.0699    1.6363 H   0  0  0  0  0  0  0  0  0  0  0  0
   -2.5114   -1.2217    0.2109 H   0  0  0  0  0  0  0  0  0  0  0  0
  1  2  3  0
  2  3  1  0
  3  4  1  0
  4  5  2  0
  4  6  1  0
  6  7  1  0
  6  8  1  0
  8  9  1  0
  9  6  1  0
  1 10  1  0
  3 11  1  0
  3 12  1  0
  7 13  1  0
  8 14  1  0
  8 15  1  0
  9 16  1  0
  9 17  1  0
M  END
