
     RDKit          3D

 21 20  0  0  0  0  0  0  0  0999 V2000
   -1.0904    2.5966    0.1863 C   0  0  0  0  0  0  0  0  0  0  0  0
   -0.6405    1.4893   -0.0090 C   0  0  0  0  0  0  0  0  0  0  0  0
   -0.1012    0.1672   -0.2531 C   0  0  0  0  0  0  0  0  0  0  0  0
   -1.1334   -0.8706    0.1408 C   0  0  0  0  0  0  0  0  0  0  0  0
   -2.4071   -0.7214   -0.6494 C   0  0  0  0  0  0  0  0  0  0  0  0
    1.1324   -0.0864    0.5758 C   0  0  0  0  0  0  0  0  0  0  0  0
    2.2400    0.8865    0.2936 C   0  0  0  0  0  0  0  0  0  0  0  0
    1.5698   -1.5031    0.3898 C   0  0  0  0  0  0  0  0  0  0  0  0
    1.2330   -2.3634    1.1955 O   0  0  0  0  0  0  0  0  0  0  0  0
   -1.4804    3.5822    0.3484 H   0  0  0  0  0  0  0  0  0  0  0  0
    0.1078    0.0266   -1.3316 H   0  0  0  0  0  0  0  0  0  0  0  0
   -0.6833   -1.8587   -0.0942 H   0  0  0  0  0  0  0  0  0  0  0  0
   -1.3172   -0.8073    1.2518 H   0  0  0  0  0  0  0  0  0  0  0  0
   -2.6774    0.3654   -0.7058 H   0  0  0  0  0  0  0  0  0  0  0  0
   -3.2093   -1.2432   -0.0984 H   0  0  0  0  0  0  0  0  0  0  0  0
   -2.2558   -1.1763   -1.6284 H   0  0  0  0  0  0  0  0  0  0  0  0
    0.8546    0.0344    1.6478 H   0  0  0  0  0  0  0  0  0  0  0  0
    3.2002    0.3754    0.5954 H   0  0  0  0  0  0  0  0  0  0  0  0
    2.3292    1.1303   -0.7888 H   0  0  0  0  0  0  0  0  0  0  0  0
    2.1311    1.7538    0.9398 H   0  0  0  0  0  0  0  0  0  0  0  0
    2.1979   -1.7772   -0.4748 H   0  0  0  0  0  0  0  0  0  0  0  0
  1  2  3  0
  2  3  1  0
  3  4  1  0
  4  5  1  0
  3  6  1  0
  6  7  1  0
  6  8  1  0
  8  9  2  0
  1 10  1  0
  3 11  1  0
  4 12  1  0
  4 13  1  0
  5 14  1  0
  5 15  1  0
  5 16  1  0
  6 17  1  0
  7 18  1  0
  7 19  1  0
  7 20  1  0
  8 21  1  0
M  END
