
     RDKit          3D

 19 19  0  0  0  0  0  0  0  0999 V2000
    3.1993    1.6462   -0.3146 C   0  0  0  0  0  0  0  0  0  0  0  0
    1.8664    1.1230   -0.2065 C   0  0  0  0  0  0  0  0  0  0  0  0
    0.4698    0.5593   -0.0705 C   0  0  0  0  0  0  0  0  0  0  0  0
    0.0452    0.5273    1.1200 C   0  0  0  0  0  0  0  0  0  0  0  0
   -1.3749   -0.0744    1.2399 C   0  0  0  0  0  0  0  0  0  0  0  0
   -1.8028   -0.9130    0.1126 C   0  0  0  0  0  0  0  0  0  0  0  0
   -0.6665   -1.3413   -0.7885 C   0  0  0  0  0  0  0  0  0  0  0  0
    0.4696   -1.5930    0.1752 O   0  0  0  0  0  0  0  0  0  0  0  0
   -0.1158    0.0015   -1.3418 C   0  0  0  0  0  0  0  0  0  0  0  0
    4.4486    2.1117   -0.4131 H   0  0  0  0  0  0  0  0  0  0  0  0
    0.5116    0.7383    1.9802 H   0  0  0  0  0  0  0  0  0  0  0  0
   -1.0697   -0.9094    2.0537 H   0  0  0  0  0  0  0  0  0  0  0  0
   -1.8516    0.6276    1.7846 H   0  0  0  0  0  0  0  0  0  0  0  0
   -2.5357   -0.3476   -0.4879 H   0  0  0  0  0  0  0  0  0  0  0  0
   -2.2660   -1.8195    0.5352 H   0  0  0  0  0  0  0  0  0  0  0  0
   -0.6454   -2.1566   -1.3423 H   0  0  0  0  0  0  0  0  0  0  0  0
    1.2891   -1.2813   -0.2231 H   0  0  0  0  0  0  0  0  0  0  0  0
    0.7794   -0.2922   -1.9868 H   0  0  0  0  0  0  0  0  0  0  0  0
   -0.7504    0.6457   -1.8263 H   0  0  0  0  0  0  0  0  0  0  0  0
  1  2  3  0
  2  3  1  0
  3  4  2  0
  4  5  1  0
  5  6  1  0
  6  7  1  0
  7  8  1  0
  7  9  1  0
  9  3  1  0
  1 10  1  0
  4 11  1  0
  5 12  1  0
  5 13  1  0
  6 14  1  0
  6 15  1  0
  7 16  1  0
  8 17  1  0
  9 18  1  0
  9 19  1  0
M  END
