
     RDKit          3D

 19 20  0  0  0  0  0  0  0  0999 V2000
    3.8592   -0.1660    0.2545 C   0  0  0  0  0  0  0  0  0  0  0  0
    2.7358   -0.5454    0.0228 C   0  0  0  0  0  0  0  0  0  0  0  0
    1.3436   -0.9914   -0.2503 C   0  0  0  0  0  0  0  0  0  0  0  0
    0.6168   -0.2279   -1.1788 C   0  0  0  0  0  0  0  0  0  0  0  0
    0.2504    1.0765   -1.2690 O   0  0  0  0  0  0  0  0  0  0  0  0
   -1.1068    1.0218   -0.8549 C   0  0  0  0  0  0  0  0  0  0  0  0
   -1.1872   -0.2049    0.0802 C   0  0  0  0  0  0  0  0  0  0  0  0
   -2.0252    0.1162    1.2703 C   0  0  0  0  0  0  0  0  0  0  0  0
    0.2608   -0.3408    0.3612 C   0  0  0  0  0  0  0  0  0  0  0  0
    4.8506    0.1577    0.4428 H   0  0  0  0  0  0  0  0  0  0  0  0
    1.3272   -2.1110   -0.3036 H   0  0  0  0  0  0  0  0  0  0  0  0
   -0.0412   -0.8309   -1.8771 H   0  0  0  0  0  0  0  0  0  0  0  0
   -1.2534    1.9403   -0.2499 H   0  0  0  0  0  0  0  0  0  0  0  0
   -1.7871    0.9349   -1.6965 H   0  0  0  0  0  0  0  0  0  0  0  0
   -1.5917   -1.0376   -0.5408 H   0  0  0  0  0  0  0  0  0  0  0  0
   -1.6750   -0.3486    2.2153 H   0  0  0  0  0  0  0  0  0  0  0  0
   -3.0728   -0.2302    1.1298 H   0  0  0  0  0  0  0  0  0  0  0  0
   -2.0641    1.2227    1.4619 H   0  0  0  0  0  0  0  0  0  0  0  0
    0.5600    0.5644    0.9823 H   0  0  0  0  0  0  0  0  0  0  0  0
  1  2  3  0
  2  3  1  0
  3  4  1  0
  4  5  1  0
  5  6  1  0
  6  7  1  0
  7  8  1  0
  7  9  1  0
  9  3  1  0
  9  4  1  0
  1 10  1  0
  3 11  1  0
  4 12  1  0
  6 13  1  0
  6 14  1  0
  7 15  1  0
  8 16  1  0
  8 17  1  0
  8 18  1  0
  9 19  1  0
M  END
