
     RDKit          3D

 17 18  0  0  0  0  0  0  0  0999 V2000
    3.2763    0.6423    0.7205 C   0  0  0  0  0  0  0  0  0  0  0  0
    2.3453   -0.0674    0.3677 C   0  0  0  0  0  0  0  0  0  0  0  0
    1.2383   -0.9348   -0.0380 C   0  0  0  0  0  0  0  0  0  0  0  0
    0.1271   -0.0758   -0.6575 C   0  0  0  0  0  0  0  0  0  0  0  0
   -1.0330   -0.8577   -1.0983 C   0  0  0  0  0  0  0  0  0  0  0  0
   -1.2567   -1.5861   -2.0288 O   0  0  0  0  0  0  0  0  0  0  0  0
   -1.7775   -0.3446    0.1044 C   0  0  0  0  0  0  0  0  0  0  0  0
   -2.0502    1.1091    0.1335 C   0  0  0  0  0  0  0  0  0  0  0  0
   -0.6791    0.6194    0.3888 C   0  0  0  0  0  0  0  0  0  0  0  0
    4.0821    1.2524    1.0405 H   0  0  0  0  0  0  0  0  0  0  0  0
    1.6259   -1.6150   -0.8046 H   0  0  0  0  0  0  0  0  0  0  0  0
    0.8564   -1.4647    0.8601 H   0  0  0  0  0  0  0  0  0  0  0  0
    0.5126    0.6264   -1.3991 H   0  0  0  0  0  0  0  0  0  0  0  0
   -2.1158   -1.0454    0.8623 H   0  0  0  0  0  0  0  0  0  0  0  0
   -2.5977    1.4773    1.0224 H   0  0  0  0  0  0  0  0  0  0  0  0
   -2.3347    1.5573   -0.8419 H   0  0  0  0  0  0  0  0  0  0  0  0
   -0.2195    0.7073    1.3681 H   0  0  0  0  0  0  0  0  0  0  0  0
  1  2  3  0
  2  3  1  0
  3  4  1  0
  4  5  1  0
  5  6  2  0
  5  7  1  0
  7  8  1  0
  8  9  1  0
  9  4  1  0
  9  7  1  0
  1 10  1  0
  3 11  1  0
  3 12  1  0
  4 13  1  0
  7 14  1  0
  8 15  1  0
  8 16  1  0
  9 17  1  0
M  END
