
     RDKit          3D

 21 21  0  0  0  0  0  0  0  0999 V2000
    2.7569    2.0130   -1.1494 C   0  0  0  0  0  0  0  0  0  0  0  0
    1.7404    1.4392   -0.7353 C   0  0  0  0  0  0  0  0  0  0  0  0
    0.5353    0.7798   -0.2288 C   0  0  0  0  0  0  0  0  0  0  0  0
    0.6391   -0.1433    0.8866 C   0  0  0  0  0  0  0  0  0  0  0  0
   -0.4789   -0.0985    1.9117 C   0  0  0  0  0  0  0  0  0  0  0  0
    0.5064   -1.2847   -0.0955 C   0  0  0  0  0  0  0  0  0  0  0  0
   -0.0252   -0.2885   -1.1198 C   0  0  0  0  0  0  0  0  0  0  0  0
   -1.4965   -0.3614   -1.3178 C   0  0  0  0  0  0  0  0  0  0  0  0
   -2.2906   -0.6274   -0.2513 O   0  0  0  0  0  0  0  0  0  0  0  0
    3.6648    2.5231   -1.4987 H   0  0  0  0  0  0  0  0  0  0  0  0
   -0.2503    1.6420   -0.1363 H   0  0  0  0  0  0  0  0  0  0  0  0
    1.6627   -0.1389    1.3503 H   0  0  0  0  0  0  0  0  0  0  0  0
   -1.1904    0.7015    1.6925 H   0  0  0  0  0  0  0  0  0  0  0  0
   -0.8926   -1.0999    2.0239 H   0  0  0  0  0  0  0  0  0  0  0  0
    0.0375    0.1119    2.8952 H   0  0  0  0  0  0  0  0  0  0  0  0
    1.4640   -1.7596   -0.4097 H   0  0  0  0  0  0  0  0  0  0  0  0
   -0.1974   -2.0724    0.2281 H   0  0  0  0  0  0  0  0  0  0  0  0
    0.5651   -0.3889   -2.0786 H   0  0  0  0  0  0  0  0  0  0  0  0
   -1.8457    0.6570   -1.7361 H   0  0  0  0  0  0  0  0  0  0  0  0
   -1.6614   -1.0301   -2.2134 H   0  0  0  0  0  0  0  0  0  0  0  0
   -3.2432   -0.5738   -0.5888 H   0  0  0  0  0  0  0  0  0  0  0  0
  1  2  3  0
  2  3  1  0
  3  4  1  0
  4  5  1  0
  4  6  1  0
  6  7  1  0
  7  8  1  0
  8  9  1  0
  7  3  1  0
  1 10  1  0
  3 11  1  0
  4 12  1  0
  5 13  1  0
  5 14  1  0
  5 15  1  0
  6 16  1  0
  6 17  1  0
  7 18  1  0
  8 19  1  0
  8 20  1  0
  9 21  1  0
M  END
