
     RDKit          3D

 17 18  0  0  0  0  0  0  0  0999 V2000
    2.7134    1.9197   -0.1901 C   0  0  0  0  0  0  0  0  0  0  0  0
    1.2872    1.0023    0.1595 C   0  0  0  0  0  0  0  0  0  0  0  0
    0.1383    0.2490    0.4468 C   0  0  0  0  0  0  0  0  0  0  0  0
   -0.9102    1.0532    0.4298 C   0  0  0  0  0  0  0  0  0  0  0  0
   -2.1839    0.1626    0.0470 C   0  0  0  0  0  0  0  0  0  0  0  0
   -1.5398   -1.0253   -0.0499 C   0  0  0  0  0  0  0  0  0  0  0  0
   -0.0006   -0.9248   -0.5179 C   0  0  0  0  0  0  0  0  0  0  0  0
    0.1719   -0.1110   -1.8054 O   0  0  0  0  0  0  0  0  0  0  0  0
    0.8757   -1.0462    0.6871 C   0  0  0  0  0  0  0  0  0  0  0  0
    3.8680    2.6884   -0.4636 H   0  0  0  0  0  0  0  0  0  0  0  0
   -1.3210    2.0106    0.5581 H   0  0  0  0  0  0  0  0  0  0  0  0
   -3.0160    0.8048   -0.0727 H   0  0  0  0  0  0  0  0  0  0  0  0
   -1.9021   -1.8602   -0.6520 H   0  0  0  0  0  0  0  0  0  0  0  0
   -1.5352   -1.6778    1.0026 H   0  0  0  0  0  0  0  0  0  0  0  0
    1.2166   -0.1867   -1.7836 H   0  0  0  0  0  0  0  0  0  0  0  0
    1.8370   -1.4800    0.6002 H   0  0  0  0  0  0  0  0  0  0  0  0
    0.3006   -1.5788    1.6041 H   0  0  0  0  0  0  0  0  0  0  0  0
  1  2  3  0
  2  3  1  0
  3  4  1  0
  4  5  2  0
  5  6  1  0
  6  7  1  0
  7  8  1  0
  7  9  1  0
  7  3  1  0
  9  3  1  0
  1 10  1  0
  4 11  1  0
  5 12  1  0
  6 13  1  0
  6 14  1  0
  8 15  1  0
  9 16  1  0
  9 17  1  0
M  END
