
     RDKit          3D

 17 16  0  0  0  0  0  0  0  0999 V2000
    1.6377   -3.3381    0.3440 C   0  0  0  0  0  0  0  0  0  0  0  0
    1.3758   -2.1736    0.7618 C   0  0  0  0  0  0  0  0  0  0  0  0
    1.0663   -0.8793    1.2451 C   0  0  0  0  0  0  0  0  0  0  0  0
    2.3936   -0.1484    0.8860 C   0  0  0  0  0  0  0  0  0  0  0  0
    3.4511    0.4416    0.6142 C   0  0  0  0  0  0  0  0  0  0  0  0
    0.1336   -0.0659    0.3927 C   0  0  0  0  0  0  0  0  0  0  0  0
   -0.6571    0.6453   -0.3590 C   0  0  0  0  0  0  0  0  0  0  0  0
   -1.3547    1.2795   -1.0301 C   0  0  0  0  0  0  0  0  0  0  0  0
   -2.9444    1.1827   -0.8020 C   0  0  0  0  0  0  0  0  0  0  0  0
    1.8495   -4.3529   -0.0076 H   0  0  0  0  0  0  0  0  0  0  0  0
    0.9241   -0.7830    2.3042 H   0  0  0  0  0  0  0  0  0  0  0  0
    4.3778    0.9655    0.3937 H   0  0  0  0  0  0  0  0  0  0  0  0
   -1.3319    1.1941   -2.2054 H   0  0  0  0  0  0  0  0  0  0  0  0
   -1.2722    2.5101   -0.9788 H   0  0  0  0  0  0  0  0  0  0  0  0
   -2.9764    0.8207    0.2553 H   0  0  0  0  0  0  0  0  0  0  0  0
   -3.2940    0.5094   -1.5677 H   0  0  0  0  0  0  0  0  0  0  0  0
   -3.3788    2.1922   -0.8734 H   0  0  0  0  0  0  0  0  0  0  0  0
  1  2  3  0
  2  3  1  0
  3  4  1  0
  4  5  3  0
  3  6  1  0
  6  7  3  0
  7  8  1  0
  8  9  1  0
  1 10  1  0
  3 11  1  0
  5 12  1  0
  8 13  1  0
  8 14  1  0
  9 15  1  0
  9 16  1  0
  9 17  1  0
M  END
