
     RDKit          3D

 21 21  0  0  0  0  0  0  0  0999 V2000
    2.7134   -0.6767    3.4632 C   0  0  0  0  0  0  0  0  0  0  0  0
    1.9302   -0.9770    2.6902 C   0  0  0  0  0  0  0  0  0  0  0  0
    0.8197   -1.3998    1.5922 C   0  0  0  0  0  0  0  0  0  0  0  0
    0.3990   -0.0849    1.0320 C   0  0  0  0  0  0  0  0  0  0  0  0
   -0.2919   -0.2864   -0.3137 C   0  0  0  0  0  0  0  0  0  0  0  0
   -0.8756    1.0420   -0.8184 C   0  0  0  0  0  0  0  0  0  0  0  0
   -2.2486    0.8794   -1.4821 C   0  0  0  0  0  0  0  0  0  0  0  0
    0.2920    0.3725   -1.5003 C   0  0  0  0  0  0  0  0  0  0  0  0
    0.0760   -0.1597   -2.7705 O   0  0  0  0  0  0  0  0  0  0  0  0
    3.4802   -0.3864    4.1982 H   0  0  0  0  0  0  0  0  0  0  0  0
    1.5528   -1.8183    0.8314 H   0  0  0  0  0  0  0  0  0  0  0  0
    0.1281   -2.0123    2.0735 H   0  0  0  0  0  0  0  0  0  0  0  0
    1.1971    0.6273    0.9445 H   0  0  0  0  0  0  0  0  0  0  0  0
   -0.4179    0.2340    1.7839 H   0  0  0  0  0  0  0  0  0  0  0  0
   -0.9360   -1.1479   -0.4217 H   0  0  0  0  0  0  0  0  0  0  0  0
   -0.7412    1.9458   -0.2217 H   0  0  0  0  0  0  0  0  0  0  0  0
   -2.3194    1.5641   -2.3180 H   0  0  0  0  0  0  0  0  0  0  0  0
   -3.0298    1.1653   -0.7179 H   0  0  0  0  0  0  0  0  0  0  0  0
   -2.3801   -0.2054   -1.7963 H   0  0  0  0  0  0  0  0  0  0  0  0
    1.2995    0.8755   -1.4457 H   0  0  0  0  0  0  0  0  0  0  0  0
   -0.6475    0.4488   -3.2216 H   0  0  0  0  0  0  0  0  0  0  0  0
  1  2  3  0
  2  3  1  0
  3  4  1  0
  4  5  1  0
  5  6  1  0
  6  7  1  0
  6  8  1  0
  8  9  1  0
  8  5  1  0
  1 10  1  0
  3 11  1  0
  3 12  1  0
  4 13  1  0
  4 14  1  0
  5 15  1  0
  6 16  1  0
  7 17  1  0
  7 18  1  0
  7 19  1  0
  8 20  1  0
  9 21  1  0
M  END
