
     RDKit          3D

 19 19  0  0  0  0  0  0  0  0999 V2000
    1.8102    2.0615    0.2846 C   0  0  0  0  0  0  0  0  0  0  0  0
    1.2237    1.0089    0.1696 C   0  0  0  0  0  0  0  0  0  0  0  0
    0.5303   -0.2754    0.0381 C   0  0  0  0  0  0  0  0  0  0  0  0
   -0.9807   -0.2405    0.1960 C   0  0  0  0  0  0  0  0  0  0  0  0
   -1.5777    0.6724   -0.8662 C   0  0  0  0  0  0  0  0  0  0  0  0
   -1.2984    0.3201    1.5226 C   0  0  0  0  0  0  0  0  0  0  0  0
   -2.3673    0.8801    1.7380 O   0  0  0  0  0  0  0  0  0  0  0  0
    1.0811   -1.1938   -1.0780 C   0  0  0  0  0  0  0  0  0  0  0  0
    1.2359   -1.5130    0.3871 C   0  0  0  0  0  0  0  0  0  0  0  0
    2.3415    2.9874    0.3986 H   0  0  0  0  0  0  0  0  0  0  0  0
   -1.4101   -1.2498    0.1423 H   0  0  0  0  0  0  0  0  0  0  0  0
   -1.9660    0.0929   -1.7321 H   0  0  0  0  0  0  0  0  0  0  0  0
   -2.4407    1.2144   -0.4317 H   0  0  0  0  0  0  0  0  0  0  0  0
   -0.7893    1.3664   -1.2430 H   0  0  0  0  0  0  0  0  0  0  0  0
   -0.5688    0.2329    2.3203 H   0  0  0  0  0  0  0  0  0  0  0  0
    0.3151   -1.6660   -1.6849 H   0  0  0  0  0  0  0  0  0  0  0  0
    1.9837   -0.8063   -1.6247 H   0  0  0  0  0  0  0  0  0  0  0  0
    2.2899   -1.5328    0.7336 H   0  0  0  0  0  0  0  0  0  0  0  0
    0.5874   -2.3594    0.7295 H   0  0  0  0  0  0  0  0  0  0  0  0
  1  2  3  0
  2  3  1  0
  3  4  1  0
  4  5  1  0
  4  6  1  0
  6  7  2  0
  3  8  1  0
  8  9  1  0
  9  3  1  0
  1 10  1  0
  4 11  1  0
  5 12  1  0
  5 13  1  0
  5 14  1  0
  6 15  1  0
  8 16  1  0
  8 17  1  0
  9 18  1  0
  9 19  1  0
M  END
