
     RDKit          3D

 17 18  0  0  0  0  0  0  0  0999 V2000
    3.0704    0.0141    0.0029 C   0  0  0  0  0  0  0  0  0  0  0  0
    1.9304   -0.2865    0.2795 C   0  0  0  0  0  0  0  0  0  0  0  0
    0.5475   -0.6645    0.6385 C   0  0  0  0  0  0  0  0  0  0  0  0
    0.3503   -2.0277    0.3894 O   0  0  0  0  0  0  0  0  0  0  0  0
   -0.3978    0.1206   -0.2253 C   0  0  0  0  0  0  0  0  0  0  0  0
   -0.3145    1.5993   -0.1070 C   0  0  0  0  0  0  0  0  0  0  0  0
   -1.6924    1.7622   -0.0819 O   0  0  0  0  0  0  0  0  0  0  0  0
   -1.7914    0.4514    0.3445 C   0  0  0  0  0  0  0  0  0  0  0  0
   -1.6010   -0.5747   -0.7269 C   0  0  0  0  0  0  0  0  0  0  0  0
    4.0619    0.2800   -0.2251 H   0  0  0  0  0  0  0  0  0  0  0  0
    0.4136   -0.4815    1.7123 H   0  0  0  0  0  0  0  0  0  0  0  0
    0.8081   -2.5646    1.0674 H   0  0  0  0  0  0  0  0  0  0  0  0
    0.2170    2.1438   -0.9001 H   0  0  0  0  0  0  0  0  0  0  0  0
    0.0903    1.8955    0.9051 H   0  0  0  0  0  0  0  0  0  0  0  0
   -1.8896    0.1842    1.3919 H   0  0  0  0  0  0  0  0  0  0  0  0
   -1.9447   -0.2610   -1.7428 H   0  0  0  0  0  0  0  0  0  0  0  0
   -1.8581   -1.5908   -0.4221 H   0  0  0  0  0  0  0  0  0  0  0  0
  1  2  3  0
  2  3  1  0
  3  4  1  0
  3  5  1  0
  5  6  1  0
  6  7  1  0
  7  8  1  0
  8  9  1  0
  8  5  1  0
  9  5  1  0
  1 10  1  0
  3 11  1  0
  4 12  1  0
  6 13  1  0
  6 14  1  0
  8 15  1  0
  9 16  1  0
  9 17  1  0
M  END
