
     RDKit          3D

 17 16  0  0  0  0  0  0  0  0999 V2000
   -2.5614    2.6367   -0.1049 C   0  0  0  0  0  0  0  0  0  0  0  0
   -1.7090    1.8455   -0.5049 C   0  0  0  0  0  0  0  0  0  0  0  0
   -0.6548    0.8904   -1.0020 C   0  0  0  0  0  0  0  0  0  0  0  0
   -0.0411    0.2698    0.2297 C   0  0  0  0  0  0  0  0  0  0  0  0
   -1.1260   -0.5565    1.0406 C   0  0  0  0  0  0  0  0  0  0  0  0
    1.0137   -0.4789    0.1280 C   0  0  0  0  0  0  0  0  0  0  0  0
    2.1071   -1.2689    0.0375 C   0  0  0  0  0  0  0  0  0  0  0  0
    3.2459   -2.0922   -0.0799 C   0  0  0  0  0  0  0  0  0  0  0  0
    4.3841   -1.5359    0.0829 O   0  0  0  0  0  0  0  0  0  0  0  0
   -3.2007    3.2177    0.2060 H   0  0  0  0  0  0  0  0  0  0  0  0
   -1.0616    0.1138   -1.5987 H   0  0  0  0  0  0  0  0  0  0  0  0
    0.0984    1.4992   -1.5396 H   0  0  0  0  0  0  0  0  0  0  0  0
    0.0600    1.1411    1.0336 H   0  0  0  0  0  0  0  0  0  0  0  0
   -0.6870   -0.7135    2.0240 H   0  0  0  0  0  0  0  0  0  0  0  0
   -2.0956   -0.2209    0.8947 H   0  0  0  0  0  0  0  0  0  0  0  0
   -1.0024   -1.6147    0.5672 H   0  0  0  0  0  0  0  0  0  0  0  0
    3.2306   -3.1327   -0.2928 H   0  0  0  0  0  0  0  0  0  0  0  0
  1  2  3  0
  2  3  1  0
  3  4  1  0
  4  5  1  0
  4  6  1  0
  6  7  3  0
  7  8  1  0
  8  9  2  0
  1 10  1  0
  3 11  1  0
  3 12  1  0
  4 13  1  0
  5 14  1  0
  5 15  1  0
  5 16  1  0
  8 17  1  0
M  END
