
     RDKit          3D

 18 18  0  0  0  0  0  0  0  0999 V2000
   -0.6735    2.4658   -1.4197 C   0  0  0  0  0  0  0  0  0  0  0  0
   -0.7525    1.3663   -0.8900 C   0  0  0  0  0  0  0  0  0  0  0  0
   -0.8221    0.0454   -0.2584 C   0  0  0  0  0  0  0  0  0  0  0  0
    0.3753   -0.6257   -0.1834 O   0  0  0  0  0  0  0  0  0  0  0  0
    1.3495    0.0282    0.5321 C   0  0  0  0  0  0  0  0  0  0  0  0
    2.5979   -0.8622    0.5063 C   0  0  0  0  0  0  0  0  0  0  0  0
   -1.9364   -0.2325    0.6824 C   0  0  0  0  0  0  0  0  0  0  0  0
   -2.0077   -0.8488   -0.6602 C   0  0  0  0  0  0  0  0  0  0  0  0
   -0.5943    3.4157   -1.8834 H   0  0  0  0  0  0  0  0  0  0  0  0
    1.6146    1.0207    0.1272 H   0  0  0  0  0  0  0  0  0  0  0  0
    1.0546    0.1318    1.5983 H   0  0  0  0  0  0  0  0  0  0  0  0
    2.9670   -0.8808   -0.5246 H   0  0  0  0  0  0  0  0  0  0  0  0
    2.2766   -1.8929    0.8294 H   0  0  0  0  0  0  0  0  0  0  0  0
    3.3352   -0.5381    1.2578 H   0  0  0  0  0  0  0  0  0  0  0  0
   -2.5591    0.6480    0.9416 H   0  0  0  0  0  0  0  0  0  0  0  0
   -1.7341   -0.8972    1.5385 H   0  0  0  0  0  0  0  0  0  0  0  0
   -2.6654   -0.4037   -1.4533 H   0  0  0  0  0  0  0  0  0  0  0  0
   -1.8256   -1.9399   -0.7405 H   0  0  0  0  0  0  0  0  0  0  0  0
  1  2  3  0
  2  3  1  0
  3  4  1  0
  4  5  1  0
  5  6  1  0
  3  7  1  0
  7  8  1  0
  8  3  1  0
  1  9  1  0
  5 10  1  0
  5 11  1  0
  6 12  1  0
  6 13  1  0
  6 14  1  0
  7 15  1  0
  7 16  1  0
  8 17  1  0
  8 18  1  0
M  END
