
     RDKit          3D

 15 16  0  0  0  0  0  0  0  0999 V2000
    2.2254    0.9796   -2.1215 C   0  0  0  0  0  0  0  0  0  0  0  0
    1.6906    0.2031   -1.4117 C   0  0  0  0  0  0  0  0  0  0  0  0
    1.0064   -0.7688   -0.4914 C   0  0  0  0  0  0  0  0  0  0  0  0
   -0.4034   -0.8764   -0.4719 C   0  0  0  0  0  0  0  0  0  0  0  0
   -1.3501   -0.9401    0.7121 C   0  0  0  0  0  0  0  0  0  0  0  0
   -2.0018   -1.7948    1.2301 O   0  0  0  0  0  0  0  0  0  0  0  0
   -0.9731    0.5006    0.7559 C   0  0  0  0  0  0  0  0  0  0  0  0
   -1.1986    1.0891    1.9763 O   0  0  0  0  0  0  0  0  0  0  0  0
    0.4157   -0.1183    0.6586 C   0  0  0  0  0  0  0  0  0  0  0  0
    2.7161    1.7242   -2.7845 H   0  0  0  0  0  0  0  0  0  0  0  0
    1.6117   -1.6930   -0.3853 H   0  0  0  0  0  0  0  0  0  0  0  0
   -0.9302   -0.1632   -1.1917 H   0  0  0  0  0  0  0  0  0  0  0  0
   -1.2493    1.1181   -0.1179 H   0  0  0  0  0  0  0  0  0  0  0  0
   -2.1155    1.4493    2.0413 H   0  0  0  0  0  0  0  0  0  0  0  0
    0.5561   -0.7094    1.6015 H   0  0  0  0  0  0  0  0  0  0  0  0
  1  2  3  0
  2  3  1  0
  3  4  1  0
  4  5  1  0
  5  6  2  0
  5  7  1  0
  7  8  1  0
  7  9  1  0
  9  3  1  0
  9  4  1  0
  1 10  1  0
  3 11  1  0
  4 12  1  0
  7 13  1  0
  8 14  1  0
  9 15  1  0
M  END
