
     RDKit          3D

 17 18  0  0  0  0  0  0  0  0999 V2000
   -0.4091    2.5383   -0.6239 C   0  0  0  0  0  0  0  0  0  0  0  0
   -0.3093    1.3317   -0.4304 C   0  0  0  0  0  0  0  0  0  0  0  0
   -0.1952   -0.1042   -0.1747 C   0  0  0  0  0  0  0  0  0  0  0  0
    0.0518   -0.5139    1.2772 C   0  0  0  0  0  0  0  0  0  0  0  0
    1.3195    0.0655    1.8545 C   0  0  0  0  0  0  0  0  0  0  0  0
    0.0531    0.5505    2.1923 O   0  0  0  0  0  0  0  0  0  0  0  0
    0.5516   -0.8895   -1.1773 C   0  0  0  0  0  0  0  0  0  0  0  0
   -0.9039   -1.0287   -1.0944 C   0  0  0  0  0  0  0  0  0  0  0  0
   -1.6960   -0.4251   -2.0937 O   0  0  0  0  0  0  0  0  0  0  0  0
   -0.5083    3.5952   -0.7977 H   0  0  0  0  0  0  0  0  0  0  0  0
   -0.2685   -1.5170    1.6155 H   0  0  0  0  0  0  0  0  0  0  0  0
    1.8648   -0.5157    2.5992 H   0  0  0  0  0  0  0  0  0  0  0  0
    1.9709    0.7048    1.1908 H   0  0  0  0  0  0  0  0  0  0  0  0
    1.1330   -1.8053   -0.8598 H   0  0  0  0  0  0  0  0  0  0  0  0
    0.9762   -0.4237   -2.0874 H   0  0  0  0  0  0  0  0  0  0  0  0
   -1.4081   -1.8894   -0.6347 H   0  0  0  0  0  0  0  0  0  0  0  0
   -2.2225    0.3263   -1.6946 H   0  0  0  0  0  0  0  0  0  0  0  0
  1  2  3  0
  2  3  1  0
  3  4  1  0
  4  5  1  0
  5  6  1  0
  3  7  1  0
  7  8  1  0
  8  9  1  0
  8  3  1  0
  6  4  1  0
  1 10  1  0
  4 11  1  0
  5 12  1  0
  5 13  1  0
  7 14  1  0
  7 15  1  0
  8 16  1  0
  9 17  1  0
M  END
