
     RDKit          3D

 17 19  0  0  0  0  0  0  0  0999 V2000
    2.3134    1.0211    1.6440 C   0  0  0  0  0  0  0  0  0  0  0  0
    1.4487    0.2839    1.1149 C   0  0  0  0  0  0  0  0  0  0  0  0
    0.5203   -0.5310    0.5270 C   0  0  0  0  0  0  0  0  0  0  0  0
    0.5636   -0.7140   -0.9771 C   0  0  0  0  0  0  0  0  0  0  0  0
   -0.0007    0.5634   -1.5004 C   0  0  0  0  0  0  0  0  0  0  0  0
   -1.2589    0.6262   -0.6496 C   0  0  0  0  0  0  0  0  0  0  0  0
   -1.5533   -0.8153   -0.4922 C   0  0  0  0  0  0  0  0  0  0  0  0
   -0.5473   -1.5579   -1.0939 O   0  0  0  0  0  0  0  0  0  0  0  0
   -0.8850    0.0303    0.6146 C   0  0  0  0  0  0  0  0  0  0  0  0
    3.0796    1.6492    2.1073 H   0  0  0  0  0  0  0  0  0  0  0  0
    0.4490   -1.5722    0.9892 H   0  0  0  0  0  0  0  0  0  0  0  0
    1.4726   -1.0661   -1.3853 H   0  0  0  0  0  0  0  0  0  0  0  0
    0.6428    1.4505   -1.3926 H   0  0  0  0  0  0  0  0  0  0  0  0
   -0.2660    0.3782   -2.5679 H   0  0  0  0  0  0  0  0  0  0  0  0
   -2.0141    1.3994   -0.7925 H   0  0  0  0  0  0  0  0  0  0  0  0
   -2.5365   -1.2284   -0.2911 H   0  0  0  0  0  0  0  0  0  0  0  0
   -1.4282    0.0826    1.5440 H   0  0  0  0  0  0  0  0  0  0  0  0
  1  2  3  0
  2  3  1  0
  3  4  1  0
  4  5  1  0
  5  6  1  0
  6  7  1  0
  7  8  1  0
  7  9  1  0
  9  3  1  0
  8  4  1  0
  9  6  1  0
  1 10  1  0
  3 11  1  0
  4 12  1  0
  5 13  1  0
  5 14  1  0
  6 15  1  0
  7 16  1  0
  9 17  1  0
M  END
