
     RDKit          3D

 17 17  0  0  0  0  0  0  0  0999 V2000
    3.5083   -0.3895    1.3530 C   0  0  0  0  0  0  0  0  0  0  0  0
    2.3564   -0.4104    1.0867 C   0  0  0  0  0  0  0  0  0  0  0  0
    0.9394   -0.4399    0.7332 C   0  0  0  0  0  0  0  0  0  0  0  0
    0.3341    0.9419    0.5312 C   0  0  0  0  0  0  0  0  0  0  0  0
   -0.4740    0.2709   -0.5630 C   0  0  0  0  0  0  0  0  0  0  0  0
   -1.5770   -0.4537   -0.0914 O   0  0  0  0  0  0  0  0  0  0  0  0
   -2.7177   -0.1983   -0.8479 C   0  0  0  0  0  0  0  0  0  0  0  0
    0.6709   -0.6690   -0.7110 C   0  0  0  0  0  0  0  0  0  0  0  0
    1.1330   -1.3098   -1.6312 O   0  0  0  0  0  0  0  0  0  0  0  0
    4.5586   -0.3843    1.5969 H   0  0  0  0  0  0  0  0  0  0  0  0
    0.2967   -1.0136    1.4254 H   0  0  0  0  0  0  0  0  0  0  0  0
   -0.2597    1.3067    1.3905 H   0  0  0  0  0  0  0  0  0  0  0  0
    1.0024    1.6861    0.0889 H   0  0  0  0  0  0  0  0  0  0  0  0
   -0.6908    0.9065   -1.4338 H   0  0  0  0  0  0  0  0  0  0  0  0
   -2.9082    0.8982   -0.7568 H   0  0  0  0  0  0  0  0  0  0  0  0
   -2.6061   -0.5478   -1.8735 H   0  0  0  0  0  0  0  0  0  0  0  0
   -3.5663   -0.6815   -0.2973 H   0  0  0  0  0  0  0  0  0  0  0  0
  1  2  3  0
  2  3  1  0
  3  4  1  0
  4  5  1  0
  5  6  1  0
  6  7  1  0
  5  8  1  0
  8  9  2  0
  8  3  1  0
  1 10  1  0
  3 11  1  0
  4 12  1  0
  4 13  1  0
  5 14  1  0
  7 15  1  0
  7 16  1  0
  7 17  1  0
M  END
