
     RDKit          3D

 17 17  0  0  0  0  0  0  0  0999 V2000
    2.4550   -0.4457   -1.0000 C   0  0  0  0  0  0  0  0  0  0  0  0
    1.5846    0.1296   -0.5606 C   0  0  0  0  0  0  0  0  0  0  0  0
    0.4402    0.8600   -0.0033 C   0  0  0  0  0  0  0  0  0  0  0  0
    0.7341    2.0111    0.6440 O   0  0  0  0  0  0  0  0  0  0  0  0
   -0.1156   -0.0752    1.1836 C   0  0  0  0  0  0  0  0  0  0  0  0
   -0.7194   -1.1813    0.3205 C   0  0  0  0  0  0  0  0  0  0  0  0
   -1.5739   -0.3425   -0.6235 C   0  0  0  0  0  0  0  0  0  0  0  0
   -0.7567    0.8573   -0.8202 C   0  0  0  0  0  0  0  0  0  0  0  0
   -1.0950    1.8025   -1.6460 O   0  0  0  0  0  0  0  0  0  0  0  0
    3.3438   -1.0269   -1.4264 H   0  0  0  0  0  0  0  0  0  0  0  0
    1.4122    1.8766    1.3825 H   0  0  0  0  0  0  0  0  0  0  0  0
   -0.8892    0.5193    1.6581 H   0  0  0  0  0  0  0  0  0  0  0  0
    0.6694   -0.4025    1.8203 H   0  0  0  0  0  0  0  0  0  0  0  0
    0.1162   -1.6395   -0.2964 H   0  0  0  0  0  0  0  0  0  0  0  0
   -1.2354   -1.9123    0.8921 H   0  0  0  0  0  0  0  0  0  0  0  0
   -1.8866   -0.8754   -1.5240 H   0  0  0  0  0  0  0  0  0  0  0  0
   -2.4837   -0.0560   -0.0008 H   0  0  0  0  0  0  0  0  0  0  0  0
  1  2  3  0
  2  3  1  0
  3  4  1  0
  3  5  1  0
  5  6  1  0
  6  7  1  0
  7  8  1  0
  8  9  2  0
  8  3  1  0
  1 10  1  0
  4 11  1  0
  5 12  1  0
  5 13  1  0
  6 14  1  0
  6 15  1  0
  7 16  1  0
  7 17  1  0
M  END
