
     RDKit          3D

 15 16  0  0  0  0  0  0  0  0999 V2000
    2.7686    0.3751    1.0296 C   0  0  0  0  0  0  0  0  0  0  0  0
    1.7475   -0.1180    0.6222 C   0  0  0  0  0  0  0  0  0  0  0  0
    0.5066   -0.6896    0.1282 C   0  0  0  0  0  0  0  0  0  0  0  0
   -0.2762    0.1457   -0.8357 C   0  0  0  0  0  0  0  0  0  0  0  0
   -0.5791    1.0485    0.3243 C   0  0  0  0  0  0  0  0  0  0  0  0
   -0.7332   -0.3351    0.8957 C   0  0  0  0  0  0  0  0  0  0  0  0
   -1.4801   -0.6457   -0.3738 C   0  0  0  0  0  0  0  0  0  0  0  0
    3.6732    0.8040    1.4076 H   0  0  0  0  0  0  0  0  0  0  0  0
    0.5308   -1.7687   -0.0880 H   0  0  0  0  0  0  0  0  0  0  0  0
   -0.0506    0.3974   -1.7731 H   0  0  0  0  0  0  0  0  0  0  0  0
    0.2547    1.6440    0.6906 H   0  0  0  0  0  0  0  0  0  0  0  0
   -1.5079    1.6383    0.2464 H   0  0  0  0  0  0  0  0  0  0  0  0
   -0.9796   -0.5882    1.8276 H   0  0  0  0  0  0  0  0  0  0  0  0
   -2.4515   -0.1690   -0.5040 H   0  0  0  0  0  0  0  0  0  0  0  0
   -1.4232   -1.7388   -0.5844 H   0  0  0  0  0  0  0  0  0  0  0  0
  1  2  3  0
  2  3  1  0
  3  4  1  0
  4  5  1  0
  5  6  1  0
  6  7  1  0
  6  3  1  0
  7  4  1  0
  1  8  1  0
  3  9  1  0
  4 10  1  0
  5 11  1  0
  5 12  1  0
  6 13  1  0
  7 14  1  0
  7 15  1  0
M  END
