
     RDKit          3D

 15 14  0  0  0  0  0  0  0  0999 V2000
    2.2143    1.4091   -1.1214 C   0  0  0  0  0  0  0  0  0  0  0  0
    1.6483    0.4663   -0.6201 C   0  0  0  0  0  0  0  0  0  0  0  0
    0.9771   -0.6384   -0.0045 C   0  0  0  0  0  0  0  0  0  0  0  0
    1.6250   -1.7071    0.1120 O   0  0  0  0  0  0  0  0  0  0  0  0
   -0.3988   -0.5674    0.4800 C   0  0  0  0  0  0  0  0  0  0  0  0
   -0.5084    0.4550    1.6122 C   0  0  0  0  0  0  0  0  0  0  0  0
   -0.7682   -1.7940    1.0247 O   0  0  0  0  0  0  0  0  0  0  0  0
   -1.3046   -0.1868   -0.6223 C   0  0  0  0  0  0  0  0  0  0  0  0
   -2.0409    0.1445   -1.5245 C   0  0  0  0  0  0  0  0  0  0  0  0
    2.7311    2.2473   -1.5540 H   0  0  0  0  0  0  0  0  0  0  0  0
   -0.0439    1.3961    1.2768 H   0  0  0  0  0  0  0  0  0  0  0  0
    0.0689    0.0549    2.4603 H   0  0  0  0  0  0  0  0  0  0  0  0
   -1.5529    0.5640    1.9272 H   0  0  0  0  0  0  0  0  0  0  0  0
    0.0254   -2.2904    1.3077 H   0  0  0  0  0  0  0  0  0  0  0  0
   -2.6725    0.4468   -2.3191 H   0  0  0  0  0  0  0  0  0  0  0  0
  1  2  3  0
  2  3  1  0
  3  4  2  0
  3  5  1  0
  5  6  1  0
  5  7  1  0
  5  8  1  0
  8  9  3  0
  1 10  1  0
  6 11  1  0
  6 12  1  0
  6 13  1  0
  7 14  1  0
  9 15  1  0
M  END
