
     RDKit          3D

 16 16  0  0  0  0  0  0  0  0999 V2000
   -1.3465   -2.1324    1.1645 C   0  0  0  0  0  0  0  0  0  0  0  0
   -1.2224   -1.2618    0.4069 C   0  0  0  0  0  0  0  0  0  0  0  0
   -1.0448   -0.1618   -0.5735 C   0  0  0  0  0  0  0  0  0  0  0  0
   -0.0968   -0.0315   -1.6285 C   0  0  0  0  0  0  0  0  0  0  0  0
    0.4091    0.4727   -0.3849 C   0  0  0  0  0  0  0  0  0  0  0  0
    1.4072   -0.4435    0.3589 C   0  0  0  0  0  0  0  0  0  0  0  0
    0.2439    1.7650    0.2655 C   0  0  0  0  0  0  0  0  0  0  0  0
    0.0978    2.7989    0.8032 C   0  0  0  0  0  0  0  0  0  0  0  0
   -1.4511   -2.9154    1.8316 H   0  0  0  0  0  0  0  0  0  0  0  0
   -1.8855    0.6046   -0.5092 H   0  0  0  0  0  0  0  0  0  0  0  0
    0.4393   -0.9362   -2.0488 H   0  0  0  0  0  0  0  0  0  0  0  0
   -0.3949    0.6185   -2.5091 H   0  0  0  0  0  0  0  0  0  0  0  0
    2.1688   -0.7827   -0.3772 H   0  0  0  0  0  0  0  0  0  0  0  0
    0.9080   -1.3679    0.6879 H   0  0  0  0  0  0  0  0  0  0  0  0
    1.8170    0.0539    1.2369 H   0  0  0  0  0  0  0  0  0  0  0  0
   -0.0491    3.7194    1.2758 H   0  0  0  0  0  0  0  0  0  0  0  0
  1  2  3  0
  2  3  1  0
  3  4  1  0
  4  5  1  0
  5  6  1  0
  5  7  1  0
  7  8  3  0
  5  3  1  0
  1  9  1  0
  3 10  1  0
  4 11  1  0
  4 12  1  0
  6 13  1  0
  6 14  1  0
  6 15  1  0
  8 16  1  0
M  END
