
     RDKit          3D

 20 19  0  0  0  0  0  0  0  0999 V2000
   -2.3853    1.2071   -1.1417 C   0  0  0  0  0  0  0  0  0  0  0  0
   -1.6817    0.3417   -0.6810 C   0  0  0  0  0  0  0  0  0  0  0  0
   -0.8309   -0.7131   -0.1276 C   0  0  0  0  0  0  0  0  0  0  0  0
   -1.4430   -1.2873    1.1436 C   0  0  0  0  0  0  0  0  0  0  0  0
   -0.6656   -2.2784    1.6835 O   0  0  0  0  0  0  0  0  0  0  0  0
    0.5025   -0.0459    0.2248 C   0  0  0  0  0  0  0  0  0  0  0  0
    1.1327    0.5554   -1.0145 C   0  0  0  0  0  0  0  0  0  0  0  0
    2.4471    1.2090   -0.6480 C   0  0  0  0  0  0  0  0  0  0  0  0
   -2.9980    1.9842   -1.5602 H   0  0  0  0  0  0  0  0  0  0  0  0
   -0.6890   -1.4811   -0.9027 H   0  0  0  0  0  0  0  0  0  0  0  0
   -1.6565   -0.4477    1.8272 H   0  0  0  0  0  0  0  0  0  0  0  0
   -2.4464   -1.6942    0.8242 H   0  0  0  0  0  0  0  0  0  0  0  0
   -0.8347   -2.4061    2.6328 H   0  0  0  0  0  0  0  0  0  0  0  0
    0.3612    0.7252    0.9909 H   0  0  0  0  0  0  0  0  0  0  0  0
    1.1536   -0.8451    0.6151 H   0  0  0  0  0  0  0  0  0  0  0  0
    0.4564    1.3357   -1.4337 H   0  0  0  0  0  0  0  0  0  0  0  0
    1.2556   -0.2081   -1.7996 H   0  0  0  0  0  0  0  0  0  0  0  0
    3.2762    0.4884   -0.8831 H   0  0  0  0  0  0  0  0  0  0  0  0
    2.4208    1.4160    0.4338 H   0  0  0  0  0  0  0  0  0  0  0  0
    2.6249    2.1442   -1.2381 H   0  0  0  0  0  0  0  0  0  0  0  0
  1  2  3  0
  2  3  1  0
  3  4  1  0
  4  5  1  0
  3  6  1  0
  6  7  1  0
  7  8  1  0
  1  9  1  0
  3 10  1  0
  4 11  1  0
  4 12  1  0
  5 13  1  0
  6 14  1  0
  6 15  1  0
  7 16  1  0
  7 17  1  0
  8 18  1  0
  8 19  1  0
  8 20  1  0
M  END
