
     RDKit          3D

 19 19  0  0  0  0  0  0  0  0999 V2000
    3.3320    0.1936   -0.2015 C   0  0  0  0  0  0  0  0  0  0  0  0
    2.1839    0.0887    0.1755 C   0  0  0  0  0  0  0  0  0  0  0  0
    0.8021   -0.0353    0.6559 C   0  0  0  0  0  0  0  0  0  0  0  0
    0.1939   -1.3565    0.3280 C   0  0  0  0  0  0  0  0  0  0  0  0
   -1.1641   -1.1200   -0.2633 C   0  0  0  0  0  0  0  0  0  0  0  0
   -1.4314    0.3330    0.0791 C   0  0  0  0  0  0  0  0  0  0  0  0
   -2.4008    0.9072   -0.7029 O   0  0  0  0  0  0  0  0  0  0  0  0
   -0.0542    0.9318   -0.1284 C   0  0  0  0  0  0  0  0  0  0  0  0
    0.0387    2.2290    0.3005 O   0  0  0  0  0  0  0  0  0  0  0  0
    4.3447    0.2863   -0.5200 H   0  0  0  0  0  0  0  0  0  0  0  0
    0.7538    0.1847    1.7436 H   0  0  0  0  0  0  0  0  0  0  0  0
    0.8790   -1.8901   -0.3571 H   0  0  0  0  0  0  0  0  0  0  0  0
    0.0538   -1.9618    1.2540 H   0  0  0  0  0  0  0  0  0  0  0  0
   -1.1101   -1.2581   -1.3567 H   0  0  0  0  0  0  0  0  0  0  0  0
   -1.9462   -1.7756    0.1646 H   0  0  0  0  0  0  0  0  0  0  0  0
   -1.6935    0.3664    1.1593 H   0  0  0  0  0  0  0  0  0  0  0  0
   -3.0633    0.1819   -0.9255 H   0  0  0  0  0  0  0  0  0  0  0  0
    0.1862    0.8045   -1.2134 H   0  0  0  0  0  0  0  0  0  0  0  0
    0.0955    2.8905   -0.4538 H   0  0  0  0  0  0  0  0  0  0  0  0
  1  2  3  0
  2  3  1  0
  3  4  1  0
  4  5  1  0
  5  6  1  0
  6  7  1  0
  6  8  1  0
  8  9  1  0
  8  3  1  0
  1 10  1  0
  3 11  1  0
  4 12  1  0
  4 13  1  0
  5 14  1  0
  5 15  1  0
  6 16  1  0
  7 17  1  0
  8 18  1  0
  9 19  1  0
M  END
