
     RDKit          3D

 16 17  0  0  0  0  0  0  0  0999 V2000
    2.5119   -0.3990    0.8050 C   0  0  0  0  0  0  0  0  0  0  0  0
    1.2350   -0.7700    0.0858 C   0  0  0  0  0  0  0  0  0  0  0  0
    0.2493   -1.0410   -0.4527 C   0  0  0  0  0  0  0  0  0  0  0  0
   -1.1958   -1.2945   -0.0652 C   0  0  0  0  0  0  0  0  0  0  0  0
   -1.0334   -0.0462    0.7379 C   0  0  0  0  0  0  0  0  0  0  0  0
   -0.6714    0.2467   -0.7413 C   0  0  0  0  0  0  0  0  0  0  0  0
   -0.0760    1.4216   -1.0901 C   0  0  0  0  0  0  0  0  0  0  0  0
   -1.6048   -0.6065   -1.1372 O   0  0  0  0  0  0  0  0  0  0  0  0
    3.4567   -0.1382    1.3447 H   0  0  0  0  0  0  0  0  0  0  0  0
    0.4260   -1.4173   -1.6174 H   0  0  0  0  0  0  0  0  0  0  0  0
   -1.6492   -2.1073    0.3051 H   0  0  0  0  0  0  0  0  0  0  0  0
   -1.7702    0.6465    1.0688 H   0  0  0  0  0  0  0  0  0  0  0  0
   -0.1060   -0.1519    1.4172 H   0  0  0  0  0  0  0  0  0  0  0  0
   -0.8655    2.2407   -1.2587 H   0  0  0  0  0  0  0  0  0  0  0  0
    0.4319    1.8635   -0.1485 H   0  0  0  0  0  0  0  0  0  0  0  0
    0.6616    1.5528   -1.9068 H   0  0  0  0  0  0  0  0  0  0  0  0
  1  2  3  0
  2  3  1  0
  3  4  1  0
  4  5  1  0
  5  6  1  0
  6  7  1  0
  6  8  1  0
  6  3  1  0
  8  4  1  0
  1  9  1  0
  3 10  1  0
  4 11  1  0
  5 12  1  0
  5 13  1  0
  7 14  1  0
  7 15  1  0
  7 16  1  0
M  END
