
     RDKit          3D

 15 14  0  0  0  0  0  0  0  0999 V2000
   -1.5884    2.0592    0.1887 C   0  0  0  0  0  0  0  0  0  0  0  0
   -0.7573    1.1957    0.0355 C   0  0  0  0  0  0  0  0  0  0  0  0
    0.2477    0.1411   -0.1341 C   0  0  0  0  0  0  0  0  0  0  0  0
   -0.2829   -1.1290    0.5401 C   0  0  0  0  0  0  0  0  0  0  0  0
   -1.5526   -1.5363   -0.0865 C   0  0  0  0  0  0  0  0  0  0  0  0
   -2.1114   -0.9767   -0.9911 O   0  0  0  0  0  0  0  0  0  0  0  0
    1.4355    0.5763    0.4521 O   0  0  0  0  0  0  0  0  0  0  0  0
    2.6135    0.6963   -0.2731 C   0  0  0  0  0  0  0  0  0  0  0  0
    2.5857    0.3979   -1.4948 O   0  0  0  0  0  0  0  0  0  0  0  0
   -2.3171    2.8339    0.3376 H   0  0  0  0  0  0  0  0  0  0  0  0
    0.3235   -0.0962   -1.2072 H   0  0  0  0  0  0  0  0  0  0  0  0
    0.4621   -1.9384    0.4789 H   0  0  0  0  0  0  0  0  0  0  0  0
   -0.5118   -0.8267    1.5912 H   0  0  0  0  0  0  0  0  0  0  0  0
   -2.0336   -2.4358    0.3104 H   0  0  0  0  0  0  0  0  0  0  0  0
    3.4871    1.0388    0.2522 H   0  0  0  0  0  0  0  0  0  0  0  0
  1  2  3  0
  2  3  1  0
  3  4  1  0
  4  5  1  0
  5  6  2  0
  3  7  1  0
  7  8  1  0
  8  9  2  0
  1 10  1  0
  3 11  1  0
  4 12  1  0
  4 13  1  0
  5 14  1  0
  8 15  1  0
M  END
