
     RDKit          3D

 19 18  0  0  0  0  0  0  0  0999 V2000
    0.9164   -2.6810   -1.7276 C   0  0  0  0  0  0  0  0  0  0  0  0
    0.6484   -1.4471   -1.4110 C   0  0  0  0  0  0  0  0  0  0  0  0
    0.3494   -0.1498   -1.0883 C   0  0  0  0  0  0  0  0  0  0  0  0
   -0.2051   -0.1404    0.3786 C   0  0  0  0  0  0  0  0  0  0  0  0
   -1.3269   -0.8868    0.4066 O   0  0  0  0  0  0  0  0  0  0  0  0
    0.8962   -0.9803    1.0690 C   0  0  0  0  0  0  0  0  0  0  0  0
    2.0168   -0.6155    1.0093 O   0  0  0  0  0  0  0  0  0  0  0  0
   -0.1962    1.2301    0.9522 C   0  0  0  0  0  0  0  0  0  0  0  0
   -1.0276    2.1409    0.0616 C   0  0  0  0  0  0  0  0  0  0  0  0
    1.1333   -3.7518   -1.9893 H   0  0  0  0  0  0  0  0  0  0  0  0
    1.2316    0.5334   -1.0996 H   0  0  0  0  0  0  0  0  0  0  0  0
   -0.4476    0.3383   -1.7219 H   0  0  0  0  0  0  0  0  0  0  0  0
   -1.2298   -1.7236    0.9742 H   0  0  0  0  0  0  0  0  0  0  0  0
    0.6180   -1.8927    1.6059 H   0  0  0  0  0  0  0  0  0  0  0  0
    0.8414    1.6169    1.0613 H   0  0  0  0  0  0  0  0  0  0  0  0
   -0.6614    1.1962    1.9677 H   0  0  0  0  0  0  0  0  0  0  0  0
   -1.8772    1.6446   -0.3902 H   0  0  0  0  0  0  0  0  0  0  0  0
   -0.3177    2.5530   -0.7067 H   0  0  0  0  0  0  0  0  0  0  0  0
   -1.3619    3.0156    0.6483 H   0  0  0  0  0  0  0  0  0  0  0  0
  1  2  3  0
  2  3  1  0
  3  4  1  0
  4  5  1  0
  4  6  1  0
  6  7  2  0
  4  8  1  0
  8  9  1  0
  1 10  1  0
  3 11  1  0
  3 12  1  0
  5 13  1  0
  6 14  1  0
  8 15  1  0
  8 16  1  0
  9 17  1  0
  9 18  1  0
  9 19  1  0
M  END
