
     RDKit          3D

 15 15  0  0  0  0  0  0  0  0999 V2000
    2.4278   -0.6736   -0.5541 C   0  0  0  0  0  0  0  0  0  0  0  0
    1.3591   -0.1827   -0.2945 C   0  0  0  0  0  0  0  0  0  0  0  0
    0.0852    0.4270    0.0115 C   0  0  0  0  0  0  0  0  0  0  0  0
    0.1141    1.8330   -0.4789 C   0  0  0  0  0  0  0  0  0  0  0  0
    0.4058    1.9831   -1.6645 O   0  0  0  0  0  0  0  0  0  0  0  0
   -0.9979   -0.3640   -0.6957 C   0  0  0  0  0  0  0  0  0  0  0  0
   -1.7234   -0.9299    0.3388 O   0  0  0  0  0  0  0  0  0  0  0  0
   -0.8937   -0.8495    1.4510 C   0  0  0  0  0  0  0  0  0  0  0  0
   -0.2524    0.3916    1.3455 O   0  0  0  0  0  0  0  0  0  0  0  0
    3.3788   -1.0933   -0.7934 H   0  0  0  0  0  0  0  0  0  0  0  0
   -0.1112    2.6621    0.1833 H   0  0  0  0  0  0  0  0  0  0  0  0
   -1.6279    0.3461   -1.2864 H   0  0  0  0  0  0  0  0  0  0  0  0
   -0.5974   -1.1040   -1.3893 H   0  0  0  0  0  0  0  0  0  0  0  0
   -0.0875   -1.6097    1.4454 H   0  0  0  0  0  0  0  0  0  0  0  0
   -1.4793   -0.8365    2.3815 H   0  0  0  0  0  0  0  0  0  0  0  0
  1  2  3  0
  2  3  1  0
  3  4  1  0
  4  5  2  0
  3  6  1  0
  6  7  1  0
  7  8  1  0
  8  9  1  0
  9  3  1  0
  1 10  1  0
  4 11  1  0
  6 12  1  0
  6 13  1  0
  8 14  1  0
  8 15  1  0
M  END
