
     RDKit          3D

 19 19  0  0  0  0  0  0  0  0999 V2000
    3.1259    0.5025    0.4004 C   0  0  0  0  0  0  0  0  0  0  0  0
    2.0760    0.0770   -0.0142 C   0  0  0  0  0  0  0  0  0  0  0  0
    0.7943   -0.4466   -0.5201 C   0  0  0  0  0  0  0  0  0  0  0  0
    0.3552    0.4043   -1.6458 C   0  0  0  0  0  0  0  0  0  0  0  0
   -0.9064    0.7837   -1.5490 C   0  0  0  0  0  0  0  0  0  0  0  0
   -1.4769    0.2128   -0.3093 C   0  0  0  0  0  0  0  0  0  0  0  0
   -2.2722    1.1512    0.3699 O   0  0  0  0  0  0  0  0  0  0  0  0
   -0.2952   -0.1295    0.5191 C   0  0  0  0  0  0  0  0  0  0  0  0
   -0.5015   -1.2871    1.4552 C   0  0  0  0  0  0  0  0  0  0  0  0
    4.0609    0.8776    0.7761 H   0  0  0  0  0  0  0  0  0  0  0  0
    0.8564   -1.5080   -0.7430 H   0  0  0  0  0  0  0  0  0  0  0  0
    0.9837    0.7155   -2.5008 H   0  0  0  0  0  0  0  0  0  0  0  0
   -1.4665    1.4217   -2.2624 H   0  0  0  0  0  0  0  0  0  0  0  0
   -2.0825   -0.6734   -0.6054 H   0  0  0  0  0  0  0  0  0  0  0  0
   -1.7385    1.9847    0.4406 H   0  0  0  0  0  0  0  0  0  0  0  0
   -0.0101    0.7519    1.1330 H   0  0  0  0  0  0  0  0  0  0  0  0
    0.3937   -1.9564    1.3339 H   0  0  0  0  0  0  0  0  0  0  0  0
   -0.5172   -0.9785    2.5297 H   0  0  0  0  0  0  0  0  0  0  0  0
   -1.3792   -1.9032    1.1919 H   0  0  0  0  0  0  0  0  0  0  0  0
  1  2  3  0
  2  3  1  0
  3  4  1  0
  4  5  2  0
  5  6  1  0
  6  7  1  0
  6  8  1  0
  8  9  1  0
  8  3  1  0
  1 10  1  0
  3 11  1  0
  4 12  1  0
  5 13  1  0
  6 14  1  0
  7 15  1  0
  8 16  1  0
  9 17  1  0
  9 18  1  0
  9 19  1  0
M  END
