
     RDKit          3D

 17 18  0  0  0  0  0  0  0  0999 V2000
    3.4970   -0.6115   -1.1091 C   0  0  0  0  0  0  0  0  0  0  0  0
    2.3742   -0.2003   -0.7188 C   0  0  0  0  0  0  0  0  0  0  0  0
    1.0809    0.2869   -0.2459 C   0  0  0  0  0  0  0  0  0  0  0  0
    0.7556   -0.3537    1.0486 C   0  0  0  0  0  0  0  0  0  0  0  0
   -0.4963   -0.2875    1.4720 C   0  0  0  0  0  0  0  0  0  0  0  0
   -1.5036    0.4154    0.6487 C   0  0  0  0  0  0  0  0  0  0  0  0
   -2.2819   -0.2837   -0.3995 C   0  0  0  0  0  0  0  0  0  0  0  0
   -1.0818    0.5664   -0.7688 C   0  0  0  0  0  0  0  0  0  0  0  0
    0.0730   -0.0659   -1.1446 O   0  0  0  0  0  0  0  0  0  0  0  0
    4.4121   -0.9311   -1.4146 H   0  0  0  0  0  0  0  0  0  0  0  0
    1.1102    1.3988   -0.2145 H   0  0  0  0  0  0  0  0  0  0  0  0
    1.5100   -0.8677    1.6576 H   0  0  0  0  0  0  0  0  0  0  0  0
   -0.7911   -0.7449    2.4196 H   0  0  0  0  0  0  0  0  0  0  0  0
   -1.9935    1.2501    1.1974 H   0  0  0  0  0  0  0  0  0  0  0  0
   -3.2390    0.1503   -0.6998 H   0  0  0  0  0  0  0  0  0  0  0  0
   -2.1807   -1.3815   -0.5507 H   0  0  0  0  0  0  0  0  0  0  0  0
   -1.2451    1.5966   -1.1776 H   0  0  0  0  0  0  0  0  0  0  0  0
  1  2  3  0
  2  3  1  0
  3  4  1  0
  4  5  2  0
  5  6  1  0
  6  7  1  0
  7  8  1  0
  8  9  1  0
  9  3  1  0
  8  6  1  0
  1 10  1  0
  3 11  1  0
  4 12  1  0
  5 13  1  0
  6 14  1  0
  7 15  1  0
  7 16  1  0
  8 17  1  0
M  END
