
     RDKit          3D

 17 16  0  0  0  0  0  0  0  0999 V2000
   -2.8632    3.1308   -0.6249 C   0  0  0  0  0  0  0  0  0  0  0  0
   -2.4279    1.7029    0.2575 C   0  0  0  0  0  0  0  0  0  0  0  0
   -2.1387    0.7525    0.8350 C   0  0  0  0  0  0  0  0  0  0  0  0
   -2.3040   -0.1363    1.9369 C   0  0  0  0  0  0  0  0  0  0  0  0
   -0.9944    0.3099    0.3619 C   0  0  0  0  0  0  0  0  0  0  0  0
    0.5756   -0.3001   -0.2550 C   0  0  0  0  0  0  0  0  0  0  0  0
    1.9228   -0.8267   -0.7615 C   0  0  0  0  0  0  0  0  0  0  0  0
    2.8662   -1.1819   -1.1285 C   0  0  0  0  0  0  0  0  0  0  0  0
    4.0015   -1.6263   -1.5554 C   0  0  0  0  0  0  0  0  0  0  0  0
   -3.1999    4.2301   -1.3196 H   0  0  0  0  0  0  0  0  0  0  0  0
   -1.0677    1.6299    1.6136 H   0  0  0  0  0  0  0  0  0  0  0  0
   -2.7099   -1.1904    1.5101 H   0  0  0  0  0  0  0  0  0  0  0  0
   -1.2899   -0.5975    2.3118 H   0  0  0  0  0  0  0  0  0  0  0  0
   -2.8676    0.1971    2.7977 H   0  0  0  0  0  0  0  0  0  0  0  0
    3.7118   -2.9408   -1.8197 H   0  0  0  0  0  0  0  0  0  0  0  0
    3.9380   -1.6407   -2.9182 H   0  0  0  0  0  0  0  0  0  0  0  0
    4.8474   -1.5126   -1.2418 H   0  0  0  0  0  0  0  0  0  0  0  0
  1  2  3  0
  2  3  1  0
  3  4  1  0
  3  5  1  0
  5  6  3  0
  6  7  1  0
  7  8  3  0
  8  9  1  0
  1 10  1  0
  3 11  1  0
  4 12  1  0
  4 13  1  0
  4 14  1  0
  9 15  1  0
  9 16  1  0
  9 17  1  0
M  END
