
     RDKit          3D

 19 21  0  0  0  0  0  0  0  0999 V2000
    2.1765    1.6734    1.4817 C   0  0  0  0  0  0  0  0  0  0  0  0
    1.6830    0.7289    0.9183 C   0  0  0  0  0  0  0  0  0  0  0  0
    1.1121   -0.3966    0.2288 C   0  0  0  0  0  0  0  0  0  0  0  0
    1.8345   -1.2412   -0.7081 C   0  0  0  0  0  0  0  0  0  0  0  0
    0.8920   -0.2713   -1.2958 C   0  0  0  0  0  0  0  0  0  0  0  0
   -0.3594    0.2591   -0.6894 C   0  0  0  0  0  0  0  0  0  0  0  0
   -1.5549   -0.3462   -0.3836 C   0  0  0  0  0  0  0  0  0  0  0  0
   -2.6189    0.3924    0.4257 C   0  0  0  0  0  0  0  0  0  0  0  0
   -0.3713   -0.7145    0.3930 C   0  0  0  0  0  0  0  0  0  0  0  0
    2.6292    2.5104    1.9717 H   0  0  0  0  0  0  0  0  0  0  0  0
    1.5212   -2.3245   -0.7747 H   0  0  0  0  0  0  0  0  0  0  0  0
    2.9282   -1.1365   -0.7430 H   0  0  0  0  0  0  0  0  0  0  0  0
    1.4658    0.5205   -1.8625 H   0  0  0  0  0  0  0  0  0  0  0  0
   -0.2196    1.3246   -0.2972 H   0  0  0  0  0  0  0  0  0  0  0  0
   -2.0548   -1.0097   -1.1520 H   0  0  0  0  0  0  0  0  0  0  0  0
   -2.2007    1.3759    0.7716 H   0  0  0  0  0  0  0  0  0  0  0  0
   -2.9160   -0.1883    1.3300 H   0  0  0  0  0  0  0  0  0  0  0  0
   -3.5096    0.6138   -0.1588 H   0  0  0  0  0  0  0  0  0  0  0  0
   -0.4373   -1.7705    0.5443 H   0  0  0  0  0  0  0  0  0  0  0  0
  1  2  3  0
  2  3  1  0
  3  4  1  0
  4  5  1  0
  5  6  1  0
  6  7  1  0
  7  8  1  0
  7  9  1  0
  5  3  1  0
  9  6  1  0
  9  3  1  0
  1 10  1  0
  4 11  1  0
  4 12  1  0
  5 13  1  0
  6 14  1  0
  7 15  1  0
  8 16  1  0
  8 17  1  0
  8 18  1  0
  9 19  1  0
M  END
