
     RDKit          3D

 16 15  0  0  0  0  0  0  0  0999 V2000
   -1.2265    1.8219   -1.2823 C   0  0  0  0  0  0  0  0  0  0  0  0
   -0.7105    0.9600   -0.6073 C   0  0  0  0  0  0  0  0  0  0  0  0
   -0.1003   -0.0884    0.2134 C   0  0  0  0  0  0  0  0  0  0  0  0
   -1.0643   -0.3850    1.3698 C   0  0  0  0  0  0  0  0  0  0  0  0
    0.0390   -1.3742   -0.5617 C   0  0  0  0  0  0  0  0  0  0  0  0
    1.0917    0.3529    0.7913 O   0  0  0  0  0  0  0  0  0  0  0  0
    2.1823    0.7799    0.0282 C   0  0  0  0  0  0  0  0  0  0  0  0
    2.0550    0.7539   -1.2073 O   0  0  0  0  0  0  0  0  0  0  0  0
   -1.6960    2.5753   -1.8860 H   0  0  0  0  0  0  0  0  0  0  0  0
   -0.8819    0.4008    2.1473 H   0  0  0  0  0  0  0  0  0  0  0  0
   -2.1011   -0.4399    1.0351 H   0  0  0  0  0  0  0  0  0  0  0  0
   -0.7505   -1.3624    1.7714 H   0  0  0  0  0  0  0  0  0  0  0  0
    1.0703   -1.5338   -0.9491 H   0  0  0  0  0  0  0  0  0  0  0  0
   -0.6435   -1.2963   -1.4516 H   0  0  0  0  0  0  0  0  0  0  0  0
   -0.3110   -2.2624    0.0173 H   0  0  0  0  0  0  0  0  0  0  0  0
    3.0472    1.0978    0.5715 H   0  0  0  0  0  0  0  0  0  0  0  0
  1  2  3  0
  2  3  1  0
  3  4  1  0
  3  5  1  0
  3  6  1  0
  6  7  1  0
  7  8  2  0
  1  9  1  0
  4 10  1  0
  4 11  1  0
  4 12  1  0
  5 13  1  0
  5 14  1  0
  5 15  1  0
  7 16  1  0
M  END
