
     RDKit          3D

 19 19  0  0  0  0  0  0  0  0999 V2000
    2.9479   -0.1122    1.9354 C   0  0  0  0  0  0  0  0  0  0  0  0
    1.8744    0.3485    1.6022 C   0  0  0  0  0  0  0  0  0  0  0  0
    0.5654    0.8919    1.2178 C   0  0  0  0  0  0  0  0  0  0  0  0
   -0.4168   -0.3186    1.0978 C   0  0  0  0  0  0  0  0  0  0  0  0
    0.1893   -0.5149   -0.2728 C   0  0  0  0  0  0  0  0  0  0  0  0
   -0.7368   -0.9826   -1.3238 C   0  0  0  0  0  0  0  0  0  0  0  0
   -1.9540   -0.3266   -1.7908 C   0  0  0  0  0  0  0  0  0  0  0  0
   -0.4321   -2.0602   -1.8644 O   0  0  0  0  0  0  0  0  0  0  0  0
    0.4297    0.9989   -0.2868 C   0  0  0  0  0  0  0  0  0  0  0  0
    3.9205   -0.5093    2.2313 H   0  0  0  0  0  0  0  0  0  0  0  0
    0.1716    1.6859    1.8407 H   0  0  0  0  0  0  0  0  0  0  0  0
   -0.1548   -1.0835    1.8490 H   0  0  0  0  0  0  0  0  0  0  0  0
   -1.4738    0.0042    1.0597 H   0  0  0  0  0  0  0  0  0  0  0  0
    1.1511   -1.0624   -0.2329 H   0  0  0  0  0  0  0  0  0  0  0  0
   -2.8139   -1.0633   -1.7837 H   0  0  0  0  0  0  0  0  0  0  0  0
   -1.9087    0.0509   -2.8542 H   0  0  0  0  0  0  0  0  0  0  0  0
   -2.2450    0.5253   -1.1007 H   0  0  0  0  0  0  0  0  0  0  0  0
    1.3751    1.3331   -0.7303 H   0  0  0  0  0  0  0  0  0  0  0  0
   -0.4892    1.5648   -0.5935 H   0  0  0  0  0  0  0  0  0  0  0  0
  1  2  3  0
  2  3  1  0
  3  4  1  0
  4  5  1  0
  5  6  1  0
  6  7  1  0
  6  8  2  0
  5  9  1  0
  9  3  1  0
  1 10  1  0
  3 11  1  0
  4 12  1  0
  4 13  1  0
  5 14  1  0
  7 15  1  0
  7 16  1  0
  7 17  1  0
  9 18  1  0
  9 19  1  0
M  END
