
     RDKit          3D

 25 24  0  0  0  0  0  0  0  0999 V2000
   -1.7519    3.3086    1.3692 C   0  0  0  0  0  0  0  0  0  0  0  0
   -1.7532    2.1242    1.6855 C   0  0  0  0  0  0  0  0  0  0  0  0
   -1.7721    0.7344    2.0744 C   0  0  0  0  0  0  0  0  0  0  0  0
   -1.2673   -0.0857    0.9067 C   0  0  0  0  0  0  0  0  0  0  0  0
   -1.3084   -1.5266    1.3664 C   0  0  0  0  0  0  0  0  0  0  0  0
    0.1286    0.3167    0.5059 C   0  0  0  0  0  0  0  0  0  0  0  0
    0.6009   -0.5139   -0.6568 C   0  0  0  0  0  0  0  0  0  0  0  0
    2.0095   -0.0852   -1.0405 C   0  0  0  0  0  0  0  0  0  0  0  0
    2.5184   -0.9028   -2.2149 C   0  0  0  0  0  0  0  0  0  0  0  0
   -1.7631    4.3263    1.0833 H   0  0  0  0  0  0  0  0  0  0  0  0
   -1.1624    0.5192    2.9701 H   0  0  0  0  0  0  0  0  0  0  0  0
   -2.8107    0.3755    2.3078 H   0  0  0  0  0  0  0  0  0  0  0  0
   -1.9147    0.0363    0.0238 H   0  0  0  0  0  0  0  0  0  0  0  0
   -0.6741   -1.5883    2.2887 H   0  0  0  0  0  0  0  0  0  0  0  0
   -2.3846   -1.7471    1.6324 H   0  0  0  0  0  0  0  0  0  0  0  0
   -0.9956   -2.1888    0.5628 H   0  0  0  0  0  0  0  0  0  0  0  0
    0.1990    1.3759    0.2403 H   0  0  0  0  0  0  0  0  0  0  0  0
    0.7762    0.1636    1.3926 H   0  0  0  0  0  0  0  0  0  0  0  0
   -0.0558   -0.4503   -1.5292 H   0  0  0  0  0  0  0  0  0  0  0  0
    0.7002   -1.5929   -0.3804 H   0  0  0  0  0  0  0  0  0  0  0  0
    2.0633    0.9843   -1.2730 H   0  0  0  0  0  0  0  0  0  0  0  0
    2.6762   -0.3156   -0.1793 H   0  0  0  0  0  0  0  0  0  0  0  0
    3.6001   -0.7054   -2.3532 H   0  0  0  0  0  0  0  0  0  0  0  0
    2.4107   -1.9882   -2.0151 H   0  0  0  0  0  0  0  0  0  0  0  0
    1.9307   -0.5743   -3.1085 H   0  0  0  0  0  0  0  0  0  0  0  0
  1  2  3  0
  2  3  1  0
  3  4  1  0
  4  5  1  0
  4  6  1  0
  6  7  1  0
  7  8  1  0
  8  9  1  0
  1 10  1  0
  3 11  1  0
  3 12  1  0
  4 13  1  0
  5 14  1  0
  5 15  1  0
  5 16  1  0
  6 17  1  0
  6 18  1  0
  7 19  1  0
  7 20  1  0
  8 21  1  0
  8 22  1  0
  9 23  1  0
  9 24  1  0
  9 25  1  0
M  END
