
     RDKit          3D

 23 22  0  0  0  0  0  0  0  0999 V2000
   -2.6451    1.8615   -1.4821 C   0  0  0  0  0  0  0  0  0  0  0  0
   -2.0666    0.7286   -1.1138 C   0  0  0  0  0  0  0  0  0  0  0  0
   -1.4527   -0.5017   -0.7219 C   0  0  0  0  0  0  0  0  0  0  0  0
   -2.2960   -0.4713    0.7401 C   0  0  0  0  0  0  0  0  0  0  0  0
   -0.1242    0.1029   -0.1536 C   0  0  0  0  0  0  0  0  0  0  0  0
    1.0654   -0.5425    0.3119 C   0  0  0  0  0  0  0  0  0  0  0  0
    1.8348    0.7468    0.9520 C   0  0  0  0  0  0  0  0  0  0  0  0
    2.1385   -0.8495   -0.8031 C   0  0  0  0  0  0  0  0  0  0  0  0
    1.0993   -1.5261    1.2155 O   0  0  0  0  0  0  0  0  0  0  0  0
   -3.1422    2.8787   -1.8067 H   0  0  0  0  0  0  0  0  0  0  0  0
   -1.6955   -1.3262   -1.1200 H   0  0  0  0  0  0  0  0  0  0  0  0
   -1.7655    0.4578    1.1401 H   0  0  0  0  0  0  0  0  0  0  0  0
   -2.0599   -1.4139    1.0921 H   0  0  0  0  0  0  0  0  0  0  0  0
   -3.2851   -0.1817    0.4760 H   0  0  0  0  0  0  0  0  0  0  0  0
    0.2137    0.9856   -0.8359 H   0  0  0  0  0  0  0  0  0  0  0  0
   -0.4653    0.8433    0.7662 H   0  0  0  0  0  0  0  0  0  0  0  0
    1.0538    1.1354    1.6324 H   0  0  0  0  0  0  0  0  0  0  0  0
    1.9045    1.4874    0.1357 H   0  0  0  0  0  0  0  0  0  0  0  0
    2.6956    0.4075    1.4587 H   0  0  0  0  0  0  0  0  0  0  0  0
    1.8861   -1.6401   -1.4265 H   0  0  0  0  0  0  0  0  0  0  0  0
    3.0273   -1.0709   -0.1476 H   0  0  0  0  0  0  0  0  0  0  0  0
    2.2861    0.1410   -1.3213 H   0  0  0  0  0  0  0  0  0  0  0  0
    1.7931   -2.2525    1.0118 H   0  0  0  0  0  0  0  0  0  0  0  0
  1  2  3  0
  2  3  1  0
  3  4  1  0
  3  5  1  0
  5  6  1  0
  6  7  1  0
  6  8  1  0
  6  9  1  0
  1 10  1  0
  3 11  1  0
  4 12  1  0
  4 13  1  0
  4 14  1  0
  5 15  1  0
  5 16  1  0
  7 17  1  0
  7 18  1  0
  7 19  1  0
  8 20  1  0
  8 21  1  0
  8 22  1  0
  9 23  1  0
M  END
