
     RDKit          3D

 21 20  0  0  0  0  0  0  0  0999 V2000
    2.8533    2.5210    1.1788 C   0  0  0  0  0  0  0  0  0  0  0  0
    2.4793    2.1247    0.0975 C   0  0  0  0  0  0  0  0  0  0  0  0
    2.0059    1.6591   -1.2074 C   0  0  0  0  0  0  0  0  0  0  0  0
    1.2099    0.3847   -1.0607 C   0  0  0  0  0  0  0  0  0  0  0  0
   -0.0011    0.5684   -0.1784 C   0  0  0  0  0  0  0  0  0  0  0  0
   -0.7463   -0.7024   -0.0656 C   0  0  0  0  0  0  0  0  0  0  0  0
   -0.3496   -1.7020   -0.6450 O   0  0  0  0  0  0  0  0  0  0  0  0
   -1.9883   -0.7595    0.7610 C   0  0  0  0  0  0  0  0  0  0  0  0
   -2.5592   -2.1655    0.7137 C   0  0  0  0  0  0  0  0  0  0  0  0
    3.1976    2.8688    2.1203 H   0  0  0  0  0  0  0  0  0  0  0  0
    2.8812    1.4635   -1.8332 H   0  0  0  0  0  0  0  0  0  0  0  0
    1.4265    2.4783   -1.6508 H   0  0  0  0  0  0  0  0  0  0  0  0
    0.8923   -0.0104   -2.0461 H   0  0  0  0  0  0  0  0  0  0  0  0
    1.8689   -0.3545   -0.5590 H   0  0  0  0  0  0  0  0  0  0  0  0
    0.2899    0.9132    0.8187 H   0  0  0  0  0  0  0  0  0  0  0  0
   -0.6993    1.3280   -0.6163 H   0  0  0  0  0  0  0  0  0  0  0  0
   -2.7874   -0.0976    0.3231 H   0  0  0  0  0  0  0  0  0  0  0  0
   -1.8124   -0.4532    1.8113 H   0  0  0  0  0  0  0  0  0  0  0  0
   -3.1279   -2.3415   -0.2279 H   0  0  0  0  0  0  0  0  0  0  0  0
   -1.7461   -2.9304    0.7284 H   0  0  0  0  0  0  0  0  0  0  0  0
   -3.2875   -2.3350    1.5374 H   0  0  0  0  0  0  0  0  0  0  0  0
  1  2  3  0
  2  3  1  0
  3  4  1  0
  4  5  1  0
  5  6  1  0
  6  7  2  0
  6  8  1  0
  8  9  1  0
  1 10  1  0
  3 11  1  0
  3 12  1  0
  4 13  1  0
  4 14  1  0
  5 15  1  0
  5 16  1  0
  8 17  1  0
  8 18  1  0
  9 19  1  0
  9 20  1  0
  9 21  1  0
M  END
