
     RDKit          3D

 14 14  0  0  0  0  0  0  0  0999 V2000
    3.0430    0.3324    0.8193 C   0  0  0  0  0  0  0  0  0  0  0  0
    2.0168   -0.0684    0.3006 C   0  0  0  0  0  0  0  0  0  0  0  0
    0.7772   -0.5253   -0.3242 C   0  0  0  0  0  0  0  0  0  0  0  0
   -0.0594   -1.2137    0.7259 O   0  0  0  0  0  0  0  0  0  0  0  0
   -0.4988   -0.0950   -0.0150 C   0  0  0  0  0  0  0  0  0  0  0  0
   -1.6484   -0.4937   -0.9459 C   0  0  0  0  0  0  0  0  0  0  0  0
   -0.7827    1.1282    0.7718 C   0  0  0  0  0  0  0  0  0  0  0  0
   -1.6632    1.8751    0.3849 O   0  0  0  0  0  0  0  0  0  0  0  0
    3.9355    0.6969    1.2859 H   0  0  0  0  0  0  0  0  0  0  0  0
    0.9787   -1.2301   -1.1810 H   0  0  0  0  0  0  0  0  0  0  0  0
   -1.5774    0.0364   -1.9299 H   0  0  0  0  0  0  0  0  0  0  0  0
   -1.6580   -1.5837   -1.1516 H   0  0  0  0  0  0  0  0  0  0  0  0
   -2.6055   -0.2748   -0.4245 H   0  0  0  0  0  0  0  0  0  0  0  0
   -0.2578    1.4157    1.6838 H   0  0  0  0  0  0  0  0  0  0  0  0
  1  2  3  0
  2  3  1  0
  3  4  1  0
  4  5  1  0
  5  6  1  0
  5  7  1  0
  7  8  2  0
  5  3  1  0
  1  9  1  0
  3 10  1  0
  6 11  1  0
  6 12  1  0
  6 13  1  0
  7 14  1  0
M  END
