
     RDKit          3D

 21 20  0  0  0  0  0  0  0  0999 V2000
   -0.6661    2.9809    0.8302 C   0  0  0  0  0  0  0  0  0  0  0  0
   -0.8863    1.8124    0.6684 C   0  0  0  0  0  0  0  0  0  0  0  0
   -1.1278    0.3991    0.4798 C   0  0  0  0  0  0  0  0  0  0  0  0
   -1.9798   -0.1917    1.5506 C   0  0  0  0  0  0  0  0  0  0  0  0
    0.1918   -0.3428    0.3919 C   0  0  0  0  0  0  0  0  0  0  0  0
   -0.1128   -1.7709    0.1851 C   0  0  0  0  0  0  0  0  0  0  0  0
   -0.1346   -2.4936    1.1942 O   0  0  0  0  0  0  0  0  0  0  0  0
    1.0336    0.1669   -0.7549 C   0  0  0  0  0  0  0  0  0  0  0  0
    2.3457   -0.5392   -0.8915 C   0  0  0  0  0  0  0  0  0  0  0  0
   -0.4514    4.0362    0.9709 H   0  0  0  0  0  0  0  0  0  0  0  0
   -1.6463    0.1966   -0.4995 H   0  0  0  0  0  0  0  0  0  0  0  0
   -1.4560   -0.8919    2.2349 H   0  0  0  0  0  0  0  0  0  0  0  0
   -2.4826    0.6008    2.1642 H   0  0  0  0  0  0  0  0  0  0  0  0
   -2.8396   -0.7873    1.1240 H   0  0  0  0  0  0  0  0  0  0  0  0
    0.7537   -0.2253    1.3599 H   0  0  0  0  0  0  0  0  0  0  0  0
   -0.3209   -2.2726   -0.7357 H   0  0  0  0  0  0  0  0  0  0  0  0
    0.4485    0.1815   -1.6930 H   0  0  0  0  0  0  0  0  0  0  0  0
    1.2300    1.2633   -0.5224 H   0  0  0  0  0  0  0  0  0  0  0  0
    3.0409   -0.1839   -0.1040 H   0  0  0  0  0  0  0  0  0  0  0  0
    2.2522   -1.6484   -0.7610 H   0  0  0  0  0  0  0  0  0  0  0  0
    2.8078   -0.2899   -1.8679 H   0  0  0  0  0  0  0  0  0  0  0  0
  1  2  3  0
  2  3  1  0
  3  4  1  0
  3  5  1  0
  5  6  1  0
  6  7  2  0
  5  8  1  0
  8  9  1  0
  1 10  1  0
  3 11  1  0
  4 12  1  0
  4 13  1  0
  4 14  1  0
  5 15  1  0
  6 16  1  0
  8 17  1  0
  8 18  1  0
  9 19  1  0
  9 20  1  0
  9 21  1  0
M  END
