
     RDKit          3D

 23 22  0  0  0  0  0  0  0  0999 V2000
   -1.4144    1.4277    2.0987 C   0  0  0  0  0  0  0  0  0  0  0  0
   -1.1769    0.5793    1.2746 C   0  0  0  0  0  0  0  0  0  0  0  0
   -0.8659   -0.4431    0.2623 C   0  0  0  0  0  0  0  0  0  0  0  0
   -0.4030   -1.7287    0.9117 C   0  0  0  0  0  0  0  0  0  0  0  0
   -2.1475   -0.7243   -0.4916 C   0  0  0  0  0  0  0  0  0  0  0  0
    0.2126    0.0911   -0.6495 C   0  0  0  0  0  0  0  0  0  0  0  0
   -0.1992    1.2516   -1.2924 O   0  0  0  0  0  0  0  0  0  0  0  0
    1.4761    0.3980    0.1167 C   0  0  0  0  0  0  0  0  0  0  0  0
    2.5329    0.9304   -0.8285 C   0  0  0  0  0  0  0  0  0  0  0  0
   -1.6450    2.1859    2.8312 H   0  0  0  0  0  0  0  0  0  0  0  0
    0.2811   -2.3099    0.2876 H   0  0  0  0  0  0  0  0  0  0  0  0
   -1.2808   -2.3915    1.1255 H   0  0  0  0  0  0  0  0  0  0  0  0
    0.0784   -1.4601    1.8791 H   0  0  0  0  0  0  0  0  0  0  0  0
   -1.8489   -1.0791   -1.5167 H   0  0  0  0  0  0  0  0  0  0  0  0
   -2.6361    0.2613   -0.6551 H   0  0  0  0  0  0  0  0  0  0  0  0
   -2.7888   -1.4559    0.0228 H   0  0  0  0  0  0  0  0  0  0  0  0
    0.4760   -0.6565   -1.4203 H   0  0  0  0  0  0  0  0  0  0  0  0
   -0.0209    1.1925   -2.2762 H   0  0  0  0  0  0  0  0  0  0  0  0
    1.2634    1.1644    0.8959 H   0  0  0  0  0  0  0  0  0  0  0  0
    1.8102   -0.5065    0.6509 H   0  0  0  0  0  0  0  0  0  0  0  0
    3.4816    1.0910   -0.3168 H   0  0  0  0  0  0  0  0  0  0  0  0
    2.6602    0.2648   -1.6999 H   0  0  0  0  0  0  0  0  0  0  0  0
    2.1549    1.9177   -1.2100 H   0  0  0  0  0  0  0  0  0  0  0  0
  1  2  3  0
  2  3  1  0
  3  4  1  0
  3  5  1  0
  3  6  1  0
  6  7  1  0
  6  8  1  0
  8  9  1  0
  1 10  1  0
  4 11  1  0
  4 12  1  0
  4 13  1  0
  5 14  1  0
  5 15  1  0
  5 16  1  0
  6 17  1  0
  7 18  1  0
  8 19  1  0
  8 20  1  0
  9 21  1  0
  9 22  1  0
  9 23  1  0
M  END
