
     RDKit          3D

 19 19  0  0  0  0  0  0  0  0999 V2000
    3.1074    0.1235   -2.0285 C   0  0  0  0  0  0  0  0  0  0  0  0
    2.0663   -0.7170   -1.6846 C   0  0  0  0  0  0  0  0  0  0  0  0
    1.0428   -1.5253   -1.3393 C   0  0  0  0  0  0  0  0  0  0  0  0
   -0.3981   -1.0577   -1.2778 C   0  0  0  0  0  0  0  0  0  0  0  0
    0.0920    0.1220   -0.4522 C   0  0  0  0  0  0  0  0  0  0  0  0
   -0.8284    0.5998    0.5517 C   0  0  0  0  0  0  0  0  0  0  0  0
   -1.5730    0.9948    1.3565 C   0  0  0  0  0  0  0  0  0  0  0  0
   -2.4961    1.4867    2.3907 C   0  0  0  0  0  0  0  0  0  0  0  0
    0.9153   -1.0706    0.2766 C   0  0  0  0  0  0  0  0  0  0  0  0
    4.0158    0.8338   -2.3347 H   0  0  0  0  0  0  0  0  0  0  0  0
    1.2703   -2.6054   -1.2761 H   0  0  0  0  0  0  0  0  0  0  0  0
   -0.9076   -1.7753   -0.5218 H   0  0  0  0  0  0  0  0  0  0  0  0
   -0.9649   -0.8504   -2.1131 H   0  0  0  0  0  0  0  0  0  0  0  0
    0.7421    0.8495   -0.8879 H   0  0  0  0  0  0  0  0  0  0  0  0
   -2.4181    0.9284    3.3362 H   0  0  0  0  0  0  0  0  0  0  0  0
   -2.1647    2.5652    2.6436 H   0  0  0  0  0  0  0  0  0  0  0  0
   -3.5305    1.4912    2.0064 H   0  0  0  0  0  0  0  0  0  0  0  0
    1.8216   -0.7849    0.6914 H   0  0  0  0  0  0  0  0  0  0  0  0
    0.2080   -1.7605    0.6629 H   0  0  0  0  0  0  0  0  0  0  0  0
  1  2  3  0
  2  3  1  0
  3  4  1  0
  4  5  1  0
  5  6  1  0
  6  7  3  0
  7  8  1  0
  5  9  1  0
  9  3  1  0
  1 10  1  0
  3 11  1  0
  4 12  1  0
  4 13  1  0
  5 14  1  0
  8 15  1  0
  8 16  1  0
  8 17  1  0
  9 18  1  0
  9 19  1  0
M  END
