
     RDKit          3D

 21 21  0  0  0  0  0  0  0  0999 V2000
    1.0384    2.4396   -1.1657 C   0  0  0  0  0  0  0  0  0  0  0  0
    1.2487    1.2776   -1.4670 C   0  0  0  0  0  0  0  0  0  0  0  0
    1.4870   -0.0848   -1.8444 C   0  0  0  0  0  0  0  0  0  0  0  0
    1.4528   -1.0962   -0.7442 C   0  0  0  0  0  0  0  0  0  0  0  0
    0.3077   -1.2476   -0.0529 O   0  0  0  0  0  0  0  0  0  0  0  0
   -0.1941   -0.2642    0.7111 C   0  0  0  0  0  0  0  0  0  0  0  0
   -1.6913   -0.0702    0.3828 C   0  0  0  0  0  0  0  0  0  0  0  0
   -1.8332    0.2812    1.8690 C   0  0  0  0  0  0  0  0  0  0  0  0
   -0.7097   -0.7117    2.0976 C   0  0  0  0  0  0  0  0  0  0  0  0
    0.8549    3.4599   -0.8818 H   0  0  0  0  0  0  0  0  0  0  0  0
    0.8194   -0.3923   -2.6894 H   0  0  0  0  0  0  0  0  0  0  0  0
    2.5287   -0.1751   -2.2969 H   0  0  0  0  0  0  0  0  0  0  0  0
    1.6646   -2.1030   -1.2391 H   0  0  0  0  0  0  0  0  0  0  0  0
    2.3390   -0.8809   -0.0882 H   0  0  0  0  0  0  0  0  0  0  0  0
    0.3061    0.6884    0.8481 H   0  0  0  0  0  0  0  0  0  0  0  0
   -2.1621   -1.0410    0.2007 H   0  0  0  0  0  0  0  0  0  0  0  0
   -1.8850    0.7408   -0.3103 H   0  0  0  0  0  0  0  0  0  0  0  0
   -2.8073   -0.0137    2.2967 H   0  0  0  0  0  0  0  0  0  0  0  0
   -1.5927    1.3243    2.0826 H   0  0  0  0  0  0  0  0  0  0  0  0
   -1.0794   -1.7399    2.0995 H   0  0  0  0  0  0  0  0  0  0  0  0
   -0.0925   -0.3913    2.9339 H   0  0  0  0  0  0  0  0  0  0  0  0
  1  2  3  0
  2  3  1  0
  3  4  1  0
  4  5  1  0
  5  6  1  0
  6  7  1  0
  7  8  1  0
  8  9  1  0
  9  6  1  0
  1 10  1  0
  3 11  1  0
  3 12  1  0
  4 13  1  0
  4 14  1  0
  6 15  1  0
  7 16  1  0
  7 17  1  0
  8 18  1  0
  8 19  1  0
  9 20  1  0
  9 21  1  0
M  END
