
     RDKit          3D

 23 23  0  0  0  0  0  0  0  0999 V2000
   -0.1145    3.0456    0.9936 C   0  0  0  0  0  0  0  0  0  0  0  0
   -0.4690    2.0141    0.4779 C   0  0  0  0  0  0  0  0  0  0  0  0
   -0.8757    0.7823   -0.1540 C   0  0  0  0  0  0  0  0  0  0  0  0
   -1.4352   -0.2829    0.7786 C   0  0  0  0  0  0  0  0  0  0  0  0
   -2.5971   -1.0199    0.1934 C   0  0  0  0  0  0  0  0  0  0  0  0
   -0.1149   -1.0320    0.7353 C   0  0  0  0  0  0  0  0  0  0  0  0
    0.2617   -0.1572   -0.4524 C   0  0  0  0  0  0  0  0  0  0  0  0
    1.6368    0.4077   -0.3349 C   0  0  0  0  0  0  0  0  0  0  0  0
    2.6337   -0.6782   -0.6704 C   0  0  0  0  0  0  0  0  0  0  0  0
    0.1830    3.9584    1.4359 H   0  0  0  0  0  0  0  0  0  0  0  0
   -1.5097    0.9805   -1.0380 H   0  0  0  0  0  0  0  0  0  0  0  0
   -1.6412    0.1532    1.7765 H   0  0  0  0  0  0  0  0  0  0  0  0
   -2.2826   -2.0907    0.0793 H   0  0  0  0  0  0  0  0  0  0  0  0
   -2.8567   -0.5612   -0.7743 H   0  0  0  0  0  0  0  0  0  0  0  0
   -3.4413   -0.9728    0.8982 H   0  0  0  0  0  0  0  0  0  0  0  0
    0.4830   -0.8633    1.6459 H   0  0  0  0  0  0  0  0  0  0  0  0
   -0.2878   -2.0950    0.4929 H   0  0  0  0  0  0  0  0  0  0  0  0
    0.1393   -0.6728   -1.4273 H   0  0  0  0  0  0  0  0  0  0  0  0
    1.7921    1.3264   -0.9372 H   0  0  0  0  0  0  0  0  0  0  0  0
    1.7978    0.6873    0.7334 H   0  0  0  0  0  0  0  0  0  0  0  0
    3.4416   -0.2893   -1.3433 H   0  0  0  0  0  0  0  0  0  0  0  0
    2.1661   -1.5220   -1.2194 H   0  0  0  0  0  0  0  0  0  0  0  0
    3.0905   -1.1181    0.2481 H   0  0  0  0  0  0  0  0  0  0  0  0
  1  2  3  0
  2  3  1  0
  3  4  1  0
  4  5  1  0
  4  6  1  0
  6  7  1  0
  7  8  1  0
  8  9  1  0
  7  3  1  0
  1 10  1  0
  3 11  1  0
  4 12  1  0
  5 13  1  0
  5 14  1  0
  5 15  1  0
  6 16  1  0
  6 17  1  0
  7 18  1  0
  8 19  1  0
  8 20  1  0
  9 21  1  0
  9 22  1  0
  9 23  1  0
M  END
