
     RDKit          3D

 21 20  0  0  0  0  0  0  0  0999 V2000
    0.9589    2.5450    0.0355 C   0  0  0  0  0  0  0  0  0  0  0  0
    0.7605    1.3757   -0.1889 C   0  0  0  0  0  0  0  0  0  0  0  0
    0.5343   -0.0648   -0.4463 C   0  0  0  0  0  0  0  0  0  0  0  0
    0.7412   -0.2872   -1.7894 O   0  0  0  0  0  0  0  0  0  0  0  0
    1.5258   -0.8309    0.3622 C   0  0  0  0  0  0  0  0  0  0  0  0
    1.4565   -2.1896    0.1615 O   0  0  0  0  0  0  0  0  0  0  0  0
   -0.8880   -0.3799   -0.0610 C   0  0  0  0  0  0  0  0  0  0  0  0
   -1.1510   -0.0898    1.3843 C   0  0  0  0  0  0  0  0  0  0  0  0
   -1.7829    0.5052   -0.9178 C   0  0  0  0  0  0  0  0  0  0  0  0
    1.1348    3.5697    0.2376 H   0  0  0  0  0  0  0  0  0  0  0  0
    1.2644   -1.1223   -1.8873 H   0  0  0  0  0  0  0  0  0  0  0  0
    1.4450   -0.6119    1.4436 H   0  0  0  0  0  0  0  0  0  0  0  0
    2.5473   -0.4892    0.0561 H   0  0  0  0  0  0  0  0  0  0  0  0
    2.3426   -2.5738   -0.0562 H   0  0  0  0  0  0  0  0  0  0  0  0
   -1.0953   -1.4540   -0.2518 H   0  0  0  0  0  0  0  0  0  0  0  0
   -0.4814    0.6676    1.8223 H   0  0  0  0  0  0  0  0  0  0  0  0
   -2.2049    0.2763    1.5171 H   0  0  0  0  0  0  0  0  0  0  0  0
   -1.0486   -1.0095    2.0061 H   0  0  0  0  0  0  0  0  0  0  0  0
   -2.0471    1.4533   -0.3958 H   0  0  0  0  0  0  0  0  0  0  0  0
   -2.7198   -0.0235   -1.1472 H   0  0  0  0  0  0  0  0  0  0  0  0
   -1.2923    0.7335   -1.8847 H   0  0  0  0  0  0  0  0  0  0  0  0
  1  2  3  0
  2  3  1  0
  3  4  1  0
  3  5  1  0
  5  6  1  0
  3  7  1  0
  7  8  1  0
  7  9  1  0
  1 10  1  0
  4 11  1  0
  5 12  1  0
  5 13  1  0
  6 14  1  0
  7 15  1  0
  8 16  1  0
  8 17  1  0
  8 18  1  0
  9 19  1  0
  9 20  1  0
  9 21  1  0
M  END
