
     RDKit          3D

 15 15  0  0  0  0  0  0  0  0999 V2000
    2.4368    1.2162   -1.1869 C   0  0  0  0  0  0  0  0  0  0  0  0
    1.3538    0.8131   -0.8384 C   0  0  0  0  0  0  0  0  0  0  0  0
    0.0336    0.3257   -0.4403 C   0  0  0  0  0  0  0  0  0  0  0  0
   -1.0181    0.9725   -0.9763 O   0  0  0  0  0  0  0  0  0  0  0  0
   -0.1205    0.0850    1.0263 C   0  0  0  0  0  0  0  0  0  0  0  0
   -1.2594   -0.9164    1.0459 C   0  0  0  0  0  0  0  0  0  0  0  0
   -1.1855   -1.5455   -0.2136 O   0  0  0  0  0  0  0  0  0  0  0  0
   -0.0682   -1.2221   -0.9046 C   0  0  0  0  0  0  0  0  0  0  0  0
    0.8152   -1.5395   -1.6530 O   0  0  0  0  0  0  0  0  0  0  0  0
    3.3537    1.5697   -1.4712 H   0  0  0  0  0  0  0  0  0  0  0  0
   -1.4331    1.6266   -0.3200 H   0  0  0  0  0  0  0  0  0  0  0  0
    0.8237   -0.3982    1.3623 H   0  0  0  0  0  0  0  0  0  0  0  0
   -0.3604    0.9877    1.6193 H   0  0  0  0  0  0  0  0  0  0  0  0
   -1.1704   -1.6585    1.8373 H   0  0  0  0  0  0  0  0  0  0  0  0
   -2.2011   -0.3164    1.1133 H   0  0  0  0  0  0  0  0  0  0  0  0
  1  2  3  0
  2  3  1  0
  3  4  1  0
  3  5  1  0
  5  6  1  0
  6  7  1  0
  7  8  1  0
  8  9  2  0
  8  3  1  0
  1 10  1  0
  4 11  1  0
  5 12  1  0
  5 13  1  0
  6 14  1  0
  6 15  1  0
M  END
