
     RDKit          3D

 18 18  0  0  0  0  0  0  0  0999 V2000
    3.4441   -0.0745   -0.0931 C   0  0  0  0  0  0  0  0  0  0  0  0
    2.3506   -0.5887   -0.1112 C   0  0  0  0  0  0  0  0  0  0  0  0
    1.0239   -1.2110   -0.1170 C   0  0  0  0  0  0  0  0  0  0  0  0
   -0.0002   -0.2803   -0.7116 C   0  0  0  0  0  0  0  0  0  0  0  0
   -1.3260   -0.9386   -0.7022 C   0  0  0  0  0  0  0  0  0  0  0  0
   -2.2288   -0.0513   -0.3707 C   0  0  0  0  0  0  0  0  0  0  0  0
   -1.6388    1.2903   -0.1196 C   0  0  0  0  0  0  0  0  0  0  0  0
   -0.1479    0.9964    0.0862 C   0  0  0  0  0  0  0  0  0  0  0  0
    4.4214    0.3680   -0.0664 H   0  0  0  0  0  0  0  0  0  0  0  0
    0.7881   -1.5114    0.9170 H   0  0  0  0  0  0  0  0  0  0  0  0
    1.0830   -2.0955   -0.7806 H   0  0  0  0  0  0  0  0  0  0  0  0
    0.2783   -0.0331   -1.7312 H   0  0  0  0  0  0  0  0  0  0  0  0
   -1.4731   -1.9765   -0.9360 H   0  0  0  0  0  0  0  0  0  0  0  0
   -3.2920   -0.2435   -0.2814 H   0  0  0  0  0  0  0  0  0  0  0  0
   -1.7522    1.9730   -0.9845 H   0  0  0  0  0  0  0  0  0  0  0  0
   -2.0580    1.7292    0.7819 H   0  0  0  0  0  0  0  0  0  0  0  0
    0.4732    1.8022   -0.3245 H   0  0  0  0  0  0  0  0  0  0  0  0
    0.0542    0.8451    1.1691 H   0  0  0  0  0  0  0  0  0  0  0  0
  1  2  3  0
  2  3  1  0
  3  4  1  0
  4  5  1  0
  5  6  2  0
  6  7  1  0
  7  8  1  0
  8  4  1  0
  1  9  1  0
  3 10  1  0
  3 11  1  0
  4 12  1  0
  5 13  1  0
  6 14  1  0
  7 15  1  0
  7 16  1  0
  8 17  1  0
  8 18  1  0
M  END
