
     RDKit          3D

 21 21  0  0  0  0  0  0  0  0999 V2000
    2.5314    1.9069   -1.2915 C   0  0  0  0  0  0  0  0  0  0  0  0
    2.1617    1.1578   -0.4208 C   0  0  0  0  0  0  0  0  0  0  0  0
    1.7045    0.2394    0.6338 C   0  0  0  0  0  0  0  0  0  0  0  0
    0.1947    0.2033    0.6596 C   0  0  0  0  0  0  0  0  0  0  0  0
   -0.2744   -0.7562    1.7612 C   0  0  0  0  0  0  0  0  0  0  0  0
   -1.3545   -1.1878    0.7623 C   0  0  0  0  0  0  0  0  0  0  0  0
   -0.4267   -0.7455   -0.3514 C   0  0  0  0  0  0  0  0  0  0  0  0
   -1.1562   -0.0962   -1.4841 C   0  0  0  0  0  0  0  0  0  0  0  0
   -2.2132    0.6962   -1.0732 O   0  0  0  0  0  0  0  0  0  0  0  0
    2.8752    2.5842   -2.0589 H   0  0  0  0  0  0  0  0  0  0  0  0
    2.1050    0.5011    1.6287 H   0  0  0  0  0  0  0  0  0  0  0  0
    2.0832   -0.7822    0.4060 H   0  0  0  0  0  0  0  0  0  0  0  0
   -0.2907    1.1797    0.7504 H   0  0  0  0  0  0  0  0  0  0  0  0
   -0.7036   -0.2017    2.6049 H   0  0  0  0  0  0  0  0  0  0  0  0
    0.4617   -1.5331    1.9775 H   0  0  0  0  0  0  0  0  0  0  0  0
   -2.2384   -0.5411    0.7782 H   0  0  0  0  0  0  0  0  0  0  0  0
   -1.5764   -2.2508    0.8194 H   0  0  0  0  0  0  0  0  0  0  0  0
    0.2363   -1.5545   -0.6572 H   0  0  0  0  0  0  0  0  0  0  0  0
   -1.6144   -0.9351   -2.0803 H   0  0  0  0  0  0  0  0  0  0  0  0
   -0.5033    0.4378   -2.1841 H   0  0  0  0  0  0  0  0  0  0  0  0
   -2.0018    1.6779   -1.1804 H   0  0  0  0  0  0  0  0  0  0  0  0
  1  2  3  0
  2  3  1  0
  3  4  1  0
  4  5  1  0
  5  6  1  0
  6  7  1  0
  7  8  1  0
  8  9  1  0
  7  4  1  0
  1 10  1  0
  3 11  1  0
  3 12  1  0
  4 13  1  0
  5 14  1  0
  5 15  1  0
  6 16  1  0
  6 17  1  0
  7 18  1  0
  8 19  1  0
  8 20  1  0
  9 21  1  0
M  END
