
     RDKit          3D

 19 19  0  0  0  0  0  0  0  0999 V2000
    0.0647    2.0589   -1.8244 C   0  0  0  0  0  0  0  0  0  0  0  0
    0.1339    1.1429   -0.7965 C   0  0  0  0  0  0  0  0  0  0  0  0
    0.2190    0.2690    0.2054 C   0  0  0  0  0  0  0  0  0  0  0  0
    1.3986    0.0031    0.8609 O   0  0  0  0  0  0  0  0  0  0  0  0
    2.4479   -0.2616    0.0205 C   0  0  0  0  0  0  0  0  0  0  0  0
   -0.8288    0.3710    1.3869 C   0  0  0  0  0  0  0  0  0  0  0  0
   -2.1528   -0.0562    0.8156 C   0  0  0  0  0  0  0  0  0  0  0  0
   -1.8910   -0.8455   -0.1259 C   0  0  0  0  0  0  0  0  0  0  0  0
   -0.4565   -1.0579   -0.3601 C   0  0  0  0  0  0  0  0  0  0  0  0
    0.0362    2.6292   -2.4592 H   0  0  0  0  0  0  0  0  0  0  0  0
    2.3200   -1.0453   -0.7390 H   0  0  0  0  0  0  0  0  0  0  0  0
    3.2814   -0.6690    0.6927 H   0  0  0  0  0  0  0  0  0  0  0  0
    2.8646    0.6271   -0.4392 H   0  0  0  0  0  0  0  0  0  0  0  0
   -0.6285   -0.5556    2.0899 H   0  0  0  0  0  0  0  0  0  0  0  0
   -0.8161    1.2317    1.9762 H   0  0  0  0  0  0  0  0  0  0  0  0
   -3.0997    0.3632    1.2324 H   0  0  0  0  0  0  0  0  0  0  0  0
   -2.6580   -1.3776   -0.7557 H   0  0  0  0  0  0  0  0  0  0  0  0
   -0.3478   -0.9078   -1.5467 H   0  0  0  0  0  0  0  0  0  0  0  0
    0.1129   -1.9197   -0.2339 H   0  0  0  0  0  0  0  0  0  0  0  0
  1  2  3  0
  2  3  1  0
  3  4  1  0
  4  5  1  0
  3  6  1  0
  6  7  1  0
  7  8  2  0
  8  9  1  0
  9  3  1  0
  1 10  1  0
  5 11  1  0
  5 12  1  0
  5 13  1  0
  6 14  1  0
  6 15  1  0
  7 16  1  0
  8 17  1  0
  9 18  1  0
  9 19  1  0
M  END
