
     RDKit          3D

 15 14  0  0  0  0  0  0  0  0999 V2000
   -2.3482    1.2582    0.1364 C   0  0  0  0  0  0  0  0  0  0  0  0
   -1.9191   -0.0428   -0.0275 C   0  0  0  0  0  0  0  0  0  0  0  0
   -1.4804   -1.4011   -0.1745 C   0  0  0  0  0  0  0  0  0  0  0  0
   -0.3223   -1.4645    0.8982 C   0  0  0  0  0  0  0  0  0  0  0  0
    0.6528   -0.4895    0.2285 C   0  0  0  0  0  0  0  0  0  0  0  0
    1.5745    0.4220   -0.4133 C   0  0  0  0  0  0  0  0  0  0  0  0
    2.3998    1.2561   -0.9908 C   0  0  0  0  0  0  0  0  0  0  0  0
   -2.6816    2.2817    0.2740 H   0  0  0  0  0  0  0  0  0  0  0  0
   -1.0439   -1.5666   -1.1773 H   0  0  0  0  0  0  0  0  0  0  0  0
   -2.2237   -2.1318    0.1626 H   0  0  0  0  0  0  0  0  0  0  0  0
    0.0757   -2.3264    1.1479 H   0  0  0  0  0  0  0  0  0  0  0  0
   -0.6706   -0.7464    1.7696 H   0  0  0  0  0  0  0  0  0  0  0  0
    2.9773    1.8896   -0.1771 H   0  0  0  0  0  0  0  0  0  0  0  0
    3.1855    0.9415   -1.6574 H   0  0  0  0  0  0  0  0  0  0  0  0
    1.8242    2.1201   -1.5209 H   0  0  0  0  0  0  0  0  0  0  0  0
  1  2  3  0
  2  3  1  0
  3  4  1  0
  4  5  1  0
  5  6  3  0
  6  7  1  0
  1  8  1  0
  3  9  1  0
  3 10  1  0
  4 11  1  0
  4 12  1  0
  7 13  1  0
  7 14  1  0
  7 15  1  0
M  END
