
     RDKit          3D

 23 22  0  0  0  0  0  0  0  0999 V2000
    4.0663   -1.4838   -0.4228 C   0  0  0  0  0  0  0  0  0  0  0  0
    2.9108   -1.2344   -0.6634 C   0  0  0  0  0  0  0  0  0  0  0  0
    1.4887   -0.9433   -0.9765 C   0  0  0  0  0  0  0  0  0  0  0  0
    1.2328    0.5416   -0.8708 C   0  0  0  0  0  0  0  0  0  0  0  0
   -0.1573    0.9492   -1.1695 C   0  0  0  0  0  0  0  0  0  0  0  0
   -1.2403    0.3968   -0.3309 C   0  0  0  0  0  0  0  0  0  0  0  0
   -1.3312   -0.9877   -0.3639 O   0  0  0  0  0  0  0  0  0  0  0  0
   -1.2354    0.8272    1.1006 C   0  0  0  0  0  0  0  0  0  0  0  0
   -2.4109    0.1610    1.7880 C   0  0  0  0  0  0  0  0  0  0  0  0
    5.0722   -1.7065   -0.2027 H   0  0  0  0  0  0  0  0  0  0  0  0
    1.2156   -1.3109   -1.9855 H   0  0  0  0  0  0  0  0  0  0  0  0
    0.9249   -1.4916   -0.1811 H   0  0  0  0  0  0  0  0  0  0  0  0
    1.6231    0.8934    0.1025 H   0  0  0  0  0  0  0  0  0  0  0  0
    1.8911    1.0217   -1.6420 H   0  0  0  0  0  0  0  0  0  0  0  0
   -0.3641    0.6228   -2.2340 H   0  0  0  0  0  0  0  0  0  0  0  0
   -0.2149    2.0618   -1.2316 H   0  0  0  0  0  0  0  0  0  0  0  0
   -2.2122    0.7696   -0.7709 H   0  0  0  0  0  0  0  0  0  0  0  0
   -1.3655   -1.3794    0.5266 H   0  0  0  0  0  0  0  0  0  0  0  0
   -1.3569    1.9130    1.2472 H   0  0  0  0  0  0  0  0  0  0  0  0
   -0.3217    0.4434    1.5997 H   0  0  0  0  0  0  0  0  0  0  0  0
   -2.0865   -0.6928    2.4160 H   0  0  0  0  0  0  0  0  0  0  0  0
   -3.1332   -0.2632    1.0322 H   0  0  0  0  0  0  0  0  0  0  0  0
   -2.9953    0.8921    2.4113 H   0  0  0  0  0  0  0  0  0  0  0  0
  1  2  3  0
  2  3  1  0
  3  4  1  0
  4  5  1  0
  5  6  1  0
  6  7  1  0
  6  8  1  0
  8  9  1  0
  1 10  1  0
  3 11  1  0
  3 12  1  0
  4 13  1  0
  4 14  1  0
  5 15  1  0
  5 16  1  0
  6 17  1  0
  7 18  1  0
  8 19  1  0
  8 20  1  0
  9 21  1  0
  9 22  1  0
  9 23  1  0
M  END
