
     RDKit          3D

 15 14  0  0  0  0  0  0  0  0999 V2000
    1.1195   -1.1584    2.7048 C   0  0  0  0  0  0  0  0  0  0  0  0
    0.6955   -0.5903    1.7229 C   0  0  0  0  0  0  0  0  0  0  0  0
    0.1536    0.1081    0.5316 C   0  0  0  0  0  0  0  0  0  0  0  0
    0.6830    1.4815    0.5950 C   0  0  0  0  0  0  0  0  0  0  0  0
    1.1074    2.6341    0.6369 C   0  0  0  0  0  0  0  0  0  0  0  0
    0.5726   -0.5375   -0.6077 O   0  0  0  0  0  0  0  0  0  0  0  0
   -0.4200   -1.0899   -1.3698 C   0  0  0  0  0  0  0  0  0  0  0  0
   -1.4414   -0.1032   -1.8214 C   0  0  0  0  0  0  0  0  0  0  0  0
   -2.3966   -0.3525   -2.5030 O   0  0  0  0  0  0  0  0  0  0  0  0
    1.5030   -1.6453    3.5483 H   0  0  0  0  0  0  0  0  0  0  0  0
   -0.9356    0.1095    0.6606 H   0  0  0  0  0  0  0  0  0  0  0  0
    1.4600    3.6366    0.6634 H   0  0  0  0  0  0  0  0  0  0  0  0
    0.0801   -1.4341   -2.3282 H   0  0  0  0  0  0  0  0  0  0  0  0
   -0.8959   -1.9889   -0.9419 H   0  0  0  0  0  0  0  0  0  0  0  0
   -1.2853    0.9305   -1.4915 H   0  0  0  0  0  0  0  0  0  0  0  0
  1  2  3  0
  2  3  1  0
  3  4  1  0
  4  5  3  0
  3  6  1  0
  6  7  1  0
  7  8  1  0
  8  9  2  0
  1 10  1  0
  3 11  1  0
  5 12  1  0
  7 13  1  0
  7 14  1  0
  8 15  1  0
M  END
