
     RDKit          3D

 19 19  0  0  0  0  0  0  0  0999 V2000
    3.0604    1.3901   -1.5640 C   0  0  0  0  0  0  0  0  0  0  0  0
    2.0932    1.3049   -0.8357 C   0  0  0  0  0  0  0  0  0  0  0  0
    0.9294    1.2166    0.0629 C   0  0  0  0  0  0  0  0  0  0  0  0
    0.4542   -0.1986    0.0599 C   0  0  0  0  0  0  0  0  0  0  0  0
   -0.7361   -0.6004    0.8958 C   0  0  0  0  0  0  0  0  0  0  0  0
   -1.7777    0.2770    0.8285 O   0  0  0  0  0  0  0  0  0  0  0  0
   -2.8069   -0.2013    1.6363 C   0  0  0  0  0  0  0  0  0  0  0  0
    0.9275   -1.0822   -1.0406 C   0  0  0  0  0  0  0  0  0  0  0  0
    1.5016   -1.2128    0.2135 O   0  0  0  0  0  0  0  0  0  0  0  0
    3.9115    1.4618   -2.2067 H   0  0  0  0  0  0  0  0  0  0  0  0
    1.1855    1.5913    1.0755 H   0  0  0  0  0  0  0  0  0  0  0  0
    0.1386    1.8482   -0.3822 H   0  0  0  0  0  0  0  0  0  0  0  0
   -0.3962   -0.6535    1.9659 H   0  0  0  0  0  0  0  0  0  0  0  0
   -1.0607   -1.6166    0.6278 H   0  0  0  0  0  0  0  0  0  0  0  0
   -2.3891   -0.2633    2.6662 H   0  0  0  0  0  0  0  0  0  0  0  0
   -3.7205    0.4142    1.5881 H   0  0  0  0  0  0  0  0  0  0  0  0
   -3.0992   -1.2452    1.3562 H   0  0  0  0  0  0  0  0  0  0  0  0
    1.5691   -0.6118   -1.8116 H   0  0  0  0  0  0  0  0  0  0  0  0
    0.2155   -1.8185   -1.4212 H   0  0  0  0  0  0  0  0  0  0  0  0
  1  2  3  0
  2  3  1  0
  3  4  1  0
  4  5  1  0
  5  6  1  0
  6  7  1  0
  4  8  1  0
  8  9  1  0
  9  4  1  0
  1 10  1  0
  3 11  1  0
  3 12  1  0
  5 13  1  0
  5 14  1  0
  7 15  1  0
  7 16  1  0
  7 17  1  0
  8 18  1  0
  8 19  1  0
M  END
