
     RDKit          3D

 19 19  0  0  0  0  0  0  0  0999 V2000
   -1.0157    2.3055    1.1127 C   0  0  0  0  0  0  0  0  0  0  0  0
   -0.6314    1.2568    0.6690 C   0  0  0  0  0  0  0  0  0  0  0  0
   -0.1781   -0.0315    0.1065 C   0  0  0  0  0  0  0  0  0  0  0  0
    1.2107    0.1399   -0.4680 C   0  0  0  0  0  0  0  0  0  0  0  0
   -1.0921   -0.3424   -0.8985 O   0  0  0  0  0  0  0  0  0  0  0  0
   -1.1102    0.6319   -1.8906 C   0  0  0  0  0  0  0  0  0  0  0  0
   -0.1766   -1.1048    1.1395 C   0  0  0  0  0  0  0  0  0  0  0  0
    0.9877   -2.0072    1.2430 C   0  0  0  0  0  0  0  0  0  0  0  0
    0.6866   -1.0163    2.2343 O   0  0  0  0  0  0  0  0  0  0  0  0
   -1.3615    3.2599    1.5359 H   0  0  0  0  0  0  0  0  0  0  0  0
    1.4385   -0.6044   -1.2528 H   0  0  0  0  0  0  0  0  0  0  0  0
    2.0107    0.1686    0.2948 H   0  0  0  0  0  0  0  0  0  0  0  0
    1.2132    1.1615   -0.9497 H   0  0  0  0  0  0  0  0  0  0  0  0
   -0.1274    0.7280   -2.3713 H   0  0  0  0  0  0  0  0  0  0  0  0
   -1.8237    0.2769   -2.6646 H   0  0  0  0  0  0  0  0  0  0  0  0
   -1.5352    1.5926   -1.5346 H   0  0  0  0  0  0  0  0  0  0  0  0
   -1.1872   -1.5547    1.3997 H   0  0  0  0  0  0  0  0  0  0  0  0
    0.7807   -3.0399    1.6037 H   0  0  0  0  0  0  0  0  0  0  0  0
    1.9109   -1.8205    0.6909 H   0  0  0  0  0  0  0  0  0  0  0  0
  1  2  3  0
  2  3  1  0
  3  4  1  0
  3  5  1  0
  5  6  1  0
  3  7  1  0
  7  8  1  0
  8  9  1  0
  9  7  1  0
  1 10  1  0
  4 11  1  0
  4 12  1  0
  4 13  1  0
  6 14  1  0
  6 15  1  0
  6 16  1  0
  7 17  1  0
  8 18  1  0
  8 19  1  0
M  END
