
     RDKit          3D

 23 23  0  0  0  0  0  0  0  0999 V2000
   -1.9676   -1.4932    1.4191 C   0  0  0  0  0  0  0  0  0  0  0  0
   -1.3749   -0.5694    0.8244 C   0  0  0  0  0  0  0  0  0  0  0  0
   -0.6749    0.4918    0.1451 C   0  0  0  0  0  0  0  0  0  0  0  0
   -1.5195    1.7302    0.1358 C   0  0  0  0  0  0  0  0  0  0  0  0
    0.5657    0.7683    0.9688 C   0  0  0  0  0  0  0  0  0  0  0  0
    1.7958    0.1577    0.3246 C   0  0  0  0  0  0  0  0  0  0  0  0
    1.4146   -1.2536   -0.0597 C   0  0  0  0  0  0  0  0  0  0  0  0
    0.5612   -1.1225   -1.3098 C   0  0  0  0  0  0  0  0  0  0  0  0
   -0.3230    0.0872   -1.2600 C   0  0  0  0  0  0  0  0  0  0  0  0
   -2.4627   -2.2836    1.9071 H   0  0  0  0  0  0  0  0  0  0  0  0
   -1.6905    2.0731   -0.9275 H   0  0  0  0  0  0  0  0  0  0  0  0
   -1.0469    2.5640    0.6486 H   0  0  0  0  0  0  0  0  0  0  0  0
   -2.5117    1.4996    0.5915 H   0  0  0  0  0  0  0  0  0  0  0  0
    0.7285    1.8554    1.0386 H   0  0  0  0  0  0  0  0  0  0  0  0
    0.4930    0.3641    1.9897 H   0  0  0  0  0  0  0  0  0  0  0  0
    2.0016    0.7322   -0.5994 H   0  0  0  0  0  0  0  0  0  0  0  0
    2.6113    0.1904    1.0686 H   0  0  0  0  0  0  0  0  0  0  0  0
    0.8140   -1.7786    0.6834 H   0  0  0  0  0  0  0  0  0  0  0  0
    2.3093   -1.8499   -0.3390 H   0  0  0  0  0  0  0  0  0  0  0  0
    1.2624   -1.0380   -2.1657 H   0  0  0  0  0  0  0  0  0  0  0  0
   -0.0745   -1.9970   -1.4972 H   0  0  0  0  0  0  0  0  0  0  0  0
   -1.1960   -0.0456   -1.8817 H   0  0  0  0  0  0  0  0  0  0  0  0
    0.2850    0.9175   -1.7053 H   0  0  0  0  0  0  0  0  0  0  0  0
  1  2  3  0
  2  3  1  0
  3  4  1  0
  3  5  1  0
  5  6  1  0
  6  7  1  0
  7  8  1  0
  8  9  1  0
  9  3  1  0
  1 10  1  0
  4 11  1  0
  4 12  1  0
  4 13  1  0
  5 14  1  0
  5 15  1  0
  6 16  1  0
  6 17  1  0
  7 18  1  0
  7 19  1  0
  8 20  1  0
  8 21  1  0
  9 22  1  0
  9 23  1  0
M  END
