
     RDKit          3D

 19 20  0  0  0  0  0  0  0  0999 V2000
    3.3071    0.8066    0.2615 C   0  0  0  0  0  0  0  0  0  0  0  0
    2.4158    0.0115    0.0115 C   0  0  0  0  0  0  0  0  0  0  0  0
    1.3405   -0.9333   -0.3116 C   0  0  0  0  0  0  0  0  0  0  0  0
    0.0949   -0.4125   -0.0588 C   0  0  0  0  0  0  0  0  0  0  0  0
   -0.4901    0.8284   -0.6922 C   0  0  0  0  0  0  0  0  0  0  0  0
   -1.6060    0.3053    0.1673 C   0  0  0  0  0  0  0  0  0  0  0  0
   -2.7458    0.7656    0.3613 O   0  0  0  0  0  0  0  0  0  0  0  0
   -0.5282    0.0094    1.1982 C   0  0  0  0  0  0  0  0  0  0  0  0
   -1.2300   -1.0501   -0.4093 C   0  0  0  0  0  0  0  0  0  0  0  0
    4.0722    1.5030    0.4873 H   0  0  0  0  0  0  0  0  0  0  0  0
    1.5643   -1.8609    0.2148 H   0  0  0  0  0  0  0  0  0  0  0  0
    1.4879   -1.1685   -1.4084 H   0  0  0  0  0  0  0  0  0  0  0  0
   -0.7162    0.6532   -1.7558 H   0  0  0  0  0  0  0  0  0  0  0  0
   -0.0420    1.7753   -0.4072 H   0  0  0  0  0  0  0  0  0  0  0  0
   -3.0379    1.6318   -0.0289 H   0  0  0  0  0  0  0  0  0  0  0  0
   -0.1958    0.9300    1.6911 H   0  0  0  0  0  0  0  0  0  0  0  0
   -0.7836   -0.7649    1.9314 H   0  0  0  0  0  0  0  0  0  0  0  0
   -1.3609   -1.1591   -1.4892 H   0  0  0  0  0  0  0  0  0  0  0  0
   -1.5462   -1.8706    0.2370 H   0  0  0  0  0  0  0  0  0  0  0  0
  1  2  3  0
  2  3  1  0
  3  4  1  0
  4  5  1  0
  5  6  1  0
  6  7  1  0
  6  8  1  0
  6  9  1  0
  8  4  1  0
  9  4  1  0
  1 10  1  0
  3 11  1  0
  3 12  1  0
  5 13  1  0
  5 14  1  0
  7 15  1  0
  8 16  1  0
  8 17  1  0
  9 18  1  0
  9 19  1  0
M  END
