
     RDKit          3D

 15 16  0  0  0  0  0  0  0  0999 V2000
    1.9495   -2.0327   -1.6727 C   0  0  0  0  0  0  0  0  0  0  0  0
    1.3232   -0.8913   -1.3044 C   0  0  0  0  0  0  0  0  0  0  0  0
    0.6219    0.3718   -0.8692 C   0  0  0  0  0  0  0  0  0  0  0  0
   -0.7794    0.3413   -0.6742 C   0  0  0  0  0  0  0  0  0  0  0  0
   -1.6322    0.8626    0.4014 C   0  0  0  0  0  0  0  0  0  0  0  0
   -2.4545    1.7330    0.6838 O   0  0  0  0  0  0  0  0  0  0  0  0
   -0.9879   -0.2851    1.1486 C   0  0  0  0  0  0  0  0  0  0  0  0
    0.2498    0.3627    0.5095 C   0  0  0  0  0  0  0  0  0  0  0  0
    0.4667    1.5755    1.1666 O   0  0  0  0  0  0  0  0  0  0  0  0
    2.3076   -2.6634   -1.8707 H   0  0  0  0  0  0  0  0  0  0  0  0
    1.1099    1.2510   -1.3313 H   0  0  0  0  0  0  0  0  0  0  0  0
   -1.1955   -0.7191   -0.8769 H   0  0  0  0  0  0  0  0  0  0  0  0
   -0.9935   -0.2073    2.2302 H   0  0  0  0  0  0  0  0  0  0  0  0
   -1.1972   -1.2809    0.7061 H   0  0  0  0  0  0  0  0  0  0  0  0
    1.2117    1.5818    1.7623 H   0  0  0  0  0  0  0  0  0  0  0  0
  1  2  3  0
  2  3  1  0
  3  4  1  0
  4  5  1  0
  5  6  2  0
  5  7  1  0
  7  8  1  0
  8  9  1  0
  8  3  1  0
  8  4  1  0
  1 10  1  0
  3 11  1  0
  4 12  1  0
  7 13  1  0
  7 14  1  0
  9 15  1  0
M  END
