
     RDKit          3D

 17 16  0  0  0  0  0  0  0  0999 V2000
   -1.8206    2.7029   -0.0519 C   0  0  0  0  0  0  0  0  0  0  0  0
   -1.4335    1.4051    0.0284 C   0  0  0  0  0  0  0  0  0  0  0  0
   -1.1034    0.2268    0.1074 C   0  0  0  0  0  0  0  0  0  0  0  0
   -2.1637   -0.8161   -0.1277 C   0  0  0  0  0  0  0  0  0  0  0  0
   -3.0083   -1.6219   -0.3151 C   0  0  0  0  0  0  0  0  0  0  0  0
    0.2701   -0.2741   -0.2582 C   0  0  0  0  0  0  0  0  0  0  0  0
    0.4180   -0.9738   -1.2557 O   0  0  0  0  0  0  0  0  0  0  0  0
    1.3908    0.0780    0.5950 C   0  0  0  0  0  0  0  0  0  0  0  0
    2.7118   -0.5404    0.2425 C   0  0  0  0  0  0  0  0  0  0  0  0
   -2.1228    3.7119   -0.1311 H   0  0  0  0  0  0  0  0  0  0  0  0
   -0.9840   -0.0391    1.3538 H   0  0  0  0  0  0  0  0  0  0  0  0
   -3.9581   -2.5512   -0.5119 H   0  0  0  0  0  0  0  0  0  0  0  0
    1.5760    1.1782    0.7702 H   0  0  0  0  0  0  0  0  0  0  0  0
    1.0811   -0.2827    1.6678 H   0  0  0  0  0  0  0  0  0  0  0  0
    3.3737    0.1977   -0.2385 H   0  0  0  0  0  0  0  0  0  0  0  0
    2.5528   -1.4395   -0.4243 H   0  0  0  0  0  0  0  0  0  0  0  0
    3.2201   -0.9617    1.1661 H   0  0  0  0  0  0  0  0  0  0  0  0
  1  2  3  0
  2  3  1  0
  3  4  1  0
  4  5  3  0
  3  6  1  0
  6  7  2  0
  6  8  1  0
  8  9  1  0
  1 10  1  0
  3 11  1  0
  5 12  1  0
  8 13  1  0
  8 14  1  0
  9 15  1  0
  9 16  1  0
  9 17  1  0
M  END
