
     RDKit          3D

 17 17  0  0  0  0  0  0  0  0999 V2000
   -1.4492    2.7616    0.3928 C   0  0  0  0  0  0  0  0  0  0  0  0
   -1.0249    1.6345    0.5310 C   0  0  0  0  0  0  0  0  0  0  0  0
   -0.5097    0.2746    0.6725 C   0  0  0  0  0  0  0  0  0  0  0  0
   -1.6332   -0.6725    0.3608 C   0  0  0  0  0  0  0  0  0  0  0  0
    0.6322    0.0766   -0.2749 C   0  0  0  0  0  0  0  0  0  0  0  0
    1.2589   -1.2924   -0.2303 C   0  0  0  0  0  0  0  0  0  0  0  0
    2.4609   -0.4937   -0.5878 C   0  0  0  0  0  0  0  0  0  0  0  0
    3.5294   -0.6787   -1.2271 O   0  0  0  0  0  0  0  0  0  0  0  0
    1.8777    0.5807    0.1109 O   0  0  0  0  0  0  0  0  0  0  0  0
   -1.8297    3.7610    0.2886 H   0  0  0  0  0  0  0  0  0  0  0  0
   -0.2039    0.1032    1.7169 H   0  0  0  0  0  0  0  0  0  0  0  0
   -1.3688   -1.6605    0.8317 H   0  0  0  0  0  0  0  0  0  0  0  0
   -1.7104   -0.7678   -0.7292 H   0  0  0  0  0  0  0  0  0  0  0  0
   -2.5864   -0.3497    0.8237 H   0  0  0  0  0  0  0  0  0  0  0  0
    0.3923    0.3571   -1.3089 H   0  0  0  0  0  0  0  0  0  0  0  0
    1.2974   -1.6738    0.8076 H   0  0  0  0  0  0  0  0  0  0  0  0
    0.8673   -1.9600   -0.9955 H   0  0  0  0  0  0  0  0  0  0  0  0
  1  2  3  0
  2  3  1  0
  3  4  1  0
  3  5  1  0
  5  6  1  0
  6  7  1  0
  7  8  2  0
  7  9  1  0
  9  5  1  0
  1 10  1  0
  3 11  1  0
  4 12  1  0
  4 13  1  0
  4 14  1  0
  5 15  1  0
  6 16  1  0
  6 17  1  0
M  END
