
     RDKit          3D

 19 20  0  0  0  0  0  0  0  0999 V2000
    2.8724   -1.3302    0.4517 C   0  0  0  0  0  0  0  0  0  0  0  0
    1.7994   -0.8258    0.2761 C   0  0  0  0  0  0  0  0  0  0  0  0
    0.5208   -0.2269    0.0422 C   0  0  0  0  0  0  0  0  0  0  0  0
    0.4794    1.1937   -0.4094 C   0  0  0  0  0  0  0  0  0  0  0  0
   -0.9039    1.7400   -0.0997 C   0  0  0  0  0  0  0  0  0  0  0  0
   -1.8490    0.7973   -0.4218 O   0  0  0  0  0  0  0  0  0  0  0  0
   -1.5326   -0.4881   -0.0584 C   0  0  0  0  0  0  0  0  0  0  0  0
   -0.3748   -1.0258   -0.9099 C   0  0  0  0  0  0  0  0  0  0  0  0
   -0.5403   -0.5202    1.1097 C   0  0  0  0  0  0  0  0  0  0  0  0
    3.8232   -1.7832    0.5915 H   0  0  0  0  0  0  0  0  0  0  0  0
    1.2893    1.8202   -0.0456 H   0  0  0  0  0  0  0  0  0  0  0  0
    0.5554    1.1805   -1.5356 H   0  0  0  0  0  0  0  0  0  0  0  0
   -0.9689    2.0731    0.9672 H   0  0  0  0  0  0  0  0  0  0  0  0
   -1.1203    2.6627   -0.6988 H   0  0  0  0  0  0  0  0  0  0  0  0
   -2.3566   -1.1782    0.0922 H   0  0  0  0  0  0  0  0  0  0  0  0
   -0.2300   -2.1087   -0.7217 H   0  0  0  0  0  0  0  0  0  0  0  0
   -0.3676   -0.6899   -1.9452 H   0  0  0  0  0  0  0  0  0  0  0  0
   -0.4201   -1.5494    1.4592 H   0  0  0  0  0  0  0  0  0  0  0  0
   -0.6760    0.2589    1.8565 H   0  0  0  0  0  0  0  0  0  0  0  0
  1  2  3  0
  2  3  1  0
  3  4  1  0
  4  5  1  0
  5  6  1  0
  6  7  1  0
  7  8  1  0
  7  9  1  0
  8  3  1  0
  9  3  1  0
  1 10  1  0
  4 11  1  0
  4 12  1  0
  5 13  1  0
  5 14  1  0
  7 15  1  0
  8 16  1  0
  8 17  1  0
  9 18  1  0
  9 19  1  0
M  END
