
     RDKit          3D

 21 21  0  0  0  0  0  0  0  0999 V2000
   -1.3748    2.3401    1.1094 C   0  0  0  0  0  0  0  0  0  0  0  0
   -1.3010    1.2924    0.5175 C   0  0  0  0  0  0  0  0  0  0  0  0
   -1.1849    0.0073   -0.2147 C   0  0  0  0  0  0  0  0  0  0  0  0
   -0.2698    0.1027   -1.4105 C   0  0  0  0  0  0  0  0  0  0  0  0
    0.9759    0.4763   -0.9812 O   0  0  0  0  0  0  0  0  0  0  0  0
    1.6061   -0.3432   -0.0930 C   0  0  0  0  0  0  0  0  0  0  0  0
    2.9715    0.3060    0.1922 C   0  0  0  0  0  0  0  0  0  0  0  0
   -1.2568   -1.2165    0.5832 C   0  0  0  0  0  0  0  0  0  0  0  0
   -2.4063   -0.8360   -0.2927 C   0  0  0  0  0  0  0  0  0  0  0  0
   -1.4540    3.2566    1.6335 H   0  0  0  0  0  0  0  0  0  0  0  0
   -0.2768   -0.8381   -1.9997 H   0  0  0  0  0  0  0  0  0  0  0  0
   -0.6550    0.9561   -2.0406 H   0  0  0  0  0  0  0  0  0  0  0  0
    1.0298   -0.4203    0.8744 H   0  0  0  0  0  0  0  0  0  0  0  0
    1.7520   -1.3846   -0.4454 H   0  0  0  0  0  0  0  0  0  0  0  0
    3.5408   -0.4264    0.7825 H   0  0  0  0  0  0  0  0  0  0  0  0
    3.4470    0.4540   -0.7897 H   0  0  0  0  0  0  0  0  0  0  0  0
    2.8102    1.2710    0.6934 H   0  0  0  0  0  0  0  0  0  0  0  0
   -0.5996   -2.0681    0.2828 H   0  0  0  0  0  0  0  0  0  0  0  0
   -1.4564   -1.1768    1.6919 H   0  0  0  0  0  0  0  0  0  0  0  0
   -3.3203   -0.4200    0.1643 H   0  0  0  0  0  0  0  0  0  0  0  0
   -2.5776   -1.3326   -1.2636 H   0  0  0  0  0  0  0  0  0  0  0  0
  1  2  3  0
  2  3  1  0
  3  4  1  0
  4  5  1  0
  5  6  1  0
  6  7  1  0
  3  8  1  0
  8  9  1  0
  9  3  1  0
  1 10  1  0
  4 11  1  0
  4 12  1  0
  6 13  1  0
  6 14  1  0
  7 15  1  0
  7 16  1  0
  7 17  1  0
  8 18  1  0
  8 19  1  0
  9 20  1  0
  9 21  1  0
M  END
