
     RDKit          3D

 19 19  0  0  0  0  0  0  0  0999 V2000
    1.5729    2.7365    0.1865 C   0  0  0  0  0  0  0  0  0  0  0  0
    1.1310    1.4524   -0.0762 C   0  0  0  0  0  0  0  0  0  0  0  0
    0.7271    0.2531   -0.3007 C   0  0  0  0  0  0  0  0  0  0  0  0
    1.6932   -0.8592   -0.3850 C   0  0  0  0  0  0  0  0  0  0  0  0
   -0.1349   -0.0852    1.0614 C   0  0  0  0  0  0  0  0  0  0  0  0
   -1.2731    0.6702    1.0232 O   0  0  0  0  0  0  0  0  0  0  0  0
   -2.1630   -0.0703    0.1849 C   0  0  0  0  0  0  0  0  0  0  0  0
   -1.2901   -0.7337   -0.8008 C   0  0  0  0  0  0  0  0  0  0  0  0
   -0.2937    0.0942   -1.3142 O   0  0  0  0  0  0  0  0  0  0  0  0
    1.9201    3.6902    0.3822 H   0  0  0  0  0  0  0  0  0  0  0  0
    1.5936   -1.3671   -1.4042 H   0  0  0  0  0  0  0  0  0  0  0  0
    1.6278   -1.6499    0.3947 H   0  0  0  0  0  0  0  0  0  0  0  0
    2.7610   -0.4671   -0.4408 H   0  0  0  0  0  0  0  0  0  0  0  0
   -0.2356   -1.1108    1.1706 H   0  0  0  0  0  0  0  0  0  0  0  0
    0.5234    0.3069    1.8478 H   0  0  0  0  0  0  0  0  0  0  0  0
   -2.7804   -0.7723    0.7394 H   0  0  0  0  0  0  0  0  0  0  0  0
   -2.7716    0.7065   -0.3745 H   0  0  0  0  0  0  0  0  0  0  0  0
   -1.8926   -1.2299   -1.5620 H   0  0  0  0  0  0  0  0  0  0  0  0
   -0.7151   -1.5646   -0.3324 H   0  0  0  0  0  0  0  0  0  0  0  0
  1  2  3  0
  2  3  1  0
  3  4  1  0
  3  5  1  0
  5  6  1  0
  6  7  1  0
  7  8  1  0
  8  9  1  0
  9  3  1  0
  1 10  1  0
  4 11  1  0
  4 12  1  0
  4 13  1  0
  5 14  1  0
  5 15  1  0
  7 16  1  0
  7 17  1  0
  8 18  1  0
  8 19  1  0
M  END
