
     RDKit          3D

 19 18  0  0  0  0  0  0  0  0999 V2000
    3.2184    2.1356   -0.7245 C   0  0  0  0  0  0  0  0  0  0  0  0
    2.8957    0.9469   -0.7436 C   0  0  0  0  0  0  0  0  0  0  0  0
    2.4870   -0.4678   -0.7758 C   0  0  0  0  0  0  0  0  0  0  0  0
    1.2775   -0.7046    0.1098 C   0  0  0  0  0  0  0  0  0  0  0  0
    0.1344    0.1206   -0.3865 C   0  0  0  0  0  0  0  0  0  0  0  0
   -1.0462   -0.0810    0.4418 C   0  0  0  0  0  0  0  0  0  0  0  0
   -2.0541   -0.2413    1.1672 C   0  0  0  0  0  0  0  0  0  0  0  0
   -3.2243   -0.4168    1.9802 C   0  0  0  0  0  0  0  0  0  0  0  0
   -4.3071    0.3488    1.5243 O   0  0  0  0  0  0  0  0  0  0  0  0
    3.5071    3.1314   -0.7117 H   0  0  0  0  0  0  0  0  0  0  0  0
    3.3548   -1.0935   -0.5331 H   0  0  0  0  0  0  0  0  0  0  0  0
    2.2118   -0.6936   -1.8483 H   0  0  0  0  0  0  0  0  0  0  0  0
    1.5286   -0.4528    1.1747 H   0  0  0  0  0  0  0  0  0  0  0  0
    1.0595   -1.7918    0.0800 H   0  0  0  0  0  0  0  0  0  0  0  0
    0.4631    1.2011   -0.3166 H   0  0  0  0  0  0  0  0  0  0  0  0
   -0.0865   -0.0476   -1.4348 H   0  0  0  0  0  0  0  0  0  0  0  0
   -2.9805   -0.1831    3.0548 H   0  0  0  0  0  0  0  0  0  0  0  0
   -3.5421   -1.4889    2.0149 H   0  0  0  0  0  0  0  0  0  0  0  0
   -4.8970   -0.2216    0.9329 H   0  0  0  0  0  0  0  0  0  0  0  0
  1  2  3  0
  2  3  1  0
  3  4  1  0
  4  5  1  0
  5  6  1  0
  6  7  3  0
  7  8  1  0
  8  9  1  0
  1 10  1  0
  3 11  1  0
  3 12  1  0
  4 13  1  0
  4 14  1  0
  5 15  1  0
  5 16  1  0
  8 17  1  0
  8 18  1  0
  9 19  1  0
M  END
