
     RDKit          3D

 17 17  0  0  0  0  0  0  0  0999 V2000
    2.8631    0.2428   -0.1189 C   0  0  0  0  0  0  0  0  0  0  0  0
    1.8880   -0.4023   -0.4660 C   0  0  0  0  0  0  0  0  0  0  0  0
    0.6986   -1.1668   -0.8967 C   0  0  0  0  0  0  0  0  0  0  0  0
   -0.5261   -0.5234   -0.2186 C   0  0  0  0  0  0  0  0  0  0  0  0
   -0.3534   -0.5259    1.2894 C   0  0  0  0  0  0  0  0  0  0  0  0
   -1.5104   -0.8214    2.0181 O   0  0  0  0  0  0  0  0  0  0  0  0
   -0.3080    0.7746    0.5224 C   0  0  0  0  0  0  0  0  0  0  0  0
   -1.4866    1.6683    0.6512 C   0  0  0  0  0  0  0  0  0  0  0  0
   -1.4996    2.7403    0.0873 O   0  0  0  0  0  0  0  0  0  0  0  0
    3.7108    0.7905    0.1965 H   0  0  0  0  0  0  0  0  0  0  0  0
    0.8292   -2.2236   -0.6260 H   0  0  0  0  0  0  0  0  0  0  0  0
    0.5787   -1.0936   -1.9848 H   0  0  0  0  0  0  0  0  0  0  0  0
   -1.4894   -0.6504   -0.6810 H   0  0  0  0  0  0  0  0  0  0  0  0
    0.6046   -0.8289    1.7409 H   0  0  0  0  0  0  0  0  0  0  0  0
   -2.2816   -0.6244    1.4448 H   0  0  0  0  0  0  0  0  0  0  0  0
    0.6359    1.2460    0.1781 H   0  0  0  0  0  0  0  0  0  0  0  0
   -2.3537    1.3983    1.2400 H   0  0  0  0  0  0  0  0  0  0  0  0
  1  2  3  0
  2  3  1  0
  3  4  1  0
  4  5  1  0
  5  6  1  0
  5  7  1  0
  7  8  1  0
  8  9  2  0
  7  4  1  0
  1 10  1  0
  3 11  1  0
  3 12  1  0
  4 13  1  0
  5 14  1  0
  6 15  1  0
  7 16  1  0
  8 17  1  0
M  END
