
     RDKit          3D

 19 20  0  0  0  0  0  0  0  0999 V2000
    3.9139    1.3264    0.4799 C   0  0  0  0  0  0  0  0  0  0  0  0
    2.9827    0.6188    0.1329 C   0  0  0  0  0  0  0  0  0  0  0  0
    1.8499   -0.2109   -0.2898 C   0  0  0  0  0  0  0  0  0  0  0  0
    1.2743   -1.1387    0.6737 C   0  0  0  0  0  0  0  0  0  0  0  0
    0.5381    0.0972    0.4406 C   0  0  0  0  0  0  0  0  0  0  0  0
   -0.6460    0.2134   -0.4618 C   0  0  0  0  0  0  0  0  0  0  0  0
   -1.0573   -0.8232   -1.2576 O   0  0  0  0  0  0  0  0  0  0  0  0
   -1.9112   -0.4726   -0.2191 C   0  0  0  0  0  0  0  0  0  0  0  0
   -3.2054    0.2327   -0.6000 C   0  0  0  0  0  0  0  0  0  0  0  0
    4.7255    1.9488    0.7650 H   0  0  0  0  0  0  0  0  0  0  0  0
    1.7881   -0.4698   -1.3750 H   0  0  0  0  0  0  0  0  0  0  0  0
    0.8253   -2.0824    0.2636 H   0  0  0  0  0  0  0  0  0  0  0  0
    1.6807   -1.2975    1.6935 H   0  0  0  0  0  0  0  0  0  0  0  0
    0.5740    0.9073    1.2262 H   0  0  0  0  0  0  0  0  0  0  0  0
   -0.7332    1.2301   -0.9483 H   0  0  0  0  0  0  0  0  0  0  0  0
   -2.0469   -1.2623    0.5428 H   0  0  0  0  0  0  0  0  0  0  0  0
   -3.9128   -0.5220   -0.9866 H   0  0  0  0  0  0  0  0  0  0  0  0
   -2.9983    0.9755   -1.3940 H   0  0  0  0  0  0  0  0  0  0  0  0
   -3.6414    0.7292    0.2942 H   0  0  0  0  0  0  0  0  0  0  0  0
  1  2  3  0
  2  3  1  0
  3  4  1  0
  4  5  1  0
  5  6  1  0
  6  7  1  0
  7  8  1  0
  8  9  1  0
  5  3  1  0
  8  6  1  0
  1 10  1  0
  3 11  1  0
  4 12  1  0
  4 13  1  0
  5 14  1  0
  6 15  1  0
  8 16  1  0
  9 17  1  0
  9 18  1  0
  9 19  1  0
M  END
