
     RDKit          3D

 14 14  0  0  0  0  0  0  0  0999 V2000
    2.8915   -0.1296   -0.3346 C   0  0  0  0  0  0  0  0  0  0  0  0
    1.8288   -0.2038    0.3038 C   0  0  0  0  0  0  0  0  0  0  0  0
    0.6461   -0.2643    1.0259 C   0  0  0  0  0  0  0  0  0  0  0  0
    0.6069   -0.5082    2.2724 O   0  0  0  0  0  0  0  0  0  0  0  0
   -0.6672   -0.0618    0.3210 C   0  0  0  0  0  0  0  0  0  0  0  0
   -0.7996    1.3408   -0.2803 C   0  0  0  0  0  0  0  0  0  0  0  0
   -1.5417   -1.0845   -0.0218 C   0  0  0  0  0  0  0  0  0  0  0  0
   -0.4012   -0.8904   -0.9582 O   0  0  0  0  0  0  0  0  0  0  0  0
    3.8591   -0.0778   -0.9038 H   0  0  0  0  0  0  0  0  0  0  0  0
   -1.3334    1.3365   -1.2676 H   0  0  0  0  0  0  0  0  0  0  0  0
   -1.3821    1.9251    0.4808 H   0  0  0  0  0  0  0  0  0  0  0  0
    0.1933    1.7342   -0.4276 H   0  0  0  0  0  0  0  0  0  0  0  0
   -1.4529   -2.1448    0.3904 H   0  0  0  0  0  0  0  0  0  0  0  0
   -2.4476   -0.9712   -0.6003 H   0  0  0  0  0  0  0  0  0  0  0  0
  1  2  3  0
  2  3  1  0
  3  4  2  0
  3  5  1  0
  5  6  1  0
  5  7  1  0
  7  8  1  0
  8  5  1  0
  1  9  1  0
  6 10  1  0
  6 11  1  0
  6 12  1  0
  7 13  1  0
  7 14  1  0
M  END
