
     RDKit          3D

 11 10  0  0  0  0  0  0  0  0999 V2000
    1.7473   -1.2990   -2.7949 C   0  0  0  0  0  0  0  0  0  0  0  0
    1.2623   -0.8928   -1.9230 C   0  0  0  0  0  0  0  0  0  0  0  0
    0.7938   -0.4866   -1.0509 C   0  0  0  0  0  0  0  0  0  0  0  0
    0.0003    0.2234    0.4942 C   0  0  0  0  0  0  0  0  0  0  0  0
   -0.1566    0.3567    0.7998 C   0  0  0  0  0  0  0  0  0  0  0  0
   -1.7529    0.3518    1.6489 C   0  0  0  0  0  0  0  0  0  0  0  0
   -1.6644    0.8960    2.6435 O   0  0  0  0  0  0  0  0  0  0  0  0
    2.3211   -1.7758   -3.8608 H   0  0  0  0  0  0  0  0  0  0  0  0
    0.3009    0.9008    2.1187 H   0  0  0  0  0  0  0  0  0  0  0  0
   -0.5066    1.8917    0.9406 H   0  0  0  0  0  0  0  0  0  0  0  0
   -2.3452   -0.1662    0.9840 H   0  0  0  0  0  0  0  0  0  0  0  0
  1  2  3  0
  2  3  1  0
  3  4  3  0
  4  5  1  0
  5  6  1  0
  6  7  2  0
  1  8  1  0
  5  9  1  0
  5 10  1  0
  6 11  1  0
M  END
