
     RDKit          3D

 19 18  0  0  0  0  0  0  0  0999 V2000
   -3.3245   -0.8088    0.5910 C   0  0  0  0  0  0  0  0  0  0  0  0
   -2.3982   -1.0417    0.0039 C   0  0  0  0  0  0  0  0  0  0  0  0
   -1.2575   -1.3256   -0.7471 C   0  0  0  0  0  0  0  0  0  0  0  0
   -0.2515   -0.2489   -0.6226 C   0  0  0  0  0  0  0  0  0  0  0  0
    1.1182   -0.0951   -1.1895 C   0  0  0  0  0  0  0  0  0  0  0  0
    1.4914    1.2561   -0.4283 C   0  0  0  0  0  0  0  0  0  0  0  0
    1.5944    0.8330    1.0213 C   0  0  0  0  0  0  0  0  0  0  0  0
   -4.3231   -0.5587    1.2485 H   0  0  0  0  0  0  0  0  0  0  0  0
   -1.4175   -1.7888   -1.7376 H   0  0  0  0  0  0  0  0  0  0  0  0
   -0.7416   -2.2397   -0.1588 H   0  0  0  0  0  0  0  0  0  0  0  0
   -0.8071    0.6015   -1.3766 H   0  0  0  0  0  0  0  0  0  0  0  0
   -0.4307    0.3459    0.3384 H   0  0  0  0  0  0  0  0  0  0  0  0
    1.8574   -0.7788   -0.8373 H   0  0  0  0  0  0  0  0  0  0  0  0
    1.0948    0.1275   -2.2633 H   0  0  0  0  0  0  0  0  0  0  0  0
    0.5209    1.8865   -0.4547 H   0  0  0  0  0  0  0  0  0  0  0  0
    2.2799    1.7370   -0.8514 H   0  0  0  0  0  0  0  0  0  0  0  0
    1.3264   -0.2488    1.1284 H   0  0  0  0  0  0  0  0  0  0  0  0
    0.9938    1.4445    1.7057 H   0  0  0  0  0  0  0  0  0  0  0  0
    2.6746    0.9030    1.3637 H   0  0  0  0  0  0  0  0  0  0  0  0
  1  2  3  0
  2  3  1  0
  3  4  1  0
  4  5  1  0
  5  6  1  0
  6  7  1  0
  1  8  1  0
  3  9  1  0
  3 10  1  0
  4 11  1  0
  4 12  1  0
  5 13  1  0
  5 14  1  0
  6 15  1  0
  6 16  1  0
  7 17  1  0
  7 18  1  0
  7 19  1  0
M  END
