
     RDKit          3D

 17 18  0  0  0  0  0  0  0  0999 V2000
    1.9434   -0.7040   -1.6221 C   0  0  0  0  0  0  0  0  0  0  0  0
    1.5290   -0.0355   -0.7153 C   0  0  0  0  0  0  0  0  0  0  0  0
    1.0314    0.7897    0.4311 C   0  0  0  0  0  0  0  0  0  0  0  0
   -0.1941    1.5305   -0.1345 C   0  0  0  0  0  0  0  0  0  0  0  0
   -1.3895    0.5602    0.3138 C   0  0  0  0  0  0  0  0  0  0  0  0
   -0.9563    0.1402    1.5461 O   0  0  0  0  0  0  0  0  0  0  0  0
    0.0221   -0.4561    0.9445 C   0  0  0  0  0  0  0  0  0  0  0  0
   -0.9365   -0.6485   -0.2759 C   0  0  0  0  0  0  0  0  0  0  0  0
   -1.5304   -1.8448   -0.4275 O   0  0  0  0  0  0  0  0  0  0  0  0
    2.4580   -1.5495   -2.7908 H   0  0  0  0  0  0  0  0  0  0  0  0
    1.5899    1.0479    1.1542 H   0  0  0  0  0  0  0  0  0  0  0  0
   -0.2969    1.8611   -1.0947 H   0  0  0  0  0  0  0  0  0  0  0  0
   -0.3173    2.4589    0.6639 H   0  0  0  0  0  0  0  0  0  0  0  0
   -2.3112    1.0611    0.2435 H   0  0  0  0  0  0  0  0  0  0  0  0
    0.5431   -1.3658    1.1209 H   0  0  0  0  0  0  0  0  0  0  0  0
   -0.2936   -0.4690   -1.2716 H   0  0  0  0  0  0  0  0  0  0  0  0
   -0.8910   -2.3764   -1.0940 H   0  0  0  0  0  0  0  0  0  0  0  0
  1  2  3  0
  2  3  1  0
  3  4  1  0
  4  5  1  0
  5  6  1  0
  6  7  1  0
  7  8  1  0
  8  9  1  0
  7  3  1  0
  8  5  1  0
  1 10  1  0
  3 11  1  0
  4 12  1  0
  4 13  1  0
  5 14  1  0
  7 15  1  0
  8 16  1  0
  9 17  1  0
M  END
