
     RDKit          3D

 21 21  0  0  0  0  0  0  0  0999 V2000
    2.8067    1.2755   -0.8902 C   0  0  0  0  0  0  0  0  0  0  0  0
    2.2164    0.4810   -0.2015 C   0  0  0  0  0  0  0  0  0  0  0  0
    1.5254   -0.4903    0.6345 C   0  0  0  0  0  0  0  0  0  0  0  0
    0.7159   -1.5959   -0.0441 C   0  0  0  0  0  0  0  0  0  0  0  0
    0.0571   -0.5115    0.7225 C   0  0  0  0  0  0  0  0  0  0  0  0
   -0.4343   -0.9358    1.9851 O   0  0  0  0  0  0  0  0  0  0  0  0
   -0.8186    0.5149    0.0872 C   0  0  0  0  0  0  0  0  0  0  0  0
   -2.2551    0.1239    0.4177 C   0  0  0  0  0  0  0  0  0  0  0  0
   -0.6540    0.7126   -1.3706 C   0  0  0  0  0  0  0  0  0  0  0  0
    3.3279    1.9992   -1.4953 H   0  0  0  0  0  0  0  0  0  0  0  0
    2.1324   -0.8689    1.4863 H   0  0  0  0  0  0  0  0  0  0  0  0
    0.7669   -2.6214    0.3754 H   0  0  0  0  0  0  0  0  0  0  0  0
    0.8249   -1.5826   -1.1376 H   0  0  0  0  0  0  0  0  0  0  0  0
    0.1024   -0.3912    2.6408 H   0  0  0  0  0  0  0  0  0  0  0  0
   -0.6306    1.4989    0.5902 H   0  0  0  0  0  0  0  0  0  0  0  0
   -2.9797    0.8998    0.1854 H   0  0  0  0  0  0  0  0  0  0  0  0
   -2.4407   -0.8248   -0.1579 H   0  0  0  0  0  0  0  0  0  0  0  0
   -2.2415   -0.1632    1.4970 H   0  0  0  0  0  0  0  0  0  0  0  0
    0.0134    1.5955   -1.5903 H   0  0  0  0  0  0  0  0  0  0  0  0
   -0.3783   -0.1611   -1.9581 H   0  0  0  0  0  0  0  0  0  0  0  0
   -1.6566    1.0455   -1.7764 H   0  0  0  0  0  0  0  0  0  0  0  0
  1  2  3  0
  2  3  1  0
  3  4  1  0
  4  5  1  0
  5  6  1  0
  5  7  1  0
  7  8  1  0
  7  9  1  0
  5  3  1  0
  1 10  1  0
  3 11  1  0
  4 12  1  0
  4 13  1  0
  6 14  1  0
  7 15  1  0
  8 16  1  0
  8 17  1  0
  8 18  1  0
  9 19  1  0
  9 20  1  0
  9 21  1  0
M  END
