
     RDKit          3D

 21 21  0  0  0  0  0  0  0  0999 V2000
    3.3327   -1.3632   -0.1817 C   0  0  0  0  0  0  0  0  0  0  0  0
    2.5340   -0.4642   -0.2443 C   0  0  0  0  0  0  0  0  0  0  0  0
    1.5725    0.6556   -0.3278 C   0  0  0  0  0  0  0  0  0  0  0  0
    2.2264    1.7607    0.2176 O   0  0  0  0  0  0  0  0  0  0  0  0
    0.4221    0.3216    0.5599 C   0  0  0  0  0  0  0  0  0  0  0  0
   -0.3462   -0.9332    0.2471 C   0  0  0  0  0  0  0  0  0  0  0  0
   -1.5712   -0.1340    0.6573 C   0  0  0  0  0  0  0  0  0  0  0  0
   -2.8111   -0.4192   -0.1424 C   0  0  0  0  0  0  0  0  0  0  0  0
   -0.8380    1.0747    0.1053 C   0  0  0  0  0  0  0  0  0  0  0  0
    4.0472   -2.1639   -0.1251 H   0  0  0  0  0  0  0  0  0  0  0  0
    1.2589    0.7998   -1.3590 H   0  0  0  0  0  0  0  0  0  0  0  0
    3.1756    1.8155   -0.0699 H   0  0  0  0  0  0  0  0  0  0  0  0
    0.5465    0.4441    1.6346 H   0  0  0  0  0  0  0  0  0  0  0  0
   -0.4199   -1.2110   -0.8067 H   0  0  0  0  0  0  0  0  0  0  0  0
   -0.0824   -1.7525    0.9426 H   0  0  0  0  0  0  0  0  0  0  0  0
   -1.7340   -0.0613    1.7541 H   0  0  0  0  0  0  0  0  0  0  0  0
   -2.6177   -1.2273   -0.8958 H   0  0  0  0  0  0  0  0  0  0  0  0
   -3.6361   -0.7172    0.5382 H   0  0  0  0  0  0  0  0  0  0  0  0
   -3.1646    0.4790   -0.6904 H   0  0  0  0  0  0  0  0  0  0  0  0
   -0.9151    1.0874   -0.9908 H   0  0  0  0  0  0  0  0  0  0  0  0
   -0.9795    2.0086    0.6362 H   0  0  0  0  0  0  0  0  0  0  0  0
  1  2  3  0
  2  3  1  0
  3  4  1  0
  3  5  1  0
  5  6  1  0
  6  7  1  0
  7  8  1  0
  7  9  1  0
  9  5  1  0
  1 10  1  0
  3 11  1  0
  4 12  1  0
  5 13  1  0
  6 14  1  0
  6 15  1  0
  7 16  1  0
  8 17  1  0
  8 18  1  0
  8 19  1  0
  9 20  1  0
  9 21  1  0
M  END
