
     RDKit          3D

 17 17  0  0  0  0  0  0  0  0999 V2000
    1.3093    2.6650    0.5614 C   0  0  0  0  0  0  0  0  0  0  0  0
    0.7942    1.5780    0.5897 C   0  0  0  0  0  0  0  0  0  0  0  0
    0.1485    0.2661    0.6372 C   0  0  0  0  0  0  0  0  0  0  0  0
    1.1782   -0.7695    1.0889 C   0  0  0  0  0  0  0  0  0  0  0  0
    0.5933   -1.9569    0.6181 O   0  0  0  0  0  0  0  0  0  0  0  0
    0.0399   -1.6716   -0.6198 C   0  0  0  0  0  0  0  0  0  0  0  0
   -0.1406   -2.5595   -1.5056 O   0  0  0  0  0  0  0  0  0  0  0  0
   -0.2913   -0.2129   -0.7278 C   0  0  0  0  0  0  0  0  0  0  0  0
   -1.7791   -0.0824   -0.9034 C   0  0  0  0  0  0  0  0  0  0  0  0
    1.7570    3.6482    0.5454 H   0  0  0  0  0  0  0  0  0  0  0  0
   -0.7370    0.2805    1.3058 H   0  0  0  0  0  0  0  0  0  0  0  0
    1.2614   -0.7376    2.2060 H   0  0  0  0  0  0  0  0  0  0  0  0
    2.1148   -0.5083    0.5798 H   0  0  0  0  0  0  0  0  0  0  0  0
    0.2946    0.2391   -1.5519 H   0  0  0  0  0  0  0  0  0  0  0  0
   -2.0767    0.8401   -1.4345 H   0  0  0  0  0  0  0  0  0  0  0  0
   -2.2729   -0.0642    0.0916 H   0  0  0  0  0  0  0  0  0  0  0  0
   -2.1937   -0.9540   -1.4809 H   0  0  0  0  0  0  0  0  0  0  0  0
  1  2  3  0
  2  3  1  0
  3  4  1  0
  4  5  1  0
  5  6  1  0
  6  7  2  0
  6  8  1  0
  8  9  1  0
  8  3  1  0
  1 10  1  0
  3 11  1  0
  4 12  1  0
  4 13  1  0
  8 14  1  0
  9 15  1  0
  9 16  1  0
  9 17  1  0
M  END
