
     RDKit          3D

 17 18  0  0  0  0  0  0  0  0999 V2000
    1.7226   -0.5176   -2.7852 C   0  0  0  0  0  0  0  0  0  0  0  0
    1.5402   -0.2184   -1.6692 C   0  0  0  0  0  0  0  0  0  0  0  0
    1.3219    0.1358   -0.2589 C   0  0  0  0  0  0  0  0  0  0  0  0
    0.1284    1.0051   -0.1002 C   0  0  0  0  0  0  0  0  0  0  0  0
   -0.7904    0.4061    0.6321 C   0  0  0  0  0  0  0  0  0  0  0  0
   -2.1366    1.0076    0.9933 C   0  0  0  0  0  0  0  0  0  0  0  0
   -0.2980   -0.9281    1.0330 C   0  0  0  0  0  0  0  0  0  0  0  0
   -0.0534   -1.8420   -0.1007 O   0  0  0  0  0  0  0  0  0  0  0  0
    1.0043   -1.0587    0.5865 C   0  0  0  0  0  0  0  0  0  0  0  0
    1.8786   -0.8095   -3.8553 H   0  0  0  0  0  0  0  0  0  0  0  0
    2.2350    0.6737    0.0765 H   0  0  0  0  0  0  0  0  0  0  0  0
    0.0007    2.0271   -0.5318 H   0  0  0  0  0  0  0  0  0  0  0  0
   -2.2196    1.9945    0.4997 H   0  0  0  0  0  0  0  0  0  0  0  0
   -2.9687    0.3780    0.5571 H   0  0  0  0  0  0  0  0  0  0  0  0
   -2.3050    1.0083    2.0753 H   0  0  0  0  0  0  0  0  0  0  0  0
   -0.8608   -1.5006    1.7945 H   0  0  0  0  0  0  0  0  0  0  0  0
    1.8007   -1.7615    0.9087 H   0  0  0  0  0  0  0  0  0  0  0  0
  1  2  3  0
  2  3  1  0
  3  4  1  0
  4  5  2  0
  5  6  1  0
  5  7  1  0
  7  8  1  0
  8  9  1  0
  9  3  1  0
  9  7  1  0
  1 10  1  0
  3 11  1  0
  4 12  1  0
  6 13  1  0
  6 14  1  0
  6 15  1  0
  7 16  1  0
  9 17  1  0
M  END
