
     RDKit          3D

 16 16  0  0  0  0  0  0  0  0999 V2000
   -1.2912    2.8604    0.6514 C   0  0  0  0  0  0  0  0  0  0  0  0
   -0.6050    1.8665    0.3167 C   0  0  0  0  0  0  0  0  0  0  0  0
    0.1828    0.7110   -0.0461 C   0  0  0  0  0  0  0  0  0  0  0  0
   -0.4417   -0.4238   -0.7869 C   0  0  0  0  0  0  0  0  0  0  0  0
   -1.7767   -0.4383   -1.0864 O   0  0  0  0  0  0  0  0  0  0  0  0
   -0.0660   -0.5894    0.6286 C   0  0  0  0  0  0  0  0  0  0  0  0
    1.0231   -1.4544    1.1494 C   0  0  0  0  0  0  0  0  0  0  0  0
    1.6766   -0.7261    2.1469 O   0  0  0  0  0  0  0  0  0  0  0  0
   -1.8943    3.7117    0.9352 H   0  0  0  0  0  0  0  0  0  0  0  0
    1.1921    0.9996   -0.4304 H   0  0  0  0  0  0  0  0  0  0  0  0
    0.1908   -0.9816   -1.5321 H   0  0  0  0  0  0  0  0  0  0  0  0
   -1.9956   -0.7862   -1.9954 H   0  0  0  0  0  0  0  0  0  0  0  0
   -0.9133   -0.5126    1.4062 H   0  0  0  0  0  0  0  0  0  0  0  0
    1.8041   -1.7379    0.3945 H   0  0  0  0  0  0  0  0  0  0  0  0
    0.5389   -2.3542    1.5794 H   0  0  0  0  0  0  0  0  0  0  0  0
    2.3753   -0.1446    1.7871 H   0  0  0  0  0  0  0  0  0  0  0  0
  1  2  3  0
  2  3  1  0
  3  4  1  0
  4  5  1  0
  4  6  1  0
  6  7  1  0
  7  8  1  0
  6  3  1  0
  1  9  1  0
  3 10  1  0
  4 11  1  0
  5 12  1  0
  6 13  1  0
  7 14  1  0
  7 15  1  0
  8 16  1  0
M  END
