
     RDKit          3D

 19 19  0  0  0  0  0  0  0  0999 V2000
   -0.1747    2.8974   -1.0240 C   0  0  0  0  0  0  0  0  0  0  0  0
   -0.1275    1.7438   -0.6662 C   0  0  0  0  0  0  0  0  0  0  0  0
   -0.0480    0.3611   -0.2268 C   0  0  0  0  0  0  0  0  0  0  0  0
   -1.4062   -0.2132    0.0912 C   0  0  0  0  0  0  0  0  0  0  0  0
   -1.3582   -1.6304    0.5448 C   0  0  0  0  0  0  0  0  0  0  0  0
    0.9243    0.1541    0.9249 C   0  0  0  0  0  0  0  0  0  0  0  0
    1.9613   -0.1145   -0.1490 C   0  0  0  0  0  0  0  0  0  0  0  0
    0.8262   -0.4991   -1.0484 C   0  0  0  0  0  0  0  0  0  0  0  0
    0.7553   -1.2309   -2.0313 O   0  0  0  0  0  0  0  0  0  0  0  0
   -0.2192    3.9121   -1.3198 H   0  0  0  0  0  0  0  0  0  0  0  0
   -1.8239    0.4137    0.9268 H   0  0  0  0  0  0  0  0  0  0  0  0
   -2.0612   -0.0324   -0.7782 H   0  0  0  0  0  0  0  0  0  0  0  0
   -1.6083   -1.7210    1.6412 H   0  0  0  0  0  0  0  0  0  0  0  0
   -0.3652   -2.0890    0.4224 H   0  0  0  0  0  0  0  0  0  0  0  0
   -2.1516   -2.2120    0.0189 H   0  0  0  0  0  0  0  0  0  0  0  0
    0.6775   -0.7200    1.5664 H   0  0  0  0  0  0  0  0  0  0  0  0
    1.0836    1.0992    1.4645 H   0  0  0  0  0  0  0  0  0  0  0  0
    2.6472   -0.9492    0.0615 H   0  0  0  0  0  0  0  0  0  0  0  0
    2.4687    0.8302   -0.4190 H   0  0  0  0  0  0  0  0  0  0  0  0
  1  2  3  0
  2  3  1  0
  3  4  1  0
  4  5  1  0
  3  6  1  0
  6  7  1  0
  7  8  1  0
  8  9  2  0
  8  3  1  0
  1 10  1  0
  4 11  1  0
  4 12  1  0
  5 13  1  0
  5 14  1  0
  5 15  1  0
  6 16  1  0
  6 17  1  0
  7 18  1  0
  7 19  1  0
M  END
