
     RDKit          3D

 21 21  0  0  0  0  0  0  0  0999 V2000
    2.9903    0.7177   -3.2462 C   0  0  0  0  0  0  0  0  0  0  0  0
    2.0425    0.5463   -2.3214 C   0  0  0  0  0  0  0  0  0  0  0  0
    1.0760    0.3615   -1.3527 C   0  0  0  0  0  0  0  0  0  0  0  0
    0.1174   -0.8760   -1.3230 C   0  0  0  0  0  0  0  0  0  0  0  0
   -0.0198   -0.1674    0.0063 C   0  0  0  0  0  0  0  0  0  0  0  0
   -0.8744   -0.3359    1.0829 C   0  0  0  0  0  0  0  0  0  0  0  0
   -2.3323   -0.2993    1.1882 C   0  0  0  0  0  0  0  0  0  0  0  0
   -0.2796    0.6090    2.2347 C   0  0  0  0  0  0  0  0  0  0  0  0
    0.0995    1.0444   -0.7972 O   0  0  0  0  0  0  0  0  0  0  0  0
    3.6035    0.8215   -3.8330 H   0  0  0  0  0  0  0  0  0  0  0  0
    1.8176    0.0141   -0.3826 H   0  0  0  0  0  0  0  0  0  0  0  0
   -0.7099   -0.6631   -2.0379 H   0  0  0  0  0  0  0  0  0  0  0  0
    0.6435   -1.8058   -1.3969 H   0  0  0  0  0  0  0  0  0  0  0  0
    1.0882   -0.2317    0.4499 H   0  0  0  0  0  0  0  0  0  0  0  0
   -0.5863   -1.3581    1.5832 H   0  0  0  0  0  0  0  0  0  0  0  0
   -2.8218   -1.2562    1.4462 H   0  0  0  0  0  0  0  0  0  0  0  0
   -2.7015    0.4202    1.9960 H   0  0  0  0  0  0  0  0  0  0  0  0
   -2.8508    0.0652    0.2556 H   0  0  0  0  0  0  0  0  0  0  0  0
   -0.0691    1.5753    1.6742 H   0  0  0  0  0  0  0  0  0  0  0  0
   -0.9539    0.6625    3.0536 H   0  0  0  0  0  0  0  0  0  0  0  0
    0.7209    0.1558    2.4354 H   0  0  0  0  0  0  0  0  0  0  0  0
  1  2  3  0
  2  3  1  0
  3  4  1  0
  4  5  1  0
  5  6  1  0
  6  7  1  0
  6  8  1  0
  5  9  1  0
  9  3  1  0
  1 10  1  0
  3 11  1  0
  4 12  1  0
  4 13  1  0
  5 14  1  0
  6 15  1  0
  7 16  1  0
  7 17  1  0
  7 18  1  0
  8 19  1  0
  8 20  1  0
  8 21  1  0
M  END
