
     RDKit          3D

 15 14  0  0  0  0  0  0  0  0999 V2000
    2.3404    0.7800   -1.5330 C   0  0  0  0  0  0  0  0  0  0  0  0
    1.3140    0.2461   -1.2293 C   0  0  0  0  0  0  0  0  0  0  0  0
    0.1033   -0.3869   -0.8453 C   0  0  0  0  0  0  0  0  0  0  0  0
    0.1579   -1.8201   -0.6975 C   0  0  0  0  0  0  0  0  0  0  0  0
    0.2024   -3.0486   -0.5624 C   0  0  0  0  0  0  0  0  0  0  0  0
   -0.4873    0.1411    0.4845 C   0  0  0  0  0  0  0  0  0  0  0  0
   -0.8128    1.4939    0.4472 O   0  0  0  0  0  0  0  0  0  0  0  0
   -1.4160    2.0160    1.6145 C   0  0  0  0  0  0  0  0  0  0  0  0
   -1.5879    1.1592    2.5514 O   0  0  0  0  0  0  0  0  0  0  0  0
    3.3034    1.2644   -1.8194 H   0  0  0  0  0  0  0  0  0  0  0  0
   -0.6478   -0.1386   -1.6635 H   0  0  0  0  0  0  0  0  0  0  0  0
    0.2243   -4.1258   -0.4359 H   0  0  0  0  0  0  0  0  0  0  0  0
   -1.3034   -0.5258    0.7241 H   0  0  0  0  0  0  0  0  0  0  0  0
    0.3118   -0.0864    1.2572 H   0  0  0  0  0  0  0  0  0  0  0  0
   -1.7024    3.0315    1.7072 H   0  0  0  0  0  0  0  0  0  0  0  0
  1  2  3  0
  2  3  1  0
  3  4  1  0
  4  5  3  0
  3  6  1  0
  6  7  1  0
  7  8  1  0
  8  9  2  0
  1 10  1  0
  3 11  1  0
  5 12  1  0
  6 13  1  0
  6 14  1  0
  8 15  1  0
M  END
