
     RDKit          3D

 17 17  0  0  0  0  0  0  0  0999 V2000
   -2.9428    0.6768   -0.2313 C   0  0  0  0  0  0  0  0  0  0  0  0
   -1.8501    0.3469   -0.6096 C   0  0  0  0  0  0  0  0  0  0  0  0
   -0.5317   -0.0379   -1.0517 C   0  0  0  0  0  0  0  0  0  0  0  0
   -0.3959   -1.4011   -1.2812 O   0  0  0  0  0  0  0  0  0  0  0  0
    0.2911   -1.5702   -0.0800 C   0  0  0  0  0  0  0  0  0  0  0  0
    0.4638   -0.0664    0.0714 C   0  0  0  0  0  0  0  0  0  0  0  0
   -0.0097    0.5026    1.3756 C   0  0  0  0  0  0  0  0  0  0  0  0
    1.7954    0.3840   -0.3503 C   0  0  0  0  0  0  0  0  0  0  0  0
    2.8920    0.7680   -0.6813 C   0  0  0  0  0  0  0  0  0  0  0  0
   -3.9142    0.9742    0.1205 H   0  0  0  0  0  0  0  0  0  0  0  0
   -0.1440    0.5285   -1.9428 H   0  0  0  0  0  0  0  0  0  0  0  0
    1.2492   -2.0867   -0.2381 H   0  0  0  0  0  0  0  0  0  0  0  0
   -0.3245   -2.0055    0.7452 H   0  0  0  0  0  0  0  0  0  0  0  0
   -0.5656    1.4521    1.2424 H   0  0  0  0  0  0  0  0  0  0  0  0
   -0.7353   -0.2219    1.8204 H   0  0  0  0  0  0  0  0  0  0  0  0
    0.8624    0.6408    2.0478 H   0  0  0  0  0  0  0  0  0  0  0  0
    3.8598    1.1156   -0.9570 H   0  0  0  0  0  0  0  0  0  0  0  0
  1  2  3  0
  2  3  1  0
  3  4  1  0
  4  5  1  0
  5  6  1  0
  6  7  1  0
  6  8  1  0
  8  9  3  0
  6  3  1  0
  1 10  1  0
  3 11  1  0
  5 12  1  0
  5 13  1  0
  7 14  1  0
  7 15  1  0
  7 16  1  0
  9 17  1  0
M  END
