
     RDKit          3D

 17 16  0  0  0  0  0  0  0  0999 V2000
    3.4789   -1.1614    1.2260 C   0  0  0  0  0  0  0  0  0  0  0  0
    3.1134   -0.4622    0.2850 C   0  0  0  0  0  0  0  0  0  0  0  0
    2.6534    0.3707   -0.8368 C   0  0  0  0  0  0  0  0  0  0  0  0
    1.1794    0.2093   -0.9024 C   0  0  0  0  0  0  0  0  0  0  0  0
   -0.0129    0.0581   -0.9511 C   0  0  0  0  0  0  0  0  0  0  0  0
   -1.4768   -0.1121   -0.9901 C   0  0  0  0  0  0  0  0  0  0  0  0
   -2.1193    0.9277   -0.1636 C   0  0  0  0  0  0  0  0  0  0  0  0
   -2.6227    0.6443    1.2024 C   0  0  0  0  0  0  0  0  0  0  0  0
   -2.2432    2.0490   -0.6077 O   0  0  0  0  0  0  0  0  0  0  0  0
    3.8000   -1.7651    2.0323 H   0  0  0  0  0  0  0  0  0  0  0  0
    3.1515   -0.0199   -1.7476 H   0  0  0  0  0  0  0  0  0  0  0  0
    2.9534    1.4210   -0.7128 H   0  0  0  0  0  0  0  0  0  0  0  0
   -1.6721   -1.1194   -0.5412 H   0  0  0  0  0  0  0  0  0  0  0  0
   -1.8515   -0.1326   -2.0329 H   0  0  0  0  0  0  0  0  0  0  0  0
   -2.2435   -0.3567    1.5641 H   0  0  0  0  0  0  0  0  0  0  0  0
   -3.7389    0.5806    1.2352 H   0  0  0  0  0  0  0  0  0  0  0  0
   -2.3490    1.4329    1.9412 H   0  0  0  0  0  0  0  0  0  0  0  0
  1  2  3  0
  2  3  1  0
  3  4  1  0
  4  5  3  0
  5  6  1  0
  6  7  1  0
  7  8  1  0
  7  9  2  0
  1 10  1  0
  3 11  1  0
  3 12  1  0
  6 13  1  0
  6 14  1  0
  8 15  1  0
  8 16  1  0
  8 17  1  0
M  END
