
     RDKit          3D

 16 16  0  0  0  0  0  0  0  0999 V2000
    3.1480    0.7214   -0.5333 C   0  0  0  0  0  0  0  0  0  0  0  0
    2.0137    0.7337   -0.1275 C   0  0  0  0  0  0  0  0  0  0  0  0
    0.6297    0.7714    0.3578 C   0  0  0  0  0  0  0  0  0  0  0  0
   -0.2566    1.0546   -0.6486 O   0  0  0  0  0  0  0  0  0  0  0  0
   -1.0299   -0.0751   -0.3232 C   0  0  0  0  0  0  0  0  0  0  0  0
   -2.1962    0.2076    0.5837 C   0  0  0  0  0  0  0  0  0  0  0  0
    0.1131   -0.6651    0.4720 C   0  0  0  0  0  0  0  0  0  0  0  0
    0.8717   -1.5851   -0.2256 O   0  0  0  0  0  0  0  0  0  0  0  0
    4.1671    0.7132   -0.8782 H   0  0  0  0  0  0  0  0  0  0  0  0
    0.4476    1.3958    1.2369 H   0  0  0  0  0  0  0  0  0  0  0  0
   -1.3229   -0.6312   -1.2264 H   0  0  0  0  0  0  0  0  0  0  0  0
   -2.8427   -0.7149    0.5514 H   0  0  0  0  0  0  0  0  0  0  0  0
   -1.8904    0.2992    1.6539 H   0  0  0  0  0  0  0  0  0  0  0  0
   -2.8091    1.0624    0.2661 H   0  0  0  0  0  0  0  0  0  0  0  0
   -0.0794   -0.9049    1.5115 H   0  0  0  0  0  0  0  0  0  0  0  0
    1.0363   -2.3830    0.3535 H   0  0  0  0  0  0  0  0  0  0  0  0
  1  2  3  0
  2  3  1  0
  3  4  1  0
  4  5  1  0
  5  6  1  0
  5  7  1  0
  7  8  1  0
  7  3  1  0
  1  9  1  0
  3 10  1  0
  5 11  1  0
  6 12  1  0
  6 13  1  0
  6 14  1  0
  7 15  1  0
  8 16  1  0
M  END
