
     RDKit          3D

 20 19  0  0  0  0  0  0  0  0999 V2000
    2.3221   -1.7007   -0.8865 C   0  0  0  0  0  0  0  0  0  0  0  0
    1.7750   -0.6260   -0.6774 C   0  0  0  0  0  0  0  0  0  0  0  0
    1.1474    0.6576   -0.4404 C   0  0  0  0  0  0  0  0  0  0  0  0
    0.5653    1.2156   -1.7239 C   0  0  0  0  0  0  0  0  0  0  0  0
    0.0941    0.5907    0.6210 C   0  0  0  0  0  0  0  0  0  0  0  0
   -1.0328   -0.3419    0.3296 C   0  0  0  0  0  0  0  0  0  0  0  0
   -1.9933   -0.2721    1.5143 C   0  0  0  0  0  0  0  0  0  0  0  0
   -0.6638   -1.6513    0.1679 O   0  0  0  0  0  0  0  0  0  0  0  0
    2.8074   -2.6251   -1.0648 H   0  0  0  0  0  0  0  0  0  0  0  0
    1.9081    1.3980   -0.1004 H   0  0  0  0  0  0  0  0  0  0  0  0
    1.4031    1.2636   -2.4592 H   0  0  0  0  0  0  0  0  0  0  0  0
    0.2927    2.2841   -1.5081 H   0  0  0  0  0  0  0  0  0  0  0  0
   -0.3027    0.6658   -2.0880 H   0  0  0  0  0  0  0  0  0  0  0  0
   -0.3292    1.6075    0.7613 H   0  0  0  0  0  0  0  0  0  0  0  0
    0.5451    0.3025    1.5925 H   0  0  0  0  0  0  0  0  0  0  0  0
   -1.6299   -0.0210   -0.5584 H   0  0  0  0  0  0  0  0  0  0  0  0
   -2.9902   -0.6447    1.2764 H   0  0  0  0  0  0  0  0  0  0  0  0
   -1.5768   -0.8892    2.3297 H   0  0  0  0  0  0  0  0  0  0  0  0
   -2.0575    0.7764    1.9051 H   0  0  0  0  0  0  0  0  0  0  0  0
   -0.2841   -1.9899    1.0094 H   0  0  0  0  0  0  0  0  0  0  0  0
  1  2  3  0
  2  3  1  0
  3  4  1  0
  3  5  1  0
  5  6  1  0
  6  7  1  0
  6  8  1  0
  1  9  1  0
  3 10  1  0
  4 11  1  0
  4 12  1  0
  4 13  1  0
  5 14  1  0
  5 15  1  0
  6 16  1  0
  7 17  1  0
  7 18  1  0
  7 19  1  0
  8 20  1  0
M  END
