
     RDKit          3D

 19 19  0  0  0  0  0  0  0  0999 V2000
   -0.0064    2.4336    1.1116 C   0  0  0  0  0  0  0  0  0  0  0  0
   -0.1335    1.3168    0.6631 C   0  0  0  0  0  0  0  0  0  0  0  0
   -0.2920   -0.0302    0.1135 C   0  0  0  0  0  0  0  0  0  0  0  0
   -1.4343   -0.6189    0.5819 O   0  0  0  0  0  0  0  0  0  0  0  0
   -1.5031   -0.7698    1.9449 C   0  0  0  0  0  0  0  0  0  0  0  0
    0.9345   -0.8584    0.2688 C   0  0  0  0  0  0  0  0  0  0  0  0
    1.7058   -0.7633   -0.8045 C   0  0  0  0  0  0  0  0  0  0  0  0
    1.0432    0.1463   -1.7632 C   0  0  0  0  0  0  0  0  0  0  0  0
   -0.4188    0.0187   -1.4221 C   0  0  0  0  0  0  0  0  0  0  0  0
    0.0974    3.4104    1.5110 H   0  0  0  0  0  0  0  0  0  0  0  0
   -2.4852   -1.2600    2.1784 H   0  0  0  0  0  0  0  0  0  0  0  0
   -1.4266    0.1911    2.5097 H   0  0  0  0  0  0  0  0  0  0  0  0
   -0.7350   -1.4982    2.3319 H   0  0  0  0  0  0  0  0  0  0  0  0
    1.1880   -1.4676    1.1332 H   0  0  0  0  0  0  0  0  0  0  0  0
    2.6769   -1.2700   -0.9676 H   0  0  0  0  0  0  0  0  0  0  0  0
    1.3888    1.1743   -1.5096 H   0  0  0  0  0  0  0  0  0  0  0  0
    1.2559   -0.1121   -2.8192 H   0  0  0  0  0  0  0  0  0  0  0  0
   -0.8397   -0.9408   -1.7261 H   0  0  0  0  0  0  0  0  0  0  0  0
   -1.0161    0.8980   -1.6961 H   0  0  0  0  0  0  0  0  0  0  0  0
  1  2  3  0
  2  3  1  0
  3  4  1  0
  4  5  1  0
  3  6  1  0
  6  7  2  0
  7  8  1  0
  8  9  1  0
  9  3  1  0
  1 10  1  0
  5 11  1  0
  5 12  1  0
  5 13  1  0
  6 14  1  0
  7 15  1  0
  8 16  1  0
  8 17  1  0
  9 18  1  0
  9 19  1  0
M  END
