
     RDKit          3D

 19 19  0  0  0  0  0  0  0  0999 V2000
    2.7444   -0.3089   -1.1257 C   0  0  0  0  0  0  0  0  0  0  0  0
    1.7318   -0.6141   -0.5206 C   0  0  0  0  0  0  0  0  0  0  0  0
    0.5027   -0.9626    0.1934 C   0  0  0  0  0  0  0  0  0  0  0  0
    0.7618   -1.7469    1.3090 O   0  0  0  0  0  0  0  0  0  0  0  0
   -0.1955    0.3049    0.5723 C   0  0  0  0  0  0  0  0  0  0  0  0
   -1.4408    0.1708    1.2128 O   0  0  0  0  0  0  0  0  0  0  0  0
   -2.3482   -0.5063    0.4099 C   0  0  0  0  0  0  0  0  0  0  0  0
    0.5953    1.5430    0.8031 C   0  0  0  0  0  0  0  0  0  0  0  0
   -0.1106    1.4441   -0.4741 C   0  0  0  0  0  0  0  0  0  0  0  0
    3.6280   -0.0572   -1.6653 H   0  0  0  0  0  0  0  0  0  0  0  0
   -0.1996   -1.5260   -0.4871 H   0  0  0  0  0  0  0  0  0  0  0  0
    0.9821   -2.6693    0.9748 H   0  0  0  0  0  0  0  0  0  0  0  0
   -2.5248    0.0310   -0.5598 H   0  0  0  0  0  0  0  0  0  0  0  0
   -3.3251   -0.4759    0.9378 H   0  0  0  0  0  0  0  0  0  0  0  0
   -2.0974   -1.5712    0.2612 H   0  0  0  0  0  0  0  0  0  0  0  0
    0.2360    2.2992    1.5358 H   0  0  0  0  0  0  0  0  0  0  0  0
    1.6986    1.3924    0.8510 H   0  0  0  0  0  0  0  0  0  0  0  0
   -1.0255    2.0541   -0.6197 H   0  0  0  0  0  0  0  0  0  0  0  0
    0.3868    1.1988   -1.4358 H   0  0  0  0  0  0  0  0  0  0  0  0
  1  2  3  0
  2  3  1  0
  3  4  1  0
  3  5  1  0
  5  6  1  0
  6  7  1  0
  5  8  1  0
  8  9  1  0
  9  5  1  0
  1 10  1  0
  3 11  1  0
  4 12  1  0
  7 13  1  0
  7 14  1  0
  7 15  1  0
  8 16  1  0
  8 17  1  0
  9 18  1  0
  9 19  1  0
M  END
