
     RDKit          3D

 17 17  0  0  0  0  0  0  0  0999 V2000
    3.3332    0.8529    0.6437 C   0  0  0  0  0  0  0  0  0  0  0  0
    2.3312    0.2839    0.2343 C   0  0  0  0  0  0  0  0  0  0  0  0
    1.1105   -0.3797   -0.2604 C   0  0  0  0  0  0  0  0  0  0  0  0
    1.1182   -0.7803   -1.5848 O   0  0  0  0  0  0  0  0  0  0  0  0
    0.2962   -1.1941    0.7334 C   0  0  0  0  0  0  0  0  0  0  0  0
   -0.1913    0.1219    0.2579 C   0  0  0  0  0  0  0  0  0  0  0  0
   -1.4230    0.1187   -0.6265 C   0  0  0  0  0  0  0  0  0  0  0  0
   -2.5881    0.6684    0.1159 C   0  0  0  0  0  0  0  0  0  0  0  0
   -2.9559    0.2017    1.1980 O   0  0  0  0  0  0  0  0  0  0  0  0
    4.2089    1.3429    0.9898 H   0  0  0  0  0  0  0  0  0  0  0  0
    0.5197   -0.1345   -2.0702 H   0  0  0  0  0  0  0  0  0  0  0  0
   -0.1098   -2.1485    0.3809 H   0  0  0  0  0  0  0  0  0  0  0  0
    0.7056   -1.2307    1.7723 H   0  0  0  0  0  0  0  0  0  0  0  0
   -0.1754    0.9578    0.9653 H   0  0  0  0  0  0  0  0  0  0  0  0
   -1.2920    0.7004   -1.5575 H   0  0  0  0  0  0  0  0  0  0  0  0
   -1.6958   -0.9059   -0.9357 H   0  0  0  0  0  0  0  0  0  0  0  0
   -3.1922    1.5250   -0.2565 H   0  0  0  0  0  0  0  0  0  0  0  0
  1  2  3  0
  2  3  1  0
  3  4  1  0
  3  5  1  0
  5  6  1  0
  6  7  1  0
  7  8  1  0
  8  9  2  0
  6  3  1  0
  1 10  1  0
  4 11  1  0
  5 12  1  0
  5 13  1  0
  6 14  1  0
  7 15  1  0
  7 16  1  0
  8 17  1  0
M  END
