
     RDKit          3D

 19 19  0  0  0  0  0  0  0  0999 V2000
    1.9954   -2.8713   -0.5373 C   0  0  0  0  0  0  0  0  0  0  0  0
    1.1166   -2.1886   -0.5687 C   0  0  0  0  0  0  0  0  0  0  0  0
    0.0042   -1.3000   -0.5939 C   0  0  0  0  0  0  0  0  0  0  0  0
   -0.6863   -0.9855    0.6910 C   0  0  0  0  0  0  0  0  0  0  0  0
    0.1679    0.0723    0.0787 C   0  0  0  0  0  0  0  0  0  0  0  0
    1.4006    0.2484    0.7164 O   0  0  0  0  0  0  0  0  0  0  0  0
   -0.4081    1.2794   -0.5553 C   0  0  0  0  0  0  0  0  0  0  0  0
   -0.4329    2.4135    0.4311 C   0  0  0  0  0  0  0  0  0  0  0  0
   -1.6549    1.0813   -1.1335 O   0  0  0  0  0  0  0  0  0  0  0  0
    2.9598   -3.6414   -0.5032 H   0  0  0  0  0  0  0  0  0  0  0  0
   -0.6060   -1.3328   -1.5233 H   0  0  0  0  0  0  0  0  0  0  0  0
   -1.8035   -0.9468    0.5918 H   0  0  0  0  0  0  0  0  0  0  0  0
   -0.3268   -1.4424    1.6311 H   0  0  0  0  0  0  0  0  0  0  0  0
    1.4332   -0.2709    1.5614 H   0  0  0  0  0  0  0  0  0  0  0  0
    0.2813    1.5773   -1.4075 H   0  0  0  0  0  0  0  0  0  0  0  0
   -0.9476    3.3220    0.0035 H   0  0  0  0  0  0  0  0  0  0  0  0
   -1.0933    2.0865    1.2644 H   0  0  0  0  0  0  0  0  0  0  0  0
    0.5601    2.7336    0.7580 H   0  0  0  0  0  0  0  0  0  0  0  0
   -1.9596    0.1653   -1.1873 H   0  0  0  0  0  0  0  0  0  0  0  0
  1  2  3  0
  2  3  1  0
  3  4  1  0
  4  5  1  0
  5  6  1  0
  5  7  1  0
  7  8  1  0
  7  9  1  0
  5  3  1  0
  1 10  1  0
  3 11  1  0
  4 12  1  0
  4 13  1  0
  6 14  1  0
  7 15  1  0
  8 16  1  0
  8 17  1  0
  8 18  1  0
  9 19  1  0
M  END
