
     RDKit          3D

 20 19  0  0  0  0  0  0  0  0999 V2000
    0.2134    2.2398   -1.9439 C   0  0  0  0  0  0  0  0  0  0  0  0
   -0.2790    1.3854   -1.2903 C   0  0  0  0  0  0  0  0  0  0  0  0
   -0.9098    0.3235   -0.4956 C   0  0  0  0  0  0  0  0  0  0  0  0
   -1.1063   -0.8866   -1.3894 C   0  0  0  0  0  0  0  0  0  0  0  0
   -0.0238    0.0227    0.6749 C   0  0  0  0  0  0  0  0  0  0  0  0
    0.1122    1.3125    1.4828 C   0  0  0  0  0  0  0  0  0  0  0  0
    1.1921   -0.5056    0.3101 O   0  0  0  0  0  0  0  0  0  0  0  0
    1.4096   -1.7683    0.8555 C   0  0  0  0  0  0  0  0  0  0  0  0
    0.6755    3.0243   -2.5680 H   0  0  0  0  0  0  0  0  0  0  0  0
   -1.9394    0.6269   -0.1610 H   0  0  0  0  0  0  0  0  0  0  0  0
   -1.3353   -1.8088   -0.8071 H   0  0  0  0  0  0  0  0  0  0  0  0
   -0.3149   -1.0215   -2.1331 H   0  0  0  0  0  0  0  0  0  0  0  0
   -2.0529   -0.6940   -1.9781 H   0  0  0  0  0  0  0  0  0  0  0  0
   -0.5734   -0.6931    1.3323 H   0  0  0  0  0  0  0  0  0  0  0  0
    0.4665    1.0306    2.4934 H   0  0  0  0  0  0  0  0  0  0  0  0
    0.8100    2.0257    0.9966 H   0  0  0  0  0  0  0  0  0  0  0  0
   -0.8920    1.7623    1.6139 H   0  0  0  0  0  0  0  0  0  0  0  0
    1.3924   -1.7552    1.9652 H   0  0  0  0  0  0  0  0  0  0  0  0
    2.4404   -2.0823    0.5772 H   0  0  0  0  0  0  0  0  0  0  0  0
    0.7147   -2.5385    0.4645 H   0  0  0  0  0  0  0  0  0  0  0  0
  1  2  3  0
  2  3  1  0
  3  4  1  0
  3  5  1  0
  5  6  1  0
  5  7  1  0
  7  8  1  0
  1  9  1  0
  3 10  1  0
  4 11  1  0
  4 12  1  0
  4 13  1  0
  5 14  1  0
  6 15  1  0
  6 16  1  0
  6 17  1  0
  8 18  1  0
  8 19  1  0
  8 20  1  0
M  END
