
     RDKit          3D

 15 16  0  0  0  0  0  0  0  0999 V2000
    2.6781   -0.0087   -1.0834 C   0  0  0  0  0  0  0  0  0  0  0  0
    1.4998   -0.1146   -0.8161 C   0  0  0  0  0  0  0  0  0  0  0  0
    0.0557   -0.2497   -0.5143 C   0  0  0  0  0  0  0  0  0  0  0  0
   -0.8201    0.1548   -1.4484 O   0  0  0  0  0  0  0  0  0  0  0  0
   -1.6390    0.7684   -0.4946 C   0  0  0  0  0  0  0  0  0  0  0  0
   -0.5618    0.5810    0.5588 C   0  0  0  0  0  0  0  0  0  0  0  0
    0.0997    1.6627    1.0795 O   0  0  0  0  0  0  0  0  0  0  0  0
   -0.2500   -0.8056    0.8549 C   0  0  0  0  0  0  0  0  0  0  0  0
   -1.1443   -1.8646    0.8150 O   0  0  0  0  0  0  0  0  0  0  0  0
    3.7043    0.0895   -1.2992 H   0  0  0  0  0  0  0  0  0  0  0  0
   -2.5264    0.1390   -0.1719 H   0  0  0  0  0  0  0  0  0  0  0  0
   -1.8755    1.7824   -0.7566 H   0  0  0  0  0  0  0  0  0  0  0  0
    0.8886    1.4433    1.6032 H   0  0  0  0  0  0  0  0  0  0  0  0
    0.6443   -1.0197    1.4780 H   0  0  0  0  0  0  0  0  0  0  0  0
   -0.7533   -2.5581    0.1952 H   0  0  0  0  0  0  0  0  0  0  0  0
  1  2  3  0
  2  3  1  0
  3  4  1  0
  4  5  1  0
  5  6  1  0
  6  7  1  0
  6  8  1  0
  8  9  1  0
  6  3  1  0
  8  3  1  0
  1 10  1  0
  5 11  1  0
  5 12  1  0
  7 13  1  0
  8 14  1  0
  9 15  1  0
M  END
