
     RDKit          3D

 17 18  0  0  0  0  0  0  0  0999 V2000
    2.2264    2.6357    0.5077 C   0  0  0  0  0  0  0  0  0  0  0  0
    1.1543    1.8647    0.6053 C   0  0  0  0  0  0  0  0  0  0  0  0
    0.0027    1.0621    0.6959 C   0  0  0  0  0  0  0  0  0  0  0  0
   -0.3897    0.7008    1.9827 O   0  0  0  0  0  0  0  0  0  0  0  0
    0.1182   -0.3562    1.2853 C   0  0  0  0  0  0  0  0  0  0  0  0
   -0.8926   -0.8345    0.2404 C   0  0  0  0  0  0  0  0  0  0  0  0
   -0.5703   -2.1306   -0.4215 C   0  0  0  0  0  0  0  0  0  0  0  0
   -0.4796    0.3599   -0.5594 C   0  0  0  0  0  0  0  0  0  0  0  0
   -1.3679    1.0044   -1.3602 O   0  0  0  0  0  0  0  0  0  0  0  0
    3.0502    3.2502    0.4336 H   0  0  0  0  0  0  0  0  0  0  0  0
    1.1327   -0.7252    1.3136 H   0  0  0  0  0  0  0  0  0  0  0  0
   -1.9431   -0.7123    0.6315 H   0  0  0  0  0  0  0  0  0  0  0  0
   -1.0398   -3.0202    0.0555 H   0  0  0  0  0  0  0  0  0  0  0  0
    0.5276   -2.2038   -0.4636 H   0  0  0  0  0  0  0  0  0  0  0  0
   -0.9260   -2.0767   -1.4743 H   0  0  0  0  0  0  0  0  0  0  0  0
    0.4638    0.1389   -1.1599 H   0  0  0  0  0  0  0  0  0  0  0  0
   -1.0670    1.0428   -2.3124 H   0  0  0  0  0  0  0  0  0  0  0  0
  1  2  3  0
  2  3  1  0
  3  4  1  0
  4  5  1  0
  5  6  1  0
  6  7  1  0
  6  8  1  0
  8  9  1  0
  5  3  1  0
  8  3  1  0
  1 10  1  0
  5 11  1  0
  6 12  1  0
  7 13  1  0
  7 14  1  0
  7 15  1  0
  8 16  1  0
  9 17  1  0
M  END
