
     RDKit          3D

 23 22  0  0  0  0  0  0  0  0999 V2000
    2.5438   -2.6228   -1.2973 C   0  0  0  0  0  0  0  0  0  0  0  0
    1.6216   -1.8453   -1.4077 C   0  0  0  0  0  0  0  0  0  0  0  0
    0.5045   -0.9084   -1.5557 C   0  0  0  0  0  0  0  0  0  0  0  0
    0.2714   -0.2622   -0.2004 C   0  0  0  0  0  0  0  0  0  0  0  0
    1.5180    0.4506    0.2003 C   0  0  0  0  0  0  0  0  0  0  0  0
   -0.9248    0.6222   -0.3227 C   0  0  0  0  0  0  0  0  0  0  0  0
   -0.7508    1.6158   -1.2731 O   0  0  0  0  0  0  0  0  0  0  0  0
   -1.3104    1.2582    1.0057 C   0  0  0  0  0  0  0  0  0  0  0  0
   -1.6387    0.2015    2.0399 C   0  0  0  0  0  0  0  0  0  0  0  0
    3.3699   -3.2987   -1.1895 H   0  0  0  0  0  0  0  0  0  0  0  0
   -0.3991   -1.4617   -1.9008 H   0  0  0  0  0  0  0  0  0  0  0  0
    0.7816   -0.1303   -2.2862 H   0  0  0  0  0  0  0  0  0  0  0  0
    0.0519   -1.0330    0.5630 H   0  0  0  0  0  0  0  0  0  0  0  0
    1.8586    0.1490    1.2182 H   0  0  0  0  0  0  0  0  0  0  0  0
    1.2915    1.5377    0.2712 H   0  0  0  0  0  0  0  0  0  0  0  0
    2.3395    0.3629   -0.5451 H   0  0  0  0  0  0  0  0  0  0  0  0
   -1.7793   -0.0199   -0.6573 H   0  0  0  0  0  0  0  0  0  0  0  0
   -1.6264    1.8096   -1.6730 H   0  0  0  0  0  0  0  0  0  0  0  0
   -0.4288    1.8112    1.3814 H   0  0  0  0  0  0  0  0  0  0  0  0
   -2.1355    1.9661    0.8596 H   0  0  0  0  0  0  0  0  0  0  0  0
   -2.3001    0.6033    2.8307 H   0  0  0  0  0  0  0  0  0  0  0  0
   -0.6860   -0.1802    2.4418 H   0  0  0  0  0  0  0  0  0  0  0  0
   -2.1722   -0.6257    1.4970 H   0  0  0  0  0  0  0  0  0  0  0  0
  1  2  3  0
  2  3  1  0
  3  4  1  0
  4  5  1  0
  4  6  1  0
  6  7  1  0
  6  8  1  0
  8  9  1  0
  1 10  1  0
  3 11  1  0
  3 12  1  0
  4 13  1  0
  5 14  1  0
  5 15  1  0
  5 16  1  0
  6 17  1  0
  7 18  1  0
  8 19  1  0
  8 20  1  0
  9 21  1  0
  9 22  1  0
  9 23  1  0
M  END
