
     RDKit          3D

 21 22  0  0  0  0  0  0  0  0999 V2000
    4.0593    0.0041    0.3049 C   0  0  0  0  0  0  0  0  0  0  0  0
    2.8681    0.1238    0.4915 C   0  0  0  0  0  0  0  0  0  0  0  0
    1.4376    0.2456    0.7282 C   0  0  0  0  0  0  0  0  0  0  0  0
    0.6765   -1.0230    0.7625 C   0  0  0  0  0  0  0  0  0  0  0  0
   -0.8365   -0.9779    0.9047 C   0  0  0  0  0  0  0  0  0  0  0  0
   -0.9516    0.0821   -0.1402 C   0  0  0  0  0  0  0  0  0  0  0  0
   -1.8036   -0.2947   -1.3516 C   0  0  0  0  0  0  0  0  0  0  0  0
   -1.3645    1.4448    0.3352 C   0  0  0  0  0  0  0  0  0  0  0  0
    0.5416   -0.0067   -0.4035 C   0  0  0  0  0  0  0  0  0  0  0  0
    5.0993   -0.0952    0.1333 H   0  0  0  0  0  0  0  0  0  0  0  0
    1.1178    1.0231    1.4747 H   0  0  0  0  0  0  0  0  0  0  0  0
    1.1705   -1.9686    0.5461 H   0  0  0  0  0  0  0  0  0  0  0  0
   -1.2470   -1.9791    0.6155 H   0  0  0  0  0  0  0  0  0  0  0  0
   -1.1429   -0.6715    1.9401 H   0  0  0  0  0  0  0  0  0  0  0  0
   -2.8508   -0.0562   -1.0728 H   0  0  0  0  0  0  0  0  0  0  0  0
   -1.6730   -1.3507   -1.6326 H   0  0  0  0  0  0  0  0  0  0  0  0
   -1.4976    0.4149   -2.1542 H   0  0  0  0  0  0  0  0  0  0  0  0
   -1.4883    2.0802   -0.5895 H   0  0  0  0  0  0  0  0  0  0  0  0
   -2.3494    1.4313    0.8385 H   0  0  0  0  0  0  0  0  0  0  0  0
   -0.6565    1.9304    1.0000 H   0  0  0  0  0  0  0  0  0  0  0  0
    0.8908   -0.3567   -1.3898 H   0  0  0  0  0  0  0  0  0  0  0  0
  1  2  3  0
  2  3  1  0
  3  4  1  0
  4  5  1  0
  5  6  1  0
  6  7  1  0
  6  8  1  0
  6  9  1  0
  9  3  1  0
  9  4  1  0
  1 10  1  0
  3 11  1  0
  4 12  1  0
  5 13  1  0
  5 14  1  0
  7 15  1  0
  7 16  1  0
  7 17  1  0
  8 18  1  0
  8 19  1  0
  8 20  1  0
  9 21  1  0
M  END
