
     RDKit          3D

 19 18  0  0  0  0  0  0  0  0999 V2000
    3.5401    0.9458   -2.0969 C   0  0  0  0  0  0  0  0  0  0  0  0
    2.0202    1.0556   -1.4867 C   0  0  0  0  0  0  0  0  0  0  0  0
    0.7835    1.1409   -1.0002 C   0  0  0  0  0  0  0  0  0  0  0  0
    1.0389    2.4779   -0.7391 O   0  0  0  0  0  0  0  0  0  0  0  0
   -0.1901    0.3323   -0.8245 C   0  0  0  0  0  0  0  0  0  0  0  0
   -0.5293   -0.4456    0.4610 C   0  0  0  0  0  0  0  0  0  0  0  0
   -0.9707    0.4067    1.5891 C   0  0  0  0  0  0  0  0  0  0  0  0
   -1.3877   -1.5800    0.0628 C   0  0  0  0  0  0  0  0  0  0  0  0
    0.7475   -1.0019    0.9465 O   0  0  0  0  0  0  0  0  0  0  0  0
    4.6432    0.8789   -2.5322 H   0  0  0  0  0  0  0  0  0  0  0  0
   -0.7345   -0.1239   -1.7053 H   0  0  0  0  0  0  0  0  0  0  0  0
   -1.2336    1.1398   -0.7135 H   0  0  0  0  0  0  0  0  0  0  0  0
   -2.1022    0.5477    1.5952 H   0  0  0  0  0  0  0  0  0  0  0  0
   -0.7209   -0.0047    2.6090 H   0  0  0  0  0  0  0  0  0  0  0  0
   -0.5822    1.4480    1.5986 H   0  0  0  0  0  0  0  0  0  0  0  0
   -0.9410   -2.5371    0.6256 H   0  0  0  0  0  0  0  0  0  0  0  0
   -2.4195   -1.5637    0.4828 H   0  0  0  0  0  0  0  0  0  0  0  0
   -1.3242   -1.7992   -0.9749 H   0  0  0  0  0  0  0  0  0  0  0  0
    0.3624   -1.3176    1.8594 H   0  0  0  0  0  0  0  0  0  0  0  0
  1  2  3  0
  2  3  1  0
  3  4  2  0
  3  5  1  0
  5  6  1  0
  6  7  1  0
  6  8  1  0
  6  9  1  0
  1 10  1  0
  5 11  1  0
  5 12  1  0
  7 13  1  0
  7 14  1  0
  7 15  1  0
  8 16  1  0
  8 17  1  0
  8 18  1  0
  9 19  1  0
M  END
