
     RDKit          3D

 21 21  0  0  0  0  0  0  0  0999 V2000
   -2.7718   -0.8060    1.7024 C   0  0  0  0  0  0  0  0  0  0  0  0
   -1.7805   -0.5464    1.0653 C   0  0  0  0  0  0  0  0  0  0  0  0
   -0.5604   -0.2297    0.2803 C   0  0  0  0  0  0  0  0  0  0  0  0
   -0.5414   -0.9538   -1.0480 C   0  0  0  0  0  0  0  0  0  0  0  0
   -1.6404   -0.6092   -1.8429 O   0  0  0  0  0  0  0  0  0  0  0  0
    0.0519    1.0826    0.4785 C   0  0  0  0  0  0  0  0  0  0  0  0
    0.6476    1.9049   -0.6115 C   0  0  0  0  0  0  0  0  0  0  0  0
    0.7158   -0.1487    0.9913 C   0  0  0  0  0  0  0  0  0  0  0  0
    2.0287   -0.4933    0.3615 C   0  0  0  0  0  0  0  0  0  0  0  0
   -3.6522   -1.0173    2.2662 H   0  0  0  0  0  0  0  0  0  0  0  0
   -0.6041   -2.0525   -0.8963 H   0  0  0  0  0  0  0  0  0  0  0  0
    0.3541   -0.6854   -1.6091 H   0  0  0  0  0  0  0  0  0  0  0  0
   -2.0179   -1.4126   -2.3168 H   0  0  0  0  0  0  0  0  0  0  0  0
   -0.3983    1.7139    1.3026 H   0  0  0  0  0  0  0  0  0  0  0  0
    1.7026    2.1899   -0.4538 H   0  0  0  0  0  0  0  0  0  0  0  0
    0.6079    1.3357   -1.5564 H   0  0  0  0  0  0  0  0  0  0  0  0
    0.0518    2.8298   -0.7386 H   0  0  0  0  0  0  0  0  0  0  0  0
    0.6774   -0.3871    2.0857 H   0  0  0  0  0  0  0  0  0  0  0  0
    2.0461   -0.0566   -0.6587 H   0  0  0  0  0  0  0  0  0  0  0  0
    2.8942   -0.0554    0.8940 H   0  0  0  0  0  0  0  0  0  0  0  0
    2.1889   -1.6028    0.3042 H   0  0  0  0  0  0  0  0  0  0  0  0
  1  2  3  0
  2  3  1  0
  3  4  1  0
  4  5  1  0
  3  6  1  0
  6  7  1  0
  6  8  1  0
  8  9  1  0
  8  3  1  0
  1 10  1  0
  4 11  1  0
  4 12  1  0
  5 13  1  0
  6 14  1  0
  7 15  1  0
  7 16  1  0
  7 17  1  0
  8 18  1  0
  9 19  1  0
  9 20  1  0
  9 21  1  0
M  END
