
     RDKit          3D

 19 18  0  0  0  0  0  0  0  0999 V2000
   -1.0300    2.9189   -0.3785 C   0  0  0  0  0  0  0  0  0  0  0  0
   -0.9041    1.7668    0.0156 C   0  0  0  0  0  0  0  0  0  0  0  0
   -0.7360    0.3913    0.4885 C   0  0  0  0  0  0  0  0  0  0  0  0
   -1.2837   -0.5659   -0.5286 C   0  0  0  0  0  0  0  0  0  0  0  0
   -1.1642   -1.9969   -0.1487 C   0  0  0  0  0  0  0  0  0  0  0  0
    0.7195    0.1659    0.7907 C   0  0  0  0  0  0  0  0  0  0  0  0
    1.5276    0.3620   -0.3706 O   0  0  0  0  0  0  0  0  0  0  0  0
    2.8894    0.2163   -0.3582 C   0  0  0  0  0  0  0  0  0  0  0  0
    3.4333   -0.1055    0.7367 O   0  0  0  0  0  0  0  0  0  0  0  0
   -1.1253    3.9180   -0.7177 H   0  0  0  0  0  0  0  0  0  0  0  0
   -1.2931    0.2901    1.4405 H   0  0  0  0  0  0  0  0  0  0  0  0
   -0.6887   -0.4137   -1.4702 H   0  0  0  0  0  0  0  0  0  0  0  0
   -2.3200   -0.2781   -0.7618 H   0  0  0  0  0  0  0  0  0  0  0  0
   -1.3844   -2.1186    0.9300 H   0  0  0  0  0  0  0  0  0  0  0  0
   -0.2105   -2.4462   -0.4624 H   0  0  0  0  0  0  0  0  0  0  0  0
   -1.9626   -2.5634   -0.7039 H   0  0  0  0  0  0  0  0  0  0  0  0
    1.0539    0.9162    1.5371 H   0  0  0  0  0  0  0  0  0  0  0  0
    0.9498   -0.8188    1.1967 H   0  0  0  0  0  0  0  0  0  0  0  0
    3.5290    0.3613   -1.2352 H   0  0  0  0  0  0  0  0  0  0  0  0
  1  2  3  0
  2  3  1  0
  3  4  1  0
  4  5  1  0
  3  6  1  0
  6  7  1  0
  7  8  1  0
  8  9  2  0
  1 10  1  0
  3 11  1  0
  4 12  1  0
  4 13  1  0
  5 14  1  0
  5 15  1  0
  5 16  1  0
  6 17  1  0
  6 18  1  0
  8 19  1  0
M  END
