
     RDKit          3D

 19 18  0  0  0  0  0  0  0  0999 V2000
   -1.3125    2.0768    0.4388 C   0  0  0  0  0  0  0  0  0  0  0  0
   -0.7500    1.0753    0.2148 C   0  0  0  0  0  0  0  0  0  0  0  0
   -0.0476   -0.1752   -0.0429 C   0  0  0  0  0  0  0  0  0  0  0  0
    0.2520   -0.2266   -1.3997 O   0  0  0  0  0  0  0  0  0  0  0  0
    1.2742   -0.1184    0.6897 C   0  0  0  0  0  0  0  0  0  0  0  0
    2.1399    1.0386    0.2444 C   0  0  0  0  0  0  0  0  0  0  0  0
   -0.7904   -1.3810    0.4553 C   0  0  0  0  0  0  0  0  0  0  0  0
   -2.1120   -1.5742   -0.1174 C   0  0  0  0  0  0  0  0  0  0  0  0
   -2.9261   -0.6383    0.0014 O   0  0  0  0  0  0  0  0  0  0  0  0
   -1.8548    3.0054    0.6497 H   0  0  0  0  0  0  0  0  0  0  0  0
   -0.4931    0.2418   -1.8647 H   0  0  0  0  0  0  0  0  0  0  0  0
    1.1288   -0.1042    1.7740 H   0  0  0  0  0  0  0  0  0  0  0  0
    1.8486   -1.0665    0.4597 H   0  0  0  0  0  0  0  0  0  0  0  0
    2.1585    1.1468   -0.8409 H   0  0  0  0  0  0  0  0  0  0  0  0
    3.1798    0.7962    0.5759 H   0  0  0  0  0  0  0  0  0  0  0  0
    1.7604    1.9821    0.6848 H   0  0  0  0  0  0  0  0  0  0  0  0
   -0.8486   -1.3329    1.5636 H   0  0  0  0  0  0  0  0  0  0  0  0
   -0.1691   -2.2825    0.1832 H   0  0  0  0  0  0  0  0  0  0  0  0
   -2.4381   -2.4633   -0.6364 H   0  0  0  0  0  0  0  0  0  0  0  0
  1  2  3  0
  2  3  1  0
  3  4  1  0
  3  5  1  0
  5  6  1  0
  3  7  1  0
  7  8  1  0
  8  9  2  0
  1 10  1  0
  4 11  1  0
  5 12  1  0
  5 13  1  0
  6 14  1  0
  6 15  1  0
  6 16  1  0
  7 17  1  0
  7 18  1  0
  8 19  1  0
M  END
