
     RDKit          3D

 21 22  0  0  0  0  0  0  0  0999 V2000
   -0.9601    1.1466    2.4567 C   0  0  0  0  0  0  0  0  0  0  0  0
   -0.2403    0.7291    1.5492 C   0  0  0  0  0  0  0  0  0  0  0  0
    0.5106    0.3157    0.5972 C   0  0  0  0  0  0  0  0  0  0  0  0
    1.9788   -0.0227    0.8534 C   0  0  0  0  0  0  0  0  0  0  0  0
    0.3549    1.0383   -0.7368 C   0  0  0  0  0  0  0  0  0  0  0  0
   -0.8681    0.3185   -1.2846 C   0  0  0  0  0  0  0  0  0  0  0  0
   -0.1999   -1.0706   -1.4804 C   0  0  0  0  0  0  0  0  0  0  0  0
   -0.1151   -1.0465    0.0064 C   0  0  0  0  0  0  0  0  0  0  0  0
   -1.5517   -0.3950   -0.1835 C   0  0  0  0  0  0  0  0  0  0  0  0
   -1.6581    1.5758    3.3526 H   0  0  0  0  0  0  0  0  0  0  0  0
    2.1025   -1.1011    0.7532 H   0  0  0  0  0  0  0  0  0  0  0  0
    2.3871    0.3956    1.7398 H   0  0  0  0  0  0  0  0  0  0  0  0
    2.5479    0.4252   -0.0822 H   0  0  0  0  0  0  0  0  0  0  0  0
    0.2168    2.0825   -0.7180 H   0  0  0  0  0  0  0  0  0  0  0  0
    1.2476    0.8003   -1.4304 H   0  0  0  0  0  0  0  0  0  0  0  0
   -1.3490    0.6868   -2.1604 H   0  0  0  0  0  0  0  0  0  0  0  0
    0.7629   -1.0408   -2.0244 H   0  0  0  0  0  0  0  0  0  0  0  0
   -0.9334   -1.7881   -1.8399 H   0  0  0  0  0  0  0  0  0  0  0  0
   -0.0690   -1.9448    0.5218 H   0  0  0  0  0  0  0  0  0  0  0  0
   -2.2489   -1.2012   -0.5836 H   0  0  0  0  0  0  0  0  0  0  0  0
   -1.9153    0.0965    0.6941 H   0  0  0  0  0  0  0  0  0  0  0  0
  1  2  3  0
  2  3  1  0
  3  4  1  0
  3  5  1  0
  5  6  1  0
  6  7  1  0
  7  8  1  0
  8  9  1  0
  8  3  1  0
  9  6  1  0
  1 10  1  0
  4 11  1  0
  4 12  1  0
  4 13  1  0
  5 14  1  0
  5 15  1  0
  6 16  1  0
  7 17  1  0
  7 18  1  0
  8 19  1  0
  9 20  1  0
  9 21  1  0
M  END
