
     RDKit          3D

 17 18  0  0  0  0  0  0  0  0999 V2000
    2.3180   -1.2285   -0.9655 C   0  0  0  0  0  0  0  0  0  0  0  0
    1.2058   -0.8247   -0.6503 C   0  0  0  0  0  0  0  0  0  0  0  0
    0.1708   -0.4290   -0.3521 C   0  0  0  0  0  0  0  0  0  0  0  0
   -0.5890   -1.2014    0.8264 C   0  0  0  0  0  0  0  0  0  0  0  0
   -1.5308   -0.2611    1.2485 O   0  0  0  0  0  0  0  0  0  0  0  0
   -1.1913    0.8748    0.5209 C   0  0  0  0  0  0  0  0  0  0  0  0
   -0.9985    0.2101   -0.8982 C   0  0  0  0  0  0  0  0  0  0  0  0
    0.2702    0.9198    0.5981 C   0  0  0  0  0  0  0  0  0  0  0  0
    1.0102    1.9063    0.0383 O   0  0  0  0  0  0  0  0  0  0  0  0
    3.6278   -1.7294   -1.3482 H   0  0  0  0  0  0  0  0  0  0  0  0
   -1.0060   -2.0871    0.3456 H   0  0  0  0  0  0  0  0  0  0  0  0
    0.1067   -1.4777    1.6169 H   0  0  0  0  0  0  0  0  0  0  0  0
   -1.8151    1.7250    0.5567 H   0  0  0  0  0  0  0  0  0  0  0  0
   -1.8315   -0.5212   -1.0758 H   0  0  0  0  0  0  0  0  0  0  0  0
   -0.8585    0.9435   -1.6803 H   0  0  0  0  0  0  0  0  0  0  0  0
    0.6511    0.6123    1.6548 H   0  0  0  0  0  0  0  0  0  0  0  0
    0.4599    2.5683   -0.4359 H   0  0  0  0  0  0  0  0  0  0  0  0
  1  2  3  0
  2  3  1  0
  3  4  1  0
  4  5  1  0
  5  6  1  0
  6  7  1  0
  6  8  1  0
  8  9  1  0
  7  3  1  0
  8  3  1  0
  1 10  1  0
  4 11  1  0
  4 12  1  0
  6 13  1  0
  7 14  1  0
  7 15  1  0
  8 16  1  0
  9 17  1  0
M  END
