
     RDKit          3D

 21 21  0  0  0  0  0  0  0  0999 V2000
    2.9034    1.0434   -0.2917 C   0  0  0  0  0  0  0  0  0  0  0  0
    1.7639   -0.4928   -0.0210 C   0  0  0  0  0  0  0  0  0  0  0  0
    1.2644   -1.1635    0.1060 C   0  0  0  0  0  0  0  0  0  0  0  0
    1.2590   -1.6225    1.7750 C   0  0  0  0  0  0  0  0  0  0  0  0
   -0.0096    0.2597    0.6610 C   0  0  0  0  0  0  0  0  0  0  0  0
   -0.2514    0.6867   -0.7095 C   0  0  0  0  0  0  0  0  0  0  0  0
   -1.7304    0.3438   -1.1295 C   0  0  0  0  0  0  0  0  0  0  0  0
   -2.7755    1.1884   -0.4844 C   0  0  0  0  0  0  0  0  0  0  0  0
   -2.4787   -0.1070   -0.0541 O   0  0  0  0  0  0  0  0  0  0  0  0
    3.6584    2.0350   -0.4551 H   0  0  0  0  0  0  0  0  0  0  0  0
    0.1970   -1.6889   -0.0955 H   0  0  0  0  0  0  0  0  0  0  0  0
    1.9715   -0.9444    2.1153 H   0  0  0  0  0  0  0  0  0  0  0  0
    1.6688   -2.7011    1.6436 H   0  0  0  0  0  0  0  0  0  0  0  0
    0.2247   -1.6753    2.0063 H   0  0  0  0  0  0  0  0  0  0  0  0
    0.7344    0.6899    1.2095 H   0  0  0  0  0  0  0  0  0  0  0  0
   -0.5768   -0.6007    0.9960 H   0  0  0  0  0  0  0  0  0  0  0  0
   -0.0149    1.7783   -0.8347 H   0  0  0  0  0  0  0  0  0  0  0  0
    0.2927    0.0447   -1.5328 H   0  0  0  0  0  0  0  0  0  0  0  0
   -1.9514   -0.4052   -1.9562 H   0  0  0  0  0  0  0  0  0  0  0  0
   -3.6732    1.3112   -1.1112 H   0  0  0  0  0  0  0  0  0  0  0  0
   -2.4763    2.0203    0.1300 H   0  0  0  0  0  0  0  0  0  0  0  0
  1  2  3  0
  2  3  1  0
  3  4  1  0
  3  5  1  0
  5  6  1  0
  6  7  1  0
  7  8  1  0
  8  9  1  0
  9  7  1  0
  1 10  1  0
  3 11  1  0
  4 12  1  0
  4 13  1  0
  4 14  1  0
  5 15  1  0
  5 16  1  0
  6 17  1  0
  6 18  1  0
  7 19  1  0
  8 20  1  0
  8 21  1  0
M  END
