
     RDKit          3D

 21 21  0  0  0  0  0  0  0  0999 V2000
   -0.1059    3.5072   -1.5970 C   0  0  0  0  0  0  0  0  0  0  0  0
    0.2431    2.3438   -1.4519 C   0  0  0  0  0  0  0  0  0  0  0  0
    0.6345    1.0031   -1.2624 C   0  0  0  0  0  0  0  0  0  0  0  0
   -0.4674    0.0550   -0.8618 C   0  0  0  0  0  0  0  0  0  0  0  0
    0.1274   -1.3512   -0.7161 C   0  0  0  0  0  0  0  0  0  0  0  0
   -0.6572   -1.8397    0.4780 C   0  0  0  0  0  0  0  0  0  0  0  0
   -0.7073   -0.5565    1.2770 C   0  0  0  0  0  0  0  0  0  0  0  0
    0.5608   -0.2511    1.9782 C   0  0  0  0  0  0  0  0  0  0  0  0
   -1.0686    0.3566    0.3146 O   0  0  0  0  0  0  0  0  0  0  0  0
   -0.4357    4.5597   -1.7147 H   0  0  0  0  0  0  0  0  0  0  0  0
    1.3928    0.9886   -0.4107 H   0  0  0  0  0  0  0  0  0  0  0  0
    1.2002    0.5731   -2.1568 H   0  0  0  0  0  0  0  0  0  0  0  0
   -1.2470    0.0577   -1.6680 H   0  0  0  0  0  0  0  0  0  0  0  0
   -0.1328   -1.9849   -1.5900 H   0  0  0  0  0  0  0  0  0  0  0  0
    1.2210   -1.2994   -0.5134 H   0  0  0  0  0  0  0  0  0  0  0  0
    0.0207   -2.5782    1.0030 H   0  0  0  0  0  0  0  0  0  0  0  0
   -1.6256   -2.2638    0.2214 H   0  0  0  0  0  0  0  0  0  0  0  0
   -1.5283   -0.6938    2.0201 H   0  0  0  0  0  0  0  0  0  0  0  0
    0.3746   -0.3725    3.0944 H   0  0  0  0  0  0  0  0  0  0  0  0
    1.2985   -1.0299    1.6823 H   0  0  0  0  0  0  0  0  0  0  0  0
    0.9022    0.7761    1.8739 H   0  0  0  0  0  0  0  0  0  0  0  0
  1  2  3  0
  2  3  1  0
  3  4  1  0
  4  5  1  0
  5  6  1  0
  6  7  1  0
  7  8  1  0
  7  9  1  0
  9  4  1  0
  1 10  1  0
  3 11  1  0
  3 12  1  0
  4 13  1  0
  5 14  1  0
  5 15  1  0
  6 16  1  0
  6 17  1  0
  7 18  1  0
  8 19  1  0
  8 20  1  0
  8 21  1  0
M  END
