
     RDKit          3D

 19 19  0  0  0  0  0  0  0  0999 V2000
   -0.3195    1.5693    2.0890 C   0  0  0  0  0  0  0  0  0  0  0  0
   -0.3829    1.0954    0.9637 C   0  0  0  0  0  0  0  0  0  0  0  0
   -0.4459    0.5265   -0.3849 C   0  0  0  0  0  0  0  0  0  0  0  0
   -0.7305    1.5387   -1.4871 C   0  0  0  0  0  0  0  0  0  0  0  0
   -0.9651   -0.8709   -0.5243 C   0  0  0  0  0  0  0  0  0  0  0  0
   -1.3897   -1.4678    0.6676 O   0  0  0  0  0  0  0  0  0  0  0  0
    0.4503   -0.5745   -0.7483 C   0  0  0  0  0  0  0  0  0  0  0  0
    1.5267   -0.9421    0.2420 C   0  0  0  0  0  0  0  0  0  0  0  0
    1.0189   -1.3338    1.4718 O   0  0  0  0  0  0  0  0  0  0  0  0
   -0.2815    1.9745    3.0675 H   0  0  0  0  0  0  0  0  0  0  0  0
   -0.3145    1.2150   -2.4624 H   0  0  0  0  0  0  0  0  0  0  0  0
   -0.1730    2.4730   -1.2012 H   0  0  0  0  0  0  0  0  0  0  0  0
   -1.7995    1.7576   -1.5977 H   0  0  0  0  0  0  0  0  0  0  0  0
   -1.5998   -1.1499   -1.3864 H   0  0  0  0  0  0  0  0  0  0  0  0
   -1.2837   -2.4441    0.6578 H   0  0  0  0  0  0  0  0  0  0  0  0
    0.8045   -0.6822   -1.8150 H   0  0  0  0  0  0  0  0  0  0  0  0
    2.1989   -1.7328   -0.1928 H   0  0  0  0  0  0  0  0  0  0  0  0
    2.1271   -0.0027    0.4080 H   0  0  0  0  0  0  0  0  0  0  0  0
    1.5592   -0.9494    2.2325 H   0  0  0  0  0  0  0  0  0  0  0  0
  1  2  3  0
  2  3  1  0
  3  4  1  0
  3  5  1  0
  5  6  1  0
  5  7  1  0
  7  8  1  0
  8  9  1  0
  7  3  1  0
  1 10  1  0
  4 11  1  0
  4 12  1  0
  4 13  1  0
  5 14  1  0
  6 15  1  0
  7 16  1  0
  8 17  1  0
  8 18  1  0
  9 19  1  0
M  END
