
     RDKit          3D

 19 19  0  0  0  0  0  0  0  0999 V2000
    3.0195   -1.1295   -0.7135 C   0  0  0  0  0  0  0  0  0  0  0  0
    2.1053   -0.7007   -0.0470 C   0  0  0  0  0  0  0  0  0  0  0  0
    0.9975   -0.1677    0.7688 C   0  0  0  0  0  0  0  0  0  0  0  0
   -0.0572   -1.2212    0.8366 C   0  0  0  0  0  0  0  0  0  0  0  0
   -1.2684   -0.7137    0.1171 C   0  0  0  0  0  0  0  0  0  0  0  0
   -0.8557    0.5536   -0.6126 C   0  0  0  0  0  0  0  0  0  0  0  0
   -1.8903    1.6201   -0.4896 C   0  0  0  0  0  0  0  0  0  0  0  0
   -1.5035    2.7771   -0.6976 O   0  0  0  0  0  0  0  0  0  0  0  0
    0.3879    1.0392    0.0966 C   0  0  0  0  0  0  0  0  0  0  0  0
    3.8195   -1.5190   -1.2965 H   0  0  0  0  0  0  0  0  0  0  0  0
    1.3301    0.0550    1.8081 H   0  0  0  0  0  0  0  0  0  0  0  0
   -0.3670   -1.4337    1.9007 H   0  0  0  0  0  0  0  0  0  0  0  0
    0.2834   -2.1910    0.4177 H   0  0  0  0  0  0  0  0  0  0  0  0
   -2.1374   -0.5295    0.7975 H   0  0  0  0  0  0  0  0  0  0  0  0
   -1.5802   -1.4580   -0.6445 H   0  0  0  0  0  0  0  0  0  0  0  0
   -0.6406    0.3286   -1.6795 H   0  0  0  0  0  0  0  0  0  0  0  0
   -2.9241    1.4275   -0.2357 H   0  0  0  0  0  0  0  0  0  0  0  0
    0.1671    1.8618    0.7965 H   0  0  0  0  0  0  0  0  0  0  0  0
    1.1140    1.4011   -0.6561 H   0  0  0  0  0  0  0  0  0  0  0  0
  1  2  3  0
  2  3  1  0
  3  4  1  0
  4  5  1  0
  5  6  1  0
  6  7  1  0
  7  8  2  0
  6  9  1  0
  9  3  1  0
  1 10  1  0
  3 11  1  0
  4 12  1  0
  4 13  1  0
  5 14  1  0
  5 15  1  0
  6 16  1  0
  7 17  1  0
  9 18  1  0
  9 19  1  0
M  END
