
     RDKit          3D

 21 20  0  0  0  0  0  0  0  0999 V2000
   -0.1879   -0.4070    3.1666 C   0  0  0  0  0  0  0  0  0  0  0  0
    0.0048   -0.8302    2.0779 C   0  0  0  0  0  0  0  0  0  0  0  0
    0.2673   -1.3469    0.7040 C   0  0  0  0  0  0  0  0  0  0  0  0
    1.5238   -1.8755    0.5820 O   0  0  0  0  0  0  0  0  0  0  0  0
    0.0126   -0.1690   -0.2327 C   0  0  0  0  0  0  0  0  0  0  0  0
    0.9892    0.9643    0.0889 C   0  0  0  0  0  0  0  0  0  0  0  0
   -1.4149    0.2607    0.0601 C   0  0  0  0  0  0  0  0  0  0  0  0
    0.1410   -0.5334   -1.5528 O   0  0  0  0  0  0  0  0  0  0  0  0
   -0.1041    0.5731   -2.3460 C   0  0  0  0  0  0  0  0  0  0  0  0
   -0.3837   -0.0202    4.1649 H   0  0  0  0  0  0  0  0  0  0  0  0
   -0.4897   -2.1298    0.4926 H   0  0  0  0  0  0  0  0  0  0  0  0
    1.8266   -1.8402   -0.3650 H   0  0  0  0  0  0  0  0  0  0  0  0
    1.3792    0.8034    1.1128 H   0  0  0  0  0  0  0  0  0  0  0  0
    0.4612    1.9562   -0.0068 H   0  0  0  0  0  0  0  0  0  0  0  0
    1.8660    0.9548   -0.5946 H   0  0  0  0  0  0  0  0  0  0  0  0
   -2.0767   -0.4554   -0.4681 H   0  0  0  0  0  0  0  0  0  0  0  0
   -1.5709    0.1683    1.1691 H   0  0  0  0  0  0  0  0  0  0  0  0
   -1.6494    1.2748   -0.2840 H   0  0  0  0  0  0  0  0  0  0  0  0
    0.0080    0.2641   -3.4251 H   0  0  0  0  0  0  0  0  0  0  0  0
    0.5537    1.4348   -2.1286 H   0  0  0  0  0  0  0  0  0  0  0  0
   -1.1561    0.9531   -2.2152 H   0  0  0  0  0  0  0  0  0  0  0  0
  1  2  3  0
  2  3  1  0
  3  4  1  0
  3  5  1  0
  5  6  1  0
  5  7  1  0
  5  8  1  0
  8  9  1  0
  1 10  1  0
  3 11  1  0
  4 12  1  0
  6 13  1  0
  6 14  1  0
  6 15  1  0
  7 16  1  0
  7 17  1  0
  7 18  1  0
  9 19  1  0
  9 20  1  0
  9 21  1  0
M  END
