
     RDKit          3D

 19 18  0  0  0  0  0  0  0  0999 V2000
   -2.2785   -1.8073   -1.9942 C   0  0  0  0  0  0  0  0  0  0  0  0
   -2.1441   -1.6577   -0.9515 C   0  0  0  0  0  0  0  0  0  0  0  0
   -1.9743   -1.4336    0.5730 C   0  0  0  0  0  0  0  0  0  0  0  0
   -1.0638   -0.2037    0.5937 C   0  0  0  0  0  0  0  0  0  0  0  0
    0.2408   -0.5365   -0.1325 C   0  0  0  0  0  0  0  0  0  0  0  0
    0.7907   -1.6240    0.6025 O   0  0  0  0  0  0  0  0  0  0  0  0
    1.1228    0.6187   -0.0413 C   0  0  0  0  0  0  0  0  0  0  0  0
    1.8367    1.5875    0.0289 C   0  0  0  0  0  0  0  0  0  0  0  0
    2.7193    2.7755    0.1394 C   0  0  0  0  0  0  0  0  0  0  0  0
   -2.4072   -1.9800   -3.1306 H   0  0  0  0  0  0  0  0  0  0  0  0
   -1.4567   -2.3121    0.9774 H   0  0  0  0  0  0  0  0  0  0  0  0
   -2.9553   -1.2208    0.9540 H   0  0  0  0  0  0  0  0  0  0  0  0
   -0.8717    0.1127    1.6218 H   0  0  0  0  0  0  0  0  0  0  0  0
   -1.5516    0.5561   -0.0369 H   0  0  0  0  0  0  0  0  0  0  0  0
    0.0879   -0.8634   -1.1525 H   0  0  0  0  0  0  0  0  0  0  0  0
    1.1251   -1.1806    1.4498 H   0  0  0  0  0  0  0  0  0  0  0  0
    2.1844    3.6730   -0.2106 H   0  0  0  0  0  0  0  0  0  0  0  0
    2.9662    2.9418    1.2303 H   0  0  0  0  0  0  0  0  0  0  0  0
    3.6292    2.5544   -0.4062 H   0  0  0  0  0  0  0  0  0  0  0  0
  1  2  3  0
  2  3  1  0
  3  4  1  0
  4  5  1  0
  5  6  1  0
  5  7  1  0
  7  8  3  0
  8  9  1  0
  1 10  1  0
  3 11  1  0
  3 12  1  0
  4 13  1  0
  4 14  1  0
  5 15  1  0
  6 16  1  0
  9 17  1  0
  9 18  1  0
  9 19  1  0
M  END
