
     RDKit          3D

 15 14  0  0  0  0  0  0  0  0999 V2000
    1.8225   -1.3486   -1.0963 C   0  0  0  0  0  0  0  0  0  0  0  0
    1.1337   -0.6641   -0.3800 C   0  0  0  0  0  0  0  0  0  0  0  0
    0.2854    0.1923    0.4799 C   0  0  0  0  0  0  0  0  0  0  0  0
   -0.1952    1.3056   -0.3577 C   0  0  0  0  0  0  0  0  0  0  0  0
   -0.6038    2.2098   -1.0586 C   0  0  0  0  0  0  0  0  0  0  0  0
    1.1499    0.7259    1.5538 C   0  0  0  0  0  0  0  0  0  0  0  0
    2.1304    1.3767    1.2664 O   0  0  0  0  0  0  0  0  0  0  0  0
   -0.7432   -0.4987    1.0511 O   0  0  0  0  0  0  0  0  0  0  0  0
   -1.6188   -1.0844    0.1482 C   0  0  0  0  0  0  0  0  0  0  0  0
    2.4157   -1.9631   -1.7245 H   0  0  0  0  0  0  0  0  0  0  0  0
   -0.9506    2.9907   -1.6836 H   0  0  0  0  0  0  0  0  0  0  0  0
    0.9271    0.5488    2.5840 H   0  0  0  0  0  0  0  0  0  0  0  0
   -2.1071   -0.3417   -0.5185 H   0  0  0  0  0  0  0  0  0  0  0  0
   -1.1812   -1.9397   -0.3783 H   0  0  0  0  0  0  0  0  0  0  0  0
   -2.4649   -1.5094    0.7632 H   0  0  0  0  0  0  0  0  0  0  0  0
  1  2  3  0
  2  3  1  0
  3  4  1  0
  4  5  3  0
  3  6  1  0
  6  7  2  0
  3  8  1  0
  8  9  1  0
  1 10  1  0
  5 11  1  0
  6 12  1  0
  9 13  1  0
  9 14  1  0
  9 15  1  0
M  END
