
     RDKit          3D

 19 20  0  0  0  0  0  0  0  0999 V2000
    2.9350    2.0766    1.2665 C   0  0  0  0  0  0  0  0  0  0  0  0
    2.1606    1.3572    0.9457 C   0  0  0  0  0  0  0  0  0  0  0  0
    1.1022    0.3404    0.5114 C   0  0  0  0  0  0  0  0  0  0  0  0
    1.1372   -0.4619   -0.4834 C   0  0  0  0  0  0  0  0  0  0  0  0
   -0.0264   -1.3322   -0.6484 C   0  0  0  0  0  0  0  0  0  0  0  0
   -1.4263   -0.9101   -0.7097 C   0  0  0  0  0  0  0  0  0  0  0  0
   -1.6965    0.3556   -1.4611 C   0  0  0  0  0  0  0  0  0  0  0  0
   -0.8443   -0.9713    0.6328 C   0  0  0  0  0  0  0  0  0  0  0  0
   -0.1516    0.1693    1.2701 C   0  0  0  0  0  0  0  0  0  0  0  0
    3.7108    2.7716    1.5806 H   0  0  0  0  0  0  0  0  0  0  0  0
    2.0252   -0.4806   -1.1655 H   0  0  0  0  0  0  0  0  0  0  0  0
    0.2576   -2.4161   -0.6784 H   0  0  0  0  0  0  0  0  0  0  0  0
   -2.1488   -1.7422   -0.9297 H   0  0  0  0  0  0  0  0  0  0  0  0
   -2.4997    0.1326   -2.2237 H   0  0  0  0  0  0  0  0  0  0  0  0
   -0.7774    0.7085   -2.0171 H   0  0  0  0  0  0  0  0  0  0  0  0
   -2.0712    1.1549   -0.8294 H   0  0  0  0  0  0  0  0  0  0  0  0
   -1.0924   -1.8146    1.3078 H   0  0  0  0  0  0  0  0  0  0  0  0
    0.1213   -0.0744    2.3465 H   0  0  0  0  0  0  0  0  0  0  0  0
   -0.7152    1.1366    1.2827 H   0  0  0  0  0  0  0  0  0  0  0  0
  1  2  3  0
  2  3  1  0
  3  4  2  0
  4  5  1  0
  5  6  1  0
  6  7  1  0
  6  8  1  0
  8  9  1  0
  9  3  1  0
  8  5  1  0
  1 10  1  0
  4 11  1  0
  5 12  1  0
  6 13  1  0
  7 14  1  0
  7 15  1  0
  7 16  1  0
  8 17  1  0
  9 18  1  0
  9 19  1  0
M  END
