
     RDKit          3D

 19 19  0  0  0  0  0  0  0  0999 V2000
    2.5197    0.4667    1.8712 C   0  0  0  0  0  0  0  0  0  0  0  0
    1.8950   -0.1230    1.0087 C   0  0  0  0  0  0  0  0  0  0  0  0
    1.1381   -0.8120   -0.0405 C   0  0  0  0  0  0  0  0  0  0  0  0
    1.1249    0.0485   -1.2868 C   0  0  0  0  0  0  0  0  0  0  0  0
   -0.1382    0.8849   -1.0434 C   0  0  0  0  0  0  0  0  0  0  0  0
   -1.0967   -0.2318   -0.6769 C   0  0  0  0  0  0  0  0  0  0  0  0
   -2.3783    0.2456   -0.2199 C   0  0  0  0  0  0  0  0  0  0  0  0
   -3.4540    0.6313    0.1470 C   0  0  0  0  0  0  0  0  0  0  0  0
   -0.3109   -0.9560    0.3917 C   0  0  0  0  0  0  0  0  0  0  0  0
    3.0745    0.9865    2.6087 H   0  0  0  0  0  0  0  0  0  0  0  0
    1.5990   -1.8061   -0.2433 H   0  0  0  0  0  0  0  0  0  0  0  0
    2.0014    0.7230   -1.3441 H   0  0  0  0  0  0  0  0  0  0  0  0
    0.9918   -0.5610   -2.2144 H   0  0  0  0  0  0  0  0  0  0  0  0
   -0.4359    1.4446   -1.9275 H   0  0  0  0  0  0  0  0  0  0  0  0
    0.0833    1.5487   -0.1760 H   0  0  0  0  0  0  0  0  0  0  0  0
   -1.1509   -0.9088   -1.5530 H   0  0  0  0  0  0  0  0  0  0  0  0
   -4.4057    0.9753    0.4633 H   0  0  0  0  0  0  0  0  0  0  0  0
   -0.4736   -0.5223    1.4042 H   0  0  0  0  0  0  0  0  0  0  0  0
   -0.5835   -2.0343    0.3607 H   0  0  0  0  0  0  0  0  0  0  0  0
  1  2  3  0
  2  3  1  0
  3  4  1  0
  4  5  1  0
  5  6  1  0
  6  7  1  0
  7  8  3  0
  6  9  1  0
  9  3  1  0
  1 10  1  0
  3 11  1  0
  4 12  1  0
  4 13  1  0
  5 14  1  0
  5 15  1  0
  6 16  1  0
  8 17  1  0
  9 18  1  0
  9 19  1  0
M  END
