
     RDKit          3D

 15 15  0  0  0  0  0  0  0  0999 V2000
   -2.4159    1.8554   -0.4286 C   0  0  0  0  0  0  0  0  0  0  0  0
   -1.5445    0.4431   -0.5066 C   0  0  0  0  0  0  0  0  0  0  0  0
   -0.8783   -0.6544   -0.5476 C   0  0  0  0  0  0  0  0  0  0  0  0
   -1.1478   -1.4147    0.5616 C   0  0  0  0  0  0  0  0  0  0  0  0
   -1.9489   -1.9738    1.4377 O   0  0  0  0  0  0  0  0  0  0  0  0
    0.3095   -1.6300    0.8736 O   0  0  0  0  0  0  0  0  0  0  0  0
    0.3688   -0.3062    0.5567 C   0  0  0  0  0  0  0  0  0  0  0  0
    1.5380    0.1859   -0.1415 C   0  0  0  0  0  0  0  0  0  0  0  0
    2.7518    0.0033    0.5363 O   0  0  0  0  0  0  0  0  0  0  0  0
   -3.0624    2.8747   -0.3859 H   0  0  0  0  0  0  0  0  0  0  0  0
   -0.4004   -0.8354   -1.5116 H   0  0  0  0  0  0  0  0  0  0  0  0
   -0.2114    0.3168    1.3193 H   0  0  0  0  0  0  0  0  0  0  0  0
    1.6578   -0.3658   -1.1696 H   0  0  0  0  0  0  0  0  0  0  0  0
    1.4196    1.2047   -0.5713 H   0  0  0  0  0  0  0  0  0  0  0  0
    3.5641    0.2963   -0.0226 H   0  0  0  0  0  0  0  0  0  0  0  0
  1  2  3  0
  2  3  1  0
  3  4  1  0
  4  5  2  0
  4  6  1  0
  6  7  1  0
  7  8  1  0
  8  9  1  0
  7  3  1  0
  1 10  1  0
  3 11  1  0
  7 12  1  0
  8 13  1  0
  8 14  1  0
  9 15  1  0
M  END
