
     RDKit          3D

 21 21  0  0  0  0  0  0  0  0999 V2000
    2.9586   -0.3703   -0.3079 C   0  0  0  0  0  0  0  0  0  0  0  0
    1.8628   -0.0398    0.0638 C   0  0  0  0  0  0  0  0  0  0  0  0
    0.5459    0.3629    0.5325 C   0  0  0  0  0  0  0  0  0  0  0  0
    0.0188    1.5858   -0.2074 C   0  0  0  0  0  0  0  0  0  0  0  0
    0.9987    2.3570   -0.7857 O   0  0  0  0  0  0  0  0  0  0  0  0
   -0.7046    0.6388   -1.1378 C   0  0  0  0  0  0  0  0  0  0  0  0
   -0.5494   -0.4304   -0.1026 C   0  0  0  0  0  0  0  0  0  0  0  0
   -1.7092   -0.5992    0.8527 C   0  0  0  0  0  0  0  0  0  0  0  0
   -0.1703   -1.7465   -0.7064 C   0  0  0  0  0  0  0  0  0  0  0  0
    3.9415   -0.6474   -0.6420 H   0  0  0  0  0  0  0  0  0  0  0  0
    0.4772    0.5031    1.6299 H   0  0  0  0  0  0  0  0  0  0  0  0
   -0.7044    2.1883    0.3907 H   0  0  0  0  0  0  0  0  0  0  0  0
    1.1188    3.1617   -0.1896 H   0  0  0  0  0  0  0  0  0  0  0  0
   -0.0599    0.4224   -2.0298 H   0  0  0  0  0  0  0  0  0  0  0  0
   -1.7448    0.9233   -1.3845 H   0  0  0  0  0  0  0  0  0  0  0  0
   -2.6179   -0.9180    0.3071 H   0  0  0  0  0  0  0  0  0  0  0  0
   -1.8582    0.2692    1.5025 H   0  0  0  0  0  0  0  0  0  0  0  0
   -1.4253   -1.4594    1.5243 H   0  0  0  0  0  0  0  0  0  0  0  0
    0.5079   -1.5841   -1.5515 H   0  0  0  0  0  0  0  0  0  0  0  0
    0.2179   -2.4270    0.0651 H   0  0  0  0  0  0  0  0  0  0  0  0
   -1.1041   -2.1902   -1.1344 H   0  0  0  0  0  0  0  0  0  0  0  0
  1  2  3  0
  2  3  1  0
  3  4  1  0
  4  5  1  0
  4  6  1  0
  6  7  1  0
  7  8  1  0
  7  9  1  0
  7  3  1  0
  1 10  1  0
  3 11  1  0
  4 12  1  0
  5 13  1  0
  6 14  1  0
  6 15  1  0
  8 16  1  0
  8 17  1  0
  8 18  1  0
  9 19  1  0
  9 20  1  0
  9 21  1  0
M  END
