
     RDKit          3D

 21 20  0  0  0  0  0  0  0  0999 V2000
    0.1108    3.1147    0.6178 C   0  0  0  0  0  0  0  0  0  0  0  0
    0.1889    1.9110    0.5690 C   0  0  0  0  0  0  0  0  0  0  0  0
    0.3057    0.4264    0.5250 C   0  0  0  0  0  0  0  0  0  0  0  0
    1.6848    0.0325    0.1710 C   0  0  0  0  0  0  0  0  0  0  0  0
    2.1737   -1.3582    0.0552 C   0  0  0  0  0  0  0  0  0  0  0  0
    2.4921    0.9220   -0.0450 O   0  0  0  0  0  0  0  0  0  0  0  0
   -0.7447   -0.0101   -0.4475 C   0  0  0  0  0  0  0  0  0  0  0  0
   -0.8614   -1.4649   -0.6904 C   0  0  0  0  0  0  0  0  0  0  0  0
   -2.0783    0.5101    0.0918 C   0  0  0  0  0  0  0  0  0  0  0  0
    0.0605    4.1721    0.6592 H   0  0  0  0  0  0  0  0  0  0  0  0
    0.1136    0.0547    1.5555 H   0  0  0  0  0  0  0  0  0  0  0  0
    3.2978   -1.3949    0.1161 H   0  0  0  0  0  0  0  0  0  0  0  0
    1.8386   -2.0204    0.8747 H   0  0  0  0  0  0  0  0  0  0  0  0
    1.8056   -1.8004   -0.8888 H   0  0  0  0  0  0  0  0  0  0  0  0
   -0.5736    0.5807   -1.3885 H   0  0  0  0  0  0  0  0  0  0  0  0
   -0.3879   -2.1332    0.0214 H   0  0  0  0  0  0  0  0  0  0  0  0
   -0.4380   -1.6914   -1.7077 H   0  0  0  0  0  0  0  0  0  0  0  0
   -1.9333   -1.7565   -0.7368 H   0  0  0  0  0  0  0  0  0  0  0  0
   -2.1314    0.2074    1.1502 H   0  0  0  0  0  0  0  0  0  0  0  0
   -2.8868    0.1014   -0.5332 H   0  0  0  0  0  0  0  0  0  0  0  0
   -2.0368    1.5970    0.0311 H   0  0  0  0  0  0  0  0  0  0  0  0
  1  2  3  0
  2  3  1  0
  3  4  1  0
  4  5  1  0
  4  6  2  0
  3  7  1  0
  7  8  1  0
  7  9  1  0
  1 10  1  0
  3 11  1  0
  5 12  1  0
  5 13  1  0
  5 14  1  0
  7 15  1  0
  8 16  1  0
  8 17  1  0
  8 18  1  0
  9 19  1  0
  9 20  1  0
  9 21  1  0
M  END
