
     RDKit          3D

 17 16  0  0  0  0  0  0  0  0999 V2000
    0.0351    2.9036    1.1842 C   0  0  0  0  0  0  0  0  0  0  0  0
   -0.4825    1.8212    0.4091 C   0  0  0  0  0  0  0  0  0  0  0  0
   -0.9445    0.8251   -0.3227 C   0  0  0  0  0  0  0  0  0  0  0  0
   -1.6726    0.8872   -1.4226 O   0  0  0  0  0  0  0  0  0  0  0  0
   -0.1117   -0.4746   -0.0681 C   0  0  0  0  0  0  0  0  0  0  0  0
   -0.5339   -1.1519    1.1391 C   0  0  0  0  0  0  0  0  0  0  0  0
   -0.8460   -1.6806    2.0534 C   0  0  0  0  0  0  0  0  0  0  0  0
    0.4118   -1.0741   -1.0970 O   0  0  0  0  0  0  0  0  0  0  0  0
    1.7373   -0.9786   -1.3759 C   0  0  0  0  0  0  0  0  0  0  0  0
    0.3281    3.5156    1.6396 H   0  0  0  0  0  0  0  0  0  0  0  0
   -1.9089    0.4594    0.4950 H   0  0  0  0  0  0  0  0  0  0  0  0
   -2.1268    0.0033   -1.5738 H   0  0  0  0  0  0  0  0  0  0  0  0
    0.9138    0.1200    0.3985 H   0  0  0  0  0  0  0  0  0  0  0  0
   -1.2046   -2.2465    3.0519 H   0  0  0  0  0  0  0  0  0  0  0  0
    1.9392   -1.5740   -2.3483 H   0  0  0  0  0  0  0  0  0  0  0  0
    2.0743    0.0424   -1.5601 H   0  0  0  0  0  0  0  0  0  0  0  0
    2.3918   -1.3974   -0.6021 H   0  0  0  0  0  0  0  0  0  0  0  0
  1  2  3  0
  2  3  1  0
  3  4  1  0
  3  5  1  0
  5  6  1  0
  6  7  3  0
  5  8  1  0
  8  9  1  0
  1 10  1  0
  3 11  1  0
  4 12  1  0
  5 13  1  0
  7 14  1  0
  9 15  1  0
  9 16  1  0
  9 17  1  0
M  END
