
     RDKit          3D

 17 16  0  0  0  0  0  0  0  0999 V2000
   -1.1653    3.1594    1.2434 C   0  0  0  0  0  0  0  0  0  0  0  0
   -1.0410    2.1444    1.1719 C   0  0  0  0  0  0  0  0  0  0  0  0
   -0.8864    0.6692    1.0647 C   0  0  0  0  0  0  0  0  0  0  0  0
   -2.0709    0.0133    0.8459 O   0  0  0  0  0  0  0  0  0  0  0  0
    0.1384    0.2960   -0.0506 C   0  0  0  0  0  0  0  0  0  0  0  0
    0.5025   -1.0019    0.1511 O   0  0  0  0  0  0  0  0  0  0  0  0
    1.3563   -1.6603   -0.6085 C   0  0  0  0  0  0  0  0  0  0  0  0
    1.0290   -1.4564   -2.1453 C   0  0  0  0  0  0  0  0  0  0  0  0
    1.6679   -2.2354   -2.7837 O   0  0  0  0  0  0  0  0  0  0  0  0
   -1.3191    4.3744    1.3247 H   0  0  0  0  0  0  0  0  0  0  0  0
   -0.4765    0.2374    2.0005 H   0  0  0  0  0  0  0  0  0  0  0  0
   -1.9309   -0.8040    0.2338 H   0  0  0  0  0  0  0  0  0  0  0  0
    0.9096    1.0528   -0.0507 H   0  0  0  0  0  0  0  0  0  0  0  0
   -0.4116    0.4181   -1.0570 H   0  0  0  0  0  0  0  0  0  0  0  0
    2.4047   -1.7144   -0.5223 H   0  0  0  0  0  0  0  0  0  0  0  0
    0.9422   -2.7899   -0.5426 H   0  0  0  0  0  0  0  0  0  0  0  0
    0.3510   -0.7026   -2.3354 H   0  0  0  0  0  0  0  0  0  0  0  0
  1  2  3  0
  2  3  1  0
  3  4  1  0
  3  5  1  0
  5  6  1  0
  6  7  1  0
  7  8  1  0
  8  9  2  0
  1 10  1  0
  3 11  1  0
  4 12  1  0
  5 13  1  0
  5 14  1  0
  7 15  1  0
  7 16  1  0
  8 17  1  0
M  END
