
     RDKit          3D

 15 16  0  0  0  0  0  0  0  0999 V2000
    2.9050   -0.4708   -0.3725 C   0  0  0  0  0  0  0  0  0  0  0  0
    1.7305   -0.2424   -0.1769 C   0  0  0  0  0  0  0  0  0  0  0  0
    0.3169    0.0242    0.0341 C   0  0  0  0  0  0  0  0  0  0  0  0
   -0.5557   -1.0498    0.6168 C   0  0  0  0  0  0  0  0  0  0  0  0
   -1.8955   -0.6933    0.0492 C   0  0  0  0  0  0  0  0  0  0  0  0
   -2.9658   -1.1094    0.5642 O   0  0  0  0  0  0  0  0  0  0  0  0
   -1.6960    0.1172   -1.0596 O   0  0  0  0  0  0  0  0  0  0  0  0
   -0.4515    0.7785   -0.9747 C   0  0  0  0  0  0  0  0  0  0  0  0
   -0.1438    1.4250    0.3040 C   0  0  0  0  0  0  0  0  0  0  0  0
    3.9387   -0.6900   -0.5504 H   0  0  0  0  0  0  0  0  0  0  0  0
   -0.2336   -2.0507    0.3394 H   0  0  0  0  0  0  0  0  0  0  0  0
   -0.6467   -0.8895    1.7205 H   0  0  0  0  0  0  0  0  0  0  0  0
    0.0269    1.0865   -1.9339 H   0  0  0  0  0  0  0  0  0  0  0  0
    0.6717    2.1625    0.4306 H   0  0  0  0  0  0  0  0  0  0  0  0
   -1.0010    1.6019    1.0094 H   0  0  0  0  0  0  0  0  0  0  0  0
  1  2  3  0
  2  3  1  0
  3  4  1  0
  4  5  1  0
  5  6  2  0
  5  7  1  0
  7  8  1  0
  8  9  1  0
  8  3  1  0
  9  3  1  0
  1 10  1  0
  4 11  1  0
  4 12  1  0
  8 13  1  0
  9 14  1  0
  9 15  1  0
M  END
