
     RDKit          3D

 21 21  0  0  0  0  0  0  0  0999 V2000
    2.6943   -0.2261   -1.2359 C   0  0  0  0  0  0  0  0  0  0  0  0
    1.8408   -0.6346   -0.4597 C   0  0  0  0  0  0  0  0  0  0  0  0
    0.8173   -1.1182    0.4689 C   0  0  0  0  0  0  0  0  0  0  0  0
   -0.5228   -0.6353    0.0033 C   0  0  0  0  0  0  0  0  0  0  0  0
   -0.8939   -1.1211   -1.4012 C   0  0  0  0  0  0  0  0  0  0  0  0
   -1.4855   -0.9492    0.9602 O   0  0  0  0  0  0  0  0  0  0  0  0
   -1.2320    0.2947    1.5342 C   0  0  0  0  0  0  0  0  0  0  0  0
   -0.8635    0.7894    0.1896 C   0  0  0  0  0  0  0  0  0  0  0  0
    0.2078    1.8094    0.0662 C   0  0  0  0  0  0  0  0  0  0  0  0
    3.4334    0.1427   -1.8972 H   0  0  0  0  0  0  0  0  0  0  0  0
    1.0735   -0.8559    1.4865 H   0  0  0  0  0  0  0  0  0  0  0  0
    0.8921   -2.2448    0.4172 H   0  0  0  0  0  0  0  0  0  0  0  0
   -1.9944   -1.0945   -1.5588 H   0  0  0  0  0  0  0  0  0  0  0  0
   -0.5393   -2.1636   -1.4980 H   0  0  0  0  0  0  0  0  0  0  0  0
   -0.4455   -0.4425   -2.1721 H   0  0  0  0  0  0  0  0  0  0  0  0
   -0.3799    0.3296    2.2504 H   0  0  0  0  0  0  0  0  0  0  0  0
   -2.1775    0.6757    1.9730 H   0  0  0  0  0  0  0  0  0  0  0  0
   -1.7405    1.0669   -0.4450 H   0  0  0  0  0  0  0  0  0  0  0  0
    0.5995    1.7825   -0.9681 H   0  0  0  0  0  0  0  0  0  0  0  0
   -0.2867    2.8202    0.1741 H   0  0  0  0  0  0  0  0  0  0  0  0
    1.0028    1.7747    0.8031 H   0  0  0  0  0  0  0  0  0  0  0  0
  1  2  3  0
  2  3  1  0
  3  4  1  0
  4  5  1  0
  4  6  1  0
  6  7  1  0
  7  8  1  0
  8  9  1  0
  8  4  1  0
  1 10  1  0
  3 11  1  0
  3 12  1  0
  5 13  1  0
  5 14  1  0
  5 15  1  0
  7 16  1  0
  7 17  1  0
  8 18  1  0
  9 19  1  0
  9 20  1  0
  9 21  1  0
M  END
