
     RDKit          3D

 21 21  0  0  0  0  0  0  0  0999 V2000
    3.2408   -1.7661   -0.0042 C   0  0  0  0  0  0  0  0  0  0  0  0
    2.0636   -1.5897   -0.2075 C   0  0  0  0  0  0  0  0  0  0  0  0
    0.6232   -1.3478   -0.4537 C   0  0  0  0  0  0  0  0  0  0  0  0
    0.1483   -0.3909    0.6188 C   0  0  0  0  0  0  0  0  0  0  0  0
   -1.3073   -0.0233    0.5321 C   0  0  0  0  0  0  0  0  0  0  0  0
   -1.8783    0.0069   -0.8604 C   0  0  0  0  0  0  0  0  0  0  0  0
   -0.8918    1.3936    0.9522 C   0  0  0  0  0  0  0  0  0  0  0  0
    0.4891    1.0574    0.3855 C   0  0  0  0  0  0  0  0  0  0  0  0
    0.6705    1.4151   -0.9285 O   0  0  0  0  0  0  0  0  0  0  0  0
    4.2785   -1.9301    0.1922 H   0  0  0  0  0  0  0  0  0  0  0  0
    0.0733   -2.2958   -0.3848 H   0  0  0  0  0  0  0  0  0  0  0  0
    0.5487   -0.8510   -1.4417 H   0  0  0  0  0  0  0  0  0  0  0  0
    0.4527   -0.6948    1.6335 H   0  0  0  0  0  0  0  0  0  0  0  0
   -1.9650   -0.5285    1.2368 H   0  0  0  0  0  0  0  0  0  0  0  0
   -1.6489    0.9530   -1.3885 H   0  0  0  0  0  0  0  0  0  0  0  0
   -1.4899   -0.8081   -1.5008 H   0  0  0  0  0  0  0  0  0  0  0  0
   -2.9806   -0.0502   -0.7693 H   0  0  0  0  0  0  0  0  0  0  0  0
   -1.4257    2.1892    0.4267 H   0  0  0  0  0  0  0  0  0  0  0  0
   -0.8109    1.4946    2.0533 H   0  0  0  0  0  0  0  0  0  0  0  0
    1.3224    1.4094    1.0357 H   0  0  0  0  0  0  0  0  0  0  0  0
    0.4874    2.3571   -1.1275 H   0  0  0  0  0  0  0  0  0  0  0  0
  1  2  3  0
  2  3  1  0
  3  4  1  0
  4  5  1  0
  5  6  1  0
  5  7  1  0
  7  8  1  0
  8  9  1  0
  8  4  1  0
  1 10  1  0
  3 11  1  0
  3 12  1  0
  4 13  1  0
  5 14  1  0
  6 15  1  0
  6 16  1  0
  6 17  1  0
  7 18  1  0
  7 19  1  0
  8 20  1  0
  9 21  1  0
M  END
