
     RDKit          3D

 17 18  0  0  0  0  0  0  0  0999 V2000
    3.7178   -0.1041   -1.6180 C   0  0  0  0  0  0  0  0  0  0  0  0
    2.5262    0.0447   -1.4087 C   0  0  0  0  0  0  0  0  0  0  0  0
    1.0930    0.2306   -1.1624 C   0  0  0  0  0  0  0  0  0  0  0  0
    0.8134   -0.1345    0.1630 O   0  0  0  0  0  0  0  0  0  0  0  0
   -0.5357    0.0380    0.4027 C   0  0  0  0  0  0  0  0  0  0  0  0
   -0.8969    0.6200    1.7248 C   0  0  0  0  0  0  0  0  0  0  0  0
   -2.2538   -0.0013    1.5684 C   0  0  0  0  0  0  0  0  0  0  0  0
   -1.2263   -1.0226    1.1936 C   0  0  0  0  0  0  0  0  0  0  0  0
   -0.5002   -0.5820    2.2921 O   0  0  0  0  0  0  0  0  0  0  0  0
    4.7546   -0.2151   -1.8008 H   0  0  0  0  0  0  0  0  0  0  0  0
    0.8824    1.3241   -1.3003 H   0  0  0  0  0  0  0  0  0  0  0  0
    0.4632   -0.3761   -1.8107 H   0  0  0  0  0  0  0  0  0  0  0  0
   -1.1509    0.4073   -0.4140 H   0  0  0  0  0  0  0  0  0  0  0  0
   -0.6954    1.5449    2.0702 H   0  0  0  0  0  0  0  0  0  0  0  0
   -2.8116   -0.1584    2.4916 H   0  0  0  0  0  0  0  0  0  0  0  0
   -2.7903    0.3645    0.6881 H   0  0  0  0  0  0  0  0  0  0  0  0
   -1.3895   -1.9800    0.9264 H   0  0  0  0  0  0  0  0  0  0  0  0
  1  2  3  0
  2  3  1  0
  3  4  1  0
  4  5  1  0
  5  6  1  0
  6  7  1  0
  7  8  1  0
  8  9  1  0
  8  5  1  0
  9  6  1  0
  1 10  1  0
  3 11  1  0
  3 12  1  0
  5 13  1  0
  6 14  1  0
  7 15  1  0
  7 16  1  0
  8 17  1  0
M  END
