
     RDKit          3D

 15 15  0  0  0  0  0  0  0  0999 V2000
    2.9897    0.5156    0.7286 C   0  0  0  0  0  0  0  0  0  0  0  0
    2.0305    0.2044    0.0361 C   0  0  0  0  0  0  0  0  0  0  0  0
    0.8682   -0.1671   -0.7751 C   0  0  0  0  0  0  0  0  0  0  0  0
    0.7609   -1.5473   -1.0120 O   0  0  0  0  0  0  0  0  0  0  0  0
   -0.5990   -1.5588   -0.6758 C   0  0  0  0  0  0  0  0  0  0  0  0
   -0.4388   -0.2174    0.0024 C   0  0  0  0  0  0  0  0  0  0  0  0
   -1.3749    0.7474   -0.3392 O   0  0  0  0  0  0  0  0  0  0  0  0
   -2.0194    1.5044    0.5969 C   0  0  0  0  0  0  0  0  0  0  0  0
   -1.7587    1.3254    1.8225 O   0  0  0  0  0  0  0  0  0  0  0  0
    3.8091    0.7902    1.3418 H   0  0  0  0  0  0  0  0  0  0  0  0
    0.7865    0.3853   -1.7158 H   0  0  0  0  0  0  0  0  0  0  0  0
   -0.7980   -2.3880    0.0141 H   0  0  0  0  0  0  0  0  0  0  0  0
   -1.2664   -1.5130   -1.5424 H   0  0  0  0  0  0  0  0  0  0  0  0
   -0.2317   -0.3510    1.0865 H   0  0  0  0  0  0  0  0  0  0  0  0
   -2.7579    2.2700    0.3821 H   0  0  0  0  0  0  0  0  0  0  0  0
  1  2  3  0
  2  3  1  0
  3  4  1  0
  4  5  1  0
  5  6  1  0
  6  7  1  0
  7  8  1  0
  8  9  2  0
  6  3  1  0
  1 10  1  0
  3 11  1  0
  5 12  1  0
  5 13  1  0
  6 14  1  0
  8 15  1  0
M  END
