
     RDKit          3D

 16 17  0  0  0  0  0  0  0  0999 V2000
    2.1472   -2.2680    0.5262 C   0  0  0  0  0  0  0  0  0  0  0  0
    1.2605   -1.6097    0.0466 C   0  0  0  0  0  0  0  0  0  0  0  0
    0.2104   -0.8332   -0.5476 C   0  0  0  0  0  0  0  0  0  0  0  0
   -1.0209   -0.9849    0.1440 O   0  0  0  0  0  0  0  0  0  0  0  0
   -1.3806    0.3108    0.3919 C   0  0  0  0  0  0  0  0  0  0  0  0
   -1.0050    1.1025   -0.8717 C   0  0  0  0  0  0  0  0  0  0  0  0
    0.3955    0.6506   -0.4402 C   0  0  0  0  0  0  0  0  0  0  0  0
   -0.0857    0.9056    0.9717 C   0  0  0  0  0  0  0  0  0  0  0  0
    2.9350   -2.8331    0.9506 H   0  0  0  0  0  0  0  0  0  0  0  0
   -0.0339   -1.1385   -1.6006 H   0  0  0  0  0  0  0  0  0  0  0  0
   -2.2893    0.5627    0.8735 H   0  0  0  0  0  0  0  0  0  0  0  0
   -1.2792    0.5923   -1.7985 H   0  0  0  0  0  0  0  0  0  0  0  0
   -1.2089    2.1589   -0.7669 H   0  0  0  0  0  0  0  0  0  0  0  0
    1.2328    1.1447   -0.8233 H   0  0  0  0  0  0  0  0  0  0  0  0
   -0.2580    1.9595    1.1962 H   0  0  0  0  0  0  0  0  0  0  0  0
    0.3802    0.2798    1.7480 H   0  0  0  0  0  0  0  0  0  0  0  0
  1  2  3  0
  2  3  1  0
  3  4  1  0
  4  5  1  0
  5  6  1  0
  6  7  1  0
  7  8  1  0
  7  3  1  0
  8  5  1  0
  1  9  1  0
  3 10  1  0
  5 11  1  0
  6 12  1  0
  6 13  1  0
  7 14  1  0
  8 15  1  0
  8 16  1  0
M  END
