
     RDKit          3D

 17 17  0  0  0  0  0  0  0  0999 V2000
    3.2128   -0.0892    0.8422 C   0  0  0  0  0  0  0  0  0  0  0  0
    2.0745    0.0612    0.4747 C   0  0  0  0  0  0  0  0  0  0  0  0
    0.7054    0.2658    0.0412 C   0  0  0  0  0  0  0  0  0  0  0  0
   -0.1996    0.4600    0.9879 C   0  0  0  0  0  0  0  0  0  0  0  0
   -1.6717    0.6948    0.8322 C   0  0  0  0  0  0  0  0  0  0  0  0
   -2.1940   -0.4207    0.2114 O   0  0  0  0  0  0  0  0  0  0  0  0
   -1.3179   -1.0580   -0.6336 C   0  0  0  0  0  0  0  0  0  0  0  0
   -0.8310   -0.2691   -1.6564 O   0  0  0  0  0  0  0  0  0  0  0  0
    0.4326    0.2406   -1.4209 C   0  0  0  0  0  0  0  0  0  0  0  0
    4.2081   -0.2259    1.1813 H   0  0  0  0  0  0  0  0  0  0  0  0
    0.1726    0.4474    2.0044 H   0  0  0  0  0  0  0  0  0  0  0  0
   -1.8653    1.5631    0.1593 H   0  0  0  0  0  0  0  0  0  0  0  0
   -2.1194    0.8998    1.8156 H   0  0  0  0  0  0  0  0  0  0  0  0
   -1.8335   -1.9588   -1.0320 H   0  0  0  0  0  0  0  0  0  0  0  0
   -0.4269   -1.4178   -0.0501 H   0  0  0  0  0  0  0  0  0  0  0  0
    1.1638   -0.4544   -1.8958 H   0  0  0  0  0  0  0  0  0  0  0  0
    0.4895    1.2615   -1.8612 H   0  0  0  0  0  0  0  0  0  0  0  0
  1  2  3  0
  2  3  1  0
  3  4  2  0
  4  5  1  0
  5  6  1  0
  6  7  1  0
  7  8  1  0
  8  9  1  0
  9  3  1  0
  1 10  1  0
  4 11  1  0
  5 12  1  0
  5 13  1  0
  7 14  1  0
  7 15  1  0
  9 16  1  0
  9 17  1  0
M  END
