
     RDKit          3D

 19 20  0  0  0  0  0  0  0  0999 V2000
    2.2937   -1.6516    1.5813 C   0  0  0  0  0  0  0  0  0  0  0  0
    1.5322   -1.0443    0.8888 C   0  0  0  0  0  0  0  0  0  0  0  0
    0.6110   -0.2845    0.0593 C   0  0  0  0  0  0  0  0  0  0  0  0
    0.9618    1.1135   -0.3246 C   0  0  0  0  0  0  0  0  0  0  0  0
   -0.4253    1.5906    0.0824 C   0  0  0  0  0  0  0  0  0  0  0  0
   -0.6642    0.2102    0.6263 C   0  0  0  0  0  0  0  0  0  0  0  0
   -0.9777    0.0427    1.9656 O   0  0  0  0  0  0  0  0  0  0  0  0
   -0.6766   -0.8926   -0.3331 C   0  0  0  0  0  0  0  0  0  0  0  0
   -1.0559   -0.7183   -1.7792 C   0  0  0  0  0  0  0  0  0  0  0  0
    2.9696   -2.1839    2.2149 H   0  0  0  0  0  0  0  0  0  0  0  0
    1.7408    1.5276    0.3263 H   0  0  0  0  0  0  0  0  0  0  0  0
    1.0951    1.3005   -1.4074 H   0  0  0  0  0  0  0  0  0  0  0  0
   -1.0869    1.8847   -0.7333 H   0  0  0  0  0  0  0  0  0  0  0  0
   -0.4069    2.3681    0.8886 H   0  0  0  0  0  0  0  0  0  0  0  0
   -1.4849    0.8312    2.2692 H   0  0  0  0  0  0  0  0  0  0  0  0
   -0.8611   -1.9115    0.1144 H   0  0  0  0  0  0  0  0  0  0  0  0
   -1.3119    0.3161   -2.0176 H   0  0  0  0  0  0  0  0  0  0  0  0
   -1.9644   -1.3614   -1.9438 H   0  0  0  0  0  0  0  0  0  0  0  0
   -0.2886   -1.1372   -2.4781 H   0  0  0  0  0  0  0  0  0  0  0  0
  1  2  3  0
  2  3  1  0
  3  4  1  0
  4  5  1  0
  5  6  1  0
  6  7  1  0
  6  8  1  0
  8  9  1  0
  6  3  1  0
  8  3  1  0
  1 10  1  0
  4 11  1  0
  4 12  1  0
  5 13  1  0
  5 14  1  0
  7 15  1  0
  8 16  1  0
  9 17  1  0
  9 18  1  0
  9 19  1  0
M  END
