
     RDKit          3D

 23 23  0  0  0  0  0  0  0  0999 V2000
    3.9230    0.7838    1.9329 C   0  0  0  0  0  0  0  0  0  0  0  0
    2.7656    0.6741    1.4698 C   0  0  0  0  0  0  0  0  0  0  0  0
    1.2365    0.5323    0.8889 C   0  0  0  0  0  0  0  0  0  0  0  0
    0.2594   -0.2310    1.5692 C   0  0  0  0  0  0  0  0  0  0  0  0
   -1.0084    0.4551    0.7935 C   0  0  0  0  0  0  0  0  0  0  0  0
   -0.9430    0.0252   -0.6914 C   0  0  0  0  0  0  0  0  0  0  0  0
   -1.6022    0.9945   -1.6132 C   0  0  0  0  0  0  0  0  0  0  0  0
   -1.5806   -1.3573   -0.9839 C   0  0  0  0  0  0  0  0  0  0  0  0
   -0.1354   -1.1422   -1.0197 C   0  0  0  0  0  0  0  0  0  0  0  0
    4.8352    0.8837    2.3005 H   0  0  0  0  0  0  0  0  0  0  0  0
    1.8217   -0.5917    0.2209 H   0  0  0  0  0  0  0  0  0  0  0  0
    1.2749    1.0533   -0.0814 H   0  0  0  0  0  0  0  0  0  0  0  0
    0.1846   -1.3032    1.4836 H   0  0  0  0  0  0  0  0  0  0  0  0
    0.1006    0.0960    2.5955 H   0  0  0  0  0  0  0  0  0  0  0  0
   -0.9109    1.4809    0.8649 H   0  0  0  0  0  0  0  0  0  0  0  0
   -1.8279   -0.0665    1.2646 H   0  0  0  0  0  0  0  0  0  0  0  0
   -2.1677    0.5225   -2.4129 H   0  0  0  0  0  0  0  0  0  0  0  0
   -0.7099    1.5430   -2.0654 H   0  0  0  0  0  0  0  0  0  0  0  0
   -2.1816    1.7727   -1.0395 H   0  0  0  0  0  0  0  0  0  0  0  0
   -2.1293   -1.3998   -2.0192 H   0  0  0  0  0  0  0  0  0  0  0  0
   -2.1543   -1.8581   -0.2665 H   0  0  0  0  0  0  0  0  0  0  0  0
    0.4098   -1.7752   -0.2284 H   0  0  0  0  0  0  0  0  0  0  0  0
    0.5399   -1.0919   -1.8749 H   0  0  0  0  0  0  0  0  0  0  0  0
  1  2  3  0
  2  3  1  0
  3  4  1  0
  4  5  1  0
  5  6  1  0
  6  7  1  0
  6  8  1  0
  8  9  1  0
  9  6  1  0
  1 10  1  0
  3 11  1  0
  3 12  1  0
  4 13  1  0
  4 14  1  0
  5 15  1  0
  5 16  1  0
  7 17  1  0
  7 18  1  0
  7 19  1  0
  8 20  1  0
  8 21  1  0
  9 22  1  0
  9 23  1  0
M  END
