
     RDKit          3D

 21 22  0  0  0  0  0  0  0  0999 V2000
    2.8108    2.1105   -0.2828 C   0  0  0  0  0  0  0  0  0  0  0  0
    1.8477    1.4394   -0.0057 C   0  0  0  0  0  0  0  0  0  0  0  0
    0.6690    0.6018    0.3243 C   0  0  0  0  0  0  0  0  0  0  0  0
    1.1516   -0.8088    0.4052 C   0  0  0  0  0  0  0  0  0  0  0  0
    0.1272   -1.8441    0.0875 C   0  0  0  0  0  0  0  0  0  0  0  0
   -1.2446   -1.2501    0.4278 C   0  0  0  0  0  0  0  0  0  0  0  0
   -1.5001   -0.1810   -0.6169 C   0  0  0  0  0  0  0  0  0  0  0  0
   -1.7975    1.1816   -0.1404 C   0  0  0  0  0  0  0  0  0  0  0  0
   -0.4396    0.8246   -0.6582 C   0  0  0  0  0  0  0  0  0  0  0  0
    3.6645    2.6907   -0.5408 H   0  0  0  0  0  0  0  0  0  0  0  0
    0.3791    0.9245    1.3613 H   0  0  0  0  0  0  0  0  0  0  0  0
    2.0391   -0.9396   -0.2430 H   0  0  0  0  0  0  0  0  0  0  0  0
    1.5197   -1.0184    1.4493 H   0  0  0  0  0  0  0  0  0  0  0  0
    0.2438   -2.7940    0.6289 H   0  0  0  0  0  0  0  0  0  0  0  0
    0.1242   -2.0080   -1.0162 H   0  0  0  0  0  0  0  0  0  0  0  0
   -2.0220   -2.0121    0.4716 H   0  0  0  0  0  0  0  0  0  0  0  0
   -1.1230   -0.7547    1.4130 H   0  0  0  0  0  0  0  0  0  0  0  0
   -1.8709   -0.5457   -1.6015 H   0  0  0  0  0  0  0  0  0  0  0  0
   -1.9206    1.3203    0.9368 H   0  0  0  0  0  0  0  0  0  0  0  0
   -2.4886    1.7777   -0.7587 H   0  0  0  0  0  0  0  0  0  0  0  0
   -0.1697    1.2854   -1.6414 H   0  0  0  0  0  0  0  0  0  0  0  0
  1  2  3  0
  2  3  1  0
  3  4  1  0
  4  5  1  0
  5  6  1  0
  6  7  1  0
  7  8  1  0
  8  9  1  0
  9  3  1  0
  9  7  1  0
  1 10  1  0
  3 11  1  0
  4 12  1  0
  4 13  1  0
  5 14  1  0
  5 15  1  0
  6 16  1  0
  6 17  1  0
  7 18  1  0
  8 19  1  0
  8 20  1  0
  9 21  1  0
M  END
