
     RDKit          3D

 19 20  0  0  0  0  0  0  0  0999 V2000
   -1.6522   -1.7498    1.4281 C   0  0  0  0  0  0  0  0  0  0  0  0
   -1.4477   -0.9224    0.5949 C   0  0  0  0  0  0  0  0  0  0  0  0
   -1.2019    0.0923   -0.3915 C   0  0  0  0  0  0  0  0  0  0  0  0
   -1.2038   -0.5216   -1.7968 C   0  0  0  0  0  0  0  0  0  0  0  0
   -0.2396    0.4417   -2.1265 O   0  0  0  0  0  0  0  0  0  0  0  0
    0.1697    0.3623   -0.8266 C   0  0  0  0  0  0  0  0  0  0  0  0
    1.3579   -0.4103   -0.5195 C   0  0  0  0  0  0  0  0  0  0  0  0
    1.2085    1.0651   -0.1544 C   0  0  0  0  0  0  0  0  0  0  0  0
    1.0893    1.2724    1.3568 C   0  0  0  0  0  0  0  0  0  0  0  0
   -1.8202   -2.4950    2.1892 H   0  0  0  0  0  0  0  0  0  0  0  0
   -1.8759    0.9694   -0.4026 H   0  0  0  0  0  0  0  0  0  0  0  0
   -0.8265   -1.5570   -1.7674 H   0  0  0  0  0  0  0  0  0  0  0  0
   -2.1568   -0.4452   -2.3201 H   0  0  0  0  0  0  0  0  0  0  0  0
    1.3374   -1.1686    0.2582 H   0  0  0  0  0  0  0  0  0  0  0  0
    2.1233   -0.5730   -1.3299 H   0  0  0  0  0  0  0  0  0  0  0  0
    1.8858    1.8001   -0.6259 H   0  0  0  0  0  0  0  0  0  0  0  0
    2.1048    1.0616    1.8028 H   0  0  0  0  0  0  0  0  0  0  0  0
    0.4242    0.4979    1.8151 H   0  0  0  0  0  0  0  0  0  0  0  0
    0.7236    2.2803    1.6082 H   0  0  0  0  0  0  0  0  0  0  0  0
  1  2  3  0
  2  3  1  0
  3  4  1  0
  4  5  1  0
  5  6  1  0
  6  7  1  0
  7  8  1  0
  8  9  1  0
  6  3  1  0
  8  6  1  0
  1 10  1  0
  3 11  1  0
  4 12  1  0
  4 13  1  0
  7 14  1  0
  7 15  1  0
  8 16  1  0
  9 17  1  0
  9 18  1  0
  9 19  1  0
M  END
