
     RDKit          3D

 19 18  0  0  0  0  0  0  0  0999 V2000
    4.5258    0.8297    0.1901 C   0  0  0  0  0  0  0  0  0  0  0  0
    3.3384    0.7228    0.3717 C   0  0  0  0  0  0  0  0  0  0  0  0
    1.9005    0.5895    0.5979 C   0  0  0  0  0  0  0  0  0  0  0  0
    1.2654   -0.0311   -0.4541 O   0  0  0  0  0  0  0  0  0  0  0  0
   -0.0841   -0.1298   -0.1875 C   0  0  0  0  0  0  0  0  0  0  0  0
   -0.8274   -0.8113   -1.3269 C   0  0  0  0  0  0  0  0  0  0  0  0
   -2.2942   -0.9208   -1.0418 C   0  0  0  0  0  0  0  0  0  0  0  0
   -2.9493    0.3824   -0.8433 C   0  0  0  0  0  0  0  0  0  0  0  0
   -4.1435    0.4290   -0.6029 O   0  0  0  0  0  0  0  0  0  0  0  0
    5.5820    0.9192    0.0260 H   0  0  0  0  0  0  0  0  0  0  0  0
    1.4534    1.5902    0.8323 H   0  0  0  0  0  0  0  0  0  0  0  0
    1.7311   -0.0135    1.5354 H   0  0  0  0  0  0  0  0  0  0  0  0
   -0.2271   -0.7688    0.7253 H   0  0  0  0  0  0  0  0  0  0  0  0
   -0.5646    0.8552   -0.0159 H   0  0  0  0  0  0  0  0  0  0  0  0
   -0.3790   -1.7891   -1.5770 H   0  0  0  0  0  0  0  0  0  0  0  0
   -0.7081   -0.1537   -2.2111 H   0  0  0  0  0  0  0  0  0  0  0  0
   -2.7651   -1.4168   -1.9172 H   0  0  0  0  0  0  0  0  0  0  0  0
   -2.5138   -1.5789   -0.1690 H   0  0  0  0  0  0  0  0  0  0  0  0
   -2.3403    1.2959   -0.9170 H   0  0  0  0  0  0  0  0  0  0  0  0
  1  2  3  0
  2  3  1  0
  3  4  1  0
  4  5  1  0
  5  6  1  0
  6  7  1  0
  7  8  1  0
  8  9  2  0
  1 10  1  0
  3 11  1  0
  3 12  1  0
  5 13  1  0
  5 14  1  0
  6 15  1  0
  6 16  1  0
  7 17  1  0
  7 18  1  0
  8 19  1  0
M  END
