
     RDKit          3D

 23 22  0  0  0  0  0  0  0  0999 V2000
   -2.5820   -1.4535    1.1555 C   0  0  0  0  0  0  0  0  0  0  0  0
   -1.9101   -1.5263    0.6239 C   0  0  0  0  0  0  0  0  0  0  0  0
   -0.7308   -1.6278   -0.3042 C   0  0  0  0  0  0  0  0  0  0  0  0
    0.0282   -0.2457    0.1459 C   0  0  0  0  0  0  0  0  0  0  0  0
   -1.0335    0.8298   -0.2631 C   0  0  0  0  0  0  0  0  0  0  0  0
   -0.7844    2.1711    0.2475 C   0  0  0  0  0  0  0  0  0  0  0  0
    1.2694    0.0045   -0.4564 C   0  0  0  0  0  0  0  0  0  0  0  0
    2.4438   -0.8855   -0.5294 C   0  0  0  0  0  0  0  0  0  0  0  0
    1.8653    1.1909    0.1795 O   0  0  0  0  0  0  0  0  0  0  0  0
   -3.7612   -1.3173    2.0985 H   0  0  0  0  0  0  0  0  0  0  0  0
   -1.1149   -1.2829   -1.3295 H   0  0  0  0  0  0  0  0  0  0  0  0
   -0.1692   -2.4445   -0.3462 H   0  0  0  0  0  0  0  0  0  0  0  0
   -0.0363   -0.2466    1.2310 H   0  0  0  0  0  0  0  0  0  0  0  0
   -0.7740    0.9043   -1.4472 H   0  0  0  0  0  0  0  0  0  0  0  0
   -2.0373    0.4306   -0.2752 H   0  0  0  0  0  0  0  0  0  0  0  0
    0.1394    2.2706    0.8099 H   0  0  0  0  0  0  0  0  0  0  0  0
   -0.9416    2.9734   -0.5488 H   0  0  0  0  0  0  0  0  0  0  0  0
   -1.6396    2.4109    1.0010 H   0  0  0  0  0  0  0  0  0  0  0  0
    1.1468    0.4341   -1.5143 H   0  0  0  0  0  0  0  0  0  0  0  0
    2.4021   -1.6584    0.2991 H   0  0  0  0  0  0  0  0  0  0  0  0
    2.4887   -1.5152   -1.4670 H   0  0  0  0  0  0  0  0  0  0  0  0
    3.4403   -0.3681   -0.3271 H   0  0  0  0  0  0  0  0  0  0  0  0
    2.2907    0.9516    1.0165 H   0  0  0  0  0  0  0  0  0  0  0  0
  1  2  3  0
  2  3  1  0
  3  4  1  0
  4  5  1  0
  5  6  1  0
  4  7  1  0
  7  8  1  0
  7  9  1  0
  1 10  1  0
  3 11  1  0
  3 12  1  0
  4 13  1  0
  5 14  1  0
  5 15  1  0
  6 16  1  0
  6 17  1  0
  6 18  1  0
  7 19  1  0
  8 20  1  0
  8 21  1  0
  8 22  1  0
  9 23  1  0
M  END
