
     RDKit          3D

 17 18  0  0  0  0  0  0  0  0999 V2000
    3.7443    0.4376    0.5488 C   0  0  0  0  0  0  0  0  0  0  0  0
    2.5873    0.3085    0.2207 C   0  0  0  0  0  0  0  0  0  0  0  0
    1.1802    0.1351   -0.1739 C   0  0  0  0  0  0  0  0  0  0  0  0
    0.2492    0.8634    0.7430 C   0  0  0  0  0  0  0  0  0  0  0  0
    0.6502   -0.0298    1.7244 O   0  0  0  0  0  0  0  0  0  0  0  0
    0.4603   -0.8800    0.6429 C   0  0  0  0  0  0  0  0  0  0  0  0
   -0.8083   -0.1292    0.3821 C   0  0  0  0  0  0  0  0  0  0  0  0
   -1.2435   -0.1282   -0.9176 O   0  0  0  0  0  0  0  0  0  0  0  0
   -2.6130   -0.2835   -0.9423 C   0  0  0  0  0  0  0  0  0  0  0  0
    4.7665    0.5704    0.8386 H   0  0  0  0  0  0  0  0  0  0  0  0
    0.9756    0.1662   -1.2431 H   0  0  0  0  0  0  0  0  0  0  0  0
    0.1452    1.8610    0.8399 H   0  0  0  0  0  0  0  0  0  0  0  0
    0.5846   -1.8802    0.6386 H   0  0  0  0  0  0  0  0  0  0  0  0
   -1.6151   -0.2493    1.1032 H   0  0  0  0  0  0  0  0  0  0  0  0
   -3.0192   -0.2891   -1.9871 H   0  0  0  0  0  0  0  0  0  0  0  0
   -2.9934   -1.1255   -0.3559 H   0  0  0  0  0  0  0  0  0  0  0  0
   -3.0509    0.6528   -0.4850 H   0  0  0  0  0  0  0  0  0  0  0  0
  1  2  3  0
  2  3  1  0
  3  4  1  0
  4  5  1  0
  5  6  1  0
  6  7  1  0
  7  8  1  0
  8  9  1  0
  6  3  1  0
  7  4  1  0
  1 10  1  0
  3 11  1  0
  4 12  1  0
  6 13  1  0
  7 14  1  0
  9 15  1  0
  9 16  1  0
  9 17  1  0
M  END
