
     RDKit          3D

 17 19  0  0  0  0  0  0  0  0999 V2000
   -2.9701   -0.3803   -0.0838 C   0  0  0  0  0  0  0  0  0  0  0  0
   -1.9349    0.1101    0.2919 C   0  0  0  0  0  0  0  0  0  0  0  0
   -0.6930    0.7063    0.7357 C   0  0  0  0  0  0  0  0  0  0  0  0
    0.3748   -0.2799    1.1669 C   0  0  0  0  0  0  0  0  0  0  0  0
    0.3675   -1.4830    0.4873 O   0  0  0  0  0  0  0  0  0  0  0  0
    0.7337   -1.2943   -0.8114 C   0  0  0  0  0  0  0  0  0  0  0  0
    1.1848    0.1663   -0.9539 C   0  0  0  0  0  0  0  0  0  0  0  0
    0.1953    1.1256   -0.3947 C   0  0  0  0  0  0  0  0  0  0  0  0
    1.3639    0.5516    0.4396 C   0  0  0  0  0  0  0  0  0  0  0  0
   -3.9036   -0.8134   -0.4035 H   0  0  0  0  0  0  0  0  0  0  0  0
   -0.8114    1.4852    1.5013 H   0  0  0  0  0  0  0  0  0  0  0  0
    0.5223   -0.3852    2.2474 H   0  0  0  0  0  0  0  0  0  0  0  0
    1.5701   -1.9724   -1.0897 H   0  0  0  0  0  0  0  0  0  0  0  0
   -0.0759   -1.4719   -1.5459 H   0  0  0  0  0  0  0  0  0  0  0  0
    1.8432    0.4582   -1.7536 H   0  0  0  0  0  0  0  0  0  0  0  0
    0.2437    2.1717   -0.6895 H   0  0  0  0  0  0  0  0  0  0  0  0
    1.9894    1.3053    0.8560 H   0  0  0  0  0  0  0  0  0  0  0  0
  1  2  3  0
  2  3  1  0
  3  4  1  0
  4  5  1  0
  5  6  1  0
  6  7  1  0
  7  8  1  0
  8  9  1  0
  8  3  1  0
  9  4  1  0
  9  7  1  0
  1 10  1  0
  3 11  1  0
  4 12  1  0
  6 13  1  0
  6 14  1  0
  7 15  1  0
  8 16  1  0
  9 17  1  0
M  END
