
     RDKit          3D

 19 19  0  0  0  0  0  0  0  0999 V2000
    3.2401    1.4098    0.2341 C   0  0  0  0  0  0  0  0  0  0  0  0
    2.0965    1.2744    0.4642 C   0  0  0  0  0  0  0  0  0  0  0  0
    0.6501    1.1158    0.7318 C   0  0  0  0  0  0  0  0  0  0  0  0
   -0.1134    1.2145   -0.5286 C   0  0  0  0  0  0  0  0  0  0  0  0
   -1.1920    0.5256   -0.8618 C   0  0  0  0  0  0  0  0  0  0  0  0
   -2.0049   -0.5303   -0.1838 C   0  0  0  0  0  0  0  0  0  0  0  0
   -1.0315   -1.6805    0.1672 C   0  0  0  0  0  0  0  0  0  0  0  0
    0.3602   -1.1207    0.3430 C   0  0  0  0  0  0  0  0  0  0  0  0
    0.4330   -0.1393    1.2943 O   0  0  0  0  0  0  0  0  0  0  0  0
    4.4344    1.5302   -0.0085 H   0  0  0  0  0  0  0  0  0  0  0  0
    0.3415    1.9616    1.3764 H   0  0  0  0  0  0  0  0  0  0  0  0
    0.2606    1.9188   -1.2997 H   0  0  0  0  0  0  0  0  0  0  0  0
   -1.5930    0.7935   -1.8690 H   0  0  0  0  0  0  0  0  0  0  0  0
   -2.4635   -0.1567    0.7384 H   0  0  0  0  0  0  0  0  0  0  0  0
   -2.7602   -0.9339   -0.8731 H   0  0  0  0  0  0  0  0  0  0  0  0
   -1.0202   -2.3346   -0.7191 H   0  0  0  0  0  0  0  0  0  0  0  0
   -1.3254   -2.2627    1.0129 H   0  0  0  0  0  0  0  0  0  0  0  0
    0.6326   -0.6592   -0.6498 H   0  0  0  0  0  0  0  0  0  0  0  0
    1.0552   -1.9265    0.6311 H   0  0  0  0  0  0  0  0  0  0  0  0
  1  2  3  0
  2  3  1  0
  3  4  1  0
  4  5  2  0
  5  6  1  0
  6  7  1  0
  7  8  1  0
  8  9  1  0
  9  3  1  0
  1 10  1  0
  3 11  1  0
  4 12  1  0
  5 13  1  0
  6 14  1  0
  6 15  1  0
  7 16  1  0
  7 17  1  0
  8 18  1  0
  8 19  1  0
M  END
