
     RDKit          3D

 14 14  0  0  0  0  0  0  0  0999 V2000
   -2.1850    1.2915   -0.0820 C   0  0  0  0  0  0  0  0  0  0  0  0
   -1.1755    0.6482    0.0478 C   0  0  0  0  0  0  0  0  0  0  0  0
    0.0492   -0.1419    0.1916 C   0  0  0  0  0  0  0  0  0  0  0  0
    1.2039    0.6174    0.4986 O   0  0  0  0  0  0  0  0  0  0  0  0
    1.6628    1.6151   -0.3492 C   0  0  0  0  0  0  0  0  0  0  0  0
    0.9709    1.7886   -1.4089 O   0  0  0  0  0  0  0  0  0  0  0  0
    0.1134   -1.4213   -0.5082 C   0  0  0  0  0  0  0  0  0  0  0  0
   -0.0865   -1.4423    1.0127 C   0  0  0  0  0  0  0  0  0  0  0  0
   -3.0621    1.8486   -0.1765 H   0  0  0  0  0  0  0  0  0  0  0  0
    2.5284    2.2180   -0.1660 H   0  0  0  0  0  0  0  0  0  0  0  0
   -0.7706   -1.7131   -1.1370 H   0  0  0  0  0  0  0  0  0  0  0  0
    1.0611   -1.8465   -0.8975 H   0  0  0  0  0  0  0  0  0  0  0  0
    0.7935   -1.7431    1.6167 H   0  0  0  0  0  0  0  0  0  0  0  0
   -1.1036   -1.7193    1.3578 H   0  0  0  0  0  0  0  0  0  0  0  0
  1  2  3  0
  2  3  1  0
  3  4  1  0
  4  5  1  0
  5  6  2  0
  3  7  1  0
  7  8  1  0
  8  3  1  0
  1  9  1  0
  5 10  1  0
  7 11  1  0
  7 12  1  0
  8 13  1  0
  8 14  1  0
M  END
