
     RDKit          3D

 21 21  0  0  0  0  0  0  0  0999 V2000
    2.9656   -1.0756   -0.3808 C   0  0  0  0  0  0  0  0  0  0  0  0
    1.7732   -0.8696   -0.4247 C   0  0  0  0  0  0  0  0  0  0  0  0
    0.3375   -0.6389   -0.4586 C   0  0  0  0  0  0  0  0  0  0  0  0
   -0.3909   -1.5337    0.5473 C   0  0  0  0  0  0  0  0  0  0  0  0
   -1.7481   -0.8715    0.5771 C   0  0  0  0  0  0  0  0  0  0  0  0
   -1.4897    0.5842    0.3589 C   0  0  0  0  0  0  0  0  0  0  0  0
    0.0077    0.7246    0.0937 C   0  0  0  0  0  0  0  0  0  0  0  0
    0.2496    1.7717   -0.9472 C   0  0  0  0  0  0  0  0  0  0  0  0
    0.6605    0.9794    1.2970 O   0  0  0  0  0  0  0  0  0  0  0  0
    4.0068   -1.2624   -0.3290 H   0  0  0  0  0  0  0  0  0  0  0  0
   -0.1011   -0.7081   -1.4624 H   0  0  0  0  0  0  0  0  0  0  0  0
    0.1573   -1.4007    1.5060 H   0  0  0  0  0  0  0  0  0  0  0  0
   -0.4299   -2.5783    0.2250 H   0  0  0  0  0  0  0  0  0  0  0  0
   -2.3332   -1.3308   -0.2697 H   0  0  0  0  0  0  0  0  0  0  0  0
   -2.2912   -1.0602    1.5203 H   0  0  0  0  0  0  0  0  0  0  0  0
   -1.7939    1.1304    1.2704 H   0  0  0  0  0  0  0  0  0  0  0  0
   -2.0321    0.9103   -0.5310 H   0  0  0  0  0  0  0  0  0  0  0  0
    0.0255    1.2989   -1.9416 H   0  0  0  0  0  0  0  0  0  0  0  0
    1.2736    2.1599   -0.9289 H   0  0  0  0  0  0  0  0  0  0  0  0
   -0.4559    2.6285   -0.8330 H   0  0  0  0  0  0  0  0  0  0  0  0
    1.6089    1.1418    1.1110 H   0  0  0  0  0  0  0  0  0  0  0  0
  1  2  3  0
  2  3  1  0
  3  4  1  0
  4  5  1  0
  5  6  1  0
  6  7  1  0
  7  8  1  0
  7  9  1  0
  7  3  1  0
  1 10  1  0
  3 11  1  0
  4 12  1  0
  4 13  1  0
  5 14  1  0
  5 15  1  0
  6 16  1  0
  6 17  1  0
  8 18  1  0
  8 19  1  0
  8 20  1  0
  9 21  1  0
M  END
