
     RDKit          3D

 17 17  0  0  0  0  0  0  0  0999 V2000
   -2.0788    2.1771    0.1175 C   0  0  0  0  0  0  0  0  0  0  0  0
   -1.2339    1.3314    0.1034 C   0  0  0  0  0  0  0  0  0  0  0  0
   -0.1854    0.3128    0.0887 C   0  0  0  0  0  0  0  0  0  0  0  0
   -0.6379   -0.9533    0.7226 C   0  0  0  0  0  0  0  0  0  0  0  0
   -0.5136   -2.1902   -0.0979 C   0  0  0  0  0  0  0  0  0  0  0  0
   -1.0885   -1.0151    1.8431 O   0  0  0  0  0  0  0  0  0  0  0  0
    1.1671    0.7965    0.5476 C   0  0  0  0  0  0  0  0  0  0  0  0
    1.5734    0.6034   -0.8947 C   0  0  0  0  0  0  0  0  0  0  0  0
    0.2979    0.1547   -1.2046 O   0  0  0  0  0  0  0  0  0  0  0  0
   -2.8269    2.9240    0.1171 H   0  0  0  0  0  0  0  0  0  0  0  0
    0.4826   -2.1626   -0.5850 H   0  0  0  0  0  0  0  0  0  0  0  0
   -0.6741   -3.1083    0.4946 H   0  0  0  0  0  0  0  0  0  0  0  0
   -1.2764   -2.1693   -0.9193 H   0  0  0  0  0  0  0  0  0  0  0  0
    1.6971    0.1542    1.2646 H   0  0  0  0  0  0  0  0  0  0  0  0
    1.1175    1.8599    0.8825 H   0  0  0  0  0  0  0  0  0  0  0  0
    2.2947   -0.2461   -1.0577 H   0  0  0  0  0  0  0  0  0  0  0  0
    1.8853    1.5308   -1.4225 H   0  0  0  0  0  0  0  0  0  0  0  0
  1  2  3  0
  2  3  1  0
  3  4  1  0
  4  5  1  0
  4  6  2  0
  3  7  1  0
  7  8  1  0
  8  9  1  0
  9  3  1  0
  1 10  1  0
  5 11  1  0
  5 12  1  0
  5 13  1  0
  7 14  1  0
  7 15  1  0
  8 16  1  0
  8 17  1  0
M  END
