
     RDKit          3D

 19 19  0  0  0  0  0  0  0  0999 V2000
   -1.0787   -1.4900    2.1550 C   0  0  0  0  0  0  0  0  0  0  0  0
   -0.8418   -0.5886    1.3637 C   0  0  0  0  0  0  0  0  0  0  0  0
   -0.5371    0.4788    0.4082 C   0  0  0  0  0  0  0  0  0  0  0  0
   -1.3906    1.7003    0.7668 C   0  0  0  0  0  0  0  0  0  0  0  0
   -0.9281    0.0582   -0.8366 O   0  0  0  0  0  0  0  0  0  0  0  0
   -0.0945   -0.8359   -1.4478 C   0  0  0  0  0  0  0  0  0  0  0  0
    1.3255   -0.2615   -1.4685 C   0  0  0  0  0  0  0  0  0  0  0  0
    1.6795   -0.0414   -0.0093 C   0  0  0  0  0  0  0  0  0  0  0  0
    0.7796    0.8816    0.4942 O   0  0  0  0  0  0  0  0  0  0  0  0
   -1.2958   -2.2805    2.8299 H   0  0  0  0  0  0  0  0  0  0  0  0
   -1.7193    2.2359   -0.1400 H   0  0  0  0  0  0  0  0  0  0  0  0
   -2.2818    1.3259    1.3101 H   0  0  0  0  0  0  0  0  0  0  0  0
   -0.8532    2.3709    1.4650 H   0  0  0  0  0  0  0  0  0  0  0  0
   -0.3928   -0.9059   -2.5194 H   0  0  0  0  0  0  0  0  0  0  0  0
   -0.0911   -1.8369   -1.0123 H   0  0  0  0  0  0  0  0  0  0  0  0
    2.0281   -0.9321   -1.9670 H   0  0  0  0  0  0  0  0  0  0  0  0
    1.3045    0.7134   -1.9903 H   0  0  0  0  0  0  0  0  0  0  0  0
    1.6974   -0.9900    0.5379 H   0  0  0  0  0  0  0  0  0  0  0  0
    2.6900    0.3979    0.0605 H   0  0  0  0  0  0  0  0  0  0  0  0
  1  2  3  0
  2  3  1  0
  3  4  1  0
  3  5  1  0
  5  6  1  0
  6  7  1  0
  7  8  1  0
  8  9  1  0
  9  3  1  0
  1 10  1  0
  4 11  1  0
  4 12  1  0
  4 13  1  0
  6 14  1  0
  6 15  1  0
  7 16  1  0
  7 17  1  0
  8 18  1  0
  8 19  1  0
M  END
