
     RDKit          3D

 17 16  0  0  0  0  0  0  0  0999 V2000
    1.8405    2.0443    1.9459 C   0  0  0  0  0  0  0  0  0  0  0  0
    0.6852    0.8392    0.3053 C   0  0  0  0  0  0  0  0  0  0  0  0
    0.5159    0.6569    0.0592 C   0  0  0  0  0  0  0  0  0  0  0  0
    0.2561    0.3865   -0.3139 C   0  0  0  0  0  0  0  0  0  0  0  0
   -0.3676   -0.2865   -1.2318 C   0  0  0  0  0  0  0  0  0  0  0  0
    0.0493   -1.9987   -0.5430 C   0  0  0  0  0  0  0  0  0  0  0  0
   -1.8567   -0.5669    0.1118 C   0  0  0  0  0  0  0  0  0  0  0  0
   -0.2143   -0.0035   -1.1732 C   0  0  0  0  0  0  0  0  0  0  0  0
    0.4035    1.1584   -0.9421 C   0  0  0  0  0  0  0  0  0  0  0  0
    1.9362    2.1445    2.0827 H   0  0  0  0  0  0  0  0  0  0  0  0
    0.8035   -1.4928    0.2731 H   0  0  0  0  0  0  0  0  0  0  0  0
   -0.9181   -2.2115   -0.3494 H   0  0  0  0  0  0  0  0  0  0  0  0
    0.6252   -2.3114   -1.3730 H   0  0  0  0  0  0  0  0  0  0  0  0
   -1.6864    0.5525    0.2959 H   0  0  0  0  0  0  0  0  0  0  0  0
   -1.1363   -1.1021    0.6775 H   0  0  0  0  0  0  0  0  0  0  0  0
   -2.3782   -0.8990   -0.7249 H   0  0  0  0  0  0  0  0  0  0  0  0
    1.4422    3.0900   -0.5169 H   0  0  0  0  0  0  0  0  0  0  0  0
  1  2  3  0
  2  3  1  0
  3  4  3  0
  4  5  1  0
  5  6  1  0
  5  7  1  0
  5  8  1  0
  8  9  3  0
  1 10  1  0
  6 11  1  0
  6 12  1  0
  6 13  1  0
  7 14  1  0
  7 15  1  0
  7 16  1  0
  9 17  1  0
M  END
