
     RDKit          3D

 17 17  0  0  0  0  0  0  0  0999 V2000
    2.4712    1.0659   -0.6163 C   0  0  0  0  0  0  0  0  0  0  0  0
    1.4698    0.7153   -0.0828 C   0  0  0  0  0  0  0  0  0  0  0  0
    0.2419    0.2916    0.5429 C   0  0  0  0  0  0  0  0  0  0  0  0
    0.1397    0.9296    1.7750 O   0  0  0  0  0  0  0  0  0  0  0  0
    0.1779   -1.2012    0.7808 C   0  0  0  0  0  0  0  0  0  0  0  0
   -0.2911   -1.6846   -0.5619 C   0  0  0  0  0  0  0  0  0  0  0  0
   -0.9493   -0.7085   -1.1819 C   0  0  0  0  0  0  0  0  0  0  0  0
   -0.9760    0.4972   -0.3159 C   0  0  0  0  0  0  0  0  0  0  0  0
   -2.1482    0.6123    0.4041 O   0  0  0  0  0  0  0  0  0  0  0  0
    3.3614    1.3663   -1.0981 H   0  0  0  0  0  0  0  0  0  0  0  0
    0.1386    1.9183    1.6741 H   0  0  0  0  0  0  0  0  0  0  0  0
    1.2173   -1.5933    0.9513 H   0  0  0  0  0  0  0  0  0  0  0  0
   -0.5111   -1.4771    1.5830 H   0  0  0  0  0  0  0  0  0  0  0  0
   -0.1022   -2.6824   -0.9324 H   0  0  0  0  0  0  0  0  0  0  0  0
   -1.4071   -0.7506   -2.1642 H   0  0  0  0  0  0  0  0  0  0  0  0
   -0.7751    1.3682   -0.9716 H   0  0  0  0  0  0  0  0  0  0  0  0
   -2.0576    1.3330    1.0523 H   0  0  0  0  0  0  0  0  0  0  0  0
  1  2  3  0
  2  3  1  0
  3  4  1  0
  3  5  1  0
  5  6  1  0
  6  7  2  0
  7  8  1  0
  8  9  1  0
  8  3  1  0
  1 10  1  0
  4 11  1  0
  5 12  1  0
  5 13  1  0
  6 14  1  0
  7 15  1  0
  8 16  1  0
  9 17  1  0
M  END
