
     RDKit          3D

 21 21  0  0  0  0  0  0  0  0999 V2000
   -2.9652    0.8575    1.5749 C   0  0  0  0  0  0  0  0  0  0  0  0
   -2.4354    0.1615    0.7456 C   0  0  0  0  0  0  0  0  0  0  0  0
   -1.8082   -0.6999   -0.2527 C   0  0  0  0  0  0  0  0  0  0  0  0
   -2.7965   -0.9652   -1.2223 O   0  0  0  0  0  0  0  0  0  0  0  0
   -0.6988    0.0261   -0.9592 C   0  0  0  0  0  0  0  0  0  0  0  0
    0.3894    0.4836   -0.0218 C   0  0  0  0  0  0  0  0  0  0  0  0
    1.5170    1.2198   -0.7295 C   0  0  0  0  0  0  0  0  0  0  0  0
    1.7014   -0.1840   -0.1276 C   0  0  0  0  0  0  0  0  0  0  0  0
    2.6796   -0.2192    1.0063 C   0  0  0  0  0  0  0  0  0  0  0  0
   -3.4187    1.4827    2.3141 H   0  0  0  0  0  0  0  0  0  0  0  0
   -1.4132   -1.6344    0.1825 H   0  0  0  0  0  0  0  0  0  0  0  0
   -3.4892   -0.2546   -1.2132 H   0  0  0  0  0  0  0  0  0  0  0  0
   -1.1516    0.9463   -1.4099 H   0  0  0  0  0  0  0  0  0  0  0  0
   -0.3280   -0.5743   -1.8050 H   0  0  0  0  0  0  0  0  0  0  0  0
    0.0180    0.8851    0.9362 H   0  0  0  0  0  0  0  0  0  0  0  0
    1.9094    2.0784   -0.1587 H   0  0  0  0  0  0  0  0  0  0  0  0
    1.5402    1.2346   -1.8331 H   0  0  0  0  0  0  0  0  0  0  0  0
    1.7714   -1.0356   -0.8201 H   0  0  0  0  0  0  0  0  0  0  0  0
    3.7076   -0.1577    0.5412 H   0  0  0  0  0  0  0  0  0  0  0  0
    2.6096    0.6862    1.6541 H   0  0  0  0  0  0  0  0  0  0  0  0
    2.6611   -1.1343    1.5983 H   0  0  0  0  0  0  0  0  0  0  0  0
  1  2  3  0
  2  3  1  0
  3  4  1  0
  3  5  1  0
  5  6  1  0
  6  7  1  0
  7  8  1  0
  8  9  1  0
  8  6  1  0
  1 10  1  0
  3 11  1  0
  4 12  1  0
  5 13  1  0
  5 14  1  0
  6 15  1  0
  7 16  1  0
  7 17  1  0
  8 18  1  0
  9 19  1  0
  9 20  1  0
  9 21  1  0
M  END
