
     RDKit          3D

 18 17  0  0  0  0  0  0  0  0999 V2000
   -3.0343    2.6123   -1.2464 C   0  0  0  0  0  0  0  0  0  0  0  0
   -2.3170    1.4357   -1.4511 C   0  0  0  0  0  0  0  0  0  0  0  0
   -1.6607    0.3588   -1.6205 C   0  0  0  0  0  0  0  0  0  0  0  0
   -0.5613    0.2351   -0.5337 C   0  0  0  0  0  0  0  0  0  0  0  0
    0.3831   -0.7789   -0.5850 O   0  0  0  0  0  0  0  0  0  0  0  0
    1.0108   -0.5870    0.6182 C   0  0  0  0  0  0  0  0  0  0  0  0
    1.9610   -1.5541    1.1408 C   0  0  0  0  0  0  0  0  0  0  0  0
    3.0761   -1.7196    0.4508 O   0  0  0  0  0  0  0  0  0  0  0  0
   -3.6086    3.5927   -1.0750 H   0  0  0  0  0  0  0  0  0  0  0  0
   -0.9312    0.6956   -2.6025 H   0  0  0  0  0  0  0  0  0  0  0  0
   -2.0801   -0.5413   -1.9898 H   0  0  0  0  0  0  0  0  0  0  0  0
   -0.0495    1.2436   -0.5441 H   0  0  0  0  0  0  0  0  0  0  0  0
   -1.0044    0.2165    0.5023 H   0  0  0  0  0  0  0  0  0  0  0  0
    1.3031    0.5406    0.6754 H   0  0  0  0  0  0  0  0  0  0  0  0
    0.1306   -0.5838    1.4459 H   0  0  0  0  0  0  0  0  0  0  0  0
    1.4326   -2.5677    1.1766 H   0  0  0  0  0  0  0  0  0  0  0  0
    2.0965   -1.3118    2.2250 H   0  0  0  0  0  0  0  0  0  0  0  0
    3.8532   -1.2868    0.9883 H   0  0  0  0  0  0  0  0  0  0  0  0
  1  2  3  0
  2  3  1  0
  3  4  1  0
  4  5  1  0
  5  6  1  0
  6  7  1  0
  7  8  1  0
  1  9  1  0
  3 10  1  0
  3 11  1  0
  4 12  1  0
  4 13  1  0
  6 14  1  0
  6 15  1  0
  7 16  1  0
  7 17  1  0
  8 18  1  0
M  END
