
     RDKit          3D

 21 21  0  0  0  0  0  0  0  0999 V2000
   -0.9446    2.6405    1.1556 C   0  0  0  0  0  0  0  0  0  0  0  0
   -0.5607    1.6127    0.6383 C   0  0  0  0  0  0  0  0  0  0  0  0
   -0.1088    0.3657   -0.0101 C   0  0  0  0  0  0  0  0  0  0  0  0
    0.4850    0.7545   -1.3329 C   0  0  0  0  0  0  0  0  0  0  0  0
    1.0003   -0.3919   -2.1356 C   0  0  0  0  0  0  0  0  0  0  0  0
   -1.2276   -0.6055   -0.1455 C   0  0  0  0  0  0  0  0  0  0  0  0
   -1.2571   -1.3789    0.9343 C   0  0  0  0  0  0  0  0  0  0  0  0
   -0.1604   -0.9824    1.8715 C   0  0  0  0  0  0  0  0  0  0  0  0
    0.8393   -0.3959    0.8659 C   0  0  0  0  0  0  0  0  0  0  0  0
   -1.2802    3.5417    1.5886 H   0  0  0  0  0  0  0  0  0  0  0  0
   -0.3346    1.2485   -1.9179 H   0  0  0  0  0  0  0  0  0  0  0  0
    1.2826    1.4824   -1.1563 H   0  0  0  0  0  0  0  0  0  0  0  0
    0.8162   -0.2240   -3.2239 H   0  0  0  0  0  0  0  0  0  0  0  0
    2.0999   -0.4345   -2.0152 H   0  0  0  0  0  0  0  0  0  0  0  0
    0.5906   -1.3687   -1.7980 H   0  0  0  0  0  0  0  0  0  0  0  0
   -1.8943   -0.6704   -0.9701 H   0  0  0  0  0  0  0  0  0  0  0  0
   -1.9718   -2.1718    1.0983 H   0  0  0  0  0  0  0  0  0  0  0  0
   -0.4691   -0.1468    2.5099 H   0  0  0  0  0  0  0  0  0  0  0  0
    0.2575   -1.8454    2.4103 H   0  0  0  0  0  0  0  0  0  0  0  0
    1.2342   -1.2443    0.2766 H   0  0  0  0  0  0  0  0  0  0  0  0
    1.6035    0.2147    1.3562 H   0  0  0  0  0  0  0  0  0  0  0  0
  1  2  3  0
  2  3  1  0
  3  4  1  0
  4  5  1  0
  3  6  1  0
  6  7  2  0
  7  8  1  0
  8  9  1  0
  9  3  1  0
  1 10  1  0
  4 11  1  0
  4 12  1  0
  5 13  1  0
  5 14  1  0
  5 15  1  0
  6 16  1  0
  7 17  1  0
  8 18  1  0
  8 19  1  0
  9 20  1  0
  9 21  1  0
M  END
