
     RDKit          3D

 17 18  0  0  0  0  0  0  0  0999 V2000
   -2.1857    1.8728   -1.8158 C   0  0  0  0  0  0  0  0  0  0  0  0
   -1.4235    1.3576   -1.1757 C   0  0  0  0  0  0  0  0  0  0  0  0
   -0.4894    0.7338   -0.3674 C   0  0  0  0  0  0  0  0  0  0  0  0
   -0.7059    1.4185    0.9879 O   0  0  0  0  0  0  0  0  0  0  0  0
    0.9249    0.5653   -0.4176 C   0  0  0  0  0  0  0  0  0  0  0  0
    0.7443   -0.9075   -0.1533 C   0  0  0  0  0  0  0  0  0  0  0  0
    1.6049   -1.5843    0.8901 C   0  0  0  0  0  0  0  0  0  0  0  0
   -0.1372   -1.6464   -0.8747 O   0  0  0  0  0  0  0  0  0  0  0  0
   -0.6870   -0.7379   -0.0345 C   0  0  0  0  0  0  0  0  0  0  0  0
   -3.0436    2.4554   -2.5639 H   0  0  0  0  0  0  0  0  0  0  0  0
   -1.5958    0.9476    1.2200 H   0  0  0  0  0  0  0  0  0  0  0  0
    1.4298    0.8477   -1.3412 H   0  0  0  0  0  0  0  0  0  0  0  0
    1.5264    1.0295    0.4705 H   0  0  0  0  0  0  0  0  0  0  0  0
    1.0778   -2.5350    1.2255 H   0  0  0  0  0  0  0  0  0  0  0  0
    2.6009   -1.8369    0.5005 H   0  0  0  0  0  0  0  0  0  0  0  0
    1.6948   -0.9231    1.7601 H   0  0  0  0  0  0  0  0  0  0  0  0
   -1.3356   -1.0569    0.8027 H   0  0  0  0  0  0  0  0  0  0  0  0
  1  2  3  0
  2  3  1  0
  3  4  1  0
  3  5  1  0
  5  6  1  0
  6  7  1  0
  6  8  1  0
  8  9  1  0
  9  3  1  0
  9  6  1  0
  1 10  1  0
  4 11  1  0
  5 12  1  0
  5 13  1  0
  7 14  1  0
  7 15  1  0
  7 16  1  0
  9 17  1  0
M  END
