
     RDKit          3D

 17 17  0  0  0  0  0  0  0  0999 V2000
   -1.0660    2.4579    0.2688 C   0  0  0  0  0  0  0  0  0  0  0  0
   -1.2924    1.5021    0.5826 C   0  0  0  0  0  0  0  0  0  0  0  0
   -1.6421    0.0478    1.0891 C   0  0  0  0  0  0  0  0  0  0  0  0
   -0.7008   -0.8502    0.3175 C   0  0  0  0  0  0  0  0  0  0  0  0
    0.7373   -0.5425    0.6457 C   0  0  0  0  0  0  0  0  0  0  0  0
    0.8477   -0.1009   -0.7644 C   0  0  0  0  0  0  0  0  0  0  0  0
    1.7847   -0.9447   -1.5568 C   0  0  0  0  0  0  0  0  0  0  0  0
    2.9759   -0.7829   -1.4091 O   0  0  0  0  0  0  0  0  0  0  0  0
   -0.5068   -0.4090   -1.0076 O   0  0  0  0  0  0  0  0  0  0  0  0
   -0.8229    3.5182   -0.0595 H   0  0  0  0  0  0  0  0  0  0  0  0
   -1.4721    0.0788    2.1621 H   0  0  0  0  0  0  0  0  0  0  0  0
   -2.6738   -0.1437    0.7842 H   0  0  0  0  0  0  0  0  0  0  0  0
   -0.8821   -1.9330    0.3834 H   0  0  0  0  0  0  0  0  0  0  0  0
    1.3553   -1.4335    0.9227 H   0  0  0  0  0  0  0  0  0  0  0  0
    0.9012    0.2506    1.3877 H   0  0  0  0  0  0  0  0  0  0  0  0
    1.0031    0.9944   -0.9107 H   0  0  0  0  0  0  0  0  0  0  0  0
    1.4538   -1.7094   -2.2724 H   0  0  0  0  0  0  0  0  0  0  0  0
  1  2  3  0
  2  3  1  0
  3  4  1  0
  4  5  1  0
  5  6  1  0
  6  7  1  0
  7  8  2  0
  6  9  1  0
  9  4  1  0
  1 10  1  0
  3 11  1  0
  3 12  1  0
  4 13  1  0
  5 14  1  0
  5 15  1  0
  6 16  1  0
  7 17  1  0
M  END
