
     RDKit          3D

 14 13  0  0  0  0  0  0  0  0999 V2000
    2.7316    2.5918    1.7064 C   0  0  0  0  0  0  0  0  0  0  0  0
    2.0114    1.5076    1.2352 C   0  0  0  0  0  0  0  0  0  0  0  0
    1.5138    0.7530    0.8905 C   0  0  0  0  0  0  0  0  0  0  0  0
    0.6237   -0.5913    0.2431 C   0  0  0  0  0  0  0  0  0  0  0  0
    0.0459   -1.4989   -0.1959 C   0  0  0  0  0  0  0  0  0  0  0  0
   -1.5094   -1.2857   -0.3590 C   0  0  0  0  0  0  0  0  0  0  0  0
   -1.7226   -0.0278   -1.0057 C   0  0  0  0  0  0  0  0  0  0  0  0
   -1.9013    1.1445   -1.6090 C   0  0  0  0  0  0  0  0  0  0  0  0
    3.3661    3.5216    2.1295 H   0  0  0  0  0  0  0  0  0  0  0  0
    0.0916   -2.5574    0.3604 H   0  0  0  0  0  0  0  0  0  0  0  0
    0.4280   -1.9072   -1.2444 H   0  0  0  0  0  0  0  0  0  0  0  0
   -1.3652   -1.8973   -1.6054 H   0  0  0  0  0  0  0  0  0  0  0  0
   -2.2422   -1.9355   -0.2179 H   0  0  0  0  0  0  0  0  0  0  0  0
   -2.0713    2.1825   -2.1633 H   0  0  0  0  0  0  0  0  0  0  0  0
  1  2  3  0
  2  3  1  0
  3  4  3  0
  4  5  1  0
  5  6  1  0
  6  7  1  0
  7  8  3  0
  1  9  1  0
  5 10  1  0
  5 11  1  0
  6 12  1  0
  6 13  1  0
  8 14  1  0
M  END
