
     RDKit          3D

 21 21  0  0  0  0  0  0  0  0999 V2000
    3.6836    0.1302    0.0870 C   0  0  0  0  0  0  0  0  0  0  0  0
    2.4987   -0.1204    0.0675 C   0  0  0  0  0  0  0  0  0  0  0  0
    1.0902   -0.3984    0.0289 C   0  0  0  0  0  0  0  0  0  0  0  0
    0.1285    0.5024   -0.0400 C   0  0  0  0  0  0  0  0  0  0  0  0
    0.3267    1.9784   -0.0908 C   0  0  0  0  0  0  0  0  0  0  0  0
   -1.1810   -0.1770   -0.0565 C   0  0  0  0  0  0  0  0  0  0  0  0
   -2.2108    0.5512   -0.8815 C   0  0  0  0  0  0  0  0  0  0  0  0
   -0.8523   -1.5208   -0.6148 C   0  0  0  0  0  0  0  0  0  0  0  0
    0.5067   -1.7778    0.0593 C   0  0  0  0  0  0  0  0  0  0  0  0
    4.7322    0.3569    0.0862 H   0  0  0  0  0  0  0  0  0  0  0  0
    1.2940    2.2204    0.3891 H   0  0  0  0  0  0  0  0  0  0  0  0
    0.2880    2.3306   -1.1333 H   0  0  0  0  0  0  0  0  0  0  0  0
   -0.5279    2.4263    0.4573 H   0  0  0  0  0  0  0  0  0  0  0  0
   -1.5986   -0.2988    0.9708 H   0  0  0  0  0  0  0  0  0  0  0  0
   -2.6687    1.3556   -0.2500 H   0  0  0  0  0  0  0  0  0  0  0  0
   -1.7543    0.9991   -1.7827 H   0  0  0  0  0  0  0  0  0  0  0  0
   -3.0122   -0.1753   -1.1280 H   0  0  0  0  0  0  0  0  0  0  0  0
   -1.5056   -2.3332   -0.2918 H   0  0  0  0  0  0  0  0  0  0  0  0
   -0.6961   -1.4603   -1.7077 H   0  0  0  0  0  0  0  0  0  0  0  0
    0.3431   -2.1042    1.1018 H   0  0  0  0  0  0  0  0  0  0  0  0
    1.1158   -2.4850   -0.5338 H   0  0  0  0  0  0  0  0  0  0  0  0
  1  2  3  0
  2  3  1  0
  3  4  2  0
  4  5  1  0
  4  6  1  0
  6  7  1  0
  6  8  1  0
  8  9  1  0
  9  3  1  0
  1 10  1  0
  5 11  1  0
  5 12  1  0
  5 13  1  0
  6 14  1  0
  7 15  1  0
  7 16  1  0
  7 17  1  0
  8 18  1  0
  8 19  1  0
  9 20  1  0
  9 21  1  0
M  END
