
     RDKit          3D

 16 15  0  0  0  0  0  0  0  0999 V2000
    2.5448   -0.4199    0.4421 C   0  0  0  0  0  0  0  0  0  0  0  0
    1.3822   -0.2296    0.2150 C   0  0  0  0  0  0  0  0  0  0  0  0
   -0.0339   -0.0114   -0.0397 C   0  0  0  0  0  0  0  0  0  0  0  0
   -0.1991    0.6430   -1.3618 C   0  0  0  0  0  0  0  0  0  0  0  0
   -0.6085    0.9461    1.0102 C   0  0  0  0  0  0  0  0  0  0  0  0
   -0.8172   -1.2979    0.0996 C   0  0  0  0  0  0  0  0  0  0  0  0
    3.5618   -0.6043    0.6462 H   0  0  0  0  0  0  0  0  0  0  0  0
    0.7685    0.6910   -1.9024 H   0  0  0  0  0  0  0  0  0  0  0  0
   -0.5374    1.7094   -1.2788 H   0  0  0  0  0  0  0  0  0  0  0  0
   -0.9138    0.0842   -1.9976 H   0  0  0  0  0  0  0  0  0  0  0  0
   -0.0754    1.9134    0.8932 H   0  0  0  0  0  0  0  0  0  0  0  0
   -1.6847    1.0332    0.7779 H   0  0  0  0  0  0  0  0  0  0  0  0
   -0.4441    0.4804    1.9940 H   0  0  0  0  0  0  0  0  0  0  0  0
   -1.6075   -1.4180   -0.6451 H   0  0  0  0  0  0  0  0  0  0  0  0
   -1.2545   -1.3947    1.1275 H   0  0  0  0  0  0  0  0  0  0  0  0
   -0.0812   -2.1250    0.0197 H   0  0  0  0  0  0  0  0  0  0  0  0
  1  2  3  0
  2  3  1  0
  3  4  1  0
  3  5  1  0
  3  6  1  0
  1  7  1  0
  4  8  1  0
  4  9  1  0
  4 10  1  0
  5 11  1  0
  5 12  1  0
  5 13  1  0
  6 14  1  0
  6 15  1  0
  6 16  1  0
M  END
