
     RDKit          3D

 15 15  0  0  0  0  0  0  0  0999 V2000
   -2.0500    1.4726    0.5759 C   0  0  0  0  0  0  0  0  0  0  0  0
   -1.3944    0.5714    0.0930 C   0  0  0  0  0  0  0  0  0  0  0  0
   -0.5834   -0.5052   -0.5043 C   0  0  0  0  0  0  0  0  0  0  0  0
   -1.2362   -1.6203   -1.0001 O   0  0  0  0  0  0  0  0  0  0  0  0
    0.6556   -0.0114   -1.2037 C   0  0  0  0  0  0  0  0  0  0  0  0
    0.7445   -0.7066    0.1177 C   0  0  0  0  0  0  0  0  0  0  0  0
    1.1918    0.1067    1.2915 C   0  0  0  0  0  0  0  0  0  0  0  0
   -2.6200    2.2527    1.0122 H   0  0  0  0  0  0  0  0  0  0  0  0
   -1.6506   -1.3621   -1.8557 H   0  0  0  0  0  0  0  0  0  0  0  0
    0.8990    1.0603   -1.2243 H   0  0  0  0  0  0  0  0  0  0  0  0
    0.9352   -0.5363   -2.1432 H   0  0  0  0  0  0  0  0  0  0  0  0
    1.1580   -1.7366    0.0645 H   0  0  0  0  0  0  0  0  0  0  0  0
    1.5424    1.1152    0.9257 H   0  0  0  0  0  0  0  0  0  0  0  0
    2.0261   -0.4011    1.8169 H   0  0  0  0  0  0  0  0  0  0  0  0
    0.3820    0.3007    2.0340 H   0  0  0  0  0  0  0  0  0  0  0  0
  1  2  3  0
  2  3  1  0
  3  4  1  0
  3  5  1  0
  5  6  1  0
  6  7  1  0
  6  3  1  0
  1  8  1  0
  4  9  1  0
  5 10  1  0
  5 11  1  0
  6 12  1  0
  7 13  1  0
  7 14  1  0
  7 15  1  0
M  END
