
     RDKit          3D

 19 19  0  0  0  0  0  0  0  0999 V2000
   -2.3295    1.5902   -1.8929 C   0  0  0  0  0  0  0  0  0  0  0  0
   -1.2349    0.8788   -1.3354 C   0  0  0  0  0  0  0  0  0  0  0  0
   -0.3473    0.2997   -0.9033 C   0  0  0  0  0  0  0  0  0  0  0  0
    0.9109    1.1898   -0.9215 O   0  0  0  0  0  0  0  0  0  0  0  0
    1.9360    0.4229   -1.2805 C   0  0  0  0  0  0  0  0  0  0  0  0
   -0.4359    0.0940    0.6691 C   0  0  0  0  0  0  0  0  0  0  0  0
    0.4263   -1.0257    1.2196 C   0  0  0  0  0  0  0  0  0  0  0  0
   -0.7781   -1.0460    2.1961 C   0  0  0  0  0  0  0  0  0  0  0  0
   -1.5114   -0.6538    1.0205 O   0  0  0  0  0  0  0  0  0  0  0  0
   -3.1767    2.1197   -2.3276 H   0  0  0  0  0  0  0  0  0  0  0  0
    0.1323   -0.6601   -1.2650 H   0  0  0  0  0  0  0  0  0  0  0  0
    1.9122   -0.0181   -2.2741 H   0  0  0  0  0  0  0  0  0  0  0  0
    2.9353    0.9788   -1.0672 H   0  0  0  0  0  0  0  0  0  0  0  0
    1.9663   -0.4985   -0.5976 H   0  0  0  0  0  0  0  0  0  0  0  0
   -0.3401    1.0829    1.1002 H   0  0  0  0  0  0  0  0  0  0  0  0
    1.2938   -0.6206    1.6934 H   0  0  0  0  0  0  0  0  0  0  0  0
    0.4145   -1.9070    0.5636 H   0  0  0  0  0  0  0  0  0  0  0  0
   -1.0300   -2.0397    2.5213 H   0  0  0  0  0  0  0  0  0  0  0  0
   -0.7437   -0.1874    2.8811 H   0  0  0  0  0  0  0  0  0  0  0  0
  1  2  3  0
  2  3  1  0
  3  4  1  0
  4  5  1  0
  3  6  1  0
  6  7  1  0
  7  8  1  0
  8  9  1  0
  9  6  1  0
  1 10  1  0
  3 11  1  0
  5 12  1  0
  5 13  1  0
  5 14  1  0
  6 15  1  0
  7 16  1  0
  7 17  1  0
  8 18  1  0
  8 19  1  0
M  END
