
     RDKit          3D

 17 18  0  0  0  0  0  0  0  0999 V2000
    1.6741    1.7873    2.6092 C   0  0  0  0  0  0  0  0  0  0  0  0
    1.1036    1.3237    1.6266 C   0  0  0  0  0  0  0  0  0  0  0  0
    0.4184    0.7607    0.4660 C   0  0  0  0  0  0  0  0  0  0  0  0
   -1.0575    0.4902    0.6512 C   0  0  0  0  0  0  0  0  0  0  0  0
   -1.3584   -0.6385   -0.2835 C   0  0  0  0  0  0  0  0  0  0  0  0
   -0.1676   -0.8878   -1.1454 C   0  0  0  0  0  0  0  0  0  0  0  0
    0.1571   -2.2061   -1.3423 O   0  0  0  0  0  0  0  0  0  0  0  0
    0.9334   -0.1235   -0.4087 C   0  0  0  0  0  0  0  0  0  0  0  0
    0.8947    1.2314   -0.7557 O   0  0  0  0  0  0  0  0  0  0  0  0
    2.1628    2.1912    3.4866 H   0  0  0  0  0  0  0  0  0  0  0  0
   -1.7002    1.3639    0.5592 H   0  0  0  0  0  0  0  0  0  0  0  0
   -1.1677    0.1226    1.7073 H   0  0  0  0  0  0  0  0  0  0  0  0
   -2.2472   -0.3563   -0.8862 H   0  0  0  0  0  0  0  0  0  0  0  0
   -1.5385   -1.5820    0.3020 H   0  0  0  0  0  0  0  0  0  0  0  0
   -0.3724   -0.4160   -2.1342 H   0  0  0  0  0  0  0  0  0  0  0  0
    0.3558   -2.4151   -2.2973 H   0  0  0  0  0  0  0  0  0  0  0  0
    1.9097   -0.6457   -0.3168 H   0  0  0  0  0  0  0  0  0  0  0  0
  1  2  3  0
  2  3  1  0
  3  4  1  0
  4  5  1  0
  5  6  1  0
  6  7  1  0
  6  8  1  0
  8  9  1  0
  8  3  1  0
  9  3  1  0
  1 10  1  0
  4 11  1  0
  4 12  1  0
  5 13  1  0
  5 14  1  0
  6 15  1  0
  7 16  1  0
  8 17  1  0
M  END
