
     RDKit          3D

 21 20  0  0  0  0  0  0  0  0999 V2000
   -3.1852    1.6802   -1.2449 C   0  0  0  0  0  0  0  0  0  0  0  0
   -2.5027    0.8163   -0.7374 C   0  0  0  0  0  0  0  0  0  0  0  0
   -1.6681   -0.2517   -0.1399 C   0  0  0  0  0  0  0  0  0  0  0  0
   -2.4572   -1.5341   -0.2136 C   0  0  0  0  0  0  0  0  0  0  0  0
   -0.4871   -0.2894   -0.8278 O   0  0  0  0  0  0  0  0  0  0  0  0
    0.5461   -0.0654    0.0534 C   0  0  0  0  0  0  0  0  0  0  0  0
    1.9001   -0.0871   -0.6069 C   0  0  0  0  0  0  0  0  0  0  0  0
    2.9442    0.1727    0.4752 C   0  0  0  0  0  0  0  0  0  0  0  0
    2.7386    1.4122    1.0838 O   0  0  0  0  0  0  0  0  0  0  0  0
   -3.7707    2.4399   -1.6933 H   0  0  0  0  0  0  0  0  0  0  0  0
   -1.4658   -0.0531    0.9250 H   0  0  0  0  0  0  0  0  0  0  0  0
   -3.0982   -1.6108   -1.0976 H   0  0  0  0  0  0  0  0  0  0  0  0
   -1.6968   -2.3641   -0.3060 H   0  0  0  0  0  0  0  0  0  0  0  0
   -2.9880   -1.7282    0.7308 H   0  0  0  0  0  0  0  0  0  0  0  0
    0.5061   -0.8098    0.8432 H   0  0  0  0  0  0  0  0  0  0  0  0
    0.4238    0.9335    0.5250 H   0  0  0  0  0  0  0  0  0  0  0  0
    2.1448   -1.0168   -1.1130 H   0  0  0  0  0  0  0  0  0  0  0  0
    1.9441    0.7284   -1.3577 H   0  0  0  0  0  0  0  0  0  0  0  0
    3.9674    0.1513    0.0561 H   0  0  0  0  0  0  0  0  0  0  0  0
    2.8153   -0.5975    1.2779 H   0  0  0  0  0  0  0  0  0  0  0  0
    3.3892    2.0733    0.7926 H   0  0  0  0  0  0  0  0  0  0  0  0
  1  2  3  0
  2  3  1  0
  3  4  1  0
  3  5  1  0
  5  6  1  0
  6  7  1  0
  7  8  1  0
  8  9  1  0
  1 10  1  0
  3 11  1  0
  4 12  1  0
  4 13  1  0
  4 14  1  0
  6 15  1  0
  6 16  1  0
  7 17  1  0
  7 18  1  0
  8 19  1  0
  8 20  1  0
  9 21  1  0
M  END
