
     RDKit          3D

 25 24  0  0  0  0  0  0  0  0999 V2000
    4.6788    1.5033    1.5671 C   0  0  0  0  0  0  0  0  0  0  0  0
    3.2258    1.6713    1.1288 C   0  0  0  0  0  0  0  0  0  0  0  0
    2.1195    1.8163    0.7830 C   0  0  0  0  0  0  0  0  0  0  0  0
    1.0643    0.7774    0.6408 C   0  0  0  0  0  0  0  0  0  0  0  0
    1.2641   -0.3434   -0.2718 C   0  0  0  0  0  0  0  0  0  0  0  0
    0.0248   -1.2214   -0.4177 C   0  0  0  0  0  0  0  0  0  0  0  0
   -1.1864   -0.4203   -0.7561 C   0  0  0  0  0  0  0  0  0  0  0  0
   -2.3506   -1.4137   -0.9048 C   0  0  0  0  0  0  0  0  0  0  0  0
   -3.5920   -0.6823   -1.3854 C   0  0  0  0  0  0  0  0  0  0  0  0
    5.6237    1.3918    1.8392 H   0  0  0  0  0  0  0  0  0  0  0  0
    1.7960    2.8901    0.3770 H   0  0  0  0  0  0  0  0  0  0  0  0
    1.6567    2.2718    2.0249 H   0  0  0  0  0  0  0  0  0  0  0  0
    0.7985    0.3613    1.6715 H   0  0  0  0  0  0  0  0  0  0  0  0
    0.1347    1.3844    0.3814 H   0  0  0  0  0  0  0  0  0  0  0  0
    2.0411   -1.0577    0.1637 H   0  0  0  0  0  0  0  0  0  0  0  0
    1.6988   -0.0820   -1.2447 H   0  0  0  0  0  0  0  0  0  0  0  0
   -0.1480   -1.9334    0.3541 H   0  0  0  0  0  0  0  0  0  0  0  0
    0.2407   -1.8364   -1.3680 H   0  0  0  0  0  0  0  0  0  0  0  0
   -1.4756    0.1758    0.1969 H   0  0  0  0  0  0  0  0  0  0  0  0
   -1.1884    0.1730   -1.6484 H   0  0  0  0  0  0  0  0  0  0  0  0
   -2.6090   -1.8066    0.1248 H   0  0  0  0  0  0  0  0  0  0  0  0
   -2.1657   -2.2534   -1.5630 H   0  0  0  0  0  0  0  0  0  0  0  0
   -3.2343    0.0907   -2.1447 H   0  0  0  0  0  0  0  0  0  0  0  0
   -4.2934   -1.3152   -1.9282 H   0  0  0  0  0  0  0  0  0  0  0  0
   -4.1242   -0.1412   -0.5640 H   0  0  0  0  0  0  0  0  0  0  0  0
  1  2  3  0
  2  3  1  0
  3  4  1  0
  4  5  1  0
  5  6  1  0
  6  7  1  0
  7  8  1  0
  8  9  1  0
  1 10  1  0
  3 11  1  0
  3 12  1  0
  4 13  1  0
  4 14  1  0
  5 15  1  0
  5 16  1  0
  6 17  1  0
  6 18  1  0
  7 19  1  0
  7 20  1  0
  8 21  1  0
  8 22  1  0
  9 23  1  0
  9 24  1  0
  9 25  1  0
M  END
