
     RDKit          3D

 17 18  0  0  0  0  0  0  0  0999 V2000
    2.1940    2.5841   -0.5047 C   0  0  0  0  0  0  0  0  0  0  0  0
    1.6757    1.6795   -0.0601 C   0  0  0  0  0  0  0  0  0  0  0  0
    0.9678    0.4923    0.5178 C   0  0  0  0  0  0  0  0  0  0  0  0
   -0.2882    0.9397    0.9765 O   0  0  0  0  0  0  0  0  0  0  0  0
   -0.9590    0.4169   -0.1256 C   0  0  0  0  0  0  0  0  0  0  0  0
   -1.8499   -0.7178    0.3599 C   0  0  0  0  0  0  0  0  0  0  0  0
   -0.9057   -1.6083    0.8843 O   0  0  0  0  0  0  0  0  0  0  0  0
   -0.0121   -1.7382   -0.1754 C   0  0  0  0  0  0  0  0  0  0  0  0
    0.2977   -0.3204   -0.5301 C   0  0  0  0  0  0  0  0  0  0  0  0
    2.6950    3.4972   -0.9537 H   0  0  0  0  0  0  0  0  0  0  0  0
    1.5538   -0.1019    1.2160 H   0  0  0  0  0  0  0  0  0  0  0  0
   -1.3870    1.1062   -0.8446 H   0  0  0  0  0  0  0  0  0  0  0  0
   -2.3647   -1.2162   -0.4668 H   0  0  0  0  0  0  0  0  0  0  0  0
   -2.5343   -0.3119    1.1474 H   0  0  0  0  0  0  0  0  0  0  0  0
   -0.5563   -2.2458   -0.9920 H   0  0  0  0  0  0  0  0  0  0  0  0
    0.8524   -2.3113    0.1955 H   0  0  0  0  0  0  0  0  0  0  0  0
    0.6208   -0.1442   -1.5756 H   0  0  0  0  0  0  0  0  0  0  0  0
  1  2  3  0
  2  3  1  0
  3  4  1  0
  4  5  1  0
  5  6  1  0
  6  7  1  0
  7  8  1  0
  8  9  1  0
  9  3  1  0
  9  5  1  0
  1 10  1  0
  3 11  1  0
  5 12  1  0
  6 13  1  0
  6 14  1  0
  8 15  1  0
  8 16  1  0
  9 17  1  0
M  END
