
     RDKit          3D

 18 18  0  0  0  0  0  0  0  0999 V2000
    2.7654   -0.4346    0.4220 C   0  0  0  0  0  0  0  0  0  0  0  0
    1.5688   -0.4208    0.6203 C   0  0  0  0  0  0  0  0  0  0  0  0
    0.1155   -0.3907    0.8616 C   0  0  0  0  0  0  0  0  0  0  0  0
   -0.2114    1.0439    1.2980 C   0  0  0  0  0  0  0  0  0  0  0  0
   -0.3179    1.7297   -0.0262 C   0  0  0  0  0  0  0  0  0  0  0  0
   -0.7930    0.6808   -0.9342 C   0  0  0  0  0  0  0  0  0  0  0  0
   -0.5583   -0.5317   -0.4525 C   0  0  0  0  0  0  0  0  0  0  0  0
   -0.9172   -1.7988   -1.1300 C   0  0  0  0  0  0  0  0  0  0  0  0
    3.8226   -0.4362    0.2537 H   0  0  0  0  0  0  0  0  0  0  0  0
   -0.1968   -1.1292    1.6044 H   0  0  0  0  0  0  0  0  0  0  0  0
    0.5990    1.4510    1.9402 H   0  0  0  0  0  0  0  0  0  0  0  0
   -1.2006    1.0832    1.7985 H   0  0  0  0  0  0  0  0  0  0  0  0
   -1.0011    2.6133    0.0001 H   0  0  0  0  0  0  0  0  0  0  0  0
    0.6647    2.1226   -0.3548 H   0  0  0  0  0  0  0  0  0  0  0  0
   -1.2838    0.8974   -1.8970 H   0  0  0  0  0  0  0  0  0  0  0  0
   -0.5366   -1.8396   -2.1856 H   0  0  0  0  0  0  0  0  0  0  0  0
   -2.0263   -1.9522   -1.1960 H   0  0  0  0  0  0  0  0  0  0  0  0
   -0.4930   -2.6880   -0.6226 H   0  0  0  0  0  0  0  0  0  0  0  0
  1  2  3  0
  2  3  1  0
  3  4  1  0
  4  5  1  0
  5  6  1  0
  6  7  2  0
  7  8  1  0
  7  3  1  0
  1  9  1  0
  3 10  1  0
  4 11  1  0
  4 12  1  0
  5 13  1  0
  5 14  1  0
  6 15  1  0
  8 16  1  0
  8 17  1  0
  8 18  1  0
M  END
