
     RDKit          3D

 17 17  0  0  0  0  0  0  0  0999 V2000
   -3.3822   -0.8013   -0.5928 C   0  0  0  0  0  0  0  0  0  0  0  0
   -2.2090   -0.7069   -0.4308 C   0  0  0  0  0  0  0  0  0  0  0  0
   -0.7666   -0.5887   -0.2082 C   0  0  0  0  0  0  0  0  0  0  0  0
   -0.1303    0.2264   -1.2525 C   0  0  0  0  0  0  0  0  0  0  0  0
    1.1032    0.6907   -1.2908 C   0  0  0  0  0  0  0  0  0  0  0  0
    2.1944    0.5287   -0.3023 C   0  0  0  0  0  0  0  0  0  0  0  0
    1.9521    0.3195    0.9904 C   0  0  0  0  0  0  0  0  0  0  0  0
    0.6605    0.2076    1.6921 C   0  0  0  0  0  0  0  0  0  0  0  0
   -0.4946   -0.1781    1.1807 C   0  0  0  0  0  0  0  0  0  0  0  0
   -4.4189   -0.8816   -0.7502 H   0  0  0  0  0  0  0  0  0  0  0  0
   -0.3300   -1.6252   -0.3208 H   0  0  0  0  0  0  0  0  0  0  0  0
   -0.7819    0.4755   -2.1124 H   0  0  0  0  0  0  0  0  0  0  0  0
    1.3216    1.2611   -2.1803 H   0  0  0  0  0  0  0  0  0  0  0  0
    3.1918    0.5880   -0.6687 H   0  0  0  0  0  0  0  0  0  0  0  0
    2.8248    0.2192    1.6205 H   0  0  0  0  0  0  0  0  0  0  0  0
    0.6206    0.4584    2.7446 H   0  0  0  0  0  0  0  0  0  0  0  0
   -1.3556   -0.1931    1.8814 H   0  0  0  0  0  0  0  0  0  0  0  0
  1  2  3  0
  2  3  1  0
  3  4  1  0
  4  5  2  0
  5  6  1  0
  6  7  2  0
  7  8  1  0
  8  9  2  0
  9  3  1  0
  1 10  1  0
  3 11  1  0
  4 12  1  0
  5 13  1  0
  6 14  1  0
  7 15  1  0
  8 16  1  0
  9 17  1  0
M  END
