
     RDKit          3D

 13 13  0  0  0  0  0  0  0  0999 V2000
    2.2241   -0.6794    1.2685 C   0  0  0  0  0  0  0  0  0  0  0  0
    1.2764   -0.2150    0.5632 C   0  0  0  0  0  0  0  0  0  0  0  0
    0.2720    0.2994   -0.1756 C   0  0  0  0  0  0  0  0  0  0  0  0
    0.1862    1.6971   -0.3198 C   0  0  0  0  0  0  0  0  0  0  0  0
    0.0447    1.6605   -1.9643 O   0  0  0  0  0  0  0  0  0  0  0  0
   -0.1145   -0.5924   -1.1947 O   0  0  0  0  0  0  0  0  0  0  0  0
   -1.2837   -0.9351   -0.5430 C   0  0  0  0  0  0  0  0  0  0  0  0
   -1.0510   -0.2191    0.6074 C   0  0  0  0  0  0  0  0  0  0  0  0
   -1.3381    0.1667    1.7848 O   0  0  0  0  0  0  0  0  0  0  0  0
    3.2222   -1.1450    2.0048 H   0  0  0  0  0  0  0  0  0  0  0  0
    0.1214    2.6894   -0.4682 H   0  0  0  0  0  0  0  0  0  0  0  0
   -1.3553   -2.1001   -0.4157 H   0  0  0  0  0  0  0  0  0  0  0  0
   -2.2043   -0.6269   -1.1474 H   0  0  0  0  0  0  0  0  0  0  0  0
  1  2  3  0
  2  3  1  0
  3  4  1  0
  4  5  2  0
  3  6  1  0
  6  7  1  0
  7  8  1  0
  8  9  2  0
  8  3  1  0
  1 10  1  0
  4 11  1  0
  7 12  1  0
  7 13  1  0
M  END
