
     RDKit          3D

 15 15  0  0  0  0  0  0  0  0999 V2000
    2.7648    1.0132    0.6235 C   0  0  0  0  0  0  0  0  0  0  0  0
    1.6570    0.6281    0.4888 C   0  0  0  0  0  0  0  0  0  0  0  0
    0.3001    0.1443    0.3460 C   0  0  0  0  0  0  0  0  0  0  0  0
   -0.6020    1.0633   -0.4126 C   0  0  0  0  0  0  0  0  0  0  0  0
   -1.9316    0.5307   -0.2892 O   0  0  0  0  0  0  0  0  0  0  0  0
   -2.1350   -0.8074    0.0752 C   0  0  0  0  0  0  0  0  0  0  0  0
   -3.2597   -1.1698    0.5382 O   0  0  0  0  0  0  0  0  0  0  0  0
   -1.0766   -1.6958   -0.0891 O   0  0  0  0  0  0  0  0  0  0  0  0
    0.2362   -1.2178   -0.3337 C   0  0  0  0  0  0  0  0  0  0  0  0
    3.7683    1.3569    0.7467 H   0  0  0  0  0  0  0  0  0  0  0  0
   -0.1474   -0.0037    1.3705 H   0  0  0  0  0  0  0  0  0  0  0  0
   -0.3332    0.9553   -1.5033 H   0  0  0  0  0  0  0  0  0  0  0  0
   -0.5479    2.1127   -0.1117 H   0  0  0  0  0  0  0  0  0  0  0  0
    0.2874   -1.0143   -1.4433 H   0  0  0  0  0  0  0  0  0  0  0  0
    1.0196   -1.8959   -0.0061 H   0  0  0  0  0  0  0  0  0  0  0  0
  1  2  3  0
  2  3  1  0
  3  4  1  0
  4  5  1  0
  5  6  1  0
  6  7  2  0
  6  8  1  0
  8  9  1  0
  9  3  1  0
  1 10  1  0
  3 11  1  0
  4 12  1  0
  4 13  1  0
  9 14  1  0
  9 15  1  0
M  END
