
     RDKit          3D

 21 20  0  0  0  0  0  0  0  0999 V2000
    4.5715    1.4236    0.7995 C   0  0  0  0  0  0  0  0  0  0  0  0
    3.8197    0.5690    0.3626 C   0  0  0  0  0  0  0  0  0  0  0  0
    2.9154   -0.4688   -0.1435 C   0  0  0  0  0  0  0  0  0  0  0  0
    1.4677    0.0172   -0.1167 C   0  0  0  0  0  0  0  0  0  0  0  0
    0.5951   -1.0804   -0.6423 C   0  0  0  0  0  0  0  0  0  0  0  0
   -0.8107   -0.6161   -0.6192 C   0  0  0  0  0  0  0  0  0  0  0  0
   -1.9547   -0.2330   -0.6209 C   0  0  0  0  0  0  0  0  0  0  0  0
   -3.3487    0.2292   -0.6011 C   0  0  0  0  0  0  0  0  0  0  0  0
   -3.8154    0.4375    0.8438 C   0  0  0  0  0  0  0  0  0  0  0  0
    5.2346    2.1558    1.1912 H   0  0  0  0  0  0  0  0  0  0  0  0
    3.2372   -0.7894   -1.1309 H   0  0  0  0  0  0  0  0  0  0  0  0
    2.9312   -1.3744    0.5311 H   0  0  0  0  0  0  0  0  0  0  0  0
    1.2187    0.1821    0.9519 H   0  0  0  0  0  0  0  0  0  0  0  0
    1.4020    0.9521   -0.6836 H   0  0  0  0  0  0  0  0  0  0  0  0
    0.8745   -1.3703   -1.6785 H   0  0  0  0  0  0  0  0  0  0  0  0
    0.7268   -1.9585    0.0287 H   0  0  0  0  0  0  0  0  0  0  0  0
   -4.0020   -0.5359   -1.0551 H   0  0  0  0  0  0  0  0  0  0  0  0
   -3.4237    1.2010   -1.1645 H   0  0  0  0  0  0  0  0  0  0  0  0
   -3.4340   -0.4700    1.3967 H   0  0  0  0  0  0  0  0  0  0  0  0
   -3.3070    1.3004    1.3059 H   0  0  0  0  0  0  0  0  0  0  0  0
   -4.8981    0.4291    0.9315 H   0  0  0  0  0  0  0  0  0  0  0  0
  1  2  3  0
  2  3  1  0
  3  4  1  0
  4  5  1  0
  5  6  1  0
  6  7  3  0
  7  8  1  0
  8  9  1  0
  1 10  1  0
  3 11  1  0
  3 12  1  0
  4 13  1  0
  4 14  1  0
  5 15  1  0
  5 16  1  0
  8 17  1  0
  8 18  1  0
  9 19  1  0
  9 20  1  0
  9 21  1  0
M  END
