
     RDKit          3D

 15 14  0  0  0  0  0  0  0  0999 V2000
   -0.2980    2.9527   -0.5964 C   0  0  0  0  0  0  0  0  0  0  0  0
   -0.3649    1.7831   -0.2622 C   0  0  0  0  0  0  0  0  0  0  0  0
   -0.4270    0.3692    0.1238 C   0  0  0  0  0  0  0  0  0  0  0  0
    0.8843   -0.2833   -0.0130 C   0  0  0  0  0  0  0  0  0  0  0  0
    1.9684   -0.8162   -0.1087 C   0  0  0  0  0  0  0  0  0  0  0  0
    3.2526   -1.4457   -0.2210 C   0  0  0  0  0  0  0  0  0  0  0  0
    4.1958   -0.7860   -0.7241 O   0  0  0  0  0  0  0  0  0  0  0  0
   -1.3581   -0.3077   -0.6582 O   0  0  0  0  0  0  0  0  0  0  0  0
   -2.3851   -0.7580    0.1690 C   0  0  0  0  0  0  0  0  0  0  0  0
   -0.2540    3.9698   -0.8836 H   0  0  0  0  0  0  0  0  0  0  0  0
   -0.7461    0.3739    1.2058 H   0  0  0  0  0  0  0  0  0  0  0  0
    3.4585   -2.4549    0.1014 H   0  0  0  0  0  0  0  0  0  0  0  0
   -1.9349   -1.4329    0.9198 H   0  0  0  0  0  0  0  0  0  0  0  0
   -3.1851   -1.2680   -0.3784 H   0  0  0  0  0  0  0  0  0  0  0  0
   -2.8064    0.1039    0.7636 H   0  0  0  0  0  0  0  0  0  0  0  0
  1  2  3  0
  2  3  1  0
  3  4  1  0
  4  5  3  0
  5  6  1  0
  6  7  2  0
  3  8  1  0
  8  9  1  0
  1 10  1  0
  3 11  1  0
  6 12  1  0
  9 13  1  0
  9 14  1  0
  9 15  1  0
M  END
