
     RDKit          3D

 17 18  0  0  0  0  0  0  0  0999 V2000
   -2.9740    0.8277   -0.5536 C   0  0  0  0  0  0  0  0  0  0  0  0
   -2.0955    0.0200   -0.4428 C   0  0  0  0  0  0  0  0  0  0  0  0
   -1.0264   -0.9727   -0.3318 C   0  0  0  0  0  0  0  0  0  0  0  0
    0.3224   -0.2391   -0.4125 C   0  0  0  0  0  0  0  0  0  0  0  0
    0.5066    0.7673    0.6679 C   0  0  0  0  0  0  0  0  0  0  0  0
    1.5408    0.6978    1.6763 C   0  0  0  0  0  0  0  0  0  0  0  0
    0.2218    0.1352    1.9797 O   0  0  0  0  0  0  0  0  0  0  0  0
    1.3569   -0.7747   -1.2276 C   0  0  0  0  0  0  0  0  0  0  0  0
    0.5882    0.3263   -1.7136 O   0  0  0  0  0  0  0  0  0  0  0  0
   -3.7524    1.5367   -0.6374 H   0  0  0  0  0  0  0  0  0  0  0  0
   -1.0933   -1.5373    0.5937 H   0  0  0  0  0  0  0  0  0  0  0  0
   -1.0743   -1.6819   -1.1792 H   0  0  0  0  0  0  0  0  0  0  0  0
   -0.1748    1.6481    0.5876 H   0  0  0  0  0  0  0  0  0  0  0  0
    2.3389   -0.0584    1.5516 H   0  0  0  0  0  0  0  0  0  0  0  0
    1.7109    1.5804    2.3109 H   0  0  0  0  0  0  0  0  0  0  0  0
    1.1662   -1.6890   -1.8244 H   0  0  0  0  0  0  0  0  0  0  0  0
    2.4379   -0.5864   -1.0447 H   0  0  0  0  0  0  0  0  0  0  0  0
  1  2  3  0
  2  3  1  0
  3  4  1  0
  4  5  1  0
  5  6  1  0
  6  7  1  0
  4  8  1  0
  8  9  1  0
  9  4  1  0
  7  5  1  0
  1 10  1  0
  3 11  1  0
  3 12  1  0
  5 13  1  0
  6 14  1  0
  6 15  1  0
  8 16  1  0
  8 17  1  0
M  END
