
     RDKit          3D

 13 13  0  0  0  0  0  0  0  0999 V2000
   -2.5570    0.1291   -1.4426 C   0  0  0  0  0  0  0  0  0  0  0  0
   -1.6178   -0.1440   -1.0919 C   0  0  0  0  0  0  0  0  0  0  0  0
   -0.2115   -0.5733   -0.5845 C   0  0  0  0  0  0  0  0  0  0  0  0
    0.4456    0.3791    0.2697 C   0  0  0  0  0  0  0  0  0  0  0  0
    1.0192    1.1930    1.0218 C   0  0  0  0  0  0  0  0  0  0  0  0
    1.6637    2.0678    1.8510 C   0  0  0  0  0  0  0  0  0  0  0  0
    2.9036    2.3107    1.6511 O   0  0  0  0  0  0  0  0  0  0  0  0
    0.0820   -2.0432   -0.5203 C   0  0  0  0  0  0  0  0  0  0  0  0
    0.5058   -1.2595   -1.5521 O   0  0  0  0  0  0  0  0  0  0  0  0
   -3.5426    0.4155   -1.8120 H   0  0  0  0  0  0  0  0  0  0  0  0
    1.2017    2.6125    2.7125 H   0  0  0  0  0  0  0  0  0  0  0  0
   -0.6788   -2.7977   -0.8244 H   0  0  0  0  0  0  0  0  0  0  0  0
    0.7861   -2.2900    0.3217 H   0  0  0  0  0  0  0  0  0  0  0  0
  1  2  3  0
  2  3  1  0
  3  4  1  0
  4  5  3  0
  5  6  1  0
  6  7  2  0
  3  8  1  0
  8  9  1  0
  9  3  1  0
  1 10  1  0
  6 11  1  0
  8 12  1  0
  8 13  1  0
M  END
