
     RDKit          3D

 21 21  0  0  0  0  0  0  0  0999 V2000
   -2.2573    1.5524   -1.4901 C   0  0  0  0  0  0  0  0  0  0  0  0
   -1.5404    0.8362   -0.8302 C   0  0  0  0  0  0  0  0  0  0  0  0
   -0.6737   -0.0576   -0.0394 C   0  0  0  0  0  0  0  0  0  0  0  0
   -1.3600   -1.3408    0.2338 C   0  0  0  0  0  0  0  0  0  0  0  0
   -0.3028    0.6421    1.2602 C   0  0  0  0  0  0  0  0  0  0  0  0
    1.1098    0.7558    0.8013 C   0  0  0  0  0  0  0  0  0  0  0  0
    1.5839    2.0383    0.5780 O   0  0  0  0  0  0  0  0  0  0  0  0
    0.7319   -0.0207   -0.4446 C   0  0  0  0  0  0  0  0  0  0  0  0
    1.5303   -1.2565   -0.5680 C   0  0  0  0  0  0  0  0  0  0  0  0
   -2.9041    2.1849   -2.0656 H   0  0  0  0  0  0  0  0  0  0  0  0
   -2.4682   -1.2630    0.0329 H   0  0  0  0  0  0  0  0  0  0  0  0
   -1.3047   -1.6232    1.3214 H   0  0  0  0  0  0  0  0  0  0  0  0
   -1.0147   -2.2064   -0.3279 H   0  0  0  0  0  0  0  0  0  0  0  0
   -0.7584    1.6242    1.4151 H   0  0  0  0  0  0  0  0  0  0  0  0
   -0.4386    0.0106    2.1686 H   0  0  0  0  0  0  0  0  0  0  0  0
    1.7982    0.2026    1.4904 H   0  0  0  0  0  0  0  0  0  0  0  0
    1.9353    2.0558   -0.3593 H   0  0  0  0  0  0  0  0  0  0  0  0
    0.8991    0.6467   -1.3387 H   0  0  0  0  0  0  0  0  0  0  0  0
    1.0254   -2.1937   -0.3450 H   0  0  0  0  0  0  0  0  0  0  0  0
    2.4377   -1.2164    0.1047 H   0  0  0  0  0  0  0  0  0  0  0  0
    1.9714   -1.3712   -1.5975 H   0  0  0  0  0  0  0  0  0  0  0  0
  1  2  3  0
  2  3  1  0
  3  4  1  0
  3  5  1  0
  5  6  1  0
  6  7  1  0
  6  8  1  0
  8  9  1  0
  8  3  1  0
  1 10  1  0
  4 11  1  0
  4 12  1  0
  4 13  1  0
  5 14  1  0
  5 15  1  0
  6 16  1  0
  7 17  1  0
  8 18  1  0
  9 19  1  0
  9 20  1  0
  9 21  1  0
M  END
