
     RDKit          3D

 17 19  0  0  0  0  0  0  0  0999 V2000
    3.6551    0.5693    0.2143 C   0  0  0  0  0  0  0  0  0  0  0  0
    2.4838    0.3497    0.4772 C   0  0  0  0  0  0  0  0  0  0  0  0
    1.0711    0.1000    0.7829 C   0  0  0  0  0  0  0  0  0  0  0  0
    0.3241   -0.8949   -0.0202 C   0  0  0  0  0  0  0  0  0  0  0  0
   -1.1081   -1.1080    0.3513 C   0  0  0  0  0  0  0  0  0  0  0  0
   -2.2134   -0.6664   -0.5259 C   0  0  0  0  0  0  0  0  0  0  0  0
   -1.3580    0.3911    0.0531 C   0  0  0  0  0  0  0  0  0  0  0  0
   -1.8038    1.1850    1.0847 O   0  0  0  0  0  0  0  0  0  0  0  0
    0.0920    0.5237   -0.2953 C   0  0  0  0  0  0  0  0  0  0  0  0
    4.6631    0.7414   -0.0191 H   0  0  0  0  0  0  0  0  0  0  0  0
    0.7360    0.3892    1.7989 H   0  0  0  0  0  0  0  0  0  0  0  0
    0.8603   -1.5737   -0.6873 H   0  0  0  0  0  0  0  0  0  0  0  0
   -1.2905   -1.3944    1.3944 H   0  0  0  0  0  0  0  0  0  0  0  0
   -2.1430   -0.8546   -1.6109 H   0  0  0  0  0  0  0  0  0  0  0  0
   -3.2239   -0.7526   -0.1130 H   0  0  0  0  0  0  0  0  0  0  0  0
   -1.1795    1.9451    1.2071 H   0  0  0  0  0  0  0  0  0  0  0  0
    0.4346    1.0501   -1.1829 H   0  0  0  0  0  0  0  0  0  0  0  0
  1  2  3  0
  2  3  1  0
  3  4  1  0
  4  5  1  0
  5  6  1  0
  6  7  1  0
  7  8  1  0
  7  9  1  0
  9  3  1  0
  9  4  1  0
  7  5  1  0
  1 10  1  0
  3 11  1  0
  4 12  1  0
  5 13  1  0
  6 14  1  0
  6 15  1  0
  8 16  1  0
  9 17  1  0
M  END
