
     RDKit          3D

 17 18  0  0  0  0  0  0  0  0999 V2000
    2.1807    0.7735   -1.1823 C   0  0  0  0  0  0  0  0  0  0  0  0
    1.1852    0.0589   -1.2197 C   0  0  0  0  0  0  0  0  0  0  0  0
   -0.0285   -0.8109   -1.2409 C   0  0  0  0  0  0  0  0  0  0  0  0
   -1.1710   -0.0680   -0.5803 C   0  0  0  0  0  0  0  0  0  0  0  0
   -0.4001    0.1473    0.7251 C   0  0  0  0  0  0  0  0  0  0  0  0
   -0.4268    1.3983    1.5343 C   0  0  0  0  0  0  0  0  0  0  0  0
    0.2592   -0.9897    0.9443 C   0  0  0  0  0  0  0  0  0  0  0  0
   -0.0575   -1.8900   -0.1334 C   0  0  0  0  0  0  0  0  0  0  0  0
    0.2675   -2.0639   -1.3819 O   0  0  0  0  0  0  0  0  0  0  0  0
    3.0486    1.3754   -1.1443 H   0  0  0  0  0  0  0  0  0  0  0  0
   -2.0734   -0.6499   -0.4291 H   0  0  0  0  0  0  0  0  0  0  0  0
   -1.3062    0.9153   -1.0726 H   0  0  0  0  0  0  0  0  0  0  0  0
   -0.4491    2.2397    0.7820 H   0  0  0  0  0  0  0  0  0  0  0  0
    0.4945    1.5146    2.1166 H   0  0  0  0  0  0  0  0  0  0  0  0
   -1.3453    1.5081    2.1227 H   0  0  0  0  0  0  0  0  0  0  0  0
    0.8950   -1.0819    1.8308 H   0  0  0  0  0  0  0  0  0  0  0  0
   -1.0727   -2.3767    0.0695 H   0  0  0  0  0  0  0  0  0  0  0  0
  1  2  3  0
  2  3  1  0
  3  4  1  0
  4  5  1  0
  5  6  1  0
  5  7  2  0
  7  8  1  0
  8  9  1  0
  8  3  1  0
  9  3  1  0
  1 10  1  0
  4 11  1  0
  4 12  1  0
  6 13  1  0
  6 14  1  0
  6 15  1  0
  7 16  1  0
  8 17  1  0
M  END
