
     RDKit          3D

 19 19  0  0  0  0  0  0  0  0999 V2000
    2.8462   -0.5941   -1.3816 C   0  0  0  0  0  0  0  0  0  0  0  0
    1.6369   -0.7450   -1.2699 C   0  0  0  0  0  0  0  0  0  0  0  0
    0.1913   -0.9260   -1.1187 C   0  0  0  0  0  0  0  0  0  0  0  0
   -0.3211    0.0975   -0.1325 C   0  0  0  0  0  0  0  0  0  0  0  0
   -0.0583    1.4694   -0.5921 C   0  0  0  0  0  0  0  0  0  0  0  0
    0.1452    2.5980   -0.9862 C   0  0  0  0  0  0  0  0  0  0  0  0
    0.2567   -0.1774    1.2411 C   0  0  0  0  0  0  0  0  0  0  0  0
   -1.1524   -0.3743    1.7388 C   0  0  0  0  0  0  0  0  0  0  0  0
   -1.7247   -0.1081    0.3488 C   0  0  0  0  0  0  0  0  0  0  0  0
    3.8955   -0.4795   -1.4815 H   0  0  0  0  0  0  0  0  0  0  0  0
   -0.2934   -0.8327   -2.1148 H   0  0  0  0  0  0  0  0  0  0  0  0
   -0.0114   -1.9451   -0.7344 H   0  0  0  0  0  0  0  0  0  0  0  0
    0.3335    3.5768   -1.3438 H   0  0  0  0  0  0  0  0  0  0  0  0
    0.8259   -1.1282    1.3303 H   0  0  0  0  0  0  0  0  0  0  0  0
    0.7984    0.6872    1.6872 H   0  0  0  0  0  0  0  0  0  0  0  0
   -1.4171    0.3998    2.4793 H   0  0  0  0  0  0  0  0  0  0  0  0
   -1.3948   -1.3846    2.0903 H   0  0  0  0  0  0  0  0  0  0  0  0
   -2.3040    0.8343    0.3426 H   0  0  0  0  0  0  0  0  0  0  0  0
   -2.2525   -0.9680   -0.1030 H   0  0  0  0  0  0  0  0  0  0  0  0
  1  2  3  0
  2  3  1  0
  3  4  1  0
  4  5  1  0
  5  6  3  0
  4  7  1  0
  7  8  1  0
  8  9  1  0
  9  4  1  0
  1 10  1  0
  3 11  1  0
  3 12  1  0
  6 13  1  0
  7 14  1  0
  7 15  1  0
  8 16  1  0
  8 17  1  0
  9 18  1  0
  9 19  1  0
M  END
