
     RDKit          3D

 19 20  0  0  0  0  0  0  0  0999 V2000
   -1.8185   -0.7548   -2.6185 C   0  0  0  0  0  0  0  0  0  0  0  0
   -1.6038   -0.1714   -1.5889 C   0  0  0  0  0  0  0  0  0  0  0  0
   -1.3272    0.5262   -0.3510 C   0  0  0  0  0  0  0  0  0  0  0  0
   -1.9687   -0.0088    0.7581 O   0  0  0  0  0  0  0  0  0  0  0  0
    0.2067    0.4994   -0.2045 C   0  0  0  0  0  0  0  0  0  0  0  0
    0.8205    1.2367    0.9588 C   0  0  0  0  0  0  0  0  0  0  0  0
    1.5633    0.0488    1.4295 C   0  0  0  0  0  0  0  0  0  0  0  0
    0.7662   -0.7720    0.4617 C   0  0  0  0  0  0  0  0  0  0  0  0
    0.9356   -0.5138   -0.9620 C   0  0  0  0  0  0  0  0  0  0  0  0
   -2.0225   -1.2947   -3.5729 H   0  0  0  0  0  0  0  0  0  0  0  0
   -1.6189    1.5854   -0.4753 H   0  0  0  0  0  0  0  0  0  0  0  0
   -1.8821   -0.9931    0.7211 H   0  0  0  0  0  0  0  0  0  0  0  0
    1.4244    2.1332    0.6994 H   0  0  0  0  0  0  0  0  0  0  0  0
    0.0087    1.5198    1.6782 H   0  0  0  0  0  0  0  0  0  0  0  0
    1.4373   -0.2334    2.4976 H   0  0  0  0  0  0  0  0  0  0  0  0
    2.6463    0.1687    1.1930 H   0  0  0  0  0  0  0  0  0  0  0  0
    0.0438   -1.5221    0.8618 H   0  0  0  0  0  0  0  0  0  0  0  0
    0.4016   -1.1521   -1.6582 H   0  0  0  0  0  0  0  0  0  0  0  0
    1.9873   -0.3021   -1.3344 H   0  0  0  0  0  0  0  0  0  0  0  0
  1  2  3  0
  2  3  1  0
  3  4  1  0
  3  5  1  0
  5  6  1  0
  6  7  1  0
  7  8  1  0
  8  9  1  0
  8  5  1  0
  9  5  1  0
  1 10  1  0
  3 11  1  0
  4 12  1  0
  6 13  1  0
  6 14  1  0
  7 15  1  0
  7 16  1  0
  8 17  1  0
  9 18  1  0
  9 19  1  0
M  END
