
     RDKit          3D

 19 18  0  0  0  0  0  0  0  0999 V2000
    0.0055    2.6103    0.0490 C   0  0  0  0  0  0  0  0  0  0  0  0
   -0.5359    1.4250    0.1861 C   0  0  0  0  0  0  0  0  0  0  0  0
   -1.1047    0.1218    0.3282 C   0  0  0  0  0  0  0  0  0  0  0  0
   -1.7977   -0.4328   -0.7675 C   0  0  0  0  0  0  0  0  0  0  0  0
   -1.6695    0.0907    1.6076 O   0  0  0  0  0  0  0  0  0  0  0  0
    0.2241   -0.7322    0.5601 C   0  0  0  0  0  0  0  0  0  0  0  0
    1.1949   -0.2918   -0.5054 C   0  0  0  0  0  0  0  0  0  0  0  0
    2.6390   -0.3692    0.1183 C   0  0  0  0  0  0  0  0  0  0  0  0
    3.4821    0.0561   -0.6216 O   0  0  0  0  0  0  0  0  0  0  0  0
    0.4241    3.4864   -0.0517 H   0  0  0  0  0  0  0  0  0  0  0  0
   -2.5191   -1.2521   -0.5062 H   0  0  0  0  0  0  0  0  0  0  0  0
   -2.4088    0.3829   -1.3221 H   0  0  0  0  0  0  0  0  0  0  0  0
   -1.1465   -0.8780   -1.5344 H   0  0  0  0  0  0  0  0  0  0  0  0
   -2.3012   -0.6678    1.7491 H   0  0  0  0  0  0  0  0  0  0  0  0
   -0.1018   -1.8068    0.2547 H   0  0  0  0  0  0  0  0  0  0  0  0
    0.5432   -0.7651    1.5579 H   0  0  0  0  0  0  0  0  0  0  0  0
    1.2355   -0.9537   -1.3681 H   0  0  0  0  0  0  0  0  0  0  0  0
    1.1162    0.7292   -0.8498 H   0  0  0  0  0  0  0  0  0  0  0  0
    2.7207   -0.7528    1.1156 H   0  0  0  0  0  0  0  0  0  0  0  0
  1  2  3  0
  2  3  1  0
  3  4  1  0
  3  5  1  0
  3  6  1  0
  6  7  1  0
  7  8  1  0
  8  9  2  0
  1 10  1  0
  4 11  1  0
  4 12  1  0
  4 13  1  0
  5 14  1  0
  6 15  1  0
  6 16  1  0
  7 17  1  0
  7 18  1  0
  8 19  1  0
M  END
