
     RDKit          3D

 19 21  0  0  0  0  0  0  0  0999 V2000
    3.0557   -2.2861    0.8951 C   0  0  0  0  0  0  0  0  0  0  0  0
    1.9901   -1.7632    0.3053 C   0  0  0  0  0  0  0  0  0  0  0  0
    0.8276   -1.1959   -0.3101 C   0  0  0  0  0  0  0  0  0  0  0  0
    0.1869   -0.0403    0.1536 C   0  0  0  0  0  0  0  0  0  0  0  0
    0.9793    1.1381    0.3363 C   0  0  0  0  0  0  0  0  0  0  0  0
   -0.3317    1.3718   -0.0897 C   0  0  0  0  0  0  0  0  0  0  0  0
   -1.6669    0.8219    0.4668 C   0  0  0  0  0  0  0  0  0  0  0  0
   -2.4811   -0.1644   -0.2566 C   0  0  0  0  0  0  0  0  0  0  0  0
   -1.1839   -0.0967   -0.7093 C   0  0  0  0  0  0  0  0  0  0  0  0
    3.8637   -2.6947    1.3601 H   0  0  0  0  0  0  0  0  0  0  0  0
    0.0235   -2.0723    0.1017 H   0  0  0  0  0  0  0  0  0  0  0  0
    0.8389   -1.4457   -1.4054 H   0  0  0  0  0  0  0  0  0  0  0  0
    1.8120    1.4896   -0.3207 H   0  0  0  0  0  0  0  0  0  0  0  0
    1.2533    1.3219    1.4374 H   0  0  0  0  0  0  0  0  0  0  0  0
   -0.4625    1.6944   -1.2012 H   0  0  0  0  0  0  0  0  0  0  0  0
   -1.5276    0.4348    1.4983 H   0  0  0  0  0  0  0  0  0  0  0  0
   -2.8739   -1.1323    0.1865 H   0  0  0  0  0  0  0  0  0  0  0  0
   -3.3274    0.3273   -0.8169 H   0  0  0  0  0  0  0  0  0  0  0  0
   -0.9760    0.4433   -1.6312 H   0  0  0  0  0  0  0  0  0  0  0  0
  1  2  3  0
  2  3  1  0
  3  4  1  0
  4  5  1  0
  5  6  1  0
  6  7  1  0
  7  8  1  0
  8  9  1  0
  6  4  1  0
  9  7  1  0
  9  4  1  0
  1 10  1  0
  3 11  1  0
  3 12  1  0
  5 13  1  0
  5 14  1  0
  6 15  1  0
  7 16  1  0
  8 17  1  0
  8 18  1  0
  9 19  1  0
M  END
