
     RDKit          3D

 17 17  0  0  0  0  0  0  0  0999 V2000
    2.5831   -0.1056   -1.5425 C   0  0  0  0  0  0  0  0  0  0  0  0
    1.6797    0.6032   -1.1449 C   0  0  0  0  0  0  0  0  0  0  0  0
    0.6008    1.4622   -0.6914 C   0  0  0  0  0  0  0  0  0  0  0  0
   -0.6041    0.6915   -0.2899 C   0  0  0  0  0  0  0  0  0  0  0  0
   -1.1159   -0.0826   -1.3813 O   0  0  0  0  0  0  0  0  0  0  0  0
   -1.5342   -1.0051   -0.4424 C   0  0  0  0  0  0  0  0  0  0  0  0
   -2.5121   -1.7749   -0.4041 O   0  0  0  0  0  0  0  0  0  0  0  0
   -0.3616   -0.6398    0.3788 C   0  0  0  0  0  0  0  0  0  0  0  0
   -0.5828   -0.6864    1.8503 C   0  0  0  0  0  0  0  0  0  0  0  0
    3.3652   -0.7415   -1.8979 H   0  0  0  0  0  0  0  0  0  0  0  0
    0.9523    2.1154    0.1299 H   0  0  0  0  0  0  0  0  0  0  0  0
    0.3041    2.1602   -1.5287 H   0  0  0  0  0  0  0  0  0  0  0  0
   -1.3548    1.2647    0.2638 H   0  0  0  0  0  0  0  0  0  0  0  0
    0.5448   -1.1773    0.0381 H   0  0  0  0  0  0  0  0  0  0  0  0
   -1.6529   -0.9788    2.0373 H   0  0  0  0  0  0  0  0  0  0  0  0
    0.1244   -1.3987    2.3106 H   0  0  0  0  0  0  0  0  0  0  0  0
   -0.4360    0.2936    2.3143 H   0  0  0  0  0  0  0  0  0  0  0  0
  1  2  3  0
  2  3  1  0
  3  4  1  0
  4  5  1  0
  5  6  1  0
  6  7  2  0
  6  8  1  0
  8  9  1  0
  8  4  1  0
  1 10  1  0
  3 11  1  0
  3 12  1  0
  4 13  1  0
  8 14  1  0
  9 15  1  0
  9 16  1  0
  9 17  1  0
M  END
