
     RDKit          3D

 21 20  0  0  0  0  0  0  0  0999 V2000
   -0.8419    3.0933    0.0255 C   0  0  0  0  0  0  0  0  0  0  0  0
   -0.5202    1.9583   -0.2366 C   0  0  0  0  0  0  0  0  0  0  0  0
   -0.1353    0.5601   -0.5369 C   0  0  0  0  0  0  0  0  0  0  0  0
    0.7407    0.1146    0.5790 C   0  0  0  0  0  0  0  0  0  0  0  0
    1.2488   -1.2875    0.4761 C   0  0  0  0  0  0  0  0  0  0  0  0
    2.1133   -1.5764    1.6756 C   0  0  0  0  0  0  0  0  0  0  0  0
   -1.3768   -0.2026   -0.6954 C   0  0  0  0  0  0  0  0  0  0  0  0
   -2.3400    0.1932   -1.7557 C   0  0  0  0  0  0  0  0  0  0  0  0
   -1.6914   -1.1584   -0.0116 O   0  0  0  0  0  0  0  0  0  0  0  0
   -1.1283    4.0908    0.2641 H   0  0  0  0  0  0  0  0  0  0  0  0
    0.3847    0.5805   -1.5265 H   0  0  0  0  0  0  0  0  0  0  0  0
    1.6232    0.7971    0.6028 H   0  0  0  0  0  0  0  0  0  0  0  0
    0.1993    0.2881    1.5312 H   0  0  0  0  0  0  0  0  0  0  0  0
    0.4422   -2.0383    0.3457 H   0  0  0  0  0  0  0  0  0  0  0  0
    1.8852   -1.3935   -0.4241 H   0  0  0  0  0  0  0  0  0  0  0  0
    3.1607   -1.6484    1.3321 H   0  0  0  0  0  0  0  0  0  0  0  0
    1.8094   -2.5021    2.2062 H   0  0  0  0  0  0  0  0  0  0  0  0
    2.1106   -0.6931    2.3762 H   0  0  0  0  0  0  0  0  0  0  0  0
   -1.8886   -0.1490   -2.7285 H   0  0  0  0  0  0  0  0  0  0  0  0
   -2.4739    1.2757   -1.8371 H   0  0  0  0  0  0  0  0  0  0  0  0
   -3.3216   -0.3022   -1.6623 H   0  0  0  0  0  0  0  0  0  0  0  0
  1  2  3  0
  2  3  1  0
  3  4  1  0
  4  5  1  0
  5  6  1  0
  3  7  1  0
  7  8  1  0
  7  9  2  0
  1 10  1  0
  3 11  1  0
  4 12  1  0
  4 13  1  0
  5 14  1  0
  5 15  1  0
  6 16  1  0
  6 17  1  0
  6 18  1  0
  8 19  1  0
  8 20  1  0
  8 21  1  0
M  END
