
     RDKit          3D

 19 20  0  0  0  0  0  0  0  0999 V2000
    2.4941    1.4088   -1.8769 C   0  0  0  0  0  0  0  0  0  0  0  0
    2.0849    0.4574   -0.9607 C   0  0  0  0  0  0  0  0  0  0  0  0
    1.6963   -0.4517   -0.1078 C   0  0  0  0  0  0  0  0  0  0  0  0
    0.5062   -0.0775    0.7882 C   0  0  0  0  0  0  0  0  0  0  0  0
    0.1091   -1.1185    1.6688 O   0  0  0  0  0  0  0  0  0  0  0  0
   -1.1175   -1.3564    0.9934 C   0  0  0  0  0  0  0  0  0  0  0  0
   -0.7901   -0.1507    0.1550 C   0  0  0  0  0  0  0  0  0  0  0  0
   -1.7156    0.9843   -0.0282 C   0  0  0  0  0  0  0  0  0  0  0  0
   -1.2466    0.0828   -1.1850 C   0  0  0  0  0  0  0  0  0  0  0  0
    2.7995    2.0861   -2.5189 H   0  0  0  0  0  0  0  0  0  0  0  0
    2.6047   -0.5058    0.7463 H   0  0  0  0  0  0  0  0  0  0  0  0
    1.7201   -1.5192   -0.3272 H   0  0  0  0  0  0  0  0  0  0  0  0
    0.6269    0.8770    1.3576 H   0  0  0  0  0  0  0  0  0  0  0  0
   -1.1503   -2.3441    0.5636 H   0  0  0  0  0  0  0  0  0  0  0  0
   -1.9800   -1.0958    1.6360 H   0  0  0  0  0  0  0  0  0  0  0  0
   -2.8048    0.8641    0.2236 H   0  0  0  0  0  0  0  0  0  0  0  0
   -1.2716    1.9624    0.1810 H   0  0  0  0  0  0  0  0  0  0  0  0
   -2.0065   -0.6024   -1.6379 H   0  0  0  0  0  0  0  0  0  0  0  0
   -0.5590    0.4992   -1.9139 H   0  0  0  0  0  0  0  0  0  0  0  0
  1  2  3  0
  2  3  1  0
  3  4  1  0
  4  5  1  0
  5  6  1  0
  6  7  1  0
  7  8  1  0
  8  9  1  0
  7  4  1  0
  9  7  1  0
  1 10  1  0
  3 11  1  0
  3 12  1  0
  4 13  1  0
  6 14  1  0
  6 15  1  0
  8 16  1  0
  8 17  1  0
  9 18  1  0
  9 19  1  0
M  END
