
     RDKit          3D

 17 18  0  0  0  0  0  0  0  0999 V2000
    2.9573   -0.3318    0.7526 C   0  0  0  0  0  0  0  0  0  0  0  0
    1.9233    0.0780    0.2880 C   0  0  0  0  0  0  0  0  0  0  0  0
    0.6662    0.6032   -0.2751 C   0  0  0  0  0  0  0  0  0  0  0  0
    0.5964    1.9340   -0.6225 O   0  0  0  0  0  0  0  0  0  0  0  0
   -0.0357   -0.3434   -1.1879 C   0  0  0  0  0  0  0  0  0  0  0  0
    0.0828   -1.6965   -0.8864 O   0  0  0  0  0  0  0  0  0  0  0  0
   -0.6172   -1.5652    0.3148 C   0  0  0  0  0  0  0  0  0  0  0  0
   -0.6207   -0.0727    0.1119 C   0  0  0  0  0  0  0  0  0  0  0  0
   -1.8338    0.7407    0.3593 C   0  0  0  0  0  0  0  0  0  0  0  0
    3.8791   -0.6865    1.1824 H   0  0  0  0  0  0  0  0  0  0  0  0
    1.4727    2.3246   -0.8064 H   0  0  0  0  0  0  0  0  0  0  0  0
   -0.4041   -0.0073   -2.1512 H   0  0  0  0  0  0  0  0  0  0  0  0
   -1.6115   -2.0028    0.3465 H   0  0  0  0  0  0  0  0  0  0  0  0
   -0.0035   -1.8002    1.2284 H   0  0  0  0  0  0  0  0  0  0  0  0
   -1.5718    1.6657    0.9215 H   0  0  0  0  0  0  0  0  0  0  0  0
   -2.5369    0.1825    1.0130 H   0  0  0  0  0  0  0  0  0  0  0  0
   -2.3428    0.9777   -0.5888 H   0  0  0  0  0  0  0  0  0  0  0  0
  1  2  3  0
  2  3  1  0
  3  4  1  0
  3  5  1  0
  5  6  1  0
  6  7  1  0
  7  8  1  0
  8  9  1  0
  8  3  1  0
  8  5  1  0
  1 10  1  0
  4 11  1  0
  5 12  1  0
  7 13  1  0
  7 14  1  0
  9 15  1  0
  9 16  1  0
  9 17  1  0
M  END
