
     RDKit          3D

 15 15  0  0  0  0  0  0  0  0999 V2000
    2.7865   -0.1685   -0.0905 C   0  0  0  0  0  0  0  0  0  0  0  0
    1.8734    0.1315   -0.1305 C   0  0  0  0  0  0  0  0  0  0  0  0
    0.4075    0.6410   -0.1885 C   0  0  0  0  0  0  0  0  0  0  0  0
   -0.4185   -0.2326   -1.1192 C   0  0  0  0  0  0  0  0  0  0  0  0
   -1.7938   -0.0213   -0.5254 C   0  0  0  0  0  0  0  0  0  0  0  0
   -1.6680    0.1446    0.7235 C   0  0  0  0  0  0  0  0  0  0  0  0
   -0.1973    0.0486    1.1724 C   0  0  0  0  0  0  0  0  0  0  0  0
    4.1788   -0.6019   -0.0223 H   0  0  0  0  0  0  0  0  0  0  0  0
    0.2687    1.6462   -0.2327 H   0  0  0  0  0  0  0  0  0  0  0  0
   -0.2373   -1.3316   -1.0182 H   0  0  0  0  0  0  0  0  0  0  0  0
   -0.3149    0.1798   -2.1403 H   0  0  0  0  0  0  0  0  0  0  0  0
   -2.7331   -0.0995   -1.0354 H   0  0  0  0  0  0  0  0  0  0  0  0
   -2.3490    0.3197    1.6231 H   0  0  0  0  0  0  0  0  0  0  0  0
    0.1019   -1.0699    0.9115 H   0  0  0  0  0  0  0  0  0  0  0  0
    0.0953    0.4140    2.0725 H   0  0  0  0  0  0  0  0  0  0  0  0
  1  2  3  0
  2  3  1  0
  3  4  1  0
  4  5  1  0
  5  6  2  0
  6  7  1  0
  7  3  1  0
  1  8  1  0
  3  9  1  0
  4 10  1  0
  4 11  1  0
  5 12  1  0
  6 13  1  0
  7 14  1  0
  7 15  1  0
M  END
