
     RDKit          3D

 17 18  0  0  0  0  0  0  0  0999 V2000
    1.4770   -2.2264    2.5796 C   0  0  0  0  0  0  0  0  0  0  0  0
    1.0190   -1.4206    1.8077 C   0  0  0  0  0  0  0  0  0  0  0  0
    0.4852   -0.4447    0.8607 C   0  0  0  0  0  0  0  0  0  0  0  0
    1.4587    0.2230   -0.0998 C   0  0  0  0  0  0  0  0  0  0  0  0
    0.7010    0.8344   -1.0484 O   0  0  0  0  0  0  0  0  0  0  0  0
   -0.5589    0.3069   -1.0757 C   0  0  0  0  0  0  0  0  0  0  0  0
   -1.5435    1.4645   -1.1024 C   0  0  0  0  0  0  0  0  0  0  0  0
   -0.7344   -0.4664    0.2403 C   0  0  0  0  0  0  0  0  0  0  0  0
   -0.5271    0.4409    1.3465 O   0  0  0  0  0  0  0  0  0  0  0  0
    1.8953   -2.9440    3.2538 H   0  0  0  0  0  0  0  0  0  0  0  0
    2.0506    0.9472    0.5077 H   0  0  0  0  0  0  0  0  0  0  0  0
    2.0913   -0.5640   -0.5527 H   0  0  0  0  0  0  0  0  0  0  0  0
   -0.7550   -0.3525   -1.9395 H   0  0  0  0  0  0  0  0  0  0  0  0
   -1.0428    2.4049   -1.4390 H   0  0  0  0  0  0  0  0  0  0  0  0
   -2.0491    1.6082   -0.1377 H   0  0  0  0  0  0  0  0  0  0  0  0
   -2.3462    1.2827   -1.8690 H   0  0  0  0  0  0  0  0  0  0  0  0
   -1.6210   -1.0941    0.2945 H   0  0  0  0  0  0  0  0  0  0  0  0
  1  2  3  0
  2  3  1  0
  3  4  1  0
  4  5  1  0
  5  6  1  0
  6  7  1  0
  6  8  1  0
  8  9  1  0
  8  3  1  0
  9  3  1  0
  1 10  1  0
  4 11  1  0
  4 12  1  0
  6 13  1  0
  7 14  1  0
  7 15  1  0
  7 16  1  0
  8 17  1  0
M  END
