
     RDKit          3D

 16 16  0  0  0  0  0  0  0  0999 V2000
   -1.3002    2.3035   -0.6402 C   0  0  0  0  0  0  0  0  0  0  0  0
   -0.8694    1.2098   -0.3256 C   0  0  0  0  0  0  0  0  0  0  0  0
   -0.3493   -0.0908    0.0728 C   0  0  0  0  0  0  0  0  0  0  0  0
   -1.3296   -1.0407    0.5372 C   0  0  0  0  0  0  0  0  0  0  0  0
   -2.1641   -1.8397    0.9095 C   0  0  0  0  0  0  0  0  0  0  0  0
    0.6351   -0.6218   -0.9647 C   0  0  0  0  0  0  0  0  0  0  0  0
    1.6927    0.2441   -0.2631 C   0  0  0  0  0  0  0  0  0  0  0  0
    0.8562    0.0546    1.0110 C   0  0  0  0  0  0  0  0  0  0  0  0
   -1.6829    3.2624   -0.9048 H   0  0  0  0  0  0  0  0  0  0  0  0
   -2.8994   -2.5247    1.2365 H   0  0  0  0  0  0  0  0  0  0  0  0
    0.8534   -1.7130   -0.8292 H   0  0  0  0  0  0  0  0  0  0  0  0
    0.3977   -0.3193   -1.9848 H   0  0  0  0  0  0  0  0  0  0  0  0
    2.6881   -0.2019   -0.2275 H   0  0  0  0  0  0  0  0  0  0  0  0
    1.6285    1.2807   -0.6328 H   0  0  0  0  0  0  0  0  0  0  0  0
    1.0427   -0.9294    1.4817 H   0  0  0  0  0  0  0  0  0  0  0  0
    0.8005    0.9261    1.6584 H   0  0  0  0  0  0  0  0  0  0  0  0
  1  2  3  0
  2  3  1  0
  3  4  1  0
  4  5  3  0
  3  6  1  0
  6  7  1  0
  7  8  1  0
  8  3  1  0
  1  9  1  0
  5 10  1  0
  6 11  1  0
  6 12  1  0
  7 13  1  0
  7 14  1  0
  8 15  1  0
  8 16  1  0
M  END
