
     RDKit          3D

 17 17  0  0  0  0  0  0  0  0999 V2000
   -2.4695    0.7881    1.7424 C   0  0  0  0  0  0  0  0  0  0  0  0
   -1.5884    0.7111    0.3410 C   0  0  0  0  0  0  0  0  0  0  0  0
   -0.8787    0.6426   -0.7553 C   0  0  0  0  0  0  0  0  0  0  0  0
   -1.3109   -0.5201   -1.5352 O   0  0  0  0  0  0  0  0  0  0  0  0
   -0.2417   -1.4107   -1.6013 C   0  0  0  0  0  0  0  0  0  0  0  0
    0.7895   -0.9840   -0.6442 C   0  0  0  0  0  0  0  0  0  0  0  0
    0.4556    0.0798   -0.2245 C   0  0  0  0  0  0  0  0  0  0  0  0
    1.2585    1.0191    0.7530 C   0  0  0  0  0  0  0  0  0  0  0  0
    2.4699    0.5230    1.0919 O   0  0  0  0  0  0  0  0  0  0  0  0
   -3.0526    0.8457    2.6377 H   0  0  0  0  0  0  0  0  0  0  0  0
   -0.8436    1.4592   -1.3658 H   0  0  0  0  0  0  0  0  0  0  0  0
   -0.7225   -2.3936   -1.1626 H   0  0  0  0  0  0  0  0  0  0  0  0
    0.1388   -1.6798   -2.5617 H   0  0  0  0  0  0  0  0  0  0  0  0
    1.6862   -1.6370   -0.3230 H   0  0  0  0  0  0  0  0  0  0  0  0
    1.2974    2.0042    0.3224 H   0  0  0  0  0  0  0  0  0  0  0  0
    0.6290    0.9529    1.7039 H   0  0  0  0  0  0  0  0  0  0  0  0
    2.3830   -0.4002    1.5814 H   0  0  0  0  0  0  0  0  0  0  0  0
  1  2  3  0
  2  3  1  0
  3  4  1  0
  4  5  1  0
  5  6  1  0
  6  7  2  0
  7  8  1  0
  8  9  1  0
  7  3  1  0
  1 10  1  0
  3 11  1  0
  5 12  1  0
  5 13  1  0
  6 14  1  0
  8 15  1  0
  8 16  1  0
  9 17  1  0
M  END
