
     RDKit          3D

 17 17  0  0  0  0  0  0  0  0999 V2000
    0.4242   -2.3676    2.1426 C   0  0  0  0  0  0  0  0  0  0  0  0
    0.1225   -1.8319    1.0757 C   0  0  0  0  0  0  0  0  0  0  0  0
   -0.2596   -1.2030   -0.2195 C   0  0  0  0  0  0  0  0  0  0  0  0
    0.8230   -0.2853   -0.6600 C   0  0  0  0  0  0  0  0  0  0  0  0
    0.7926    1.0218    0.0658 C   0  0  0  0  0  0  0  0  0  0  0  0
   -0.4542    1.7467   -0.4489 C   0  0  0  0  0  0  0  0  0  0  0  0
   -1.6011    0.7881   -0.4219 C   0  0  0  0  0  0  0  0  0  0  0  0
   -2.7196    1.1916   -0.8102 O   0  0  0  0  0  0  0  0  0  0  0  0
   -1.4469   -0.5103    0.0172 O   0  0  0  0  0  0  0  0  0  0  0  0
    0.6930   -2.8104    3.0554 H   0  0  0  0  0  0  0  0  0  0  0  0
   -0.4185   -2.0120   -0.9836 H   0  0  0  0  0  0  0  0  0  0  0  0
    0.6687   -0.0588   -1.7599 H   0  0  0  0  0  0  0  0  0  0  0  0
    1.8359   -0.7512   -0.6373 H   0  0  0  0  0  0  0  0  0  0  0  0
    1.7123    1.5866   -0.1820 H   0  0  0  0  0  0  0  0  0  0  0  0
    0.7137    0.8293    1.1460 H   0  0  0  0  0  0  0  0  0  0  0  0
   -0.6486    2.6655    0.1235 H   0  0  0  0  0  0  0  0  0  0  0  0
   -0.2374    2.0010   -1.5028 H   0  0  0  0  0  0  0  0  0  0  0  0
  1  2  3  0
  2  3  1  0
  3  4  1  0
  4  5  1  0
  5  6  1  0
  6  7  1  0
  7  8  2  0
  7  9  1  0
  9  3  1  0
  1 10  1  0
  3 11  1  0
  4 12  1  0
  4 13  1  0
  5 14  1  0
  5 15  1  0
  6 16  1  0
  6 17  1  0
M  END
