
     RDKit          3D

 20 19  0  0  0  0  0  0  0  0999 V2000
   -3.4061    0.8119   -0.8805 C   0  0  0  0  0  0  0  0  0  0  0  0
   -2.5632    0.3175   -0.1705 C   0  0  0  0  0  0  0  0  0  0  0  0
   -1.5169   -0.2727    0.6826 C   0  0  0  0  0  0  0  0  0  0  0  0
   -0.2150   -0.3631   -0.0814 C   0  0  0  0  0  0  0  0  0  0  0  0
   -0.4333   -1.2315   -1.2919 C   0  0  0  0  0  0  0  0  0  0  0  0
    0.2657    0.8651   -0.4633 O   0  0  0  0  0  0  0  0  0  0  0  0
    1.4989    1.1782    0.0422 C   0  0  0  0  0  0  0  0  0  0  0  0
    2.5937    0.2321   -0.3427 C   0  0  0  0  0  0  0  0  0  0  0  0
   -4.1442    1.2617   -1.5150 H   0  0  0  0  0  0  0  0  0  0  0  0
   -1.3778    0.3442    1.5744 H   0  0  0  0  0  0  0  0  0  0  0  0
   -1.8204   -1.2974    0.9604 H   0  0  0  0  0  0  0  0  0  0  0  0
    0.5013   -0.9031    0.5900 H   0  0  0  0  0  0  0  0  0  0  0  0
    0.5109   -1.7662   -1.5007 H   0  0  0  0  0  0  0  0  0  0  0  0
   -0.7779   -0.6165   -2.1550 H   0  0  0  0  0  0  0  0  0  0  0  0
   -1.2001   -2.0334   -1.1005 H   0  0  0  0  0  0  0  0  0  0  0  0
    1.5101    1.2774    1.1510 H   0  0  0  0  0  0  0  0  0  0  0  0
    1.7764    2.1883   -0.3472 H   0  0  0  0  0  0  0  0  0  0  0  0
    2.4012   -0.3019   -1.2951 H   0  0  0  0  0  0  0  0  0  0  0  0
    3.5597    0.7942   -0.5080 H   0  0  0  0  0  0  0  0  0  0  0  0
    2.8371   -0.4847    0.4904 H   0  0  0  0  0  0  0  0  0  0  0  0
  1  2  3  0
  2  3  1  0
  3  4  1  0
  4  5  1  0
  4  6  1  0
  6  7  1  0
  7  8  1  0
  1  9  1  0
  3 10  1  0
  3 11  1  0
  4 12  1  0
  5 13  1  0
  5 14  1  0
  5 15  1  0
  7 16  1  0
  7 17  1  0
  8 18  1  0
  8 19  1  0
  8 20  1  0
M  END
