
     RDKit          3D

 16 17  0  0  0  0  0  0  0  0999 V2000
    3.5018   -0.2606    0.6531 C   0  0  0  0  0  0  0  0  0  0  0  0
    2.3920    0.1865    0.5050 C   0  0  0  0  0  0  0  0  0  0  0  0
    1.0351    0.7502    0.3030 C   0  0  0  0  0  0  0  0  0  0  0  0
    0.2081   -0.1980   -0.5624 C   0  0  0  0  0  0  0  0  0  0  0  0
   -1.1711    0.1211   -0.9138 C   0  0  0  0  0  0  0  0  0  0  0  0
   -2.2512    0.3668    0.1026 C   0  0  0  0  0  0  0  0  0  0  0  0
   -1.5460   -0.2511    1.1167 O   0  0  0  0  0  0  0  0  0  0  0  0
   -0.8436   -0.9536    0.1462 C   0  0  0  0  0  0  0  0  0  0  0  0
    4.4694   -0.6648    0.7957 H   0  0  0  0  0  0  0  0  0  0  0  0
    0.5592    0.9133    1.2805 H   0  0  0  0  0  0  0  0  0  0  0  0
    1.1956    1.6941   -0.2718 H   0  0  0  0  0  0  0  0  0  0  0  0
    0.8265   -0.7468   -1.2914 H   0  0  0  0  0  0  0  0  0  0  0  0
   -1.5436   -0.2175   -1.8920 H   0  0  0  0  0  0  0  0  0  0  0  0
   -2.4869    1.4371    0.2940 H   0  0  0  0  0  0  0  0  0  0  0  0
   -3.1804   -0.2128   -0.1164 H   0  0  0  0  0  0  0  0  0  0  0  0
   -1.1648   -1.9639   -0.1489 H   0  0  0  0  0  0  0  0  0  0  0  0
  1  2  3  0
  2  3  1  0
  3  4  1  0
  4  5  1  0
  5  6  1  0
  6  7  1  0
  7  8  1  0
  8  4  1  0
  8  5  1  0
  1  9  1  0
  3 10  1  0
  3 11  1  0
  4 12  1  0
  5 13  1  0
  6 14  1  0
  6 15  1  0
  8 16  1  0
M  END
