
     RDKit          3D

 19 18  0  0  0  0  0  0  0  0999 V2000
    2.0010   -0.4788    2.8325 C   0  0  0  0  0  0  0  0  0  0  0  0
    2.1216   -0.6518    1.5777 C   0  0  0  0  0  0  0  0  0  0  0  0
    2.2513   -0.8236    0.1546 C   0  0  0  0  0  0  0  0  0  0  0  0
    1.2929    0.1292   -0.5891 C   0  0  0  0  0  0  0  0  0  0  0  0
   -0.1074   -0.1687   -0.2273 C   0  0  0  0  0  0  0  0  0  0  0  0
   -0.5124   -1.3035   -0.1312 O   0  0  0  0  0  0  0  0  0  0  0  0
   -0.9874    1.0256    0.0188 C   0  0  0  0  0  0  0  0  0  0  0  0
   -2.2928    0.7275    0.2932 O   0  0  0  0  0  0  0  0  0  0  0  0
   -3.0007    0.0939   -0.7065 C   0  0  0  0  0  0  0  0  0  0  0  0
    1.9113   -0.3213    3.8581 H   0  0  0  0  0  0  0  0  0  0  0  0
    2.1152   -1.8514   -0.1733 H   0  0  0  0  0  0  0  0  0  0  0  0
    3.2930   -0.4851   -0.1280 H   0  0  0  0  0  0  0  0  0  0  0  0
    1.3869   -0.0340   -1.6836 H   0  0  0  0  0  0  0  0  0  0  0  0
    1.5940    1.1733   -0.3814 H   0  0  0  0  0  0  0  0  0  0  0  0
   -0.5023    1.5440    0.9099 H   0  0  0  0  0  0  0  0  0  0  0  0
   -0.8389    1.7150   -0.8531 H   0  0  0  0  0  0  0  0  0  0  0  0
   -4.0439   -0.0756   -0.3489 H   0  0  0  0  0  0  0  0  0  0  0  0
   -3.0670    0.6768   -1.6545 H   0  0  0  0  0  0  0  0  0  0  0  0
   -2.6143   -0.8916   -0.9756 H   0  0  0  0  0  0  0  0  0  0  0  0
  1  2  3  0
  2  3  1  0
  3  4  1  0
  4  5  1  0
  5  6  2  0
  5  7  1  0
  7  8  1  0
  8  9  1  0
  1 10  1  0
  3 11  1  0
  3 12  1  0
  4 13  1  0
  4 14  1  0
  7 15  1  0
  7 16  1  0
  9 17  1  0
  9 18  1  0
  9 19  1  0
M  END
