
     RDKit          3D

 18 17  0  0  0  0  0  0  0  0999 V2000
    3.6317   -1.0045   -0.2463 C   0  0  0  0  0  0  0  0  0  0  0  0
    2.4308   -1.0400   -0.1492 C   0  0  0  0  0  0  0  0  0  0  0  0
    0.9768   -1.0881   -0.0089 C   0  0  0  0  0  0  0  0  0  0  0  0
    0.4474    0.3308   -0.1269 C   0  0  0  0  0  0  0  0  0  0  0  0
   -1.0521    0.2718    0.0199 C   0  0  0  0  0  0  0  0  0  0  0  0
   -1.6650    1.6506   -0.0859 C   0  0  0  0  0  0  0  0  0  0  0  0
   -1.6741   -0.6671   -0.9488 C   0  0  0  0  0  0  0  0  0  0  0  0
   -2.2354   -0.1391   -1.9213 O   0  0  0  0  0  0  0  0  0  0  0  0
    4.7070   -0.9851   -0.3189 H   0  0  0  0  0  0  0  0  0  0  0  0
    0.7310   -1.4317    1.0197 H   0  0  0  0  0  0  0  0  0  0  0  0
    0.4949   -1.7484   -0.7285 H   0  0  0  0  0  0  0  0  0  0  0  0
    0.8540    0.9797    0.6694 H   0  0  0  0  0  0  0  0  0  0  0  0
    0.7483    0.7110   -1.1157 H   0  0  0  0  0  0  0  0  0  0  0  0
   -1.2901   -0.0885    1.0588 H   0  0  0  0  0  0  0  0  0  0  0  0
   -1.0240    2.3743    0.4580 H   0  0  0  0  0  0  0  0  0  0  0  0
   -2.6592    1.6313    0.4175 H   0  0  0  0  0  0  0  0  0  0  0  0
   -1.7654    1.9799   -1.1457 H   0  0  0  0  0  0  0  0  0  0  0  0
   -1.6568   -1.7370   -0.8436 H   0  0  0  0  0  0  0  0  0  0  0  0
  1  2  3  0
  2  3  1  0
  3  4  1  0
  4  5  1  0
  5  6  1  0
  5  7  1  0
  7  8  2  0
  1  9  1  0
  3 10  1  0
  3 11  1  0
  4 12  1  0
  4 13  1  0
  5 14  1  0
  6 15  1  0
  6 16  1  0
  6 17  1  0
  7 18  1  0
M  END
