
     RDKit          3D

 19 20  0  0  0  0  0  0  0  0999 V2000
    3.3520    0.3447   -0.5527 C   0  0  0  0  0  0  0  0  0  0  0  0
    2.1512    0.4490   -0.4732 C   0  0  0  0  0  0  0  0  0  0  0  0
    0.6930    0.5943   -0.3588 C   0  0  0  0  0  0  0  0  0  0  0  0
    0.1326    0.2355    0.9847 C   0  0  0  0  0  0  0  0  0  0  0  0
    0.6621   -1.1491    0.7296 C   0  0  0  0  0  0  0  0  0  0  0  0
    0.0440   -0.7523   -0.5814 C   0  0  0  0  0  0  0  0  0  0  0  0
   -1.0962   -0.2114    0.2267 C   0  0  0  0  0  0  0  0  0  0  0  0
   -1.8940    0.8654   -0.4275 C   0  0  0  0  0  0  0  0  0  0  0  0
   -1.8148   -1.1461    0.9630 O   0  0  0  0  0  0  0  0  0  0  0  0
    4.4221    0.2576   -0.6229 H   0  0  0  0  0  0  0  0  0  0  0  0
    0.2527    1.4447   -0.8810 H   0  0  0  0  0  0  0  0  0  0  0  0
    0.1619    0.7592    1.8306 H   0  0  0  0  0  0  0  0  0  0  0  0
    0.0916   -1.9602    1.2090 H   0  0  0  0  0  0  0  0  0  0  0  0
    1.7489   -1.2074    0.7655 H   0  0  0  0  0  0  0  0  0  0  0  0
    0.0137   -1.2721   -1.4306 H   0  0  0  0  0  0  0  0  0  0  0  0
   -1.6208    0.9196   -1.4937 H   0  0  0  0  0  0  0  0  0  0  0  0
   -2.9852    0.6415   -0.3142 H   0  0  0  0  0  0  0  0  0  0  0  0
   -1.7521    1.8468    0.0951 H   0  0  0  0  0  0  0  0  0  0  0  0
   -2.5628   -0.6598    1.3964 H   0  0  0  0  0  0  0  0  0  0  0  0
  1  2  3  0
  2  3  1  0
  3  4  1  0
  4  5  1  0
  5  6  1  0
  6  7  1  0
  7  8  1  0
  7  9  1  0
  6  3  1  0
  7  4  1  0
  1 10  1  0
  3 11  1  0
  4 12  1  0
  5 13  1  0
  5 14  1  0
  6 15  1  0
  8 16  1  0
  8 17  1  0
  8 18  1  0
  9 19  1  0
M  END
