
     RDKit          3D

 22 21  0  0  0  0  0  0  0  0999 V2000
    1.9165   -2.2948    0.2641 C   0  0  0  0  0  0  0  0  0  0  0  0
    1.4229   -1.1864    0.3940 C   0  0  0  0  0  0  0  0  0  0  0  0
    0.8112    0.1409    0.5330 C   0  0  0  0  0  0  0  0  0  0  0  0
    1.6484    1.2020   -0.1301 C   0  0  0  0  0  0  0  0  0  0  0  0
   -0.6017    0.0895   -0.0136 C   0  0  0  0  0  0  0  0  0  0  0  0
   -1.2463    1.4493    0.1220 C   0  0  0  0  0  0  0  0  0  0  0  0
   -0.5948   -0.3415   -1.4707 C   0  0  0  0  0  0  0  0  0  0  0  0
   -1.3471   -0.9497    0.8034 C   0  0  0  0  0  0  0  0  0  0  0  0
    2.3537   -3.2514    0.1363 H   0  0  0  0  0  0  0  0  0  0  0  0
    0.7225    0.3170    1.6335 H   0  0  0  0  0  0  0  0  0  0  0  0
    1.2281    1.5230   -1.1133 H   0  0  0  0  0  0  0  0  0  0  0  0
    2.6695    0.7856   -0.3732 H   0  0  0  0  0  0  0  0  0  0  0  0
    1.7655    2.0298    0.5705 H   0  0  0  0  0  0  0  0  0  0  0  0
   -2.3557    1.3802    0.0795 H   0  0  0  0  0  0  0  0  0  0  0  0
   -0.9206    2.0029    1.0124 H   0  0  0  0  0  0  0  0  0  0  0  0
   -0.9672    2.0869   -0.7654 H   0  0  0  0  0  0  0  0  0  0  0  0
    0.0710   -1.2238   -1.5940 H   0  0  0  0  0  0  0  0  0  0  0  0
   -0.2774    0.5092   -2.1211 H   0  0  0  0  0  0  0  0  0  0  0  0
   -1.6583   -0.6258   -1.7032 H   0  0  0  0  0  0  0  0  0  0  0  0
   -2.3896   -0.5872    0.8950 H   0  0  0  0  0  0  0  0  0  0  0  0
   -0.8910   -1.1186    1.7928 H   0  0  0  0  0  0  0  0  0  0  0  0
   -1.3594   -1.9372    0.2845 H   0  0  0  0  0  0  0  0  0  0  0  0
  1  2  3  0
  2  3  1  0
  3  4  1  0
  3  5  1  0
  5  6  1  0
  5  7  1  0
  5  8  1  0
  1  9  1  0
  3 10  1  0
  4 11  1  0
  4 12  1  0
  4 13  1  0
  6 14  1  0
  6 15  1  0
  6 16  1  0
  7 17  1  0
  7 18  1  0
  7 19  1  0
  8 20  1  0
  8 21  1  0
  8 22  1  0
M  END
