
     RDKit          3D

 17 18  0  0  0  0  0  0  0  0999 V2000
    2.1344    1.9242    0.2955 C   0  0  0  0  0  0  0  0  0  0  0  0
    1.4314    0.9903    0.5532 C   0  0  0  0  0  0  0  0  0  0  0  0
    0.5927   -0.1570    0.8512 C   0  0  0  0  0  0  0  0  0  0  0  0
    1.0132   -1.4353    0.1107 C   0  0  0  0  0  0  0  0  0  0  0  0
   -0.4606   -1.6891   -0.0743 C   0  0  0  0  0  0  0  0  0  0  0  0
   -1.1483   -2.6819   -0.2324 O   0  0  0  0  0  0  0  0  0  0  0  0
   -0.6443   -0.2553    0.0229 C   0  0  0  0  0  0  0  0  0  0  0  0
   -1.8412    0.4977    0.1568 C   0  0  0  0  0  0  0  0  0  0  0  0
   -0.9370    0.6301   -1.1037 C   0  0  0  0  0  0  0  0  0  0  0  0
    2.7735    2.7500    0.0772 H   0  0  0  0  0  0  0  0  0  0  0  0
    0.4621   -0.3976    1.9157 H   0  0  0  0  0  0  0  0  0  0  0  0
    1.4993   -1.1852   -0.8635 H   0  0  0  0  0  0  0  0  0  0  0  0
    1.5316   -2.1715    0.7362 H   0  0  0  0  0  0  0  0  0  0  0  0
   -2.8385    0.0560   -0.0493 H   0  0  0  0  0  0  0  0  0  0  0  0
   -1.9087    1.4075    0.7983 H   0  0  0  0  0  0  0  0  0  0  0  0
   -0.3248    1.5538   -1.1678 H   0  0  0  0  0  0  0  0  0  0  0  0
   -1.3348    0.1631   -2.0268 H   0  0  0  0  0  0  0  0  0  0  0  0
  1  2  3  0
  2  3  1  0
  3  4  1  0
  4  5  1  0
  5  6  2  0
  5  7  1  0
  7  8  1  0
  8  9  1  0
  7  3  1  0
  9  7  1  0
  1 10  1  0
  3 11  1  0
  4 12  1  0
  4 13  1  0
  8 14  1  0
  8 15  1  0
  9 16  1  0
  9 17  1  0
M  END
