
     RDKit          3D

 17 19  0  0  0  0  0  0  0  0999 V2000
    2.3289    0.6688    1.0720 C   0  0  0  0  0  0  0  0  0  0  0  0
    1.5889    0.4794    0.1095 C   0  0  0  0  0  0  0  0  0  0  0  0
    0.6890    0.2661   -1.0243 C   0  0  0  0  0  0  0  0  0  0  0  0
    0.9851   -1.0300   -1.6266 C   0  0  0  0  0  0  0  0  0  0  0  0
   -0.2770   -0.9764   -0.9921 C   0  0  0  0  0  0  0  0  0  0  0  0
   -0.8214   -0.3367    0.2225 C   0  0  0  0  0  0  0  0  0  0  0  0
   -2.0676   -0.9529    0.5252 O   0  0  0  0  0  0  0  0  0  0  0  0
   -0.9920    1.0792    0.6111 C   0  0  0  0  0  0  0  0  0  0  0  0
   -0.7193    0.8326   -0.7729 C   0  0  0  0  0  0  0  0  0  0  0  0
    2.9529    0.8402    1.9106 H   0  0  0  0  0  0  0  0  0  0  0  0
    1.1839   -0.9318   -2.7358 H   0  0  0  0  0  0  0  0  0  0  0  0
    1.7154   -1.7768   -1.2132 H   0  0  0  0  0  0  0  0  0  0  0  0
   -1.0777   -0.8994   -1.8162 H   0  0  0  0  0  0  0  0  0  0  0  0
   -2.0175   -1.1809    1.4874 H   0  0  0  0  0  0  0  0  0  0  0  0
   -0.1321    1.4660    1.2421 H   0  0  0  0  0  0  0  0  0  0  0  0
   -1.9105    1.5958    0.8689 H   0  0  0  0  0  0  0  0  0  0  0  0
   -1.4290    0.8567   -1.6062 H   0  0  0  0  0  0  0  0  0  0  0  0
  1  2  3  0
  2  3  1  0
  3  4  1  0
  4  5  1  0
  5  6  1  0
  6  7  1  0
  6  8  1  0
  8  9  1  0
  5  3  1  0
  9  6  1  0
  9  3  1  0
  1 10  1  0
  4 11  1  0
  4 12  1  0
  5 13  1  0
  7 14  1  0
  8 15  1  0
  8 16  1  0
  9 17  1  0
M  END
