
     RDKit          3D

 17 17  0  0  0  0  0  0  0  0999 V2000
    2.6476    0.0746    1.6810 C   0  0  0  0  0  0  0  0  0  0  0  0
    1.8930   -0.1746    0.7748 C   0  0  0  0  0  0  0  0  0  0  0  0
    0.9859   -0.4579   -0.3394 C   0  0  0  0  0  0  0  0  0  0  0  0
    1.5140   -1.1948   -1.3645 O   0  0  0  0  0  0  0  0  0  0  0  0
   -0.3163   -1.0298    0.2463 C   0  0  0  0  0  0  0  0  0  0  0  0
   -0.6647    0.4263    0.4667 C   0  0  0  0  0  0  0  0  0  0  0  0
   -2.1192    0.7686    0.3372 C   0  0  0  0  0  0  0  0  0  0  0  0
    0.1849    0.7315   -0.7096 C   0  0  0  0  0  0  0  0  0  0  0  0
    0.2432    1.5515   -1.5909 O   0  0  0  0  0  0  0  0  0  0  0  0
    3.3183    0.2948    2.4761 H   0  0  0  0  0  0  0  0  0  0  0  0
    0.9981   -1.0473   -2.1923 H   0  0  0  0  0  0  0  0  0  0  0  0
   -0.1501   -1.6140    1.1733 H   0  0  0  0  0  0  0  0  0  0  0  0
   -0.8904   -1.5482   -0.5402 H   0  0  0  0  0  0  0  0  0  0  0  0
   -0.1862    0.7621    1.4202 H   0  0  0  0  0  0  0  0  0  0  0  0
   -2.6816    0.0714    1.0252 H   0  0  0  0  0  0  0  0  0  0  0  0
   -2.3233    1.7818    0.7050 H   0  0  0  0  0  0  0  0  0  0  0  0
   -2.4534    0.6039   -0.6907 H   0  0  0  0  0  0  0  0  0  0  0  0
  1  2  3  0
  2  3  1  0
  3  4  1  0
  3  5  1  0
  5  6  1  0
  6  7  1  0
  6  8  1  0
  8  9  2  0
  8  3  1  0
  1 10  1  0
  4 11  1  0
  5 12  1  0
  5 13  1  0
  6 14  1  0
  7 15  1  0
  7 16  1  0
  7 17  1  0
M  END
