
     RDKit          3D

 21 21  0  0  0  0  0  0  0  0999 V2000
    3.8640    0.0042   -0.3708 C   0  0  0  0  0  0  0  0  0  0  0  0
    2.7265    0.0039   -0.4679 C   0  0  0  0  0  0  0  0  0  0  0  0
    1.4993   -0.0023   -0.5648 C   0  0  0  0  0  0  0  0  0  0  0  0
    0.0629   -0.0049   -0.6902 C   0  0  0  0  0  0  0  0  0  0  0  0
   -0.6472    1.3589   -0.7655 C   0  0  0  0  0  0  0  0  0  0  0  0
   -1.4582    0.9610    0.4435 C   0  0  0  0  0  0  0  0  0  0  0  0
   -0.7692   -0.3625    0.4687 C   0  0  0  0  0  0  0  0  0  0  0  0
   -1.7335   -1.5256    0.2235 C   0  0  0  0  0  0  0  0  0  0  0  0
   -0.0336   -0.5562    1.6649 O   0  0  0  0  0  0  0  0  0  0  0  0
    5.0951    0.0085   -0.2549 H   0  0  0  0  0  0  0  0  0  0  0  0
    1.4431    1.4083   -0.7695 H   0  0  0  0  0  0  0  0  0  0  0  0
    1.5592    0.0209   -1.9631 H   0  0  0  0  0  0  0  0  0  0  0  0
   -0.3254   -0.6143   -1.5974 H   0  0  0  0  0  0  0  0  0  0  0  0
    0.1312    2.0914   -0.6426 H   0  0  0  0  0  0  0  0  0  0  0  0
   -1.2227    1.5222   -1.7039 H   0  0  0  0  0  0  0  0  0  0  0  0
   -1.3017    1.6401    1.2963 H   0  0  0  0  0  0  0  0  0  0  0  0
   -2.5434    0.8394    0.2308 H   0  0  0  0  0  0  0  0  0  0  0  0
   -2.3682   -1.3473   -0.7117 H   0  0  0  0  0  0  0  0  0  0  0  0
   -2.4607   -1.4328    1.0822 H   0  0  0  0  0  0  0  0  0  0  0  0
   -1.2910   -2.5149    0.2852 H   0  0  0  0  0  0  0  0  0  0  0  0
   -0.2266   -1.4980    2.0316 H   0  0  0  0  0  0  0  0  0  0  0  0
  1  2  3  0
  2  3  1  0
  3  4  1  0
  4  5  1  0
  5  6  1  0
  6  7  1  0
  7  8  1  0
  7  9  1  0
  7  4  1  0
  1 10  1  0
  3 11  1  0
  3 12  1  0
  4 13  1  0
  5 14  1  0
  5 15  1  0
  6 16  1  0
  6 17  1  0
  8 18  1  0
  8 19  1  0
  8 20  1  0
  9 21  1  0
M  END
