
     RDKit          3D

 17 18  0  0  0  0  0  0  0  0999 V2000
    2.8005    1.0746    0.9063 C   0  0  0  0  0  0  0  0  0  0  0  0
    1.9531    0.3491    0.4022 C   0  0  0  0  0  0  0  0  0  0  0  0
    0.9266   -0.5142   -0.1801 C   0  0  0  0  0  0  0  0  0  0  0  0
    0.4410    0.0841   -1.3734 O   0  0  0  0  0  0  0  0  0  0  0  0
   -0.8298    0.4629   -1.0410 C   0  0  0  0  0  0  0  0  0  0  0  0
   -0.7400    0.9865    0.4001 C   0  0  0  0  0  0  0  0  0  0  0  0
   -0.3090   -0.4659    0.6543 C   0  0  0  0  0  0  0  0  0  0  0  0
   -0.3835   -0.9635    1.8635 O   0  0  0  0  0  0  0  0  0  0  0  0
   -1.3811   -0.8140   -0.3851 C   0  0  0  0  0  0  0  0  0  0  0  0
    3.5449    1.6877    1.3431 H   0  0  0  0  0  0  0  0  0  0  0  0
    1.3246   -1.5137   -0.3568 H   0  0  0  0  0  0  0  0  0  0  0  0
   -1.4620    0.9787   -1.7132 H   0  0  0  0  0  0  0  0  0  0  0  0
    0.0782    1.7193    0.5294 H   0  0  0  0  0  0  0  0  0  0  0  0
   -1.7035    1.2289    0.8402 H   0  0  0  0  0  0  0  0  0  0  0  0
   -0.6636   -1.9099    1.8702 H   0  0  0  0  0  0  0  0  0  0  0  0
   -2.4163   -0.6645   -0.0366 H   0  0  0  0  0  0  0  0  0  0  0  0
   -1.1799   -1.7263   -0.9568 H   0  0  0  0  0  0  0  0  0  0  0  0
  1  2  3  0
  2  3  1  0
  3  4  1  0
  4  5  1  0
  5  6  1  0
  6  7  1  0
  7  8  1  0
  7  9  1  0
  7  3  1  0
  9  5  1  0
  1 10  1  0
  3 11  1  0
  5 12  1  0
  6 13  1  0
  6 14  1  0
  8 15  1  0
  9 16  1  0
  9 17  1  0
M  END
