
     RDKit          3D

 21 20  0  0  0  0  0  0  0  0999 V2000
    0.0142    0.7528   -2.8021 C   0  0  0  0  0  0  0  0  0  0  0  0
    0.0216    0.3363   -1.9568 C   0  0  0  0  0  0  0  0  0  0  0  0
    0.0342   -0.3476   -0.6272 C   0  0  0  0  0  0  0  0  0  0  0  0
    1.1721   -1.3223   -0.5514 C   0  0  0  0  0  0  0  0  0  0  0  0
   -1.2545   -1.0035   -0.2327 C   0  0  0  0  0  0  0  0  0  0  0  0
    0.2572    0.8024    0.3939 C   0  0  0  0  0  0  0  0  0  0  0  0
   -0.7714    1.7269    0.2576 O   0  0  0  0  0  0  0  0  0  0  0  0
    0.2219    0.3490    1.8178 C   0  0  0  0  0  0  0  0  0  0  0  0
    0.4250    1.5111    2.5892 O   0  0  0  0  0  0  0  0  0  0  0  0
    0.0017    1.2879   -3.9376 H   0  0  0  0  0  0  0  0  0  0  0  0
    1.5942   -1.5132   -1.5516 H   0  0  0  0  0  0  0  0  0  0  0  0
    0.8193   -2.2881   -0.1098 H   0  0  0  0  0  0  0  0  0  0  0  0
    2.0351   -0.9107    0.0757 H   0  0  0  0  0  0  0  0  0  0  0  0
   -2.0464   -0.1919   -0.0411 H   0  0  0  0  0  0  0  0  0  0  0  0
   -1.7151   -1.6730   -0.9923 H   0  0  0  0  0  0  0  0  0  0  0  0
   -1.0714   -1.6241    0.7029 H   0  0  0  0  0  0  0  0  0  0  0  0
    1.2206    1.2770    0.1501 H   0  0  0  0  0  0  0  0  0  0  0  0
   -1.0401    1.7725   -0.7184 H   0  0  0  0  0  0  0  0  0  0  0  0
   -0.8073    0.0094    2.0810 H   0  0  0  0  0  0  0  0  0  0  0  0
    0.9784   -0.4035    2.0279 H   0  0  0  0  0  0  0  0  0  0  0  0
   -0.0893    1.4527    3.4249 H   0  0  0  0  0  0  0  0  0  0  0  0
  1  2  3  0
  2  3  1  0
  3  4  1  0
  3  5  1  0
  3  6  1  0
  6  7  1  0
  6  8  1  0
  8  9  1  0
  1 10  1  0
  4 11  1  0
  4 12  1  0
  4 13  1  0
  5 14  1  0
  5 15  1  0
  5 16  1  0
  6 17  1  0
  7 18  1  0
  8 19  1  0
  8 20  1  0
  9 21  1  0
M  END
