
     RDKit          3D

 15 16  0  0  0  0  0  0  0  0999 V2000
    0.3901    1.8381   -2.3355 C   0  0  0  0  0  0  0  0  0  0  0  0
    0.1844    1.0043   -1.5397 C   0  0  0  0  0  0  0  0  0  0  0  0
   -0.0853   -0.0657   -0.5427 C   0  0  0  0  0  0  0  0  0  0  0  0
   -0.5785   -1.2124   -1.1011 O   0  0  0  0  0  0  0  0  0  0  0  0
   -0.8532    0.4576    0.6551 C   0  0  0  0  0  0  0  0  0  0  0  0
   -0.9031   -0.6998    1.5655 C   0  0  0  0  0  0  0  0  0  0  0  0
    0.3924   -1.1163    1.5215 C   0  0  0  0  0  0  0  0  0  0  0  0
    0.9402   -0.1518    0.5231 C   0  0  0  0  0  0  0  0  0  0  0  0
    0.3704    1.0453    1.0235 O   0  0  0  0  0  0  0  0  0  0  0  0
    0.5930    2.6176   -3.0957 H   0  0  0  0  0  0  0  0  0  0  0  0
    0.1313   -1.6128   -1.6881 H   0  0  0  0  0  0  0  0  0  0  0  0
   -1.6875    1.0819    0.5136 H   0  0  0  0  0  0  0  0  0  0  0  0
   -1.7292   -1.1177    2.1239 H   0  0  0  0  0  0  0  0  0  0  0  0
    0.8599   -1.9218    2.0690 H   0  0  0  0  0  0  0  0  0  0  0  0
    1.9750   -0.1467    0.3075 H   0  0  0  0  0  0  0  0  0  0  0  0
  1  2  3  0
  2  3  1  0
  3  4  1  0
  3  5  1  0
  5  6  1  0
  6  7  2  0
  7  8  1  0
  8  9  1  0
  8  3  1  0
  9  5  1  0
  1 10  1  0
  4 11  1  0
  5 12  1  0
  6 13  1  0
  7 14  1  0
  8 15  1  0
M  END
