
     RDKit          3D

 19 19  0  0  0  0  0  0  0  0999 V2000
    2.0772    2.1977    0.8380 C   0  0  0  0  0  0  0  0  0  0  0  0
    1.4019    1.1889    0.7468 C   0  0  0  0  0  0  0  0  0  0  0  0
    0.5972   -0.0309    0.6134 C   0  0  0  0  0  0  0  0  0  0  0  0
    1.5473   -1.1975    0.4536 C   0  0  0  0  0  0  0  0  0  0  0  0
   -0.2518    0.1294   -0.6181 C   0  0  0  0  0  0  0  0  0  0  0  0
   -1.1627   -0.9996   -0.9589 C   0  0  0  0  0  0  0  0  0  0  0  0
   -2.1956   -0.3739   -0.0891 C   0  0  0  0  0  0  0  0  0  0  0  0
   -3.1366   -0.8331    0.5070 O   0  0  0  0  0  0  0  0  0  0  0  0
   -1.5094    0.9271   -0.3395 C   0  0  0  0  0  0  0  0  0  0  0  0
    2.6817    3.0682    0.9143 H   0  0  0  0  0  0  0  0  0  0  0  0
    0.0271   -0.1671    1.5348 H   0  0  0  0  0  0  0  0  0  0  0  0
    2.1313   -1.0903   -0.4828 H   0  0  0  0  0  0  0  0  0  0  0  0
    2.1790   -1.2356    1.3621 H   0  0  0  0  0  0  0  0  0  0  0  0
    0.9940   -2.1501    0.3964 H   0  0  0  0  0  0  0  0  0  0  0  0
    0.3406    0.5084   -1.4716 H   0  0  0  0  0  0  0  0  0  0  0  0
   -1.4820   -0.9202   -2.0290 H   0  0  0  0  0  0  0  0  0  0  0  0
   -0.8385   -2.0106   -0.6681 H   0  0  0  0  0  0  0  0  0  0  0  0
   -1.9554    1.3947   -1.2488 H   0  0  0  0  0  0  0  0  0  0  0  0
   -1.4454    1.5944    0.5396 H   0  0  0  0  0  0  0  0  0  0  0  0
  1  2  3  0
  2  3  1  0
  3  4  1  0
  3  5  1  0
  5  6  1  0
  6  7  1  0
  7  8  2  0
  7  9  1  0
  9  5  1  0
  1 10  1  0
  3 11  1  0
  4 12  1  0
  4 13  1  0
  4 14  1  0
  5 15  1  0
  6 16  1  0
  6 17  1  0
  9 18  1  0
  9 19  1  0
M  END
