
     RDKit          3D

 16 16  0  0  0  0  0  0  0  0999 V2000
    0.1158    2.2525   -1.5611 C   0  0  0  0  0  0  0  0  0  0  0  0
   -0.1222    1.2932   -0.8443 C   0  0  0  0  0  0  0  0  0  0  0  0
   -0.4170    0.1332   -0.0065 C   0  0  0  0  0  0  0  0  0  0  0  0
   -1.5094    0.3865    1.0178 C   0  0  0  0  0  0  0  0  0  0  0  0
   -0.4057   -1.2042   -0.6018 C   0  0  0  0  0  0  0  0  0  0  0  0
    0.6850   -0.7681    0.4095 C   0  0  0  0  0  0  0  0  0  0  0  0
    2.0272   -0.6710   -0.2200 C   0  0  0  0  0  0  0  0  0  0  0  0
    2.9572   -1.1385    0.4118 O   0  0  0  0  0  0  0  0  0  0  0  0
    0.3081    3.0944   -2.1761 H   0  0  0  0  0  0  0  0  0  0  0  0
   -1.1017    1.0385    1.8192 H   0  0  0  0  0  0  0  0  0  0  0  0
   -1.8805   -0.5500    1.4790 H   0  0  0  0  0  0  0  0  0  0  0  0
   -2.3035    0.9615    0.4988 H   0  0  0  0  0  0  0  0  0  0  0  0
   -0.1188   -1.3320   -1.6589 H   0  0  0  0  0  0  0  0  0  0  0  0
   -1.0754   -2.0240   -0.2335 H   0  0  0  0  0  0  0  0  0  0  0  0
    0.6328   -1.2522    1.3912 H   0  0  0  0  0  0  0  0  0  0  0  0
    2.2082   -0.2197   -1.1799 H   0  0  0  0  0  0  0  0  0  0  0  0
  1  2  3  0
  2  3  1  0
  3  4  1  0
  3  5  1  0
  5  6  1  0
  6  7  1  0
  7  8  2  0
  6  3  1  0
  1  9  1  0
  4 10  1  0
  4 11  1  0
  4 12  1  0
  5 13  1  0
  5 14  1  0
  6 15  1  0
  7 16  1  0
M  END
