
     RDKit          3D

 17 18  0  0  0  0  0  0  0  0999 V2000
    3.4545   -0.6419   -0.7087 C   0  0  0  0  0  0  0  0  0  0  0  0
    2.2102   -0.4853   -0.4216 C   0  0  0  0  0  0  0  0  0  0  0  0
    0.9485   -0.3195   -0.1526 C   0  0  0  0  0  0  0  0  0  0  0  0
    0.2768   -0.6351    1.1045 C   0  0  0  0  0  0  0  0  0  0  0  0
   -1.1367   -0.0743    0.8154 C   0  0  0  0  0  0  0  0  0  0  0  0
   -1.1136    1.3159    0.7395 O   0  0  0  0  0  0  0  0  0  0  0  0
   -1.6339    1.2472   -0.5458 C   0  0  0  0  0  0  0  0  0  0  0  0
   -1.2269   -0.1639   -0.7051 C   0  0  0  0  0  0  0  0  0  0  0  0
   -0.0065   -0.5134   -1.1865 O   0  0  0  0  0  0  0  0  0  0  0  0
    4.5662   -0.7939   -0.9492 H   0  0  0  0  0  0  0  0  0  0  0  0
    0.8027    0.9412   -0.1612 H   0  0  0  0  0  0  0  0  0  0  0  0
    0.7062   -0.0499    1.9858 H   0  0  0  0  0  0  0  0  0  0  0  0
    0.1541   -1.7055    1.3003 H   0  0  0  0  0  0  0  0  0  0  0  0
   -1.9616   -0.5603    1.3358 H   0  0  0  0  0  0  0  0  0  0  0  0
   -2.7642    1.3424   -0.5596 H   0  0  0  0  0  0  0  0  0  0  0  0
   -1.2178    1.9701   -1.2514 H   0  0  0  0  0  0  0  0  0  0  0  0
   -2.0580   -0.8740   -0.9979 H   0  0  0  0  0  0  0  0  0  0  0  0
  1  2  3  0
  2  3  1  0
  3  4  1  0
  4  5  1  0
  5  6  1  0
  6  7  1  0
  7  8  1  0
  8  9  1  0
  9  3  1  0
  8  5  1  0
  1 10  1  0
  3 11  1  0
  4 12  1  0
  4 13  1  0
  5 14  1  0
  7 15  1  0
  7 16  1  0
  8 17  1  0
M  END
