
     RDKit          3D

 15 15  0  0  0  0  0  0  0  0999 V2000
   -0.2421    2.5717   -0.1214 C   0  0  0  0  0  0  0  0  0  0  0  0
   -0.2120    1.4376   -0.0702 C   0  0  0  0  0  0  0  0  0  0  0  0
   -0.1509   -0.0298    0.0088 C   0  0  0  0  0  0  0  0  0  0  0  0
   -1.2828   -0.7054    0.7251 C   0  0  0  0  0  0  0  0  0  0  0  0
   -2.4256   -0.5874   -0.0615 O   0  0  0  0  0  0  0  0  0  0  0  0
    0.0787   -0.6688   -1.3005 O   0  0  0  0  0  0  0  0  0  0  0  0
    1.0409   -0.7442   -0.1965 C   0  0  0  0  0  0  0  0  0  0  0  0
    2.3626   -0.2146   -0.5652 C   0  0  0  0  0  0  0  0  0  0  0  0
    2.4553    0.9214   -0.9925 O   0  0  0  0  0  0  0  0  0  0  0  0
   -0.2662    3.7170   -0.1921 H   0  0  0  0  0  0  0  0  0  0  0  0
   -1.4132   -0.3259    1.7598 H   0  0  0  0  0  0  0  0  0  0  0  0
   -1.0689   -1.8070    0.8584 H   0  0  0  0  0  0  0  0  0  0  0  0
   -3.1809   -0.9350    0.4568 H   0  0  0  0  0  0  0  0  0  0  0  0
    1.0723   -1.8201    0.1516 H   0  0  0  0  0  0  0  0  0  0  0  0
    3.2328   -0.8095   -0.4606 H   0  0  0  0  0  0  0  0  0  0  0  0
  1  2  3  0
  2  3  1  0
  3  4  1  0
  4  5  1  0
  3  6  1  0
  6  7  1  0
  7  8  1  0
  8  9  2  0
  7  3  1  0
  1 10  1  0
  4 11  1  0
  4 12  1  0
  5 13  1  0
  7 14  1  0
  8 15  1  0
M  END
