
     RDKit          3D

 17 18  0  0  0  0  0  0  0  0999 V2000
    2.3103   -1.0825   -2.5983 C   0  0  0  0  0  0  0  0  0  0  0  0
    1.5357   -0.8171   -1.7695 C   0  0  0  0  0  0  0  0  0  0  0  0
    0.5567   -0.4944   -0.7362 C   0  0  0  0  0  0  0  0  0  0  0  0
   -0.0686    0.6595   -0.7077 C   0  0  0  0  0  0  0  0  0  0  0  0
   -0.6729    1.9900   -0.8232 C   0  0  0  0  0  0  0  0  0  0  0  0
   -0.7050    1.9551    0.6150 O   0  0  0  0  0  0  0  0  0  0  0  0
   -1.0740    0.6305    0.4398 C   0  0  0  0  0  0  0  0  0  0  0  0
   -0.5478   -0.4205    1.3432 C   0  0  0  0  0  0  0  0  0  0  0  0
    0.1676   -1.3744    0.3932 C   0  0  0  0  0  0  0  0  0  0  0  0
    3.0371   -1.3484   -3.3974 H   0  0  0  0  0  0  0  0  0  0  0  0
   -0.0488    2.7921   -1.2251 H   0  0  0  0  0  0  0  0  0  0  0  0
   -1.7166    1.9378   -1.2099 H   0  0  0  0  0  0  0  0  0  0  0  0
   -2.1203    0.4880    0.1132 H   0  0  0  0  0  0  0  0  0  0  0  0
    0.1357   -0.0190    2.1193 H   0  0  0  0  0  0  0  0  0  0  0  0
   -1.3964   -0.9413    1.8296 H   0  0  0  0  0  0  0  0  0  0  0  0
    1.0911   -1.7571    0.8616 H   0  0  0  0  0  0  0  0  0  0  0  0
   -0.4837   -2.1985    0.0983 H   0  0  0  0  0  0  0  0  0  0  0  0
  1  2  3  0
  2  3  1  0
  3  4  2  0
  4  5  1  0
  5  6  1  0
  6  7  1  0
  7  8  1  0
  8  9  1  0
  9  3  1  0
  7  4  1  0
  1 10  1  0
  5 11  1  0
  5 12  1  0
  7 13  1  0
  8 14  1  0
  8 15  1  0
  9 16  1  0
  9 17  1  0
M  END
