
     RDKit          3D

 21 21  0  0  0  0  0  0  0  0999 V2000
    3.1277    1.4040   -1.4146 C   0  0  0  0  0  0  0  0  0  0  0  0
    2.4175    0.4299   -1.3531 C   0  0  0  0  0  0  0  0  0  0  0  0
    1.5483   -0.7606   -1.2561 C   0  0  0  0  0  0  0  0  0  0  0  0
    0.2018   -0.2785   -0.7855 C   0  0  0  0  0  0  0  0  0  0  0  0
   -0.7961   -1.3974   -0.6400 C   0  0  0  0  0  0  0  0  0  0  0  0
   -1.7927   -0.7684    0.2671 C   0  0  0  0  0  0  0  0  0  0  0  0
   -1.2132    0.1795    0.9924 C   0  0  0  0  0  0  0  0  0  0  0  0
   -1.8067    1.0721    2.0267 C   0  0  0  0  0  0  0  0  0  0  0  0
    0.2488    0.2694    0.6267 C   0  0  0  0  0  0  0  0  0  0  0  0
    3.7669    2.2518   -1.4758 H   0  0  0  0  0  0  0  0  0  0  0  0
    1.9666   -1.5261   -0.5945 H   0  0  0  0  0  0  0  0  0  0  0  0
    1.4151   -1.1168   -2.2991 H   0  0  0  0  0  0  0  0  0  0  0  0
   -0.2078    0.4563   -1.4868 H   0  0  0  0  0  0  0  0  0  0  0  0
   -1.2272   -1.7239   -1.6000 H   0  0  0  0  0  0  0  0  0  0  0  0
   -0.3423   -2.2422   -0.0638 H   0  0  0  0  0  0  0  0  0  0  0  0
   -2.8371   -1.0462    0.3240 H   0  0  0  0  0  0  0  0  0  0  0  0
   -1.6944    0.5966    3.0090 H   0  0  0  0  0  0  0  0  0  0  0  0
   -1.2987    2.0698    2.0130 H   0  0  0  0  0  0  0  0  0  0  0  0
   -2.8803    1.2483    1.7466 H   0  0  0  0  0  0  0  0  0  0  0  0
    0.6107    1.3042    0.6789 H   0  0  0  0  0  0  0  0  0  0  0  0
    0.7931   -0.4216    1.2851 H   0  0  0  0  0  0  0  0  0  0  0  0
  1  2  3  0
  2  3  1  0
  3  4  1  0
  4  5  1  0
  5  6  1  0
  6  7  2  0
  7  8  1  0
  7  9  1  0
  9  4  1  0
  1 10  1  0
  3 11  1  0
  3 12  1  0
  4 13  1  0
  5 14  1  0
  5 15  1  0
  6 16  1  0
  8 17  1  0
  8 18  1  0
  8 19  1  0
  9 20  1  0
  9 21  1  0
M  END
