
     RDKit          3D

 15 15  0  0  0  0  0  0  0  0999 V2000
    2.7537   -0.5898    0.6197 C   0  0  0  0  0  0  0  0  0  0  0  0
    1.5781   -0.7679    0.3943 C   0  0  0  0  0  0  0  0  0  0  0  0
    0.1414   -0.9728    0.1347 C   0  0  0  0  0  0  0  0  0  0  0  0
   -0.5645   -0.7524    1.3095 O   0  0  0  0  0  0  0  0  0  0  0  0
   -0.2770   -0.0250   -0.9633 C   0  0  0  0  0  0  0  0  0  0  0  0
   -0.6302    1.3668   -0.5103 C   0  0  0  0  0  0  0  0  0  0  0  0
   -1.9179    0.7038   -0.1931 C   0  0  0  0  0  0  0  0  0  0  0  0
   -2.8328    0.8668    0.6609 O   0  0  0  0  0  0  0  0  0  0  0  0
   -1.6526   -0.1726   -1.2628 O   0  0  0  0  0  0  0  0  0  0  0  0
    3.7850   -0.4201    0.8183 H   0  0  0  0  0  0  0  0  0  0  0  0
    0.0106   -2.0001   -0.2309 H   0  0  0  0  0  0  0  0  0  0  0  0
    0.0272   -0.9436    2.0942 H   0  0  0  0  0  0  0  0  0  0  0  0
    0.3896   -0.0871   -1.8409 H   0  0  0  0  0  0  0  0  0  0  0  0
   -0.7468    2.0334   -1.3799 H   0  0  0  0  0  0  0  0  0  0  0  0
   -0.0638    1.7606    0.3498 H   0  0  0  0  0  0  0  0  0  0  0  0
  1  2  3  0
  2  3  1  0
  3  4  1  0
  3  5  1  0
  5  6  1  0
  6  7  1  0
  7  8  2  0
  7  9  1  0
  9  5  1  0
  1 10  1  0
  3 11  1  0
  4 12  1  0
  5 13  1  0
  6 14  1  0
  6 15  1  0
M  END
