
     RDKit          3D

 19 19  0  0  0  0  0  0  0  0999 V2000
    1.8331    2.3556    0.0716 C   0  0  0  0  0  0  0  0  0  0  0  0
    1.4045    1.2322    0.1341 C   0  0  0  0  0  0  0  0  0  0  0  0
    0.8929   -0.1548    0.1910 C   0  0  0  0  0  0  0  0  0  0  0  0
   -0.5779   -0.3820    0.0496 C   0  0  0  0  0  0  0  0  0  0  0  0
   -1.2963   -0.3975    1.3706 C   0  0  0  0  0  0  0  0  0  0  0  0
   -1.1232    0.6837   -0.8820 C   0  0  0  0  0  0  0  0  0  0  0  0
   -0.8357   -1.6140   -0.5757 O   0  0  0  0  0  0  0  0  0  0  0  0
    1.7762   -1.1809   -0.4758 C   0  0  0  0  0  0  0  0  0  0  0  0
    1.6913   -1.0163    0.9073 O   0  0  0  0  0  0  0  0  0  0  0  0
    2.2045    3.3573    0.0004 H   0  0  0  0  0  0  0  0  0  0  0  0
   -2.3864   -0.2860    1.1430 H   0  0  0  0  0  0  0  0  0  0  0  0
   -0.9748    0.5130    1.9466 H   0  0  0  0  0  0  0  0  0  0  0  0
   -1.0593   -1.3328    1.8938 H   0  0  0  0  0  0  0  0  0  0  0  0
   -1.2289    1.6314   -0.2934 H   0  0  0  0  0  0  0  0  0  0  0  0
   -0.3979    0.9080   -1.6819 H   0  0  0  0  0  0  0  0  0  0  0  0
   -2.0741    0.3911   -1.3585 H   0  0  0  0  0  0  0  0  0  0  0  0
   -1.8005   -1.7576   -0.6002 H   0  0  0  0  0  0  0  0  0  0  0  0
    2.6481   -0.8169   -1.0223 H   0  0  0  0  0  0  0  0  0  0  0  0
    1.3044   -2.1335   -0.8182 H   0  0  0  0  0  0  0  0  0  0  0  0
  1  2  3  0
  2  3  1  0
  3  4  1  0
  4  5  1  0
  4  6  1  0
  4  7  1  0
  3  8  1  0
  8  9  1  0
  9  3  1  0
  1 10  1  0
  5 11  1  0
  5 12  1  0
  5 13  1  0
  6 14  1  0
  6 15  1  0
  6 16  1  0
  7 17  1  0
  8 18  1  0
  8 19  1  0
M  END
