
     RDKit          3D

 19 19  0  0  0  0  0  0  0  0999 V2000
    3.3257    0.4415    0.4860 C   0  0  0  0  0  0  0  0  0  0  0  0
    2.2811    0.0578   -0.0151 C   0  0  0  0  0  0  0  0  0  0  0  0
    1.0448   -0.3730   -0.6182 C   0  0  0  0  0  0  0  0  0  0  0  0
    0.0958   -1.0686    0.3651 C   0  0  0  0  0  0  0  0  0  0  0  0
   -1.0282   -0.3456   -0.3555 C   0  0  0  0  0  0  0  0  0  0  0  0
   -2.1213    0.1478    0.5660 C   0  0  0  0  0  0  0  0  0  0  0  0
   -1.5131   -1.0172   -1.4524 O   0  0  0  0  0  0  0  0  0  0  0  0
    0.0190    0.7297   -0.6818 C   0  0  0  0  0  0  0  0  0  0  0  0
    0.2011    1.5830    0.4193 O   0  0  0  0  0  0  0  0  0  0  0  0
    4.2369    0.7879    0.9106 H   0  0  0  0  0  0  0  0  0  0  0  0
    1.2186   -0.9328   -1.5510 H   0  0  0  0  0  0  0  0  0  0  0  0
    0.0872   -2.1523    0.3166 H   0  0  0  0  0  0  0  0  0  0  0  0
    0.2358   -0.6035    1.3603 H   0  0  0  0  0  0  0  0  0  0  0  0
   -2.5159   -0.6852    1.1408 H   0  0  0  0  0  0  0  0  0  0  0  0
   -1.7166    0.9849    1.1625 H   0  0  0  0  0  0  0  0  0  0  0  0
   -2.9386    0.5467   -0.0651 H   0  0  0  0  0  0  0  0  0  0  0  0
   -0.9711   -1.8257   -1.6654 H   0  0  0  0  0  0  0  0  0  0  0  0
   -0.1181    1.2232   -1.6451 H   0  0  0  0  0  0  0  0  0  0  0  0
    0.1769    2.5015    0.1100 H   0  0  0  0  0  0  0  0  0  0  0  0
  1  2  3  0
  2  3  1  0
  3  4  1  0
  4  5  1  0
  5  6  1  0
  5  7  1  0
  5  8  1  0
  8  9  1  0
  8  3  1  0
  1 10  1  0
  3 11  1  0
  4 12  1  0
  4 13  1  0
  6 14  1  0
  6 15  1  0
  6 16  1  0
  7 17  1  0
  8 18  1  0
  9 19  1  0
M  END
