
     RDKit          3D

 15 14  0  0  0  0  0  0  0  0999 V2000
   -3.2001   -0.0663    1.8103 C   0  0  0  0  0  0  0  0  0  0  0  0
   -2.4312   -0.1820    1.0792 C   0  0  0  0  0  0  0  0  0  0  0  0
   -1.3274   -0.3223    0.0367 C   0  0  0  0  0  0  0  0  0  0  0  0
   -1.7571   -1.3617   -0.8854 O   0  0  0  0  0  0  0  0  0  0  0  0
   -0.2139    0.2501   -0.1009 C   0  0  0  0  0  0  0  0  0  0  0  0
    0.8255   -0.1498   -1.0809 C   0  0  0  0  0  0  0  0  0  0  0  0
    1.1773   -1.5271   -0.7382 O   0  0  0  0  0  0  0  0  0  0  0  0
    2.0726    0.5596   -0.8187 C   0  0  0  0  0  0  0  0  0  0  0  0
    3.2043    1.1829   -0.5973 C   0  0  0  0  0  0  0  0  0  0  0  0
   -4.2108    0.0744    2.7733 H   0  0  0  0  0  0  0  0  0  0  0  0
   -0.1494    1.4246   -0.0474 H   0  0  0  0  0  0  0  0  0  0  0  0
    0.4604    0.1635    0.9642 H   0  0  0  0  0  0  0  0  0  0  0  0
    0.6171   -0.0693   -2.1414 H   0  0  0  0  0  0  0  0  0  0  0  0
    0.6830   -1.7481    0.1491 H   0  0  0  0  0  0  0  0  0  0  0  0
    4.2495    1.7716   -0.4026 H   0  0  0  0  0  0  0  0  0  0  0  0
  1  2  3  0
  2  3  1  0
  3  4  2  0
  3  5  1  0
  5  6  1  0
  6  7  1  0
  6  8  1  0
  8  9  3  0
  1 10  1  0
  5 11  1  0
  5 12  1  0
  6 13  1  0
  7 14  1  0
  9 15  1  0
M  END
