
     RDKit          3D

 19 19  0  0  0  0  0  0  0  0999 V2000
    3.9359    0.3209    0.5003 C   0  0  0  0  0  0  0  0  0  0  0  0
    2.8682   -0.2264    0.3720 C   0  0  0  0  0  0  0  0  0  0  0  0
    1.5545   -0.8853    0.1923 C   0  0  0  0  0  0  0  0  0  0  0  0
    0.5993    0.2002   -0.2510 C   0  0  0  0  0  0  0  0  0  0  0  0
   -0.7886   -0.3158   -0.4767 C   0  0  0  0  0  0  0  0  0  0  0  0
   -1.6909    0.8286   -0.9192 C   0  0  0  0  0  0  0  0  0  0  0  0
   -2.7600    0.2088   -0.0526 C   0  0  0  0  0  0  0  0  0  0  0  0
   -3.9708    0.2172   -0.1128 O   0  0  0  0  0  0  0  0  0  0  0  0
   -1.6568   -0.3355    0.7891 C   0  0  0  0  0  0  0  0  0  0  0  0
    4.8706    0.8172    0.6238 H   0  0  0  0  0  0  0  0  0  0  0  0
    1.2187   -1.1926    1.2253 H   0  0  0  0  0  0  0  0  0  0  0  0
    1.6090   -1.7248   -0.4961 H   0  0  0  0  0  0  0  0  0  0  0  0
    0.5661    0.9899    0.5057 H   0  0  0  0  0  0  0  0  0  0  0  0
    0.9819    0.5707   -1.2340 H   0  0  0  0  0  0  0  0  0  0  0  0
   -0.8876   -1.2089   -1.1085 H   0  0  0  0  0  0  0  0  0  0  0  0
   -1.3830    1.7910   -0.4850 H   0  0  0  0  0  0  0  0  0  0  0  0
   -1.9362    0.8297   -1.9999 H   0  0  0  0  0  0  0  0  0  0  0  0
   -1.8072   -1.3295    1.2033 H   0  0  0  0  0  0  0  0  0  0  0  0
   -1.3232    0.4447    1.4977 H   0  0  0  0  0  0  0  0  0  0  0  0
  1  2  3  0
  2  3  1  0
  3  4  1  0
  4  5  1  0
  5  6  1  0
  6  7  1  0
  7  8  2  0
  7  9  1  0
  9  5  1  0
  1 10  1  0
  3 11  1  0
  3 12  1  0
  4 13  1  0
  4 14  1  0
  5 15  1  0
  6 16  1  0
  6 17  1  0
  9 18  1  0
  9 19  1  0
M  END
