
     RDKit          3D

 21 21  0  0  0  0  0  0  0  0999 V2000
   -3.5263    1.6832   -0.0938 C   0  0  0  0  0  0  0  0  0  0  0  0
   -2.3821    1.2988   -0.0128 C   0  0  0  0  0  0  0  0  0  0  0  0
   -0.9898    0.8306    0.0854 C   0  0  0  0  0  0  0  0  0  0  0  0
   -0.3529    0.7147   -1.1234 O   0  0  0  0  0  0  0  0  0  0  0  0
    0.2188   -0.4911   -0.7208 C   0  0  0  0  0  0  0  0  0  0  0  0
    1.6088   -0.3199   -0.1747 C   0  0  0  0  0  0  0  0  0  0  0  0
    2.4893    0.2818   -1.2461 C   0  0  0  0  0  0  0  0  0  0  0  0
   -0.8698   -0.6387    0.2918 C   0  0  0  0  0  0  0  0  0  0  0  0
   -0.4383   -1.0933    1.6630 C   0  0  0  0  0  0  0  0  0  0  0  0
   -4.5375    2.0241   -0.1836 H   0  0  0  0  0  0  0  0  0  0  0  0
   -0.3918    1.4256    0.7985 H   0  0  0  0  0  0  0  0  0  0  0  0
    0.1933   -1.3043   -1.4565 H   0  0  0  0  0  0  0  0  0  0  0  0
    1.6543    0.3655    0.6982 H   0  0  0  0  0  0  0  0  0  0  0  0
    1.9983   -1.3071    0.1600 H   0  0  0  0  0  0  0  0  0  0  0  0
    3.4988    0.5349   -0.8652 H   0  0  0  0  0  0  0  0  0  0  0  0
    2.5790   -0.3739   -2.1377 H   0  0  0  0  0  0  0  0  0  0  0  0
    2.0080    1.2242   -1.5828 H   0  0  0  0  0  0  0  0  0  0  0  0
   -1.7314   -1.1925   -0.0780 H   0  0  0  0  0  0  0  0  0  0  0  0
   -0.0495   -0.2443    2.2735 H   0  0  0  0  0  0  0  0  0  0  0  0
   -1.3228   -1.5437    2.1589 H   0  0  0  0  0  0  0  0  0  0  0  0
    0.3435   -1.8747    1.5461 H   0  0  0  0  0  0  0  0  0  0  0  0
  1  2  3  0
  2  3  1  0
  3  4  1  0
  4  5  1  0
  5  6  1  0
  6  7  1  0
  5  8  1  0
  8  9  1  0
  8  3  1  0
  1 10  1  0
  3 11  1  0
  5 12  1  0
  6 13  1  0
  6 14  1  0
  7 15  1  0
  7 16  1  0
  7 17  1  0
  8 18  1  0
  9 19  1  0
  9 20  1  0
  9 21  1  0
M  END
