
     RDKit          3D

 19 18  0  0  0  0  0  0  0  0999 V2000
    2.8578    0.0369   -2.0306 C   0  0  0  0  0  0  0  0  0  0  0  0
    1.9789   -0.6516   -1.1776 C   0  0  0  0  0  0  0  0  0  0  0  0
    1.0119   -1.3807   -0.2681 C   0  0  0  0  0  0  0  0  0  0  0  0
    0.0367   -0.1979   -0.1445 C   0  0  0  0  0  0  0  0  0  0  0  0
   -0.4298    0.2576   -1.4906 C   0  0  0  0  0  0  0  0  0  0  0  0
   -1.1575   -0.4721    0.8140 C   0  0  0  0  0  0  0  0  0  0  0  0
   -0.5083   -0.8288    2.0289 O   0  0  0  0  0  0  0  0  0  0  0  0
   -1.6834    0.8345    1.0136 C   0  0  0  0  0  0  0  0  0  0  0  0
   -2.1183    1.8937    1.1867 C   0  0  0  0  0  0  0  0  0  0  0  0
    3.4750    0.5114   -2.6220 H   0  0  0  0  0  0  0  0  0  0  0  0
    0.5064   -2.1549   -0.8905 H   0  0  0  0  0  0  0  0  0  0  0  0
    1.4690   -1.6800    0.5788 H   0  0  0  0  0  0  0  0  0  0  0  0
    0.5347    0.6594    0.3678 H   0  0  0  0  0  0  0  0  0  0  0  0
    0.4202    0.5398   -2.1348 H   0  0  0  0  0  0  0  0  0  0  0  0
   -1.0071    1.2314   -1.3969 H   0  0  0  0  0  0  0  0  0  0  0  0
   -1.1556   -0.4130   -1.9731 H   0  0  0  0  0  0  0  0  0  0  0  0
   -1.7659   -1.2145    0.3291 H   0  0  0  0  0  0  0  0  0  0  0  0
    0.1305   -0.0237    2.2241 H   0  0  0  0  0  0  0  0  0  0  0  0
   -2.5950    3.0525    1.3966 H   0  0  0  0  0  0  0  0  0  0  0  0
  1  2  3  0
  2  3  1  0
  3  4  1  0
  4  5  1  0
  4  6  1  0
  6  7  1  0
  6  8  1  0
  8  9  3  0
  1 10  1  0
  3 11  1  0
  3 12  1  0
  4 13  1  0
  5 14  1  0
  5 15  1  0
  5 16  1  0
  6 17  1  0
  7 18  1  0
  9 19  1  0
M  END
