
     RDKit          3D

 21 21  0  0  0  0  0  0  0  0999 V2000
    0.5823    2.9403    1.2583 C   0  0  0  0  0  0  0  0  0  0  0  0
    0.5045    1.8135    0.8434 C   0  0  0  0  0  0  0  0  0  0  0  0
    0.4040    0.4195    0.3071 C   0  0  0  0  0  0  0  0  0  0  0  0
   -0.9874    0.1021   -0.0582 C   0  0  0  0  0  0  0  0  0  0  0  0
   -1.2970   -1.2281   -0.6146 C   0  0  0  0  0  0  0  0  0  0  0  0
   -1.4283    1.1471   -1.0959 C   0  0  0  0  0  0  0  0  0  0  0  0
    1.2973    0.1681   -0.8239 O   0  0  0  0  0  0  0  0  0  0  0  0
    1.5492   -0.3893    0.4646 C   0  0  0  0  0  0  0  0  0  0  0  0
    1.6435   -1.8648    0.6130 C   0  0  0  0  0  0  0  0  0  0  0  0
    0.6437    3.9568    1.6188 H   0  0  0  0  0  0  0  0  0  0  0  0
   -1.6391    0.2731    0.8455 H   0  0  0  0  0  0  0  0  0  0  0  0
   -1.5685   -1.9222    0.2083 H   0  0  0  0  0  0  0  0  0  0  0  0
   -2.1717   -1.2416   -1.3010 H   0  0  0  0  0  0  0  0  0  0  0  0
   -0.4008   -1.7110   -1.1030 H   0  0  0  0  0  0  0  0  0  0  0  0
   -2.4198    1.5805   -0.8187 H   0  0  0  0  0  0  0  0  0  0  0  0
   -0.6667    1.9255   -1.2443 H   0  0  0  0  0  0  0  0  0  0  0  0
   -1.5858    0.6663   -2.0878 H   0  0  0  0  0  0  0  0  0  0  0  0
    2.4837    0.1159    0.8651 H   0  0  0  0  0  0  0  0  0  0  0  0
    2.3512   -2.1021    1.4353 H   0  0  0  0  0  0  0  0  0  0  0  0
    2.0394   -2.3927   -0.2725 H   0  0  0  0  0  0  0  0  0  0  0  0
    0.6664   -2.2569    0.9605 H   0  0  0  0  0  0  0  0  0  0  0  0
  1  2  3  0
  2  3  1  0
  3  4  1  0
  4  5  1  0
  4  6  1  0
  3  7  1  0
  7  8  1  0
  8  9  1  0
  8  3  1  0
  1 10  1  0
  4 11  1  0
  5 12  1  0
  5 13  1  0
  5 14  1  0
  6 15  1  0
  6 16  1  0
  6 17  1  0
  8 18  1  0
  9 19  1  0
  9 20  1  0
  9 21  1  0
M  END
