
     RDKit          3D

 19 18  0  0  0  0  0  0  0  0999 V2000
    0.6644   -2.8116   -0.7020 C   0  0  0  0  0  0  0  0  0  0  0  0
    0.2280   -1.7142   -0.4615 C   0  0  0  0  0  0  0  0  0  0  0  0
   -0.3130   -0.3646   -0.1563 C   0  0  0  0  0  0  0  0  0  0  0  0
   -0.9295   -0.4620    1.1746 C   0  0  0  0  0  0  0  0  0  0  0  0
   -0.3260   -0.7338    2.1967 O   0  0  0  0  0  0  0  0  0  0  0  0
    0.7846    0.6611   -0.2292 C   0  0  0  0  0  0  0  0  0  0  0  0
    1.9056    0.3781    0.7455 C   0  0  0  0  0  0  0  0  0  0  0  0
   -1.2791   -0.0290   -1.0901 O   0  0  0  0  0  0  0  0  0  0  0  0
   -1.8373    1.2047   -0.8950 C   0  0  0  0  0  0  0  0  0  0  0  0
    1.0519   -3.7872   -0.8969 H   0  0  0  0  0  0  0  0  0  0  0  0
   -1.9892   -0.2835    1.2709 H   0  0  0  0  0  0  0  0  0  0  0  0
    0.3977    1.6539    0.0434 H   0  0  0  0  0  0  0  0  0  0  0  0
    1.2128    0.6702   -1.2501 H   0  0  0  0  0  0  0  0  0  0  0  0
    2.8658    0.6933    0.2898 H   0  0  0  0  0  0  0  0  0  0  0  0
    1.9642   -0.7109    0.9480 H   0  0  0  0  0  0  0  0  0  0  0  0
    1.7769    0.9430    1.6766 H   0  0  0  0  0  0  0  0  0  0  0  0
   -2.3376    1.3339    0.1059 H   0  0  0  0  0  0  0  0  0  0  0  0
   -1.1857    2.0712   -1.0800 H   0  0  0  0  0  0  0  0  0  0  0  0
   -2.6546    1.2874   -1.6904 H   0  0  0  0  0  0  0  0  0  0  0  0
  1  2  3  0
  2  3  1  0
  3  4  1  0
  4  5  2  0
  3  6  1  0
  6  7  1  0
  3  8  1  0
  8  9  1  0
  1 10  1  0
  4 11  1  0
  6 12  1  0
  6 13  1  0
  7 14  1  0
  7 15  1  0
  7 16  1  0
  9 17  1  0
  9 18  1  0
  9 19  1  0
M  END
