
     RDKit          3D

 22 21  0  0  0  0  0  0  0  0999 V2000
   -1.3475    2.4542   -0.3003 C   0  0  0  0  0  0  0  0  0  0  0  0
   -0.7376    1.3247    0.1414 C   0  0  0  0  0  0  0  0  0  0  0  0
   -0.1724    0.2441    0.5507 C   0  0  0  0  0  0  0  0  0  0  0  0
    1.3793    0.2402    0.5897 C   0  0  0  0  0  0  0  0  0  0  0  0
    2.0895    1.1741    1.4753 C   0  0  0  0  0  0  0  0  0  0  0  0
   -0.4613   -1.0338   -0.2775 C   0  0  0  0  0  0  0  0  0  0  0  0
   -1.9315   -1.3448   -0.1982 C   0  0  0  0  0  0  0  0  0  0  0  0
   -0.0466   -0.9899   -1.7018 C   0  0  0  0  0  0  0  0  0  0  0  0
   -1.8589    3.4210   -0.6904 H   0  0  0  0  0  0  0  0  0  0  0  0
   -0.4990   -0.0977    1.5991 H   0  0  0  0  0  0  0  0  0  0  0  0
    1.7455   -0.7977    0.5394 H   0  0  0  0  0  0  0  0  0  0  0  0
    1.6500    0.6777   -0.4910 H   0  0  0  0  0  0  0  0  0  0  0  0
    3.1004    0.7657    1.7918 H   0  0  0  0  0  0  0  0  0  0  0  0
    1.5462    1.2338    2.4759 H   0  0  0  0  0  0  0  0  0  0  0  0
    2.1978    2.2164    1.1496 H   0  0  0  0  0  0  0  0  0  0  0  0
    0.1974   -1.8258    0.1966 H   0  0  0  0  0  0  0  0  0  0  0  0
   -2.1439   -1.7859    0.8437 H   0  0  0  0  0  0  0  0  0  0  0  0
   -2.1448   -2.2370   -0.8634 H   0  0  0  0  0  0  0  0  0  0  0  0
   -2.6223   -0.5291   -0.3945 H   0  0  0  0  0  0  0  0  0  0  0  0
    0.9037   -1.5277   -1.9529 H   0  0  0  0  0  0  0  0  0  0  0  0
   -0.0268    0.0173   -2.1978 H   0  0  0  0  0  0  0  0  0  0  0  0
   -0.8172   -1.6000   -2.2854 H   0  0  0  0  0  0  0  0  0  0  0  0
  1  2  3  0
  2  3  1  0
  3  4  1  0
  4  5  1  0
  3  6  1  0
  6  7  1  0
  6  8  1  0
  1  9  1  0
  3 10  1  0
  4 11  1  0
  4 12  1  0
  5 13  1  0
  5 14  1  0
  5 15  1  0
  6 16  1  0
  7 17  1  0
  7 18  1  0
  7 19  1  0
  8 20  1  0
  8 21  1  0
  8 22  1  0
M  END
