
     RDKit          3D

 19 19  0  0  0  0  0  0  0  0999 V2000
   -3.7407    1.2043   -0.2127 C   0  0  0  0  0  0  0  0  0  0  0  0
   -2.5526    0.7132    0.4030 C   0  0  0  0  0  0  0  0  0  0  0  0
   -1.3346    0.2172    1.0164 C   0  0  0  0  0  0  0  0  0  0  0  0
   -1.3362   -1.3285    1.1566 C   0  0  0  0  0  0  0  0  0  0  0  0
   -0.4712   -0.6741    0.1493 C   0  0  0  0  0  0  0  0  0  0  0  0
    0.9892   -0.8319    0.4770 C   0  0  0  0  0  0  0  0  0  0  0  0
    1.2781   -1.4572    1.5469 O   0  0  0  0  0  0  0  0  0  0  0  0
    2.0984   -0.3532   -0.3399 C   0  0  0  0  0  0  0  0  0  0  0  0
    2.1718    1.1605   -0.2744 C   0  0  0  0  0  0  0  0  0  0  0  0
   -4.2538    1.4116   -0.4670 H   0  0  0  0  0  0  0  0  0  0  0  0
   -0.8222    0.8348    1.7335 H   0  0  0  0  0  0  0  0  0  0  0  0
   -0.8967   -1.5924    2.1799 H   0  0  0  0  0  0  0  0  0  0  0  0
   -2.2311   -1.8987    0.9326 H   0  0  0  0  0  0  0  0  0  0  0  0
   -0.6429   -0.5354   -0.9236 H   0  0  0  0  0  0  0  0  0  0  0  0
    2.2950   -0.8014   -1.2900 H   0  0  0  0  0  0  0  0  0  0  0  0
    3.0459   -0.6481    0.2799 H   0  0  0  0  0  0  0  0  0  0  0  0
    1.6815    1.5451   -1.2100 H   0  0  0  0  0  0  0  0  0  0  0  0
    3.1454    1.5729   -0.1343 H   0  0  0  0  0  0  0  0  0  0  0  0
    1.5767    1.4614    0.6330 H   0  0  0  0  0  0  0  0  0  0  0  0
  1  2  3  0
  2  3  1  0
  3  4  1  0
  4  5  1  0
  5  6  1  0
  6  7  2  0
  6  8  1  0
  8  9  1  0
  5  3  1  0
  1 10  1  0
  3 11  1  0
  4 12  1  0
  4 13  1  0
  5 14  1  0
  8 15  1  0
  8 16  1  0
  9 17  1  0
  9 18  1  0
  9 19  1  0
M  END
