
     RDKit          3D

 21 21  0  0  0  0  0  0  0  0999 V2000
    0.0508    2.8784   -0.5475 C   0  0  0  0  0  0  0  0  0  0  0  0
    0.0465    1.7414   -0.7355 C   0  0  0  0  0  0  0  0  0  0  0  0
    0.0617    0.3852   -0.9472 C   0  0  0  0  0  0  0  0  0  0  0  0
   -0.7442   -0.2433   -2.0125 C   0  0  0  0  0  0  0  0  0  0  0  0
    1.4523    0.1022   -1.4176 O   0  0  0  0  0  0  0  0  0  0  0  0
    0.0739   -0.3670    0.3851 C   0  0  0  0  0  0  0  0  0  0  0  0
    1.3018   -0.0435    1.1958 C   0  0  0  0  0  0  0  0  0  0  0  0
   -1.2270   -0.5867    1.0662 C   0  0  0  0  0  0  0  0  0  0  0  0
   -0.5323   -1.7545    0.4362 C   0  0  0  0  0  0  0  0  0  0  0  0
    0.0397    4.1081   -0.3286 H   0  0  0  0  0  0  0  0  0  0  0  0
   -0.4271    0.2483   -2.9913 H   0  0  0  0  0  0  0  0  0  0  0  0
   -1.8113   -0.2208   -1.8919 H   0  0  0  0  0  0  0  0  0  0  0  0
   -0.3494   -1.3232   -2.1065 H   0  0  0  0  0  0  0  0  0  0  0  0
    1.5997    0.6662   -2.2249 H   0  0  0  0  0  0  0  0  0  0  0  0
    1.8717   -0.9981    1.3330 H   0  0  0  0  0  0  0  0  0  0  0  0
    1.9609    0.7132    0.7241 H   0  0  0  0  0  0  0  0  0  0  0  0
    0.9697    0.2679    2.2097 H   0  0  0  0  0  0  0  0  0  0  0  0
   -2.1844   -0.3056    0.5632 H   0  0  0  0  0  0  0  0  0  0  0  0
   -1.2308   -0.5421    2.1664 H   0  0  0  0  0  0  0  0  0  0  0  0
    0.0107   -2.4706    1.1431 H   0  0  0  0  0  0  0  0  0  0  0  0
   -0.9328   -2.2554   -0.4491 H   0  0  0  0  0  0  0  0  0  0  0  0
  1  2  3  0
  2  3  1  0
  3  4  1  0
  3  5  1  0
  3  6  1  0
  6  7  1  0
  6  8  1  0
  8  9  1  0
  9  6  1  0
  1 10  1  0
  4 11  1  0
  4 12  1  0
  4 13  1  0
  5 14  1  0
  7 15  1  0
  7 16  1  0
  7 17  1  0
  8 18  1  0
  8 19  1  0
  9 20  1  0
  9 21  1  0
M  END
