
     RDKit          3D

 15 17  0  0  0  0  0  0  0  0999 V2000
    2.6567    0.0499   -1.8856 C   0  0  0  0  0  0  0  0  0  0  0  0
    1.7244    0.0267   -0.7707 C   0  0  0  0  0  0  0  0  0  0  0  0
    0.6668   -0.0258    0.5156 C   0  0  0  0  0  0  0  0  0  0  0  0
   -0.2156   -1.2349   -0.0580 C   0  0  0  0  0  0  0  0  0  0  0  0
   -0.9824   -1.2296   -1.2275 O   0  0  0  0  0  0  0  0  0  0  0  0
   -1.5753   -0.6786   -0.0391 C   0  0  0  0  0  0  0  0  0  0  0  0
   -1.5426    0.8316    0.0222 C   0  0  0  0  0  0  0  0  0  0  0  0
   -0.9737    1.4201    1.1197 O   0  0  0  0  0  0  0  0  0  0  0  0
   -0.1053    1.1622    0.1139 C   0  0  0  0  0  0  0  0  0  0  0  0
    3.4478    0.0891   -2.8179 H   0  0  0  0  0  0  0  0  0  0  0  0
    1.3179   -0.2494    1.1228 H   0  0  0  0  0  0  0  0  0  0  0  0
   -0.0686   -2.2348    0.3274 H   0  0  0  0  0  0  0  0  0  0  0  0
   -2.3727   -1.1881    0.5020 H   0  0  0  0  0  0  0  0  0  0  0  0
   -2.1570    1.3933   -0.6591 H   0  0  0  0  0  0  0  0  0  0  0  0
    0.1796    1.8683   -0.7744 H   0  0  0  0  0  0  0  0  0  0  0  0
  1  2  3  0
  2  3  1  0
  3  4  1  0
  4  5  1  0
  5  6  1  0
  6  7  1  0
  7  8  1  0
  8  9  1  0
  9  3  1  0
  6  4  1  0
  9  7  1  0
  1 10  1  0
  3 11  1  0
  4 12  1  0
  6 13  1  0
  7 14  1  0
  9 15  1  0
M  END
