
     RDKit          3D

 23 22  0  0  0  0  0  0  0  0999 V2000
    0.1952   -2.9752    1.0280 C   0  0  0  0  0  0  0  0  0  0  0  0
   -0.0827   -1.8555    0.6639 C   0  0  0  0  0  0  0  0  0  0  0  0
   -0.4244   -0.4992    0.2407 C   0  0  0  0  0  0  0  0  0  0  0  0
   -1.8135   -0.4147   -0.3501 C   0  0  0  0  0  0  0  0  0  0  0  0
   -2.8888   -0.8288    0.5990 C   0  0  0  0  0  0  0  0  0  0  0  0
    0.4796   -0.1490   -0.7702 O   0  0  0  0  0  0  0  0  0  0  0  0
    1.2129    0.9883   -0.4291 C   0  0  0  0  0  0  0  0  0  0  0  0
    2.6602    0.5556   -0.3160 C   0  0  0  0  0  0  0  0  0  0  0  0
    1.0569    2.0936   -1.4417 C   0  0  0  0  0  0  0  0  0  0  0  0
    0.4246   -3.9629    1.3371 H   0  0  0  0  0  0  0  0  0  0  0  0
   -0.3019    0.2399    1.0447 H   0  0  0  0  0  0  0  0  0  0  0  0
   -1.8885   -0.9703   -1.2980 H   0  0  0  0  0  0  0  0  0  0  0  0
   -1.9878    0.6711   -0.5844 H   0  0  0  0  0  0  0  0  0  0  0  0
   -3.1154   -1.9125    0.5698 H   0  0  0  0  0  0  0  0  0  0  0  0
   -3.8178   -0.2939    0.3067 H   0  0  0  0  0  0  0  0  0  0  0  0
   -2.6444   -0.5032    1.6376 H   0  0  0  0  0  0  0  0  0  0  0  0
    0.9044    1.3627    0.5872 H   0  0  0  0  0  0  0  0  0  0  0  0
    3.2059    1.1119    0.4457 H   0  0  0  0  0  0  0  0  0  0  0  0
    3.1353    0.7536   -1.3212 H   0  0  0  0  0  0  0  0  0  0  0  0
    2.7387   -0.5483   -0.1827 H   0  0  0  0  0  0  0  0  0  0  0  0
    1.9767    2.2573   -2.0441 H   0  0  0  0  0  0  0  0  0  0  0  0
    0.2502    1.8424   -2.1635 H   0  0  0  0  0  0  0  0  0  0  0  0
    0.7246    3.0370   -0.9260 H   0  0  0  0  0  0  0  0  0  0  0  0
  1  2  3  0
  2  3  1  0
  3  4  1  0
  4  5  1  0
  3  6  1  0
  6  7  1  0
  7  8  1  0
  7  9  1  0
  1 10  1  0
  3 11  1  0
  4 12  1  0
  4 13  1  0
  5 14  1  0
  5 15  1  0
  5 16  1  0
  7 17  1  0
  8 18  1  0
  8 19  1  0
  8 20  1  0
  9 21  1  0
  9 22  1  0
  9 23  1  0
M  END
