
     RDKit          3D

 15 15  0  0  0  0  0  0  0  0999 V2000
    1.0844   -2.2343   -1.4418 C   0  0  0  0  0  0  0  0  0  0  0  0
    0.5185   -1.1185   -1.0171 C   0  0  0  0  0  0  0  0  0  0  0  0
   -0.0880    0.0662   -0.5405 C   0  0  0  0  0  0  0  0  0  0  0  0
   -0.2730    1.2895   -1.4699 C   0  0  0  0  0  0  0  0  0  0  0  0
   -0.4082    2.1984   -2.1366 C   0  0  0  0  0  0  0  0  0  0  0  0
    0.8333    0.6230    0.6090 C   0  0  0  0  0  0  0  0  0  0  0  0
   -0.5813    0.2542    0.8753 C   0  0  0  0  0  0  0  0  0  0  0  0
   -0.9309   -0.9138    1.6544 C   0  0  0  0  0  0  0  0  0  0  0  0
   -0.4362   -1.8089    2.1760 O   0  0  0  0  0  0  0  0  0  0  0  0
    1.5164   -3.0917   -1.7491 H   0  0  0  0  0  0  0  0  0  0  0  0
   -0.5335    3.1060   -2.8122 H   0  0  0  0  0  0  0  0  0  0  0  0
    1.6143   -0.1102    0.9729 H   0  0  0  0  0  0  0  0  0  0  0  0
    1.1572    1.6534    0.5842 H   0  0  0  0  0  0  0  0  0  0  0  0
   -1.3448    1.0979    0.9256 H   0  0  0  0  0  0  0  0  0  0  0  0
   -2.1282   -1.0113    1.8133 H   0  0  0  0  0  0  0  0  0  0  0  0
  1  2  3  0
  2  3  1  0
  3  4  1  0
  4  5  3  0
  3  6  1  0
  6  7  1  0
  7  8  1  0
  8  9  2  0
  7  3  1  0
  1 10  1  0
  5 11  1  0
  6 12  1  0
  6 13  1  0
  7 14  1  0
  8 15  1  0
M  END
