
     RDKit          3D

 19 20  0  0  0  0  0  0  0  0999 V2000
    0.3018   -1.5746    2.2652 C   0  0  0  0  0  0  0  0  0  0  0  0
    0.4777   -0.9378    1.2012 C   0  0  0  0  0  0  0  0  0  0  0  0
    0.6661   -0.1718   -0.0446 C   0  0  0  0  0  0  0  0  0  0  0  0
    2.0997   -0.0189   -0.3882 C   0  0  0  0  0  0  0  0  0  0  0  0
   -0.1889   -0.7098   -1.1840 C   0  0  0  0  0  0  0  0  0  0  0  0
   -0.9913    0.5406   -1.1474 C   0  0  0  0  0  0  0  0  0  0  0  0
   -1.6495    0.9674    0.1024 C   0  0  0  0  0  0  0  0  0  0  0  0
   -2.2320   -0.0503    0.8634 O   0  0  0  0  0  0  0  0  0  0  0  0
   -0.1826    1.0799   -0.0101 C   0  0  0  0  0  0  0  0  0  0  0  0
    0.1677   -2.0750    3.1322 H   0  0  0  0  0  0  0  0  0  0  0  0
    2.2818    1.0354   -0.7023 H   0  0  0  0  0  0  0  0  0  0  0  0
    2.7326   -0.3070    0.4500 H   0  0  0  0  0  0  0  0  0  0  0  0
    2.3180   -0.6714   -1.2841 H   0  0  0  0  0  0  0  0  0  0  0  0
   -0.7507   -1.6291   -0.8572 H   0  0  0  0  0  0  0  0  0  0  0  0
    0.3727   -0.8894   -2.1059 H   0  0  0  0  0  0  0  0  0  0  0  0
   -1.1883    1.1334   -2.0644 H   0  0  0  0  0  0  0  0  0  0  0  0
   -2.2192    1.9063    0.0659 H   0  0  0  0  0  0  0  0  0  0  0  0
   -2.3410    0.3264    1.7903 H   0  0  0  0  0  0  0  0  0  0  0  0
    0.3252    2.0456   -0.0824 H   0  0  0  0  0  0  0  0  0  0  0  0
  1  2  3  0
  2  3  1  0
  3  4  1  0
  3  5  1  0
  5  6  1  0
  6  7  1  0
  7  8  1  0
  7  9  1  0
  9  3  1  0
  9  6  1  0
  1 10  1  0
  4 11  1  0
  4 12  1  0
  4 13  1  0
  5 14  1  0
  5 15  1  0
  6 16  1  0
  7 17  1  0
  8 18  1  0
  9 19  1  0
M  END
