
     RDKit          3D

 16 17  0  0  0  0  0  0  0  0999 V2000
    3.2464    0.1297   -0.6948 C   0  0  0  0  0  0  0  0  0  0  0  0
    2.1605   -0.3326   -0.3928 C   0  0  0  0  0  0  0  0  0  0  0  0
    0.8570   -0.9096   -0.0434 C   0  0  0  0  0  0  0  0  0  0  0  0
   -0.2137    0.0842   -0.2986 C   0  0  0  0  0  0  0  0  0  0  0  0
   -1.5969   -0.5079    0.0647 C   0  0  0  0  0  0  0  0  0  0  0  0
   -1.9163    0.9705    0.1211 C   0  0  0  0  0  0  0  0  0  0  0  0
   -1.5010    1.8571    1.0042 O   0  0  0  0  0  0  0  0  0  0  0  0
   -0.5641    0.9355    0.9065 C   0  0  0  0  0  0  0  0  0  0  0  0
    4.1883    0.5481   -0.9488 H   0  0  0  0  0  0  0  0  0  0  0  0
    0.9105   -1.1706    1.0286 H   0  0  0  0  0  0  0  0  0  0  0  0
    0.7637   -1.8392   -0.6636 H   0  0  0  0  0  0  0  0  0  0  0  0
   -0.2281    0.5752   -1.2661 H   0  0  0  0  0  0  0  0  0  0  0  0
   -2.0854   -1.0176   -0.7550 H   0  0  0  0  0  0  0  0  0  0  0  0
   -1.6313   -0.9407    1.0659 H   0  0  0  0  0  0  0  0  0  0  0  0
   -1.8222    1.3736   -0.9387 H   0  0  0  0  0  0  0  0  0  0  0  0
   -0.5675    0.2443    1.8108 H   0  0  0  0  0  0  0  0  0  0  0  0
  1  2  3  0
  2  3  1  0
  3  4  1  0
  4  5  1  0
  5  6  1  0
  6  7  1  0
  7  8  1  0
  8  4  1  0
  8  6  1  0
  1  9  1  0
  3 10  1  0
  3 11  1  0
  4 12  1  0
  5 13  1  0
  5 14  1  0
  6 15  1  0
  8 16  1  0
M  END
