
     RDKit          3D

 12 11  0  0  0  0  0  0  0  0999 V2000
    1.4472   -2.2769    1.2930 C   0  0  0  0  0  0  0  0  0  0  0  0
    1.0439   -1.1495    1.1235 C   0  0  0  0  0  0  0  0  0  0  0  0
    0.5455    0.1845    0.9375 C   0  0  0  0  0  0  0  0  0  0  0  0
    1.1324    1.1637    1.4685 O   0  0  0  0  0  0  0  0  0  0  0  0
   -0.6629    0.4965    0.1288 C   0  0  0  0  0  0  0  0  0  0  0  0
   -1.1808   -0.6834   -0.3790 O   0  0  0  0  0  0  0  0  0  0  0  0
   -0.3712    1.4740   -0.9486 C   0  0  0  0  0  0  0  0  0  0  0  0
   -0.5826    1.2104   -2.1189 O   0  0  0  0  0  0  0  0  0  0  0  0
    1.8203   -3.2732    1.4533 H   0  0  0  0  0  0  0  0  0  0  0  0
   -1.4005    0.9398    0.8291 H   0  0  0  0  0  0  0  0  0  0  0  0
   -1.8249   -0.5212   -1.1287 H   0  0  0  0  0  0  0  0  0  0  0  0
    0.0334    2.4353   -0.7129 H   0  0  0  0  0  0  0  0  0  0  0  0
  1  2  3  0
  2  3  1  0
  3  4  2  0
  3  5  1  0
  5  6  1  0
  5  7  1  0
  7  8  2  0
  1  9  1  0
  5 10  1  0
  6 11  1  0
  7 12  1  0
M  END
