
     RDKit          3D

 12 12  0  0  0  0  0  0  0  0999 V2000
    2.0848    0.8510   -1.2113 C   0  0  0  0  0  0  0  0  0  0  0  0
    1.2136    0.0502   -0.9509 C   0  0  0  0  0  0  0  0  0  0  0  0
    0.1383   -0.9066   -0.6342 C   0  0  0  0  0  0  0  0  0  0  0  0
   -1.1210   -0.3329   -0.7579 O   0  0  0  0  0  0  0  0  0  0  0  0
   -1.3560    0.3666    0.4135 C   0  0  0  0  0  0  0  0  0  0  0  0
   -0.4676   -0.2890    1.4110 C   0  0  0  0  0  0  0  0  0  0  0  0
   -0.3959    0.0806    2.6038 O   0  0  0  0  0  0  0  0  0  0  0  0
    0.1787   -1.3010    0.7285 O   0  0  0  0  0  0  0  0  0  0  0  0
    2.8351    1.5620   -1.4474 H   0  0  0  0  0  0  0  0  0  0  0  0
    0.2869   -1.7921   -1.2462 H   0  0  0  0  0  0  0  0  0  0  0  0
   -1.0148    1.4185    0.3043 H   0  0  0  0  0  0  0  0  0  0  0  0
   -2.3821    0.2929    0.7869 H   0  0  0  0  0  0  0  0  0  0  0  0
  1  2  3  0
  2  3  1  0
  3  4  1  0
  4  5  1  0
  5  6  1  0
  6  7  2  0
  6  8  1  0
  8  3  1  0
  1  9  1  0
  3 10  1  0
  5 11  1  0
  5 12  1  0
M  END
