
     RDKit          3D

 21 21  0  0  0  0  0  0  0  0999 V2000
    3.1456    0.7379    1.2676 C   0  0  0  0  0  0  0  0  0  0  0  0
    2.3851    0.9520    0.2961 C   0  0  0  0  0  0  0  0  0  0  0  0
    1.5263    1.1871   -0.8371 C   0  0  0  0  0  0  0  0  0  0  0  0
    0.1271    0.6526   -0.5143 C   0  0  0  0  0  0  0  0  0  0  0  0
   -0.3703    1.2981    0.6374 O   0  0  0  0  0  0  0  0  0  0  0  0
   -1.0721    0.0916    0.8852 C   0  0  0  0  0  0  0  0  0  0  0  0
   -2.3623    0.1212    0.1386 C   0  0  0  0  0  0  0  0  0  0  0  0
    0.0579   -0.6292    0.2466 C   0  0  0  0  0  0  0  0  0  0  0  0
   -0.2879   -1.8500   -0.5715 C   0  0  0  0  0  0  0  0  0  0  0  0
    3.8105    0.5595    2.1132 H   0  0  0  0  0  0  0  0  0  0  0  0
    1.9333    0.7122   -1.7522 H   0  0  0  0  0  0  0  0  0  0  0  0
    1.4034    2.2720   -1.0177 H   0  0  0  0  0  0  0  0  0  0  0  0
   -0.6278    0.7540   -1.2877 H   0  0  0  0  0  0  0  0  0  0  0  0
   -1.1811   -0.0769    1.9892 H   0  0  0  0  0  0  0  0  0  0  0  0
   -3.1781    0.1010    0.8871 H   0  0  0  0  0  0  0  0  0  0  0  0
   -2.5255   -0.7185   -0.5583 H   0  0  0  0  0  0  0  0  0  0  0  0
   -2.4902    1.0455   -0.4976 H   0  0  0  0  0  0  0  0  0  0  0  0
    0.8652   -0.8267    0.9514 H   0  0  0  0  0  0  0  0  0  0  0  0
   -0.4483   -1.4776   -1.6328 H   0  0  0  0  0  0  0  0  0  0  0  0
   -1.2128   -2.2953   -0.1919 H   0  0  0  0  0  0  0  0  0  0  0  0
    0.5017   -2.6103   -0.5513 H   0  0  0  0  0  0  0  0  0  0  0  0
  1  2  3  0
  2  3  1  0
  3  4  1  0
  4  5  1  0
  5  6  1  0
  6  7  1  0
  6  8  1  0
  8  9  1  0
  8  4  1  0
  1 10  1  0
  3 11  1  0
  3 12  1  0
  4 13  1  0
  6 14  1  0
  7 15  1  0
  7 16  1  0
  7 17  1  0
  8 18  1  0
  9 19  1  0
  9 20  1  0
  9 21  1  0
M  END
