
     RDKit          3D

 14 16  0  0  0  0  0  0  0  0999 V2000
    2.6106   -0.6559   -0.4676 C   0  0  0  0  0  0  0  0  0  0  0  0
    1.5760   -0.0099   -0.6367 C   0  0  0  0  0  0  0  0  0  0  0  0
    0.3545    0.7744   -0.8558 C   0  0  0  0  0  0  0  0  0  0  0  0
    0.6093    2.0108   -0.3545 O   0  0  0  0  0  0  0  0  0  0  0  0
   -0.3410    1.4506    0.3472 C   0  0  0  0  0  0  0  0  0  0  0  0
   -0.6250    0.0913    0.8506 C   0  0  0  0  0  0  0  0  0  0  0  0
   -0.7424   -1.2041    0.1495 C   0  0  0  0  0  0  0  0  0  0  0  0
   -0.9189   -0.0326   -0.6778 C   0  0  0  0  0  0  0  0  0  0  0  0
    3.4959   -1.2222   -0.3351 H   0  0  0  0  0  0  0  0  0  0  0  0
   -1.3138    1.9452   -0.0205 H   0  0  0  0  0  0  0  0  0  0  0  0
   -1.5029    0.1354    1.5711 H   0  0  0  0  0  0  0  0  0  0  0  0
    0.2436   -1.7515    0.0465 H   0  0  0  0  0  0  0  0  0  0  0  0
   -1.5710   -1.9059    0.2167 H   0  0  0  0  0  0  0  0  0  0  0  0
   -1.8750    0.3744   -1.0295 H   0  0  0  0  0  0  0  0  0  0  0  0
  1  2  3  0
  2  3  1  0
  3  4  1  0
  4  5  1  0
  5  6  1  0
  6  7  1  0
  7  8  1  0
  5  3  1  0
  8  6  1  0
  8  3  1  0
  1  9  1  0
  5 10  1  0
  6 11  1  0
  7 12  1  0
  7 13  1  0
  8 14  1  0
M  END
