
     RDKit          3D

 18 17  0  0  0  0  0  0  0  0999 V2000
   -0.2419    2.9281    0.4270 C   0  0  0  0  0  0  0  0  0  0  0  0
    0.2887    1.2198    0.1451 C   0  0  0  0  0  0  0  0  0  0  0  0
    0.7099   -0.1530   -0.0805 C   0  0  0  0  0  0  0  0  0  0  0  0
   -0.3762   -0.5813   -0.9696 C   0  0  0  0  0  0  0  0  0  0  0  0
   -1.5048   -0.8903   -0.0942 O   0  0  0  0  0  0  0  0  0  0  0  0
   -2.5731   -1.4327   -0.7584 C   0  0  0  0  0  0  0  0  0  0  0  0
    1.9773    0.1115   -0.4863 O   0  0  0  0  0  0  0  0  0  0  0  0
    2.7315    0.2744    0.7371 C   0  0  0  0  0  0  0  0  0  0  0  0
   -0.6011    4.1155    0.6410 H   0  0  0  0  0  0  0  0  0  0  0  0
    0.5678   -0.4647    1.0024 H   0  0  0  0  0  0  0  0  0  0  0  0
   -0.2847   -1.4272   -1.5979 H   0  0  0  0  0  0  0  0  0  0  0  0
   -0.8286    0.2926   -1.6156 H   0  0  0  0  0  0  0  0  0  0  0  0
   -3.4026   -1.5941    0.0004 H   0  0  0  0  0  0  0  0  0  0  0  0
   -2.8618   -0.9839   -1.6929 H   0  0  0  0  0  0  0  0  0  0  0  0
   -2.2030   -2.5141   -0.9959 H   0  0  0  0  0  0  0  0  0  0  0  0
    2.6783   -0.5948    1.3501 H   0  0  0  0  0  0  0  0  0  0  0  0
    2.1856    1.1057    1.2611 H   0  0  0  0  0  0  0  0  0  0  0  0
    3.7387    0.5884    0.4662 H   0  0  0  0  0  0  0  0  0  0  0  0
  1  2  3  0
  2  3  1  0
  3  4  1  0
  4  5  1  0
  5  6  1  0
  3  7  1  0
  7  8  1  0
  1  9  1  0
  3 10  1  0
  4 11  1  0
  4 12  1  0
  6 13  1  0
  6 14  1  0
  6 15  1  0
  8 16  1  0
  8 17  1  0
  8 18  1  0
M  END
