
     RDKit          3D

 17 18  0  0  0  0  0  0  0  0999 V2000
    0.8313   -0.3544   -2.9562 C   0  0  0  0  0  0  0  0  0  0  0  0
    0.3091   -0.1856   -1.7401 C   0  0  0  0  0  0  0  0  0  0  0  0
   -0.2471   -0.0084   -0.5043 C   0  0  0  0  0  0  0  0  0  0  0  0
   -0.8245    1.2294   -0.1181 O   0  0  0  0  0  0  0  0  0  0  0  0
    0.1433    0.5712    0.6411 C   0  0  0  0  0  0  0  0  0  0  0  0
    1.3203    1.2786    1.2069 C   0  0  0  0  0  0  0  0  0  0  0  0
   -0.5031   -0.5318    1.5171 C   0  0  0  0  0  0  0  0  0  0  0  0
   -0.8751   -1.2193    0.2362 C   0  0  0  0  0  0  0  0  0  0  0  0
   -2.2574   -1.2281    0.0592 O   0  0  0  0  0  0  0  0  0  0  0  0
    1.2167   -0.4865   -3.8243 H   0  0  0  0  0  0  0  0  0  0  0  0
    1.1318    2.3731    1.1574 H   0  0  0  0  0  0  0  0  0  0  0  0
    2.2474    1.1063    0.5886 H   0  0  0  0  0  0  0  0  0  0  0  0
    1.5247    1.0725    2.2823 H   0  0  0  0  0  0  0  0  0  0  0  0
    0.2283   -0.9988    2.1636 H   0  0  0  0  0  0  0  0  0  0  0  0
   -1.3822   -0.0459    2.0300 H   0  0  0  0  0  0  0  0  0  0  0  0
   -0.3235   -2.1224   -0.0260 H   0  0  0  0  0  0  0  0  0  0  0  0
   -2.5400   -0.4501   -0.4623 H   0  0  0  0  0  0  0  0  0  0  0  0
  1  2  3  0
  2  3  1  0
  3  4  1  0
  4  5  1  0
  5  6  1  0
  5  7  1  0
  7  8  1  0
  8  9  1  0
  5  3  1  0
  8  3  1  0
  1 10  1  0
  6 11  1  0
  6 12  1  0
  6 13  1  0
  7 14  1  0
  7 15  1  0
  8 16  1  0
  9 17  1  0
M  END
