
     RDKit          3D

 15 15  0  0  0  0  0  0  0  0999 V2000
   -1.4382    2.2691   -0.8776 C   0  0  0  0  0  0  0  0  0  0  0  0
   -0.8583    1.2882   -0.4674 C   0  0  0  0  0  0  0  0  0  0  0  0
   -0.1513    0.1052    0.0552 C   0  0  0  0  0  0  0  0  0  0  0  0
   -0.7624   -0.2119    1.4071 C   0  0  0  0  0  0  0  0  0  0  0  0
   -0.2652   -0.9758   -0.7775 O   0  0  0  0  0  0  0  0  0  0  0  0
    0.9509   -1.5678   -0.9663 C   0  0  0  0  0  0  0  0  0  0  0  0
    1.9220   -0.8105   -0.2872 O   0  0  0  0  0  0  0  0  0  0  0  0
    1.2891    0.3598    0.1481 C   0  0  0  0  0  0  0  0  0  0  0  0
    1.8269    1.4217    0.5417 O   0  0  0  0  0  0  0  0  0  0  0  0
   -1.9624    3.1225   -1.2300 H   0  0  0  0  0  0  0  0  0  0  0  0
   -0.3990   -1.1914    1.7818 H   0  0  0  0  0  0  0  0  0  0  0  0
   -0.4454    0.6293    2.0910 H   0  0  0  0  0  0  0  0  0  0  0  0
   -1.8562   -0.2597    1.3553 H   0  0  0  0  0  0  0  0  0  0  0  0
    0.9816   -2.6411   -0.6995 H   0  0  0  0  0  0  0  0  0  0  0  0
    1.1678   -1.5376   -2.0746 H   0  0  0  0  0  0  0  0  0  0  0  0
  1  2  3  0
  2  3  1  0
  3  4  1  0
  3  5  1  0
  5  6  1  0
  6  7  1  0
  7  8  1  0
  8  9  2  0
  8  3  1  0
  1 10  1  0
  4 11  1  0
  4 12  1  0
  4 13  1  0
  6 14  1  0
  6 15  1  0
M  END
