
     RDKit          3D

 17 19  0  0  0  0  0  0  0  0999 V2000
    3.4405    0.4922    0.2734 C   0  0  0  0  0  0  0  0  0  0  0  0
    2.3326    0.2089   -0.1093 C   0  0  0  0  0  0  0  0  0  0  0  0
    0.9634   -0.1318   -0.5651 C   0  0  0  0  0  0  0  0  0  0  0  0
    0.2452    0.9744   -0.9123 O   0  0  0  0  0  0  0  0  0  0  0  0
   -0.9067    1.0385   -0.1703 C   0  0  0  0  0  0  0  0  0  0  0  0
   -1.8772   -0.0397   -0.6762 C   0  0  0  0  0  0  0  0  0  0  0  0
   -1.2510   -0.9757    0.3318 C   0  0  0  0  0  0  0  0  0  0  0  0
    0.2342   -0.8369    0.5630 C   0  0  0  0  0  0  0  0  0  0  0  0
   -0.7016    0.1797    1.0371 C   0  0  0  0  0  0  0  0  0  0  0  0
    4.4192    0.7525    0.6006 H   0  0  0  0  0  0  0  0  0  0  0  0
    1.0762   -0.8381   -1.4044 H   0  0  0  0  0  0  0  0  0  0  0  0
   -1.3600    2.0146   -0.0184 H   0  0  0  0  0  0  0  0  0  0  0  0
   -1.7351   -0.3043   -1.7278 H   0  0  0  0  0  0  0  0  0  0  0  0
   -2.9099    0.2678   -0.4298 H   0  0  0  0  0  0  0  0  0  0  0  0
   -1.8271   -1.7732    0.7972 H   0  0  0  0  0  0  0  0  0  0  0  0
    0.7467   -1.5140    1.2229 H   0  0  0  0  0  0  0  0  0  0  0  0
   -0.8895    0.4851    2.0411 H   0  0  0  0  0  0  0  0  0  0  0  0
  1  2  3  0
  2  3  1  0
  3  4  1  0
  4  5  1  0
  5  6  1  0
  6  7  1  0
  7  8  1  0
  8  9  1  0
  8  3  1  0
  9  5  1  0
  9  7  1  0
  1 10  1  0
  3 11  1  0
  5 12  1  0
  6 13  1  0
  6 14  1  0
  7 15  1  0
  8 16  1  0
  9 17  1  0
M  END
