
     RDKit          3D

 17 17  0  0  0  0  0  0  0  0999 V2000
   -1.3126   -1.0239   -1.8205 C   0  0  0  0  0  0  0  0  0  0  0  0
   -0.7322   -0.8919   -0.7448 C   0  0  0  0  0  0  0  0  0  0  0  0
   -0.0415   -0.7543    0.5424 C   0  0  0  0  0  0  0  0  0  0  0  0
   -0.4597   -1.7629    1.5798 C   0  0  0  0  0  0  0  0  0  0  0  0
    1.3559   -0.6071    0.4699 O   0  0  0  0  0  0  0  0  0  0  0  0
    0.5242    0.4920    0.9700 C   0  0  0  0  0  0  0  0  0  0  0  0
    0.6339    1.7002    0.1313 C   0  0  0  0  0  0  0  0  0  0  0  0
    0.5215    1.6947   -1.3421 C   0  0  0  0  0  0  0  0  0  0  0  0
    0.8291    2.7752    0.6721 O   0  0  0  0  0  0  0  0  0  0  0  0
   -1.8090   -1.1185   -2.7420 H   0  0  0  0  0  0  0  0  0  0  0  0
    0.2672   -1.8134    2.4261 H   0  0  0  0  0  0  0  0  0  0  0  0
   -0.3821   -2.7696    1.0843 H   0  0  0  0  0  0  0  0  0  0  0  0
   -1.4892   -1.6503    1.9224 H   0  0  0  0  0  0  0  0  0  0  0  0
    0.6368    0.6451    2.0787 H   0  0  0  0  0  0  0  0  0  0  0  0
    1.0499    2.5434   -1.8150 H   0  0  0  0  0  0  0  0  0  0  0  0
    0.9559    0.7781   -1.7853 H   0  0  0  0  0  0  0  0  0  0  0  0
   -0.5480    1.7633   -1.6274 H   0  0  0  0  0  0  0  0  0  0  0  0
  1  2  3  0
  2  3  1  0
  3  4  1  0
  3  5  1  0
  5  6  1  0
  6  7  1  0
  7  8  1  0
  7  9  2  0
  6  3  1  0
  1 10  1  0
  4 11  1  0
  4 12  1  0
  4 13  1  0
  6 14  1  0
  8 15  1  0
  8 16  1  0
  8 17  1  0
M  END
