
     RDKit          3D

 19 18  0  0  0  0  0  0  0  0999 V2000
    3.9359   -1.7422    1.7649 C   0  0  0  0  0  0  0  0  0  0  0  0
    3.4995   -0.7553    1.2286 C   0  0  0  0  0  0  0  0  0  0  0  0
    2.9743    0.4634    0.5942 C   0  0  0  0  0  0  0  0  0  0  0  0
    1.6623    0.2137   -0.0129 C   0  0  0  0  0  0  0  0  0  0  0  0
    0.5818   -0.0126   -0.5214 C   0  0  0  0  0  0  0  0  0  0  0  0
   -0.7258   -0.2677   -1.1318 C   0  0  0  0  0  0  0  0  0  0  0  0
   -1.8282    0.2967   -0.2622 C   0  0  0  0  0  0  0  0  0  0  0  0
   -3.1598    0.0137   -0.9252 C   0  0  0  0  0  0  0  0  0  0  0  0
   -1.6513    1.6662   -0.1776 O   0  0  0  0  0  0  0  0  0  0  0  0
    4.3115   -2.6262    2.2560 H   0  0  0  0  0  0  0  0  0  0  0  0
    2.8382    1.2670    1.3564 H   0  0  0  0  0  0  0  0  0  0  0  0
    3.7039    0.8455   -0.1788 H   0  0  0  0  0  0  0  0  0  0  0  0
   -0.7816    0.1205   -2.1601 H   0  0  0  0  0  0  0  0  0  0  0  0
   -0.8316   -1.3770   -1.2091 H   0  0  0  0  0  0  0  0  0  0  0  0
   -1.8020   -0.1813    0.7311 H   0  0  0  0  0  0  0  0  0  0  0  0
   -3.0457   -0.2186   -2.0044 H   0  0  0  0  0  0  0  0  0  0  0  0
   -3.6984   -0.8164   -0.4013 H   0  0  0  0  0  0  0  0  0  0  0  0
   -3.8053    0.9362   -0.8497 H   0  0  0  0  0  0  0  0  0  0  0  0
   -2.1776    2.1746   -0.8427 H   0  0  0  0  0  0  0  0  0  0  0  0
  1  2  3  0
  2  3  1  0
  3  4  1  0
  4  5  3  0
  5  6  1  0
  6  7  1  0
  7  8  1  0
  7  9  1  0
  1 10  1  0
  3 11  1  0
  3 12  1  0
  6 13  1  0
  6 14  1  0
  7 15  1  0
  8 16  1  0
  8 17  1  0
  8 18  1  0
  9 19  1  0
M  END
