
     RDKit          3D

 19 19  0  0  0  0  0  0  0  0999 V2000
    2.9364    1.0986    1.6649 C   0  0  0  0  0  0  0  0  0  0  0  0
    1.8789   -0.0164    0.6163 C   0  0  0  0  0  0  0  0  0  0  0  0
    1.1945   -0.7436   -0.0517 C   0  0  0  0  0  0  0  0  0  0  0  0
   -0.3287   -0.1638   -0.2820 C   0  0  0  0  0  0  0  0  0  0  0  0
   -0.9377   -1.0799   -0.8953 O   0  0  0  0  0  0  0  0  0  0  0  0
   -0.8011   -0.9349   -2.3774 C   0  0  0  0  0  0  0  0  0  0  0  0
   -0.6677    0.6544    0.8863 C   0  0  0  0  0  0  0  0  0  0  0  0
   -1.5538    0.3996    1.9676 C   0  0  0  0  0  0  0  0  0  0  0  0
   -1.9988    1.2325    0.7789 O   0  0  0  0  0  0  0  0  0  0  0  0
    3.5110    1.6822    2.2326 H   0  0  0  0  0  0  0  0  0  0  0  0
    1.6686   -0.1729   -1.2629 H   0  0  0  0  0  0  0  0  0  0  0  0
    1.3611   -1.8601   -0.2856 H   0  0  0  0  0  0  0  0  0  0  0  0
    0.0108    0.6963   -1.0983 H   0  0  0  0  0  0  0  0  0  0  0  0
   -1.6922   -1.6110   -2.6622 H   0  0  0  0  0  0  0  0  0  0  0  0
    0.0877   -1.5600   -2.6235 H   0  0  0  0  0  0  0  0  0  0  0  0
   -0.7936    0.0260   -2.7443 H   0  0  0  0  0  0  0  0  0  0  0  0
    0.0694    1.5308    1.0977 H   0  0  0  0  0  0  0  0  0  0  0  0
   -2.4018   -0.3065    2.1585 H   0  0  0  0  0  0  0  0  0  0  0  0
   -1.5430    1.1286    2.8802 H   0  0  0  0  0  0  0  0  0  0  0  0
  1  2  3  0
  2  3  1  0
  3  4  1  0
  4  5  1  0
  5  6  1  0
  4  7  1  0
  7  8  1  0
  8  9  1  0
  9  7  1  0
  1 10  1  0
  3 11  1  0
  3 12  1  0
  4 13  1  0
  6 14  1  0
  6 15  1  0
  6 16  1  0
  7 17  1  0
  8 18  1  0
  8 19  1  0
M  END
