
     RDKit          3D

 17 18  0  0  0  0  0  0  0  0999 V2000
   -2.1917   -1.4858    1.1720 C   0  0  0  0  0  0  0  0  0  0  0  0
   -1.7302   -0.6329    0.4491 C   0  0  0  0  0  0  0  0  0  0  0  0
   -1.1536    0.4025   -0.4121 C   0  0  0  0  0  0  0  0  0  0  0  0
   -0.5688    1.5351    0.3872 C   0  0  0  0  0  0  0  0  0  0  0  0
    0.7703    1.3946    0.6543 O   0  0  0  0  0  0  0  0  0  0  0  0
    1.2361    0.1114    0.6720 C   0  0  0  0  0  0  0  0  0  0  0  0
    2.1325   -0.2867   -0.4908 C   0  0  0  0  0  0  0  0  0  0  0  0
    0.7394   -0.7980   -0.3592 C   0  0  0  0  0  0  0  0  0  0  0  0
   -0.1994   -0.2306   -1.2096 O   0  0  0  0  0  0  0  0  0  0  0  0
   -2.5998   -2.2371    1.8069 H   0  0  0  0  0  0  0  0  0  0  0  0
   -1.9509    0.7584   -1.0952 H   0  0  0  0  0  0  0  0  0  0  0  0
   -1.1989    1.6636    1.3042 H   0  0  0  0  0  0  0  0  0  0  0  0
   -0.6714    2.4585   -0.2567 H   0  0  0  0  0  0  0  0  0  0  0  0
    1.5619   -0.2518    1.6746 H   0  0  0  0  0  0  0  0  0  0  0  0
    2.3429    0.5029   -1.2485 H   0  0  0  0  0  0  0  0  0  0  0  0
    2.9220   -1.0521   -0.3128 H   0  0  0  0  0  0  0  0  0  0  0  0
    0.5596   -1.8520   -0.0550 H   0  0  0  0  0  0  0  0  0  0  0  0
  1  2  3  0
  2  3  1  0
  3  4  1  0
  4  5  1  0
  5  6  1  0
  6  7  1  0
  7  8  1  0
  8  9  1  0
  9  3  1  0
  8  6  1  0
  1 10  1  0
  3 11  1  0
  4 12  1  0
  4 13  1  0
  6 14  1  0
  7 15  1  0
  7 16  1  0
  8 17  1  0
M  END
