
     RDKit          3D

 19 20  0  0  0  0  0  0  0  0999 V2000
    3.2019    0.9400   -0.5010 C   0  0  0  0  0  0  0  0  0  0  0  0
    2.0585    0.5848   -0.3486 C   0  0  0  0  0  0  0  0  0  0  0  0
    0.6686    0.1295   -0.1499 C   0  0  0  0  0  0  0  0  0  0  0  0
   -0.2931    1.2510    0.0970 C   0  0  0  0  0  0  0  0  0  0  0  0
   -1.7319    0.8433    0.0059 C   0  0  0  0  0  0  0  0  0  0  0  0
   -1.9319    0.1639   -1.1641 O   0  0  0  0  0  0  0  0  0  0  0  0
   -1.2602   -1.0192   -1.2787 C   0  0  0  0  0  0  0  0  0  0  0  0
    0.1875   -0.9778   -0.9563 C   0  0  0  0  0  0  0  0  0  0  0  0
    0.5270   -1.1812    0.5235 C   0  0  0  0  0  0  0  0  0  0  0  0
    4.2172    1.2542   -0.6550 H   0  0  0  0  0  0  0  0  0  0  0  0
   -0.1323    1.7186    1.1042 H   0  0  0  0  0  0  0  0  0  0  0  0
   -0.0881    2.0428   -0.6487 H   0  0  0  0  0  0  0  0  0  0  0  0
   -2.0591    0.3129    0.9152 H   0  0  0  0  0  0  0  0  0  0  0  0
   -2.3412    1.7822   -0.0435 H   0  0  0  0  0  0  0  0  0  0  0  0
   -1.3556   -1.3511   -2.3545 H   0  0  0  0  0  0  0  0  0  0  0  0
   -1.7224   -1.8632   -0.6980 H   0  0  0  0  0  0  0  0  0  0  0  0
    0.9153   -1.4506   -1.6795 H   0  0  0  0  0  0  0  0  0  0  0  0
    1.4446   -1.7779    0.7435 H   0  0  0  0  0  0  0  0  0  0  0  0
   -0.3047   -1.4022    1.2165 H   0  0  0  0  0  0  0  0  0  0  0  0
  1  2  3  0
  2  3  1  0
  3  4  1  0
  4  5  1  0
  5  6  1  0
  6  7  1  0
  7  8  1  0
  8  9  1  0
  8  3  1  0
  9  3  1  0
  1 10  1  0
  4 11  1  0
  4 12  1  0
  5 13  1  0
  5 14  1  0
  7 15  1  0
  7 16  1  0
  8 17  1  0
  9 18  1  0
  9 19  1  0
M  END
