
     RDKit          3D

 17 18  0  0  0  0  0  0  0  0999 V2000
    2.6212   -2.0102   -0.5163 C   0  0  0  0  0  0  0  0  0  0  0  0
    1.7629   -1.2410   -0.1641 C   0  0  0  0  0  0  0  0  0  0  0  0
    0.7320   -0.3151    0.2433 C   0  0  0  0  0  0  0  0  0  0  0  0
    0.9655    0.6328    1.2093 O   0  0  0  0  0  0  0  0  0  0  0  0
    0.7490    1.6292    0.2607 C   0  0  0  0  0  0  0  0  0  0  0  0
    0.2018    0.6351   -0.7362 C   0  0  0  0  0  0  0  0  0  0  0  0
   -0.6752   -0.4801   -0.2018 C   0  0  0  0  0  0  0  0  0  0  0  0
   -1.7325   -0.0359    0.7674 C   0  0  0  0  0  0  0  0  0  0  0  0
   -2.9766   -0.2715    0.1682 O   0  0  0  0  0  0  0  0  0  0  0  0
    3.3798   -2.6711   -0.8192 H   0  0  0  0  0  0  0  0  0  0  0  0
    1.6710    2.1454   -0.0471 H   0  0  0  0  0  0  0  0  0  0  0  0
    0.0084    2.3852    0.6176 H   0  0  0  0  0  0  0  0  0  0  0  0
    0.4769    0.6759   -1.7869 H   0  0  0  0  0  0  0  0  0  0  0  0
   -0.9706   -1.2398   -0.9361 H   0  0  0  0  0  0  0  0  0  0  0  0
   -1.5992    1.0075    1.0763 H   0  0  0  0  0  0  0  0  0  0  0  0
   -1.6802   -0.6584    1.6888 H   0  0  0  0  0  0  0  0  0  0  0  0
   -2.9341   -0.1879   -0.8239 H   0  0  0  0  0  0  0  0  0  0  0  0
  1  2  3  0
  2  3  1  0
  3  4  1  0
  4  5  1  0
  5  6  1  0
  6  7  1  0
  7  8  1  0
  8  9  1  0
  6  3  1  0
  7  3  1  0
  1 10  1  0
  5 11  1  0
  5 12  1  0
  6 13  1  0
  7 14  1  0
  8 15  1  0
  8 16  1  0
  9 17  1  0
M  END
