
     RDKit          3D

 21 22  0  0  0  0  0  0  0  0999 V2000
    2.5059    1.9600    0.4038 C   0  0  0  0  0  0  0  0  0  0  0  0
    1.8266    1.0665   -0.0425 C   0  0  0  0  0  0  0  0  0  0  0  0
    0.9731   -0.0138   -0.5871 C   0  0  0  0  0  0  0  0  0  0  0  0
    1.7564   -1.3028   -0.3017 C   0  0  0  0  0  0  0  0  0  0  0  0
   -0.3351   -0.0068    0.1390 C   0  0  0  0  0  0  0  0  0  0  0  0
   -1.1304    1.2562    0.0398 C   0  0  0  0  0  0  0  0  0  0  0  0
   -2.3855    0.4349   -0.2066 C   0  0  0  0  0  0  0  0  0  0  0  0
   -1.5007   -0.7838   -0.2893 C   0  0  0  0  0  0  0  0  0  0  0  0
   -0.7969   -1.1613    0.9385 C   0  0  0  0  0  0  0  0  0  0  0  0
    3.1185    2.7384    0.8067 H   0  0  0  0  0  0  0  0  0  0  0  0
    0.9119    0.1415   -1.6613 H   0  0  0  0  0  0  0  0  0  0  0  0
    1.8096   -1.4710    0.7991 H   0  0  0  0  0  0  0  0  0  0  0  0
    1.3120   -2.1486   -0.8401 H   0  0  0  0  0  0  0  0  0  0  0  0
    2.8113   -1.1640   -0.6293 H   0  0  0  0  0  0  0  0  0  0  0  0
   -1.1676    1.8727    0.9627 H   0  0  0  0  0  0  0  0  0  0  0  0
   -0.8692    1.8402   -0.8472 H   0  0  0  0  0  0  0  0  0  0  0  0
   -2.9883    0.4094    0.7425 H   0  0  0  0  0  0  0  0  0  0  0  0
   -2.9393    0.6891   -1.1148 H   0  0  0  0  0  0  0  0  0  0  0  0
   -1.5067   -1.4046   -1.2028 H   0  0  0  0  0  0  0  0  0  0  0  0
   -0.1441   -2.0360    0.9583 H   0  0  0  0  0  0  0  0  0  0  0  0
   -1.2614   -0.9162    1.9323 H   0  0  0  0  0  0  0  0  0  0  0  0
  1  2  3  0
  2  3  1  0
  3  4  1  0
  3  5  1  0
  5  6  1  0
  6  7  1  0
  7  8  1  0
  8  9  1  0
  8  5  1  0
  9  5  1  0
  1 10  1  0
  3 11  1  0
  4 12  1  0
  4 13  1  0
  4 14  1  0
  6 15  1  0
  6 16  1  0
  7 17  1  0
  7 18  1  0
  8 19  1  0
  9 20  1  0
  9 21  1  0
M  END
