
     RDKit          3D

 23 23  0  0  0  0  0  0  0  0999 V2000
    2.2671   -1.7524    1.4425 C   0  0  0  0  0  0  0  0  0  0  0  0
    1.4933   -1.0641    0.7551 C   0  0  0  0  0  0  0  0  0  0  0  0
    0.6010   -0.2439   -0.0587 C   0  0  0  0  0  0  0  0  0  0  0  0
    1.3236    0.8530   -0.7367 C   0  0  0  0  0  0  0  0  0  0  0  0
    0.0279   -1.1759   -1.1127 C   0  0  0  0  0  0  0  0  0  0  0  0
   -1.2665   -0.4997   -1.4472 C   0  0  0  0  0  0  0  0  0  0  0  0
   -1.7238    0.1657   -0.1462 C   0  0  0  0  0  0  0  0  0  0  0  0
   -0.5589    0.1370    0.7996 C   0  0  0  0  0  0  0  0  0  0  0  0
   -0.4383    1.4338    1.5148 C   0  0  0  0  0  0  0  0  0  0  0  0
    2.9211   -2.3550    2.0226 H   0  0  0  0  0  0  0  0  0  0  0  0
    2.3119    1.0458   -0.2343 H   0  0  0  0  0  0  0  0  0  0  0  0
    0.8085    1.8134   -0.8454 H   0  0  0  0  0  0  0  0  0  0  0  0
    1.5967    0.5222   -1.7847 H   0  0  0  0  0  0  0  0  0  0  0  0
    0.6750   -1.2243   -1.9840 H   0  0  0  0  0  0  0  0  0  0  0  0
   -0.1351   -2.1665   -0.6171 H   0  0  0  0  0  0  0  0  0  0  0  0
   -1.1632    0.2476   -2.2482 H   0  0  0  0  0  0  0  0  0  0  0  0
   -1.9701   -1.3098   -1.7450 H   0  0  0  0  0  0  0  0  0  0  0  0
   -2.0959    1.1928   -0.3103 H   0  0  0  0  0  0  0  0  0  0  0  0
   -2.5833   -0.4366    0.2292 H   0  0  0  0  0  0  0  0  0  0  0  0
   -0.7774   -0.6523    1.5545 H   0  0  0  0  0  0  0  0  0  0  0  0
   -0.7385    2.2360    0.7791 H   0  0  0  0  0  0  0  0  0  0  0  0
    0.5926    1.6900    1.8231 H   0  0  0  0  0  0  0  0  0  0  0  0
   -1.1675    1.5432    2.3501 H   0  0  0  0  0  0  0  0  0  0  0  0
  1  2  3  0
  2  3  1  0
  3  4  1  0
  3  5  1  0
  5  6  1  0
  6  7  1  0
  7  8  1  0
  8  9  1  0
  8  3  1  0
  1 10  1  0
  4 11  1  0
  4 12  1  0
  4 13  1  0
  5 14  1  0
  5 15  1  0
  6 16  1  0
  6 17  1  0
  7 18  1  0
  7 19  1  0
  8 20  1  0
  9 21  1  0
  9 22  1  0
  9 23  1  0
M  END
