
     RDKit          3D

 16 17  0  0  0  0  0  0  0  0999 V2000
    2.7164   -1.0128    0.3607 C   0  0  0  0  0  0  0  0  0  0  0  0
    1.6180   -0.5198    0.2336 C   0  0  0  0  0  0  0  0  0  0  0  0
    0.2885    0.0818    0.0839 C   0  0  0  0  0  0  0  0  0  0  0  0
    0.2262    1.5445    0.3182 C   0  0  0  0  0  0  0  0  0  0  0  0
   -0.8135   -0.7650    0.6178 C   0  0  0  0  0  0  0  0  0  0  0  0
   -1.7266   -0.1699   -0.3906 C   0  0  0  0  0  0  0  0  0  0  0  0
   -0.4366   -0.4847   -1.0761 C   0  0  0  0  0  0  0  0  0  0  0  0
   -0.4644   -1.6912   -0.3717 O   0  0  0  0  0  0  0  0  0  0  0  0
    3.6909   -1.4349    0.4848 H   0  0  0  0  0  0  0  0  0  0  0  0
    0.2623    2.1454   -0.6075 H   0  0  0  0  0  0  0  0  0  0  0  0
    1.1283    1.8302    0.9319 H   0  0  0  0  0  0  0  0  0  0  0  0
   -0.6746    1.8350    0.9033 H   0  0  0  0  0  0  0  0  0  0  0  0
   -1.0086   -0.9906    1.5810 H   0  0  0  0  0  0  0  0  0  0  0  0
   -2.0172    0.8710   -0.2935 H   0  0  0  0  0  0  0  0  0  0  0  0
   -2.5597   -0.8512   -0.7168 H   0  0  0  0  0  0  0  0  0  0  0  0
   -0.2293   -0.3877   -2.0588 H   0  0  0  0  0  0  0  0  0  0  0  0
  1  2  3  0
  2  3  1  0
  3  4  1  0
  3  5  1  0
  5  6  1  0
  6  7  1  0
  7  8  1  0
  7  3  1  0
  8  5  1  0
  1  9  1  0
  4 10  1  0
  4 11  1  0
  4 12  1  0
  5 13  1  0
  6 14  1  0
  6 15  1  0
  7 16  1  0
M  END
