
     RDKit          3D

 21 20  0  0  0  0  0  0  0  0999 V2000
   -1.8387    2.5732    0.4815 C   0  0  0  0  0  0  0  0  0  0  0  0
   -1.0740    1.5847    0.7325 C   0  0  0  0  0  0  0  0  0  0  0  0
   -0.2033    0.4168    1.0217 C   0  0  0  0  0  0  0  0  0  0  0  0
   -0.1342   -0.1865   -0.3748 C   0  0  0  0  0  0  0  0  0  0  0  0
   -1.6588   -0.3751   -0.6891 C   0  0  0  0  0  0  0  0  0  0  0  0
    0.3749    0.4732   -1.3822 O   0  0  0  0  0  0  0  0  0  0  0  0
    0.4505   -1.6290   -0.2280 C   0  0  0  0  0  0  0  0  0  0  0  0
    1.8193   -1.5293   -0.3744 O   0  0  0  0  0  0  0  0  0  0  0  0
    2.5023   -0.6088    0.3163 C   0  0  0  0  0  0  0  0  0  0  0  0
   -2.7415    3.7017    0.1807 H   0  0  0  0  0  0  0  0  0  0  0  0
    0.5964    0.7856    1.4686 H   0  0  0  0  0  0  0  0  0  0  0  0
   -0.9529   -0.2510    1.5690 H   0  0  0  0  0  0  0  0  0  0  0  0
   -2.2837   -0.3046    0.1720 H   0  0  0  0  0  0  0  0  0  0  0  0
   -1.8086   -1.2913   -1.2792 H   0  0  0  0  0  0  0  0  0  0  0  0
   -1.8618    0.4646   -1.4273 H   0  0  0  0  0  0  0  0  0  0  0  0
    0.4327    1.4530   -1.3425 H   0  0  0  0  0  0  0  0  0  0  0  0
    0.1315   -2.1000    0.6898 H   0  0  0  0  0  0  0  0  0  0  0  0
    0.0834   -2.2120   -1.1171 H   0  0  0  0  0  0  0  0  0  0  0  0
    2.3451   -0.6861    1.4344 H   0  0  0  0  0  0  0  0  0  0  0  0
    2.1963    0.4301   -0.0104 H   0  0  0  0  0  0  0  0  0  0  0  0
    3.6250   -0.7093    0.1587 H   0  0  0  0  0  0  0  0  0  0  0  0
  1  2  3  0
  2  3  1  0
  3  4  1  0
  4  5  1  0
  4  6  1  0
  4  7  1  0
  7  8  1  0
  8  9  1  0
  1 10  1  0
  3 11  1  0
  3 12  1  0
  5 13  1  0
  5 14  1  0
  5 15  1  0
  6 16  1  0
  7 17  1  0
  7 18  1  0
  9 19  1  0
  9 20  1  0
  9 21  1  0
M  END
