
     RDKit          3D

 15 17  0  0  0  0  0  0  0  0999 V2000
    2.9189   -0.8649   -0.3844 C   0  0  0  0  0  0  0  0  0  0  0  0
    1.8824   -0.5062   -0.3162 C   0  0  0  0  0  0  0  0  0  0  0  0
    0.5416   -0.0316   -0.2499 C   0  0  0  0  0  0  0  0  0  0  0  0
    0.2814    1.2697   -0.6097 O   0  0  0  0  0  0  0  0  0  0  0  0
   -1.0767    1.4185   -0.2775 C   0  0  0  0  0  0  0  0  0  0  0  0
   -1.4040    0.0941    0.2761 C   0  0  0  0  0  0  0  0  0  0  0  0
   -0.1769   -0.2357    1.0726 C   0  0  0  0  0  0  0  0  0  0  0  0
   -0.3356   -1.5325    0.7066 O   0  0  0  0  0  0  0  0  0  0  0  0
   -0.6092   -0.8919   -0.5040 C   0  0  0  0  0  0  0  0  0  0  0  0
    4.0327   -1.2668   -0.4719 H   0  0  0  0  0  0  0  0  0  0  0  0
   -1.1597    2.1578    0.5897 H   0  0  0  0  0  0  0  0  0  0  0  0
   -1.7036    1.7288   -1.1094 H   0  0  0  0  0  0  0  0  0  0  0  0
   -2.3715   -0.1454    0.6720 H   0  0  0  0  0  0  0  0  0  0  0  0
    0.0858    0.1785    1.9565 H   0  0  0  0  0  0  0  0  0  0  0  0
   -0.9054   -1.3724   -1.3506 H   0  0  0  0  0  0  0  0  0  0  0  0
  1  2  3  0
  2  3  1  0
  3  4  1  0
  4  5  1  0
  5  6  1  0
  6  7  1  0
  7  8  1  0
  8  9  1  0
  7  3  1  0
  9  3  1  0
  9  6  1  0
  1 10  1  0
  5 11  1  0
  5 12  1  0
  6 13  1  0
  7 14  1  0
  9 15  1  0
M  END
