
     RDKit          3D

 19 18  0  0  0  0  0  0  0  0999 V2000
    2.6621    2.6423    0.0627 C   0  0  0  0  0  0  0  0  0  0  0  0
    2.4609    1.4695   -0.1554 C   0  0  0  0  0  0  0  0  0  0  0  0
    2.2140    0.0683   -0.3939 C   0  0  0  0  0  0  0  0  0  0  0  0
    0.9302   -0.2406   -0.7351 O   0  0  0  0  0  0  0  0  0  0  0  0
   -0.0154    0.0988    0.2130 C   0  0  0  0  0  0  0  0  0  0  0  0
   -1.3986   -0.2948   -0.2842 C   0  0  0  0  0  0  0  0  0  0  0  0
   -1.4722   -1.7853   -0.5357 C   0  0  0  0  0  0  0  0  0  0  0  0
   -2.3621    0.1003    0.7574 C   0  0  0  0  0  0  0  0  0  0  0  0
   -2.6228   -0.6728    1.6412 O   0  0  0  0  0  0  0  0  0  0  0  0
    2.8267    3.6884    0.2493 H   0  0  0  0  0  0  0  0  0  0  0  0
    2.8751   -0.2449   -1.2338 H   0  0  0  0  0  0  0  0  0  0  0  0
    2.4776   -0.4832    0.5514 H   0  0  0  0  0  0  0  0  0  0  0  0
    0.1810   -0.3934    1.1920 H   0  0  0  0  0  0  0  0  0  0  0  0
   -0.0323    1.1969    0.3947 H   0  0  0  0  0  0  0  0  0  0  0  0
   -1.5751    0.2548   -1.2438 H   0  0  0  0  0  0  0  0  0  0  0  0
   -0.4437   -2.2136   -0.4104 H   0  0  0  0  0  0  0  0  0  0  0  0
   -1.7623   -1.9971   -1.5727 H   0  0  0  0  0  0  0  0  0  0  0  0
   -2.1249   -2.2565    0.2240 H   0  0  0  0  0  0  0  0  0  0  0  0
   -2.8181    1.0629    0.7198 H   0  0  0  0  0  0  0  0  0  0  0  0
  1  2  3  0
  2  3  1  0
  3  4  1  0
  4  5  1  0
  5  6  1  0
  6  7  1  0
  6  8  1  0
  8  9  2  0
  1 10  1  0
  3 11  1  0
  3 12  1  0
  5 13  1  0
  5 14  1  0
  6 15  1  0
  7 16  1  0
  7 17  1  0
  7 18  1  0
  8 19  1  0
M  END
