
     RDKit          3D

 17 16  0  0  0  0  0  0  0  0999 V2000
    1.5387   -1.7782   -3.2713 C   0  0  0  0  0  0  0  0  0  0  0  0
    1.2786   -1.3008   -2.1232 C   0  0  0  0  0  0  0  0  0  0  0  0
    1.0372   -0.8328   -0.9742 C   0  0  0  0  0  0  0  0  0  0  0  0
    0.4826    0.5107   -0.9635 O   0  0  0  0  0  0  0  0  0  0  0  0
    0.1336    0.9887    0.2498 C   0  0  0  0  0  0  0  0  0  0  0  0
   -0.9853    0.2290    0.9662 C   0  0  0  0  0  0  0  0  0  0  0  0
   -1.2854    0.8875    2.3005 C   0  0  0  0  0  0  0  0  0  0  0  0
    1.7903   -2.2563   -4.3892 H   0  0  0  0  0  0  0  0  0  0  0  0
    0.1866   -1.4295   -0.4101 H   0  0  0  0  0  0  0  0  0  0  0  0
    1.8376   -0.8697   -0.1579 H   0  0  0  0  0  0  0  0  0  0  0  0
    1.0099    1.1088    0.9451 H   0  0  0  0  0  0  0  0  0  0  0  0
   -0.2653    2.0448    0.1407 H   0  0  0  0  0  0  0  0  0  0  0  0
   -1.9190    0.2170    0.3415 H   0  0  0  0  0  0  0  0  0  0  0  0
   -0.6988   -0.7966    1.1788 H   0  0  0  0  0  0  0  0  0  0  0  0
   -1.8525    0.2784    2.9905 H   0  0  0  0  0  0  0  0  0  0  0  0
   -1.9513    1.7798    2.1118 H   0  0  0  0  0  0  0  0  0  0  0  0
   -0.3373    1.2192    2.8054 H   0  0  0  0  0  0  0  0  0  0  0  0
  1  2  3  0
  2  3  1  0
  3  4  1  0
  4  5  1  0
  5  6  1  0
  6  7  1  0
  1  8  1  0
  3  9  1  0
  3 10  1  0
  5 11  1  0
  5 12  1  0
  6 13  1  0
  6 14  1  0
  7 15  1  0
  7 16  1  0
  7 17  1  0
M  END
