
     RDKit          3D

 17 18  0  0  0  0  0  0  0  0999 V2000
    2.5492    1.0359   -0.9181 C   0  0  0  0  0  0  0  0  0  0  0  0
    1.6054    0.0731   -0.7071 C   0  0  0  0  0  0  0  0  0  0  0  0
    0.6528   -0.9121   -0.4873 C   0  0  0  0  0  0  0  0  0  0  0  0
    1.1081   -2.2266   -0.6627 O   0  0  0  0  0  0  0  0  0  0  0  0
   -0.1096   -0.7426    0.8230 C   0  0  0  0  0  0  0  0  0  0  0  0
   -0.8149    0.4320    1.2923 C   0  0  0  0  0  0  0  0  0  0  0  0
   -1.1474    1.5248    0.2711 C   0  0  0  0  0  0  0  0  0  0  0  0
   -1.8090    0.5609   -0.5115 O   0  0  0  0  0  0  0  0  0  0  0  0
   -1.6153   -0.4927    0.4348 C   0  0  0  0  0  0  0  0  0  0  0  0
    3.2618    1.7769   -1.0931 H   0  0  0  0  0  0  0  0  0  0  0  0
   -0.1007   -0.7946   -1.3588 H   0  0  0  0  0  0  0  0  0  0  0  0
    2.0414   -2.3114   -0.9679 H   0  0  0  0  0  0  0  0  0  0  0  0
   -0.0826   -1.6759    1.4024 H   0  0  0  0  0  0  0  0  0  0  0  0
   -1.0744    0.6305    2.3435 H   0  0  0  0  0  0  0  0  0  0  0  0
   -1.7864    2.3412    0.6032 H   0  0  0  0  0  0  0  0  0  0  0  0
   -0.2597    1.9308   -0.2920 H   0  0  0  0  0  0  0  0  0  0  0  0
   -2.4187   -1.1503    0.7295 H   0  0  0  0  0  0  0  0  0  0  0  0
  1  2  3  0
  2  3  1  0
  3  4  1  0
  3  5  1  0
  5  6  1  0
  6  7  1  0
  7  8  1  0
  8  9  1  0
  9  5  1  0
  9  6  1  0
  1 10  1  0
  3 11  1  0
  4 12  1  0
  5 13  1  0
  6 14  1  0
  7 15  1  0
  7 16  1  0
  9 17  1  0
M  END
