
     RDKit          3D

 17 16  0  0  0  0  0  0  0  0999 V2000
   -2.2219    1.9651    0.3251 C   0  0  0  0  0  0  0  0  0  0  0  0
   -1.3927    1.0997    0.2240 C   0  0  0  0  0  0  0  0  0  0  0  0
   -0.3691   -0.0067    0.0947 C   0  0  0  0  0  0  0  0  0  0  0  0
   -0.9038   -1.0537   -0.8212 C   0  0  0  0  0  0  0  0  0  0  0  0
   -1.9837   -1.7373   -0.2559 O   0  0  0  0  0  0  0  0  0  0  0  0
    0.7061    0.6334   -0.4978 O   0  0  0  0  0  0  0  0  0  0  0  0
    1.7444    0.8456    0.3496 C   0  0  0  0  0  0  0  0  0  0  0  0
    2.2681   -0.4076    0.9009 C   0  0  0  0  0  0  0  0  0  0  0  0
    1.7875   -1.4646    0.6012 O   0  0  0  0  0  0  0  0  0  0  0  0
   -2.9417    2.7362    0.4016 H   0  0  0  0  0  0  0  0  0  0  0  0
   -0.1799   -0.3189    1.1286 H   0  0  0  0  0  0  0  0  0  0  0  0
   -0.1660   -1.7762   -1.1707 H   0  0  0  0  0  0  0  0  0  0  0  0
   -1.2574   -0.4991   -1.7431 H   0  0  0  0  0  0  0  0  0  0  0  0
   -2.1884   -2.5163   -0.8318 H   0  0  0  0  0  0  0  0  0  0  0  0
    2.5703    1.3317   -0.2464 H   0  0  0  0  0  0  0  0  0  0  0  0
    1.4269    1.5550    1.1747 H   0  0  0  0  0  0  0  0  0  0  0  0
    3.1013   -0.3862    1.5895 H   0  0  0  0  0  0  0  0  0  0  0  0
  1  2  3  0
  2  3  1  0
  3  4  1  0
  4  5  1  0
  3  6  1  0
  6  7  1  0
  7  8  1  0
  8  9  2  0
  1 10  1  0
  3 11  1  0
  4 12  1  0
  4 13  1  0
  5 14  1  0
  7 15  1  0
  7 16  1  0
  8 17  1  0
M  END
