
     RDKit          3D

 19 18  0  0  0  0  0  0  0  0999 V2000
   -3.4674    2.2724    1.8997 C   0  0  0  0  0  0  0  0  0  0  0  0
   -2.4856    1.6312    1.6677 C   0  0  0  0  0  0  0  0  0  0  0  0
   -1.2644    0.8507    1.3590 C   0  0  0  0  0  0  0  0  0  0  0  0
   -1.3531   -0.4088    0.6274 C   0  0  0  0  0  0  0  0  0  0  0  0
    0.1147   -0.8989    0.6622 C   0  0  0  0  0  0  0  0  0  0  0  0
    0.4219   -1.7084    1.5562 O   0  0  0  0  0  0  0  0  0  0  0  0
    1.0791   -0.4980   -0.2297 O   0  0  0  0  0  0  0  0  0  0  0  0
    2.0403   -0.2519   -0.9297 C   0  0  0  0  0  0  0  0  0  0  0  0
    2.3857   -1.3483   -1.9906 C   0  0  0  0  0  0  0  0  0  0  0  0
   -4.3911    2.8583    2.1078 H   0  0  0  0  0  0  0  0  0  0  0  0
   -0.3619    1.1847    1.8237 H   0  0  0  0  0  0  0  0  0  0  0  0
   -0.9931    1.6359    0.3074 H   0  0  0  0  0  0  0  0  0  0  0  0
   -1.6207   -0.2284   -0.4995 H   0  0  0  0  0  0  0  0  0  0  0  0
   -2.0177   -1.1908    0.9652 H   0  0  0  0  0  0  0  0  0  0  0  0
    3.0520    0.0744   -0.4810 H   0  0  0  0  0  0  0  0  0  0  0  0
    1.8037    0.6929   -1.6076 H   0  0  0  0  0  0  0  0  0  0  0  0
    2.9147   -0.8540   -2.7757 H   0  0  0  0  0  0  0  0  0  0  0  0
    2.8351   -2.1458   -1.4563 H   0  0  0  0  0  0  0  0  0  0  0  0
    1.3077   -1.6672   -2.3171 H   0  0  0  0  0  0  0  0  0  0  0  0
  1  2  3  0
  2  3  1  0
  3  4  1  0
  4  5  1  0
  5  6  2  0
  5  7  1  0
  7  8  1  0
  8  9  1  0
  1 10  1  0
  3 11  1  0
  3 12  1  0
  4 13  1  0
  4 14  1  0
  8 15  1  0
  8 16  1  0
  9 17  1  0
  9 18  1  0
  9 19  1  0
M  END
