
     RDKit          3D

 15 15  0  0  0  0  0  0  0  0999 V2000
    2.4747    1.1753   -0.6708 C   0  0  0  0  0  0  0  0  0  0  0  0
    1.6965    0.2956   -0.3968 C   0  0  0  0  0  0  0  0  0  0  0  0
    0.7352   -0.7733   -0.0841 C   0  0  0  0  0  0  0  0  0  0  0  0
   -0.1036   -0.3776    1.1380 C   0  0  0  0  0  0  0  0  0  0  0  0
   -1.0303    0.3410    0.1526 C   0  0  0  0  0  0  0  0  0  0  0  0
   -2.3453    0.1639    0.5294 O   0  0  0  0  0  0  0  0  0  0  0  0
   -0.5307   -0.6557   -0.9003 C   0  0  0  0  0  0  0  0  0  0  0  0
    3.1513    1.9653   -0.9047 H   0  0  0  0  0  0  0  0  0  0  0  0
    1.1909   -1.7639   -0.0285 H   0  0  0  0  0  0  0  0  0  0  0  0
   -0.5935   -1.2401    1.6126 H   0  0  0  0  0  0  0  0  0  0  0  0
    0.4541    0.3111    1.7721 H   0  0  0  0  0  0  0  0  0  0  0  0
   -0.7128    1.3671   -0.0931 H   0  0  0  0  0  0  0  0  0  0  0  0
   -2.8299    1.0476    0.5558 H   0  0  0  0  0  0  0  0  0  0  0  0
   -1.1183   -1.5969   -0.7768 H   0  0  0  0  0  0  0  0  0  0  0  0
   -0.4383   -0.2594   -1.9053 H   0  0  0  0  0  0  0  0  0  0  0  0
  1  2  3  0
  2  3  1  0
  3  4  1  0
  4  5  1  0
  5  6  1  0
  5  7  1  0
  7  3  1  0
  1  8  1  0
  3  9  1  0
  4 10  1  0
  4 11  1  0
  5 12  1  0
  6 13  1  0
  7 14  1  0
  7 15  1  0
M  END
