
     RDKit          3D

 21 22  0  0  0  0  0  0  0  0999 V2000
    3.5156    1.1614    0.0085 C   0  0  0  0  0  0  0  0  0  0  0  0
    2.6575    0.3180    0.2381 C   0  0  0  0  0  0  0  0  0  0  0  0
    1.6407   -0.6779    0.5163 C   0  0  0  0  0  0  0  0  0  0  0  0
    0.3883   -0.4417   -0.2750 C   0  0  0  0  0  0  0  0  0  0  0  0
   -0.3131    0.8600   -0.0633 C   0  0  0  0  0  0  0  0  0  0  0  0
   -1.4555    0.7356   -1.0446 C   0  0  0  0  0  0  0  0  0  0  0  0
   -1.8930   -0.7072   -0.7162 C   0  0  0  0  0  0  0  0  0  0  0  0
   -0.8789   -1.0375    0.3320 C   0  0  0  0  0  0  0  0  0  0  0  0
   -0.9236    0.2314    1.1808 C   0  0  0  0  0  0  0  0  0  0  0  0
    4.2368    1.8867   -0.1728 H   0  0  0  0  0  0  0  0  0  0  0  0
    2.0116   -1.7002    0.2601 H   0  0  0  0  0  0  0  0  0  0  0  0
    1.4547   -0.6895    1.6089 H   0  0  0  0  0  0  0  0  0  0  0  0
    0.4890   -0.6683   -1.3511 H   0  0  0  0  0  0  0  0  0  0  0  0
    0.2167    1.7671    0.0246 H   0  0  0  0  0  0  0  0  0  0  0  0
   -1.0158    0.7205   -2.0605 H   0  0  0  0  0  0  0  0  0  0  0  0
   -2.2558    1.4507   -0.8983 H   0  0  0  0  0  0  0  0  0  0  0  0
   -1.8734   -1.3463   -1.6003 H   0  0  0  0  0  0  0  0  0  0  0  0
   -2.8830   -0.6106   -0.2363 H   0  0  0  0  0  0  0  0  0  0  0  0
   -0.8375   -1.9729    0.8040 H   0  0  0  0  0  0  0  0  0  0  0  0
   -0.3063    0.2286    2.0728 H   0  0  0  0  0  0  0  0  0  0  0  0
   -1.9751    0.4922    1.3724 H   0  0  0  0  0  0  0  0  0  0  0  0
  1  2  3  0
  2  3  1  0
  3  4  1  0
  4  5  1  0
  5  6  1  0
  6  7  1  0
  7  8  1  0
  8  9  1  0
  8  4  1  0
  9  5  1  0
  1 10  1  0
  3 11  1  0
  3 12  1  0
  4 13  1  0
  5 14  1  0
  6 15  1  0
  6 16  1  0
  7 17  1  0
  7 18  1  0
  8 19  1  0
  9 20  1  0
  9 21  1  0
M  END
