
     RDKit          3D

 19 20  0  0  0  0  0  0  0  0999 V2000
    3.0078   -0.5968   -0.8988 C   0  0  0  0  0  0  0  0  0  0  0  0
    1.8818   -0.3034   -0.5904 C   0  0  0  0  0  0  0  0  0  0  0  0
    0.5728    0.0340   -0.2171 C   0  0  0  0  0  0  0  0  0  0  0  0
   -0.5391   -0.5043   -1.0563 C   0  0  0  0  0  0  0  0  0  0  0  0
   -1.7729   -0.4373   -0.1422 C   0  0  0  0  0  0  0  0  0  0  0  0
   -1.2228    0.2490    1.0913 C   0  0  0  0  0  0  0  0  0  0  0  0
    0.1398   -0.4659    1.1730 C   0  0  0  0  0  0  0  0  0  0  0  0
   -0.8922    1.5441    0.7393 O   0  0  0  0  0  0  0  0  0  0  0  0
    0.3005    1.5064    0.0117 C   0  0  0  0  0  0  0  0  0  0  0  0
    4.0057   -0.8572   -1.1748 H   0  0  0  0  0  0  0  0  0  0  0  0
   -0.7399    0.2334   -1.8654 H   0  0  0  0  0  0  0  0  0  0  0  0
   -0.3816   -1.5198   -1.4402 H   0  0  0  0  0  0  0  0  0  0  0  0
   -2.6047    0.0866   -0.6053 H   0  0  0  0  0  0  0  0  0  0  0  0
   -2.0527   -1.4774    0.1946 H   0  0  0  0  0  0  0  0  0  0  0  0
   -1.8116    0.1393    1.9793 H   0  0  0  0  0  0  0  0  0  0  0  0
    0.0278   -1.5446    1.1508 H   0  0  0  0  0  0  0  0  0  0  0  0
    0.7712   -0.0508    1.9539 H   0  0  0  0  0  0  0  0  0  0  0  0
    1.1051    1.8963    0.6741 H   0  0  0  0  0  0  0  0  0  0  0  0
    0.2050    2.0684   -0.9342 H   0  0  0  0  0  0  0  0  0  0  0  0
  1  2  3  0
  2  3  1  0
  3  4  1  0
  4  5  1  0
  5  6  1  0
  6  7  1  0
  6  8  1  0
  8  9  1  0
  7  3  1  0
  9  3  1  0
  1 10  1  0
  4 11  1  0
  4 12  1  0
  5 13  1  0
  5 14  1  0
  6 15  1  0
  7 16  1  0
  7 17  1  0
  9 18  1  0
  9 19  1  0
M  END
