
     RDKit          3D

 21 21  0  0  0  0  0  0  0  0999 V2000
   -1.4281    1.8445   -2.3106 C   0  0  0  0  0  0  0  0  0  0  0  0
   -1.0257    1.2307   -1.2641 C   0  0  0  0  0  0  0  0  0  0  0  0
   -0.5795    0.5385   -0.1312 C   0  0  0  0  0  0  0  0  0  0  0  0
   -1.5839    0.4533    1.0245 C   0  0  0  0  0  0  0  0  0  0  0  0
   -2.7021   -0.2147    0.5189 O   0  0  0  0  0  0  0  0  0  0  0  0
   -0.0404   -0.8524   -0.5011 C   0  0  0  0  0  0  0  0  0  0  0  0
    1.0063   -0.6281    0.5665 C   0  0  0  0  0  0  0  0  0  0  0  0
    2.3768   -1.1317    0.1557 C   0  0  0  0  0  0  0  0  0  0  0  0
    0.8309    0.8516    0.3467 C   0  0  0  0  0  0  0  0  0  0  0  0
   -1.7679    2.3450   -3.2009 H   0  0  0  0  0  0  0  0  0  0  0  0
   -1.1343   -0.1554    1.8194 H   0  0  0  0  0  0  0  0  0  0  0  0
   -1.8439    1.4916    1.3441 H   0  0  0  0  0  0  0  0  0  0  0  0
   -2.7818   -1.1260    0.9278 H   0  0  0  0  0  0  0  0  0  0  0  0
    0.4240   -0.8346   -1.4863 H   0  0  0  0  0  0  0  0  0  0  0  0
   -0.7529   -1.6698   -0.2947 H   0  0  0  0  0  0  0  0  0  0  0  0
    0.6494   -1.0195    1.5323 H   0  0  0  0  0  0  0  0  0  0  0  0
    2.7485   -0.6079   -0.7438 H   0  0  0  0  0  0  0  0  0  0  0  0
    3.0845   -0.9769    0.9794 H   0  0  0  0  0  0  0  0  0  0  0  0
    2.2163   -2.2253   -0.0399 H   0  0  0  0  0  0  0  0  0  0  0  0
    0.8569    1.4720    1.2576 H   0  0  0  0  0  0  0  0  0  0  0  0
    1.4468    1.2152   -0.5003 H   0  0  0  0  0  0  0  0  0  0  0  0
  1  2  3  0
  2  3  1  0
  3  4  1  0
  4  5  1  0
  3  6  1  0
  6  7  1  0
  7  8  1  0
  7  9  1  0
  9  3  1  0
  1 10  1  0
  4 11  1  0
  4 12  1  0
  5 13  1  0
  6 14  1  0
  6 15  1  0
  7 16  1  0
  8 17  1  0
  8 18  1  0
  8 19  1  0
  9 20  1  0
  9 21  1  0
M  END
