
     RDKit          3D

 19 19  0  0  0  0  0  0  0  0999 V2000
    3.5748    2.4985   -2.4697 C   0  0  0  0  0  0  0  0  0  0  0  0
    2.6213    1.9425   -1.9117 C   0  0  0  0  0  0  0  0  0  0  0  0
    1.6932    1.3984   -1.3808 C   0  0  0  0  0  0  0  0  0  0  0  0
    0.6912    0.7923   -0.8204 C   0  0  0  0  0  0  0  0  0  0  0  0
   -0.2500    0.1990   -0.2832 C   0  0  0  0  0  0  0  0  0  0  0  0
   -0.7808    1.4201    0.7598 C   0  0  0  0  0  0  0  0  0  0  0  0
   -0.2907   -0.9081    0.7369 C   0  0  0  0  0  0  0  0  0  0  0  0
   -1.6705   -1.1955    1.2561 C   0  0  0  0  0  0  0  0  0  0  0  0
   -1.0792   -2.2086    0.3775 C   0  0  0  0  0  0  0  0  0  0  0  0
    4.6479    3.1024   -3.1092 H   0  0  0  0  0  0  0  0  0  0  0  0
   -1.3379    0.2370   -0.8220 H   0  0  0  0  0  0  0  0  0  0  0  0
   -1.6054    1.1011    1.1664 H   0  0  0  0  0  0  0  0  0  0  0  0
    0.2397    1.3120    1.4480 H   0  0  0  0  0  0  0  0  0  0  0  0
   -0.4460    2.2893    0.2154 H   0  0  0  0  0  0  0  0  0  0  0  0
    0.5700   -0.9874    1.4132 H   0  0  0  0  0  0  0  0  0  0  0  0
   -1.7813   -1.4534    2.3121 H   0  0  0  0  0  0  0  0  0  0  0  0
   -2.5876   -0.6576    0.8014 H   0  0  0  0  0  0  0  0  0  0  0  0
   -0.7512   -3.2193    0.9355 H   0  0  0  0  0  0  0  0  0  0  0  0
   -1.4575   -2.3515   -0.6252 H   0  0  0  0  0  0  0  0  0  0  0  0
  1  2  3  0
  2  3  1  0
  3  4  3  0
  4  5  1  0
  5  6  1  0
  5  7  1  0
  7  8  1  0
  8  9  1  0
  9  7  1  0
  1 10  1  0
  5 11  1  0
  6 12  1  0
  6 13  1  0
  6 14  1  0
  7 15  1  0
  8 16  1  0
  8 17  1  0
  9 18  1  0
  9 19  1  0
M  END
