
     RDKit          3D

 19 19  0  0  0  0  0  0  0  0999 V2000
   -2.2904    1.9248    0.6935 C   0  0  0  0  0  0  0  0  0  0  0  0
   -1.5805    0.6809    0.1858 C   0  0  0  0  0  0  0  0  0  0  0  0
   -1.0407   -0.2613   -0.1887 C   0  0  0  0  0  0  0  0  0  0  0  0
   -1.7976   -1.5786   -0.1968 C   0  0  0  0  0  0  0  0  0  0  0  0
   -0.2456   -0.7101    1.2042 O   0  0  0  0  0  0  0  0  0  0  0  0
    0.3588   -0.1350   -0.9214 C   0  0  0  0  0  0  0  0  0  0  0  0
    1.4391    0.5033    0.0490 C   0  0  0  0  0  0  0  0  0  0  0  0
    2.8304    0.5210   -0.3721 C   0  0  0  0  0  0  0  0  0  0  0  0
    2.1243    1.5506   -0.9036 O   0  0  0  0  0  0  0  0  0  0  0  0
   -2.8167    2.8333    1.0853 H   0  0  0  0  0  0  0  0  0  0  0  0
   -1.1589   -2.4140   -0.4486 H   0  0  0  0  0  0  0  0  0  0  0  0
   -2.1436   -1.6106    0.9300 H   0  0  0  0  0  0  0  0  0  0  0  0
   -2.7179   -1.4421   -0.7697 H   0  0  0  0  0  0  0  0  0  0  0  0
    0.1625   -1.5630    0.8265 H   0  0  0  0  0  0  0  0  0  0  0  0
    0.1999    0.8043   -1.6037 H   0  0  0  0  0  0  0  0  0  0  0  0
    0.7222   -0.9389   -1.3616 H   0  0  0  0  0  0  0  0  0  0  0  0
    1.0310    1.2859    0.7850 H   0  0  0  0  0  0  0  0  0  0  0  0
    3.2483   -0.2849   -1.0295 H   0  0  0  0  0  0  0  0  0  0  0  0
    3.6751    0.8342    0.3356 H   0  0  0  0  0  0  0  0  0  0  0  0
  1  2  3  0
  2  3  1  0
  3  4  1  0
  3  5  1  0
  3  6  1  0
  6  7  1  0
  7  8  1  0
  8  9  1  0
  9  7  1  0
  1 10  1  0
  4 11  1  0
  4 12  1  0
  4 13  1  0
  5 14  1  0
  6 15  1  0
  6 16  1  0
  7 17  1  0
  8 18  1  0
  8 19  1  0
M  END
