
     RDKit          3D

 17 17  0  0  0  0  0  0  0  0999 V2000
    2.5052   -0.3129   -1.3143 C   0  0  0  0  0  0  0  0  0  0  0  0
    1.4863   -0.6012   -0.7084 C   0  0  0  0  0  0  0  0  0  0  0  0
    0.2379   -0.9614    0.0074 C   0  0  0  0  0  0  0  0  0  0  0  0
    0.4383   -1.0963    1.4882 C   0  0  0  0  0  0  0  0  0  0  0  0
   -0.3254    0.0882    1.6426 O   0  0  0  0  0  0  0  0  0  0  0  0
   -0.5413    0.3305    0.3390 C   0  0  0  0  0  0  0  0  0  0  0  0
    0.0836    1.5402   -0.2973 C   0  0  0  0  0  0  0  0  0  0  0  0
   -1.9770    0.1658   -0.0947 C   0  0  0  0  0  0  0  0  0  0  0  0
   -2.9537    0.0557   -0.3866 C   0  0  0  0  0  0  0  0  0  0  0  0
    3.3953   -0.0690   -1.8258 H   0  0  0  0  0  0  0  0  0  0  0  0
   -0.3891   -1.7049   -0.4319 H   0  0  0  0  0  0  0  0  0  0  0  0
    1.5012   -0.9820    1.7749 H   0  0  0  0  0  0  0  0  0  0  0  0
   -0.0970   -1.9097    2.0080 H   0  0  0  0  0  0  0  0  0  0  0  0
   -0.5960    2.4256   -0.3717 H   0  0  0  0  0  0  0  0  0  0  0  0
    0.3436    1.2598   -1.3487 H   0  0  0  0  0  0  0  0  0  0  0  0
    1.0019    1.8289    0.2616 H   0  0  0  0  0  0  0  0  0  0  0  0
   -4.1137   -0.0572   -0.7425 H   0  0  0  0  0  0  0  0  0  0  0  0
  1  2  3  0
  2  3  1  0
  3  4  1  0
  4  5  1  0
  5  6  1  0
  6  7  1  0
  6  8  1  0
  8  9  3  0
  6  3  1  0
  1 10  1  0
  3 11  1  0
  4 12  1  0
  4 13  1  0
  7 14  1  0
  7 15  1  0
  7 16  1  0
  9 17  1  0
M  END
