
     RDKit          3D

 17 16  0  0  0  0  0  0  0  0999 V2000
   -0.8310    0.6683    2.4222 C   0  0  0  0  0  0  0  0  0  0  0  0
   -0.0901   -0.3489    1.5541 C   0  0  0  0  0  0  0  0  0  0  0  0
    0.5141   -1.1592    0.8787 C   0  0  0  0  0  0  0  0  0  0  0  0
    0.8228   -0.8475   -0.5816 C   0  0  0  0  0  0  0  0  0  0  0  0
    1.4658   -0.2072   -1.5942 C   0  0  0  0  0  0  0  0  0  0  0  0
    0.8268    0.5052   -2.4870 O   0  0  0  0  0  0  0  0  0  0  0  0
   -0.8351   -0.4701   -1.0371 C   0  0  0  0  0  0  0  0  0  0  0  0
   -0.9523    0.7677   -0.4253 C   0  0  0  0  0  0  0  0  0  0  0  0
   -1.0539    2.0143    0.1694 C   0  0  0  0  0  0  0  0  0  0  0  0
   -1.3432    1.3986    3.0464 H   0  0  0  0  0  0  0  0  0  0  0  0
   -0.1056   -2.1894    0.7215 H   0  0  0  0  0  0  0  0  0  0  0  0
    1.4661   -1.6668    1.3156 H   0  0  0  0  0  0  0  0  0  0  0  0
    0.7955    0.5144   -0.0559 H   0  0  0  0  0  0  0  0  0  0  0  0
    2.5362   -0.1339   -1.8670 H   0  0  0  0  0  0  0  0  0  0  0  0
   -1.3259   -1.3009   -0.5762 H   0  0  0  0  0  0  0  0  0  0  0  0
   -0.7759   -0.4797   -2.0988 H   0  0  0  0  0  0  0  0  0  0  0  0
   -1.1143    2.9350    0.6153 H   0  0  0  0  0  0  0  0  0  0  0  0
  1  2  3  0
  2  3  1  0
  3  4  1  0
  4  5  1  0
  5  6  2  0
  4  7  1  0
  7  8  1  0
  8  9  3  0
  1 10  1  0
  3 11  1  0
  3 12  1  0
  4 13  1  0
  5 14  1  0
  7 15  1  0
  7 16  1  0
  9 17  1  0
M  END
