
     RDKit          3D

 14 15  0  0  0  0  0  0  0  0999 V2000
    2.6742   -0.5322   -0.8139 C   0  0  0  0  0  0  0  0  0  0  0  0
    1.5648   -0.3022   -0.4374 C   0  0  0  0  0  0  0  0  0  0  0  0
    0.3321   -0.0429   -0.0074 C   0  0  0  0  0  0  0  0  0  0  0  0
   -0.5660    1.0561   -0.4747 C   0  0  0  0  0  0  0  0  0  0  0  0
   -1.3645    0.2872    0.5562 C   0  0  0  0  0  0  0  0  0  0  0  0
   -0.8561   -0.9537   -0.1223 C   0  0  0  0  0  0  0  0  0  0  0  0
   -0.1059    0.2518    1.3451 C   0  0  0  0  0  0  0  0  0  0  0  0
    0.1871    0.4129    2.5044 O   0  0  0  0  0  0  0  0  0  0  0  0
    3.6835   -0.7324   -1.1537 H   0  0  0  0  0  0  0  0  0  0  0  0
   -0.2108    2.0431   -0.1825 H   0  0  0  0  0  0  0  0  0  0  0  0
   -0.9678    0.9407   -1.4950 H   0  0  0  0  0  0  0  0  0  0  0  0
   -2.2849    0.4871    0.8805 H   0  0  0  0  0  0  0  0  0  0  0  0
   -0.7905   -1.8487    0.5156 H   0  0  0  0  0  0  0  0  0  0  0  0
   -1.2950   -1.0668   -1.1149 H   0  0  0  0  0  0  0  0  0  0  0  0
  1  2  3  0
  2  3  1  0
  3  4  1  0
  4  5  1  0
  5  6  1  0
  5  7  1  0
  7  8  2  0
  6  3  1  0
  7  3  1  0
  1  9  1  0
  4 10  1  0
  4 11  1  0
  5 12  1  0
  6 13  1  0
  6 14  1  0
M  END
