
     RDKit          3D

 21 21  0  0  0  0  0  0  0  0999 V2000
    2.9406    1.2673   -1.0223 C   0  0  0  0  0  0  0  0  0  0  0  0
    2.3699    0.2926   -0.5140 C   0  0  0  0  0  0  0  0  0  0  0  0
    1.7289   -0.8473    0.0803 C   0  0  0  0  0  0  0  0  0  0  0  0
    0.5518   -0.5072    0.9302 C   0  0  0  0  0  0  0  0  0  0  0  0
   -0.5799    0.1414    0.2466 C   0  0  0  0  0  0  0  0  0  0  0  0
   -1.7331    0.5100    1.1999 C   0  0  0  0  0  0  0  0  0  0  0  0
   -2.2220   -0.6360    1.7977 O   0  0  0  0  0  0  0  0  0  0  0  0
   -0.5023    0.7214   -1.0684 C   0  0  0  0  0  0  0  0  0  0  0  0
   -1.2051   -0.5865   -0.9681 C   0  0  0  0  0  0  0  0  0  0  0  0
    3.4414    2.1378   -1.4549 H   0  0  0  0  0  0  0  0  0  0  0  0
    1.4724   -1.5933   -0.7092 H   0  0  0  0  0  0  0  0  0  0  0  0
    2.5393   -1.3214    0.7281 H   0  0  0  0  0  0  0  0  0  0  0  0
    0.8780    0.0883    1.8421 H   0  0  0  0  0  0  0  0  0  0  0  0
    0.1479   -1.5101    1.3159 H   0  0  0  0  0  0  0  0  0  0  0  0
   -2.5120    1.0868    0.7165 H   0  0  0  0  0  0  0  0  0  0  0  0
   -1.2812    1.1456    2.0142 H   0  0  0  0  0  0  0  0  0  0  0  0
   -2.2696   -0.6278    2.7656 H   0  0  0  0  0  0  0  0  0  0  0  0
    0.3609    0.7064   -1.7194 H   0  0  0  0  0  0  0  0  0  0  0  0
   -1.1438    1.6259   -1.2394 H   0  0  0  0  0  0  0  0  0  0  0  0
   -0.7061   -1.5313   -1.1862 H   0  0  0  0  0  0  0  0  0  0  0  0
   -2.2760   -0.5625   -1.1314 H   0  0  0  0  0  0  0  0  0  0  0  0
  1  2  3  0
  2  3  1  0
  3  4  1  0
  4  5  1  0
  5  6  1  0
  6  7  1  0
  5  8  1  0
  8  9  1  0
  9  5  1  0
  1 10  1  0
  3 11  1  0
  3 12  1  0
  4 13  1  0
  4 14  1  0
  6 15  1  0
  6 16  1  0
  7 17  1  0
  8 18  1  0
  8 19  1  0
  9 20  1  0
  9 21  1  0
M  END
