
     RDKit          3D

 19 19  0  0  0  0  0  0  0  0999 V2000
    0.7541    0.9700   -2.7789 C   0  0  0  0  0  0  0  0  0  0  0  0
   -0.0669    0.7141   -1.4609 C   0  0  0  0  0  0  0  0  0  0  0  0
   -0.6354    0.5465   -0.5818 C   0  0  0  0  0  0  0  0  0  0  0  0
    0.1008    0.7110    0.8947 C   0  0  0  0  0  0  0  0  0  0  0  0
    1.1598   -0.0290    0.7147 O   0  0  0  0  0  0  0  0  0  0  0  0
    2.2004   -0.6207    0.9788 C   0  0  0  0  0  0  0  0  0  0  0  0
   -2.1327    0.4838   -0.2733 C   0  0  0  0  0  0  0  0  0  0  0  0
   -1.9296   -0.8502    0.3913 O   0  0  0  0  0  0  0  0  0  0  0  0
   -1.0813   -1.0642   -0.6026 C   0  0  0  0  0  0  0  0  0  0  0  0
    1.2029    1.1166   -3.4970 H   0  0  0  0  0  0  0  0  0  0  0  0
    0.2117    1.7567    1.0536 H   0  0  0  0  0  0  0  0  0  0  0  0
   -0.5898    0.1671    1.6109 H   0  0  0  0  0  0  0  0  0  0  0  0
    3.0933    0.0613    1.4126 H   0  0  0  0  0  0  0  0  0  0  0  0
    2.6602   -1.0910    0.0185 H   0  0  0  0  0  0  0  0  0  0  0  0
    2.1943   -1.4205    1.8212 H   0  0  0  0  0  0  0  0  0  0  0  0
   -2.5281    1.1205    0.5700 H   0  0  0  0  0  0  0  0  0  0  0  0
   -2.7496    0.2245   -1.0925 H   0  0  0  0  0  0  0  0  0  0  0  0
   -1.6637   -1.1099   -1.5960 H   0  0  0  0  0  0  0  0  0  0  0  0
   -0.2004   -1.6866   -0.6050 H   0  0  0  0  0  0  0  0  0  0  0  0
  1  2  3  0
  2  3  1  0
  3  4  1  0
  4  5  1  0
  5  6  1  0
  3  7  1  0
  7  8  1  0
  8  9  1  0
  9  3  1  0
  1 10  1  0
  4 11  1  0
  4 12  1  0
  6 13  1  0
  6 14  1  0
  6 15  1  0
  7 16  1  0
  7 17  1  0
  9 18  1  0
  9 19  1  0
M  END
