
     RDKit          3D

 21 20  0  0  0  0  0  0  0  0999 V2000
   -2.2162   -0.3141    2.2895 C   0  0  0  0  0  0  0  0  0  0  0  0
   -1.5984   -0.1015    1.3533 C   0  0  0  0  0  0  0  0  0  0  0  0
   -0.7492    0.1658    0.1002 C   0  0  0  0  0  0  0  0  0  0  0  0
   -0.9975   -1.0348   -0.7631 C   0  0  0  0  0  0  0  0  0  0  0  0
   -1.3205    1.3846   -0.4872 C   0  0  0  0  0  0  0  0  0  0  0  0
    0.6631    0.1749    0.6006 C   0  0  0  0  0  0  0  0  0  0  0  0
    1.6343    0.4236   -0.4532 C   0  0  0  0  0  0  0  0  0  0  0  0
    2.8253   -0.4938   -0.5643 C   0  0  0  0  0  0  0  0  0  0  0  0
    1.5355    1.3135   -1.2328 O   0  0  0  0  0  0  0  0  0  0  0  0
   -2.8395   -0.5139    3.2533 H   0  0  0  0  0  0  0  0  0  0  0  0
   -2.1181   -1.1361   -0.8445 H   0  0  0  0  0  0  0  0  0  0  0  0
   -0.5135   -0.9467   -1.7142 H   0  0  0  0  0  0  0  0  0  0  0  0
   -0.6717   -1.9897   -0.2528 H   0  0  0  0  0  0  0  0  0  0  0  0
   -2.2037    1.0554   -1.1380 H   0  0  0  0  0  0  0  0  0  0  0  0
   -0.6069    1.8751   -1.1731 H   0  0  0  0  0  0  0  0  0  0  0  0
   -1.7492    2.1391    0.2165 H   0  0  0  0  0  0  0  0  0  0  0  0
    0.8103    0.9521    1.4038 H   0  0  0  0  0  0  0  0  0  0  0  0
    0.7937   -0.8140    1.1330 H   0  0  0  0  0  0  0  0  0  0  0  0
    3.4399   -0.2471    0.3285 H   0  0  0  0  0  0  0  0  0  0  0  0
    3.3648   -0.3492   -1.5318 H   0  0  0  0  0  0  0  0  0  0  0  0
    2.5175   -1.5430   -0.5238 H   0  0  0  0  0  0  0  0  0  0  0  0
  1  2  3  0
  2  3  1  0
  3  4  1  0
  3  5  1  0
  3  6  1  0
  6  7  1  0
  7  8  1  0
  7  9  2  0
  1 10  1  0
  4 11  1  0
  4 12  1  0
  4 13  1  0
  5 14  1  0
  5 15  1  0
  5 16  1  0
  6 17  1  0
  6 18  1  0
  8 19  1  0
  8 20  1  0
  8 21  1  0
M  END
