
     RDKit          3D

 15 16  0  0  0  0  0  0  0  0999 V2000
   -0.1405    2.6056   -1.4477 C   0  0  0  0  0  0  0  0  0  0  0  0
    0.1738    1.3581   -0.7039 C   0  0  0  0  0  0  0  0  0  0  0  0
    0.4444    0.2921   -0.0670 C   0  0  0  0  0  0  0  0  0  0  0  0
    1.6916    0.1165    0.6538 C   0  0  0  0  0  0  0  0  0  0  0  0
    2.8712   -0.0735    1.3360 C   0  0  0  0  0  0  0  0  0  0  0  0
   -0.6329   -0.5084    0.6655 C   0  0  0  0  0  0  0  0  0  0  0  0
   -1.9086   -0.6490   -0.0179 C   0  0  0  0  0  0  0  0  0  0  0  0
   -1.2583   -1.2731   -1.1280 O   0  0  0  0  0  0  0  0  0  0  0  0
   -0.0031   -1.0524   -0.6049 C   0  0  0  0  0  0  0  0  0  0  0  0
   -0.3450    3.4760   -1.9533 H   0  0  0  0  0  0  0  0  0  0  0  0
    3.8204   -0.2352    1.9060 H   0  0  0  0  0  0  0  0  0  0  0  0
   -0.3949   -1.0805    1.5919 H   0  0  0  0  0  0  0  0  0  0  0  0
   -2.3529    0.3187   -0.2846 H   0  0  0  0  0  0  0  0  0  0  0  0
   -2.6196   -1.3357    0.5242 H   0  0  0  0  0  0  0  0  0  0  0  0
    0.6544   -1.9591   -0.4700 H   0  0  0  0  0  0  0  0  0  0  0  0
  1  2  3  0
  2  3  1  0
  3  4  1  0
  4  5  3  0
  3  6  1  0
  6  7  1  0
  7  8  1  0
  8  9  1  0
  9  3  1  0
  9  6  1  0
  1 10  1  0
  5 11  1  0
  6 12  1  0
  7 13  1  0
  7 14  1  0
  9 15  1  0
M  END
