
     RDKit          3D

 20 20  0  0  0  0  0  0  0  0999 V2000
    3.0199   -0.0361    0.0581 C   0  0  0  0  0  0  0  0  0  0  0  0
    1.9509    0.1437   -0.4618 C   0  0  0  0  0  0  0  0  0  0  0  0
    0.6495    0.3700   -1.1215 C   0  0  0  0  0  0  0  0  0  0  0  0
   -0.1577   -0.8920   -1.2882 C   0  0  0  0  0  0  0  0  0  0  0  0
   -1.2007   -0.2908   -0.3371 C   0  0  0  0  0  0  0  0  0  0  0  0
   -1.4180   -1.1935    0.8154 C   0  0  0  0  0  0  0  0  0  0  0  0
   -0.3942    0.9281   -0.1956 C   0  0  0  0  0  0  0  0  0  0  0  0
    0.0598    1.3666    1.1470 C   0  0  0  0  0  0  0  0  0  0  0  0
    3.9756   -0.2088    0.5077 H   0  0  0  0  0  0  0  0  0  0  0  0
    0.7504    0.8734   -2.1047 H   0  0  0  0  0  0  0  0  0  0  0  0
    0.3816   -1.7585   -0.8681 H   0  0  0  0  0  0  0  0  0  0  0  0
   -0.5304   -1.1007   -2.2907 H   0  0  0  0  0  0  0  0  0  0  0  0
   -2.1715   -0.1614   -0.9032 H   0  0  0  0  0  0  0  0  0  0  0  0
   -2.4481   -1.0159    1.2432 H   0  0  0  0  0  0  0  0  0  0  0  0
   -1.4827   -2.2482    0.4131 H   0  0  0  0  0  0  0  0  0  0  0  0
   -0.6576   -1.2064    1.5825 H   0  0  0  0  0  0  0  0  0  0  0  0
   -0.8976    1.7988   -0.7165 H   0  0  0  0  0  0  0  0  0  0  0  0
   -0.6979    2.0547    1.5852 H   0  0  0  0  0  0  0  0  0  0  0  0
    0.9992    1.9889    1.0661 H   0  0  0  0  0  0  0  0  0  0  0  0
    0.2694    0.5879    1.8691 H   0  0  0  0  0  0  0  0  0  0  0  0
  1  2  3  0
  2  3  1  0
  3  4  1  0
  4  5  1  0
  5  6  1  0
  5  7  1  0
  7  8  1  0
  7  3  1  0
  1  9  1  0
  3 10  1  0
  4 11  1  0
  4 12  1  0
  5 13  1  0
  6 14  1  0
  6 15  1  0
  6 16  1  0
  7 17  1  0
  8 18  1  0
  8 19  1  0
  8 20  1  0
M  END
