
     RDKit          3D

 17 18  0  0  0  0  0  0  0  0999 V2000
    3.0752    0.9182   -1.1036 C   0  0  0  0  0  0  0  0  0  0  0  0
    1.9471    0.6931   -0.7551 C   0  0  0  0  0  0  0  0  0  0  0  0
    0.5608    0.4263   -0.3521 C   0  0  0  0  0  0  0  0  0  0  0  0
    0.3938    0.6227    1.1383 C   0  0  0  0  0  0  0  0  0  0  0  0
   -0.5662   -0.2036    1.5031 C   0  0  0  0  0  0  0  0  0  0  0  0
   -1.0359   -0.9206    0.3423 C   0  0  0  0  0  0  0  0  0  0  0  0
   -2.1318   -0.1762   -0.3917 C   0  0  0  0  0  0  0  0  0  0  0  0
   -0.6020   -1.9097   -0.3843 O   0  0  0  0  0  0  0  0  0  0  0  0
    0.3633   -1.0456   -0.3366 C   0  0  0  0  0  0  0  0  0  0  0  0
    4.0753    1.1014   -1.4212 H   0  0  0  0  0  0  0  0  0  0  0  0
   -0.0854    1.0399   -0.9500 H   0  0  0  0  0  0  0  0  0  0  0  0
    0.9288    1.2823    1.7698 H   0  0  0  0  0  0  0  0  0  0  0  0
   -0.9274   -0.3108    2.5130 H   0  0  0  0  0  0  0  0  0  0  0  0
   -2.3868    0.7915    0.0240 H   0  0  0  0  0  0  0  0  0  0  0  0
   -3.0313   -0.8427   -0.5251 H   0  0  0  0  0  0  0  0  0  0  0  0
   -1.7557    0.0025   -1.4196 H   0  0  0  0  0  0  0  0  0  0  0  0
    1.1782   -1.4689    0.3489 H   0  0  0  0  0  0  0  0  0  0  0  0
  1  2  3  0
  2  3  1  0
  3  4  1  0
  4  5  2  0
  5  6  1  0
  6  7  1  0
  6  8  1  0
  8  9  1  0
  9  3  1  0
  9  6  1  0
  1 10  1  0
  3 11  1  0
  4 12  1  0
  5 13  1  0
  7 14  1  0
  7 15  1  0
  7 16  1  0
  9 17  1  0
M  END
