
     RDKit          3D

 13 13  0  0  0  0  0  0  0  0999 V2000
    4.1104   -0.4186    0.4166 C   0  0  0  0  0  0  0  0  0  0  0  0
    2.9950   -0.5272    0.2400 C   0  0  0  0  0  0  0  0  0  0  0  0
    1.5626   -0.6521    0.0352 C   0  0  0  0  0  0  0  0  0  0  0  0
    0.2896   -0.7815   -0.1345 C   0  0  0  0  0  0  0  0  0  0  0  0
   -1.0616   -0.9328   -0.2951 C   0  0  0  0  0  0  0  0  0  0  0  0
   -1.5422   -0.2738   -1.4866 O   0  0  0  0  0  0  0  0  0  0  0  0
   -1.9371    0.2041   -0.1910 C   0  0  0  0  0  0  0  0  0  0  0  0
   -1.6819    1.5509    0.2425 C   0  0  0  0  0  0  0  0  0  0  0  0
   -2.6622    2.1463    0.8520 O   0  0  0  0  0  0  0  0  0  0  0  0
    5.2738   -0.3070    0.5984 H   0  0  0  0  0  0  0  0  0  0  0  0
   -1.5003   -2.0161   -0.3554 H   0  0  0  0  0  0  0  0  0  0  0  0
   -3.0503   -0.1028   -0.0285 H   0  0  0  0  0  0  0  0  0  0  0  0
   -0.7959    2.1106    0.1066 H   0  0  0  0  0  0  0  0  0  0  0  0
  1  2  3  0
  2  3  1  0
  3  4  3  0
  4  5  1  0
  5  6  1  0
  6  7  1  0
  7  8  1  0
  8  9  2  0
  7  5  1  0
  1 10  1  0
  5 11  1  0
  7 12  1  0
  8 13  1  0
M  END
