
     RDKit          3D

 17 16  0  0  0  0  0  0  0  0999 V2000
    1.4525   -2.8854   -0.3341 C   0  0  0  0  0  0  0  0  0  0  0  0
    1.1420   -1.5521    0.2972 C   0  0  0  0  0  0  0  0  0  0  0  0
    0.8918   -0.4690    0.8220 C   0  0  0  0  0  0  0  0  0  0  0  0
    0.9519   -0.0370    2.0778 O   0  0  0  0  0  0  0  0  0  0  0  0
   -0.4765    0.1468    0.1519 C   0  0  0  0  0  0  0  0  0  0  0  0
   -0.9250    1.1484    0.5582 C   0  0  0  0  0  0  0  0  0  0  0  0
   -1.4597    2.3671    1.0738 C   0  0  0  0  0  0  0  0  0  0  0  0
   -0.1824    0.0173   -1.3609 C   0  0  0  0  0  0  0  0  0  0  0  0
   -1.2005    0.5648   -2.0993 O   0  0  0  0  0  0  0  0  0  0  0  0
    1.6180   -3.6018   -0.6874 H   0  0  0  0  0  0  0  0  0  0  0  0
    1.6235    0.4191    0.2305 H   0  0  0  0  0  0  0  0  0  0  0  0
    0.6818    0.9813    1.9761 H   0  0  0  0  0  0  0  0  0  0  0  0
   -1.1527   -0.8320    0.3970 H   0  0  0  0  0  0  0  0  0  0  0  0
   -1.8605    3.3099    1.4659 H   0  0  0  0  0  0  0  0  0  0  0  0
   -0.0296   -1.0408   -1.6163 H   0  0  0  0  0  0  0  0  0  0  0  0
    0.8207    0.5401   -1.5011 H   0  0  0  0  0  0  0  0  0  0  0  0
   -1.8953    0.9231   -1.4512 H   0  0  0  0  0  0  0  0  0  0  0  0
  1  2  3  0
  2  3  1  0
  3  4  1  0
  3  5  1  0
  5  6  1  0
  6  7  3  0
  5  8  1  0
  8  9  1  0
  1 10  1  0
  3 11  1  0
  4 12  1  0
  5 13  1  0
  7 14  1  0
  8 15  1  0
  8 16  1  0
  9 17  1  0
M  END
