
     RDKit          3D

 17 16  0  0  0  0  0  0  0  0999 V2000
    2.3788   -1.1259    0.5430 C   0  0  0  0  0  0  0  0  0  0  0  0
    1.5990   -0.2984    0.1254 C   0  0  0  0  0  0  0  0  0  0  0  0
    0.6423    0.7039   -0.3717 C   0  0  0  0  0  0  0  0  0  0  0  0
    0.7364    1.8994    0.3591 O   0  0  0  0  0  0  0  0  0  0  0  0
   -0.7368    0.0918   -0.2012 C   0  0  0  0  0  0  0  0  0  0  0  0
   -1.0343   -0.1619    1.2598 C   0  0  0  0  0  0  0  0  0  0  0  0
   -1.6500    1.0287   -0.6778 O   0  0  0  0  0  0  0  0  0  0  0  0
   -0.8394   -1.1212   -1.0249 C   0  0  0  0  0  0  0  0  0  0  0  0
   -0.1146   -2.0991   -0.7835 O   0  0  0  0  0  0  0  0  0  0  0  0
    3.0693   -1.8445    0.9258 H   0  0  0  0  0  0  0  0  0  0  0  0
    0.7856    0.9214   -1.4477 H   0  0  0  0  0  0  0  0  0  0  0  0
    1.3499    2.5488   -0.0812 H   0  0  0  0  0  0  0  0  0  0  0  0
   -0.3151   -0.8900    1.6919 H   0  0  0  0  0  0  0  0  0  0  0  0
   -2.0481   -0.5922    1.3335 H   0  0  0  0  0  0  0  0  0  0  0  0
   -0.9424    0.8253    1.7726 H   0  0  0  0  0  0  0  0  0  0  0  0
   -1.3387    1.2963   -1.5747 H   0  0  0  0  0  0  0  0  0  0  0  0
   -1.5420   -1.1824   -1.8485 H   0  0  0  0  0  0  0  0  0  0  0  0
  1  2  3  0
  2  3  1  0
  3  4  1  0
  3  5  1  0
  5  6  1  0
  5  7  1  0
  5  8  1  0
  8  9  2  0
  1 10  1  0
  3 11  1  0
  4 12  1  0
  6 13  1  0
  6 14  1  0
  6 15  1  0
  7 16  1  0
  8 17  1  0
M  END
