
     RDKit          3D

 17 17  0  0  0  0  0  0  0  0999 V2000
    2.2753   -0.4144   -0.9796 C   0  0  0  0  0  0  0  0  0  0  0  0
    1.4222   -0.4583    0.1941 C   0  0  0  0  0  0  0  0  0  0  0  0
    0.6768   -0.5099    1.2188 C   0  0  0  0  0  0  0  0  0  0  0  0
   -0.4677   -0.1126    1.9023 C   0  0  0  0  0  0  0  0  0  0  0  0
   -0.8187    0.2589    0.4384 C   0  0  0  0  0  0  0  0  0  0  0  0
   -0.2800    1.2945    0.0825 C   0  0  0  0  0  0  0  0  0  0  0  0
    0.2819    2.3422   -0.2875 C   0  0  0  0  0  0  0  0  0  0  0  0
   -1.1111   -0.7361   -0.7061 C   0  0  0  0  0  0  0  0  0  0  0  0
   -1.5832    0.2087   -1.6090 O   0  0  0  0  0  0  0  0  0  0  0  0
    2.9694   -0.3777   -1.9521 H   0  0  0  0  0  0  0  0  0  0  0  0
    0.1773   -1.8481    0.8741 H   0  0  0  0  0  0  0  0  0  0  0  0
   -0.8440   -1.1553    2.5180 H   0  0  0  0  0  0  0  0  0  0  0  0
   -0.4141    0.4801    2.7962 H   0  0  0  0  0  0  0  0  0  0  0  0
    1.0956    3.8758   -0.7957 H   0  0  0  0  0  0  0  0  0  0  0  0
   -0.3801   -1.5205   -0.8832 H   0  0  0  0  0  0  0  0  0  0  0  0
   -2.0416   -1.2976   -0.2940 H   0  0  0  0  0  0  0  0  0  0  0  0
   -0.9578   -0.0295   -2.5172 H   0  0  0  0  0  0  0  0  0  0  0  0
  1  2  3  0
  2  3  1  0
  3  4  1  0
  4  5  1  0
  5  6  1  0
  6  7  3  0
  5  8  1  0
  8  9  1  0
  5  3  1  0
  1 10  1  0
  3 11  1  0
  4 12  1  0
  4 13  1  0
  7 14  1  0
  8 15  1  0
  8 16  1  0
  9 17  1  0
M  END
