
     RDKit          3D

 17 18  0  0  0  0  0  0  0  0999 V2000
    2.8878    1.3454   -0.6142 C   0  0  0  0  0  0  0  0  0  0  0  0
    1.9264    0.7470   -0.1977 C   0  0  0  0  0  0  0  0  0  0  0  0
    0.7524    0.0125    0.3299 C   0  0  0  0  0  0  0  0  0  0  0  0
    0.8684   -0.2649    1.6761 O   0  0  0  0  0  0  0  0  0  0  0  0
    0.4130   -1.1500   -0.5511 C   0  0  0  0  0  0  0  0  0  0  0  0
   -0.8863   -0.4951   -0.9379 C   0  0  0  0  0  0  0  0  0  0  0  0
   -1.8055   -0.0816    0.1466 C   0  0  0  0  0  0  0  0  0  0  0  0
   -1.9519   -0.8663    1.2900 O   0  0  0  0  0  0  0  0  0  0  0  0
   -0.5619    0.6786   -0.0004 C   0  0  0  0  0  0  0  0  0  0  0  0
    3.7394    1.8674   -0.9716 H   0  0  0  0  0  0  0  0  0  0  0  0
    0.4385    0.4788    2.1734 H   0  0  0  0  0  0  0  0  0  0  0  0
    0.2272   -2.0853    0.0241 H   0  0  0  0  0  0  0  0  0  0  0  0
    1.1009   -1.3309   -1.4022 H   0  0  0  0  0  0  0  0  0  0  0  0
   -1.0994   -0.2892   -1.9879 H   0  0  0  0  0  0  0  0  0  0  0  0
   -2.7409    0.4251   -0.1978 H   0  0  0  0  0  0  0  0  0  0  0  0
   -2.7799   -0.6538    1.7695 H   0  0  0  0  0  0  0  0  0  0  0  0
   -0.5282    1.6626   -0.5490 H   0  0  0  0  0  0  0  0  0  0  0  0
  1  2  3  0
  2  3  1  0
  3  4  1  0
  3  5  1  0
  5  6  1  0
  6  7  1  0
  7  8  1  0
  7  9  1  0
  9  3  1  0
  9  6  1  0
  1 10  1  0
  4 11  1  0
  5 12  1  0
  5 13  1  0
  6 14  1  0
  7 15  1  0
  8 16  1  0
  9 17  1  0
M  END
