
     RDKit          3D

 17 17  0  0  0  0  0  0  0  0999 V2000
    3.1406    1.5937   -0.4608 C   0  0  0  0  0  0  0  0  0  0  0  0
    2.4441    0.7515    0.0514 C   0  0  0  0  0  0  0  0  0  0  0  0
    1.6210   -0.2428    0.6628 C   0  0  0  0  0  0  0  0  0  0  0  0
    2.0275   -0.7505    1.7299 O   0  0  0  0  0  0  0  0  0  0  0  0
    0.3354   -0.6902    0.1023 C   0  0  0  0  0  0  0  0  0  0  0  0
   -0.8274   -0.4773    1.0357 C   0  0  0  0  0  0  0  0  0  0  0  0
   -1.9578   -0.3531    0.0064 C   0  0  0  0  0  0  0  0  0  0  0  0
   -1.2346    0.3401   -1.1163 C   0  0  0  0  0  0  0  0  0  0  0  0
    0.0898   -0.0078   -1.0581 O   0  0  0  0  0  0  0  0  0  0  0  0
    3.7702    2.3279   -0.9068 H   0  0  0  0  0  0  0  0  0  0  0  0
    0.3598   -1.7848   -0.1509 H   0  0  0  0  0  0  0  0  0  0  0  0
   -0.9821   -1.4100    1.6273 H   0  0  0  0  0  0  0  0  0  0  0  0
   -0.7384    0.4163    1.6616 H   0  0  0  0  0  0  0  0  0  0  0  0
   -2.8001    0.2072    0.4125 H   0  0  0  0  0  0  0  0  0  0  0  0
   -2.2030   -1.3884   -0.3146 H   0  0  0  0  0  0  0  0  0  0  0  0
   -1.3999    1.4506   -1.0310 H   0  0  0  0  0  0  0  0  0  0  0  0
   -1.6451    0.0178   -2.1135 H   0  0  0  0  0  0  0  0  0  0  0  0
  1  2  3  0
  2  3  1  0
  3  4  2  0
  3  5  1  0
  5  6  1  0
  6  7  1  0
  7  8  1  0
  8  9  1  0
  9  5  1  0
  1 10  1  0
  5 11  1  0
  6 12  1  0
  6 13  1  0
  7 14  1  0
  7 15  1  0
  8 16  1  0
  8 17  1  0
M  END
