
     RDKit          3D

 17 18  0  0  0  0  0  0  0  0999 V2000
    1.7395    2.1525   -0.1343 C   0  0  0  0  0  0  0  0  0  0  0  0
    1.7822    0.7110    0.0778 C   0  0  0  0  0  0  0  0  0  0  0  0
    1.7993   -0.4445    0.2502 C   0  0  0  0  0  0  0  0  0  0  0  0
    0.3656   -1.1417   -0.0301 C   0  0  0  0  0  0  0  0  0  0  0  0
   -0.5884   -0.3019    0.7756 C   0  0  0  0  0  0  0  0  0  0  0  0
   -1.8946   -0.1221    0.6164 O   0  0  0  0  0  0  0  0  0  0  0  0
   -1.5232    0.6187   -0.5666 C   0  0  0  0  0  0  0  0  0  0  0  0
   -0.6614   -0.6455   -0.7769 C   0  0  0  0  0  0  0  0  0  0  0  0
   -1.7337   -1.6948   -0.9488 O   0  0  0  0  0  0  0  0  0  0  0  0
    1.7014    3.2238   -0.3075 H   0  0  0  0  0  0  0  0  0  0  0  0
    1.7576   -0.6521    1.5097 H   0  0  0  0  0  0  0  0  0  0  0  0
    2.6109   -1.2196    0.1718 H   0  0  0  0  0  0  0  0  0  0  0  0
    0.4130   -2.1665    0.5592 H   0  0  0  0  0  0  0  0  0  0  0  0
   -0.1226    0.7619    0.8978 H   0  0  0  0  0  0  0  0  0  0  0  0
   -2.4219    0.6446   -1.2635 H   0  0  0  0  0  0  0  0  0  0  0  0
   -0.9844    1.5415   -0.4451 H   0  0  0  0  0  0  0  0  0  0  0  0
   -2.2393   -1.2655   -1.7077 H   0  0  0  0  0  0  0  0  0  0  0  0
  1  2  3  0
  2  3  1  0
  3  4  1  0
  4  5  1  0
  5  6  1  0
  6  7  1  0
  7  8  1  0
  8  9  1  0
  8  4  1  0
  8  5  1  0
  1 10  1  0
  3 11  1  0
  3 12  1  0
  4 13  1  0
  5 14  1  0
  7 15  1  0
  7 16  1  0
  9 17  1  0
M  END
