
     RDKit          3D

 19 20  0  0  0  0  0  0  0  0999 V2000
    2.7648   -1.3936   -1.3007 C   0  0  0  0  0  0  0  0  0  0  0  0
    1.3566   -0.6207   -1.0213 C   0  0  0  0  0  0  0  0  0  0  0  0
    0.4306   -0.1240   -0.8391 C   0  0  0  0  0  0  0  0  0  0  0  0
    0.7807   -0.0850    0.9674 C   0  0  0  0  0  0  0  0  0  0  0  0
   -0.0643    1.1248    1.1000 C   0  0  0  0  0  0  0  0  0  0  0  0
   -1.3433    1.2306    0.3258 C   0  0  0  0  0  0  0  0  0  0  0  0
   -2.4359    0.5209    0.8785 O   0  0  0  0  0  0  0  0  0  0  0  0
   -1.9032    0.0314   -0.2930 C   0  0  0  0  0  0  0  0  0  0  0  0
   -0.8456   -1.0181   -0.4603 C   0  0  0  0  0  0  0  0  0  0  0  0
    3.9921   -2.0512   -1.5275 H   0  0  0  0  0  0  0  0  0  0  0  0
    0.3194    0.9879   -0.8109 H   0  0  0  0  0  0  0  0  0  0  0  0
    1.8181   -0.1413    0.9182 H   0  0  0  0  0  0  0  0  0  0  0  0
    0.4103   -1.0654    1.2119 H   0  0  0  0  0  0  0  0  0  0  0  0
    0.5782    1.9506    0.5243 H   0  0  0  0  0  0  0  0  0  0  0  0
   -0.1125    1.6099    2.0994 H   0  0  0  0  0  0  0  0  0  0  0  0
   -1.5728    2.1801   -0.1917 H   0  0  0  0  0  0  0  0  0  0  0  0
   -2.4943    0.1336   -1.2069 H   0  0  0  0  0  0  0  0  0  0  0  0
   -0.9774   -1.9218   -1.0067 H   0  0  0  0  0  0  0  0  0  0  0  0
   -0.7014   -1.3487    0.6326 H   0  0  0  0  0  0  0  0  0  0  0  0
  1  2  3  0
  2  3  1  0
  3  4  1  0
  4  5  1  0
  5  6  1  0
  6  7  1  0
  7  8  1  0
  8  9  1  0
  9  3  1  0
  8  6  1  0
  1 10  1  0
  3 11  1  0
  4 12  1  0
  4 13  1  0
  5 14  1  0
  5 15  1  0
  6 16  1  0
  8 17  1  0
  9 18  1  0
  9 19  1  0
M  END
