
     RDKit          3D

 21 20  0  0  0  0  0  0  0  0999 V2000
   -0.3874    2.1505    1.4323 C   0  0  0  0  0  0  0  0  0  0  0  0
   -0.6567    1.1128    0.5443 C   0  0  0  0  0  0  0  0  0  0  0  0
   -0.9096    0.0869   -0.3058 C   0  0  0  0  0  0  0  0  0  0  0  0
   -2.3166   -0.3288   -0.5256 C   0  0  0  0  0  0  0  0  0  0  0  0
   -0.6571    0.9045   -1.7227 C   0  0  0  0  0  0  0  0  0  0  0  0
   -0.0775   -0.9785   -0.3987 O   0  0  0  0  0  0  0  0  0  0  0  0
    1.2704   -0.9430   -0.3074 C   0  0  0  0  0  0  0  0  0  0  0  0
    1.6765   -0.9855    1.1630 C   0  0  0  0  0  0  0  0  0  0  0  0
    3.0036   -0.9602    1.4429 O   0  0  0  0  0  0  0  0  0  0  0  0
   -0.2091    2.8759    2.0606 H   0  0  0  0  0  0  0  0  0  0  0  0
   -2.6534    0.0022   -1.5773 H   0  0  0  0  0  0  0  0  0  0  0  0
   -2.3224   -1.4338   -0.4827 H   0  0  0  0  0  0  0  0  0  0  0  0
   -2.9259    0.1108    0.2625 H   0  0  0  0  0  0  0  0  0  0  0  0
   -0.8140    1.9897   -1.4025 H   0  0  0  0  0  0  0  0  0  0  0  0
   -1.3477    0.5146   -2.4078 H   0  0  0  0  0  0  0  0  0  0  0  0
    0.3864    0.8040   -1.9929 H   0  0  0  0  0  0  0  0  0  0  0  0
    1.6775   -1.8230   -0.8042 H   0  0  0  0  0  0  0  0  0  0  0  0
    1.7112   -0.0065   -0.7380 H   0  0  0  0  0  0  0  0  0  0  0  0
    1.1483   -0.1668    1.7038 H   0  0  0  0  0  0  0  0  0  0  0  0
    1.2653   -1.9465    1.6043 H   0  0  0  0  0  0  0  0  0  0  0  0
    3.1382   -0.9793    2.4519 H   0  0  0  0  0  0  0  0  0  0  0  0
  1  2  3  0
  2  3  1  0
  3  4  1  0
  3  5  1  0
  3  6  1  0
  6  7  1  0
  7  8  1  0
  8  9  1  0
  1 10  1  0
  4 11  1  0
  4 12  1  0
  4 13  1  0
  5 14  1  0
  5 15  1  0
  5 16  1  0
  7 17  1  0
  7 18  1  0
  8 19  1  0
  8 20  1  0
  9 21  1  0
M  END
