
     RDKit          3D

 20 19  0  0  0  0  0  0  0  0999 V2000
   -0.7000    1.9964    1.4327 C   0  0  0  0  0  0  0  0  0  0  0  0
   -0.4551    0.9322    0.8820 C   0  0  0  0  0  0  0  0  0  0  0  0
   -0.1843   -0.3445    0.2168 C   0  0  0  0  0  0  0  0  0  0  0  0
   -1.2529   -0.6743   -0.8114 C   0  0  0  0  0  0  0  0  0  0  0  0
   -2.6132   -0.7809   -0.2009 C   0  0  0  0  0  0  0  0  0  0  0  0
    1.1228   -0.2187   -0.5581 C   0  0  0  0  0  0  0  0  0  0  0  0
    2.2706    0.1155    0.3829 C   0  0  0  0  0  0  0  0  0  0  0  0
    3.4202    0.2125   -0.3988 O   0  0  0  0  0  0  0  0  0  0  0  0
   -0.9177    2.9216    1.8971 H   0  0  0  0  0  0  0  0  0  0  0  0
   -0.1281   -1.1661    0.9408 H   0  0  0  0  0  0  0  0  0  0  0  0
   -0.9789   -1.6755   -1.2210 H   0  0  0  0  0  0  0  0  0  0  0  0
   -1.1942    0.0980   -1.5881 H   0  0  0  0  0  0  0  0  0  0  0  0
   -3.1796   -1.5443   -0.7458 H   0  0  0  0  0  0  0  0  0  0  0  0
   -2.5372   -0.9787    0.8863 H   0  0  0  0  0  0  0  0  0  0  0  0
   -3.1266    0.1946   -0.3050 H   0  0  0  0  0  0  0  0  0  0  0  0
    1.3570   -1.1787   -1.0260 H   0  0  0  0  0  0  0  0  0  0  0  0
    1.0255    0.5676   -1.3053 H   0  0  0  0  0  0  0  0  0  0  0  0
    2.3697   -0.6955    1.1518 H   0  0  0  0  0  0  0  0  0  0  0  0
    2.1208    1.0448    0.9332 H   0  0  0  0  0  0  0  0  0  0  0  0
    3.5813    1.1739   -0.5630 H   0  0  0  0  0  0  0  0  0  0  0  0
  1  2  3  0
  2  3  1  0
  3  4  1  0
  4  5  1  0
  3  6  1  0
  6  7  1  0
  7  8  1  0
  1  9  1  0
  3 10  1  0
  4 11  1  0
  4 12  1  0
  5 13  1  0
  5 14  1  0
  5 15  1  0
  6 16  1  0
  6 17  1  0
  7 18  1  0
  7 19  1  0
  8 20  1  0
M  END
