
     RDKit          3D

 21 22  0  0  0  0  0  0  0  0999 V2000
    3.0451    1.0724   -0.2345 C   0  0  0  0  0  0  0  0  0  0  0  0
    2.2281    0.2904    0.2208 C   0  0  0  0  0  0  0  0  0  0  0  0
    1.2567   -0.6714    0.7595 C   0  0  0  0  0  0  0  0  0  0  0  0
    0.6416   -1.4697   -0.3704 C   0  0  0  0  0  0  0  0  0  0  0  0
   -0.5790   -0.7092   -0.8131 C   0  0  0  0  0  0  0  0  0  0  0  0
   -0.9491    0.2250    0.2924 C   0  0  0  0  0  0  0  0  0  0  0  0
   -2.4195    0.2529    0.7081 C   0  0  0  0  0  0  0  0  0  0  0  0
   -0.1560    1.4198    0.6129 C   0  0  0  0  0  0  0  0  0  0  0  0
    0.1010    0.1153    1.3314 C   0  0  0  0  0  0  0  0  0  0  0  0
    3.7454    1.7673   -0.6278 H   0  0  0  0  0  0  0  0  0  0  0  0
    1.7758   -1.2882    1.4992 H   0  0  0  0  0  0  0  0  0  0  0  0
    0.3527   -2.4900   -0.0212 H   0  0  0  0  0  0  0  0  0  0  0  0
    1.3029   -1.6004   -1.2284 H   0  0  0  0  0  0  0  0  0  0  0  0
   -0.4271   -0.2068   -1.7946 H   0  0  0  0  0  0  0  0  0  0  0  0
   -1.4279   -1.4328   -0.9550 H   0  0  0  0  0  0  0  0  0  0  0  0
   -2.6327   -0.7074    1.2096 H   0  0  0  0  0  0  0  0  0  0  0  0
   -2.5781    1.1011    1.4109 H   0  0  0  0  0  0  0  0  0  0  0  0
   -3.0305    0.3768   -0.2144 H   0  0  0  0  0  0  0  0  0  0  0  0
   -0.6103    2.2032    1.2270 H   0  0  0  0  0  0  0  0  0  0  0  0
    0.5987    1.7926   -0.1033 H   0  0  0  0  0  0  0  0  0  0  0  0
   -0.2377   -0.0408    2.3530 H   0  0  0  0  0  0  0  0  0  0  0  0
  1  2  3  0
  2  3  1  0
  3  4  1  0
  4  5  1  0
  5  6  1  0
  6  7  1  0
  6  8  1  0
  8  9  1  0
  9  3  1  0
  9  6  1  0
  1 10  1  0
  3 11  1  0
  4 12  1  0
  4 13  1  0
  5 14  1  0
  5 15  1  0
  7 16  1  0
  7 17  1  0
  7 18  1  0
  8 19  1  0
  8 20  1  0
  9 21  1  0
M  END
