
     RDKit          3D

 18 17  0  0  0  0  0  0  0  0999 V2000
    1.5954    2.6913    1.0760 C   0  0  0  0  0  0  0  0  0  0  0  0
    1.2715    1.5117    0.7117 C   0  0  0  0  0  0  0  0  0  0  0  0
    0.9369    0.3621    0.3586 C   0  0  0  0  0  0  0  0  0  0  0  0
   -0.1217   -0.5192   -0.0107 C   0  0  0  0  0  0  0  0  0  0  0  0
   -1.1850   -0.8138    1.0200 C   0  0  0  0  0  0  0  0  0  0  0  0
    0.5693   -1.8381   -0.1602 O   0  0  0  0  0  0  0  0  0  0  0  0
   -0.6287   -0.3354   -1.4281 C   0  0  0  0  0  0  0  0  0  0  0  0
   -1.4480    0.8020   -1.5000 O   0  0  0  0  0  0  0  0  0  0  0  0
    1.8764    3.7914    1.4183 H   0  0  0  0  0  0  0  0  0  0  0  0
    1.7158   -0.4028    1.0351 H   0  0  0  0  0  0  0  0  0  0  0  0
    1.7046    0.1128   -0.6647 H   0  0  0  0  0  0  0  0  0  0  0  0
   -2.1976   -0.4940    0.6010 H   0  0  0  0  0  0  0  0  0  0  0  0
   -1.2737   -1.9063    1.1529 H   0  0  0  0  0  0  0  0  0  0  0  0
   -1.0459   -0.3109    1.9999 H   0  0  0  0  0  0  0  0  0  0  0  0
    1.0811   -1.8995    0.7216 H   0  0  0  0  0  0  0  0  0  0  0  0
    0.2990   -0.2055   -2.1042 H   0  0  0  0  0  0  0  0  0  0  0  0
   -1.1697   -1.2004   -1.8289 H   0  0  0  0  0  0  0  0  0  0  0  0
   -1.9799    0.6548   -2.3983 H   0  0  0  0  0  0  0  0  0  0  0  0
  1  2  3  0
  2  3  1  0
  3  4  1  0
  4  5  1  0
  4  6  1  0
  4  7  1  0
  7  8  1  0
  1  9  1  0
  3 10  1  0
  3 11  1  0
  5 12  1  0
  5 13  1  0
  5 14  1  0
  6 15  1  0
  7 16  1  0
  7 17  1  0
  8 18  1  0
M  END
