
     RDKit          3D

 17 17  0  0  0  0  0  0  0  0999 V2000
    2.8373    0.9714    1.0792 C   0  0  0  0  0  0  0  0  0  0  0  0
    2.4700   -0.0292    0.3782 C   0  0  0  0  0  0  0  0  0  0  0  0
    2.0989   -1.0929   -0.3462 C   0  0  0  0  0  0  0  0  0  0  0  0
    0.7150   -0.6997   -1.0925 C   0  0  0  0  0  0  0  0  0  0  0  0
    0.4784   -0.9984   -2.2696 O   0  0  0  0  0  0  0  0  0  0  0  0
   -0.0793   -0.0508   -0.2964 O   0  0  0  0  0  0  0  0  0  0  0  0
   -1.2861    0.5419   -0.2665 C   0  0  0  0  0  0  0  0  0  0  0  0
   -1.8926    1.0711    1.0116 C   0  0  0  0  0  0  0  0  0  0  0  0
   -2.2527   -0.3389    0.6339 C   0  0  0  0  0  0  0  0  0  0  0  0
    3.1272    1.8109    1.6705 H   0  0  0  0  0  0  0  0  0  0  0  0
    2.7446   -1.4977   -1.1949 H   0  0  0  0  0  0  0  0  0  0  0  0
    1.7393   -1.9898    0.2933 H   0  0  0  0  0  0  0  0  0  0  0  0
   -1.8272    0.8436   -1.1602 H   0  0  0  0  0  0  0  0  0  0  0  0
   -1.2246    1.2773    1.8763 H   0  0  0  0  0  0  0  0  0  0  0  0
   -2.6339    1.8527    0.8913 H   0  0  0  0  0  0  0  0  0  0  0  0
   -1.8193   -1.1247    1.2548 H   0  0  0  0  0  0  0  0  0  0  0  0
   -3.1950   -0.5467    0.0705 H   0  0  0  0  0  0  0  0  0  0  0  0
  1  2  3  0
  2  3  1  0
  3  4  1  0
  4  5  2  0
  4  6  1  0
  6  7  1  0
  7  8  1  0
  8  9  1  0
  9  7  1  0
  1 10  1  0
  3 11  1  0
  3 12  1  0
  7 13  1  0
  8 14  1  0
  8 15  1  0
  9 16  1  0
  9 17  1  0
M  END
