
     RDKit          3D

 19 18  0  0  0  0  0  0  0  0999 V2000
    3.5179    1.8816   -0.1089 C   0  0  0  0  0  0  0  0  0  0  0  0
    2.5344    1.2073    0.0725 C   0  0  0  0  0  0  0  0  0  0  0  0
    1.3107    0.3995    0.2990 C   0  0  0  0  0  0  0  0  0  0  0  0
    1.6696   -1.0144   -0.1037 C   0  0  0  0  0  0  0  0  0  0  0  0
    0.2320    0.9721   -0.5963 C   0  0  0  0  0  0  0  0  0  0  0  0
   -1.0156    0.2246   -0.4299 C   0  0  0  0  0  0  0  0  0  0  0  0
   -2.0283   -0.3951   -0.2821 C   0  0  0  0  0  0  0  0  0  0  0  0
   -3.2660   -1.1822   -0.0965 C   0  0  0  0  0  0  0  0  0  0  0  0
   -3.8718   -0.7108    1.0614 O   0  0  0  0  0  0  0  0  0  0  0  0
    4.3909    2.4605   -0.2731 H   0  0  0  0  0  0  0  0  0  0  0  0
    1.0361    0.4917    1.3606 H   0  0  0  0  0  0  0  0  0  0  0  0
    0.9293   -1.7033    0.3685 H   0  0  0  0  0  0  0  0  0  0  0  0
    2.7133   -1.2840    0.1628 H   0  0  0  0  0  0  0  0  0  0  0  0
    1.5965   -1.0866   -1.2056 H   0  0  0  0  0  0  0  0  0  0  0  0
    0.0962    2.0504   -0.4140 H   0  0  0  0  0  0  0  0  0  0  0  0
    0.6233    0.8738   -1.6472 H   0  0  0  0  0  0  0  0  0  0  0  0
   -3.0099   -2.2723   -0.0012 H   0  0  0  0  0  0  0  0  0  0  0  0
   -3.9739   -1.0420   -0.9309 H   0  0  0  0  0  0  0  0  0  0  0  0
   -3.4848    0.1292    1.3601 H   0  0  0  0  0  0  0  0  0  0  0  0
  1  2  3  0
  2  3  1  0
  3  4  1  0
  3  5  1  0
  5  6  1  0
  6  7  3  0
  7  8  1  0
  8  9  1  0
  1 10  1  0
  3 11  1  0
  4 12  1  0
  4 13  1  0
  4 14  1  0
  5 15  1  0
  5 16  1  0
  8 17  1  0
  8 18  1  0
  9 19  1  0
M  END
