
     RDKit          3D

 19 18  0  0  0  0  0  0  0  0999 V2000
    3.9340    0.0849   -0.2172 C   0  0  0  0  0  0  0  0  0  0  0  0
    2.8781   -0.4693   -0.4001 C   0  0  0  0  0  0  0  0  0  0  0  0
    1.6321   -1.1377   -0.6383 C   0  0  0  0  0  0  0  0  0  0  0  0
    1.5311   -1.9592   -1.5797 O   0  0  0  0  0  0  0  0  0  0  0  0
    0.4237   -0.9057    0.1885 C   0  0  0  0  0  0  0  0  0  0  0  0
   -0.5399   -0.1053   -0.6677 C   0  0  0  0  0  0  0  0  0  0  0  0
   -1.8069    0.1845    0.0996 C   0  0  0  0  0  0  0  0  0  0  0  0
   -1.4583    0.9791    1.3334 C   0  0  0  0  0  0  0  0  0  0  0  0
   -2.6771    0.8676   -0.7458 O   0  0  0  0  0  0  0  0  0  0  0  0
    4.8582    0.5736   -0.0437 H   0  0  0  0  0  0  0  0  0  0  0  0
    0.7192   -0.3538    1.0789 H   0  0  0  0  0  0  0  0  0  0  0  0
   -0.0474   -1.8851    0.3992 H   0  0  0  0  0  0  0  0  0  0  0  0
   -0.0389    0.8384   -0.9895 H   0  0  0  0  0  0  0  0  0  0  0  0
   -0.8073   -0.6342   -1.5985 H   0  0  0  0  0  0  0  0  0  0  0  0
   -2.2377   -0.7939    0.4262 H   0  0  0  0  0  0  0  0  0  0  0  0
   -1.5933    0.3885    2.2731 H   0  0  0  0  0  0  0  0  0  0  0  0
   -2.1241    1.8811    1.3470 H   0  0  0  0  0  0  0  0  0  0  0  0
   -0.4041    1.3235    1.3318 H   0  0  0  0  0  0  0  0  0  0  0  0
   -2.2415    1.1232   -1.5972 H   0  0  0  0  0  0  0  0  0  0  0  0
  1  2  3  0
  2  3  1  0
  3  4  2  0
  3  5  1  0
  5  6  1  0
  6  7  1  0
  7  8  1  0
  7  9  1  0
  1 10  1  0
  5 11  1  0
  5 12  1  0
  6 13  1  0
  6 14  1  0
  7 15  1  0
  8 16  1  0
  8 17  1  0
  8 18  1  0
  9 19  1  0
M  END
