
     RDKit          3D

 16 17  0  0  0  0  0  0  0  0999 V2000
    1.8114   -1.8432   -1.2962 C   0  0  0  0  0  0  0  0  0  0  0  0
    1.2085   -0.8557   -0.9559 C   0  0  0  0  0  0  0  0  0  0  0  0
    0.4715    0.3522   -0.5664 C   0  0  0  0  0  0  0  0  0  0  0  0
    0.9600    1.5010   -1.1270 O   0  0  0  0  0  0  0  0  0  0  0  0
   -1.0165    0.1540   -0.5970 C   0  0  0  0  0  0  0  0  0  0  0  0
   -0.7823   -0.7936    0.5511 C   0  0  0  0  0  0  0  0  0  0  0  0
    0.0769    0.4048    0.8803 C   0  0  0  0  0  0  0  0  0  0  0  0
   -1.1030    1.2235    0.4443 C   0  0  0  0  0  0  0  0  0  0  0  0
    2.3487   -2.7192   -1.5792 H   0  0  0  0  0  0  0  0  0  0  0  0
    1.6994    1.3295   -1.7827 H   0  0  0  0  0  0  0  0  0  0  0  0
   -1.6001    0.0085   -1.3940 H   0  0  0  0  0  0  0  0  0  0  0  0
   -1.6067   -0.8739    1.2868 H   0  0  0  0  0  0  0  0  0  0  0  0
   -0.2606   -1.7229    0.3146 H   0  0  0  0  0  0  0  0  0  0  0  0
    0.6564    0.5315    1.6793 H   0  0  0  0  0  0  0  0  0  0  0  0
   -0.9104    2.2479    0.1317 H   0  0  0  0  0  0  0  0  0  0  0  0
   -1.9533    1.0556    1.1410 H   0  0  0  0  0  0  0  0  0  0  0  0
  1  2  3  0
  2  3  1  0
  3  4  1  0
  3  5  1  0
  5  6  1  0
  6  7  1  0
  7  8  1  0
  7  3  1  0
  8  5  1  0
  1  9  1  0
  4 10  1  0
  5 11  1  0
  6 12  1  0
  6 13  1  0
  7 14  1  0
  8 15  1  0
  8 16  1  0
M  END
