
     RDKit          3D

 21 21  0  0  0  0  0  0  0  0999 V2000
    2.8629   -1.4558   -1.0861 C   0  0  0  0  0  0  0  0  0  0  0  0
    1.9320   -1.0309   -0.4456 C   0  0  0  0  0  0  0  0  0  0  0  0
    0.7986   -0.4901    0.3243 C   0  0  0  0  0  0  0  0  0  0  0  0
   -0.1177   -1.5725    0.7337 C   0  0  0  0  0  0  0  0  0  0  0  0
   -1.3724   -1.3674    1.0028 C   0  0  0  0  0  0  0  0  0  0  0  0
   -1.9726   -0.0161    0.9152 C   0  0  0  0  0  0  0  0  0  0  0  0
   -1.1418    1.0123    0.2462 C   0  0  0  0  0  0  0  0  0  0  0  0
    0.0153    0.4423   -0.5778 C   0  0  0  0  0  0  0  0  0  0  0  0
    0.8423    1.6430   -0.9931 C   0  0  0  0  0  0  0  0  0  0  0  0
    3.6862   -1.8163   -1.6628 H   0  0  0  0  0  0  0  0  0  0  0  0
    1.1211    0.0888    1.2003 H   0  0  0  0  0  0  0  0  0  0  0  0
    0.2930   -2.6003    0.8115 H   0  0  0  0  0  0  0  0  0  0  0  0
   -2.0581   -2.1697    1.3075 H   0  0  0  0  0  0  0  0  0  0  0  0
   -2.9935   -0.0524    0.4521 H   0  0  0  0  0  0  0  0  0  0  0  0
   -2.1285    0.3074    1.9893 H   0  0  0  0  0  0  0  0  0  0  0  0
   -0.6475    1.6567    1.0085 H   0  0  0  0  0  0  0  0  0  0  0  0
   -1.7726    1.6129   -0.4442 H   0  0  0  0  0  0  0  0  0  0  0  0
   -0.3388   -0.0473   -1.5007 H   0  0  0  0  0  0  0  0  0  0  0  0
    1.7279    1.3602   -1.5882 H   0  0  0  0  0  0  0  0  0  0  0  0
    0.1814    2.2842   -1.6102 H   0  0  0  0  0  0  0  0  0  0  0  0
    1.0828    2.2109   -0.0828 H   0  0  0  0  0  0  0  0  0  0  0  0
  1  2  3  0
  2  3  1  0
  3  4  1  0
  4  5  2  0
  5  6  1  0
  6  7  1  0
  7  8  1  0
  8  9  1  0
  8  3  1  0
  1 10  1  0
  3 11  1  0
  4 12  1  0
  5 13  1  0
  6 14  1  0
  6 15  1  0
  7 16  1  0
  7 17  1  0
  8 18  1  0
  9 19  1  0
  9 20  1  0
  9 21  1  0
M  END
