
     RDKit          3D

 17 18  0  0  0  0  0  0  0  0999 V2000
    2.8312   -1.6851   -0.0763 C   0  0  0  0  0  0  0  0  0  0  0  0
    1.9075   -0.9377   -0.2752 C   0  0  0  0  0  0  0  0  0  0  0  0
    0.8047   -0.0414   -0.4885 C   0  0  0  0  0  0  0  0  0  0  0  0
    0.8514    1.0844    0.5231 C   0  0  0  0  0  0  0  0  0  0  0  0
   -0.5243    1.6231    0.4197 C   0  0  0  0  0  0  0  0  0  0  0  0
   -1.3359    0.6479    0.0560 C   0  0  0  0  0  0  0  0  0  0  0  0
   -2.4069   -0.2970   -0.3438 C   0  0  0  0  0  0  0  0  0  0  0  0
   -1.4073   -0.9346   -1.1282 O   0  0  0  0  0  0  0  0  0  0  0  0
   -0.5390   -0.6292   -0.1165 C   0  0  0  0  0  0  0  0  0  0  0  0
    3.6561   -2.3290    0.0979 H   0  0  0  0  0  0  0  0  0  0  0  0
    0.8009    0.4090   -1.4918 H   0  0  0  0  0  0  0  0  0  0  0  0
    0.9492    0.6573    1.5505 H   0  0  0  0  0  0  0  0  0  0  0  0
    1.6361    1.8229    0.2965 H   0  0  0  0  0  0  0  0  0  0  0  0
   -0.7788    2.6757    0.6237 H   0  0  0  0  0  0  0  0  0  0  0  0
   -2.7117   -0.9226    0.5264 H   0  0  0  0  0  0  0  0  0  0  0  0
   -3.2291    0.1242   -0.9366 H   0  0  0  0  0  0  0  0  0  0  0  0
   -0.5040   -1.2680    0.7631 H   0  0  0  0  0  0  0  0  0  0  0  0
  1  2  3  0
  2  3  1  0
  3  4  1  0
  4  5  1  0
  5  6  2  0
  6  7  1  0
  7  8  1  0
  8  9  1  0
  9  3  1  0
  9  6  1  0
  1 10  1  0
  3 11  1  0
  4 12  1  0
  4 13  1  0
  5 14  1  0
  7 15  1  0
  7 16  1  0
  9 17  1  0
M  END
