
     RDKit          3D

 19 19  0  0  0  0  0  0  0  0999 V2000
    3.0480    0.9090   -0.2977 C   0  0  0  0  0  0  0  0  0  0  0  0
    1.9214    0.5074   -0.1386 C   0  0  0  0  0  0  0  0  0  0  0  0
    0.5650    0.0003    0.0641 C   0  0  0  0  0  0  0  0  0  0  0  0
    0.5027   -0.9337    1.2303 C   0  0  0  0  0  0  0  0  0  0  0  0
   -0.3003    1.2184    0.2783 C   0  0  0  0  0  0  0  0  0  0  0  0
   -1.6067    1.0651    0.0921 C   0  0  0  0  0  0  0  0  0  0  0  0
   -2.0564   -0.2940   -0.3059 C   0  0  0  0  0  0  0  0  0  0  0  0
   -1.2693   -0.9200   -1.2324 O   0  0  0  0  0  0  0  0  0  0  0  0
    0.0636   -0.6304   -1.2162 C   0  0  0  0  0  0  0  0  0  0  0  0
    4.0428    1.2508   -0.4503 H   0  0  0  0  0  0  0  0  0  0  0  0
   -0.1217   -0.4637    2.0364 H   0  0  0  0  0  0  0  0  0  0  0  0
    0.1180   -1.9525    0.9611 H   0  0  0  0  0  0  0  0  0  0  0  0
    1.5513   -1.1146    1.5912 H   0  0  0  0  0  0  0  0  0  0  0  0
    0.0952    2.1800    0.5688 H   0  0  0  0  0  0  0  0  0  0  0  0
   -2.3253    1.8727    0.2175 H   0  0  0  0  0  0  0  0  0  0  0  0
   -2.0318   -0.9232    0.6290 H   0  0  0  0  0  0  0  0  0  0  0  0
   -3.1391   -0.2682   -0.6056 H   0  0  0  0  0  0  0  0  0  0  0  0
    0.3285    0.0987   -2.0338 H   0  0  0  0  0  0  0  0  0  0  0  0
    0.6142   -1.6021   -1.3883 H   0  0  0  0  0  0  0  0  0  0  0  0
  1  2  3  0
  2  3  1  0
  3  4  1  0
  3  5  1  0
  5  6  2  0
  6  7  1  0
  7  8  1  0
  8  9  1  0
  9  3  1  0
  1 10  1  0
  4 11  1  0
  4 12  1  0
  4 13  1  0
  5 14  1  0
  6 15  1  0
  7 16  1  0
  7 17  1  0
  9 18  1  0
  9 19  1  0
M  END
