
     RDKit          3D

 19 19  0  0  0  0  0  0  0  0999 V2000
    2.3948    1.7425    0.9193 C   0  0  0  0  0  0  0  0  0  0  0  0
    1.7409    0.7550    0.6905 C   0  0  0  0  0  0  0  0  0  0  0  0
    0.9299   -0.4606    0.4312 C   0  0  0  0  0  0  0  0  0  0  0  0
    0.7459   -1.2147    1.5711 O   0  0  0  0  0  0  0  0  0  0  0  0
   -0.4271   -0.7832    2.1824 C   0  0  0  0  0  0  0  0  0  0  0  0
   -1.2202   -0.2149    1.0886 C   0  0  0  0  0  0  0  0  0  0  0  0
   -0.4467   -0.0115    0.0362 C   0  0  0  0  0  0  0  0  0  0  0  0
   -0.7991    0.5385   -1.2812 C   0  0  0  0  0  0  0  0  0  0  0  0
   -0.4968   -0.4848   -2.3427 C   0  0  0  0  0  0  0  0  0  0  0  0
    2.9744    2.6097    1.1043 H   0  0  0  0  0  0  0  0  0  0  0  0
    1.3894   -1.0125   -0.3914 H   0  0  0  0  0  0  0  0  0  0  0  0
   -0.8829   -1.6352    2.6956 H   0  0  0  0  0  0  0  0  0  0  0  0
   -0.1777    0.0461    2.9063 H   0  0  0  0  0  0  0  0  0  0  0  0
   -2.2780    0.0195    1.0948 H   0  0  0  0  0  0  0  0  0  0  0  0
   -0.2150    1.4545   -1.5291 H   0  0  0  0  0  0  0  0  0  0  0  0
   -1.8645    0.8338   -1.2970 H   0  0  0  0  0  0  0  0  0  0  0  0
   -0.5459   -1.5068   -1.9508 H   0  0  0  0  0  0  0  0  0  0  0  0
   -1.3193   -0.3954   -3.1077 H   0  0  0  0  0  0  0  0  0  0  0  0
    0.4980   -0.2800   -2.8203 H   0  0  0  0  0  0  0  0  0  0  0  0
  1  2  3  0
  2  3  1  0
  3  4  1  0
  4  5  1  0
  5  6  1  0
  6  7  2  0
  7  8  1  0
  8  9  1  0
  7  3  1  0
  1 10  1  0
  3 11  1  0
  5 12  1  0
  5 13  1  0
  6 14  1  0
  8 15  1  0
  8 16  1  0
  9 17  1  0
  9 18  1  0
  9 19  1  0
M  END
