
     RDKit          3D

 19 18  0  0  0  0  0  0  0  0999 V2000
    3.5497   -1.0366    2.0437 C   0  0  0  0  0  0  0  0  0  0  0  0
    2.6609   -1.1323    1.2392 C   0  0  0  0  0  0  0  0  0  0  0  0
    1.5939   -1.2376    0.2431 C   0  0  0  0  0  0  0  0  0  0  0  0
    0.4523   -0.3970    0.6054 C   0  0  0  0  0  0  0  0  0  0  0  0
    0.5105    0.2621    1.6409 O   0  0  0  0  0  0  0  0  0  0  0  0
   -0.7956   -0.2633   -0.1777 C   0  0  0  0  0  0  0  0  0  0  0  0
   -0.7978   -1.0300   -1.3298 O   0  0  0  0  0  0  0  0  0  0  0  0
   -0.9415    1.2198   -0.5140 C   0  0  0  0  0  0  0  0  0  0  0  0
   -2.1685    1.5168   -1.3114 C   0  0  0  0  0  0  0  0  0  0  0  0
    4.3336   -0.9586    2.7762 H   0  0  0  0  0  0  0  0  0  0  0  0
    1.2965   -2.3255    0.2195 H   0  0  0  0  0  0  0  0  0  0  0  0
    2.0406   -1.0149   -0.7314 H   0  0  0  0  0  0  0  0  0  0  0  0
   -1.6343   -0.6073    0.4569 H   0  0  0  0  0  0  0  0  0  0  0  0
   -1.6933   -1.1635   -1.6791 H   0  0  0  0  0  0  0  0  0  0  0  0
   -0.0005    1.5147   -1.0418 H   0  0  0  0  0  0  0  0  0  0  0  0
   -0.9701    1.7743    0.4603 H   0  0  0  0  0  0  0  0  0  0  0  0
   -1.9213    2.3256   -2.0513 H   0  0  0  0  0  0  0  0  0  0  0  0
   -2.5501    0.6735   -1.8964 H   0  0  0  0  0  0  0  0  0  0  0  0
   -2.9647    1.8798   -0.6259 H   0  0  0  0  0  0  0  0  0  0  0  0
  1  2  3  0
  2  3  1  0
  3  4  1  0
  4  5  2  0
  4  6  1  0
  6  7  1  0
  6  8  1  0
  8  9  1  0
  1 10  1  0
  3 11  1  0
  3 12  1  0
  6 13  1  0
  7 14  1  0
  8 15  1  0
  8 16  1  0
  9 17  1  0
  9 18  1  0
  9 19  1  0
M  END
