
     RDKit          3D

 21 20  0  0  0  0  0  0  0  0999 V2000
    4.0752    0.9588    2.5787 C   0  0  0  0  0  0  0  0  0  0  0  0
    3.2648    0.8321    1.6938 C   0  0  0  0  0  0  0  0  0  0  0  0
    2.2764    0.6743    0.5967 C   0  0  0  0  0  0  0  0  0  0  0  0
    0.9130    0.9033    1.1891 C   0  0  0  0  0  0  0  0  0  0  0  0
   -0.1253    0.7957    0.3040 O   0  0  0  0  0  0  0  0  0  0  0  0
   -0.2213   -0.4503   -0.2968 C   0  0  0  0  0  0  0  0  0  0  0  0
   -1.3914   -0.5039   -1.2616 C   0  0  0  0  0  0  0  0  0  0  0  0
   -2.5800   -0.2584   -0.6189 O   0  0  0  0  0  0  0  0  0  0  0  0
   -3.6163   -0.3191   -1.5452 C   0  0  0  0  0  0  0  0  0  0  0  0
    4.7750    1.0794    3.3659 H   0  0  0  0  0  0  0  0  0  0  0  0
    2.5531    1.4280   -0.1648 H   0  0  0  0  0  0  0  0  0  0  0  0
    2.4180   -0.3492    0.1952 H   0  0  0  0  0  0  0  0  0  0  0  0
    0.9112    1.9551    1.5731 H   0  0  0  0  0  0  0  0  0  0  0  0
    0.8211    0.2043    2.0560 H   0  0  0  0  0  0  0  0  0  0  0  0
    0.7220   -0.5983   -0.8997 H   0  0  0  0  0  0  0  0  0  0  0  0
   -0.3458   -1.2706    0.4271 H   0  0  0  0  0  0  0  0  0  0  0  0
   -1.4310   -1.5254   -1.6912 H   0  0  0  0  0  0  0  0  0  0  0  0
   -1.2163    0.1850   -2.1280 H   0  0  0  0  0  0  0  0  0  0  0  0
   -3.6937   -1.2989   -2.0391 H   0  0  0  0  0  0  0  0  0  0  0  0
   -4.5916   -0.1610   -1.0176 H   0  0  0  0  0  0  0  0  0  0  0  0
   -3.5173    0.4791   -2.3169 H   0  0  0  0  0  0  0  0  0  0  0  0
  1  2  3  0
  2  3  1  0
  3  4  1  0
  4  5  1  0
  5  6  1  0
  6  7  1  0
  7  8  1  0
  8  9  1  0
  1 10  1  0
  3 11  1  0
  3 12  1  0
  4 13  1  0
  4 14  1  0
  6 15  1  0
  6 16  1  0
  7 17  1  0
  7 18  1  0
  9 19  1  0
  9 20  1  0
  9 21  1  0
M  END
