
     RDKit          3D

 21 21  0  0  0  0  0  0  0  0999 V2000
   -2.3530    2.4287   -0.6763 C   0  0  0  0  0  0  0  0  0  0  0  0
   -1.4363    1.6435   -0.6447 C   0  0  0  0  0  0  0  0  0  0  0  0
   -0.3337    0.6910   -0.5820 C   0  0  0  0  0  0  0  0  0  0  0  0
    0.4431    0.6118   -1.8570 C   0  0  0  0  0  0  0  0  0  0  0  0
    0.5857    1.0668    0.5340 C   0  0  0  0  0  0  0  0  0  0  0  0
    1.1266   -0.2963    0.9557 C   0  0  0  0  0  0  0  0  0  0  0  0
    0.2382   -1.2975    0.2684 C   0  0  0  0  0  0  0  0  0  0  0  0
   -0.3650   -2.2926    1.2616 C   0  0  0  0  0  0  0  0  0  0  0  0
   -0.8167   -0.5718   -0.2518 O   0  0  0  0  0  0  0  0  0  0  0  0
   -3.1625    3.1375   -0.7147 H   0  0  0  0  0  0  0  0  0  0  0  0
    0.0481   -0.0784   -2.6020 H   0  0  0  0  0  0  0  0  0  0  0  0
    1.5027    0.3398   -1.5855 H   0  0  0  0  0  0  0  0  0  0  0  0
    0.5338    1.6503   -2.2823 H   0  0  0  0  0  0  0  0  0  0  0  0
    0.0732    1.5334    1.3727 H   0  0  0  0  0  0  0  0  0  0  0  0
    1.4525    1.6849    0.2009 H   0  0  0  0  0  0  0  0  0  0  0  0
    2.1750   -0.4152    0.5894 H   0  0  0  0  0  0  0  0  0  0  0  0
    1.0672   -0.3900    2.0617 H   0  0  0  0  0  0  0  0  0  0  0  0
    0.8099   -1.8472   -0.5168 H   0  0  0  0  0  0  0  0  0  0  0  0
    0.3819   -2.5619    2.0326 H   0  0  0  0  0  0  0  0  0  0  0  0
   -1.2521   -1.8703    1.7651 H   0  0  0  0  0  0  0  0  0  0  0  0
   -0.7186   -3.1666    0.6708 H   0  0  0  0  0  0  0  0  0  0  0  0
  1  2  3  0
  2  3  1  0
  3  4  1  0
  3  5  1  0
  5  6  1  0
  6  7  1  0
  7  8  1  0
  7  9  1  0
  9  3  1  0
  1 10  1  0
  4 11  1  0
  4 12  1  0
  4 13  1  0
  5 14  1  0
  5 15  1  0
  6 16  1  0
  6 17  1  0
  7 18  1  0
  8 19  1  0
  8 20  1  0
  8 21  1  0
M  END
