
     RDKit          3D

 19 19  0  0  0  0  0  0  0  0999 V2000
    1.3278    3.2430   -1.6447 C   0  0  0  0  0  0  0  0  0  0  0  0
    0.8992    2.1250   -1.1882 C   0  0  0  0  0  0  0  0  0  0  0  0
    0.4306    0.9543   -0.7231 C   0  0  0  0  0  0  0  0  0  0  0  0
   -0.5467    0.7275    0.1353 C   0  0  0  0  0  0  0  0  0  0  0  0
   -1.0110   -0.5867    0.6068 C   0  0  0  0  0  0  0  0  0  0  0  0
   -0.8734   -0.6852    2.1049 C   0  0  0  0  0  0  0  0  0  0  0  0
   -0.3027   -1.7120   -0.0633 C   0  0  0  0  0  0  0  0  0  0  0  0
    0.0434   -1.2977   -1.3589 O   0  0  0  0  0  0  0  0  0  0  0  0
    1.0519   -0.3624   -1.2384 C   0  0  0  0  0  0  0  0  0  0  0  0
    1.6930    4.2003   -2.0305 H   0  0  0  0  0  0  0  0  0  0  0  0
   -1.0388    1.6488    0.5102 H   0  0  0  0  0  0  0  0  0  0  0  0
   -2.0983   -0.6490    0.3841 H   0  0  0  0  0  0  0  0  0  0  0  0
   -1.4178    0.1320    2.5862 H   0  0  0  0  0  0  0  0  0  0  0  0
    0.2035   -0.7377    2.3934 H   0  0  0  0  0  0  0  0  0  0  0  0
   -1.3796   -1.6457    2.4081 H   0  0  0  0  0  0  0  0  0  0  0  0
   -0.9602   -2.6232   -0.0870 H   0  0  0  0  0  0  0  0  0  0  0  0
    0.6685   -1.8908    0.4469 H   0  0  0  0  0  0  0  0  0  0  0  0
    1.5397   -0.1780   -2.2056 H   0  0  0  0  0  0  0  0  0  0  0  0
    1.7710   -0.6625   -0.4561 H   0  0  0  0  0  0  0  0  0  0  0  0
  1  2  3  0
  2  3  1  0
  3  4  2  0
  4  5  1  0
  5  6  1  0
  5  7  1  0
  7  8  1  0
  8  9  1  0
  9  3  1  0
  1 10  1  0
  4 11  1  0
  5 12  1  0
  6 13  1  0
  6 14  1  0
  6 15  1  0
  7 16  1  0
  7 17  1  0
  9 18  1  0
  9 19  1  0
M  END
