
     RDKit          3D

 19 20  0  0  0  0  0  0  0  0999 V2000
    1.6240    1.2343    2.6605 C   0  0  0  0  0  0  0  0  0  0  0  0
    0.8490    1.1314    1.7428 C   0  0  0  0  0  0  0  0  0  0  0  0
   -0.1133    1.0078    0.6259 C   0  0  0  0  0  0  0  0  0  0  0  0
   -1.1640    0.0558    1.0143 C   0  0  0  0  0  0  0  0  0  0  0  0
   -1.5562   -0.8583    0.0789 O   0  0  0  0  0  0  0  0  0  0  0  0
   -0.5784   -1.4774   -0.6310 C   0  0  0  0  0  0  0  0  0  0  0  0
   -0.5366   -1.0619   -2.1110 C   0  0  0  0  0  0  0  0  0  0  0  0
    0.5302   -0.6790   -1.1317 C   0  0  0  0  0  0  0  0  0  0  0  0
    0.6330    0.7190   -0.6308 C   0  0  0  0  0  0  0  0  0  0  0  0
    2.3171    1.3127    3.4771 H   0  0  0  0  0  0  0  0  0  0  0  0
   -0.5405    2.0490    0.5168 H   0  0  0  0  0  0  0  0  0  0  0  0
   -2.0756    0.6203    1.3251 H   0  0  0  0  0  0  0  0  0  0  0  0
   -0.8728   -0.5201    1.9433 H   0  0  0  0  0  0  0  0  0  0  0  0
   -0.4221   -2.5556   -0.4267 H   0  0  0  0  0  0  0  0  0  0  0  0
   -0.3221   -1.8541   -2.8615 H   0  0  0  0  0  0  0  0  0  0  0  0
   -1.2398   -0.3076   -2.4667 H   0  0  0  0  0  0  0  0  0  0  0  0
    1.4936   -1.2068   -1.2949 H   0  0  0  0  0  0  0  0  0  0  0  0
    0.2781    1.3858   -1.4729 H   0  0  0  0  0  0  0  0  0  0  0  0
    1.6966    1.0048   -0.4916 H   0  0  0  0  0  0  0  0  0  0  0  0
  1  2  3  0
  2  3  1  0
  3  4  1  0
  4  5  1  0
  5  6  1  0
  6  7  1  0
  7  8  1  0
  8  9  1  0
  9  3  1  0
  8  6  1  0
  1 10  1  0
  3 11  1  0
  4 12  1  0
  4 13  1  0
  6 14  1  0
  7 15  1  0
  7 16  1  0
  8 17  1  0
  9 18  1  0
  9 19  1  0
M  END
