
     RDKit          3D

 19 19  0  0  0  0  0  0  0  0999 V2000
    2.7183   -0.6697    0.7830 C   0  0  0  0  0  0  0  0  0  0  0  0
    1.2925   -0.6877    0.4755 C   0  0  0  0  0  0  0  0  0  0  0  0
    0.0012   -0.7012    0.2179 C   0  0  0  0  0  0  0  0  0  0  0  0
   -0.6778   -1.7532    1.1098 C   0  0  0  0  0  0  0  0  0  0  0  0
   -0.4964    0.7012    0.8419 C   0  0  0  0  0  0  0  0  0  0  0  0
   -0.9592    1.5975   -0.1804 C   0  0  0  0  0  0  0  0  0  0  0  0
   -0.7067    1.5359   -1.5011 C   0  0  0  0  0  0  0  0  0  0  0  0
    0.1547    0.3229   -1.8771 C   0  0  0  0  0  0  0  0  0  0  0  0
   -0.3721   -0.7241   -1.0877 O   0  0  0  0  0  0  0  0  0  0  0  0
    3.7268   -0.6461    1.0076 H   0  0  0  0  0  0  0  0  0  0  0  0
   -1.4730   -1.2411    1.7295 H   0  0  0  0  0  0  0  0  0  0  0  0
    0.0864   -2.2140    1.7654 H   0  0  0  0  0  0  0  0  0  0  0  0
   -1.1204   -2.5235    0.4545 H   0  0  0  0  0  0  0  0  0  0  0  0
    0.4426    1.1199    1.3354 H   0  0  0  0  0  0  0  0  0  0  0  0
   -1.1795    0.4994    1.6472 H   0  0  0  0  0  0  0  0  0  0  0  0
   -1.6210    2.4613    0.0761 H   0  0  0  0  0  0  0  0  0  0  0  0
   -1.0086    2.2440   -2.2483 H   0  0  0  0  0  0  0  0  0  0  0  0
    1.1836    0.5125   -1.6064 H   0  0  0  0  0  0  0  0  0  0  0  0
    0.0089    0.1661   -2.9428 H   0  0  0  0  0  0  0  0  0  0  0  0
  1  2  3  0
  2  3  1  0
  3  4  1  0
  3  5  1  0
  5  6  1  0
  6  7  2  0
  7  8  1  0
  8  9  1  0
  9  3  1  0
  1 10  1  0
  4 11  1  0
  4 12  1  0
  4 13  1  0
  5 14  1  0
  5 15  1  0
  6 16  1  0
  7 17  1  0
  8 18  1  0
  8 19  1  0
M  END
