
     RDKit          3D

 19 18  0  0  0  0  0  0  0  0999 V2000
   -1.3238    1.9874    0.2576 C   0  0  0  0  0  0  0  0  0  0  0  0
   -0.9967    0.9503    0.4065 C   0  0  0  0  0  0  0  0  0  0  0  0
   -0.5032   -0.5286    0.6286 C   0  0  0  0  0  0  0  0  0  0  0  0
   -1.5627   -1.2778   -0.0494 O   0  0  0  0  0  0  0  0  0  0  0  0
   -0.7007   -0.6758    1.9311 C   0  0  0  0  0  0  0  0  0  0  0  0
   -0.8931   -0.8061    3.2347 C   0  0  0  0  0  0  0  0  0  0  0  0
    0.7569   -0.7149    0.0304 C   0  0  0  0  0  0  0  0  0  0  0  0
    1.0439   -0.4913   -1.4157 C   0  0  0  0  0  0  0  0  0  0  0  0
    0.9539    0.9672   -1.7368 C   0  0  0  0  0  0  0  0  0  0  0  0
   -1.6896    3.1699    0.0937 H   0  0  0  0  0  0  0  0  0  0  0  0
   -2.0231   -1.8688    0.6040 H   0  0  0  0  0  0  0  0  0  0  0  0
   -1.0807   -0.9199    4.3917 H   0  0  0  0  0  0  0  0  0  0  0  0
    1.0572   -1.8295    0.1539 H   0  0  0  0  0  0  0  0  0  0  0  0
    1.5419   -0.1381    0.6542 H   0  0  0  0  0  0  0  0  0  0  0  0
    0.3750   -1.0516   -2.0880 H   0  0  0  0  0  0  0  0  0  0  0  0
    2.1333   -0.8264   -1.6374 H   0  0  0  0  0  0  0  0  0  0  0  0
    1.8190    1.2419   -2.4583 H   0  0  0  0  0  0  0  0  0  0  0  0
    1.1186    1.6419   -0.8479 H   0  0  0  0  0  0  0  0  0  0  0  0
   -0.0260    1.1702   -2.1528 H   0  0  0  0  0  0  0  0  0  0  0  0
  1  2  3  0
  2  3  1  0
  3  4  1  0
  3  5  1  0
  5  6  3  0
  3  7  1  0
  7  8  1  0
  8  9  1  0
  1 10  1  0
  4 11  1  0
  6 12  1  0
  7 13  1  0
  7 14  1  0
  8 15  1  0
  8 16  1  0
  9 17  1  0
  9 18  1  0
  9 19  1  0
M  END
