
     RDKit          3D

 18 19  0  0  0  0  0  0  0  0999 V2000
    2.4619   -0.4682    1.3096 C   0  0  0  0  0  0  0  0  0  0  0  0
    1.7716   -0.1570    0.3600 C   0  0  0  0  0  0  0  0  0  0  0  0
    0.9452    0.2258   -0.7849 C   0  0  0  0  0  0  0  0  0  0  0  0
   -0.2054    1.1532   -0.4577 C   0  0  0  0  0  0  0  0  0  0  0  0
   -0.8197    0.5356    0.7584 C   0  0  0  0  0  0  0  0  0  0  0  0
   -0.7839   -0.9472    0.3305 C   0  0  0  0  0  0  0  0  0  0  0  0
   -0.1582   -0.7890   -1.0178 C   0  0  0  0  0  0  0  0  0  0  0  0
   -0.9521    0.4037   -1.5718 C   0  0  0  0  0  0  0  0  0  0  0  0
    3.0716   -0.7348    2.1348 H   0  0  0  0  0  0  0  0  0  0  0  0
    1.5013    0.4981   -1.7036 H   0  0  0  0  0  0  0  0  0  0  0  0
   -0.0879    2.1960   -0.5539 H   0  0  0  0  0  0  0  0  0  0  0  0
   -0.2648    0.6816    1.6839 H   0  0  0  0  0  0  0  0  0  0  0  0
   -1.8658    0.8434    0.8283 H   0  0  0  0  0  0  0  0  0  0  0  0
   -0.1490   -1.4852    1.0626 H   0  0  0  0  0  0  0  0  0  0  0  0
   -1.8210   -1.3507    0.2994 H   0  0  0  0  0  0  0  0  0  0  0  0
    0.0116   -1.6112   -1.6552 H   0  0  0  0  0  0  0  0  0  0  0  0
   -2.0265    0.3093   -1.4184 H   0  0  0  0  0  0  0  0  0  0  0  0
   -0.6290    0.6967   -2.5929 H   0  0  0  0  0  0  0  0  0  0  0  0
  1  2  3  0
  2  3  1  0
  3  4  1  0
  4  5  1  0
  5  6  1  0
  6  7  1  0
  7  8  1  0
  7  3  1  0
  8  4  1  0
  1  9  1  0
  3 10  1  0
  4 11  1  0
  5 12  1  0
  5 13  1  0
  6 14  1  0
  6 15  1  0
  7 16  1  0
  8 17  1  0
  8 18  1  0
M  END
