
     RDKit          3D

 19 18  0  0  0  0  0  0  0  0999 V2000
    0.1724    1.5608   -2.2552 C   0  0  0  0  0  0  0  0  0  0  0  0
    0.5220    0.6591   -1.4705 C   0  0  0  0  0  0  0  0  0  0  0  0
    0.9483   -0.4340   -0.5519 C   0  0  0  0  0  0  0  0  0  0  0  0
    0.2481   -1.6621   -1.0157 C   0  0  0  0  0  0  0  0  0  0  0  0
    2.3411   -0.5166   -0.6679 O   0  0  0  0  0  0  0  0  0  0  0  0
    0.6332   -0.0108    0.8040 C   0  0  0  0  0  0  0  0  0  0  0  0
    1.5026    0.6057    1.4474 O   0  0  0  0  0  0  0  0  0  0  0  0
   -0.6203   -0.2176    1.5741 C   0  0  0  0  0  0  0  0  0  0  0  0
   -1.5222    0.9903    1.4625 C   0  0  0  0  0  0  0  0  0  0  0  0
   -0.1408    2.3336   -2.9483 H   0  0  0  0  0  0  0  0  0  0  0  0
   -0.2523   -1.4760   -2.0095 H   0  0  0  0  0  0  0  0  0  0  0  0
    0.8958   -2.5418   -1.1611 H   0  0  0  0  0  0  0  0  0  0  0  0
   -0.5759   -2.0029   -0.3262 H   0  0  0  0  0  0  0  0  0  0  0  0
    2.6780    0.2277   -1.2193 H   0  0  0  0  0  0  0  0  0  0  0  0
   -1.1889   -1.1041    1.3341 H   0  0  0  0  0  0  0  0  0  0  0  0
   -0.3320   -0.3507    2.6614 H   0  0  0  0  0  0  0  0  0  0  0  0
   -2.3190    0.8187    0.6989 H   0  0  0  0  0  0  0  0  0  0  0  0
   -2.0187    1.1899    2.4492 H   0  0  0  0  0  0  0  0  0  0  0  0
   -0.9717    1.9307    1.1940 H   0  0  0  0  0  0  0  0  0  0  0  0
  1  2  3  0
  2  3  1  0
  3  4  1  0
  3  5  1  0
  3  6  1  0
  6  7  2  0
  6  8  1  0
  8  9  1  0
  1 10  1  0
  4 11  1  0
  4 12  1  0
  4 13  1  0
  5 14  1  0
  8 15  1  0
  8 16  1  0
  9 17  1  0
  9 18  1  0
  9 19  1  0
M  END
