
     RDKit          3D

 15 16  0  0  0  0  0  0  0  0999 V2000
    2.6955    0.4586   -0.7873 C   0  0  0  0  0  0  0  0  0  0  0  0
    1.7036    0.0077   -0.2689 C   0  0  0  0  0  0  0  0  0  0  0  0
    0.5055   -0.5509    0.3839 C   0  0  0  0  0  0  0  0  0  0  0  0
   -0.5551   -0.8244   -0.7033 C   0  0  0  0  0  0  0  0  0  0  0  0
   -1.2855    0.4695   -0.6565 C   0  0  0  0  0  0  0  0  0  0  0  0
   -2.3379    0.8963   -0.0174 O   0  0  0  0  0  0  0  0  0  0  0  0
   -1.5587    0.3713    0.8805 C   0  0  0  0  0  0  0  0  0  0  0  0
   -0.1442    0.5286    1.2261 C   0  0  0  0  0  0  0  0  0  0  0  0
    0.4391    1.2834    1.9682 O   0  0  0  0  0  0  0  0  0  0  0  0
    3.5721    0.8431   -1.2562 H   0  0  0  0  0  0  0  0  0  0  0  0
    0.7331   -1.4424    0.9634 H   0  0  0  0  0  0  0  0  0  0  0  0
   -1.1538   -1.6827   -0.3355 H   0  0  0  0  0  0  0  0  0  0  0  0
   -0.0890   -1.0337   -1.6667 H   0  0  0  0  0  0  0  0  0  0  0  0
   -0.5968    1.3151   -0.9708 H   0  0  0  0  0  0  0  0  0  0  0  0
   -1.9279   -0.6397    1.2407 H   0  0  0  0  0  0  0  0  0  0  0  0
  1  2  3  0
  2  3  1  0
  3  4  1  0
  4  5  1  0
  5  6  1  0
  6  7  1  0
  7  8  1  0
  8  9  2  0
  8  3  1  0
  7  5  1  0
  1 10  1  0
  3 11  1  0
  4 12  1  0
  4 13  1  0
  5 14  1  0
  7 15  1  0
M  END
