
     RDKit          3D

 17 17  0  0  0  0  0  0  0  0999 V2000
    3.3357    1.4017    0.0839 C   0  0  0  0  0  0  0  0  0  0  0  0
    2.5857    0.5151    0.3068 C   0  0  0  0  0  0  0  0  0  0  0  0
    1.6725   -0.5515    0.5984 C   0  0  0  0  0  0  0  0  0  0  0  0
    1.8397   -1.2632    1.6285 O   0  0  0  0  0  0  0  0  0  0  0  0
    0.5419   -0.8275   -0.2899 C   0  0  0  0  0  0  0  0  0  0  0  0
   -0.8214   -0.4729    0.3151 C   0  0  0  0  0  0  0  0  0  0  0  0
   -1.9806   -0.7441   -0.5643 C   0  0  0  0  0  0  0  0  0  0  0  0
   -1.5273    0.6431   -0.3786 C   0  0  0  0  0  0  0  0  0  0  0  0
   -2.2915    1.4649    0.4727 O   0  0  0  0  0  0  0  0  0  0  0  0
    4.0285    2.2295   -0.1422 H   0  0  0  0  0  0  0  0  0  0  0  0
    0.4574   -1.9325   -0.5180 H   0  0  0  0  0  0  0  0  0  0  0  0
    0.6571   -0.3283   -1.2857 H   0  0  0  0  0  0  0  0  0  0  0  0
   -0.9315   -0.6261    1.4016 H   0  0  0  0  0  0  0  0  0  0  0  0
   -2.9702   -0.9984   -0.1385 H   0  0  0  0  0  0  0  0  0  0  0  0
   -1.7957   -1.2352   -1.5494 H   0  0  0  0  0  0  0  0  0  0  0  0
   -1.0681    1.1408   -1.2393 H   0  0  0  0  0  0  0  0  0  0  0  0
   -1.7319    1.5848    1.2990 H   0  0  0  0  0  0  0  0  0  0  0  0
  1  2  3  0
  2  3  1  0
  3  4  2  0
  3  5  1  0
  5  6  1  0
  6  7  1  0
  7  8  1  0
  8  9  1  0
  8  6  1  0
  1 10  1  0
  5 11  1  0
  5 12  1  0
  6 13  1  0
  7 14  1  0
  7 15  1  0
  8 16  1  0
  9 17  1  0
M  END
