
     RDKit          3D

 19 19  0  0  0  0  0  0  0  0999 V2000
    1.0977    1.6253   -1.8500 C   0  0  0  0  0  0  0  0  0  0  0  0
    0.6440    0.8293   -1.0555 C   0  0  0  0  0  0  0  0  0  0  0  0
    0.0737   -0.1391   -0.1077 C   0  0  0  0  0  0  0  0  0  0  0  0
   -1.0118    0.3837    0.7844 C   0  0  0  0  0  0  0  0  0  0  0  0
   -2.2997    0.6013    0.0113 C   0  0  0  0  0  0  0  0  0  0  0  0
   -0.6330    1.6377    1.2853 O   0  0  0  0  0  0  0  0  0  0  0  0
   -0.1917   -1.4033   -0.6762 O   0  0  0  0  0  0  0  0  0  0  0  0
    0.8766   -1.2391    0.3448 C   0  0  0  0  0  0  0  0  0  0  0  0
    2.1908   -1.6345   -0.2773 C   0  0  0  0  0  0  0  0  0  0  0  0
    1.4790    2.3308   -2.5437 H   0  0  0  0  0  0  0  0  0  0  0  0
   -1.2030   -0.2553    1.6617 H   0  0  0  0  0  0  0  0  0  0  0  0
   -2.2603    1.4565   -0.6657 H   0  0  0  0  0  0  0  0  0  0  0  0
   -2.4253   -0.3256   -0.6215 H   0  0  0  0  0  0  0  0  0  0  0  0
   -3.1675    0.7028    0.6907 H   0  0  0  0  0  0  0  0  0  0  0  0
   -1.3966    2.2654    1.3208 H   0  0  0  0  0  0  0  0  0  0  0  0
    0.6239   -1.7501    1.2930 H   0  0  0  0  0  0  0  0  0  0  0  0
    2.0455   -2.4915   -0.9644 H   0  0  0  0  0  0  0  0  0  0  0  0
    2.5878   -0.7863   -0.9081 H   0  0  0  0  0  0  0  0  0  0  0  0
    2.9699   -1.8079    0.4878 H   0  0  0  0  0  0  0  0  0  0  0  0
  1  2  3  0
  2  3  1  0
  3  4  1  0
  4  5  1  0
  4  6  1  0
  3  7  1  0
  7  8  1  0
  8  9  1  0
  8  3  1  0
  1 10  1  0
  4 11  1  0
  5 12  1  0
  5 13  1  0
  5 14  1  0
  6 15  1  0
  8 16  1  0
  9 17  1  0
  9 18  1  0
  9 19  1  0
M  END
