
     RDKit          3D

 13 13  0  0  0  0  0  0  0  0999 V2000
    2.4309    0.1115   -0.5923 C   0  0  0  0  0  0  0  0  0  0  0  0
    1.2299   -0.3645   -0.6075 C   0  0  0  0  0  0  0  0  0  0  0  0
   -0.1240   -0.9036   -0.6476 C   0  0  0  0  0  0  0  0  0  0  0  0
   -0.6530   -1.2740    0.7473 C   0  0  0  0  0  0  0  0  0  0  0  0
   -1.2351   -0.0679    0.1202 C   0  0  0  0  0  0  0  0  0  0  0  0
   -0.7645    1.2706    0.2645 C   0  0  0  0  0  0  0  0  0  0  0  0
   -0.3431    2.4458    0.4003 C   0  0  0  0  0  0  0  0  0  0  0  0
    3.3478    0.4929   -0.5823 H   0  0  0  0  0  0  0  0  0  0  0  0
   -0.4676   -1.4505   -1.5094 H   0  0  0  0  0  0  0  0  0  0  0  0
    0.0800   -1.2925    1.5639 H   0  0  0  0  0  0  0  0  0  0  0  0
   -1.2643   -2.2301    0.6454 H   0  0  0  0  0  0  0  0  0  0  0  0
   -2.2576   -0.1857   -0.3286 H   0  0  0  0  0  0  0  0  0  0  0  0
    0.0206    3.4480    0.5262 H   0  0  0  0  0  0  0  0  0  0  0  0
  1  2  3  0
  2  3  1  0
  3  4  1  0
  4  5  1  0
  5  6  1  0
  6  7  3  0
  5  3  1  0
  1  8  1  0
  3  9  1  0
  4 10  1  0
  4 11  1  0
  5 12  1  0
  7 13  1  0
M  END
