
     RDKit          3D

 21 21  0  0  0  0  0  0  0  0999 V2000
    1.7566    2.5732   -0.0118 C   0  0  0  0  0  0  0  0  0  0  0  0
    1.3677    1.4333   -0.1293 C   0  0  0  0  0  0  0  0  0  0  0  0
    0.9128    0.0509   -0.2914 C   0  0  0  0  0  0  0  0  0  0  0  0
    1.5610   -0.7848    0.7806 C   0  0  0  0  0  0  0  0  0  0  0  0
    1.1670   -2.1053    0.6771 O   0  0  0  0  0  0  0  0  0  0  0  0
   -0.5917    0.0281   -0.2173 C   0  0  0  0  0  0  0  0  0  0  0  0
   -1.2946    0.5059    1.0077 C   0  0  0  0  0  0  0  0  0  0  0  0
   -1.2586    0.1948   -1.5789 C   0  0  0  0  0  0  0  0  0  0  0  0
   -1.2861   -1.1501   -0.9028 C   0  0  0  0  0  0  0  0  0  0  0  0
    2.0827    3.5742    0.1021 H   0  0  0  0  0  0  0  0  0  0  0  0
    1.2428   -0.3451   -1.2715 H   0  0  0  0  0  0  0  0  0  0  0  0
    1.4420   -0.3663    1.7975 H   0  0  0  0  0  0  0  0  0  0  0  0
    2.6616   -0.7598    0.5736 H   0  0  0  0  0  0  0  0  0  0  0  0
    0.5950   -2.2924    1.4882 H   0  0  0  0  0  0  0  0  0  0  0  0
   -2.3687    0.6954    0.7581 H   0  0  0  0  0  0  0  0  0  0  0  0
   -1.2866   -0.3217    1.7494 H   0  0  0  0  0  0  0  0  0  0  0  0
   -0.9073    1.4583    1.4076 H   0  0  0  0  0  0  0  0  0  0  0  0
   -2.1950    0.7833   -1.6443 H   0  0  0  0  0  0  0  0  0  0  0  0
   -0.6392    0.2544   -2.4779 H   0  0  0  0  0  0  0  0  0  0  0  0
   -2.2893   -1.4475   -0.5501 H   0  0  0  0  0  0  0  0  0  0  0  0
   -0.6721   -1.9790   -1.2666 H   0  0  0  0  0  0  0  0  0  0  0  0
  1  2  3  0
  2  3  1  0
  3  4  1  0
  4  5  1  0
  3  6  1  0
  6  7  1  0
  6  8  1  0
  8  9  1  0
  9  6  1  0
  1 10  1  0
  3 11  1  0
  4 12  1  0
  4 13  1  0
  5 14  1  0
  7 15  1  0
  7 16  1  0
  7 17  1  0
  8 18  1  0
  8 19  1  0
  9 20  1  0
  9 21  1  0
M  END
