
     RDKit          3D

 15 16  0  0  0  0  0  0  0  0999 V2000
    1.4206   -2.3069   -0.8442 C   0  0  0  0  0  0  0  0  0  0  0  0
    1.2040   -1.3805   -0.4485 C   0  0  0  0  0  0  0  0  0  0  0  0
    0.9145   -0.0583    0.1336 C   0  0  0  0  0  0  0  0  0  0  0  0
    0.7441    0.2869    1.4396 C   0  0  0  0  0  0  0  0  0  0  0  0
    1.0212    0.0643    2.6864 O   0  0  0  0  0  0  0  0  0  0  0  0
   -0.1700    1.3768    0.9150 C   0  0  0  0  0  0  0  0  0  0  0  0
   -1.3797    1.3553    0.1950 C   0  0  0  0  0  0  0  0  0  0  0  0
   -0.5846    0.1812    0.0100 C   0  0  0  0  0  0  0  0  0  0  0  0
   -1.1688   -0.9219    0.7052 O   0  0  0  0  0  0  0  0  0  0  0  0
    1.6794   -3.4198   -1.2966 H   0  0  0  0  0  0  0  0  0  0  0  0
    1.5404    0.7141   -0.5258 H   0  0  0  0  0  0  0  0  0  0  0  0
    0.5917    2.1081    0.4170 H   0  0  0  0  0  0  0  0  0  0  0  0
   -2.3499    1.3651    0.7611 H   0  0  0  0  0  0  0  0  0  0  0  0
   -1.5487    1.9208   -0.7735 H   0  0  0  0  0  0  0  0  0  0  0  0
   -1.9142   -1.2853    0.1933 H   0  0  0  0  0  0  0  0  0  0  0  0
  1  2  3  0
  2  3  1  0
  3  4  1  0
  4  5  2  0
  4  6  1  0
  6  7  1  0
  7  8  1  0
  8  9  1  0
  8  3  1  0
  8  6  1  0
  1 10  1  0
  3 11  1  0
  6 12  1  0
  7 13  1  0
  7 14  1  0
  9 15  1  0
M  END
