
     RDKit          3D

 17 16  0  0  0  0  0  0  0  0999 V2000
   -0.3554   -0.3551    2.9398 C   0  0  0  0  0  0  0  0  0  0  0  0
   -0.3171   -0.2008    1.7413 C   0  0  0  0  0  0  0  0  0  0  0  0
   -0.2692   -0.0228    0.2889 C   0  0  0  0  0  0  0  0  0  0  0  0
   -0.9617   -1.2029   -0.3337 C   0  0  0  0  0  0  0  0  0  0  0  0
   -1.0273    1.2433   -0.0342 C   0  0  0  0  0  0  0  0  0  0  0  0
   -0.9429    2.1426    0.7805 O   0  0  0  0  0  0  0  0  0  0  0  0
    1.1056    0.1739   -0.1934 C   0  0  0  0  0  0  0  0  0  0  0  0
    1.4855    0.3803   -1.6024 C   0  0  0  0  0  0  0  0  0  0  0  0
    1.9982    0.1650    0.6398 O   0  0  0  0  0  0  0  0  0  0  0  0
   -0.4038   -0.4799    4.0026 H   0  0  0  0  0  0  0  0  0  0  0  0
   -0.8609   -2.1332    0.2644 H   0  0  0  0  0  0  0  0  0  0  0  0
   -0.6417   -1.4256   -1.3482 H   0  0  0  0  0  0  0  0  0  0  0  0
   -2.0454   -0.9696   -0.3671 H   0  0  0  0  0  0  0  0  0  0  0  0
   -1.6072    1.3265   -0.9438 H   0  0  0  0  0  0  0  0  0  0  0  0
    2.1727   -0.4175   -1.9867 H   0  0  0  0  0  0  0  0  0  0  0  0
    0.5654    0.4568   -2.2011 H   0  0  0  0  0  0  0  0  0  0  0  0
    2.1052    1.3191   -1.6467 H   0  0  0  0  0  0  0  0  0  0  0  0
  1  2  3  0
  2  3  1  0
  3  4  1  0
  3  5  1  0
  5  6  2  0
  3  7  1  0
  7  8  1  0
  7  9  2  0
  1 10  1  0
  4 11  1  0
  4 12  1  0
  4 13  1  0
  5 14  1  0
  8 15  1  0
  8 16  1  0
  8 17  1  0
M  END
