
     RDKit          3D

 12 12  0  0  0  0  0  0  0  0999 V2000
    2.3968    0.1424   -0.3906 C   0  0  0  0  0  0  0  0  0  0  0  0
    1.3481   -0.2247    0.0805 C   0  0  0  0  0  0  0  0  0  0  0  0
    0.0649   -0.6497    0.6412 C   0  0  0  0  0  0  0  0  0  0  0  0
   -1.0531   -0.5168   -0.3793 C   0  0  0  0  0  0  0  0  0  0  0  0
   -0.9620    0.8947    0.1025 C   0  0  0  0  0  0  0  0  0  0  0  0
   -0.5408    0.3975    1.3357 O   0  0  0  0  0  0  0  0  0  0  0  0
    3.3306    0.4738   -0.7969 H   0  0  0  0  0  0  0  0  0  0  0  0
    0.0811   -1.6118    1.1777 H   0  0  0  0  0  0  0  0  0  0  0  0
   -1.9329   -1.1007   -0.0765 H   0  0  0  0  0  0  0  0  0  0  0  0
   -0.7216   -0.6782   -1.4336 H   0  0  0  0  0  0  0  0  0  0  0  0
   -1.9099    1.4671    0.1230 H   0  0  0  0  0  0  0  0  0  0  0  0
   -0.1012    1.4062   -0.3837 H   0  0  0  0  0  0  0  0  0  0  0  0
  1  2  3  0
  2  3  1  0
  3  4  1  0
  4  5  1  0
  5  6  1  0
  6  3  1  0
  1  7  1  0
  3  8  1  0
  4  9  1  0
  4 10  1  0
  5 11  1  0
  5 12  1  0
M  END
