
     RDKit          3D

 15 14  0  0  0  0  0  0  0  0999 V2000
   -2.7907    1.2033   -1.6685 C   0  0  0  0  0  0  0  0  0  0  0  0
   -2.1645    0.0877   -1.4713 C   0  0  0  0  0  0  0  0  0  0  0  0
   -1.5099   -1.1178   -1.2624 C   0  0  0  0  0  0  0  0  0  0  0  0
   -0.4357   -0.8981   -0.4810 O   0  0  0  0  0  0  0  0  0  0  0  0
    0.6691   -0.8842    0.2497 C   0  0  0  0  0  0  0  0  0  0  0  0
    1.3087   -1.8987    0.3377 O   0  0  0  0  0  0  0  0  0  0  0  0
    0.9854    0.4329    0.8835 C   0  0  0  0  0  0  0  0  0  0  0  0
    2.3097    0.6146    1.5801 C   0  0  0  0  0  0  0  0  0  0  0  0
    0.2590    1.4454    0.9141 O   0  0  0  0  0  0  0  0  0  0  0  0
   -3.3319    2.1543   -1.8360 H   0  0  0  0  0  0  0  0  0  0  0  0
   -0.9546   -1.1991   -2.3736 H   0  0  0  0  0  0  0  0  0  0  0  0
   -2.1179   -1.9873   -1.3130 H   0  0  0  0  0  0  0  0  0  0  0  0
    2.9634   -0.2136    1.3697 H   0  0  0  0  0  0  0  0  0  0  0  0
    2.7403    1.6052    1.2742 H   0  0  0  0  0  0  0  0  0  0  0  0
    2.0697    0.6554    2.6920 H   0  0  0  0  0  0  0  0  0  0  0  0
  1  2  3  0
  2  3  1  0
  3  4  1  0
  4  5  1  0
  5  6  2  0
  5  7  1  0
  7  8  1  0
  7  9  2  0
  1 10  1  0
  3 11  1  0
  3 12  1  0
  8 13  1  0
  8 14  1  0
  8 15  1  0
M  END
