
     RDKit          3D

 17 17  0  0  0  0  0  0  0  0999 V2000
    3.2777    0.0599   -0.6568 C   0  0  0  0  0  0  0  0  0  0  0  0
    2.1907   -0.2325   -0.2020 C   0  0  0  0  0  0  0  0  0  0  0  0
    0.8818   -0.6038    0.3286 C   0  0  0  0  0  0  0  0  0  0  0  0
    0.1193    0.5484    0.9505 C   0  0  0  0  0  0  0  0  0  0  0  0
   -1.1204    0.0355    0.2448 C   0  0  0  0  0  0  0  0  0  0  0  0
   -1.8219   -0.8138    1.0991 O   0  0  0  0  0  0  0  0  0  0  0  0
   -1.9298    1.1147   -0.3452 C   0  0  0  0  0  0  0  0  0  0  0  0
   -1.3911    1.8991   -1.1022 O   0  0  0  0  0  0  0  0  0  0  0  0
   -0.2074   -0.6779   -0.7281 C   0  0  0  0  0  0  0  0  0  0  0  0
    4.2408    0.2998   -1.0556 H   0  0  0  0  0  0  0  0  0  0  0  0
    0.9200   -1.5203    0.9485 H   0  0  0  0  0  0  0  0  0  0  0  0
    0.0401    0.5080    2.0558 H   0  0  0  0  0  0  0  0  0  0  0  0
    0.4907    1.5140    0.5476 H   0  0  0  0  0  0  0  0  0  0  0  0
   -2.2274   -1.5830    0.6229 H   0  0  0  0  0  0  0  0  0  0  0  0
   -2.9823    1.1954   -0.1005 H   0  0  0  0  0  0  0  0  0  0  0  0
   -0.4977   -1.6964   -0.9969 H   0  0  0  0  0  0  0  0  0  0  0  0
    0.0168   -0.0473   -1.6105 H   0  0  0  0  0  0  0  0  0  0  0  0
  1  2  3  0
  2  3  1  0
  3  4  1  0
  4  5  1  0
  5  6  1  0
  5  7  1  0
  7  8  2  0
  5  9  1  0
  9  3  1  0
  1 10  1  0
  3 11  1  0
  4 12  1  0
  4 13  1  0
  6 14  1  0
  7 15  1  0
  9 16  1  0
  9 17  1  0
M  END
