
     RDKit          3D

 21 21  0  0  0  0  0  0  0  0999 V2000
    1.6336   -0.6106    2.6742 C   0  0  0  0  0  0  0  0  0  0  0  0
    1.1023   -0.1065    1.7006 C   0  0  0  0  0  0  0  0  0  0  0  0
    0.4544    0.4768    0.5231 C   0  0  0  0  0  0  0  0  0  0  0  0
    0.6577   -0.3845   -0.7202 C   0  0  0  0  0  0  0  0  0  0  0  0
    0.0817   -1.6268   -0.4058 O   0  0  0  0  0  0  0  0  0  0  0  0
    0.2059   -2.5124   -1.4727 C   0  0  0  0  0  0  0  0  0  0  0  0
    0.4424    1.9374    0.4267 C   0  0  0  0  0  0  0  0  0  0  0  0
   -0.8174    1.1678    0.7593 C   0  0  0  0  0  0  0  0  0  0  0  0
   -1.9071    1.2673   -0.2433 C   0  0  0  0  0  0  0  0  0  0  0  0
    2.0993   -1.0459    3.5443 H   0  0  0  0  0  0  0  0  0  0  0  0
    1.7337   -0.5711   -0.8992 H   0  0  0  0  0  0  0  0  0  0  0  0
    0.1509    0.0194   -1.5995 H   0  0  0  0  0  0  0  0  0  0  0  0
   -0.3145   -2.0667   -2.3421 H   0  0  0  0  0  0  0  0  0  0  0  0
    1.2792   -2.6982   -1.6384 H   0  0  0  0  0  0  0  0  0  0  0  0
   -0.3503   -3.4327   -1.2090 H   0  0  0  0  0  0  0  0  0  0  0  0
    0.5146    2.4396   -0.5547 H   0  0  0  0  0  0  0  0  0  0  0  0
    0.8315    2.5665    1.2604 H   0  0  0  0  0  0  0  0  0  0  0  0
   -1.1882    1.2283    1.8145 H   0  0  0  0  0  0  0  0  0  0  0  0
   -2.2013    0.2990   -0.6959 H   0  0  0  0  0  0  0  0  0  0  0  0
   -1.5741    1.9039   -1.0858 H   0  0  0  0  0  0  0  0  0  0  0  0
   -2.8344    1.7495    0.1635 H   0  0  0  0  0  0  0  0  0  0  0  0
  1  2  3  0
  2  3  1  0
  3  4  1  0
  4  5  1  0
  5  6  1  0
  3  7  1  0
  7  8  1  0
  8  9  1  0
  8  3  1  0
  1 10  1  0
  4 11  1  0
  4 12  1  0
  6 13  1  0
  6 14  1  0
  6 15  1  0
  7 16  1  0
  7 17  1  0
  8 18  1  0
  9 19  1  0
  9 20  1  0
  9 21  1  0
M  END
