
     RDKit          3D

 15 15  0  0  0  0  0  0  0  0999 V2000
    0.1018   -2.3678   -1.6607 C   0  0  0  0  0  0  0  0  0  0  0  0
    0.1521   -1.3659   -1.1153 C   0  0  0  0  0  0  0  0  0  0  0  0
    0.2043   -0.2038   -0.4845 C   0  0  0  0  0  0  0  0  0  0  0  0
   -0.1543    0.2674    0.5840 C   0  0  0  0  0  0  0  0  0  0  0  0
   -0.9219   -0.3642    1.7943 C   0  0  0  0  0  0  0  0  0  0  0  0
    0.0006    1.7205    0.6090 C   0  0  0  0  0  0  0  0  0  0  0  0
   -0.2725    2.5205    1.6891 O   0  0  0  0  0  0  0  0  0  0  0  0
    0.4759    2.1819   -0.5635 O   0  0  0  0  0  0  0  0  0  0  0  0
    1.0191    0.9490   -1.2209 C   0  0  0  0  0  0  0  0  0  0  0  0
    0.0556   -3.5865   -2.3411 H   0  0  0  0  0  0  0  0  0  0  0  0
   -0.3393   -0.1433    2.7003 H   0  0  0  0  0  0  0  0  0  0  0  0
   -1.1152   -1.3917    1.5415 H   0  0  0  0  0  0  0  0  0  0  0  0
   -1.9512    0.1170    1.8461 H   0  0  0  0  0  0  0  0  0  0  0  0
    2.0397    0.7465   -1.1184 H   0  0  0  0  0  0  0  0  0  0  0  0
    0.7054    0.9205   -2.2597 H   0  0  0  0  0  0  0  0  0  0  0  0
  1  2  3  0
  2  3  1  0
  3  4  2  0
  4  5  1  0
  4  6  1  0
  6  7  2  0
  6  8  1  0
  8  9  1  0
  9  3  1  0
  1 10  1  0
  5 11  1  0
  5 12  1  0
  5 13  1  0
  9 14  1  0
  9 15  1  0
M  END
