
     RDKit          3D

 15 14  0  0  0  0  0  0  0  0999 V2000
    3.4560    0.0645   -2.5053 C   0  0  0  0  0  0  0  0  0  0  0  0
    2.2040   -0.2006   -1.9084 C   0  0  0  0  0  0  0  0  0  0  0  0
    1.0313   -0.4383   -1.3274 C   0  0  0  0  0  0  0  0  0  0  0  0
    0.1997   -0.6197   -0.9267 C   0  0  0  0  0  0  0  0  0  0  0  0
   -1.4433   -0.9671   -0.1551 C   0  0  0  0  0  0  0  0  0  0  0  0
   -0.1724    0.6779    0.1851 C   0  0  0  0  0  0  0  0  0  0  0  0
    0.3668    1.3769    0.3277 C   0  0  0  0  0  0  0  0  0  0  0  0
   -1.1749   -1.2740    1.0626 O   0  0  0  0  0  0  0  0  0  0  0  0
   -1.9196   -0.3124    1.9472 C   0  0  0  0  0  0  0  0  0  0  0  0
    4.4570    0.2598   -2.9847 H   0  0  0  0  0  0  0  0  0  0  0  0
   -1.8965   -0.2774   -0.6767 H   0  0  0  0  0  0  0  0  0  0  0  0
    1.1480    2.3948    0.5151 H   0  0  0  0  0  0  0  0  0  0  0  0
   -1.5426    0.6337    1.7518 H   0  0  0  0  0  0  0  0  0  0  0  0
   -2.9266   -0.4982    1.4664 H   0  0  0  0  0  0  0  0  0  0  0  0
   -1.7868   -0.8197    2.8975 H   0  0  0  0  0  0  0  0  0  0  0  0
  1  2  3  0
  2  3  1  0
  3  4  3  0
  4  5  1  0
  5  6  1  0
  6  7  3  0
  5  8  1  0
  8  9  1  0
  1 10  1  0
  5 11  1  0
  7 12  1  0
  9 13  1  0
  9 14  1  0
  9 15  1  0
M  END
