
     RDKit          3D

 17 19  0  0  0  0  0  0  0  0999 V2000
   -0.1261   -2.7100   -2.4299 C   0  0  0  0  0  0  0  0  0  0  0  0
    0.1093   -1.6123   -1.7603 C   0  0  0  0  0  0  0  0  0  0  0  0
    0.3264   -0.4946   -1.0726 C   0  0  0  0  0  0  0  0  0  0  0  0
    0.2753   -0.5327    0.4461 C   0  0  0  0  0  0  0  0  0  0  0  0
    1.2179    0.4796    0.9928 C   0  0  0  0  0  0  0  0  0  0  0  0
    0.7419    1.6857    0.7578 C   0  0  0  0  0  0  0  0  0  0  0  0
   -0.5804    1.6033    0.0272 C   0  0  0  0  0  0  0  0  0  0  0  0
   -0.7759    0.5616   -1.0045 C   0  0  0  0  0  0  0  0  0  0  0  0
   -0.9939    0.2409    0.4048 C   0  0  0  0  0  0  0  0  0  0  0  0
   -0.3190   -3.6145   -2.9599 H   0  0  0  0  0  0  0  0  0  0  0  0
    1.2641    0.0944   -1.4246 H   0  0  0  0  0  0  0  0  0  0  0  0
    0.2713   -1.5244    0.8977 H   0  0  0  0  0  0  0  0  0  0  0  0
    2.1458    0.2174    1.5146 H   0  0  0  0  0  0  0  0  0  0  0  0
    1.1960    2.6267    1.0245 H   0  0  0  0  0  0  0  0  0  0  0  0
   -1.2737    2.4451    0.1420 H   0  0  0  0  0  0  0  0  0  0  0  0
   -1.5918    0.5683   -1.7422 H   0  0  0  0  0  0  0  0  0  0  0  0
   -1.8871   -0.0346    0.9199 H   0  0  0  0  0  0  0  0  0  0  0  0
  1  2  3  0
  2  3  1  0
  3  4  1  0
  4  5  1  0
  5  6  2  0
  6  7  1  0
  7  8  1  0
  8  9  1  0
  8  3  1  0
  9  4  1  0
  9  7  1  0
  1 10  1  0
  3 11  1  0
  4 12  1  0
  5 13  1  0
  6 14  1  0
  7 15  1  0
  8 16  1  0
  9 17  1  0
M  END
