
     RDKit          3D

 17 16  0  0  0  0  0  0  0  0999 V2000
    5.3547   -1.1207    0.3057 C   0  0  0  0  0  0  0  0  0  0  0  0
    4.1805   -1.0207    0.0623 C   0  0  0  0  0  0  0  0  0  0  0  0
    2.7983   -0.9153   -0.2085 C   0  0  0  0  0  0  0  0  0  0  0  0
    1.5928   -0.8308   -0.4242 C   0  0  0  0  0  0  0  0  0  0  0  0
    0.1841   -0.7130   -0.6639 C   0  0  0  0  0  0  0  0  0  0  0  0
   -0.3360   -1.4349   -1.5348 O   0  0  0  0  0  0  0  0  0  0  0  0
   -0.6404    0.2314    0.0910 C   0  0  0  0  0  0  0  0  0  0  0  0
   -2.0844    0.1951   -0.3172 C   0  0  0  0  0  0  0  0  0  0  0  0
   -2.8742    1.1929    0.5003 C   0  0  0  0  0  0  0  0  0  0  0  0
    6.4035   -1.2145    0.5175 H   0  0  0  0  0  0  0  0  0  0  0  0
   -0.2347    1.2583   -0.0870 H   0  0  0  0  0  0  0  0  0  0  0  0
   -0.5304    0.0702    1.1929 H   0  0  0  0  0  0  0  0  0  0  0  0
   -2.5168   -0.8121   -0.1312 H   0  0  0  0  0  0  0  0  0  0  0  0
   -2.1474    0.4522   -1.3950 H   0  0  0  0  0  0  0  0  0  0  0  0
   -3.4190    0.6671    1.3098 H   0  0  0  0  0  0  0  0  0  0  0  0
   -2.1403    1.9163    0.9532 H   0  0  0  0  0  0  0  0  0  0  0  0
   -3.5903    1.6759   -0.1708 H   0  0  0  0  0  0  0  0  0  0  0  0
  1  2  3  0
  2  3  1  0
  3  4  3  0
  4  5  1  0
  5  6  2  0
  5  7  1  0
  7  8  1  0
  8  9  1  0
  1 10  1  0
  7 11  1  0
  7 12  1  0
  8 13  1  0
  8 14  1  0
  9 15  1  0
  9 16  1  0
  9 17  1  0
M  END
