
     RDKit          3D

 17 17  0  0  0  0  0  0  0  0999 V2000
    3.4785    0.0319   -1.1967 C   0  0  0  0  0  0  0  0  0  0  0  0
    2.2610   -0.0078   -1.2875 C   0  0  0  0  0  0  0  0  0  0  0  0
    0.7983   -0.0659   -1.3771 C   0  0  0  0  0  0  0  0  0  0  0  0
    0.1464   -1.4474   -1.4750 C   0  0  0  0  0  0  0  0  0  0  0  0
    0.0450   -0.6485   -0.2507 C   0  0  0  0  0  0  0  0  0  0  0  0
   -1.1000   -0.0109    0.1579 O   0  0  0  0  0  0  0  0  0  0  0  0
   -1.2252    0.0647    1.5400 C   0  0  0  0  0  0  0  0  0  0  0  0
   -2.4953    0.7713    1.8633 C   0  0  0  0  0  0  0  0  0  0  0  0
   -2.7914    0.9408    3.0478 O   0  0  0  0  0  0  0  0  0  0  0  0
    4.5345    0.0840   -1.1235 H   0  0  0  0  0  0  0  0  0  0  0  0
    0.3160    0.7759   -1.9103 H   0  0  0  0  0  0  0  0  0  0  0  0
    0.8601   -2.3039   -1.5001 H   0  0  0  0  0  0  0  0  0  0  0  0
   -0.6357   -1.5221   -2.2383 H   0  0  0  0  0  0  0  0  0  0  0  0
    0.6841   -0.9996    0.6120 H   0  0  0  0  0  0  0  0  0  0  0  0
   -0.4003    0.6065    2.0062 H   0  0  0  0  0  0  0  0  0  0  0  0
   -1.3019   -0.9365    2.0160 H   0  0  0  0  0  0  0  0  0  0  0  0
   -3.1741    1.1450    1.1160 H   0  0  0  0  0  0  0  0  0  0  0  0
  1  2  3  0
  2  3  1  0
  3  4  1  0
  4  5  1  0
  5  6  1  0
  6  7  1  0
  7  8  1  0
  8  9  2  0
  5  3  1  0
  1 10  1  0
  3 11  1  0
  4 12  1  0
  4 13  1  0
  5 14  1  0
  7 15  1  0
  7 16  1  0
  8 17  1  0
M  END
