
     RDKit          3D

 21 21  0  0  0  0  0  0  0  0999 V2000
    3.9309   -0.0598    0.1452 C   0  0  0  0  0  0  0  0  0  0  0  0
    2.7754   -0.1051    0.4522 C   0  0  0  0  0  0  0  0  0  0  0  0
    1.3736   -0.1447    0.8209 C   0  0  0  0  0  0  0  0  0  0  0  0
    0.6427    1.1005    0.4779 C   0  0  0  0  0  0  0  0  0  0  0  0
   -0.6146    0.7901    0.2102 C   0  0  0  0  0  0  0  0  0  0  0  0
   -1.6660    1.7850   -0.1782 C   0  0  0  0  0  0  0  0  0  0  0  0
   -0.8400   -0.6796    0.3444 C   0  0  0  0  0  0  0  0  0  0  0  0
   -1.7753   -1.2197   -0.6836 C   0  0  0  0  0  0  0  0  0  0  0  0
    0.5866   -1.1910    0.0862 C   0  0  0  0  0  0  0  0  0  0  0  0
    4.9598   -0.0350   -0.1386 H   0  0  0  0  0  0  0  0  0  0  0  0
    1.2297   -0.3272    1.9170 H   0  0  0  0  0  0  0  0  0  0  0  0
    1.0483    2.1108    0.4445 H   0  0  0  0  0  0  0  0  0  0  0  0
   -1.7443    1.8915   -1.2796 H   0  0  0  0  0  0  0  0  0  0  0  0
   -1.4251    2.7986    0.2190 H   0  0  0  0  0  0  0  0  0  0  0  0
   -2.6548    1.5026    0.2320 H   0  0  0  0  0  0  0  0  0  0  0  0
   -1.1813   -0.9774    1.3407 H   0  0  0  0  0  0  0  0  0  0  0  0
   -2.7500   -0.6702   -0.5644 H   0  0  0  0  0  0  0  0  0  0  0  0
   -1.9615   -2.2747   -0.4744 H   0  0  0  0  0  0  0  0  0  0  0  0
   -1.4457   -1.0284   -1.7212 H   0  0  0  0  0  0  0  0  0  0  0  0
    0.7284   -2.2043    0.4647 H   0  0  0  0  0  0  0  0  0  0  0  0
    0.7834   -1.0621   -0.9916 H   0  0  0  0  0  0  0  0  0  0  0  0
  1  2  3  0
  2  3  1  0
  3  4  1  0
  4  5  2  0
  5  6  1  0
  5  7  1  0
  7  8  1  0
  7  9  1  0
  9  3  1  0
  1 10  1  0
  3 11  1  0
  4 12  1  0
  6 13  1  0
  6 14  1  0
  6 15  1  0
  7 16  1  0
  8 17  1  0
  8 18  1  0
  8 19  1  0
  9 20  1  0
  9 21  1  0
M  END
