
     RDKit          3D

 17 17  0  0  0  0  0  0  0  0999 V2000
   -0.4866    1.2089   -2.2842 C   0  0  0  0  0  0  0  0  0  0  0  0
   -0.2836    0.2624   -1.2854 C   0  0  0  0  0  0  0  0  0  0  0  0
   -0.1070   -0.6560   -0.3043 C   0  0  0  0  0  0  0  0  0  0  0  0
    1.2054   -0.8963    0.1667 O   0  0  0  0  0  0  0  0  0  0  0  0
    1.8232    0.2703    0.6978 C   0  0  0  0  0  0  0  0  0  0  0  0
    0.8429    1.4754    0.2996 C   0  0  0  0  0  0  0  0  0  0  0  0
    1.3538    2.4237   -0.1214 O   0  0  0  0  0  0  0  0  0  0  0  0
   -1.1037   -1.8802   -0.2330 C   0  0  0  0  0  0  0  0  0  0  0  0
   -1.2415   -0.7888    0.7160 C   0  0  0  0  0  0  0  0  0  0  0  0
   -0.6408    1.9035   -3.0094 H   0  0  0  0  0  0  0  0  0  0  0  0
    1.6820    0.2372    1.7793 H   0  0  0  0  0  0  0  0  0  0  0  0
    2.7543    0.5660    0.3120 H   0  0  0  0  0  0  0  0  0  0  0  0
   -0.1432    1.2067    0.4962 H   0  0  0  0  0  0  0  0  0  0  0  0
   -0.6715   -2.8333   -0.3908 H   0  0  0  0  0  0  0  0  0  0  0  0
   -1.9468   -1.7082   -1.1040 H   0  0  0  0  0  0  0  0  0  0  0  0
   -0.9436   -0.7684    1.7318 H   0  0  0  0  0  0  0  0  0  0  0  0
   -2.0934   -0.0230    0.4837 H   0  0  0  0  0  0  0  0  0  0  0  0
  1  2  3  0
  2  3  1  0
  3  4  1  0
  4  5  1  0
  5  6  1  0
  6  7  2  0
  3  8  1  0
  8  9  1  0
  9  3  1  0
  1 10  1  0
  5 11  1  0
  5 12  1  0
  6 13  1  0
  8 14  1  0
  8 15  1  0
  9 16  1  0
  9 17  1  0
M  END
