
     RDKit          3D

 13 14  0  0  0  0  0  0  0  0999 V2000
    2.5464    1.3344    1.2797 C   0  0  0  0  0  0  0  0  0  0  0  0
    1.1277    0.6490    0.3393 C   0  0  0  0  0  0  0  0  0  0  0  0
    0.4879    0.3334   -0.1028 C   0  0  0  0  0  0  0  0  0  0  0  0
    0.8140   -1.1151   -0.9767 O   0  0  0  0  0  0  0  0  0  0  0  0
   -0.5287    0.9243   -1.2102 C   0  0  0  0  0  0  0  0  0  0  0  0
   -1.5070    1.8482   -0.7587 O   0  0  0  0  0  0  0  0  0  0  0  0
   -1.8474    1.2411    0.3827 C   0  0  0  0  0  0  0  0  0  0  0  0
   -2.4692    1.2591    1.5310 O   0  0  0  0  0  0  0  0  0  0  0  0
   -1.0267    0.0535   -0.0722 C   0  0  0  0  0  0  0  0  0  0  0  0
    3.3090    1.7047    1.7704 H   0  0  0  0  0  0  0  0  0  0  0  0
    0.9248   -1.5594   -0.0168 H   0  0  0  0  0  0  0  0  0  0  0  0
   -0.4136    0.5671   -2.1855 H   0  0  0  0  0  0  0  0  0  0  0  0
   -1.4172   -0.8660    0.0199 H   0  0  0  0  0  0  0  0  0  0  0  0
  1  2  3  0
  2  3  1  0
  3  4  1  0
  3  5  1  0
  5  6  1  0
  6  7  1  0
  7  8  2  0
  7  9  1  0
  9  3  1  0
  9  5  1  0
  1 10  1  0
  4 11  1  0
  5 12  1  0
  9 13  1  0
M  END
