
     RDKit          3D

 19 19  0  0  0  0  0  0  0  0999 V2000
    1.6308    2.2567   -1.6498 C   0  0  0  0  0  0  0  0  0  0  0  0
    0.9217    1.4337   -1.1014 C   0  0  0  0  0  0  0  0  0  0  0  0
    0.0698    0.4818   -0.4586 C   0  0  0  0  0  0  0  0  0  0  0  0
    0.5201   -0.5790    0.1872 C   0  0  0  0  0  0  0  0  0  0  0  0
    2.0104   -0.7961    0.2488 C   0  0  0  0  0  0  0  0  0  0  0  0
   -0.3979   -1.5164    0.8235 C   0  0  0  0  0  0  0  0  0  0  0  0
   -1.5947   -1.0408    1.2202 O   0  0  0  0  0  0  0  0  0  0  0  0
   -2.0563    0.1148    0.7140 C   0  0  0  0  0  0  0  0  0  0  0  0
   -1.3956    0.6594   -0.4964 C   0  0  0  0  0  0  0  0  0  0  0  0
    2.2546    2.9774   -2.1103 H   0  0  0  0  0  0  0  0  0  0  0  0
    2.2564   -1.3873   -0.6749 H   0  0  0  0  0  0  0  0  0  0  0  0
    2.5193    0.1830    0.2612 H   0  0  0  0  0  0  0  0  0  0  0  0
    2.1890   -1.3966    1.1542 H   0  0  0  0  0  0  0  0  0  0  0  0
    0.1332   -1.9241    1.7355 H   0  0  0  0  0  0  0  0  0  0  0  0
   -0.4789   -2.4200    0.1506 H   0  0  0  0  0  0  0  0  0  0  0  0
   -3.1572    0.0215    0.4884 H   0  0  0  0  0  0  0  0  0  0  0  0
   -2.0119    0.9043    1.5119 H   0  0  0  0  0  0  0  0  0  0  0  0
   -1.8404    0.2598   -1.4471 H   0  0  0  0  0  0  0  0  0  0  0  0
   -1.5724    1.7680   -0.5570 H   0  0  0  0  0  0  0  0  0  0  0  0
  1  2  3  0
  2  3  1  0
  3  4  2  0
  4  5  1  0
  4  6  1  0
  6  7  1  0
  7  8  1  0
  8  9  1  0
  9  3  1  0
  1 10  1  0
  5 11  1  0
  5 12  1  0
  5 13  1  0
  6 14  1  0
  6 15  1  0
  8 16  1  0
  8 17  1  0
  9 18  1  0
  9 19  1  0
M  END
