
     RDKit          3D

 19 20  0  0  0  0  0  0  0  0999 V2000
    3.0506    1.6235    0.3197 C   0  0  0  0  0  0  0  0  0  0  0  0
    2.2636    0.6996    0.3857 C   0  0  0  0  0  0  0  0  0  0  0  0
    1.3226   -0.4166    0.4894 C   0  0  0  0  0  0  0  0  0  0  0  0
    0.6559   -0.6132   -0.8325 C   0  0  0  0  0  0  0  0  0  0  0  0
   -0.8000   -0.6379   -0.4882 C   0  0  0  0  0  0  0  0  0  0  0  0
   -1.3555    0.7450   -0.1940 C   0  0  0  0  0  0  0  0  0  0  0  0
   -1.9913    0.1009    1.0440 C   0  0  0  0  0  0  0  0  0  0  0  0
   -0.8050   -0.8443    1.0125 C   0  0  0  0  0  0  0  0  0  0  0  0
    0.3386   -0.1886    1.4343 O   0  0  0  0  0  0  0  0  0  0  0  0
    3.7452    2.4238    0.2778 H   0  0  0  0  0  0  0  0  0  0  0  0
    1.8284   -1.3624    0.7606 H   0  0  0  0  0  0  0  0  0  0  0  0
    0.9198   -1.5328   -1.3574 H   0  0  0  0  0  0  0  0  0  0  0  0
    0.8616    0.2471   -1.5302 H   0  0  0  0  0  0  0  0  0  0  0  0
   -1.4495   -1.2902   -1.0710 H   0  0  0  0  0  0  0  0  0  0  0  0
   -2.0829    1.1280   -0.9300 H   0  0  0  0  0  0  0  0  0  0  0  0
   -0.5399    1.4186    0.0894 H   0  0  0  0  0  0  0  0  0  0  0  0
   -2.9472   -0.4150    0.7885 H   0  0  0  0  0  0  0  0  0  0  0  0
   -2.0408    0.7681    1.9244 H   0  0  0  0  0  0  0  0  0  0  0  0
   -0.9741   -1.8536    1.3640 H   0  0  0  0  0  0  0  0  0  0  0  0
  1  2  3  0
  2  3  1  0
  3  4  1  0
  4  5  1  0
  5  6  1  0
  6  7  1  0
  7  8  1  0
  8  9  1  0
  9  3  1  0
  8  5  1  0
  1 10  1  0
  3 11  1  0
  4 12  1  0
  4 13  1  0
  5 14  1  0
  6 15  1  0
  6 16  1  0
  7 17  1  0
  7 18  1  0
  8 19  1  0
M  END
