
     RDKit          3D

 21 21  0  0  0  0  0  0  0  0999 V2000
    1.1153    2.9259   -1.1565 C   0  0  0  0  0  0  0  0  0  0  0  0
    0.6691    1.8102   -1.0561 C   0  0  0  0  0  0  0  0  0  0  0  0
    0.1232    0.4560   -0.9088 C   0  0  0  0  0  0  0  0  0  0  0  0
   -0.4306    0.0276    0.3748 C   0  0  0  0  0  0  0  0  0  0  0  0
   -1.5699   -0.9319    0.4900 C   0  0  0  0  0  0  0  0  0  0  0  0
   -2.8234   -0.4240   -0.1917 C   0  0  0  0  0  0  0  0  0  0  0  0
    0.8767   -0.5515   -0.1702 C   0  0  0  0  0  0  0  0  0  0  0  0
    2.0936   -0.2039    0.6573 C   0  0  0  0  0  0  0  0  0  0  0  0
    2.6148   -1.3522    1.2517 O   0  0  0  0  0  0  0  0  0  0  0  0
    1.5314    3.9160   -1.2489 H   0  0  0  0  0  0  0  0  0  0  0  0
   -0.3970    0.1024   -1.8420 H   0  0  0  0  0  0  0  0  0  0  0  0
   -0.3506    0.7688    1.2090 H   0  0  0  0  0  0  0  0  0  0  0  0
   -1.8304   -1.1938    1.5191 H   0  0  0  0  0  0  0  0  0  0  0  0
   -1.3017   -1.8760   -0.0246 H   0  0  0  0  0  0  0  0  0  0  0  0
   -2.6412   -0.4544   -1.3036 H   0  0  0  0  0  0  0  0  0  0  0  0
   -3.6440   -1.1163    0.0003 H   0  0  0  0  0  0  0  0  0  0  0  0
   -3.0207    0.6150    0.1474 H   0  0  0  0  0  0  0  0  0  0  0  0
    0.8511   -1.6069   -0.5338 H   0  0  0  0  0  0  0  0  0  0  0  0
    1.8248    0.4781    1.5166 H   0  0  0  0  0  0  0  0  0  0  0  0
    2.8733    0.2772    0.0555 H   0  0  0  0  0  0  0  0  0  0  0  0
    3.4362   -1.6663    0.7737 H   0  0  0  0  0  0  0  0  0  0  0  0
  1  2  3  0
  2  3  1  0
  3  4  1  0
  4  5  1  0
  5  6  1  0
  4  7  1  0
  7  8  1  0
  8  9  1  0
  7  3  1  0
  1 10  1  0
  3 11  1  0
  4 12  1  0
  5 13  1  0
  5 14  1  0
  6 15  1  0
  6 16  1  0
  6 17  1  0
  7 18  1  0
  8 19  1  0
  8 20  1  0
  9 21  1  0
M  END
