
     RDKit          3D

 17 16  0  0  0  0  0  0  0  0999 V2000
   -1.6986    1.5930   -1.0363 C   0  0  0  0  0  0  0  0  0  0  0  0
   -1.6612    0.4496   -0.6278 C   0  0  0  0  0  0  0  0  0  0  0  0
   -1.6225   -0.9182   -0.1128 C   0  0  0  0  0  0  0  0  0  0  0  0
   -0.6759   -1.0402    1.0697 C   0  0  0  0  0  0  0  0  0  0  0  0
    0.7324   -0.6652    0.7016 C   0  0  0  0  0  0  0  0  0  0  0  0
    0.7482    0.6454    0.2602 O   0  0  0  0  0  0  0  0  0  0  0  0
    2.0316    1.0639   -0.1022 C   0  0  0  0  0  0  0  0  0  0  0  0
   -1.7287    2.5945   -1.4074 H   0  0  0  0  0  0  0  0  0  0  0  0
   -1.3266   -1.5865   -0.9488 H   0  0  0  0  0  0  0  0  0  0  0  0
   -2.6314   -1.1798    0.2540 H   0  0  0  0  0  0  0  0  0  0  0  0
   -1.0430   -0.3280    1.8392 H   0  0  0  0  0  0  0  0  0  0  0  0
   -0.7525   -2.0517    1.5140 H   0  0  0  0  0  0  0  0  0  0  0  0
    1.1630   -1.3549   -0.0495 H   0  0  0  0  0  0  0  0  0  0  0  0
    1.3427   -0.7959    1.6357 H   0  0  0  0  0  0  0  0  0  0  0  0
    1.9354    2.1266   -0.4409 H   0  0  0  0  0  0  0  0  0  0  0  0
    2.7586    0.9547    0.7306 H   0  0  0  0  0  0  0  0  0  0  0  0
    2.4285    0.4926   -0.9517 H   0  0  0  0  0  0  0  0  0  0  0  0
  1  2  3  0
  2  3  1  0
  3  4  1  0
  4  5  1  0
  5  6  1  0
  6  7  1  0
  1  8  1  0
  3  9  1  0
  3 10  1  0
  4 11  1  0
  4 12  1  0
  5 13  1  0
  5 14  1  0
  7 15  1  0
  7 16  1  0
  7 17  1  0
M  END
