
     RDKit          3D

 21 22  0  0  0  0  0  0  0  0999 V2000
    2.1829    2.2068   -0.7177 C   0  0  0  0  0  0  0  0  0  0  0  0
    1.2899    1.6288   -0.1516 C   0  0  0  0  0  0  0  0  0  0  0  0
    0.2060    0.9230    0.5221 C   0  0  0  0  0  0  0  0  0  0  0  0
    0.6379   -0.0521    1.5804 C   0  0  0  0  0  0  0  0  0  0  0  0
    1.3001   -0.8111    0.4643 C   0  0  0  0  0  0  0  0  0  0  0  0
   -0.0661   -0.4230   -0.1008 C   0  0  0  0  0  0  0  0  0  0  0  0
   -0.5222   -0.6922   -1.3543 C   0  0  0  0  0  0  0  0  0  0  0  0
   -1.8987   -0.0718   -1.6287 C   0  0  0  0  0  0  0  0  0  0  0  0
   -0.6087   -0.8269    1.2220 C   0  0  0  0  0  0  0  0  0  0  0  0
    2.9691    2.7322   -1.2353 H   0  0  0  0  0  0  0  0  0  0  0  0
   -0.6624    1.5091    0.8162 H   0  0  0  0  0  0  0  0  0  0  0  0
    0.9904    0.1397    2.4943 H   0  0  0  0  0  0  0  0  0  0  0  0
    2.1487   -0.3109   -0.0149 H   0  0  0  0  0  0  0  0  0  0  0  0
    1.4080   -1.9002    0.6490 H   0  0  0  0  0  0  0  0  0  0  0  0
    0.1281   -0.2968   -2.1762 H   0  0  0  0  0  0  0  0  0  0  0  0
   -0.6483   -1.7695   -1.5899 H   0  0  0  0  0  0  0  0  0  0  0  0
   -2.2198   -0.2708   -2.6719 H   0  0  0  0  0  0  0  0  0  0  0  0
   -2.6360   -0.5433   -0.9273 H   0  0  0  0  0  0  0  0  0  0  0  0
   -1.8838    1.0179   -1.4945 H   0  0  0  0  0  0  0  0  0  0  0  0
   -1.5339   -0.2886    1.5186 H   0  0  0  0  0  0  0  0  0  0  0  0
   -0.5812   -1.9004    1.4832 H   0  0  0  0  0  0  0  0  0  0  0  0
  1  2  3  0
  2  3  1  0
  3  4  1  0
  4  5  1  0
  5  6  1  0
  6  7  1  0
  7  8  1  0
  6  9  1  0
  6  3  1  0
  9  4  1  0
  1 10  1  0
  3 11  1  0
  4 12  1  0
  5 13  1  0
  5 14  1  0
  7 15  1  0
  7 16  1  0
  8 17  1  0
  8 18  1  0
  8 19  1  0
  9 20  1  0
  9 21  1  0
M  END
