
     RDKit          3D

 17 17  0  0  0  0  0  0  0  0999 V2000
    2.8294    0.2943   -1.7164 C   0  0  0  0  0  0  0  0  0  0  0  0
    1.8913   -0.3197   -1.2454 C   0  0  0  0  0  0  0  0  0  0  0  0
    0.7913   -1.0363   -0.6674 C   0  0  0  0  0  0  0  0  0  0  0  0
    0.4039   -2.1449   -1.1158 O   0  0  0  0  0  0  0  0  0  0  0  0
    0.0749   -0.4631    0.5007 C   0  0  0  0  0  0  0  0  0  0  0  0
   -1.0371   -1.3589    0.9540 C   0  0  0  0  0  0  0  0  0  0  0  0
   -0.3712    0.9171    0.1499 C   0  0  0  0  0  0  0  0  0  0  0  0
   -1.1150    1.7282    1.1351 C   0  0  0  0  0  0  0  0  0  0  0  0
   -1.7859    1.1324    0.0711 O   0  0  0  0  0  0  0  0  0  0  0  0
    3.6556    0.8343   -2.1109 H   0  0  0  0  0  0  0  0  0  0  0  0
    0.8186   -0.4184    1.3349 H   0  0  0  0  0  0  0  0  0  0  0  0
   -1.5739   -1.7354    0.0497 H   0  0  0  0  0  0  0  0  0  0  0  0
   -0.6990   -2.1976    1.5736 H   0  0  0  0  0  0  0  0  0  0  0  0
   -1.7568   -0.7141    1.5285 H   0  0  0  0  0  0  0  0  0  0  0  0
    0.1332    1.4229   -0.7168 H   0  0  0  0  0  0  0  0  0  0  0  0
   -1.3117    1.2320    2.1168 H   0  0  0  0  0  0  0  0  0  0  0  0
   -0.9477    2.8272    1.1176 H   0  0  0  0  0  0  0  0  0  0  0  0
  1  2  3  0
  2  3  1  0
  3  4  2  0
  3  5  1  0
  5  6  1  0
  5  7  1  0
  7  8  1  0
  8  9  1  0
  9  7  1  0
  1 10  1  0
  5 11  1  0
  6 12  1  0
  6 13  1  0
  6 14  1  0
  7 15  1  0
  8 16  1  0
  8 17  1  0
M  END
