
     RDKit          3D

 17 19  0  0  0  0  0  0  0  0999 V2000
    3.1704    0.0111    0.9940 C   0  0  0  0  0  0  0  0  0  0  0  0
    2.1044   -0.3846    0.5493 C   0  0  0  0  0  0  0  0  0  0  0  0
    0.8206   -0.8663    0.0396 C   0  0  0  0  0  0  0  0  0  0  0  0
   -0.3087   -0.9113    1.0799 C   0  0  0  0  0  0  0  0  0  0  0  0
   -0.8220    0.4724    0.8987 C   0  0  0  0  0  0  0  0  0  0  0  0
   -1.9067    1.0632    0.2403 C   0  0  0  0  0  0  0  0  0  0  0  0
   -1.2241    0.1676   -0.6042 C   0  0  0  0  0  0  0  0  0  0  0  0
    0.1601    0.0084   -1.0474 C   0  0  0  0  0  0  0  0  0  0  0  0
    0.7015   -1.3412   -1.2058 O   0  0  0  0  0  0  0  0  0  0  0  0
    4.0956    0.3482    1.3980 H   0  0  0  0  0  0  0  0  0  0  0  0
   -1.0808   -1.6355    0.8074 H   0  0  0  0  0  0  0  0  0  0  0  0
    0.0901   -1.0856    2.0860 H   0  0  0  0  0  0  0  0  0  0  0  0
    0.0644    1.1744    1.0247 H   0  0  0  0  0  0  0  0  0  0  0  0
   -1.8922    2.1507   -0.0497 H   0  0  0  0  0  0  0  0  0  0  0  0
   -2.9437    0.8358    0.6227 H   0  0  0  0  0  0  0  0  0  0  0  0
   -1.7937   -0.8040   -0.7599 H   0  0  0  0  0  0  0  0  0  0  0  0
    0.7650    0.7966   -1.5110 H   0  0  0  0  0  0  0  0  0  0  0  0
  1  2  3  0
  2  3  1  0
  3  4  1  0
  4  5  1  0
  5  6  1  0
  6  7  1  0
  7  8  1  0
  8  9  1  0
  8  3  1  0
  9  3  1  0
  7  5  1  0
  1 10  1  0
  4 11  1  0
  4 12  1  0
  5 13  1  0
  6 14  1  0
  6 15  1  0
  7 16  1  0
  8 17  1  0
M  END
