
     RDKit          3D

 13 12  0  0  0  0  0  0  0  0999 V2000
   -2.0561    1.9151    1.2911 C   0  0  0  0  0  0  0  0  0  0  0  0
   -1.3975    0.9138    1.0356 C   0  0  0  0  0  0  0  0  0  0  0  0
   -0.5979   -0.2698    0.7499 C   0  0  0  0  0  0  0  0  0  0  0  0
    0.2407   -0.0180   -0.4408 C   0  0  0  0  0  0  0  0  0  0  0  0
    0.1840    1.0628   -0.9842 O   0  0  0  0  0  0  0  0  0  0  0  0
    1.1345   -1.0597   -0.9657 C   0  0  0  0  0  0  0  0  0  0  0  0
    1.8371   -0.5979   -2.0939 O   0  0  0  0  0  0  0  0  0  0  0  0
   -2.6119    2.7931    1.5164 H   0  0  0  0  0  0  0  0  0  0  0  0
   -1.2614   -1.1528    0.5304 H   0  0  0  0  0  0  0  0  0  0  0  0
    0.0564   -0.5254    1.6115 H   0  0  0  0  0  0  0  0  0  0  0  0
    0.4764   -1.8788   -1.3640 H   0  0  0  0  0  0  0  0  0  0  0  0
    1.7999   -1.5006   -0.2148 H   0  0  0  0  0  0  0  0  0  0  0  0
    2.1957    0.3182   -1.8894 H   0  0  0  0  0  0  0  0  0  0  0  0
  1  2  3  0
  2  3  1  0
  3  4  1  0
  4  5  2  0
  4  6  1  0
  6  7  1  0
  1  8  1  0
  3  9  1  0
  3 10  1  0
  6 11  1  0
  6 12  1  0
  7 13  1  0
M  END
