
     RDKit          3D

 19 18  0  0  0  0  0  0  0  0999 V2000
   -2.3791   -2.1554   -0.0920 C   0  0  0  0  0  0  0  0  0  0  0  0
   -2.2028   -1.3146    0.7971 C   0  0  0  0  0  0  0  0  0  0  0  0
   -2.0091   -0.3859    1.7757 C   0  0  0  0  0  0  0  0  0  0  0  0
   -1.1462    0.6595    0.8128 C   0  0  0  0  0  0  0  0  0  0  0  0
    0.1522   -0.0889    0.3345 C   0  0  0  0  0  0  0  0  0  0  0  0
    0.5100    0.6554   -0.7815 O   0  0  0  0  0  0  0  0  0  0  0  0
    1.3661    0.4697   -1.6568 C   0  0  0  0  0  0  0  0  0  0  0  0
    2.8486    0.6435   -1.1501 C   0  0  0  0  0  0  0  0  0  0  0  0
    4.1113    0.8049   -0.7078 C   0  0  0  0  0  0  0  0  0  0  0  0
   -2.5463   -3.0413   -1.0308 H   0  0  0  0  0  0  0  0  0  0  0  0
   -2.9823    0.2053    1.8681 H   0  0  0  0  0  0  0  0  0  0  0  0
   -1.5460   -0.6100    2.6494 H   0  0  0  0  0  0  0  0  0  0  0  0
   -1.7408    0.7060   -0.1436 H   0  0  0  0  0  0  0  0  0  0  0  0
   -0.8967    1.5813    1.1906 H   0  0  0  0  0  0  0  0  0  0  0  0
   -0.0746   -1.1301    0.3426 H   0  0  0  0  0  0  0  0  0  0  0  0
    0.8999    0.2485    1.1241 H   0  0  0  0  0  0  0  0  0  0  0  0
    1.4310    1.6197   -2.2653 H   0  0  0  0  0  0  0  0  0  0  0  0
    1.3349   -0.0175   -2.6211 H   0  0  0  0  0  0  0  0  0  0  0  0
    4.8699    0.9045   -0.4459 H   0  0  0  0  0  0  0  0  0  0  0  0
  1  2  3  0
  2  3  1  0
  3  4  1  0
  4  5  1  0
  5  6  1  0
  6  7  1  0
  7  8  1  0
  8  9  3  0
  1 10  1  0
  3 11  1  0
  3 12  1  0
  4 13  1  0
  4 14  1  0
  5 15  1  0
  5 16  1  0
  7 17  1  0
  7 18  1  0
  9 19  1  0
M  END
