
     RDKit          3D

 21 22  0  0  0  0  0  0  0  0999 V2000
    0.1214   -2.3480    1.9768 C   0  0  0  0  0  0  0  0  0  0  0  0
   -0.2038   -1.5132    0.6778 C   0  0  0  0  0  0  0  0  0  0  0  0
   -0.4055   -0.9473   -0.1812 C   0  0  0  0  0  0  0  0  0  0  0  0
    1.5960   -1.2645   -0.5002 C   0  0  0  0  0  0  0  0  0  0  0  0
   -0.1120    0.0480   -1.2782 C   0  0  0  0  0  0  0  0  0  0  0  0
   -1.2678    0.9570   -1.6727 C   0  0  0  0  0  0  0  0  0  0  0  0
   -1.5285    1.2490   -0.2062 C   0  0  0  0  0  0  0  0  0  0  0  0
    0.0196    0.6424   -0.0512 C   0  0  0  0  0  0  0  0  0  0  0  0
    0.6123    1.1124    1.1492 C   0  0  0  0  0  0  0  0  0  0  0  0
    0.4015   -3.0916    3.0890 H   0  0  0  0  0  0  0  0  0  0  0  0
    1.4921   -0.3613   -1.2393 H   0  0  0  0  0  0  0  0  0  0  0  0
    1.7500   -0.9143    0.4483 H   0  0  0  0  0  0  0  0  0  0  0  0
    1.3524   -2.1178   -0.9686 H   0  0  0  0  0  0  0  0  0  0  0  0
    0.4298   -0.3478   -2.0910 H   0  0  0  0  0  0  0  0  0  0  0  0
   -0.7908    1.8745   -2.0670 H   0  0  0  0  0  0  0  0  0  0  0  0
   -2.0100    0.4348   -2.2626 H   0  0  0  0  0  0  0  0  0  0  0  0
   -1.4557    2.2258    0.2464 H   0  0  0  0  0  0  0  0  0  0  0  0
   -2.2019    0.5261    0.2740 H   0  0  0  0  0  0  0  0  0  0  0  0
   -0.2048    1.6167    1.8505 H   0  0  0  0  0  0  0  0  0  0  0  0
    0.9947    0.3075    1.7725 H   0  0  0  0  0  0  0  0  0  0  0  0
    1.4114    1.9118    1.0337 H   0  0  0  0  0  0  0  0  0  0  0  0
  1  2  3  0
  2  3  1  0
  3  4  1  0
  3  5  1  0
  5  6  1  0
  6  7  1  0
  7  8  1  0
  8  9  1  0
  8  3  1  0
  8  5  1  0
  1 10  1  0
  4 11  1  0
  4 12  1  0
  4 13  1  0
  5 14  1  0
  6 15  1  0
  6 16  1  0
  7 17  1  0
  7 18  1  0
  9 19  1  0
  9 20  1  0
  9 21  1  0
M  END
