
     RDKit          3D

 19 19  0  0  0  0  0  0  0  0999 V2000
    0.1959    2.2331   -1.4728 C   0  0  0  0  0  0  0  0  0  0  0  0
    0.1876    1.1538   -0.9538 C   0  0  0  0  0  0  0  0  0  0  0  0
    0.1854   -0.1562   -0.2993 C   0  0  0  0  0  0  0  0  0  0  0  0
    1.5727   -0.7381   -0.1305 C   0  0  0  0  0  0  0  0  0  0  0  0
    2.4252    0.1453    0.6911 C   0  0  0  0  0  0  0  0  0  0  0  0
    1.9731    1.1767    1.1229 O   0  0  0  0  0  0  0  0  0  0  0  0
   -0.8432   -1.1774   -0.7315 C   0  0  0  0  0  0  0  0  0  0  0  0
   -0.8928   -0.5600    0.6191 C   0  0  0  0  0  0  0  0  0  0  0  0
   -2.0758    0.2992    0.9143 C   0  0  0  0  0  0  0  0  0  0  0  0
    0.2082    3.2075   -1.9354 H   0  0  0  0  0  0  0  0  0  0  0  0
    1.5611   -1.7568    0.2812 H   0  0  0  0  0  0  0  0  0  0  0  0
    1.9845   -0.8428   -1.1778 H   0  0  0  0  0  0  0  0  0  0  0  0
    3.4385   -0.1303    0.9008 H   0  0  0  0  0  0  0  0  0  0  0  0
   -1.4954   -0.8212   -1.5507 H   0  0  0  0  0  0  0  0  0  0  0  0
   -0.5430   -2.2450   -0.8253 H   0  0  0  0  0  0  0  0  0  0  0  0
   -0.6266   -1.2585    1.4599 H   0  0  0  0  0  0  0  0  0  0  0  0
   -1.9853    1.3321    0.5663 H   0  0  0  0  0  0  0  0  0  0  0  0
   -2.9865   -0.2227    0.4983 H   0  0  0  0  0  0  0  0  0  0  0  0
   -2.2835    0.3613    2.0231 H   0  0  0  0  0  0  0  0  0  0  0  0
  1  2  3  0
  2  3  1  0
  3  4  1  0
  4  5  1  0
  5  6  2  0
  3  7  1  0
  7  8  1  0
  8  9  1  0
  8  3  1  0
  1 10  1  0
  4 11  1  0
  4 12  1  0
  5 13  1  0
  7 14  1  0
  7 15  1  0
  8 16  1  0
  9 17  1  0
  9 18  1  0
  9 19  1  0
M  END
