
     RDKit          3D

 19 19  0  0  0  0  0  0  0  0999 V2000
   -1.3533    2.2615    1.4383 C   0  0  0  0  0  0  0  0  0  0  0  0
   -0.8630    1.1617    1.1978 C   0  0  0  0  0  0  0  0  0  0  0  0
   -0.2974   -0.1600    0.8982 C   0  0  0  0  0  0  0  0  0  0  0  0
   -1.2351   -1.3164    1.1814 C   0  0  0  0  0  0  0  0  0  0  0  0
   -0.5457   -2.4953    0.8429 O   0  0  0  0  0  0  0  0  0  0  0  0
    1.1651   -0.3176    0.9707 C   0  0  0  0  0  0  0  0  0  0  0  0
    0.5267   -0.2680   -0.3961 C   0  0  0  0  0  0  0  0  0  0  0  0
    0.6186    1.0078   -1.1971 C   0  0  0  0  0  0  0  0  0  0  0  0
    1.3905    0.7570   -2.3330 O   0  0  0  0  0  0  0  0  0  0  0  0
   -1.7658    3.2139    1.6306 H   0  0  0  0  0  0  0  0  0  0  0  0
   -1.4317   -1.3992    2.2830 H   0  0  0  0  0  0  0  0  0  0  0  0
   -2.1468   -1.1755    0.6009 H   0  0  0  0  0  0  0  0  0  0  0  0
   -0.9082   -2.9017    0.0155 H   0  0  0  0  0  0  0  0  0  0  0  0
    1.6069   -1.2744    1.2542 H   0  0  0  0  0  0  0  0  0  0  0  0
    1.7699    0.5732    1.2478 H   0  0  0  0  0  0  0  0  0  0  0  0
    0.4073   -1.2185   -0.9554 H   0  0  0  0  0  0  0  0  0  0  0  0
   -0.3617    1.3687   -1.5617 H   0  0  0  0  0  0  0  0  0  0  0  0
    1.1253    1.7579   -0.5470 H   0  0  0  0  0  0  0  0  0  0  0  0
    2.2985    0.4250   -2.0919 H   0  0  0  0  0  0  0  0  0  0  0  0
  1  2  3  0
  2  3  1  0
  3  4  1  0
  4  5  1  0
  3  6  1  0
  6  7  1  0
  7  8  1  0
  8  9  1  0
  7  3  1  0
  1 10  1  0
  4 11  1  0
  4 12  1  0
  5 13  1  0
  6 14  1  0
  6 15  1  0
  7 16  1  0
  8 17  1  0
  8 18  1  0
  9 19  1  0
M  END
