
     RDKit          3D

 17 18  0  0  0  0  0  0  0  0999 V2000
    2.7522    0.8992   -1.0077 C   0  0  0  0  0  0  0  0  0  0  0  0
    1.6325    0.2962   -0.9315 C   0  0  0  0  0  0  0  0  0  0  0  0
    0.3330   -0.4298   -0.8542 C   0  0  0  0  0  0  0  0  0  0  0  0
    0.4111   -1.4827    0.2451 C   0  0  0  0  0  0  0  0  0  0  0  0
   -0.6304   -0.7279    1.0067 C   0  0  0  0  0  0  0  0  0  0  0  0
   -0.3569    0.6898    1.3372 C   0  0  0  0  0  0  0  0  0  0  0  0
   -0.6171    0.3837   -0.1044 C   0  0  0  0  0  0  0  0  0  0  0  0
   -1.9880    0.7376   -0.5895 C   0  0  0  0  0  0  0  0  0  0  0  0
   -2.0859    1.9498   -0.8721 O   0  0  0  0  0  0  0  0  0  0  0  0
    3.6697    1.3879   -1.0618 H   0  0  0  0  0  0  0  0  0  0  0  0
   -0.0116   -0.8845   -1.7780 H   0  0  0  0  0  0  0  0  0  0  0  0
    1.4456   -1.4380    0.6849 H   0  0  0  0  0  0  0  0  0  0  0  0
    0.2034   -2.5195   -0.0137 H   0  0  0  0  0  0  0  0  0  0  0  0
   -1.6426   -1.1680    1.1504 H   0  0  0  0  0  0  0  0  0  0  0  0
    0.7037    0.9470    1.6338 H   0  0  0  0  0  0  0  0  0  0  0  0
   -1.0907    1.3552    1.8104 H   0  0  0  0  0  0  0  0  0  0  0  0
   -2.7280    0.0041   -0.6557 H   0  0  0  0  0  0  0  0  0  0  0  0
  1  2  3  0
  2  3  1  0
  3  4  1  0
  4  5  1  0
  5  6  1  0
  6  7  1  0
  7  8  1  0
  8  9  2  0
  7  3  1  0
  7  5  1  0
  1 10  1  0
  3 11  1  0
  4 12  1  0
  4 13  1  0
  5 14  1  0
  6 15  1  0
  6 16  1  0
  8 17  1  0
M  END
