
     RDKit          3D

 17 18  0  0  0  0  0  0  0  0999 V2000
    3.3566    1.6492   -0.3758 C   0  0  0  0  0  0  0  0  0  0  0  0
    2.3656    0.9731   -0.2705 C   0  0  0  0  0  0  0  0  0  0  0  0
    1.1855    0.1373   -0.1442 C   0  0  0  0  0  0  0  0  0  0  0  0
   -0.0203    0.6994    0.5092 C   0  0  0  0  0  0  0  0  0  0  0  0
   -1.0703   -0.0570    0.2054 C   0  0  0  0  0  0  0  0  0  0  0  0
   -2.4696    0.1761    0.6700 C   0  0  0  0  0  0  0  0  0  0  0  0
   -0.6723   -1.1910   -0.6747 C   0  0  0  0  0  0  0  0  0  0  0  0
    0.8215   -0.9313   -0.9172 C   0  0  0  0  0  0  0  0  0  0  0  0
    1.5136   -1.2283    0.3694 O   0  0  0  0  0  0  0  0  0  0  0  0
    4.2325    2.2654   -0.4679 H   0  0  0  0  0  0  0  0  0  0  0  0
   -0.0813    1.5732    1.1346 H   0  0  0  0  0  0  0  0  0  0  0  0
   -3.2056    0.0945   -0.1532 H   0  0  0  0  0  0  0  0  0  0  0  0
   -2.6966   -0.6197    1.3976 H   0  0  0  0  0  0  0  0  0  0  0  0
   -2.5947    1.1970    1.0941 H   0  0  0  0  0  0  0  0  0  0  0  0
   -0.7455   -2.1679   -0.1703 H   0  0  0  0  0  0  0  0  0  0  0  0
   -1.2260   -1.1818   -1.6289 H   0  0  0  0  0  0  0  0  0  0  0  0
    1.3072   -1.3885   -1.7778 H   0  0  0  0  0  0  0  0  0  0  0  0
  1  2  3  0
  2  3  1  0
  3  4  1  0
  4  5  2  0
  5  6  1  0
  5  7  1  0
  7  8  1  0
  8  9  1  0
  8  3  1  0
  9  3  1  0
  1 10  1  0
  4 11  1  0
  6 12  1  0
  6 13  1  0
  6 14  1  0
  7 15  1  0
  7 16  1  0
  8 17  1  0
M  END
