
     RDKit          3D

 19 20  0  0  0  0  0  0  0  0999 V2000
   -0.3954   -0.7550    3.5861 C   0  0  0  0  0  0  0  0  0  0  0  0
   -0.6251   -0.0835    2.5419 C   0  0  0  0  0  0  0  0  0  0  0  0
   -0.8620    0.6779    1.3710 C   0  0  0  0  0  0  0  0  0  0  0  0
    0.2772    0.3473    0.3994 C   0  0  0  0  0  0  0  0  0  0  0  0
    0.3590    1.0096   -0.9053 C   0  0  0  0  0  0  0  0  0  0  0  0
    1.5014    0.2298   -1.5127 C   0  0  0  0  0  0  0  0  0  0  0  0
    1.1375   -1.0244   -1.2487 C   0  0  0  0  0  0  0  0  0  0  0  0
   -0.0964   -0.8646   -0.5014 C   0  0  0  0  0  0  0  0  0  0  0  0
   -0.8092    0.1954   -1.3562 C   0  0  0  0  0  0  0  0  0  0  0  0
   -0.1825   -1.3441    4.5375 H   0  0  0  0  0  0  0  0  0  0  0  0
   -0.9091    1.7519    1.5275 H   0  0  0  0  0  0  0  0  0  0  0  0
   -1.8031    0.2773    0.8954 H   0  0  0  0  0  0  0  0  0  0  0  0
    1.1784    0.0244    0.9523 H   0  0  0  0  0  0  0  0  0  0  0  0
    0.3788    2.0715   -1.0379 H   0  0  0  0  0  0  0  0  0  0  0  0
    2.3705    0.6302   -2.0059 H   0  0  0  0  0  0  0  0  0  0  0  0
    1.6517   -1.9445   -1.5299 H   0  0  0  0  0  0  0  0  0  0  0  0
   -0.6381   -1.6444   -0.0597 H   0  0  0  0  0  0  0  0  0  0  0  0
   -0.7516   -0.0478   -2.4483 H   0  0  0  0  0  0  0  0  0  0  0  0
   -1.7820    0.4929   -1.0014 H   0  0  0  0  0  0  0  0  0  0  0  0
  1  2  3  0
  2  3  1  0
  3  4  1  0
  4  5  1  0
  5  6  1  0
  6  7  2  0
  7  8  1  0
  8  9  1  0
  8  4  1  0
  9  5  1  0
  1 10  1  0
  3 11  1  0
  3 12  1  0
  4 13  1  0
  5 14  1  0
  6 15  1  0
  7 16  1  0
  8 17  1  0
  9 18  1  0
  9 19  1  0
M  END
