
     RDKit          3D

 17 17  0  0  0  0  0  0  0  0999 V2000
    2.3208   -0.9972   -1.3019 C   0  0  0  0  0  0  0  0  0  0  0  0
    1.3874   -0.6361   -0.6102 C   0  0  0  0  0  0  0  0  0  0  0  0
    0.2410   -0.1782    0.2160 C   0  0  0  0  0  0  0  0  0  0  0  0
   -0.8570   -1.1773    0.0894 C   0  0  0  0  0  0  0  0  0  0  0  0
   -2.0737   -0.8851    0.8592 C   0  0  0  0  0  0  0  0  0  0  0  0
   -2.1344    0.0999    1.5539 O   0  0  0  0  0  0  0  0  0  0  0  0
   -0.1094    1.2377   -0.1833 C   0  0  0  0  0  0  0  0  0  0  0  0
    0.7422    1.5122    1.0154 C   0  0  0  0  0  0  0  0  0  0  0  0
    0.5711    0.2305    1.4786 O   0  0  0  0  0  0  0  0  0  0  0  0
    3.1427   -1.2980   -1.8982 H   0  0  0  0  0  0  0  0  0  0  0  0
   -0.4194   -2.1822    0.3448 H   0  0  0  0  0  0  0  0  0  0  0  0
   -1.0795   -1.2688   -1.0142 H   0  0  0  0  0  0  0  0  0  0  0  0
   -2.9217   -1.5435    0.8131 H   0  0  0  0  0  0  0  0  0  0  0  0
   -1.1612    1.4576   -0.0297 H   0  0  0  0  0  0  0  0  0  0  0  0
    0.3246    1.5464   -1.1575 H   0  0  0  0  0  0  0  0  0  0  0  0
    1.7849    1.8405    0.8170 H   0  0  0  0  0  0  0  0  0  0  0  0
    0.2416    2.2416    1.7154 H   0  0  0  0  0  0  0  0  0  0  0  0
  1  2  3  0
  2  3  1  0
  3  4  1  0
  4  5  1  0
  5  6  2  0
  3  7  1  0
  7  8  1  0
  8  9  1  0
  9  3  1  0
  1 10  1  0
  4 11  1  0
  4 12  1  0
  5 13  1  0
  7 14  1  0
  7 15  1  0
  8 16  1  0
  8 17  1  0
M  END
