
     RDKit          3D

 21 21  0  0  0  0  0  0  0  0999 V2000
    2.5664   -0.5505    1.6941 C   0  0  0  0  0  0  0  0  0  0  0  0
    1.9350   -0.8799    0.5511 C   0  0  0  0  0  0  0  0  0  0  0  0
    1.2931   -1.1895   -0.5778 C   0  0  0  0  0  0  0  0  0  0  0  0
   -0.0943   -0.7751   -0.7227 C   0  0  0  0  0  0  0  0  0  0  0  0
   -0.6109   -1.0896   -1.9888 O   0  0  0  0  0  0  0  0  0  0  0  0
   -0.5384    0.5111   -0.1569 C   0  0  0  0  0  0  0  0  0  0  0  0
    0.0079    1.7992   -0.6689 C   0  0  0  0  0  0  0  0  0  0  0  0
   -0.9191    0.4418    1.3125 C   0  0  0  0  0  0  0  0  0  0  0  0
   -1.9936    0.6187    0.3495 C   0  0  0  0  0  0  0  0  0  0  0  0
    3.0819   -0.2761    2.6677 H   0  0  0  0  0  0  0  0  0  0  0  0
    1.9176   -1.1579   -1.5244 H   0  0  0  0  0  0  0  0  0  0  0  0
    1.1461   -2.4138   -0.4977 H   0  0  0  0  0  0  0  0  0  0  0  0
   -0.6964   -1.5579   -0.0425 H   0  0  0  0  0  0  0  0  0  0  0  0
   -0.8643   -2.0830   -1.9751 H   0  0  0  0  0  0  0  0  0  0  0  0
   -0.5595    2.1143   -1.6155 H   0  0  0  0  0  0  0  0  0  0  0  0
    1.0462    1.6460   -0.9552 H   0  0  0  0  0  0  0  0  0  0  0  0
   -0.1731    2.6457    0.0450 H   0  0  0  0  0  0  0  0  0  0  0  0
   -0.7919   -0.5497    1.7748 H   0  0  0  0  0  0  0  0  0  0  0  0
   -0.6458    1.2763    1.9913 H   0  0  0  0  0  0  0  0  0  0  0  0
   -2.6687   -0.1635    0.0132 H   0  0  0  0  0  0  0  0  0  0  0  0
   -2.4382    1.6334    0.3264 H   0  0  0  0  0  0  0  0  0  0  0  0
  1  2  3  0
  2  3  1  0
  3  4  1  0
  4  5  1  0
  4  6  1  0
  6  7  1  0
  6  8  1  0
  8  9  1  0
  9  6  1  0
  1 10  1  0
  3 11  1  0
  3 12  1  0
  4 13  1  0
  5 14  1  0
  7 15  1  0
  7 16  1  0
  7 17  1  0
  8 18  1  0
  8 19  1  0
  9 20  1  0
  9 21  1  0
M  END
