
     RDKit          3D

 23 23  0  0  0  0  0  0  0  0999 V2000
    3.5276    0.3816   -0.6431 C   0  0  0  0  0  0  0  0  0  0  0  0
    2.4502    0.0603   -0.2209 C   0  0  0  0  0  0  0  0  0  0  0  0
    1.1546   -0.3338    0.3137 C   0  0  0  0  0  0  0  0  0  0  0  0
    0.6703   -1.5834   -0.4229 C   0  0  0  0  0  0  0  0  0  0  0  0
   -0.7783   -1.6184    0.0072 C   0  0  0  0  0  0  0  0  0  0  0  0
   -1.1636   -0.1713    0.2453 C   0  0  0  0  0  0  0  0  0  0  0  0
   -2.3428    0.1877   -0.6121 C   0  0  0  0  0  0  0  0  0  0  0  0
    0.0720    0.6380   -0.1250 C   0  0  0  0  0  0  0  0  0  0  0  0
    0.1362    1.9402    0.6159 C   0  0  0  0  0  0  0  0  0  0  0  0
    4.4865    0.6802   -1.0350 H   0  0  0  0  0  0  0  0  0  0  0  0
    1.1342   -0.4503    1.3971 H   0  0  0  0  0  0  0  0  0  0  0  0
    1.2341   -2.4742   -0.1649 H   0  0  0  0  0  0  0  0  0  0  0  0
    0.6761   -1.3289   -1.5085 H   0  0  0  0  0  0  0  0  0  0  0  0
   -1.3600   -2.0872   -0.8079 H   0  0  0  0  0  0  0  0  0  0  0  0
   -0.8816   -2.2217    0.9363 H   0  0  0  0  0  0  0  0  0  0  0  0
   -1.3937    0.0164    1.3059 H   0  0  0  0  0  0  0  0  0  0  0  0
   -2.2916   -0.2391   -1.6224 H   0  0  0  0  0  0  0  0  0  0  0  0
   -2.4812    1.2884   -0.5964 H   0  0  0  0  0  0  0  0  0  0  0  0
   -3.2486   -0.2423   -0.1162 H   0  0  0  0  0  0  0  0  0  0  0  0
    0.0693    0.7788   -1.2060 H   0  0  0  0  0  0  0  0  0  0  0  0
    0.3499    1.7749    1.6875 H   0  0  0  0  0  0  0  0  0  0  0  0
    0.8592    2.5974    0.1267 H   0  0  0  0  0  0  0  0  0  0  0  0
   -0.8788    2.4067    0.5396 H   0  0  0  0  0  0  0  0  0  0  0  0
  1  2  3  0
  2  3  1  0
  3  4  1  0
  4  5  1  0
  5  6  1  0
  6  7  1  0
  6  8  1  0
  8  9  1  0
  8  3  1  0
  1 10  1  0
  3 11  1  0
  4 12  1  0
  4 13  1  0
  5 14  1  0
  5 15  1  0
  6 16  1  0
  7 17  1  0
  7 18  1  0
  7 19  1  0
  8 20  1  0
  9 21  1  0
  9 22  1  0
  9 23  1  0
M  END
