
     RDKit          3D

 21 21  0  0  0  0  0  0  0  0999 V2000
    0.9584    1.5966   -3.1531 C   0  0  0  0  0  0  0  0  0  0  0  0
    1.4143    0.8186   -2.2820 C   0  0  0  0  0  0  0  0  0  0  0  0
    1.9101   -0.0766   -1.2900 C   0  0  0  0  0  0  0  0  0  0  0  0
    1.8014    0.2942    0.0372 O   0  0  0  0  0  0  0  0  0  0  0  0
    1.1738   -0.9456   -0.4681 C   0  0  0  0  0  0  0  0  0  0  0  0
   -0.2256   -0.9925   -0.0455 C   0  0  0  0  0  0  0  0  0  0  0  0
   -0.7649    0.1715    0.7142 C   0  0  0  0  0  0  0  0  0  0  0  0
   -2.2158   -0.1339    1.0508 C   0  0  0  0  0  0  0  0  0  0  0  0
   -0.0214    0.3731    2.0052 C   0  0  0  0  0  0  0  0  0  0  0  0
    0.5787    2.2637   -3.8738 H   0  0  0  0  0  0  0  0  0  0  0  0
    2.9932   -0.3785   -1.5211 H   0  0  0  0  0  0  0  0  0  0  0  0
    1.7619   -1.8210   -0.0237 H   0  0  0  0  0  0  0  0  0  0  0  0
   -0.4465   -1.9006    0.5410 H   0  0  0  0  0  0  0  0  0  0  0  0
   -0.8561   -1.1202   -0.9779 H   0  0  0  0  0  0  0  0  0  0  0  0
   -0.8160    1.1041    0.1194 H   0  0  0  0  0  0  0  0  0  0  0  0
   -2.2920   -1.2240    1.3042 H   0  0  0  0  0  0  0  0  0  0  0  0
   -2.5108    0.4508    1.9569 H   0  0  0  0  0  0  0  0  0  0  0  0
   -2.8970    0.0989    0.2053 H   0  0  0  0  0  0  0  0  0  0  0  0
   -0.7275    0.2771    2.8537 H   0  0  0  0  0  0  0  0  0  0  0  0
    0.8623   -0.2969    2.1297 H   0  0  0  0  0  0  0  0  0  0  0  0
    0.3196    1.4414    2.0365 H   0  0  0  0  0  0  0  0  0  0  0  0
  1  2  3  0
  2  3  1  0
  3  4  1  0
  4  5  1  0
  5  6  1  0
  6  7  1  0
  7  8  1  0
  7  9  1  0
  5  3  1  0
  1 10  1  0
  3 11  1  0
  5 12  1  0
  6 13  1  0
  6 14  1  0
  7 15  1  0
  8 16  1  0
  8 17  1  0
  8 18  1  0
  9 19  1  0
  9 20  1  0
  9 21  1  0
M  END
