
     RDKit          3D

 23 22  0  0  0  0  0  0  0  0999 V2000
   -2.0304    2.3648   -0.7899 C   0  0  0  0  0  0  0  0  0  0  0  0
   -1.4593    1.4953   -0.1583 C   0  0  0  0  0  0  0  0  0  0  0  0
   -0.7380    0.4345    0.6063 C   0  0  0  0  0  0  0  0  0  0  0  0
   -1.3632   -0.8509    0.1573 C   0  0  0  0  0  0  0  0  0  0  0  0
   -0.8236   -2.0896    0.7830 C   0  0  0  0  0  0  0  0  0  0  0  0
    0.6971    0.6151    0.2371 C   0  0  0  0  0  0  0  0  0  0  0  0
    1.6659   -0.3149    0.8697 C   0  0  0  0  0  0  0  0  0  0  0  0
    0.8912    0.4794   -1.2811 C   0  0  0  0  0  0  0  0  0  0  0  0
    2.2439    0.6616   -1.5193 O   0  0  0  0  0  0  0  0  0  0  0  0
   -2.5161    3.1335   -1.3312 H   0  0  0  0  0  0  0  0  0  0  0  0
   -0.9038    0.6523    1.6629 H   0  0  0  0  0  0  0  0  0  0  0  0
   -1.3893   -0.8806   -0.9509 H   0  0  0  0  0  0  0  0  0  0  0  0
   -2.4518   -0.7744    0.4556 H   0  0  0  0  0  0  0  0  0  0  0  0
   -1.6608   -2.8057    1.0133 H   0  0  0  0  0  0  0  0  0  0  0  0
   -0.1826   -1.9350    1.6688 H   0  0  0  0  0  0  0  0  0  0  0  0
   -0.1913   -2.6799    0.0553 H   0  0  0  0  0  0  0  0  0  0  0  0
    0.9766    1.6609    0.4926 H   0  0  0  0  0  0  0  0  0  0  0  0
    1.5767   -0.3593    1.9752 H   0  0  0  0  0  0  0  0  0  0  0  0
    2.6928    0.1384    0.7011 H   0  0  0  0  0  0  0  0  0  0  0  0
    1.7139   -1.2822    0.3627 H   0  0  0  0  0  0  0  0  0  0  0  0
    0.5738   -0.5479   -1.5510 H   0  0  0  0  0  0  0  0  0  0  0  0
    0.3019    1.2484   -1.7796 H   0  0  0  0  0  0  0  0  0  0  0  0
    2.3765    1.6362   -1.6798 H   0  0  0  0  0  0  0  0  0  0  0  0
  1  2  3  0
  2  3  1  0
  3  4  1  0
  4  5  1  0
  3  6  1  0
  6  7  1  0
  6  8  1  0
  8  9  1  0
  1 10  1  0
  3 11  1  0
  4 12  1  0
  4 13  1  0
  5 14  1  0
  5 15  1  0
  5 16  1  0
  6 17  1  0
  7 18  1  0
  7 19  1  0
  7 20  1  0
  8 21  1  0
  8 22  1  0
  9 23  1  0
M  END
