
     RDKit          3D

 21 21  0  0  0  0  0  0  0  0999 V2000
    3.8596   -0.1647   -0.9843 C   0  0  0  0  0  0  0  0  0  0  0  0
    2.3028   -0.6746   -0.3795 C   0  0  0  0  0  0  0  0  0  0  0  0
    1.4113   -0.9605   -0.0405 C   0  0  0  0  0  0  0  0  0  0  0  0
    0.9898    0.7034    0.8080 C   0  0  0  0  0  0  0  0  0  0  0  0
   -0.3244   -0.0122    0.6513 C   0  0  0  0  0  0  0  0  0  0  0  0
   -1.5127    0.8174    1.1041 C   0  0  0  0  0  0  0  0  0  0  0  0
   -2.7810    0.0331    0.7652 C   0  0  0  0  0  0  0  0  0  0  0  0
    0.0745   -0.2656   -0.7068 C   0  0  0  0  0  0  0  0  0  0  0  0
   -0.6026   -1.0032   -1.6549 O   0  0  0  0  0  0  0  0  0  0  0  0
    4.8105    0.1267   -1.3513 H   0  0  0  0  0  0  0  0  0  0  0  0
    1.1404   -1.3917    0.9846 H   0  0  0  0  0  0  0  0  0  0  0  0
    1.7002    0.7058    1.4867 H   0  0  0  0  0  0  0  0  0  0  0  0
    1.1179    1.2681   -0.1810 H   0  0  0  0  0  0  0  0  0  0  0  0
   -0.2993   -0.9730    1.2785 H   0  0  0  0  0  0  0  0  0  0  0  0
   -1.5245    0.7406    2.2603 H   0  0  0  0  0  0  0  0  0  0  0  0
   -1.5329    1.8633    0.8830 H   0  0  0  0  0  0  0  0  0  0  0  0
   -3.5319    0.0433    1.5802 H   0  0  0  0  0  0  0  0  0  0  0  0
   -3.2487    0.6989   -0.0815 H   0  0  0  0  0  0  0  0  0  0  0  0
   -2.6078   -0.9766    0.3374 H   0  0  0  0  0  0  0  0  0  0  0  0
    0.5888    0.5910   -1.3158 H   0  0  0  0  0  0  0  0  0  0  0  0
   -0.0299   -1.1697   -2.4986 H   0  0  0  0  0  0  0  0  0  0  0  0
  1  2  3  0
  2  3  1  0
  3  4  1  0
  4  5  1  0
  5  6  1  0
  6  7  1  0
  5  8  1  0
  8  9  1  0
  8  3  1  0
  1 10  1  0
  3 11  1  0
  4 12  1  0
  4 13  1  0
  5 14  1  0
  6 15  1  0
  6 16  1  0
  7 17  1  0
  7 18  1  0
  7 19  1  0
  8 20  1  0
  9 21  1  0
M  END
