
     RDKit          3D

 21 20  0  0  0  0  0  0  0  0999 V2000
    1.4639    2.2153    3.8038 C   0  0  0  0  0  0  0  0  0  0  0  0
    1.4017    1.6021    2.5316 C   0  0  0  0  0  0  0  0  0  0  0  0
    1.3415    1.1123    1.4754 C   0  0  0  0  0  0  0  0  0  0  0  0
    1.2804    0.5690    0.2951 C   0  0  0  0  0  0  0  0  0  0  0  0
    1.2222   -0.0275   -1.0558 C   0  0  0  0  0  0  0  0  0  0  0  0
    1.1668   -1.5393   -0.9821 C   0  0  0  0  0  0  0  0  0  0  0  0
   -0.2387    0.3628   -1.5436 C   0  0  0  0  0  0  0  0  0  0  0  0
   -1.2068   -0.2676   -0.7077 C   0  0  0  0  0  0  0  0  0  0  0  0
   -2.1935   -0.8496    0.0654 C   0  0  0  0  0  0  0  0  0  0  0  0
    1.5078    2.6641    4.6957 H   0  0  0  0  0  0  0  0  0  0  0  0
    1.9605    0.3674   -1.6801 H   0  0  0  0  0  0  0  0  0  0  0  0
    0.3501   -1.7987   -0.2423 H   0  0  0  0  0  0  0  0  0  0  0  0
    0.8809   -1.9265   -2.0160 H   0  0  0  0  0  0  0  0  0  0  0  0
    2.1410   -1.9404   -0.7081 H   0  0  0  0  0  0  0  0  0  0  0  0
   -0.2247    1.4568   -1.6230 H   0  0  0  0  0  0  0  0  0  0  0  0
   -0.2607   -0.1331   -2.5553 H   0  0  0  0  0  0  0  0  0  0  0  0
   -2.1052    0.7232   -1.1713 H   0  0  0  0  0  0  0  0  0  0  0  0
   -0.9441    0.6683    0.2679 H   0  0  0  0  0  0  0  0  0  0  0  0
   -1.7958   -1.2019    1.0928 H   0  0  0  0  0  0  0  0  0  0  0  0
   -2.6536   -1.8229   -0.3450 H   0  0  0  0  0  0  0  0  0  0  0  0
   -3.0939   -0.2338    0.4025 H   0  0  0  0  0  0  0  0  0  0  0  0
  1  2  3  0
  2  3  1  0
  3  4  3  0
  4  5  1  0
  5  6  1  0
  5  7  1  0
  7  8  1  0
  8  9  1  0
  1 10  1  0
  5 11  1  0
  6 12  1  0
  6 13  1  0
  6 14  1  0
  7 15  1  0
  7 16  1  0
  8 17  1  0
  8 18  1  0
  9 19  1  0
  9 20  1  0
  9 21  1  0
M  END
