
     RDKit          3D

 19 18  0  0  0  0  0  0  0  0999 V2000
    4.2715    0.5198    0.8561 C   0  0  0  0  0  0  0  0  0  0  0  0
    2.7200    0.7401    1.0891 C   0  0  0  0  0  0  0  0  0  0  0  0
    1.6766    0.9073    1.2467 C   0  0  0  0  0  0  0  0  0  0  0  0
    0.5744   -0.0586    1.1128 O   0  0  0  0  0  0  0  0  0  0  0  0
    0.1663   -0.0164   -0.2407 C   0  0  0  0  0  0  0  0  0  0  0  0
    0.6291   -1.3016   -0.8439 C   0  0  0  0  0  0  0  0  0  0  0  0
   -1.1810    0.2298   -0.3345 C   0  0  0  0  0  0  0  0  0  0  0  0
   -2.7911    0.5106   -0.4332 C   0  0  0  0  0  0  0  0  0  0  0  0
   -3.6719    0.6707   -0.5013 C   0  0  0  0  0  0  0  0  0  0  0  0
    5.3801    0.3807    0.6942 H   0  0  0  0  0  0  0  0  0  0  0  0
    1.1763    1.7264    0.4372 H   0  0  0  0  0  0  0  0  0  0  0  0
    1.2566    1.5295    2.1950 H   0  0  0  0  0  0  0  0  0  0  0  0
    0.7690    0.8240   -0.7417 H   0  0  0  0  0  0  0  0  0  0  0  0
   -0.2141   -1.6932   -1.4835 H   0  0  0  0  0  0  0  0  0  0  0  0
    1.0086   -2.0733   -0.1707 H   0  0  0  0  0  0  0  0  0  0  0  0
    1.4978   -1.0305   -1.5702 H   0  0  0  0  0  0  0  0  0  0  0  0
   -4.6628   -0.0416   -0.0814 H   0  0  0  0  0  0  0  0  0  0  0  0
   -4.1827    1.6288    0.2398 H   0  0  0  0  0  0  0  0  0  0  0  0
   -4.4226    1.0425   -1.4700 H   0  0  0  0  0  0  0  0  0  0  0  0
  1  2  3  0
  2  3  1  0
  3  4  1  0
  4  5  1  0
  5  6  1  0
  5  7  1  0
  7  8  3  0
  8  9  1  0
  1 10  1  0
  3 11  1  0
  3 12  1  0
  5 13  1  0
  6 14  1  0
  6 15  1  0
  6 16  1  0
  9 17  1  0
  9 18  1  0
  9 19  1  0
M  END
