
     RDKit          3D

 21 21  0  0  0  0  0  0  0  0999 V2000
    2.2504    2.5393    0.6176 C   0  0  0  0  0  0  0  0  0  0  0  0
    1.6974    1.3346    0.5109 C   0  0  0  0  0  0  0  0  0  0  0  0
    1.0822    0.0391    0.3783 C   0  0  0  0  0  0  0  0  0  0  0  0
    2.0468   -0.9499   -0.2695 C   0  0  0  0  0  0  0  0  0  0  0  0
   -0.1369    0.2756   -0.5143 C   0  0  0  0  0  0  0  0  0  0  0  0
   -0.9393   -0.8859   -0.9017 C   0  0  0  0  0  0  0  0  0  0  0  0
   -2.2111   -0.7452   -0.0954 C   0  0  0  0  0  0  0  0  0  0  0  0
   -1.9146    0.4215    0.8370 C   0  0  0  0  0  0  0  0  0  0  0  0
   -0.9450    1.1712    0.1977 O   0  0  0  0  0  0  0  0  0  0  0  0
    2.6333    3.3930    0.6833 H   0  0  0  0  0  0  0  0  0  0  0  0
    0.8132   -0.3260    1.3639 H   0  0  0  0  0  0  0  0  0  0  0  0
    1.9630   -0.9072   -1.3775 H   0  0  0  0  0  0  0  0  0  0  0  0
    3.0819   -0.6364    0.0392 H   0  0  0  0  0  0  0  0  0  0  0  0
    1.9235   -1.9857    0.0623 H   0  0  0  0  0  0  0  0  0  0  0  0
    0.2742    0.8044   -1.4376 H   0  0  0  0  0  0  0  0  0  0  0  0
   -0.4684   -1.8660   -0.7557 H   0  0  0  0  0  0  0  0  0  0  0  0
   -1.2628   -0.7297   -1.9695 H   0  0  0  0  0  0  0  0  0  0  0  0
   -3.0960   -0.4749   -0.6649 H   0  0  0  0  0  0  0  0  0  0  0  0
   -2.4139   -1.6575    0.5079 H   0  0  0  0  0  0  0  0  0  0  0  0
   -1.5648    0.0924    1.8343 H   0  0  0  0  0  0  0  0  0  0  0  0
   -2.8131    1.0934    0.9536 H   0  0  0  0  0  0  0  0  0  0  0  0
  1  2  3  0
  2  3  1  0
  3  4  1  0
  3  5  1  0
  5  6  1  0
  6  7  1  0
  7  8  1  0
  8  9  1  0
  9  5  1  0
  1 10  1  0
  3 11  1  0
  4 12  1  0
  4 13  1  0
  4 14  1  0
  5 15  1  0
  6 16  1  0
  6 17  1  0
  7 18  1  0
  7 19  1  0
  8 20  1  0
  8 21  1  0
M  END
