
     RDKit          3D

 13 12  0  0  0  0  0  0  0  0999 V2000
   -4.0214    0.7194    1.0320 C   0  0  0  0  0  0  0  0  0  0  0  0
   -3.0082    0.1741    0.3368 C   0  0  0  0  0  0  0  0  0  0  0  0
   -1.9466   -0.4154   -0.3959 C   0  0  0  0  0  0  0  0  0  0  0  0
   -2.2619   -1.2074   -1.3650 O   0  0  0  0  0  0  0  0  0  0  0  0
   -0.5794   -0.1774   -0.1206 C   0  0  0  0  0  0  0  0  0  0  0  0
    0.6866    0.0255    0.1438 C   0  0  0  0  0  0  0  0  0  0  0  0
    2.0637    0.2455    0.4294 C   0  0  0  0  0  0  0  0  0  0  0  0
    2.8571   -0.4018   -0.6351 C   0  0  0  0  0  0  0  0  0  0  0  0
    3.5959    0.1660   -1.3947 O   0  0  0  0  0  0  0  0  0  0  0  0
   -4.7500    1.1216    1.5204 H   0  0  0  0  0  0  0  0  0  0  0  0
    2.3681    1.3457    0.4388 H   0  0  0  0  0  0  0  0  0  0  0  0
    2.3074   -0.0743    1.4722 H   0  0  0  0  0  0  0  0  0  0  0  0
    2.6887   -1.5216   -0.6719 H   0  0  0  0  0  0  0  0  0  0  0  0
  1  2  3  0
  2  3  1  0
  3  4  2  0
  3  5  1  0
  5  6  3  0
  6  7  1  0
  7  8  1  0
  8  9  2  0
  1 10  1  0
  7 11  1  0
  7 12  1  0
  8 13  1  0
M  END
