
     RDKit          3D

 17 17  0  0  0  0  0  0  0  0999 V2000
    2.9233    0.7588   -0.5085 C   0  0  0  0  0  0  0  0  0  0  0  0
    1.8892    0.3426   -0.0469 C   0  0  0  0  0  0  0  0  0  0  0  0
    0.6483   -0.1581    0.4802 C   0  0  0  0  0  0  0  0  0  0  0  0
    0.3376   -1.5985    0.2381 C   0  0  0  0  0  0  0  0  0  0  0  0
   -1.0219   -1.2010   -0.3192 C   0  0  0  0  0  0  0  0  0  0  0  0
   -0.5941    0.2500   -0.2954 C   0  0  0  0  0  0  0  0  0  0  0  0
   -0.3404    0.7952   -1.5497 O   0  0  0  0  0  0  0  0  0  0  0  0
   -1.5017    1.1143    0.4598 C   0  0  0  0  0  0  0  0  0  0  0  0
   -2.2533    1.8395    1.0978 C   0  0  0  0  0  0  0  0  0  0  0  0
    3.8544    1.1210   -0.9114 H   0  0  0  0  0  0  0  0  0  0  0  0
    0.5066    0.1003    1.5695 H   0  0  0  0  0  0  0  0  0  0  0  0
    0.2123   -2.2212    1.1593 H   0  0  0  0  0  0  0  0  0  0  0  0
    0.9932   -2.1298   -0.4670 H   0  0  0  0  0  0  0  0  0  0  0  0
   -1.1282   -1.5903   -1.3405 H   0  0  0  0  0  0  0  0  0  0  0  0
   -1.8791   -1.4533    0.3308 H   0  0  0  0  0  0  0  0  0  0  0  0
    0.2633    1.5547   -1.5315 H   0  0  0  0  0  0  0  0  0  0  0  0
   -2.9096    2.4759    1.6346 H   0  0  0  0  0  0  0  0  0  0  0  0
  1  2  3  0
  2  3  1  0
  3  4  1  0
  4  5  1  0
  5  6  1  0
  6  7  1  0
  6  8  1  0
  8  9  3  0
  6  3  1  0
  1 10  1  0
  3 11  1  0
  4 12  1  0
  4 13  1  0
  5 14  1  0
  5 15  1  0
  7 16  1  0
  9 17  1  0
M  END
