
     RDKit          3D

 17 18  0  0  0  0  0  0  0  0999 V2000
    1.5094    2.0152    0.8136 C   0  0  0  0  0  0  0  0  0  0  0  0
    0.5656    1.0036    1.1479 C   0  0  0  0  0  0  0  0  0  0  0  0
   -0.2220    0.1432    1.4172 C   0  0  0  0  0  0  0  0  0  0  0  0
    0.2928   -1.2501    0.7658 C   0  0  0  0  0  0  0  0  0  0  0  0
    0.3804   -0.9870   -0.7201 C   0  0  0  0  0  0  0  0  0  0  0  0
    0.2969    0.1695   -1.5474 C   0  0  0  0  0  0  0  0  0  0  0  0
   -0.9809   -0.3692   -0.9081 C   0  0  0  0  0  0  0  0  0  0  0  0
   -1.3603    0.3259    0.2431 C   0  0  0  0  0  0  0  0  0  0  0  0
   -2.2592    1.0381    0.6254 O   0  0  0  0  0  0  0  0  0  0  0  0
    2.4629    3.0040    0.4730 H   0  0  0  0  0  0  0  0  0  0  0  0
   -0.7018   -0.0105    2.3327 H   0  0  0  0  0  0  0  0  0  0  0  0
    1.0495   -1.6482    1.3264 H   0  0  0  0  0  0  0  0  0  0  0  0
   -0.6800   -1.8454    0.7976 H   0  0  0  0  0  0  0  0  0  0  0  0
    0.5748   -1.9733   -1.3006 H   0  0  0  0  0  0  0  0  0  0  0  0
    0.1011    0.1841   -2.6657 H   0  0  0  0  0  0  0  0  0  0  0  0
    0.6460    1.1859   -1.2616 H   0  0  0  0  0  0  0  0  0  0  0  0
   -1.6752   -0.9857   -1.5392 H   0  0  0  0  0  0  0  0  0  0  0  0
  1  2  3  0
  2  3  1  0
  3  4  1  0
  4  5  1  0
  5  6  1  0
  6  7  1  0
  7  8  1  0
  8  9  2  0
  8  3  1  0
  7  5  1  0
  1 10  1  0
  3 11  1  0
  4 12  1  0
  4 13  1  0
  5 14  1  0
  6 15  1  0
  6 16  1  0
  7 17  1  0
M  END
