
     RDKit          3D

 19 19  0  0  0  0  0  0  0  0999 V2000
   -3.1638   -0.0593   -2.2447 C   0  0  0  0  0  0  0  0  0  0  0  0
   -2.3212   -0.7138   -1.6737 C   0  0  0  0  0  0  0  0  0  0  0  0
   -1.2873   -1.5257   -0.9672 C   0  0  0  0  0  0  0  0  0  0  0  0
   -0.3097   -0.3123   -0.5303 C   0  0  0  0  0  0  0  0  0  0  0  0
    0.9382   -0.8039    0.2276 C   0  0  0  0  0  0  0  0  0  0  0  0
    1.3051    0.1244    1.0191 C   0  0  0  0  0  0  0  0  0  0  0  0
    2.2190    0.6373    2.0421 C   0  0  0  0  0  0  0  0  0  0  0  0
    0.1892    1.2808    0.6294 C   0  0  0  0  0  0  0  0  0  0  0  0
   -0.8560    0.3544    0.6210 O   0  0  0  0  0  0  0  0  0  0  0  0
   -4.0078    0.6229   -2.8300 H   0  0  0  0  0  0  0  0  0  0  0  0
   -1.5895   -2.0880   -0.1843 H   0  0  0  0  0  0  0  0  0  0  0  0
   -0.6748   -2.0876   -1.6751 H   0  0  0  0  0  0  0  0  0  0  0  0
   -0.0533    0.4781   -1.2012 H   0  0  0  0  0  0  0  0  0  0  0  0
    1.4449   -1.7681    0.1146 H   0  0  0  0  0  0  0  0  0  0  0  0
    2.1639    1.7223    2.2017 H   0  0  0  0  0  0  0  0  0  0  0  0
    3.2929    0.4716    1.8006 H   0  0  0  0  0  0  0  0  0  0  0  0
    2.0576    0.1236    3.0559 H   0  0  0  0  0  0  0  0  0  0  0  0
    0.4993    1.5404   -0.3744 H   0  0  0  0  0  0  0  0  0  0  0  0
    0.1532    2.0030    1.4027 H   0  0  0  0  0  0  0  0  0  0  0  0
  1  2  3  0
  2  3  1  0
  3  4  1  0
  4  5  1  0
  5  6  2  0
  6  7  1  0
  6  8  1  0
  8  9  1  0
  9  4  1  0
  1 10  1  0
  3 11  1  0
  3 12  1  0
  4 13  1  0
  5 14  1  0
  7 15  1  0
  7 16  1  0
  7 17  1  0
  8 18  1  0
  8 19  1  0
M  END
