
     RDKit          3D

 19 19  0  0  0  0  0  0  0  0999 V2000
   -1.8607    2.2395   -0.3458 C   0  0  0  0  0  0  0  0  0  0  0  0
   -1.3714    1.1504   -0.3002 C   0  0  0  0  0  0  0  0  0  0  0  0
   -0.7691   -0.1767   -0.2688 C   0  0  0  0  0  0  0  0  0  0  0  0
    0.5755   -0.2526   -0.5111 O   0  0  0  0  0  0  0  0  0  0  0  0
    1.3665    0.4420    0.3617 C   0  0  0  0  0  0  0  0  0  0  0  0
    2.8204    0.2284   -0.0814 C   0  0  0  0  0  0  0  0  0  0  0  0
   -1.1649   -1.0139    0.9274 C   0  0  0  0  0  0  0  0  0  0  0  0
   -1.1486   -2.1252    0.0919 O   0  0  0  0  0  0  0  0  0  0  0  0
   -1.5867   -1.2626   -0.9394 C   0  0  0  0  0  0  0  0  0  0  0  0
   -2.3120    3.1995   -0.3852 H   0  0  0  0  0  0  0  0  0  0  0  0
    1.3085    0.0278    1.3888 H   0  0  0  0  0  0  0  0  0  0  0  0
    1.1372    1.5183    0.4296 H   0  0  0  0  0  0  0  0  0  0  0  0
    3.1805    1.1054   -0.6780 H   0  0  0  0  0  0  0  0  0  0  0  0
    3.4814    0.0337    0.7896 H   0  0  0  0  0  0  0  0  0  0  0  0
    2.8884   -0.7021   -0.7108 H   0  0  0  0  0  0  0  0  0  0  0  0
   -2.1890   -0.7834    1.3341 H   0  0  0  0  0  0  0  0  0  0  0  0
   -0.4308   -0.9806    1.7278 H   0  0  0  0  0  0  0  0  0  0  0  0
   -1.2482   -1.5760   -1.9311 H   0  0  0  0  0  0  0  0  0  0  0  0
   -2.6768   -1.0720   -0.8991 H   0  0  0  0  0  0  0  0  0  0  0  0
  1  2  3  0
  2  3  1  0
  3  4  1  0
  4  5  1  0
  5  6  1  0
  3  7  1  0
  7  8  1  0
  8  9  1  0
  9  3  1  0
  1 10  1  0
  5 11  1  0
  5 12  1  0
  6 13  1  0
  6 14  1  0
  6 15  1  0
  7 16  1  0
  7 17  1  0
  9 18  1  0
  9 19  1  0
M  END
