
     RDKit          3D

 17 17  0  0  0  0  0  0  0  0999 V2000
    2.7452   -1.0676    0.3813 C   0  0  0  0  0  0  0  0  0  0  0  0
    1.7215   -0.8643   -0.2296 C   0  0  0  0  0  0  0  0  0  0  0  0
    0.4753   -0.6173   -0.9559 C   0  0  0  0  0  0  0  0  0  0  0  0
   -0.4571    0.1485   -0.0692 C   0  0  0  0  0  0  0  0  0  0  0  0
    0.1195    1.4762    0.3534 C   0  0  0  0  0  0  0  0  0  0  0  0
   -1.8888    0.1554   -0.4871 C   0  0  0  0  0  0  0  0  0  0  0  0
   -2.1098   -0.9284    0.3965 O   0  0  0  0  0  0  0  0  0  0  0  0
   -0.9321   -0.6856    1.0613 C   0  0  0  0  0  0  0  0  0  0  0  0
   -0.4482   -1.0321    2.1824 O   0  0  0  0  0  0  0  0  0  0  0  0
    3.6602   -1.2514    0.9138 H   0  0  0  0  0  0  0  0  0  0  0  0
   -0.0373   -1.5726   -1.2360 H   0  0  0  0  0  0  0  0  0  0  0  0
    0.7254   -0.0062   -1.8463 H   0  0  0  0  0  0  0  0  0  0  0  0
   -0.6591    2.1744    0.7213 H   0  0  0  0  0  0  0  0  0  0  0  0
    0.6460    1.9377   -0.5077 H   0  0  0  0  0  0  0  0  0  0  0  0
    0.8914    1.2912    1.1342 H   0  0  0  0  0  0  0  0  0  0  0  0
   -2.4390    1.0732   -0.2715 H   0  0  0  0  0  0  0  0  0  0  0  0
   -2.0132   -0.2310   -1.5409 H   0  0  0  0  0  0  0  0  0  0  0  0
  1  2  3  0
  2  3  1  0
  3  4  1  0
  4  5  1  0
  4  6  1  0
  6  7  1  0
  7  8  1  0
  8  9  2  0
  8  4  1  0
  1 10  1  0
  3 11  1  0
  3 12  1  0
  5 13  1  0
  5 14  1  0
  5 15  1  0
  6 16  1  0
  6 17  1  0
M  END
