
     RDKit          3D

 17 16  0  0  0  0  0  0  0  0999 V2000
   -2.3484    3.0942   -0.8449 C   0  0  0  0  0  0  0  0  0  0  0  0
   -1.7888    1.6768   -0.8343 C   0  0  0  0  0  0  0  0  0  0  0  0
   -1.2709    0.3611   -0.8017 C   0  0  0  0  0  0  0  0  0  0  0  0
    0.0459    0.2607   -0.4894 C   0  0  0  0  0  0  0  0  0  0  0  0
    1.3952    0.1508   -0.1454 C   0  0  0  0  0  0  0  0  0  0  0  0
    2.9111    0.0092    0.2384 C   0  0  0  0  0  0  0  0  0  0  0  0
    3.1073   -1.2447    0.7033 O   0  0  0  0  0  0  0  0  0  0  0  0
   -1.6945   -0.3157    0.3789 O   0  0  0  0  0  0  0  0  0  0  0  0
   -1.6763   -1.5029    0.8258 C   0  0  0  0  0  0  0  0  0  0  0  0
   -2.6456    3.8282   -0.8625 H   0  0  0  0  0  0  0  0  0  0  0  0
   -1.3274   -0.2531   -1.7205 H   0  0  0  0  0  0  0  0  0  0  0  0
    3.1997    0.8269    0.8161 H   0  0  0  0  0  0  0  0  0  0  0  0
    3.3961    0.0914   -0.8417 H   0  0  0  0  0  0  0  0  0  0  0  0
    3.7645   -1.0862    1.5717 H   0  0  0  0  0  0  0  0  0  0  0  0
   -1.5032   -1.4199    2.0376 H   0  0  0  0  0  0  0  0  0  0  0  0
   -2.6545   -2.1690    0.7621 H   0  0  0  0  0  0  0  0  0  0  0  0
   -0.9101   -2.3078    0.5106 H   0  0  0  0  0  0  0  0  0  0  0  0
  1  2  3  0
  2  3  1  0
  3  4  1  0
  4  5  3  0
  5  6  1  0
  6  7  1  0
  3  8  1  0
  8  9  1  0
  1 10  1  0
  3 11  1  0
  6 12  1  0
  6 13  1  0
  7 14  1  0
  9 15  1  0
  9 16  1  0
  9 17  1  0
M  END
