
     RDKit          3D

 19 19  0  0  0  0  0  0  0  0999 V2000
    3.1921    1.5173   -1.2809 C   0  0  0  0  0  0  0  0  0  0  0  0
    2.1794    0.9606   -0.9304 C   0  0  0  0  0  0  0  0  0  0  0  0
    0.9601    0.3094   -0.4929 C   0  0  0  0  0  0  0  0  0  0  0  0
   -0.2820    0.5743   -0.8458 C   0  0  0  0  0  0  0  0  0  0  0  0
   -1.1845   -0.3346   -0.1536 C   0  0  0  0  0  0  0  0  0  0  0  0
   -1.8391    0.2645    1.0628 C   0  0  0  0  0  0  0  0  0  0  0  0
   -0.9196    0.6630    2.0021 O   0  0  0  0  0  0  0  0  0  0  0  0
   -0.3277   -1.5363    0.1620 C   0  0  0  0  0  0  0  0  0  0  0  0
    0.9996   -0.8312    0.4808 C   0  0  0  0  0  0  0  0  0  0  0  0
    4.0855    2.0103   -1.6076 H   0  0  0  0  0  0  0  0  0  0  0  0
   -0.4926    1.3790   -1.5601 H   0  0  0  0  0  0  0  0  0  0  0  0
   -1.9434   -0.6861   -0.8831 H   0  0  0  0  0  0  0  0  0  0  0  0
   -2.4202    1.1445    0.7063 H   0  0  0  0  0  0  0  0  0  0  0  0
   -2.5531   -0.4299    1.5061 H   0  0  0  0  0  0  0  0  0  0  0  0
   -1.4058    1.2330    2.6639 H   0  0  0  0  0  0  0  0  0  0  0  0
   -0.6944   -2.0556    1.0628 H   0  0  0  0  0  0  0  0  0  0  0  0
   -0.2307   -2.1933   -0.7014 H   0  0  0  0  0  0  0  0  0  0  0  0
    1.0400   -0.5034    1.5187 H   0  0  0  0  0  0  0  0  0  0  0  0
    1.8363   -1.4856    0.1688 H   0  0  0  0  0  0  0  0  0  0  0  0
  1  2  3  0
  2  3  1  0
  3  4  2  0
  4  5  1  0
  5  6  1  0
  6  7  1  0
  5  8  1  0
  8  9  1  0
  9  3  1  0
  1 10  1  0
  4 11  1  0
  5 12  1  0
  6 13  1  0
  6 14  1  0
  7 15  1  0
  8 16  1  0
  8 17  1  0
  9 18  1  0
  9 19  1  0
M  END
