
     RDKit          3D

 19 18  0  0  0  0  0  0  0  0999 V2000
    2.6625   -1.9251    0.3776 C   0  0  0  0  0  0  0  0  0  0  0  0
    1.4870   -1.8582    0.1374 C   0  0  0  0  0  0  0  0  0  0  0  0
    0.0442   -1.7919   -0.1767 C   0  0  0  0  0  0  0  0  0  0  0  0
   -0.3465   -0.3139   -0.0148 C   0  0  0  0  0  0  0  0  0  0  0  0
    0.5209    0.5008   -0.9674 C   0  0  0  0  0  0  0  0  0  0  0  0
    0.1997    1.9093   -0.8544 C   0  0  0  0  0  0  0  0  0  0  0  0
   -0.0453    3.0057   -0.7477 C   0  0  0  0  0  0  0  0  0  0  0  0
   -0.3243    0.1121    1.2743 O   0  0  0  0  0  0  0  0  0  0  0  0
   -1.6200    0.5486    1.6124 C   0  0  0  0  0  0  0  0  0  0  0  0
    3.6991   -1.9912    0.6070 H   0  0  0  0  0  0  0  0  0  0  0  0
   -0.5318   -2.3858    0.5328 H   0  0  0  0  0  0  0  0  0  0  0  0
   -0.1244   -2.1456   -1.1938 H   0  0  0  0  0  0  0  0  0  0  0  0
   -1.3847   -0.2006   -0.4301 H   0  0  0  0  0  0  0  0  0  0  0  0
    1.5916    0.3255   -0.6825 H   0  0  0  0  0  0  0  0  0  0  0  0
    0.3160    0.1570   -1.9867 H   0  0  0  0  0  0  0  0  0  0  0  0
   -0.2758    4.1274   -0.6345 H   0  0  0  0  0  0  0  0  0  0  0  0
   -1.8181    1.3930    0.8906 H   0  0  0  0  0  0  0  0  0  0  0  0
   -2.3081   -0.2775    1.2828 H   0  0  0  0  0  0  0  0  0  0  0  0
   -1.7419    0.8102    2.6607 H   0  0  0  0  0  0  0  0  0  0  0  0
  1  2  3  0
  2  3  1  0
  3  4  1  0
  4  5  1  0
  5  6  1  0
  6  7  3  0
  4  8  1  0
  8  9  1  0
  1 10  1  0
  3 11  1  0
  3 12  1  0
  4 13  1  0
  5 14  1  0
  5 15  1  0
  7 16  1  0
  9 17  1  0
  9 18  1  0
  9 19  1  0
M  END
