
     RDKit          3D

 15 15  0  0  0  0  0  0  0  0999 V2000
    2.4206   -0.6475   -1.2897 C   0  0  0  0  0  0  0  0  0  0  0  0
    1.2593   -0.7530   -0.9446 C   0  0  0  0  0  0  0  0  0  0  0  0
   -0.1460   -0.9002   -0.5428 C   0  0  0  0  0  0  0  0  0  0  0  0
   -0.1650   -1.6772    0.6134 O   0  0  0  0  0  0  0  0  0  0  0  0
   -0.7175    0.4693   -0.3496 C   0  0  0  0  0  0  0  0  0  0  0  0
   -0.0220    1.3162    0.7131 C   0  0  0  0  0  0  0  0  0  0  0  0
   -1.4257    0.8536    0.8892 C   0  0  0  0  0  0  0  0  0  0  0  0
    3.4459   -0.5369   -1.6019 H   0  0  0  0  0  0  0  0  0  0  0  0
   -0.7016   -1.4775   -1.3342 H   0  0  0  0  0  0  0  0  0  0  0  0
   -0.1497   -2.6309    0.3248 H   0  0  0  0  0  0  0  0  0  0  0  0
   -0.9813    0.9841   -1.2892 H   0  0  0  0  0  0  0  0  0  0  0  0
    0.7690    0.8302    1.3409 H   0  0  0  0  0  0  0  0  0  0  0  0
    0.2166    2.3697    0.4600 H   0  0  0  0  0  0  0  0  0  0  0  0
   -2.1987    1.6438    0.7810 H   0  0  0  0  0  0  0  0  0  0  0  0
   -1.6040    0.1564    1.7314 H   0  0  0  0  0  0  0  0  0  0  0  0
  1  2  3  0
  2  3  1  0
  3  4  1  0
  3  5  1  0
  5  6  1  0
  6  7  1  0
  7  5  1  0
  1  8  1  0
  3  9  1  0
  4 10  1  0
  5 11  1  0
  6 12  1  0
  6 13  1  0
  7 14  1  0
  7 15  1  0
M  END
