
     RDKit          3D

 17 18  0  0  0  0  0  0  0  0999 V2000
    2.8438   -1.5543    0.5993 C   0  0  0  0  0  0  0  0  0  0  0  0
    1.8342   -0.9115    0.4905 C   0  0  0  0  0  0  0  0  0  0  0  0
    0.6458   -0.1746    0.3453 C   0  0  0  0  0  0  0  0  0  0  0  0
    0.3423    0.4161   -1.0414 C   0  0  0  0  0  0  0  0  0  0  0  0
   -1.0828    0.3849   -0.4702 C   0  0  0  0  0  0  0  0  0  0  0  0
   -2.1089    0.4388   -1.2843 O   0  0  0  0  0  0  0  0  0  0  0  0
   -0.9320    1.2664    0.7243 C   0  0  0  0  0  0  0  0  0  0  0  0
    0.3070    0.7969    1.2385 O   0  0  0  0  0  0  0  0  0  0  0  0
   -0.6529   -0.9665    0.1234 C   0  0  0  0  0  0  0  0  0  0  0  0
    3.7328   -2.1278    0.6781 H   0  0  0  0  0  0  0  0  0  0  0  0
    0.7442    1.4155   -1.1948 H   0  0  0  0  0  0  0  0  0  0  0  0
    0.5266   -0.3392   -1.8162 H   0  0  0  0  0  0  0  0  0  0  0  0
   -1.9218    0.8744   -2.1394 H   0  0  0  0  0  0  0  0  0  0  0  0
   -0.7643    2.3213    0.4559 H   0  0  0  0  0  0  0  0  0  0  0  0
   -1.7496    1.1178    1.4626 H   0  0  0  0  0  0  0  0  0  0  0  0
   -1.1858   -1.1960    1.0689 H   0  0  0  0  0  0  0  0  0  0  0  0
   -0.5787   -1.7623   -0.6155 H   0  0  0  0  0  0  0  0  0  0  0  0
  1  2  3  0
  2  3  1  0
  3  4  1  0
  4  5  1  0
  5  6  1  0
  5  7  1  0
  7  8  1  0
  5  9  1  0
  8  3  1  0
  9  3  1  0
  1 10  1  0
  4 11  1  0
  4 12  1  0
  6 13  1  0
  7 14  1  0
  7 15  1  0
  9 16  1  0
  9 17  1  0
M  END
