
     RDKit          3D

 23 22  0  0  0  0  0  0  0  0999 V2000
    3.6158   -1.8954    0.7469 C   0  0  0  0  0  0  0  0  0  0  0  0
    2.4861   -1.6079    0.3565 C   0  0  0  0  0  0  0  0  0  0  0  0
    1.1424   -1.2818   -0.1266 C   0  0  0  0  0  0  0  0  0  0  0  0
    0.6540   -0.0051    0.5340 C   0  0  0  0  0  0  0  0  0  0  0  0
   -0.7307    0.3691    0.0651 C   0  0  0  0  0  0  0  0  0  0  0  0
   -1.1097    1.6430    0.7798 C   0  0  0  0  0  0  0  0  0  0  0  0
   -1.7536   -0.6802    0.4403 C   0  0  0  0  0  0  0  0  0  0  0  0
   -0.7349    0.6008   -1.4153 C   0  0  0  0  0  0  0  0  0  0  0  0
    0.1429    1.6355   -1.7354 O   0  0  0  0  0  0  0  0  0  0  0  0
    4.5847   -2.1344    1.0882 H   0  0  0  0  0  0  0  0  0  0  0  0
    1.2337   -1.1301   -1.2285 H   0  0  0  0  0  0  0  0  0  0  0  0
    0.4660   -2.1176    0.0586 H   0  0  0  0  0  0  0  0  0  0  0  0
    0.6953   -0.1753    1.6274 H   0  0  0  0  0  0  0  0  0  0  0  0
    1.3269    0.8314    0.2887 H   0  0  0  0  0  0  0  0  0  0  0  0
   -2.1953    1.8286    0.7729 H   0  0  0  0  0  0  0  0  0  0  0  0
   -0.5132    2.5012    0.4212 H   0  0  0  0  0  0  0  0  0  0  0  0
   -0.8209    1.4871    1.8583 H   0  0  0  0  0  0  0  0  0  0  0  0
   -1.7199   -0.9538    1.4958 H   0  0  0  0  0  0  0  0  0  0  0  0
   -2.7407   -0.3256    0.0826 H   0  0  0  0  0  0  0  0  0  0  0  0
   -1.4963   -1.5936   -0.1379 H   0  0  0  0  0  0  0  0  0  0  0  0
   -1.7659    0.9552   -1.6969 H   0  0  0  0  0  0  0  0  0  0  0  0
   -0.4710   -0.2897   -1.9994 H   0  0  0  0  0  0  0  0  0  0  0  0
   -0.2956    2.3387   -2.2764 H   0  0  0  0  0  0  0  0  0  0  0  0
  1  2  3  0
  2  3  1  0
  3  4  1  0
  4  5  1  0
  5  6  1  0
  5  7  1  0
  5  8  1  0
  8  9  1  0
  1 10  1  0
  3 11  1  0
  3 12  1  0
  4 13  1  0
  4 14  1  0
  6 15  1  0
  6 16  1  0
  6 17  1  0
  7 18  1  0
  7 19  1  0
  7 20  1  0
  8 21  1  0
  8 22  1  0
  9 23  1  0
M  END
