
     RDKit          3D

 19 20  0  0  0  0  0  0  0  0999 V2000
    2.5696    1.7504    0.3053 C   0  0  0  0  0  0  0  0  0  0  0  0
    1.8012    0.9828   -0.2154 C   0  0  0  0  0  0  0  0  0  0  0  0
    0.8634    0.0814   -0.8413 C   0  0  0  0  0  0  0  0  0  0  0  0
    0.9210   -1.3292   -0.2367 C   0  0  0  0  0  0  0  0  0  0  0  0
    0.2106   -2.4813   -0.6538 C   0  0  0  0  0  0  0  0  0  0  0  0
   -0.5270   -1.2991   -0.8945 C   0  0  0  0  0  0  0  0  0  0  0  0
   -0.4970    0.0169   -0.1048 C   0  0  0  0  0  0  0  0  0  0  0  0
   -1.3645    0.9629   -0.5714 O   0  0  0  0  0  0  0  0  0  0  0  0
   -1.9934    1.6848    0.4408 C   0  0  0  0  0  0  0  0  0  0  0  0
    3.2456    2.4394    0.7548 H   0  0  0  0  0  0  0  0  0  0  0  0
    0.7684    0.1110   -1.9240 H   0  0  0  0  0  0  0  0  0  0  0  0
    0.9111   -1.1640    0.8891 H   0  0  0  0  0  0  0  0  0  0  0  0
    0.6590   -3.0798   -1.5033 H   0  0  0  0  0  0  0  0  0  0  0  0
   -0.2162   -3.2108    0.0984 H   0  0  0  0  0  0  0  0  0  0  0  0
   -0.5202   -0.9668   -1.9838 H   0  0  0  0  0  0  0  0  0  0  0  0
   -0.3734   -0.0911    0.9715 H   0  0  0  0  0  0  0  0  0  0  0  0
   -1.2175    2.1971    1.0384 H   0  0  0  0  0  0  0  0  0  0  0  0
   -2.5742    0.9424    1.0384 H   0  0  0  0  0  0  0  0  0  0  0  0
   -2.6665    2.4532    0.0120 H   0  0  0  0  0  0  0  0  0  0  0  0
  1  2  3  0
  2  3  1  0
  3  4  1  0
  4  5  1  0
  5  6  1  0
  6  7  1  0
  7  8  1  0
  8  9  1  0
  7  3  1  0
  6  4  1  0
  1 10  1  0
  3 11  1  0
  4 12  1  0
  5 13  1  0
  5 14  1  0
  6 15  1  0
  7 16  1  0
  9 17  1  0
  9 18  1  0
  9 19  1  0
M  END
