
     RDKit          3D

 19 18  0  0  0  0  0  0  0  0999 V2000
    3.1736   -2.0766   -0.9831 C   0  0  0  0  0  0  0  0  0  0  0  0
    2.5691   -0.6480   -0.6008 C   0  0  0  0  0  0  0  0  0  0  0  0
    2.0138    0.6500   -0.2293 C   0  0  0  0  0  0  0  0  0  0  0  0
    0.5151    0.1514   -0.2614 C   0  0  0  0  0  0  0  0  0  0  0  0
    0.4793   -0.5842   -1.3882 O   0  0  0  0  0  0  0  0  0  0  0  0
   -0.6713    0.2253    0.4345 C   0  0  0  0  0  0  0  0  0  0  0  0
   -1.5938    1.3266   -0.2512 C   0  0  0  0  0  0  0  0  0  0  0  0
   -1.5009   -1.0110    0.5895 C   0  0  0  0  0  0  0  0  0  0  0  0
   -0.5325    0.7590    1.7722 O   0  0  0  0  0  0  0  0  0  0  0  0
    3.5521   -2.9770   -1.2164 H   0  0  0  0  0  0  0  0  0  0  0  0
    2.2761    0.9161    0.7608 H   0  0  0  0  0  0  0  0  0  0  0  0
    1.9806    1.2830   -1.1080 H   0  0  0  0  0  0  0  0  0  0  0  0
   -1.5522    2.3163    0.0783 H   0  0  0  0  0  0  0  0  0  0  0  0
   -1.2299    1.2615   -1.3305 H   0  0  0  0  0  0  0  0  0  0  0  0
   -2.6242    0.9744   -0.0580 H   0  0  0  0  0  0  0  0  0  0  0  0
   -1.1489   -1.7682    1.2835 H   0  0  0  0  0  0  0  0  0  0  0  0
   -2.5089   -0.6070    0.9863 H   0  0  0  0  0  0  0  0  0  0  0  0
   -1.7731   -1.4720   -0.4349 H   0  0  0  0  0  0  0  0  0  0  0  0
   -1.4239    1.2805    1.9565 H   0  0  0  0  0  0  0  0  0  0  0  0
  1  2  3  0
  2  3  1  0
  3  4  1  0
  4  5  2  0
  4  6  1  0
  6  7  1  0
  6  8  1  0
  6  9  1  0
  1 10  1  0
  3 11  1  0
  3 12  1  0
  7 13  1  0
  7 14  1  0
  7 15  1  0
  8 16  1  0
  8 17  1  0
  8 18  1  0
  9 19  1  0
M  END
