
     RDKit          3D

 17 16  0  0  0  0  0  0  0  0999 V2000
    3.5569   -0.3979   -1.7619 C   0  0  0  0  0  0  0  0  0  0  0  0
    2.3684   -0.4211   -1.3550 C   0  0  0  0  0  0  0  0  0  0  0  0
    0.9815   -0.4225   -0.8784 C   0  0  0  0  0  0  0  0  0  0  0  0
    0.9699    0.4239    0.3364 C   0  0  0  0  0  0  0  0  0  0  0  0
   -0.4088    0.5696    0.8295 C   0  0  0  0  0  0  0  0  0  0  0  0
   -0.5626    1.4542    1.7054 O   0  0  0  0  0  0  0  0  0  0  0  0
   -1.5551   -0.2432    0.3542 C   0  0  0  0  0  0  0  0  0  0  0  0
   -2.8820    0.0964    0.9513 C   0  0  0  0  0  0  0  0  0  0  0  0
   -1.4524   -1.1599   -0.4882 O   0  0  0  0  0  0  0  0  0  0  0  0
    4.5622   -0.3961   -2.1009 H   0  0  0  0  0  0  0  0  0  0  0  0
    0.7158   -1.4584   -0.5846 H   0  0  0  0  0  0  0  0  0  0  0  0
    0.2858   -0.0204   -1.6177 H   0  0  0  0  0  0  0  0  0  0  0  0
    1.6302   -0.0677    1.1142 H   0  0  0  0  0  0  0  0  0  0  0  0
    1.4276    1.4408    0.1449 H   0  0  0  0  0  0  0  0  0  0  0  0
   -2.8090    0.2299    2.0253 H   0  0  0  0  0  0  0  0  0  0  0  0
   -3.6351   -0.6962    0.7343 H   0  0  0  0  0  0  0  0  0  0  0  0
   -3.1932    1.0687    0.4875 H   0  0  0  0  0  0  0  0  0  0  0  0
  1  2  3  0
  2  3  1  0
  3  4  1  0
  4  5  1  0
  5  6  2  0
  5  7  1  0
  7  8  1  0
  7  9  2  0
  1 10  1  0
  3 11  1  0
  3 12  1  0
  4 13  1  0
  4 14  1  0
  8 15  1  0
  8 16  1  0
  8 17  1  0
M  END
