
     RDKit          3D

 21 21  0  0  0  0  0  0  0  0999 V2000
    3.6306    1.9911    0.0767 C   0  0  0  0  0  0  0  0  0  0  0  0
    3.0815    0.9172    0.1065 C   0  0  0  0  0  0  0  0  0  0  0  0
    2.3940   -0.3934    0.1359 C   0  0  0  0  0  0  0  0  0  0  0  0
    1.0293   -0.1396    0.7028 C   0  0  0  0  0  0  0  0  0  0  0  0
    0.1091   -1.3001    0.8476 C   0  0  0  0  0  0  0  0  0  0  0  0
   -0.8713   -0.2108    0.4876 C   0  0  0  0  0  0  0  0  0  0  0  0
   -2.0996   -0.6273   -0.2376 C   0  0  0  0  0  0  0  0  0  0  0  0
   -2.9224    0.6445   -0.4863 C   0  0  0  0  0  0  0  0  0  0  0  0
    0.1389    0.3731   -0.2688 O   0  0  0  0  0  0  0  0  0  0  0  0
    4.1204    2.9463    0.0315 H   0  0  0  0  0  0  0  0  0  0  0  0
    2.9711   -1.0146    0.8422 H   0  0  0  0  0  0  0  0  0  0  0  0
    2.3746   -0.8321   -0.8840 H   0  0  0  0  0  0  0  0  0  0  0  0
    1.0901    0.4805    1.6026 H   0  0  0  0  0  0  0  0  0  0  0  0
    0.1919   -2.0980    0.1053 H   0  0  0  0  0  0  0  0  0  0  0  0
   -0.0944   -1.6453    1.8915 H   0  0  0  0  0  0  0  0  0  0  0  0
   -1.1221    0.4443    1.3416 H   0  0  0  0  0  0  0  0  0  0  0  0
   -2.7144   -1.2396    0.4746 H   0  0  0  0  0  0  0  0  0  0  0  0
   -1.9422   -1.1643   -1.1764 H   0  0  0  0  0  0  0  0  0  0  0  0
   -2.5179    1.1694   -1.3937 H   0  0  0  0  0  0  0  0  0  0  0  0
   -3.9789    0.3995   -0.7189 H   0  0  0  0  0  0  0  0  0  0  0  0
   -2.8685    1.2990    0.4123 H   0  0  0  0  0  0  0  0  0  0  0  0
  1  2  3  0
  2  3  1  0
  3  4  1  0
  4  5  1  0
  5  6  1  0
  6  7  1  0
  7  8  1  0
  6  9  1  0
  9  4  1  0
  1 10  1  0
  3 11  1  0
  3 12  1  0
  4 13  1  0
  5 14  1  0
  5 15  1  0
  6 16  1  0
  7 17  1  0
  7 18  1  0
  8 19  1  0
  8 20  1  0
  8 21  1  0
M  END
