
     RDKit          3D

 18 17  0  0  0  0  0  0  0  0999 V2000
    1.6782    1.6368    1.4215 C   0  0  0  0  0  0  0  0  0  0  0  0
    1.4466    0.4404    1.1316 C   0  0  0  0  0  0  0  0  0  0  0  0
    1.2034   -0.9482    0.7925 C   0  0  0  0  0  0  0  0  0  0  0  0
    0.5921   -1.1501   -0.5417 C   0  0  0  0  0  0  0  0  0  0  0  0
   -0.7476   -0.6063   -0.8072 C   0  0  0  0  0  0  0  0  0  0  0  0
   -1.6837   -1.1413    0.0764 O   0  0  0  0  0  0  0  0  0  0  0  0
   -0.7633    0.8676   -0.9352 C   0  0  0  0  0  0  0  0  0  0  0  0
   -1.9912    1.3292   -1.4405 O   0  0  0  0  0  0  0  0  0  0  0  0
    1.8864    2.6185    1.6580 H   0  0  0  0  0  0  0  0  0  0  0  0
    2.1780   -1.5145    0.7833 H   0  0  0  0  0  0  0  0  0  0  0  0
    0.5578   -1.4356    1.5820 H   0  0  0  0  0  0  0  0  0  0  0  0
    0.6088   -2.2756   -0.7342 H   0  0  0  0  0  0  0  0  0  0  0  0
    1.3666   -0.7754   -1.2929 H   0  0  0  0  0  0  0  0  0  0  0  0
   -1.1192   -1.0108   -1.8334 H   0  0  0  0  0  0  0  0  0  0  0  0
   -2.1145   -0.4049    0.5439 H   0  0  0  0  0  0  0  0  0  0  0  0
   -0.7018    1.3566    0.0846 H   0  0  0  0  0  0  0  0  0  0  0  0
    0.1073    1.1987   -1.4943 H   0  0  0  0  0  0  0  0  0  0  0  0
   -2.5039    1.8149   -0.7698 H   0  0  0  0  0  0  0  0  0  0  0  0
  1  2  3  0
  2  3  1  0
  3  4  1  0
  4  5  1  0
  5  6  1  0
  5  7  1  0
  7  8  1  0
  1  9  1  0
  3 10  1  0
  3 11  1  0
  4 12  1  0
  4 13  1  0
  5 14  1  0
  6 15  1  0
  7 16  1  0
  7 17  1  0
  8 18  1  0
M  END
