
     RDKit          3D

 21 21  0  0  0  0  0  0  0  0999 V2000
    4.1103    0.1012    0.3605 C   0  0  0  0  0  0  0  0  0  0  0  0
    3.0428   -0.3273   -0.0064 C   0  0  0  0  0  0  0  0  0  0  0  0
    1.7416   -0.8655   -0.4651 C   0  0  0  0  0  0  0  0  0  0  0  0
    0.8969   -1.5439    0.6069 C   0  0  0  0  0  0  0  0  0  0  0  0
    0.5478   -0.1628    0.0681 C   0  0  0  0  0  0  0  0  0  0  0  0
    0.7577    0.8881    0.9720 O   0  0  0  0  0  0  0  0  0  0  0  0
   -0.7335   -0.0992   -0.6887 C   0  0  0  0  0  0  0  0  0  0  0  0
   -1.7342    0.6862    0.1363 C   0  0  0  0  0  0  0  0  0  0  0  0
   -3.0690    0.8088   -0.5438 C   0  0  0  0  0  0  0  0  0  0  0  0
    5.0393    0.4934    0.6873 H   0  0  0  0  0  0  0  0  0  0  0  0
    1.7561   -1.2897   -1.4806 H   0  0  0  0  0  0  0  0  0  0  0  0
    1.2921   -1.6449    1.6246 H   0  0  0  0  0  0  0  0  0  0  0  0
    0.2585   -2.4014    0.2987 H   0  0  0  0  0  0  0  0  0  0  0  0
    1.2539    1.6345    0.5684 H   0  0  0  0  0  0  0  0  0  0  0  0
   -1.1858   -1.1143   -0.8718 H   0  0  0  0  0  0  0  0  0  0  0  0
   -0.6423    0.3626   -1.6917 H   0  0  0  0  0  0  0  0  0  0  0  0
   -1.8170    0.1535    1.1130 H   0  0  0  0  0  0  0  0  0  0  0  0
   -1.2879    1.6855    0.3233 H   0  0  0  0  0  0  0  0  0  0  0  0
   -3.7983    0.2000    0.0347 H   0  0  0  0  0  0  0  0  0  0  0  0
   -3.3919    1.8795   -0.4633 H   0  0  0  0  0  0  0  0  0  0  0  0
   -3.0370    0.5558   -1.6136 H   0  0  0  0  0  0  0  0  0  0  0  0
  1  2  3  0
  2  3  1  0
  3  4  1  0
  4  5  1  0
  5  6  1  0
  5  7  1  0
  7  8  1  0
  8  9  1  0
  5  3  1  0
  1 10  1  0
  3 11  1  0
  4 12  1  0
  4 13  1  0
  6 14  1  0
  7 15  1  0
  7 16  1  0
  8 17  1  0
  8 18  1  0
  9 19  1  0
  9 20  1  0
  9 21  1  0
M  END
