
     RDKit          3D

 19 18  0  0  0  0  0  0  0  0999 V2000
   -1.9357    1.9047   -0.2916 C   0  0  0  0  0  0  0  0  0  0  0  0
   -1.1737    1.0059    0.0381 C   0  0  0  0  0  0  0  0  0  0  0  0
   -0.2799   -0.0878    0.4335 C   0  0  0  0  0  0  0  0  0  0  0  0
   -0.5428   -0.4870    1.8462 C   0  0  0  0  0  0  0  0  0  0  0  0
   -1.3036   -1.4049    2.1111 O   0  0  0  0  0  0  0  0  0  0  0  0
    1.1301    0.4496    0.3394 C   0  0  0  0  0  0  0  0  0  0  0  0
    1.4880    0.9046   -1.0352 C   0  0  0  0  0  0  0  0  0  0  0  0
   -0.5277   -1.2400   -0.4720 C   0  0  0  0  0  0  0  0  0  0  0  0
    0.2604   -2.3485   -0.2017 O   0  0  0  0  0  0  0  0  0  0  0  0
   -2.5830    2.6966   -0.5789 H   0  0  0  0  0  0  0  0  0  0  0  0
   -0.0176    0.0879    2.6155 H   0  0  0  0  0  0  0  0  0  0  0  0
    1.8831   -0.3175    0.6463 H   0  0  0  0  0  0  0  0  0  0  0  0
    1.2744    1.3002    1.0363 H   0  0  0  0  0  0  0  0  0  0  0  0
    2.0232    0.1128   -1.5562 H   0  0  0  0  0  0  0  0  0  0  0  0
    2.0583    1.8730   -1.0377 H   0  0  0  0  0  0  0  0  0  0  0  0
    0.5153    1.0939   -1.5775 H   0  0  0  0  0  0  0  0  0  0  0  0
   -0.3167   -0.9159   -1.5314 H   0  0  0  0  0  0  0  0  0  0  0  0
   -1.6088   -1.4799   -0.4407 H   0  0  0  0  0  0  0  0  0  0  0  0
   -0.3432   -3.1476   -0.3433 H   0  0  0  0  0  0  0  0  0  0  0  0
  1  2  3  0
  2  3  1  0
  3  4  1  0
  4  5  2  0
  3  6  1  0
  6  7  1  0
  3  8  1  0
  8  9  1  0
  1 10  1  0
  4 11  1  0
  6 12  1  0
  6 13  1  0
  7 14  1  0
  7 15  1  0
  7 16  1  0
  8 17  1  0
  8 18  1  0
  9 19  1  0
M  END
