
     RDKit          3D

 15 16  0  0  0  0  0  0  0  0999 V2000
    2.5973   -0.5896   -1.5703 C   0  0  0  0  0  0  0  0  0  0  0  0
    1.1156   -0.3059   -0.8546 C   0  0  0  0  0  0  0  0  0  0  0  0
    0.2162   -0.1247   -0.4133 C   0  0  0  0  0  0  0  0  0  0  0  0
    0.7343    0.7411    0.9610 O   0  0  0  0  0  0  0  0  0  0  0  0
   -0.6480    0.4176    1.0787 C   0  0  0  0  0  0  0  0  0  0  0  0
   -0.2163   -0.9187    0.9038 C   0  0  0  0  0  0  0  0  0  0  0  0
   -1.1859   -1.9144    0.6074 O   0  0  0  0  0  0  0  0  0  0  0  0
   -0.8801    0.7718   -0.2617 C   0  0  0  0  0  0  0  0  0  0  0  0
   -0.6026    2.1656   -0.5527 O   0  0  0  0  0  0  0  0  0  0  0  0
    3.5016   -0.7491   -2.0169 H   0  0  0  0  0  0  0  0  0  0  0  0
   -1.2632    0.7756    1.9148 H   0  0  0  0  0  0  0  0  0  0  0  0
    0.6776   -1.2360    1.4892 H   0  0  0  0  0  0  0  0  0  0  0  0
   -1.0422   -2.2489   -0.3130 H   0  0  0  0  0  0  0  0  0  0  0  0
   -1.7688    0.5423   -0.9330 H   0  0  0  0  0  0  0  0  0  0  0  0
   -1.2353    2.6735   -0.0393 H   0  0  0  0  0  0  0  0  0  0  0  0
  1  2  3  0
  2  3  1  0
  3  4  1  0
  4  5  1  0
  5  6  1  0
  6  7  1  0
  5  8  1  0
  8  9  1  0
  6  3  1  0
  8  3  1  0
  1 10  1  0
  5 11  1  0
  6 12  1  0
  7 13  1  0
  8 14  1  0
  9 15  1  0
M  END
