
     RDKit          3D

 15 15  0  0  0  0  0  0  0  0999 V2000
   -1.3772    2.4966    2.1925 C   0  0  0  0  0  0  0  0  0  0  0  0
   -0.9757    2.2492    1.0951 C   0  0  0  0  0  0  0  0  0  0  0  0
   -0.4381    1.9493   -0.3357 C   0  0  0  0  0  0  0  0  0  0  0  0
   -0.3990    0.6028   -0.4357 O   0  0  0  0  0  0  0  0  0  0  0  0
    0.3129   -0.4010    0.0381 C   0  0  0  0  0  0  0  0  0  0  0  0
    1.2605   -0.1277    0.8267 O   0  0  0  0  0  0  0  0  0  0  0  0
   -0.0022   -1.8466   -0.3555 C   0  0  0  0  0  0  0  0  0  0  0  0
    1.1386   -2.4654   -1.1515 C   0  0  0  0  0  0  0  0  0  0  0  0
    0.6994   -2.8519    0.2290 O   0  0  0  0  0  0  0  0  0  0  0  0
   -1.7032    2.7139    3.1319 H   0  0  0  0  0  0  0  0  0  0  0  0
    0.5243    2.4794   -0.3331 H   0  0  0  0  0  0  0  0  0  0  0  0
   -1.1676    2.4108   -0.9937 H   0  0  0  0  0  0  0  0  0  0  0  0
   -0.9485   -1.9740   -0.9310 H   0  0  0  0  0  0  0  0  0  0  0  0
    0.9472   -3.2746   -1.8681 H   0  0  0  0  0  0  0  0  0  0  0  0
    2.1288   -1.9609   -1.1088 H   0  0  0  0  0  0  0  0  0  0  0  0
  1  2  3  0
  2  3  1  0
  3  4  1  0
  4  5  1  0
  5  6  2  0
  5  7  1  0
  7  8  1  0
  8  9  1  0
  9  7  1  0
  1 10  1  0
  3 11  1  0
  3 12  1  0
  7 13  1  0
  8 14  1  0
  8 15  1  0
M  END
