
     RDKit          3D

 17 17  0  0  0  0  0  0  0  0999 V2000
    3.4822    0.0558   -0.3073 C   0  0  0  0  0  0  0  0  0  0  0  0
    2.2987   -0.0198   -0.5212 C   0  0  0  0  0  0  0  0  0  0  0  0
    0.8604   -0.1074   -0.7724 C   0  0  0  0  0  0  0  0  0  0  0  0
    0.0692    0.7664    0.1697 C   0  0  0  0  0  0  0  0  0  0  0  0
    0.2486    0.4362    1.5098 O   0  0  0  0  0  0  0  0  0  0  0  0
   -0.8324   -0.4450    1.4030 C   0  0  0  0  0  0  0  0  0  0  0  0
   -1.3749    0.4241    0.3131 C   0  0  0  0  0  0  0  0  0  0  0  0
   -2.0214   -0.2630   -0.8115 C   0  0  0  0  0  0  0  0  0  0  0  0
   -2.7762   -1.1870   -0.5604 O   0  0  0  0  0  0  0  0  0  0  0  0
    4.5195    0.1316   -0.1096 H   0  0  0  0  0  0  0  0  0  0  0  0
    0.6647    0.1552   -1.8286 H   0  0  0  0  0  0  0  0  0  0  0  0
    0.4893   -1.1543   -0.6207 H   0  0  0  0  0  0  0  0  0  0  0  0
    0.2167    1.8262   -0.0723 H   0  0  0  0  0  0  0  0  0  0  0  0
   -1.5044   -0.4359    2.2859 H   0  0  0  0  0  0  0  0  0  0  0  0
   -0.5096   -1.4517    1.1416 H   0  0  0  0  0  0  0  0  0  0  0  0
   -1.9491    1.2823    0.7145 H   0  0  0  0  0  0  0  0  0  0  0  0
   -1.8815   -0.0138   -1.8575 H   0  0  0  0  0  0  0  0  0  0  0  0
  1  2  3  0
  2  3  1  0
  3  4  1  0
  4  5  1  0
  5  6  1  0
  6  7  1  0
  7  8  1  0
  8  9  2  0
  7  4  1  0
  1 10  1  0
  3 11  1  0
  3 12  1  0
  4 13  1  0
  6 14  1  0
  6 15  1  0
  7 16  1  0
  8 17  1  0
M  END
