
     RDKit          3D

 21 21  0  0  0  0  0  0  0  0999 V2000
   -0.7062    2.8446   -0.3145 C   0  0  0  0  0  0  0  0  0  0  0  0
   -0.5820    1.8726    0.3896 C   0  0  0  0  0  0  0  0  0  0  0  0
   -0.4285    0.6639    1.2332 C   0  0  0  0  0  0  0  0  0  0  0  0
    1.0176    0.3372    1.2530 C   0  0  0  0  0  0  0  0  0  0  0  0
    1.2786   -0.5726    0.3402 C   0  0  0  0  0  0  0  0  0  0  0  0
    2.6237   -1.1454    0.0693 C   0  0  0  0  0  0  0  0  0  0  0  0
    0.0590   -0.9683   -0.4011 C   0  0  0  0  0  0  0  0  0  0  0  0
   -1.0550   -0.4716    0.4567 C   0  0  0  0  0  0  0  0  0  0  0  0
   -2.2470   -0.0620   -0.3365 C   0  0  0  0  0  0  0  0  0  0  0  0
   -0.7971    3.7011   -0.9333 H   0  0  0  0  0  0  0  0  0  0  0  0
   -0.8636    0.8068    2.2236 H   0  0  0  0  0  0  0  0  0  0  0  0
    1.7312    0.7893    1.9233 H   0  0  0  0  0  0  0  0  0  0  0  0
    2.5169   -2.2393   -0.0952 H   0  0  0  0  0  0  0  0  0  0  0  0
    3.2997   -1.0120    0.9373 H   0  0  0  0  0  0  0  0  0  0  0  0
    3.0279   -0.6476   -0.8333 H   0  0  0  0  0  0  0  0  0  0  0  0
    0.0364   -2.0712   -0.5433 H   0  0  0  0  0  0  0  0  0  0  0  0
    0.0818   -0.5180   -1.4140 H   0  0  0  0  0  0  0  0  0  0  0  0
   -1.3110   -1.2789    1.1974 H   0  0  0  0  0  0  0  0  0  0  0  0
   -2.8242   -0.9994   -0.5759 H   0  0  0  0  0  0  0  0  0  0  0  0
   -2.9476    0.5803    0.2220 H   0  0  0  0  0  0  0  0  0  0  0  0
   -1.9107    0.3904   -1.2895 H   0  0  0  0  0  0  0  0  0  0  0  0
  1  2  3  0
  2  3  1  0
  3  4  1  0
  4  5  2  0
  5  6  1  0
  5  7  1  0
  7  8  1  0
  8  9  1  0
  8  3  1  0
  1 10  1  0
  3 11  1  0
  4 12  1  0
  6 13  1  0
  6 14  1  0
  6 15  1  0
  7 16  1  0
  7 17  1  0
  8 18  1  0
  9 19  1  0
  9 20  1  0
  9 21  1  0
M  END
