
     RDKit          3D

 17 17  0  0  0  0  0  0  0  0999 V2000
    2.5805    2.0172    0.5655 C   0  0  0  0  0  0  0  0  0  0  0  0
    1.4982    1.5114    0.3356 C   0  0  0  0  0  0  0  0  0  0  0  0
    0.1723    0.9203    0.0548 C   0  0  0  0  0  0  0  0  0  0  0  0
   -0.4242    0.0170    1.1612 C   0  0  0  0  0  0  0  0  0  0  0  0
    0.0672   -0.5505   -0.1299 C   0  0  0  0  0  0  0  0  0  0  0  0
    1.3210   -1.3723   -0.0876 C   0  0  0  0  0  0  0  0  0  0  0  0
    2.2019   -1.0229    0.6513 O   0  0  0  0  0  0  0  0  0  0  0  0
   -0.8808   -1.0261   -0.9987 O   0  0  0  0  0  0  0  0  0  0  0  0
   -2.1487   -0.6660   -0.5956 C   0  0  0  0  0  0  0  0  0  0  0  0
    3.5271    2.4487    0.7816 H   0  0  0  0  0  0  0  0  0  0  0  0
   -0.5251    1.5484   -0.5147 H   0  0  0  0  0  0  0  0  0  0  0  0
    0.2280   -0.0438    2.0669 H   0  0  0  0  0  0  0  0  0  0  0  0
   -1.4626    0.2255    1.3991 H   0  0  0  0  0  0  0  0  0  0  0  0
    1.4178   -2.2342   -0.6953 H   0  0  0  0  0  0  0  0  0  0  0  0
   -2.9351   -1.0367   -1.2979 H   0  0  0  0  0  0  0  0  0  0  0  0
   -2.1989    0.4236   -0.4533 H   0  0  0  0  0  0  0  0  0  0  0  0
   -2.4387   -1.1595    0.3801 H   0  0  0  0  0  0  0  0  0  0  0  0
  1  2  3  0
  2  3  1  0
  3  4  1  0
  4  5  1  0
  5  6  1  0
  6  7  2  0
  5  8  1  0
  8  9  1  0
  5  3  1  0
  1 10  1  0
  3 11  1  0
  4 12  1  0
  4 13  1  0
  6 14  1  0
  9 15  1  0
  9 16  1  0
  9 17  1  0
M  END
