
     RDKit          3D

 14 14  0  0  0  0  0  0  0  0999 V2000
    2.5708   -0.9696   -0.6775 C   0  0  0  0  0  0  0  0  0  0  0  0
    1.4636   -0.5278   -0.4426 C   0  0  0  0  0  0  0  0  0  0  0  0
    0.1372    0.0290   -0.1593 C   0  0  0  0  0  0  0  0  0  0  0  0
    0.1985    1.4341    0.3968 C   0  0  0  0  0  0  0  0  0  0  0  0
   -0.7442   -0.0683   -1.2295 O   0  0  0  0  0  0  0  0  0  0  0  0
   -1.7265   -0.5259   -0.3355 C   0  0  0  0  0  0  0  0  0  0  0  0
   -0.7244   -0.8287    0.6868 C   0  0  0  0  0  0  0  0  0  0  0  0
   -0.6181   -1.4560    1.7136 O   0  0  0  0  0  0  0  0  0  0  0  0
    3.5359   -1.3577   -0.8790 H   0  0  0  0  0  0  0  0  0  0  0  0
    0.1424    2.1949   -0.4087 H   0  0  0  0  0  0  0  0  0  0  0  0
   -0.6642    1.6250    1.0684 H   0  0  0  0  0  0  0  0  0  0  0  0
    1.1218    1.5381    1.0109 H   0  0  0  0  0  0  0  0  0  0  0  0
   -2.2855   -1.3791   -0.7694 H   0  0  0  0  0  0  0  0  0  0  0  0
   -2.4073    0.2921    0.0249 H   0  0  0  0  0  0  0  0  0  0  0  0
  1  2  3  0
  2  3  1  0
  3  4  1  0
  3  5  1  0
  5  6  1  0
  6  7  1  0
  7  8  2  0
  7  3  1  0
  1  9  1  0
  4 10  1  0
  4 11  1  0
  4 12  1  0
  6 13  1  0
  6 14  1  0
M  END
