
     RDKit          3D

 19 19  0  0  0  0  0  0  0  0999 V2000
   -2.3517   -2.2729    0.6034 C   0  0  0  0  0  0  0  0  0  0  0  0
   -1.9268   -1.2404    0.0213 C   0  0  0  0  0  0  0  0  0  0  0  0
   -1.4507   -0.0276   -0.6737 C   0  0  0  0  0  0  0  0  0  0  0  0
   -1.9652    0.2279   -1.7599 O   0  0  0  0  0  0  0  0  0  0  0  0
   -0.3892    0.7883    0.0041 C   0  0  0  0  0  0  0  0  0  0  0  0
   -0.2382    2.0790   -0.7785 C   0  0  0  0  0  0  0  0  0  0  0  0
    0.9493    0.0786   -0.1292 C   0  0  0  0  0  0  0  0  0  0  0  0
    1.1814   -1.2652    0.4693 C   0  0  0  0  0  0  0  0  0  0  0  0
    1.8941   -0.0574    0.9816 C   0  0  0  0  0  0  0  0  0  0  0  0
   -2.6849   -3.1089    1.0562 H   0  0  0  0  0  0  0  0  0  0  0  0
   -0.6278    0.9159    1.0536 H   0  0  0  0  0  0  0  0  0  0  0  0
   -0.0559    1.7803   -1.8525 H   0  0  0  0  0  0  0  0  0  0  0  0
   -1.1261    2.7220   -0.6808 H   0  0  0  0  0  0  0  0  0  0  0  0
    0.6720    2.5947   -0.3635 H   0  0  0  0  0  0  0  0  0  0  0  0
    1.3425    0.1556   -1.1822 H   0  0  0  0  0  0  0  0  0  0  0  0
    0.3677   -1.6788    1.1004 H   0  0  0  0  0  0  0  0  0  0  0  0
    1.8236   -2.0090   -0.0599 H   0  0  0  0  0  0  0  0  0  0  0  0
    2.9798    0.0626    0.8273 H   0  0  0  0  0  0  0  0  0  0  0  0
    1.6062    0.2553    2.0163 H   0  0  0  0  0  0  0  0  0  0  0  0
  1  2  3  0
  2  3  1  0
  3  4  2  0
  3  5  1  0
  5  6  1  0
  5  7  1  0
  7  8  1  0
  8  9  1  0
  9  7  1  0
  1 10  1  0
  5 11  1  0
  6 12  1  0
  6 13  1  0
  6 14  1  0
  7 15  1  0
  8 16  1  0
  8 17  1  0
  9 18  1  0
  9 19  1  0
M  END
