
     RDKit          3D

 13 12  0  0  0  0  0  0  0  0999 V2000
   -0.4460   -2.5223    0.8893 C   0  0  0  0  0  0  0  0  0  0  0  0
   -0.3921   -1.4283    0.1225 C   0  0  0  0  0  0  0  0  0  0  0  0
   -0.3157   -0.2614   -0.6777 C   0  0  0  0  0  0  0  0  0  0  0  0
   -1.3156    0.7618   -0.2842 C   0  0  0  0  0  0  0  0  0  0  0  0
   -2.0969    1.5803    0.0433 C   0  0  0  0  0  0  0  0  0  0  0  0
    1.0515    0.3362   -0.7139 C   0  0  0  0  0  0  0  0  0  0  0  0
    1.5830    0.4945   -1.8425 O   0  0  0  0  0  0  0  0  0  0  0  0
    1.7801    0.7355    0.4712 C   0  0  0  0  0  0  0  0  0  0  0  0
    1.3059    0.6353    1.6279 O   0  0  0  0  0  0  0  0  0  0  0  0
   -0.4959   -3.2536    1.3950 H   0  0  0  0  0  0  0  0  0  0  0  0
   -0.5893   -0.5520   -1.7358 H   0  0  0  0  0  0  0  0  0  0  0  0
   -2.8412    2.3383    0.3383 H   0  0  0  0  0  0  0  0  0  0  0  0
    2.7721    1.1357    0.3666 H   0  0  0  0  0  0  0  0  0  0  0  0
  1  2  3  0
  2  3  1  0
  3  4  1  0
  4  5  3  0
  3  6  1  0
  6  7  2  0
  6  8  1  0
  8  9  2  0
  1 10  1  0
  3 11  1  0
  5 12  1  0
  8 13  1  0
M  END
