
     RDKit          3D

 17 18  0  0  0  0  0  0  0  0999 V2000
    3.0635   -0.3488   -0.1260 C   0  0  0  0  0  0  0  0  0  0  0  0
    1.9571    0.1331   -0.1754 C   0  0  0  0  0  0  0  0  0  0  0  0
    0.6123    0.7231   -0.2566 C   0  0  0  0  0  0  0  0  0  0  0  0
    0.5885    2.1016   -0.2046 O   0  0  0  0  0  0  0  0  0  0  0  0
   -0.3010    0.0693   -1.3482 C   0  0  0  0  0  0  0  0  0  0  0  0
   -0.5169   -0.0923    0.0687 C   0  0  0  0  0  0  0  0  0  0  0  0
   -1.7182    0.2585    0.8358 C   0  0  0  0  0  0  0  0  0  0  0  0
   -1.8821   -1.1205    1.1190 O   0  0  0  0  0  0  0  0  0  0  0  0
   -0.5218   -1.3648    0.8190 C   0  0  0  0  0  0  0  0  0  0  0  0
    4.0362   -0.7664   -0.0757 H   0  0  0  0  0  0  0  0  0  0  0  0
   -0.0978    2.4328   -0.8371 H   0  0  0  0  0  0  0  0  0  0  0  0
    0.1376   -0.7517   -1.9204 H   0  0  0  0  0  0  0  0  0  0  0  0
   -0.9654    0.8124   -1.8807 H   0  0  0  0  0  0  0  0  0  0  0  0
   -2.5183    0.6765    0.1912 H   0  0  0  0  0  0  0  0  0  0  0  0
   -1.5851    0.8368    1.7758 H   0  0  0  0  0  0  0  0  0  0  0  0
    0.0415   -1.3405    1.7883 H   0  0  0  0  0  0  0  0  0  0  0  0
   -0.3302   -2.2591    0.2270 H   0  0  0  0  0  0  0  0  0  0  0  0
  1  2  3  0
  2  3  1  0
  3  4  1  0
  3  5  1  0
  5  6  1  0
  6  7  1  0
  7  8  1  0
  8  9  1  0
  6  3  1  0
  9  6  1  0
  1 10  1  0
  4 11  1  0
  5 12  1  0
  5 13  1  0
  7 14  1  0
  7 15  1  0
  9 16  1  0
  9 17  1  0
M  END
