
     RDKit          3D

 19 19  0  0  0  0  0  0  0  0999 V2000
    3.0139    0.8600   -1.0165 C   0  0  0  0  0  0  0  0  0  0  0  0
    2.3741    0.7820    0.0567 C   0  0  0  0  0  0  0  0  0  0  0  0
    1.6233    0.6679    1.2973 C   0  0  0  0  0  0  0  0  0  0  0  0
    0.7085   -0.5631    1.2689 C   0  0  0  0  0  0  0  0  0  0  0  0
   -0.2330   -0.3891    0.1038 C   0  0  0  0  0  0  0  0  0  0  0  0
   -0.9986    0.7486    0.2182 O   0  0  0  0  0  0  0  0  0  0  0  0
   -2.1957    0.4974   -0.4625 C   0  0  0  0  0  0  0  0  0  0  0  0
   -2.0551   -0.9404   -0.8938 C   0  0  0  0  0  0  0  0  0  0  0  0
   -1.1741   -1.4465    0.0621 O   0  0  0  0  0  0  0  0  0  0  0  0
    3.5548    0.9205   -1.8893 H   0  0  0  0  0  0  0  0  0  0  0  0
    2.3027    0.6222    2.1783 H   0  0  0  0  0  0  0  0  0  0  0  0
    1.0025    1.5864    1.4435 H   0  0  0  0  0  0  0  0  0  0  0  0
    1.3893   -1.4300    1.0555 H   0  0  0  0  0  0  0  0  0  0  0  0
    0.1924   -0.7134    2.2228 H   0  0  0  0  0  0  0  0  0  0  0  0
    0.3784   -0.4104   -0.8263 H   0  0  0  0  0  0  0  0  0  0  0  0
   -2.3363    1.1848   -1.3170 H   0  0  0  0  0  0  0  0  0  0  0  0
   -3.0530    0.5259    0.2547 H   0  0  0  0  0  0  0  0  0  0  0  0
   -3.0047   -1.4849   -0.9512 H   0  0  0  0  0  0  0  0  0  0  0  0
   -1.4894   -1.0180   -1.8645 H   0  0  0  0  0  0  0  0  0  0  0  0
  1  2  3  0
  2  3  1  0
  3  4  1  0
  4  5  1  0
  5  6  1  0
  6  7  1  0
  7  8  1  0
  8  9  1  0
  9  5  1  0
  1 10  1  0
  3 11  1  0
  3 12  1  0
  4 13  1  0
  4 14  1  0
  5 15  1  0
  7 16  1  0
  7 17  1  0
  8 18  1  0
  8 19  1  0
M  END
