
     RDKit          3D

 17 18  0  0  0  0  0  0  0  0999 V2000
    1.2788   -0.2595   -3.6065 C   0  0  0  0  0  0  0  0  0  0  0  0
    0.7080   -0.0352   -2.4627 C   0  0  0  0  0  0  0  0  0  0  0  0
    0.0778    0.2105   -1.1468 C   0  0  0  0  0  0  0  0  0  0  0  0
   -1.0869    0.6693   -0.9398 C   0  0  0  0  0  0  0  0  0  0  0  0
   -1.3727    0.7801    0.5342 C   0  0  0  0  0  0  0  0  0  0  0  0
   -0.2835    0.0200    1.1959 C   0  0  0  0  0  0  0  0  0  0  0  0
    0.1670    0.4947    2.4435 O   0  0  0  0  0  0  0  0  0  0  0  0
    0.2230   -1.3092    0.7932 C   0  0  0  0  0  0  0  0  0  0  0  0
    0.7715   -0.0919    0.1155 C   0  0  0  0  0  0  0  0  0  0  0  0
    1.6472   -0.3927   -4.3187 H   0  0  0  0  0  0  0  0  0  0  0  0
   -1.8519    0.9612   -1.6554 H   0  0  0  0  0  0  0  0  0  0  0  0
   -2.4056    0.4281    0.7516 H   0  0  0  0  0  0  0  0  0  0  0  0
   -1.3490    1.8512    0.7981 H   0  0  0  0  0  0  0  0  0  0  0  0
    1.0861    0.1412    2.6274 H   0  0  0  0  0  0  0  0  0  0  0  0
    0.9726   -1.7672    1.4847 H   0  0  0  0  0  0  0  0  0  0  0  0
   -0.3138   -2.0490    0.2074 H   0  0  0  0  0  0  0  0  0  0  0  0
    1.7312    0.3486    0.3831 H   0  0  0  0  0  0  0  0  0  0  0  0
  1  2  3  0
  2  3  1  0
  3  4  2  0
  4  5  1  0
  5  6  1  0
  6  7  1  0
  6  8  1  0
  8  9  1  0
  9  3  1  0
  9  6  1  0
  1 10  1  0
  4 11  1  0
  5 12  1  0
  5 13  1  0
  7 14  1  0
  8 15  1  0
  8 16  1  0
  9 17  1  0
M  END
