
     RDKit          3D

 13 13  0  0  0  0  0  0  0  0999 V2000
    2.0768    0.5965   -1.4131 C   0  0  0  0  0  0  0  0  0  0  0  0
    1.3387    0.2757   -0.4921 C   0  0  0  0  0  0  0  0  0  0  0  0
    0.4691   -0.0818    0.6095 C   0  0  0  0  0  0  0  0  0  0  0  0
   -0.7543    0.8144    0.6220 C   0  0  0  0  0  0  0  0  0  0  0  0
   -1.3846   -0.1549   -0.2915 C   0  0  0  0  0  0  0  0  0  0  0  0
   -2.2342   -0.1351   -1.1347 O   0  0  0  0  0  0  0  0  0  0  0  0
   -0.5023   -1.1832    0.2893 C   0  0  0  0  0  0  0  0  0  0  0  0
    2.7059    0.8897   -2.2127 H   0  0  0  0  0  0  0  0  0  0  0  0
    0.9431   -0.1215    1.6072 H   0  0  0  0  0  0  0  0  0  0  0  0
   -1.1716    0.8915    1.6373 H   0  0  0  0  0  0  0  0  0  0  0  0
   -0.5356    1.8194    0.1717 H   0  0  0  0  0  0  0  0  0  0  0  0
   -0.8812   -1.7770    1.1141 H   0  0  0  0  0  0  0  0  0  0  0  0
   -0.0698   -1.8338   -0.5072 H   0  0  0  0  0  0  0  0  0  0  0  0
  1  2  3  0
  2  3  1  0
  3  4  1  0
  4  5  1  0
  5  6  2  0
  5  7  1  0
  7  3  1  0
  1  8  1  0
  3  9  1  0
  4 10  1  0
  4 11  1  0
  7 12  1  0
  7 13  1  0
M  END
