
     RDKit          3D

 17 17  0  0  0  0  0  0  0  0999 V2000
    2.5988    1.7095    0.8146 C   0  0  0  0  0  0  0  0  0  0  0  0
    1.7629    0.8671    0.8193 C   0  0  0  0  0  0  0  0  0  0  0  0
    0.7120   -0.1618    0.8140 C   0  0  0  0  0  0  0  0  0  0  0  0
    1.2963   -1.4091    1.1441 O   0  0  0  0  0  0  0  0  0  0  0  0
    0.0882   -0.3292   -0.5308 C   0  0  0  0  0  0  0  0  0  0  0  0
   -1.0045   -1.3942   -0.5447 C   0  0  0  0  0  0  0  0  0  0  0  0
   -1.2954    0.0241   -0.8629 C   0  0  0  0  0  0  0  0  0  0  0  0
   -2.0077    0.9111    0.0750 C   0  0  0  0  0  0  0  0  0  0  0  0
   -2.7736    1.7638   -0.3044 O   0  0  0  0  0  0  0  0  0  0  0  0
    3.3458    2.4839    0.8002 H   0  0  0  0  0  0  0  0  0  0  0  0
   -0.0348    0.0860    1.5914 H   0  0  0  0  0  0  0  0  0  0  0  0
    2.2428   -1.3384    0.8250 H   0  0  0  0  0  0  0  0  0  0  0  0
    0.8040   -0.3449   -1.3808 H   0  0  0  0  0  0  0  0  0  0  0  0
   -0.9263   -2.1395   -1.3347 H   0  0  0  0  0  0  0  0  0  0  0  0
   -1.4102   -1.7614    0.4085 H   0  0  0  0  0  0  0  0  0  0  0  0
   -1.5369    0.2124   -1.9357 H   0  0  0  0  0  0  0  0  0  0  0  0
   -1.8614    0.8204    1.1411 H   0  0  0  0  0  0  0  0  0  0  0  0
  1  2  3  0
  2  3  1  0
  3  4  1  0
  3  5  1  0
  5  6  1  0
  6  7  1  0
  7  8  1  0
  8  9  2  0
  7  5  1  0
  1 10  1  0
  3 11  1  0
  4 12  1  0
  5 13  1  0
  6 14  1  0
  6 15  1  0
  7 16  1  0
  8 17  1  0
M  END
