
     RDKit          3D

 17 18  0  0  0  0  0  0  0  0999 V2000
   -1.6966    1.9543    0.3219 C   0  0  0  0  0  0  0  0  0  0  0  0
   -1.1026    0.9158    0.1203 C   0  0  0  0  0  0  0  0  0  0  0  0
   -0.3808   -0.3083   -0.1183 C   0  0  0  0  0  0  0  0  0  0  0  0
   -1.2109   -1.4752   -0.5962 C   0  0  0  0  0  0  0  0  0  0  0  0
    0.6524   -0.6380    0.9202 C   0  0  0  0  0  0  0  0  0  0  0  0
    1.3995    0.6392    1.0665 C   0  0  0  0  0  0  0  0  0  0  0  0
    1.5671    0.9906   -0.2211 C   0  0  0  0  0  0  0  0  0  0  0  0
    0.8768   -0.1547   -0.9000 C   0  0  0  0  0  0  0  0  0  0  0  0
    1.3782   -1.2358   -0.1355 O   0  0  0  0  0  0  0  0  0  0  0  0
   -2.2220    2.8709    0.4895 H   0  0  0  0  0  0  0  0  0  0  0  0
   -0.5857   -2.2916   -0.9606 H   0  0  0  0  0  0  0  0  0  0  0  0
   -1.8781   -1.7580    0.2546 H   0  0  0  0  0  0  0  0  0  0  0  0
   -1.8986   -1.0724   -1.3856 H   0  0  0  0  0  0  0  0  0  0  0  0
    0.4139   -1.2198    1.7639 H   0  0  0  0  0  0  0  0  0  0  0  0
    1.7218    1.1491    1.9631 H   0  0  0  0  0  0  0  0  0  0  0  0
    2.0636    1.8601   -0.6327 H   0  0  0  0  0  0  0  0  0  0  0  0
    0.9020   -0.2263   -1.9500 H   0  0  0  0  0  0  0  0  0  0  0  0
  1  2  3  0
  2  3  1  0
  3  4  1  0
  3  5  1  0
  5  6  1  0
  6  7  2  0
  7  8  1  0
  8  9  1  0
  8  3  1  0
  9  5  1  0
  1 10  1  0
  4 11  1  0
  4 12  1  0
  4 13  1  0
  5 14  1  0
  6 15  1  0
  7 16  1  0
  8 17  1  0
M  END
