
     RDKit          3D

 19 19  0  0  0  0  0  0  0  0999 V2000
    2.6556    1.2251    0.2772 C   0  0  0  0  0  0  0  0  0  0  0  0
    1.5030    0.9487    0.4923 C   0  0  0  0  0  0  0  0  0  0  0  0
    0.0807    0.6337    0.7598 C   0  0  0  0  0  0  0  0  0  0  0  0
   -0.3602    1.6308    1.6323 O   0  0  0  0  0  0  0  0  0  0  0  0
   -0.6853    0.7829   -0.5188 C   0  0  0  0  0  0  0  0  0  0  0  0
   -1.0362   -0.5303   -1.1661 C   0  0  0  0  0  0  0  0  0  0  0  0
   -0.0159   -1.5492   -0.6867 C   0  0  0  0  0  0  0  0  0  0  0  0
   -0.2866   -1.7599    0.6499 O   0  0  0  0  0  0  0  0  0  0  0  0
   -0.0809   -0.6731    1.4512 C   0  0  0  0  0  0  0  0  0  0  0  0
    3.6900    1.4797    0.1020 H   0  0  0  0  0  0  0  0  0  0  0  0
   -1.3396    1.5717    1.7787 H   0  0  0  0  0  0  0  0  0  0  0  0
   -1.6448    1.3365   -0.3716 H   0  0  0  0  0  0  0  0  0  0  0  0
   -0.1268    1.3793   -1.2811 H   0  0  0  0  0  0  0  0  0  0  0  0
   -0.9392   -0.5030   -2.2795 H   0  0  0  0  0  0  0  0  0  0  0  0
   -2.0789   -0.8422   -0.9048 H   0  0  0  0  0  0  0  0  0  0  0  0
   -0.2111   -2.4931   -1.2270 H   0  0  0  0  0  0  0  0  0  0  0  0
    0.9828   -1.1209   -0.8814 H   0  0  0  0  0  0  0  0  0  0  0  0
    0.8266   -0.8664    2.0645 H   0  0  0  0  0  0  0  0  0  0  0  0
   -0.9331   -0.6499    2.1939 H   0  0  0  0  0  0  0  0  0  0  0  0
  1  2  3  0
  2  3  1  0
  3  4  1  0
  3  5  1  0
  5  6  1  0
  6  7  1  0
  7  8  1  0
  8  9  1  0
  9  3  1  0
  1 10  1  0
  4 11  1  0
  5 12  1  0
  5 13  1  0
  6 14  1  0
  6 15  1  0
  7 16  1  0
  7 17  1  0
  9 18  1  0
  9 19  1  0
M  END
