
     RDKit          3D

 19 19  0  0  0  0  0  0  0  0999 V2000
    2.3554    1.3783   -0.7127 C   0  0  0  0  0  0  0  0  0  0  0  0
    1.5276    0.6351   -0.2409 C   0  0  0  0  0  0  0  0  0  0  0  0
    0.5385   -0.2826    0.3242 C   0  0  0  0  0  0  0  0  0  0  0  0
    0.8618   -1.6597   -0.1490 C   0  0  0  0  0  0  0  0  0  0  0  0
    0.6189   -0.2234    1.7322 O   0  0  0  0  0  0  0  0  0  0  0  0
   -0.8283    0.1872   -0.0572 C   0  0  0  0  0  0  0  0  0  0  0  0
   -1.1370    1.6078    0.3911 C   0  0  0  0  0  0  0  0  0  0  0  0
   -1.7476   -0.4912   -0.8790 C   0  0  0  0  0  0  0  0  0  0  0  0
   -1.8348   -0.7087    0.5722 O   0  0  0  0  0  0  0  0  0  0  0  0
    3.0826    2.0224   -1.1356 H   0  0  0  0  0  0  0  0  0  0  0  0
    1.9689   -1.8103    0.0047 H   0  0  0  0  0  0  0  0  0  0  0  0
    0.7044   -1.7245   -1.2341 H   0  0  0  0  0  0  0  0  0  0  0  0
    0.3365   -2.4621    0.3732 H   0  0  0  0  0  0  0  0  0  0  0  0
    1.2944   -0.8551    2.0779 H   0  0  0  0  0  0  0  0  0  0  0  0
   -0.6173    2.3519   -0.2400 H   0  0  0  0  0  0  0  0  0  0  0  0
   -2.2370    1.7807    0.4234 H   0  0  0  0  0  0  0  0  0  0  0  0
   -0.7619    1.6768    1.4422 H   0  0  0  0  0  0  0  0  0  0  0  0
   -2.6125    0.0263   -1.3078 H   0  0  0  0  0  0  0  0  0  0  0  0
   -1.5125   -1.4488   -1.3847 H   0  0  0  0  0  0  0  0  0  0  0  0
  1  2  3  0
  2  3  1  0
  3  4  1  0
  3  5  1  0
  3  6  1  0
  6  7  1  0
  6  8  1  0
  8  9  1  0
  9  6  1  0
  1 10  1  0
  4 11  1  0
  4 12  1  0
  4 13  1  0
  5 14  1  0
  7 15  1  0
  7 16  1  0
  7 17  1  0
  8 18  1  0
  8 19  1  0
M  END
