
     RDKit          3D

 17 17  0  0  0  0  0  0  0  0999 V2000
    0.8142    2.1796   -1.2208 C   0  0  0  0  0  0  0  0  0  0  0  0
    1.0065    0.9043   -0.5245 C   0  0  0  0  0  0  0  0  0  0  0  0
    1.1886   -0.1631    0.0621 C   0  0  0  0  0  0  0  0  0  0  0  0
    0.8067   -1.3083   -0.1284 O   0  0  0  0  0  0  0  0  0  0  0  0
    0.5717   -1.8012    1.1754 C   0  0  0  0  0  0  0  0  0  0  0  0
   -0.3105   -0.7671    1.5918 O   0  0  0  0  0  0  0  0  0  0  0  0
   -0.3181    0.2699    0.8286 C   0  0  0  0  0  0  0  0  0  0  0  0
   -1.3235    0.3506   -0.3425 C   0  0  0  0  0  0  0  0  0  0  0  0
   -1.0457   -0.7384   -1.1142 O   0  0  0  0  0  0  0  0  0  0  0  0
    0.5867    3.5365   -1.9759 H   0  0  0  0  0  0  0  0  0  0  0  0
    1.8837    0.1688    1.0519 H   0  0  0  0  0  0  0  0  0  0  0  0
    0.3107   -2.8005    1.2002 H   0  0  0  0  0  0  0  0  0  0  0  0
    1.5500   -1.3961    1.8196 H   0  0  0  0  0  0  0  0  0  0  0  0
   -0.0787    1.2286    1.1160 H   0  0  0  0  0  0  0  0  0  0  0  0
   -2.3585    0.2419    0.1722 H   0  0  0  0  0  0  0  0  0  0  0  0
   -1.3593    1.2106   -0.9788 H   0  0  0  0  0  0  0  0  0  0  0  0
   -1.9246   -1.1161   -1.5726 H   0  0  0  0  0  0  0  0  0  0  0  0
  1  2  3  0
  2  3  1  0
  3  4  1  0
  4  5  1  0
  5  6  1  0
  6  7  1  0
  7  8  1  0
  8  9  1  0
  7  3  1  0
  1 10  1  0
  3 11  1  0
  5 12  1  0
  5 13  1  0
  7 14  1  0
  8 15  1  0
  8 16  1  0
  9 17  1  0
M  END
