
     RDKit          3D

 17 18  0  0  0  0  0  0  0  0999 V2000
    2.9335    0.9242   -1.3250 C   0  0  0  0  0  0  0  0  0  0  0  0
    1.7897    0.8234   -0.9850 C   0  0  0  0  0  0  0  0  0  0  0  0
    0.4106    0.7260   -0.5678 C   0  0  0  0  0  0  0  0  0  0  0  0
   -0.3606   -0.0872   -1.4119 O   0  0  0  0  0  0  0  0  0  0  0  0
   -1.1260   -0.8696   -0.5625 C   0  0  0  0  0  0  0  0  0  0  0  0
   -1.9368   -0.0056    0.3787 C   0  0  0  0  0  0  0  0  0  0  0  0
   -1.1130    0.5485    1.2615 C   0  0  0  0  0  0  0  0  0  0  0  0
    0.2480    0.1730    0.8271 C   0  0  0  0  0  0  0  0  0  0  0  0
   -0.0287   -1.2967    0.4371 C   0  0  0  0  0  0  0  0  0  0  0  0
    3.9422    1.0138   -1.6383 H   0  0  0  0  0  0  0  0  0  0  0  0
   -0.1020    1.7326   -0.5754 H   0  0  0  0  0  0  0  0  0  0  0  0
   -1.6562   -1.6784   -0.9937 H   0  0  0  0  0  0  0  0  0  0  0  0
   -3.0213    0.1462    0.3481 H   0  0  0  0  0  0  0  0  0  0  0  0
   -1.4032    1.1407    2.1050 H   0  0  0  0  0  0  0  0  0  0  0  0
    1.0454    0.3058    1.5032 H   0  0  0  0  0  0  0  0  0  0  0  0
   -0.4469   -1.8578    1.2695 H   0  0  0  0  0  0  0  0  0  0  0  0
    0.8255   -1.7388   -0.0705 H   0  0  0  0  0  0  0  0  0  0  0  0
  1  2  3  0
  2  3  1  0
  3  4  1  0
  4  5  1  0
  5  6  1  0
  6  7  2  0
  7  8  1  0
  8  9  1  0
  8  3  1  0
  9  5  1  0
  1 10  1  0
  3 11  1  0
  5 12  1  0
  6 13  1  0
  7 14  1  0
  8 15  1  0
  9 16  1  0
  9 17  1  0
M  END
