
     RDKit          3D

 19 20  0  0  0  0  0  0  0  0999 V2000
    2.0751   -2.2010   -2.1811 C   0  0  0  0  0  0  0  0  0  0  0  0
    1.1954   -1.5507   -1.4388 C   0  0  0  0  0  0  0  0  0  0  0  0
    0.2937   -0.8653   -0.6522 C   0  0  0  0  0  0  0  0  0  0  0  0
    0.0320    0.6164   -1.1980 C   0  0  0  0  0  0  0  0  0  0  0  0
   -1.0284    0.5274   -0.1201 C   0  0  0  0  0  0  0  0  0  0  0  0
   -1.1389   -0.9654   -0.6080 C   0  0  0  0  0  0  0  0  0  0  0  0
   -0.2373    0.2715    1.1192 C   0  0  0  0  0  0  0  0  0  0  0  0
    0.2326    1.5768    1.7088 C   0  0  0  0  0  0  0  0  0  0  0  0
    0.7177   -0.5464    0.6680 O   0  0  0  0  0  0  0  0  0  0  0  0
    2.7230   -2.6801   -2.7486 H   0  0  0  0  0  0  0  0  0  0  0  0
    0.8877    1.2501   -1.0254 H   0  0  0  0  0  0  0  0  0  0  0  0
   -0.3607    0.4498   -2.2043 H   0  0  0  0  0  0  0  0  0  0  0  0
   -1.8572    1.1403   -0.1388 H   0  0  0  0  0  0  0  0  0  0  0  0
   -1.6259   -1.6048    0.1832 H   0  0  0  0  0  0  0  0  0  0  0  0
   -1.7676   -0.9288   -1.5395 H   0  0  0  0  0  0  0  0  0  0  0  0
   -0.8977   -0.2579    1.8868 H   0  0  0  0  0  0  0  0  0  0  0  0
    1.1561    1.9163    1.2528 H   0  0  0  0  0  0  0  0  0  0  0  0
    0.2551    1.5381    2.8428 H   0  0  0  0  0  0  0  0  0  0  0  0
   -0.6546    2.3135    1.5117 H   0  0  0  0  0  0  0  0  0  0  0  0
  1  2  3  0
  2  3  1  0
  3  4  1  0
  4  5  1  0
  5  6  1  0
  5  7  1  0
  7  8  1  0
  7  9  1  0
  6  3  1  0
  9  3  1  0
  1 10  1  0
  4 11  1  0
  4 12  1  0
  5 13  1  0
  6 14  1  0
  6 15  1  0
  7 16  1  0
  8 17  1  0
  8 18  1  0
  8 19  1  0
M  END
