
     RDKit          3D

 19 19  0  0  0  0  0  0  0  0999 V2000
    2.4793   -1.1348    0.9874 C   0  0  0  0  0  0  0  0  0  0  0  0
    1.7170   -0.7712    0.1040 C   0  0  0  0  0  0  0  0  0  0  0  0
    0.7940   -0.3543   -0.9538 C   0  0  0  0  0  0  0  0  0  0  0  0
    1.2721    0.8187   -1.4871 O   0  0  0  0  0  0  0  0  0  0  0  0
   -0.5785   -0.1951   -0.3112 C   0  0  0  0  0  0  0  0  0  0  0  0
   -1.0968   -1.4721    0.3161 C   0  0  0  0  0  0  0  0  0  0  0  0
   -1.4806    0.8858   -0.6822 C   0  0  0  0  0  0  0  0  0  0  0  0
   -0.6624    1.0397    0.5632 C   0  0  0  0  0  0  0  0  0  0  0  0
    0.3494    1.9824    0.5140 O   0  0  0  0  0  0  0  0  0  0  0  0
    3.1304   -1.4643    1.7586 H   0  0  0  0  0  0  0  0  0  0  0  0
    0.7554   -1.1597   -1.7083 H   0  0  0  0  0  0  0  0  0  0  0  0
    1.9938    1.2074   -0.9553 H   0  0  0  0  0  0  0  0  0  0  0  0
   -1.6842   -2.0073   -0.4650 H   0  0  0  0  0  0  0  0  0  0  0  0
   -0.2873   -2.0791    0.7346 H   0  0  0  0  0  0  0  0  0  0  0  0
   -1.8138   -1.1855    1.1308 H   0  0  0  0  0  0  0  0  0  0  0  0
   -1.2298    1.5055   -1.5755 H   0  0  0  0  0  0  0  0  0  0  0  0
   -2.5722    0.6961   -0.5523 H   0  0  0  0  0  0  0  0  0  0  0  0
   -1.1108    0.9149    1.5532 H   0  0  0  0  0  0  0  0  0  0  0  0
    0.0250    2.7729    1.0288 H   0  0  0  0  0  0  0  0  0  0  0  0
  1  2  3  0
  2  3  1  0
  3  4  1  0
  3  5  1  0
  5  6  1  0
  5  7  1  0
  7  8  1  0
  8  9  1  0
  8  5  1  0
  1 10  1  0
  3 11  1  0
  4 12  1  0
  6 13  1  0
  6 14  1  0
  6 15  1  0
  7 16  1  0
  7 17  1  0
  8 18  1  0
  9 19  1  0
M  END
