
     RDKit          3D

 21 20  0  0  0  0  0  0  0  0999 V2000
   -1.8028   -1.3283   -2.0022 C   0  0  0  0  0  0  0  0  0  0  0  0
   -1.1964   -0.9668   -1.0209 C   0  0  0  0  0  0  0  0  0  0  0  0
   -0.4698   -0.5036    0.1747 C   0  0  0  0  0  0  0  0  0  0  0  0
   -1.5702   -0.0570    1.1519 C   0  0  0  0  0  0  0  0  0  0  0  0
    0.1941   -1.6931    0.7641 C   0  0  0  0  0  0  0  0  0  0  0  0
    1.1381   -2.2384   -0.1072 O   0  0  0  0  0  0  0  0  0  0  0  0
    0.2491    0.5524   -0.1707 O   0  0  0  0  0  0  0  0  0  0  0  0
    1.0344    1.2398    0.6434 C   0  0  0  0  0  0  0  0  0  0  0  0
    1.6863    2.3833   -0.1461 C   0  0  0  0  0  0  0  0  0  0  0  0
   -2.3271   -1.6557   -2.8847 H   0  0  0  0  0  0  0  0  0  0  0  0
   -2.0632    0.8591    0.7960 H   0  0  0  0  0  0  0  0  0  0  0  0
   -1.1956    0.0038    2.1783 H   0  0  0  0  0  0  0  0  0  0  0  0
   -2.3410   -0.8682    1.1083 H   0  0  0  0  0  0  0  0  0  0  0  0
    0.6281   -1.5712    1.7518 H   0  0  0  0  0  0  0  0  0  0  0  0
   -0.5967   -2.4944    0.8765 H   0  0  0  0  0  0  0  0  0  0  0  0
    0.8631   -2.2044   -1.0466 H   0  0  0  0  0  0  0  0  0  0  0  0
    1.8497    0.7294    1.1645 H   0  0  0  0  0  0  0  0  0  0  0  0
    0.4199    1.7356    1.4472 H   0  0  0  0  0  0  0  0  0  0  0  0
    1.5486    3.3556    0.3596 H   0  0  0  0  0  0  0  0  0  0  0  0
    2.7636    2.2274   -0.2751 H   0  0  0  0  0  0  0  0  0  0  0  0
    1.1877    2.4947   -1.1483 H   0  0  0  0  0  0  0  0  0  0  0  0
  1  2  3  0
  2  3  1  0
  3  4  1  0
  3  5  1  0
  5  6  1  0
  3  7  1  0
  7  8  1  0
  8  9  1  0
  1 10  1  0
  4 11  1  0
  4 12  1  0
  4 13  1  0
  5 14  1  0
  5 15  1  0
  6 16  1  0
  8 17  1  0
  8 18  1  0
  9 19  1  0
  9 20  1  0
  9 21  1  0
M  END
