
     RDKit          3D

 19 19  0  0  0  0  0  0  0  0999 V2000
    3.1615   -1.7020   -0.1941 C   0  0  0  0  0  0  0  0  0  0  0  0
    2.0062   -1.4717   -0.2887 C   0  0  0  0  0  0  0  0  0  0  0  0
    0.5879   -1.2113   -0.3930 C   0  0  0  0  0  0  0  0  0  0  0  0
   -0.1379   -1.7340    0.6773 O   0  0  0  0  0  0  0  0  0  0  0  0
   -1.0510   -0.7108    0.4305 C   0  0  0  0  0  0  0  0  0  0  0  0
   -1.7923   -0.2022    1.6340 C   0  0  0  0  0  0  0  0  0  0  0  0
    0.1939    0.1865    0.1692 C   0  0  0  0  0  0  0  0  0  0  0  0
    0.0867    1.1561   -0.5960 O   0  0  0  0  0  0  0  0  0  0  0  0
   -0.0182    2.1264   -1.3558 C   0  0  0  0  0  0  0  0  0  0  0  0
    4.2156   -1.8971   -0.0981 H   0  0  0  0  0  0  0  0  0  0  0  0
    0.1253   -1.3010   -1.3855 H   0  0  0  0  0  0  0  0  0  0  0  0
   -1.6422   -0.8470   -0.4806 H   0  0  0  0  0  0  0  0  0  0  0  0
   -1.1291    0.1068    2.4465 H   0  0  0  0  0  0  0  0  0  0  0  0
   -2.4379    0.6417    1.2712 H   0  0  0  0  0  0  0  0  0  0  0  0
   -2.5241   -0.9998    1.9324 H   0  0  0  0  0  0  0  0  0  0  0  0
    0.6636    0.3017    1.2094 H   0  0  0  0  0  0  0  0  0  0  0  0
   -0.6483    3.0017   -0.9461 H   0  0  0  0  0  0  0  0  0  0  0  0
    0.9071    2.6991   -1.6953 H   0  0  0  0  0  0  0  0  0  0  0  0
   -0.5669    1.8569   -2.3374 H   0  0  0  0  0  0  0  0  0  0  0  0
  1  2  3  0
  2  3  1  0
  3  4  1  0
  4  5  1  0
  5  6  1  0
  5  7  1  0
  7  8  1  0
  8  9  1  0
  7  3  1  0
  1 10  1  0
  3 11  1  0
  5 12  1  0
  6 13  1  0
  6 14  1  0
  6 15  1  0
  7 16  1  0
  9 17  1  0
  9 18  1  0
  9 19  1  0
M  END
