
     RDKit          3D

 25 24  0  0  0  0  0  0  0  0999 V2000
   -1.3030    2.3305    0.5414 C   0  0  0  0  0  0  0  0  0  0  0  0
   -1.5451    1.5024    0.0080 C   0  0  0  0  0  0  0  0  0  0  0  0
   -1.8666    0.3787   -0.7100 C   0  0  0  0  0  0  0  0  0  0  0  0
   -3.3194   -0.1586   -0.4448 C   0  0  0  0  0  0  0  0  0  0  0  0
   -1.0648   -0.8840   -0.2329 C   0  0  0  0  0  0  0  0  0  0  0  0
    0.3578   -0.6980   -0.4971 C   0  0  0  0  0  0  0  0  0  0  0  0
    1.2755   -0.8710    0.6578 C   0  0  0  0  0  0  0  0  0  0  0  0
    2.7363   -0.6115    0.2379 C   0  0  0  0  0  0  0  0  0  0  0  0
    2.8705    0.8139   -0.2175 C   0  0  0  0  0  0  0  0  0  0  0  0
   -0.9839    3.3784    1.2000 H   0  0  0  0  0  0  0  0  0  0  0  0
   -1.7324    0.3462   -1.8422 H   0  0  0  0  0  0  0  0  0  0  0  0
   -3.4690   -1.1463   -0.9952 H   0  0  0  0  0  0  0  0  0  0  0  0
   -4.0761    0.4976   -0.7712 H   0  0  0  0  0  0  0  0  0  0  0  0
   -3.4061   -0.4417    0.6521 H   0  0  0  0  0  0  0  0  0  0  0  0
   -1.4125   -1.8126   -0.8469 H   0  0  0  0  0  0  0  0  0  0  0  0
   -1.4898   -1.1142    0.7350 H   0  0  0  0  0  0  0  0  0  0  0  0
    0.7262   -1.4039   -1.3539 H   0  0  0  0  0  0  0  0  0  0  0  0
    0.5139    0.3419   -0.9602 H   0  0  0  0  0  0  0  0  0  0  0  0
    1.2205   -1.8280    1.1669 H   0  0  0  0  0  0  0  0  0  0  0  0
    0.9580   -0.0679    1.4095 H   0  0  0  0  0  0  0  0  0  0  0  0
    2.9756   -1.2948   -0.6205 H   0  0  0  0  0  0  0  0  0  0  0  0
    3.3831   -0.7856    1.1120 H   0  0  0  0  0  0  0  0  0  0  0  0
    2.4526    1.4952    0.6078 H   0  0  0  0  0  0  0  0  0  0  0  0
    3.9433    1.0659   -0.4371 H   0  0  0  0  0  0  0  0  0  0  0  0
    2.2555    0.9672   -1.1335 H   0  0  0  0  0  0  0  0  0  0  0  0
  1  2  3  0
  2  3  1  0
  3  4  1  0
  3  5  1  0
  5  6  1  0
  6  7  1  0
  7  8  1  0
  8  9  1  0
  1 10  1  0
  3 11  1  0
  4 12  1  0
  4 13  1  0
  4 14  1  0
  5 15  1  0
  5 16  1  0
  6 17  1  0
  6 18  1  0
  7 19  1  0
  7 20  1  0
  8 21  1  0
  8 22  1  0
  9 23  1  0
  9 24  1  0
  9 25  1  0
M  END
