
     RDKit          3D

 17 17  0  0  0  0  0  0  0  0999 V2000
    3.4704   -0.5299    0.5278 C   0  0  0  0  0  0  0  0  0  0  0  0
    2.3216   -0.1072    0.5283 C   0  0  0  0  0  0  0  0  0  0  0  0
    0.9412    0.3811    0.5116 C   0  0  0  0  0  0  0  0  0  0  0  0
    0.5080    0.8837   -0.8268 C   0  0  0  0  0  0  0  0  0  0  0  0
    0.2072   -0.4270   -1.1832 O   0  0  0  0  0  0  0  0  0  0  0  0
   -0.0588   -0.6957    0.1571 C   0  0  0  0  0  0  0  0  0  0  0  0
   -1.4393   -0.4608    0.5903 C   0  0  0  0  0  0  0  0  0  0  0  0
   -2.4662    0.0130   -0.3748 C   0  0  0  0  0  0  0  0  0  0  0  0
   -1.7668   -0.6480    1.7364 O   0  0  0  0  0  0  0  0  0  0  0  0
    4.4588   -0.9133    0.5294 H   0  0  0  0  0  0  0  0  0  0  0  0
    0.6678    0.9949    1.3865 H   0  0  0  0  0  0  0  0  0  0  0  0
    1.3243    1.3002   -1.4679 H   0  0  0  0  0  0  0  0  0  0  0  0
   -0.3974    1.4953   -0.7844 H   0  0  0  0  0  0  0  0  0  0  0  0
    0.3742   -1.6780    0.4810 H   0  0  0  0  0  0  0  0  0  0  0  0
   -3.3983   -0.5946   -0.2482 H   0  0  0  0  0  0  0  0  0  0  0  0
   -2.0757   -0.0954   -1.3929 H   0  0  0  0  0  0  0  0  0  0  0  0
   -2.6709    1.0818   -0.1703 H   0  0  0  0  0  0  0  0  0  0  0  0
  1  2  3  0
  2  3  1  0
  3  4  1  0
  4  5  1  0
  5  6  1  0
  6  7  1  0
  7  8  1  0
  7  9  2  0
  6  3  1  0
  1 10  1  0
  3 11  1  0
  4 12  1  0
  4 13  1  0
  6 14  1  0
  8 15  1  0
  8 16  1  0
  8 17  1  0
M  END
