
     RDKit          3D

 19 19  0  0  0  0  0  0  0  0999 V2000
    2.2472    2.2657    0.4892 C   0  0  0  0  0  0  0  0  0  0  0  0
    0.9711    0.7898   -0.4443 C   0  0  0  0  0  0  0  0  0  0  0  0
    0.4991    0.2596   -0.7811 C   0  0  0  0  0  0  0  0  0  0  0  0
    0.6980   -1.3815   -0.2476 C   0  0  0  0  0  0  0  0  0  0  0  0
   -0.4277   -1.7775   -1.1075 C   0  0  0  0  0  0  0  0  0  0  0  0
   -1.4508   -0.9450   -0.6293 O   0  0  0  0  0  0  0  0  0  0  0  0
   -1.0431    0.1731   -0.2014 C   0  0  0  0  0  0  0  0  0  0  0  0
   -0.7474    0.2616    1.2936 C   0  0  0  0  0  0  0  0  0  0  0  0
   -0.7279    1.7215    1.5442 O   0  0  0  0  0  0  0  0  0  0  0  0
    2.8742    2.9673    0.9363 H   0  0  0  0  0  0  0  0  0  0  0  0
    0.2641   -0.0083   -1.9731 H   0  0  0  0  0  0  0  0  0  0  0  0
    0.3561   -1.3627    0.7864 H   0  0  0  0  0  0  0  0  0  0  0  0
    1.6869   -1.7016   -0.3331 H   0  0  0  0  0  0  0  0  0  0  0  0
   -0.0513   -1.5678   -2.1795 H   0  0  0  0  0  0  0  0  0  0  0  0
   -0.7510   -2.7743   -1.1396 H   0  0  0  0  0  0  0  0  0  0  0  0
   -1.4230    1.1126   -0.6556 H   0  0  0  0  0  0  0  0  0  0  0  0
   -1.5721   -0.0434    1.9498 H   0  0  0  0  0  0  0  0  0  0  0  0
    0.2225   -0.0236    1.5966 H   0  0  0  0  0  0  0  0  0  0  0  0
   -1.6247    2.0344    1.0959 H   0  0  0  0  0  0  0  0  0  0  0  0
  1  2  3  0
  2  3  1  0
  3  4  1  0
  4  5  1  0
  5  6  1  0
  6  7  1  0
  7  8  1  0
  8  9  1  0
  7  3  1  0
  1 10  1  0
  3 11  1  0
  4 12  1  0
  4 13  1  0
  5 14  1  0
  5 15  1  0
  7 16  1  0
  8 17  1  0
  8 18  1  0
  9 19  1  0
M  END
