
     RDKit          3D

 19 19  0  0  0  0  0  0  0  0999 V2000
    3.1991   -0.1414    0.9111 C   0  0  0  0  0  0  0  0  0  0  0  0
    2.2001   -0.1084    0.2638 C   0  0  0  0  0  0  0  0  0  0  0  0
    1.0035   -0.0790   -0.5388 C   0  0  0  0  0  0  0  0  0  0  0  0
    0.2260   -1.3849   -0.4397 C   0  0  0  0  0  0  0  0  0  0  0  0
   -1.0271   -0.5317   -0.5377 C   0  0  0  0  0  0  0  0  0  0  0  0
   -2.1774   -1.0171    0.2318 C   0  0  0  0  0  0  0  0  0  0  0  0
   -3.3083   -0.6794   -0.0255 O   0  0  0  0  0  0  0  0  0  0  0  0
   -0.2073    0.5663    0.1501 C   0  0  0  0  0  0  0  0  0  0  0  0
   -0.5130    1.9554   -0.3146 C   0  0  0  0  0  0  0  0  0  0  0  0
    4.1052   -0.1899    1.4947 H   0  0  0  0  0  0  0  0  0  0  0  0
    1.0759    0.2731   -1.5638 H   0  0  0  0  0  0  0  0  0  0  0  0
    0.3766   -2.0853   -1.2744 H   0  0  0  0  0  0  0  0  0  0  0  0
    0.2674   -1.8481    0.5750 H   0  0  0  0  0  0  0  0  0  0  0  0
   -1.2123   -0.3021   -1.6173 H   0  0  0  0  0  0  0  0  0  0  0  0
   -2.0355   -1.7010    1.0623 H   0  0  0  0  0  0  0  0  0  0  0  0
   -0.2198    0.4009    1.2371 H   0  0  0  0  0  0  0  0  0  0  0  0
   -1.3975    1.9293   -0.9847 H   0  0  0  0  0  0  0  0  0  0  0  0
    0.3862    2.3718   -0.8212 H   0  0  0  0  0  0  0  0  0  0  0  0
   -0.7420    2.5714    0.6009 H   0  0  0  0  0  0  0  0  0  0  0  0
  1  2  3  0
  2  3  1  0
  3  4  1  0
  4  5  1  0
  5  6  1  0
  6  7  2  0
  5  8  1  0
  8  9  1  0
  8  3  1  0
  1 10  1  0
  3 11  1  0
  4 12  1  0
  4 13  1  0
  5 14  1  0
  6 15  1  0
  8 16  1  0
  9 17  1  0
  9 18  1  0
  9 19  1  0
M  END
