
     RDKit          3D

 13 13  0  0  0  0  0  0  0  0999 V2000
    2.8118    0.2585    0.6734 C   0  0  0  0  0  0  0  0  0  0  0  0
    1.8040    0.1619    0.0513 C   0  0  0  0  0  0  0  0  0  0  0  0
    0.5601    0.0548   -0.7321 C   0  0  0  0  0  0  0  0  0  0  0  0
    0.0373   -1.2039   -0.4748 O   0  0  0  0  0  0  0  0  0  0  0  0
   -1.3367   -1.0773   -0.3418 C   0  0  0  0  0  0  0  0  0  0  0  0
   -1.6298    0.3034    0.0224 C   0  0  0  0  0  0  0  0  0  0  0  0
   -2.7021    0.8055    0.4277 O   0  0  0  0  0  0  0  0  0  0  0  0
   -0.3935    1.0462   -0.1755 C   0  0  0  0  0  0  0  0  0  0  0  0
   -0.1187    2.2520    0.0494 O   0  0  0  0  0  0  0  0  0  0  0  0
    3.6957    0.3383    1.2268 H   0  0  0  0  0  0  0  0  0  0  0  0
    0.7379    0.2400   -1.8054 H   0  0  0  0  0  0  0  0  0  0  0  0
   -1.6534   -1.7473    0.5082 H   0  0  0  0  0  0  0  0  0  0  0  0
   -1.8126   -1.4320   -1.2683 H   0  0  0  0  0  0  0  0  0  0  0  0
  1  2  3  0
  2  3  1  0
  3  4  1  0
  4  5  1  0
  5  6  1  0
  6  7  2  0
  6  8  1  0
  8  9  2  0
  8  3  1  0
  1 10  1  0
  3 11  1  0
  5 12  1  0
  5 13  1  0
M  END
