
     RDKit          3D

 17 18  0  0  0  0  0  0  0  0999 V2000
    3.0723   -0.7848   -0.3037 C   0  0  0  0  0  0  0  0  0  0  0  0
    1.9152   -0.4580   -0.2786 C   0  0  0  0  0  0  0  0  0  0  0  0
    0.5407   -0.0902   -0.2642 C   0  0  0  0  0  0  0  0  0  0  0  0
   -0.1465   -0.2824    1.0775 C   0  0  0  0  0  0  0  0  0  0  0  0
   -1.3951    0.5856    0.8635 C   0  0  0  0  0  0  0  0  0  0  0  0
   -1.1003    1.2344   -0.4578 C   0  0  0  0  0  0  0  0  0  0  0  0
   -1.2970    0.3328   -1.5037 O   0  0  0  0  0  0  0  0  0  0  0  0
   -0.2910   -0.6327   -1.3872 C   0  0  0  0  0  0  0  0  0  0  0  0
    0.3155    1.2975   -0.4417 O   0  0  0  0  0  0  0  0  0  0  0  0
    4.0962   -1.0548   -0.3251 H   0  0  0  0  0  0  0  0  0  0  0  0
   -0.3910   -1.3224    1.2815 H   0  0  0  0  0  0  0  0  0  0  0  0
    0.5049    0.1762    1.8486 H   0  0  0  0  0  0  0  0  0  0  0  0
   -2.2462   -0.1468    0.7692 H   0  0  0  0  0  0  0  0  0  0  0  0
   -1.5476    1.3005    1.6707 H   0  0  0  0  0  0  0  0  0  0  0  0
   -1.5572    2.1980   -0.6193 H   0  0  0  0  0  0  0  0  0  0  0  0
   -0.7772   -1.5981   -1.1439 H   0  0  0  0  0  0  0  0  0  0  0  0
    0.3044   -0.7546   -2.2905 H   0  0  0  0  0  0  0  0  0  0  0  0
  1  2  3  0
  2  3  1  0
  3  4  1  0
  4  5  1  0
  5  6  1  0
  6  7  1  0
  7  8  1  0
  6  9  1  0
  8  3  1  0
  9  3  1  0
  1 10  1  0
  4 11  1  0
  4 12  1  0
  5 13  1  0
  5 14  1  0
  6 15  1  0
  8 16  1  0
  8 17  1  0
M  END
