
     RDKit          3D

 17 16  0  0  0  0  0  0  0  0999 V2000
    3.4667    0.5144    0.0546 C   0  0  0  0  0  0  0  0  0  0  0  0
    2.3138    0.3786   -0.2781 C   0  0  0  0  0  0  0  0  0  0  0  0
    0.9478    0.2320   -0.6930 C   0  0  0  0  0  0  0  0  0  0  0  0
    0.4785    0.9947   -1.5752 O   0  0  0  0  0  0  0  0  0  0  0  0
    0.1134   -0.8251   -0.0663 C   0  0  0  0  0  0  0  0  0  0  0  0
    0.8453   -1.5296    0.8680 O   0  0  0  0  0  0  0  0  0  0  0  0
   -1.0992   -0.1878    0.5814 C   0  0  0  0  0  0  0  0  0  0  0  0
   -1.8873    0.5524   -0.4753 C   0  0  0  0  0  0  0  0  0  0  0  0
   -0.6998    0.7006    1.6003 O   0  0  0  0  0  0  0  0  0  0  0  0
    4.4860    0.6493    0.3605 H   0  0  0  0  0  0  0  0  0  0  0  0
   -0.2892   -1.4861   -0.8780 H   0  0  0  0  0  0  0  0  0  0  0  0
    0.8771   -2.4950    0.6625 H   0  0  0  0  0  0  0  0  0  0  0  0
   -1.7062   -0.9839    1.0665 H   0  0  0  0  0  0  0  0  0  0  0  0
   -1.5412    1.6128   -0.5711 H   0  0  0  0  0  0  0  0  0  0  0  0
   -1.8487    0.0219   -1.4497 H   0  0  0  0  0  0  0  0  0  0  0  0
   -2.9427    0.6090   -0.0901 H   0  0  0  0  0  0  0  0  0  0  0  0
   -1.5145    1.2417    1.8190 H   0  0  0  0  0  0  0  0  0  0  0  0
  1  2  3  0
  2  3  1  0
  3  4  2  0
  3  5  1  0
  5  6  1  0
  5  7  1  0
  7  8  1  0
  7  9  1  0
  1 10  1  0
  5 11  1  0
  6 12  1  0
  7 13  1  0
  8 14  1  0
  8 15  1  0
  8 16  1  0
  9 17  1  0
M  END
