
     RDKit          3D

 17 18  0  0  0  0  0  0  0  0999 V2000
    2.8011    1.2496   -0.5148 C   0  0  0  0  0  0  0  0  0  0  0  0
    1.6653    0.7017   -0.6683 C   0  0  0  0  0  0  0  0  0  0  0  0
    0.4107    0.1218   -0.8281 C   0  0  0  0  0  0  0  0  0  0  0  0
    0.2268   -1.2494   -1.5008 C   0  0  0  0  0  0  0  0  0  0  0  0
   -0.8277   -1.4909   -0.4084 C   0  0  0  0  0  0  0  0  0  0  0  0
   -0.6573   -0.0732   -0.0159 C   0  0  0  0  0  0  0  0  0  0  0  0
   -1.1557    0.5039    1.2556 C   0  0  0  0  0  0  0  0  0  0  0  0
   -0.3620    1.5856    1.6062 O   0  0  0  0  0  0  0  0  0  0  0  0
   -0.6844    0.9352   -1.0740 O   0  0  0  0  0  0  0  0  0  0  0  0
    3.7006    1.6912   -0.3763 H   0  0  0  0  0  0  0  0  0  0  0  0
    1.1167   -1.8691   -1.4764 H   0  0  0  0  0  0  0  0  0  0  0  0
   -0.2348   -1.1049   -2.4973 H   0  0  0  0  0  0  0  0  0  0  0  0
   -0.3757   -2.1694    0.3453 H   0  0  0  0  0  0  0  0  0  0  0  0
   -1.7966   -1.8302   -0.8144 H   0  0  0  0  0  0  0  0  0  0  0  0
   -1.1171   -0.2108    2.1160 H   0  0  0  0  0  0  0  0  0  0  0  0
   -2.2134    0.8252    1.1879 H   0  0  0  0  0  0  0  0  0  0  0  0
   -0.4967    2.3838    1.0404 H   0  0  0  0  0  0  0  0  0  0  0  0
  1  2  3  0
  2  3  1  0
  3  4  1  0
  4  5  1  0
  5  6  1  0
  6  7  1  0
  7  8  1  0
  6  9  1  0
  6  3  1  0
  9  3  1  0
  1 10  1  0
  4 11  1  0
  4 12  1  0
  5 13  1  0
  5 14  1  0
  7 15  1  0
  7 16  1  0
  8 17  1  0
M  END
