
     RDKit          3D

 17 16  0  0  0  0  0  0  0  0999 V2000
    2.7504   -1.7182   -1.6161 C   0  0  0  0  0  0  0  0  0  0  0  0
    1.7391   -1.5061   -0.9574 C   0  0  0  0  0  0  0  0  0  0  0  0
    0.5332   -1.2422   -0.1688 C   0  0  0  0  0  0  0  0  0  0  0  0
   -0.5567   -1.9168   -0.7347 O   0  0  0  0  0  0  0  0  0  0  0  0
    0.2859    0.2500   -0.1084 C   0  0  0  0  0  0  0  0  0  0  0  0
   -0.9270    0.6117    0.6786 C   0  0  0  0  0  0  0  0  0  0  0  0
   -2.0270   -0.0017    0.0625 O   0  0  0  0  0  0  0  0  0  0  0  0
   -1.0642    2.0744    0.6356 C   0  0  0  0  0  0  0  0  0  0  0  0
   -1.1954    3.2726    0.6085 C   0  0  0  0  0  0  0  0  0  0  0  0
    3.6347   -1.8961   -2.1710 H   0  0  0  0  0  0  0  0  0  0  0  0
    0.6695   -1.6504    0.8522 H   0  0  0  0  0  0  0  0  0  0  0  0
   -0.5443   -1.8240   -1.7319 H   0  0  0  0  0  0  0  0  0  0  0  0
    0.2371    0.6233   -1.1444 H   0  0  0  0  0  0  0  0  0  0  0  0
    1.1809    0.6944    0.3824 H   0  0  0  0  0  0  0  0  0  0  0  0
   -0.8101    0.3019    1.7284 H   0  0  0  0  0  0  0  0  0  0  0  0
   -2.5997   -0.3989    0.7469 H   0  0  0  0  0  0  0  0  0  0  0  0
   -1.3064    4.3261    0.6025 H   0  0  0  0  0  0  0  0  0  0  0  0
  1  2  3  0
  2  3  1  0
  3  4  1  0
  3  5  1  0
  5  6  1  0
  6  7  1  0
  6  8  1  0
  8  9  3  0
  1 10  1  0
  3 11  1  0
  4 12  1  0
  5 13  1  0
  5 14  1  0
  6 15  1  0
  7 16  1  0
  9 17  1  0
M  END
