
     RDKit          3D

 17 17  0  0  0  0  0  0  0  0999 V2000
    1.8113    2.9586    0.2666 C   0  0  0  0  0  0  0  0  0  0  0  0
    1.2610    1.8125    0.0487 C   0  0  0  0  0  0  0  0  0  0  0  0
    0.6366    0.5650   -0.1808 C   0  0  0  0  0  0  0  0  0  0  0  0
    0.6936   -0.2897   -1.1754 C   0  0  0  0  0  0  0  0  0  0  0  0
   -0.1596   -1.4700   -0.9342 C   0  0  0  0  0  0  0  0  0  0  0  0
   -0.1579   -1.4913    0.6026 C   0  0  0  0  0  0  0  0  0  0  0  0
   -0.3188   -0.0106    0.8583 C   0  0  0  0  0  0  0  0  0  0  0  0
   -1.7063    0.3713    0.4163 C   0  0  0  0  0  0  0  0  0  0  0  0
   -1.8816    1.5717    0.2844 O   0  0  0  0  0  0  0  0  0  0  0  0
    2.2417    3.8657    0.4215 H   0  0  0  0  0  0  0  0  0  0  0  0
    1.2965   -0.1191   -2.0483 H   0  0  0  0  0  0  0  0  0  0  0  0
    0.2770   -2.3984   -1.3628 H   0  0  0  0  0  0  0  0  0  0  0  0
   -1.2226   -1.3295   -1.2013 H   0  0  0  0  0  0  0  0  0  0  0  0
    0.7974   -1.9063    0.9197 H   0  0  0  0  0  0  0  0  0  0  0  0
   -1.0562   -2.0554    0.9774 H   0  0  0  0  0  0  0  0  0  0  0  0
   -0.0746    0.3060    1.8599 H   0  0  0  0  0  0  0  0  0  0  0  0
   -2.4378   -0.3805    0.2475 H   0  0  0  0  0  0  0  0  0  0  0  0
  1  2  3  0
  2  3  1  0
  3  4  2  0
  4  5  1  0
  5  6  1  0
  6  7  1  0
  7  8  1  0
  8  9  2  0
  7  3  1  0
  1 10  1  0
  4 11  1  0
  5 12  1  0
  5 13  1  0
  6 14  1  0
  6 15  1  0
  7 16  1  0
  8 17  1  0
M  END
