
     RDKit          3D

 20 19  0  0  0  0  0  0  0  0999 V2000
   -1.3712    2.5021    0.1309 C   0  0  0  0  0  0  0  0  0  0  0  0
   -1.0536    1.4049    0.5185 C   0  0  0  0  0  0  0  0  0  0  0  0
   -0.6550    0.0661    0.9757 C   0  0  0  0  0  0  0  0  0  0  0  0
   -1.7298   -0.8898    0.5499 C   0  0  0  0  0  0  0  0  0  0  0  0
   -0.5508    0.0471    2.3865 O   0  0  0  0  0  0  0  0  0  0  0  0
    0.6892   -0.2533    0.4420 C   0  0  0  0  0  0  0  0  0  0  0  0
    0.7631   -0.2511   -1.0690 C   0  0  0  0  0  0  0  0  0  0  0  0
    2.1556   -0.5816   -1.5558 C   0  0  0  0  0  0  0  0  0  0  0  0
   -1.6454    3.4822   -0.2272 H   0  0  0  0  0  0  0  0  0  0  0  0
   -2.7083   -0.3918    0.7741 H   0  0  0  0  0  0  0  0  0  0  0  0
   -1.6799   -1.1379   -0.5071 H   0  0  0  0  0  0  0  0  0  0  0  0
   -1.6324   -1.7966    1.1806 H   0  0  0  0  0  0  0  0  0  0  0  0
   -1.1063    0.8011    2.7622 H   0  0  0  0  0  0  0  0  0  0  0  0
    1.0089   -1.2767    0.7773 H   0  0  0  0  0  0  0  0  0  0  0  0
    1.4684    0.4513    0.7941 H   0  0  0  0  0  0  0  0  0  0  0  0
    0.0879   -1.0046   -1.5057 H   0  0  0  0  0  0  0  0  0  0  0  0
    0.4245    0.7328   -1.4529 H   0  0  0  0  0  0  0  0  0  0  0  0
    2.2220   -1.6495   -1.8337 H   0  0  0  0  0  0  0  0  0  0  0  0
    2.8718   -0.3150   -0.7320 H   0  0  0  0  0  0  0  0  0  0  0  0
    2.4413    0.0603   -2.4084 H   0  0  0  0  0  0  0  0  0  0  0  0
  1  2  3  0
  2  3  1  0
  3  4  1  0
  3  5  1  0
  3  6  1  0
  6  7  1  0
  7  8  1  0
  1  9  1  0
  4 10  1  0
  4 11  1  0
  4 12  1  0
  5 13  1  0
  6 14  1  0
  6 15  1  0
  7 16  1  0
  7 17  1  0
  8 18  1  0
  8 19  1  0
  8 20  1  0
M  END
