
     RDKit          3D

 15 15  0  0  0  0  0  0  0  0999 V2000
   -2.7838   -1.0421   -0.6038 C   0  0  0  0  0  0  0  0  0  0  0  0
   -1.6253   -0.7292   -0.6254 C   0  0  0  0  0  0  0  0  0  0  0  0
   -0.2383   -0.3307   -0.6494 C   0  0  0  0  0  0  0  0  0  0  0  0
    0.7010   -0.8860   -1.3945 C   0  0  0  0  0  0  0  0  0  0  0  0
    1.9557   -0.1493   -1.0815 C   0  0  0  0  0  0  0  0  0  0  0  0
    1.7233    0.2760    0.2335 O   0  0  0  0  0  0  0  0  0  0  0  0
    0.4192    0.7582    0.1274 C   0  0  0  0  0  0  0  0  0  0  0  0
   -0.2238    0.9749    1.3853 C   0  0  0  0  0  0  0  0  0  0  0  0
   -0.7717    1.1540    2.4986 C   0  0  0  0  0  0  0  0  0  0  0  0
   -3.8217   -1.3358   -0.5981 H   0  0  0  0  0  0  0  0  0  0  0  0
    0.6566   -1.6963   -2.1001 H   0  0  0  0  0  0  0  0  0  0  0  0
    2.8583   -0.7723   -1.1836 H   0  0  0  0  0  0  0  0  0  0  0  0
    1.9781    0.7456   -1.7367 H   0  0  0  0  0  0  0  0  0  0  0  0
    0.3927    1.7153   -0.4557 H   0  0  0  0  0  0  0  0  0  0  0  0
   -1.2204    1.3176    3.4401 H   0  0  0  0  0  0  0  0  0  0  0  0
  1  2  3  0
  2  3  1  0
  3  4  2  0
  4  5  1  0
  5  6  1  0
  6  7  1  0
  7  8  1  0
  8  9  3  0
  7  3  1  0
  1 10  1  0
  4 11  1  0
  5 12  1  0
  5 13  1  0
  7 14  1  0
  9 15  1  0
M  END
