
     RDKit          3D

 21 21  0  0  0  0  0  0  0  0999 V2000
   -2.0939    1.8667   -0.8117 C   0  0  0  0  0  0  0  0  0  0  0  0
   -2.0251    0.6640   -0.9439 C   0  0  0  0  0  0  0  0  0  0  0  0
   -1.9267   -0.7854   -1.1055 C   0  0  0  0  0  0  0  0  0  0  0  0
   -0.5711   -1.3082   -0.7175 C   0  0  0  0  0  0  0  0  0  0  0  0
   -0.2139   -1.0250    0.7090 C   0  0  0  0  0  0  0  0  0  0  0  0
    1.1539   -1.5485    1.1132 C   0  0  0  0  0  0  0  0  0  0  0  0
    0.8523   -0.0637    1.0698 C   0  0  0  0  0  0  0  0  0  0  0  0
    1.4875    0.7238    0.1313 O   0  0  0  0  0  0  0  0  0  0  0  0
    1.8851    1.9399    0.6579 C   0  0  0  0  0  0  0  0  0  0  0  0
   -2.1496    2.9192   -0.6880 H   0  0  0  0  0  0  0  0  0  0  0  0
   -2.0293   -0.9744   -2.2118 H   0  0  0  0  0  0  0  0  0  0  0  0
   -2.7636   -1.3001   -0.6321 H   0  0  0  0  0  0  0  0  0  0  0  0
    0.1606   -0.8962   -1.4404 H   0  0  0  0  0  0  0  0  0  0  0  0
   -0.5833   -2.4091   -0.8560 H   0  0  0  0  0  0  0  0  0  0  0  0
   -1.0209   -1.2088    1.4372 H   0  0  0  0  0  0  0  0  0  0  0  0
    1.2551   -2.0384    2.1193 H   0  0  0  0  0  0  0  0  0  0  0  0
    1.8459   -1.8991    0.3069 H   0  0  0  0  0  0  0  0  0  0  0  0
    0.7691    0.4094    2.0801 H   0  0  0  0  0  0  0  0  0  0  0  0
    2.5889    1.8560    1.5014 H   0  0  0  0  0  0  0  0  0  0  0  0
    2.3584    2.5151   -0.1918 H   0  0  0  0  0  0  0  0  0  0  0  0
    1.0206    2.5630    0.9944 H   0  0  0  0  0  0  0  0  0  0  0  0
  1  2  3  0
  2  3  1  0
  3  4  1  0
  4  5  1  0
  5  6  1  0
  6  7  1  0
  7  8  1  0
  8  9  1  0
  7  5  1  0
  1 10  1  0
  3 11  1  0
  3 12  1  0
  4 13  1  0
  4 14  1  0
  5 15  1  0
  6 16  1  0
  6 17  1  0
  7 18  1  0
  9 19  1  0
  9 20  1  0
  9 21  1  0
M  END
