
     RDKit          3D

 17 18  0  0  0  0  0  0  0  0999 V2000
    0.4415    1.1841    2.1787 C   0  0  0  0  0  0  0  0  0  0  0  0
    0.4909    0.6633    1.1081 C   0  0  0  0  0  0  0  0  0  0  0  0
    0.5287   -0.0015   -0.2385 C   0  0  0  0  0  0  0  0  0  0  0  0
    1.2634   -1.1340   -0.2369 O   0  0  0  0  0  0  0  0  0  0  0  0
    1.1595   -2.0638    0.7388 C   0  0  0  0  0  0  0  0  0  0  0  0
    0.0859    0.8558   -1.2713 C   0  0  0  0  0  0  0  0  0  0  0  0
   -1.3298    1.4220   -1.4007 C   0  0  0  0  0  0  0  0  0  0  0  0
   -1.5300    0.1368   -1.8931 O   0  0  0  0  0  0  0  0  0  0  0  0
   -0.8710   -0.2370   -0.7081 C   0  0  0  0  0  0  0  0  0  0  0  0
    0.3669    1.7404    3.3153 H   0  0  0  0  0  0  0  0  0  0  0  0
    1.7601   -2.9869    0.4457 H   0  0  0  0  0  0  0  0  0  0  0  0
    1.8046   -1.7534    1.6613 H   0  0  0  0  0  0  0  0  0  0  0  0
    0.2037   -2.3727    1.0909 H   0  0  0  0  0  0  0  0  0  0  0  0
    0.5151    0.7473   -2.2564 H   0  0  0  0  0  0  0  0  0  0  0  0
   -1.4984    2.1616   -2.1991 H   0  0  0  0  0  0  0  0  0  0  0  0
   -1.8019    1.6685   -0.4317 H   0  0  0  0  0  0  0  0  0  0  0  0
   -1.5892   -0.0305    0.0971 H   0  0  0  0  0  0  0  0  0  0  0  0
  1  2  3  0
  2  3  1  0
  3  4  1  0
  4  5  1  0
  3  6  1  0
  6  7  1  0
  7  8  1  0
  8  9  1  0
  9  3  1  0
  9  6  1  0
  1 10  1  0
  5 11  1  0
  5 12  1  0
  5 13  1  0
  6 14  1  0
  7 15  1  0
  7 16  1  0
  9 17  1  0
M  END
