
     RDKit          3D

 23 23  0  0  0  0  0  0  0  0999 V2000
   -1.4879    2.3369    0.4806 C   0  0  0  0  0  0  0  0  0  0  0  0
   -0.7038    1.5845    0.5292 C   0  0  0  0  0  0  0  0  0  0  0  0
    0.2386    0.7020    0.5729 C   0  0  0  0  0  0  0  0  0  0  0  0
    0.6590    0.3560   -0.8837 C   0  0  0  0  0  0  0  0  0  0  0  0
    1.6654    1.3012   -1.3304 C   0  0  0  0  0  0  0  0  0  0  0  0
    1.0546   -1.0691   -0.9810 C   0  0  0  0  0  0  0  0  0  0  0  0
    0.3885   -1.7410    0.2458 C   0  0  0  0  0  0  0  0  0  0  0  0
   -0.7100   -0.7392    0.5043 C   0  0  0  0  0  0  0  0  0  0  0  0
   -1.6716   -0.9826    1.5298 C   0  0  0  0  0  0  0  0  0  0  0  0
   -2.5967    3.4088    0.3876 H   0  0  0  0  0  0  0  0  0  0  0  0
    0.7896    0.4621    1.4291 H   0  0  0  0  0  0  0  0  0  0  0  0
   -0.4130    0.5121   -1.3789 H   0  0  0  0  0  0  0  0  0  0  0  0
    2.3290    0.9455   -2.1458 H   0  0  0  0  0  0  0  0  0  0  0  0
    2.3335    1.5332   -0.4281 H   0  0  0  0  0  0  0  0  0  0  0  0
    1.3063    2.3179   -1.6135 H   0  0  0  0  0  0  0  0  0  0  0  0
    0.5124   -1.5064   -1.8909 H   0  0  0  0  0  0  0  0  0  0  0  0
    2.1067   -1.3028   -1.0338 H   0  0  0  0  0  0  0  0  0  0  0  0
    1.1479   -1.6373    1.0369 H   0  0  0  0  0  0  0  0  0  0  0  0
    0.0669   -2.7280    0.0242 H   0  0  0  0  0  0  0  0  0  0  0  0
   -1.1962   -0.5866   -0.5046 H   0  0  0  0  0  0  0  0  0  0  0  0
   -2.6984   -1.1842    1.1135 H   0  0  0  0  0  0  0  0  0  0  0  0
   -1.7614   -0.0812    2.2050 H   0  0  0  0  0  0  0  0  0  0  0  0
   -1.3593   -1.9019    2.1317 H   0  0  0  0  0  0  0  0  0  0  0  0
  1  2  3  0
  2  3  1  0
  3  4  1  0
  4  5  1  0
  4  6  1  0
  6  7  1  0
  7  8  1  0
  8  9  1  0
  8  3  1  0
  1 10  1  0
  3 11  1  0
  4 12  1  0
  5 13  1  0
  5 14  1  0
  5 15  1  0
  6 16  1  0
  6 17  1  0
  7 18  1  0
  7 19  1  0
  8 20  1  0
  9 21  1  0
  9 22  1  0
  9 23  1  0
M  END
