
     RDKit          3D

 21 20  0  0  0  0  0  0  0  0999 V2000
   -2.3658    1.3553   -2.1428 C   0  0  0  0  0  0  0  0  0  0  0  0
   -1.9210    0.5906   -1.4686 C   0  0  0  0  0  0  0  0  0  0  0  0
   -1.2981   -0.4365   -0.5636 C   0  0  0  0  0  0  0  0  0  0  0  0
   -2.2254   -0.6973    0.5579 C   0  0  0  0  0  0  0  0  0  0  0  0
    0.0634    0.0377   -0.2182 C   0  0  0  0  0  0  0  0  0  0  0  0
    0.8197   -0.8600    0.7164 C   0  0  0  0  0  0  0  0  0  0  0  0
    2.1646   -0.2708    0.9430 C   0  0  0  0  0  0  0  0  0  0  0  0
    2.7383    0.8730    0.2209 C   0  0  0  0  0  0  0  0  0  0  0  0
    2.8636   -0.7943    1.8220 O   0  0  0  0  0  0  0  0  0  0  0  0
   -2.8194    2.1413   -2.8416 H   0  0  0  0  0  0  0  0  0  0  0  0
   -1.2113   -1.3588   -1.2029 H   0  0  0  0  0  0  0  0  0  0  0  0
   -3.1601   -0.0738    0.4563 H   0  0  0  0  0  0  0  0  0  0  0  0
   -2.6273   -1.7556    0.5004 H   0  0  0  0  0  0  0  0  0  0  0  0
   -1.8476   -0.5509    1.5655 H   0  0  0  0  0  0  0  0  0  0  0  0
    0.6568    0.0118   -1.1846 H   0  0  0  0  0  0  0  0  0  0  0  0
    0.0867    1.0544    0.1641 H   0  0  0  0  0  0  0  0  0  0  0  0
    0.3169   -0.9302    1.7193 H   0  0  0  0  0  0  0  0  0  0  0  0
    0.9672   -1.8976    0.3358 H   0  0  0  0  0  0  0  0  0  0  0  0
    2.0122    1.4946   -0.3251 H   0  0  0  0  0  0  0  0  0  0  0  0
    3.2317    1.5585    0.9481 H   0  0  0  0  0  0  0  0  0  0  0  0
    3.5549    0.5085   -0.4561 H   0  0  0  0  0  0  0  0  0  0  0  0
  1  2  3  0
  2  3  1  0
  3  4  1  0
  3  5  1  0
  5  6  1  0
  6  7  1  0
  7  8  1  0
  7  9  2  0
  1 10  1  0
  3 11  1  0
  4 12  1  0
  4 13  1  0
  4 14  1  0
  5 15  1  0
  5 16  1  0
  6 17  1  0
  6 18  1  0
  8 19  1  0
  8 20  1  0
  8 21  1  0
M  END
