
     RDKit          3D

 17 18  0  0  0  0  0  0  0  0999 V2000
    2.7387   -0.7764   -1.3982 C   0  0  0  0  0  0  0  0  0  0  0  0
    1.7651   -0.1889   -1.0565 C   0  0  0  0  0  0  0  0  0  0  0  0
    0.5725    0.5071   -0.6431 C   0  0  0  0  0  0  0  0  0  0  0  0
    0.7821    1.2065    0.5600 O   0  0  0  0  0  0  0  0  0  0  0  0
   -0.4515    1.5157    1.0688 C   0  0  0  0  0  0  0  0  0  0  0  0
   -1.4573    0.5606    0.4591 C   0  0  0  0  0  0  0  0  0  0  0  0
   -0.5547   -0.4053   -0.2392 C   0  0  0  0  0  0  0  0  0  0  0  0
   -0.3728   -1.7168    0.3011 C   0  0  0  0  0  0  0  0  0  0  0  0
   -0.9901   -1.4156   -1.0216 O   0  0  0  0  0  0  0  0  0  0  0  0
    3.6333   -1.2956   -1.7024 H   0  0  0  0  0  0  0  0  0  0  0  0
    0.2458    1.2901   -1.3762 H   0  0  0  0  0  0  0  0  0  0  0  0
   -0.6752    2.5778    0.7964 H   0  0  0  0  0  0  0  0  0  0  0  0
   -0.5180    1.3656    2.1783 H   0  0  0  0  0  0  0  0  0  0  0  0
   -2.0591    1.1064   -0.2829 H   0  0  0  0  0  0  0  0  0  0  0  0
   -2.0710    0.0415    1.2201 H   0  0  0  0  0  0  0  0  0  0  0  0
    0.5993   -2.2112    0.2195 H   0  0  0  0  0  0  0  0  0  0  0  0
   -1.1873   -2.1615    0.9167 H   0  0  0  0  0  0  0  0  0  0  0  0
  1  2  3  0
  2  3  1  0
  3  4  1  0
  4  5  1  0
  5  6  1  0
  6  7  1  0
  7  8  1  0
  8  9  1  0
  7  3  1  0
  9  7  1  0
  1 10  1  0
  3 11  1  0
  5 12  1  0
  5 13  1  0
  6 14  1  0
  6 15  1  0
  8 16  1  0
  8 17  1  0
M  END
