
     RDKit          3D

 19 20  0  0  0  0  0  0  0  0999 V2000
    3.9516    0.3264   -0.0633 C   0  0  0  0  0  0  0  0  0  0  0  0
    2.8113    0.0255   -0.3173 C   0  0  0  0  0  0  0  0  0  0  0  0
    1.4058   -0.3192   -0.6338 C   0  0  0  0  0  0  0  0  0  0  0  0
    0.5489    0.4670    0.3592 C   0  0  0  0  0  0  0  0  0  0  0  0
   -0.7994    0.2242    0.1600 C   0  0  0  0  0  0  0  0  0  0  0  0
   -1.5705    0.4935   -1.0904 C   0  0  0  0  0  0  0  0  0  0  0  0
   -2.5280    0.0002   -0.0521 C   0  0  0  0  0  0  0  0  0  0  0  0
   -1.5216   -1.0548    0.2889 C   0  0  0  0  0  0  0  0  0  0  0  0
   -1.8491    0.8188    0.8435 O   0  0  0  0  0  0  0  0  0  0  0  0
    4.9675    0.5805    0.1492 H   0  0  0  0  0  0  0  0  0  0  0  0
    1.2303   -0.0121   -1.6690 H   0  0  0  0  0  0  0  0  0  0  0  0
    1.1952   -1.3808   -0.5067 H   0  0  0  0  0  0  0  0  0  0  0  0
    0.8293    1.5300    0.2081 H   0  0  0  0  0  0  0  0  0  0  0  0
    0.9106    0.1874    1.3553 H   0  0  0  0  0  0  0  0  0  0  0  0
   -1.6984    1.5754   -1.2797 H   0  0  0  0  0  0  0  0  0  0  0  0
   -1.3919   -0.1461   -1.9541 H   0  0  0  0  0  0  0  0  0  0  0  0
   -3.5250   -0.1075   -0.1357 H   0  0  0  0  0  0  0  0  0  0  0  0
   -1.6154   -1.3604    1.3568 H   0  0  0  0  0  0  0  0  0  0  0  0
   -1.3512   -1.8479   -0.4342 H   0  0  0  0  0  0  0  0  0  0  0  0
  1  2  3  0
  2  3  1  0
  3  4  1  0
  4  5  1  0
  5  6  1  0
  6  7  1  0
  7  8  1  0
  7  9  1  0
  8  5  1  0
  9  5  1  0
  1 10  1  0
  3 11  1  0
  3 12  1  0
  4 13  1  0
  4 14  1  0
  6 15  1  0
  6 16  1  0
  7 17  1  0
  8 18  1  0
  8 19  1  0
M  END
