
     RDKit          3D

 16 16  0  0  0  0  0  0  0  0999 V2000
   -2.1367   -1.8428    0.8443 C   0  0  0  0  0  0  0  0  0  0  0  0
   -1.4311   -1.0734    0.1928 C   0  0  0  0  0  0  0  0  0  0  0  0
   -0.5815   -0.1840   -0.5696 C   0  0  0  0  0  0  0  0  0  0  0  0
    0.3242    0.8834    0.1108 C   0  0  0  0  0  0  0  0  0  0  0  0
    1.2797    0.2061    1.0703 C   0  0  0  0  0  0  0  0  0  0  0  0
    2.2065    1.0673    1.5725 O   0  0  0  0  0  0  0  0  0  0  0  0
   -0.6138   -0.0753   -2.0151 C   0  0  0  0  0  0  0  0  0  0  0  0
    0.2736   -0.9824   -1.4140 O   0  0  0  0  0  0  0  0  0  0  0  0
   -2.7174   -2.4609    1.3576 H   0  0  0  0  0  0  0  0  0  0  0  0
   -0.3078    1.5749    0.6203 H   0  0  0  0  0  0  0  0  0  0  0  0
    0.8603    1.3536   -0.7495 H   0  0  0  0  0  0  0  0  0  0  0  0
    0.6415   -0.1043    1.9784 H   0  0  0  0  0  0  0  0  0  0  0  0
    1.6773   -0.6870    0.6170 H   0  0  0  0  0  0  0  0  0  0  0  0
    1.9636    2.0356    1.4296 H   0  0  0  0  0  0  0  0  0  0  0  0
   -1.2473   -0.6139   -2.7176 H   0  0  0  0  0  0  0  0  0  0  0  0
   -0.1910    0.9032   -2.4309 H   0  0  0  0  0  0  0  0  0  0  0  0
  1  2  3  0
  2  3  1  0
  3  4  1  0
  4  5  1  0
  5  6  1  0
  3  7  1  0
  7  8  1  0
  8  3  1  0
  1  9  1  0
  4 10  1  0
  4 11  1  0
  5 12  1  0
  5 13  1  0
  6 14  1  0
  7 15  1  0
  7 16  1  0
M  END
