
     RDKit          3D

 21 21  0  0  0  0  0  0  0  0999 V2000
    3.8117   -2.0446    0.6824 C   0  0  0  0  0  0  0  0  0  0  0  0
    2.8452   -1.4491    0.4559 C   0  0  0  0  0  0  0  0  0  0  0  0
    1.8050   -0.7923    0.1929 C   0  0  0  0  0  0  0  0  0  0  0  0
    1.3930   -0.0019    1.5499 C   0  0  0  0  0  0  0  0  0  0  0  0
    0.3643   -0.7664    0.7411 C   0  0  0  0  0  0  0  0  0  0  0  0
   -0.3918   -0.0350   -0.0247 O   0  0  0  0  0  0  0  0  0  0  0  0
   -1.1017    0.5640   -0.8044 C   0  0  0  0  0  0  0  0  0  0  0  0
   -1.6186    1.9803   -0.4701 C   0  0  0  0  0  0  0  0  0  0  0  0
   -2.6068   -0.1900   -0.6849 C   0  0  0  0  0  0  0  0  0  0  0  0
    5.0448   -2.7982    0.9952 H   0  0  0  0  0  0  0  0  0  0  0  0
    1.9788    0.1524   -0.5519 H   0  0  0  0  0  0  0  0  0  0  0  0
    1.8754   -0.3478    2.4786 H   0  0  0  0  0  0  0  0  0  0  0  0
    1.3821    1.1463    1.5520 H   0  0  0  0  0  0  0  0  0  0  0  0
    0.2241   -1.8736    0.9051 H   0  0  0  0  0  0  0  0  0  0  0  0
   -1.1136    0.3652   -1.9727 H   0  0  0  0  0  0  0  0  0  0  0  0
   -1.0126    2.7854   -0.8709 H   0  0  0  0  0  0  0  0  0  0  0  0
   -1.7641    2.0572    0.6535 H   0  0  0  0  0  0  0  0  0  0  0  0
   -2.6237    2.0917   -0.9595 H   0  0  0  0  0  0  0  0  0  0  0  0
   -2.4576   -1.1730   -1.1333 H   0  0  0  0  0  0  0  0  0  0  0  0
   -3.2910    0.4671   -1.2361 H   0  0  0  0  0  0  0  0  0  0  0  0
   -2.7427   -0.1376    0.3698 H   0  0  0  0  0  0  0  0  0  0  0  0
  1  2  3  0
  2  3  1  0
  3  4  1  0
  4  5  1  0
  5  6  1  0
  6  7  1  0
  7  8  1  0
  7  9  1  0
  5  3  1  0
  1 10  1  0
  3 11  1  0
  4 12  1  0
  4 13  1  0
  5 14  1  0
  7 15  1  0
  8 16  1  0
  8 17  1  0
  8 18  1  0
  9 19  1  0
  9 20  1  0
  9 21  1  0
M  END
