
     RDKit          3D

 19 20  0  0  0  0  0  0  0  0999 V2000
   -3.9380    0.7154   -0.1261 C   0  0  0  0  0  0  0  0  0  0  0  0
   -2.8586    0.1713   -0.1982 C   0  0  0  0  0  0  0  0  0  0  0  0
   -1.5543   -0.4815   -0.3103 C   0  0  0  0  0  0  0  0  0  0  0  0
   -0.5081   -0.0104    0.6516 C   0  0  0  0  0  0  0  0  0  0  0  0
    0.6889   -0.9147    0.8526 C   0  0  0  0  0  0  0  0  0  0  0  0
    1.5622   -0.5669   -0.3125 C   0  0  0  0  0  0  0  0  0  0  0  0
    2.4036    0.6493   -0.0552 C   0  0  0  0  0  0  0  0  0  0  0  0
    0.6473   -0.3761   -1.3420 O   0  0  0  0  0  0  0  0  0  0  0  0
   -0.4304    0.3290   -0.7925 C   0  0  0  0  0  0  0  0  0  0  0  0
   -4.8854    1.2083   -0.0498 H   0  0  0  0  0  0  0  0  0  0  0  0
   -1.5625   -1.5746   -0.5801 H   0  0  0  0  0  0  0  0  0  0  0  0
   -0.7075    0.8059    1.3603 H   0  0  0  0  0  0  0  0  0  0  0  0
    1.2264   -0.7320    1.7862 H   0  0  0  0  0  0  0  0  0  0  0  0
    0.3747   -1.9795    0.7220 H   0  0  0  0  0  0  0  0  0  0  0  0
    2.1771   -1.4538   -0.5553 H   0  0  0  0  0  0  0  0  0  0  0  0
    2.9180    0.5261    0.9119 H   0  0  0  0  0  0  0  0  0  0  0  0
    1.7820    1.5436   -0.0814 H   0  0  0  0  0  0  0  0  0  0  0  0
    3.1915    0.7382   -0.8270 H   0  0  0  0  0  0  0  0  0  0  0  0
   -0.5269    1.4022   -1.0544 H   0  0  0  0  0  0  0  0  0  0  0  0
  1  2  3  0
  2  3  1  0
  3  4  1  0
  4  5  1  0
  5  6  1  0
  6  7  1  0
  6  8  1  0
  8  9  1  0
  9  3  1  0
  9  4  1  0
  1 10  1  0
  3 11  1  0
  4 12  1  0
  5 13  1  0
  5 14  1  0
  6 15  1  0
  7 16  1  0
  7 17  1  0
  7 18  1  0
  9 19  1  0
M  END
