
     RDKit          3D

 21 22  0  0  0  0  0  0  0  0999 V2000
    1.1106    1.2918   -2.3694 C   0  0  0  0  0  0  0  0  0  0  0  0
    0.9547    0.5192   -1.4737 C   0  0  0  0  0  0  0  0  0  0  0  0
    0.7577   -0.4276   -0.3361 C   0  0  0  0  0  0  0  0  0  0  0  0
    1.9773   -1.0325    0.2643 C   0  0  0  0  0  0  0  0  0  0  0  0
   -0.5284   -1.2666   -0.3865 C   0  0  0  0  0  0  0  0  0  0  0  0
   -0.3796   -0.1226    0.5067 C   0  0  0  0  0  0  0  0  0  0  0  0
   -1.1824    1.1312    0.4118 C   0  0  0  0  0  0  0  0  0  0  0  0
   -1.6460    0.8274    1.8462 C   0  0  0  0  0  0  0  0  0  0  0  0
   -0.4687   -0.1538    1.9757 C   0  0  0  0  0  0  0  0  0  0  0  0
    1.2398    1.9866   -3.1505 H   0  0  0  0  0  0  0  0  0  0  0  0
    2.3925   -1.8498   -0.3751 H   0  0  0  0  0  0  0  0  0  0  0  0
    1.7046   -1.4439    1.2746 H   0  0  0  0  0  0  0  0  0  0  0  0
    2.7769   -0.3025    0.4261 H   0  0  0  0  0  0  0  0  0  0  0  0
   -1.0344   -1.2336   -1.3513 H   0  0  0  0  0  0  0  0  0  0  0  0
   -0.4416   -2.2744    0.0942 H   0  0  0  0  0  0  0  0  0  0  0  0
   -0.5194    2.0214    0.3967 H   0  0  0  0  0  0  0  0  0  0  0  0
   -2.0428    1.1517   -0.2675 H   0  0  0  0  0  0  0  0  0  0  0  0
   -2.6392    0.3452    1.8838 H   0  0  0  0  0  0  0  0  0  0  0  0
   -1.5301    1.6799    2.5337 H   0  0  0  0  0  0  0  0  0  0  0  0
    0.3641    0.2727    2.5607 H   0  0  0  0  0  0  0  0  0  0  0  0
   -0.8655   -1.1199    2.3523 H   0  0  0  0  0  0  0  0  0  0  0  0
  1  2  3  0
  2  3  1  0
  3  4  1  0
  3  5  1  0
  5  6  1  0
  6  7  1  0
  7  8  1  0
  8  9  1  0
  6  3  1  0
  9  6  1  0
  1 10  1  0
  4 11  1  0
  4 12  1  0
  4 13  1  0
  5 14  1  0
  5 15  1  0
  7 16  1  0
  7 17  1  0
  8 18  1  0
  8 19  1  0
  9 20  1  0
  9 21  1  0
M  END
