
     RDKit          3D

 19 20  0  0  0  0  0  0  0  0999 V2000
    3.1936   -0.6319    0.9290 C   0  0  0  0  0  0  0  0  0  0  0  0
    2.2258   -0.9130    0.2690 C   0  0  0  0  0  0  0  0  0  0  0  0
    1.0289   -1.2356   -0.5481 C   0  0  0  0  0  0  0  0  0  0  0  0
   -0.1338   -0.4830   -0.0207 C   0  0  0  0  0  0  0  0  0  0  0  0
   -0.1253    0.9906    0.0236 C   0  0  0  0  0  0  0  0  0  0  0  0
   -0.3157    0.9823   -1.4695 C   0  0  0  0  0  0  0  0  0  0  0  0
   -1.2273   -0.1018   -0.9822 C   0  0  0  0  0  0  0  0  0  0  0  0
   -1.6387    0.8974    0.0700 C   0  0  0  0  0  0  0  0  0  0  0  0
   -2.1808    0.3757    1.2085 O   0  0  0  0  0  0  0  0  0  0  0  0
    4.0422   -0.3671    1.5177 H   0  0  0  0  0  0  0  0  0  0  0  0
    1.3205   -1.0501   -1.5808 H   0  0  0  0  0  0  0  0  0  0  0  0
    0.7832   -2.3329   -0.4215 H   0  0  0  0  0  0  0  0  0  0  0  0
   -0.4899   -0.9270    0.9307 H   0  0  0  0  0  0  0  0  0  0  0  0
    0.4356    1.6245    0.5563 H   0  0  0  0  0  0  0  0  0  0  0  0
    0.5208    0.7365   -2.1053 H   0  0  0  0  0  0  0  0  0  0  0  0
   -0.9409    1.8712   -1.7777 H   0  0  0  0  0  0  0  0  0  0  0  0
   -1.8188   -0.7054   -1.5107 H   0  0  0  0  0  0  0  0  0  0  0  0
   -2.1016    1.7786   -0.3757 H   0  0  0  0  0  0  0  0  0  0  0  0
   -2.5778   -0.5091    0.9970 H   0  0  0  0  0  0  0  0  0  0  0  0
  1  2  3  0
  2  3  1  0
  3  4  1  0
  4  5  1  0
  5  6  1  0
  6  7  1  0
  7  8  1  0
  8  9  1  0
  7  4  1  0
  8  5  1  0
  1 10  1  0
  3 11  1  0
  3 12  1  0
  4 13  1  0
  5 14  1  0
  6 15  1  0
  6 16  1  0
  7 17  1  0
  8 18  1  0
  9 19  1  0
M  END
