
     RDKit          3D

 16 16  0  0  0  0  0  0  0  0999 V2000
    2.1701    1.1672   -1.6921 C   0  0  0  0  0  0  0  0  0  0  0  0
    1.5779    0.3626   -1.0458 C   0  0  0  0  0  0  0  0  0  0  0  0
    0.8785   -0.6293   -0.2598 C   0  0  0  0  0  0  0  0  0  0  0  0
    1.7686   -1.4352    0.4744 O   0  0  0  0  0  0  0  0  0  0  0  0
   -0.0689   -0.0000    0.7250 C   0  0  0  0  0  0  0  0  0  0  0  0
   -1.3756    0.4854    0.1606 C   0  0  0  0  0  0  0  0  0  0  0  0
   -2.0040   -0.2897    1.3226 C   0  0  0  0  0  0  0  0  0  0  0  0
   -0.7814   -0.9666    1.4287 O   0  0  0  0  0  0  0  0  0  0  0  0
    2.6968    1.8917   -2.2931 H   0  0  0  0  0  0  0  0  0  0  0  0
    0.3299   -1.3143   -0.9366 H   0  0  0  0  0  0  0  0  0  0  0  0
    2.6990   -1.0582    0.4513 H   0  0  0  0  0  0  0  0  0  0  0  0
    0.3887    0.7268    1.4244 H   0  0  0  0  0  0  0  0  0  0  0  0
   -1.6642    0.0873   -0.8199 H   0  0  0  0  0  0  0  0  0  0  0  0
   -1.5848    1.5662    0.2708 H   0  0  0  0  0  0  0  0  0  0  0  0
   -2.8215   -0.9540    1.0524 H   0  0  0  0  0  0  0  0  0  0  0  0
   -2.2090    0.3599    2.2039 H   0  0  0  0  0  0  0  0  0  0  0  0
  1  2  3  0
  2  3  1  0
  3  4  1  0
  3  5  1  0
  5  6  1  0
  6  7  1  0
  7  8  1  0
  8  5  1  0
  1  9  1  0
  3 10  1  0
  4 11  1  0
  5 12  1  0
  6 13  1  0
  6 14  1  0
  7 15  1  0
  7 16  1  0
M  END
