
     RDKit          3D

 19 20  0  0  0  0  0  0  0  0999 V2000
    3.0396    0.6804    0.1519 C   0  0  0  0  0  0  0  0  0  0  0  0
    1.8617    0.5164    0.3749 C   0  0  0  0  0  0  0  0  0  0  0  0
    0.4323    0.3395    0.6582 C   0  0  0  0  0  0  0  0  0  0  0  0
    0.1329   -1.0848    1.0401 C   0  0  0  0  0  0  0  0  0  0  0  0
    0.5501   -1.4272   -0.3698 C   0  0  0  0  0  0  0  0  0  0  0  0
   -0.2986   -0.2094   -0.5419 C   0  0  0  0  0  0  0  0  0  0  0  0
   -0.6120    0.3845   -1.5941 O   0  0  0  0  0  0  0  0  0  0  0  0
   -1.4363    1.4687   -1.4353 C   0  0  0  0  0  0  0  0  0  0  0  0
   -1.2289   -0.8443    0.4722 C   0  0  0  0  0  0  0  0  0  0  0  0
    4.0787    0.8330   -0.0383 H   0  0  0  0  0  0  0  0  0  0  0  0
   -0.0542    1.1268    1.2230 H   0  0  0  0  0  0  0  0  0  0  0  0
    0.3901   -1.5612    1.8790 H   0  0  0  0  0  0  0  0  0  0  0  0
    0.1155   -2.3785   -0.7184 H   0  0  0  0  0  0  0  0  0  0  0  0
    1.6247   -1.2792   -0.5967 H   0  0  0  0  0  0  0  0  0  0  0  0
   -2.4118    1.1882   -0.9604 H   0  0  0  0  0  0  0  0  0  0  0  0
   -0.9506    2.3005   -0.8816 H   0  0  0  0  0  0  0  0  0  0  0  0
   -1.7013    1.8792   -2.4396 H   0  0  0  0  0  0  0  0  0  0  0  0
   -1.6787   -1.7743    0.1107 H   0  0  0  0  0  0  0  0  0  0  0  0
   -1.8532   -0.1586    1.0393 H   0  0  0  0  0  0  0  0  0  0  0  0
  1  2  3  0
  2  3  1  0
  3  4  1  0
  4  5  1  0
  5  6  1  0
  6  7  1  0
  7  8  1  0
  6  9  1  0
  6  3  1  0
  9  4  1  0
  1 10  1  0
  3 11  1  0
  4 12  1  0
  5 13  1  0
  5 14  1  0
  8 15  1  0
  8 16  1  0
  8 17  1  0
  9 18  1  0
  9 19  1  0
M  END
