
     RDKit          3D

 19 20  0  0  0  0  0  0  0  0999 V2000
    3.7237   -0.1174   -0.4111 C   0  0  0  0  0  0  0  0  0  0  0  0
    2.5186   -0.0676   -0.4213 C   0  0  0  0  0  0  0  0  0  0  0  0
    1.0618   -0.0261   -0.4204 C   0  0  0  0  0  0  0  0  0  0  0  0
    0.4092    1.1075   -0.6395 C   0  0  0  0  0  0  0  0  0  0  0  0
   -1.0256    0.9757   -0.6043 C   0  0  0  0  0  0  0  0  0  0  0  0
   -2.0343    1.3043    0.3197 C   0  0  0  0  0  0  0  0  0  0  0  0
   -1.2150    0.2501    0.7817 C   0  0  0  0  0  0  0  0  0  0  0  0
   -1.0276   -1.1544    0.4238 C   0  0  0  0  0  0  0  0  0  0  0  0
    0.3651   -1.3134   -0.1650 C   0  0  0  0  0  0  0  0  0  0  0  0
    4.7634   -0.1639   -0.3872 H   0  0  0  0  0  0  0  0  0  0  0  0
    0.9848    1.9909   -0.8173 H   0  0  0  0  0  0  0  0  0  0  0  0
   -1.3619    0.3820   -1.5128 H   0  0  0  0  0  0  0  0  0  0  0  0
   -3.1062    1.0960    0.0464 H   0  0  0  0  0  0  0  0  0  0  0  0
   -1.9969    2.2999    0.8350 H   0  0  0  0  0  0  0  0  0  0  0  0
   -0.4784    0.5372    1.5951 H   0  0  0  0  0  0  0  0  0  0  0  0
   -1.7946   -1.5146   -0.2902 H   0  0  0  0  0  0  0  0  0  0  0  0
   -1.0664   -1.7947    1.3335 H   0  0  0  0  0  0  0  0  0  0  0  0
    1.0057   -1.9634    0.4615 H   0  0  0  0  0  0  0  0  0  0  0  0
    0.2745   -1.8279   -1.1470 H   0  0  0  0  0  0  0  0  0  0  0  0
  1  2  3  0
  2  3  1  0
  3  4  2  0
  4  5  1  0
  5  6  1  0
  6  7  1  0
  7  8  1  0
  8  9  1  0
  9  3  1  0
  7  5  1  0
  1 10  1  0
  4 11  1  0
  5 12  1  0
  6 13  1  0
  6 14  1  0
  7 15  1  0
  8 16  1  0
  8 17  1  0
  9 18  1  0
  9 19  1  0
M  END
