
     RDKit          3D

 18 18  0  0  0  0  0  0  0  0999 V2000
    2.9659   -1.2924   -0.4652 C   0  0  0  0  0  0  0  0  0  0  0  0
    2.1264   -0.4547   -0.2422 C   0  0  0  0  0  0  0  0  0  0  0  0
    1.1063    0.5597    0.0138 C   0  0  0  0  0  0  0  0  0  0  0  0
    1.4957    1.3491    1.0781 O   0  0  0  0  0  0  0  0  0  0  0  0
   -0.1893   -0.1472    0.3576 C   0  0  0  0  0  0  0  0  0  0  0  0
   -1.3266    0.8250    0.6446 C   0  0  0  0  0  0  0  0  0  0  0  0
   -2.2155   -0.0949   -0.1510 C   0  0  0  0  0  0  0  0  0  0  0  0
   -0.9677   -0.5551   -0.8825 C   0  0  0  0  0  0  0  0  0  0  0  0
    3.6949   -2.0450   -0.6662 H   0  0  0  0  0  0  0  0  0  0  0  0
    0.9204    1.1449   -0.9167 H   0  0  0  0  0  0  0  0  0  0  0  0
    2.3495    1.0228    1.4537 H   0  0  0  0  0  0  0  0  0  0  0  0
   -0.1093   -0.9947    1.0395 H   0  0  0  0  0  0  0  0  0  0  0  0
   -1.5188    0.8633    1.7294 H   0  0  0  0  0  0  0  0  0  0  0  0
   -1.1048    1.7931    0.1593 H   0  0  0  0  0  0  0  0  0  0  0  0
   -2.9635    0.4045   -0.7938 H   0  0  0  0  0  0  0  0  0  0  0  0
   -2.6086   -0.9029    0.4899 H   0  0  0  0  0  0  0  0  0  0  0  0
   -0.9528   -1.6143   -1.1241 H   0  0  0  0  0  0  0  0  0  0  0  0
   -0.7024    0.1388   -1.7242 H   0  0  0  0  0  0  0  0  0  0  0  0
  1  2  3  0
  2  3  1  0
  3  4  1  0
  3  5  1  0
  5  6  1  0
  6  7  1  0
  7  8  1  0
  8  5  1  0
  1  9  1  0
  3 10  1  0
  4 11  1  0
  5 12  1  0
  6 13  1  0
  6 14  1  0
  7 15  1  0
  7 16  1  0
  8 17  1  0
  8 18  1  0
M  END
