
     RDKit          3D

 17 16  0  0  0  0  0  0  0  0999 V2000
    2.3940    0.9384   -0.0904 C   0  0  0  0  0  0  0  0  0  0  0  0
    1.5081    0.2896   -0.2387 C   0  0  0  0  0  0  0  0  0  0  0  0
    0.3165   -0.5816   -0.4129 C   0  0  0  0  0  0  0  0  0  0  0  0
    0.1006   -1.3558    0.8753 C   0  0  0  0  0  0  0  0  0  0  0  0
    0.4777   -1.4208   -1.4928 O   0  0  0  0  0  0  0  0  0  0  0  0
   -0.8733    0.3351   -0.6971 C   0  0  0  0  0  0  0  0  0  0  0  0
   -1.0785    1.3076    0.4532 C   0  0  0  0  0  0  0  0  0  0  0  0
    3.4036    1.6506    0.0757 H   0  0  0  0  0  0  0  0  0  0  0  0
   -0.5590   -0.7500    1.4919 H   0  0  0  0  0  0  0  0  0  0  0  0
   -0.5039   -2.2548    0.5366 H   0  0  0  0  0  0  0  0  0  0  0  0
    1.0156   -1.6357    1.3753 H   0  0  0  0  0  0  0  0  0  0  0  0
   -0.4669   -1.6843   -1.7389 H   0  0  0  0  0  0  0  0  0  0  0  0
   -1.7716   -0.2568   -0.7837 H   0  0  0  0  0  0  0  0  0  0  0  0
   -0.6448    0.8626   -1.6569 H   0  0  0  0  0  0  0  0  0  0  0  0
   -1.9522    0.9864    1.0618 H   0  0  0  0  0  0  0  0  0  0  0  0
   -1.1856    2.3596    0.1266 H   0  0  0  0  0  0  0  0  0  0  0  0
   -0.1806    1.2100    1.1150 H   0  0  0  0  0  0  0  0  0  0  0  0
  1  2  3  0
  2  3  1  0
  3  4  1  0
  3  5  1  0
  3  6  1  0
  6  7  1  0
  1  8  1  0
  4  9  1  0
  4 10  1  0
  4 11  1  0
  5 12  1  0
  6 13  1  0
  6 14  1  0
  7 15  1  0
  7 16  1  0
  7 17  1  0
M  END
