
     RDKit          3D

 19 19  0  0  0  0  0  0  0  0999 V2000
   -3.0171    2.7611    0.5300 C   0  0  0  0  0  0  0  0  0  0  0  0
   -2.0800    2.0726    0.2133 C   0  0  0  0  0  0  0  0  0  0  0  0
   -0.9398    1.2527   -0.1912 C   0  0  0  0  0  0  0  0  0  0  0  0
   -0.8655   -0.0020    0.5731 C   0  0  0  0  0  0  0  0  0  0  0  0
   -1.7310   -0.1918    1.4139 O   0  0  0  0  0  0  0  0  0  0  0  0
    0.1602   -1.0372    0.4062 C   0  0  0  0  0  0  0  0  0  0  0  0
    1.5503   -0.4824    0.6814 C   0  0  0  0  0  0  0  0  0  0  0  0
    2.0122   -1.2034   -0.5668 C   0  0  0  0  0  0  0  0  0  0  0  0
    0.5546   -1.3791   -1.0001 C   0  0  0  0  0  0  0  0  0  0  0  0
   -3.8624    3.3741    0.8027 H   0  0  0  0  0  0  0  0  0  0  0  0
   -1.1322    0.9856   -1.2712 H   0  0  0  0  0  0  0  0  0  0  0  0
   -0.0377    1.8614   -0.1830 H   0  0  0  0  0  0  0  0  0  0  0  0
   -0.0046   -1.9451    1.0131 H   0  0  0  0  0  0  0  0  0  0  0  0
    1.6480    0.6133    0.5502 H   0  0  0  0  0  0  0  0  0  0  0  0
    2.0312   -0.8341    1.5968 H   0  0  0  0  0  0  0  0  0  0  0  0
    2.6239   -0.5866   -1.2242 H   0  0  0  0  0  0  0  0  0  0  0  0
    2.4732   -2.1836   -0.2870 H   0  0  0  0  0  0  0  0  0  0  0  0
    0.2893   -2.4210   -1.2774 H   0  0  0  0  0  0  0  0  0  0  0  0
    0.3273   -0.6546   -1.7800 H   0  0  0  0  0  0  0  0  0  0  0  0
  1  2  3  0
  2  3  1  0
  3  4  1  0
  4  5  2  0
  4  6  1  0
  6  7  1  0
  7  8  1  0
  8  9  1  0
  9  6  1  0
  1 10  1  0
  3 11  1  0
  3 12  1  0
  6 13  1  0
  7 14  1  0
  7 15  1  0
  8 16  1  0
  8 17  1  0
  9 18  1  0
  9 19  1  0
M  END
