
     RDKit          3D

 19 18  0  0  0  0  0  0  0  0999 V2000
   -1.5783    2.1688    0.7748 C   0  0  0  0  0  0  0  0  0  0  0  0
   -0.9745    1.2963    0.7975 C   0  0  0  0  0  0  0  0  0  0  0  0
   -0.1626    0.1028    0.8478 C   0  0  0  0  0  0  0  0  0  0  0  0
    0.4798   -0.1669    1.9693 O   0  0  0  0  0  0  0  0  0  0  0  0
    0.9662    0.3780   -0.1839 C   0  0  0  0  0  0  0  0  0  0  0  0
    1.9272    0.5952   -1.0542 C   0  0  0  0  0  0  0  0  0  0  0  0
    2.8982    0.8045   -1.9085 C   0  0  0  0  0  0  0  0  0  0  0  0
   -0.7973   -1.1589    0.2340 C   0  0  0  0  0  0  0  0  0  0  0  0
   -2.0569   -1.6038    0.8899 C   0  0  0  0  0  0  0  0  0  0  0  0
   -2.2767    3.2048    0.7329 H   0  0  0  0  0  0  0  0  0  0  0  0
    0.0182   -0.0430    2.8294 H   0  0  0  0  0  0  0  0  0  0  0  0
    2.5888    1.0535   -2.9993 H   0  0  0  0  0  0  0  0  0  0  0  0
    3.6780    1.5470   -1.5722 H   0  0  0  0  0  0  0  0  0  0  0  0
    3.5690   -0.1726   -2.1239 H   0  0  0  0  0  0  0  0  0  0  0  0
   -1.0380   -0.9313   -0.8605 H   0  0  0  0  0  0  0  0  0  0  0  0
   -0.0266   -1.9612    0.1635 H   0  0  0  0  0  0  0  0  0  0  0  0
   -1.9267   -1.9974    1.9088 H   0  0  0  0  0  0  0  0  0  0  0  0
   -2.7777   -0.7378    0.8923 H   0  0  0  0  0  0  0  0  0  0  0  0
   -2.5101   -2.3781    0.1770 H   0  0  0  0  0  0  0  0  0  0  0  0
  1  2  3  0
  2  3  1  0
  3  4  1  0
  3  5  1  0
  5  6  3  0
  6  7  1  0
  3  8  1  0
  8  9  1  0
  1 10  1  0
  4 11  1  0
  7 12  1  0
  7 13  1  0
  7 14  1  0
  8 15  1  0
  8 16  1  0
  9 17  1  0
  9 18  1  0
  9 19  1  0
M  END
