
     RDKit          3D

 19 18  0  0  0  0  0  0  0  0999 V2000
    1.9967    1.8069   -1.2944 C   0  0  0  0  0  0  0  0  0  0  0  0
    1.7270    0.7308   -0.8192 C   0  0  0  0  0  0  0  0  0  0  0  0
    1.4007   -0.5791   -0.2377 C   0  0  0  0  0  0  0  0  0  0  0  0
    2.4893   -1.0260    0.7149 C   0  0  0  0  0  0  0  0  0  0  0  0
    0.1434   -0.4733    0.5740 C   0  0  0  0  0  0  0  0  0  0  0  0
    0.1010   -0.7210    1.7481 O   0  0  0  0  0  0  0  0  0  0  0  0
   -1.0941   -0.0416   -0.1227 C   0  0  0  0  0  0  0  0  0  0  0  0
   -2.1368   -0.0010    0.7658 O   0  0  0  0  0  0  0  0  0  0  0  0
   -3.3291    0.3989    0.1680 C   0  0  0  0  0  0  0  0  0  0  0  0
    2.2466    2.7618   -1.7005 H   0  0  0  0  0  0  0  0  0  0  0  0
    1.2748   -1.2998   -1.0815 H   0  0  0  0  0  0  0  0  0  0  0  0
    2.2410   -0.7128    1.7322 H   0  0  0  0  0  0  0  0  0  0  0  0
    3.4099   -0.4401    0.4222 H   0  0  0  0  0  0  0  0  0  0  0  0
    2.7211   -2.1003    0.6116 H   0  0  0  0  0  0  0  0  0  0  0  0
   -1.3599   -0.7350   -0.9520 H   0  0  0  0  0  0  0  0  0  0  0  0
   -0.9556    0.9650   -0.5802 H   0  0  0  0  0  0  0  0  0  0  0  0
   -4.0978    0.3965    0.9710 H   0  0  0  0  0  0  0  0  0  0  0  0
   -3.2176    1.4055   -0.2863 H   0  0  0  0  0  0  0  0  0  0  0  0
   -3.5605   -0.3352   -0.6334 H   0  0  0  0  0  0  0  0  0  0  0  0
  1  2  3  0
  2  3  1  0
  3  4  1  0
  3  5  1  0
  5  6  2  0
  5  7  1  0
  7  8  1  0
  8  9  1  0
  1 10  1  0
  3 11  1  0
  4 12  1  0
  4 13  1  0
  4 14  1  0
  7 15  1  0
  7 16  1  0
  9 17  1  0
  9 18  1  0
  9 19  1  0
M  END
