
     RDKit          3D

 15 16  0  0  0  0  0  0  0  0999 V2000
    2.4101   -2.3243   -0.3924 C   0  0  0  0  0  0  0  0  0  0  0  0
    1.7030   -1.2330   -0.3459 C   0  0  0  0  0  0  0  0  0  0  0  0
    0.9832   -0.1348   -0.2873 C   0  0  0  0  0  0  0  0  0  0  0  0
    0.8142    0.4274    0.9502 O   0  0  0  0  0  0  0  0  0  0  0  0
   -0.4598    0.8269    1.2362 C   0  0  0  0  0  0  0  0  0  0  0  0
   -1.2151    1.7095    0.3397 C   0  0  0  0  0  0  0  0  0  0  0  0
   -1.3431    0.2091    0.2078 C   0  0  0  0  0  0  0  0  0  0  0  0
   -0.4844   -0.4773   -0.6896 C   0  0  0  0  0  0  0  0  0  0  0  0
   -0.7475   -1.1999   -1.6222 O   0  0  0  0  0  0  0  0  0  0  0  0
    3.0390   -3.3099   -0.4515 H   0  0  0  0  0  0  0  0  0  0  0  0
    1.2896    0.7040   -1.0387 H   0  0  0  0  0  0  0  0  0  0  0  0
   -0.8535    0.6439    2.2923 H   0  0  0  0  0  0  0  0  0  0  0  0
   -0.6474    2.2349   -0.4835 H   0  0  0  0  0  0  0  0  0  0  0  0
   -2.1652    2.1861    0.6084 H   0  0  0  0  0  0  0  0  0  0  0  0
   -2.3230   -0.2627    0.5578 H   0  0  0  0  0  0  0  0  0  0  0  0
  1  2  3  0
  2  3  1  0
  3  4  1  0
  4  5  1  0
  5  6  1  0
  6  7  1  0
  7  8  1  0
  8  9  2  0
  8  3  1  0
  7  5  1  0
  1 10  1  0
  3 11  1  0
  5 12  1  0
  6 13  1  0
  6 14  1  0
  7 15  1  0
M  END
