
     RDKit          3D

 17 18  0  0  0  0  0  0  0  0999 V2000
    3.1013   -0.3970    0.3211 C   0  0  0  0  0  0  0  0  0  0  0  0
    1.9141   -0.5404    0.5293 C   0  0  0  0  0  0  0  0  0  0  0  0
    0.4768   -0.7354    0.7964 C   0  0  0  0  0  0  0  0  0  0  0  0
   -0.2778    0.5156    1.0323 C   0  0  0  0  0  0  0  0  0  0  0  0
    0.2007    1.6914    0.2404 C   0  0  0  0  0  0  0  0  0  0  0  0
    0.7540    2.7122    0.5996 O   0  0  0  0  0  0  0  0  0  0  0  0
   -0.2977    1.0083   -0.9731 C   0  0  0  0  0  0  0  0  0  0  0  0
   -0.4334   -0.3054   -0.2654 C   0  0  0  0  0  0  0  0  0  0  0  0
   -1.7170   -1.1025   -0.4212 C   0  0  0  0  0  0  0  0  0  0  0  0
    4.1469   -0.2576    0.1509 H   0  0  0  0  0  0  0  0  0  0  0  0
    0.1939   -1.5954    1.4040 H   0  0  0  0  0  0  0  0  0  0  0  0
   -1.1903    0.5770    1.6191 H   0  0  0  0  0  0  0  0  0  0  0  0
   -1.3114    1.3997   -1.2611 H   0  0  0  0  0  0  0  0  0  0  0  0
    0.3785    1.0487   -1.8300 H   0  0  0  0  0  0  0  0  0  0  0  0
   -1.3808   -2.1660   -0.6026 H   0  0  0  0  0  0  0  0  0  0  0  0
   -2.2040   -1.1246    0.5711 H   0  0  0  0  0  0  0  0  0  0  0  0
   -2.3541   -0.7284   -1.2208 H   0  0  0  0  0  0  0  0  0  0  0  0
  1  2  3  0
  2  3  1  0
  3  4  1  0
  4  5  1  0
  5  6  2  0
  5  7  1  0
  7  8  1  0
  8  9  1  0
  8  3  1  0
  8  4  1  0
  1 10  1  0
  3 11  1  0
  4 12  1  0
  7 13  1  0
  7 14  1  0
  9 15  1  0
  9 16  1  0
  9 17  1  0
M  END
