
     RDKit          3D

 17 17  0  0  0  0  0  0  0  0999 V2000
    3.7019    0.2701    0.8139 C   0  0  0  0  0  0  0  0  0  0  0  0
    2.5680    0.0931    0.4294 C   0  0  0  0  0  0  0  0  0  0  0  0
    1.1996   -0.1457   -0.0406 C   0  0  0  0  0  0  0  0  0  0  0  0
    0.8523   -1.4516    0.2994 O   0  0  0  0  0  0  0  0  0  0  0  0
   -0.5159   -1.4487   -0.0555 C   0  0  0  0  0  0  0  0  0  0  0  0
   -0.9280   -0.0853    0.4574 C   0  0  0  0  0  0  0  0  0  0  0  0
   -1.8361    0.6238   -0.5230 C   0  0  0  0  0  0  0  0  0  0  0  0
   -2.1274    1.8932   -0.0295 O   0  0  0  0  0  0  0  0  0  0  0  0
    0.2697    0.6060    0.6465 O   0  0  0  0  0  0  0  0  0  0  0  0
    4.7122    0.4184    1.1405 H   0  0  0  0  0  0  0  0  0  0  0  0
    1.0935   -0.0552   -1.1271 H   0  0  0  0  0  0  0  0  0  0  0  0
   -1.0774   -2.2473    0.4212 H   0  0  0  0  0  0  0  0  0  0  0  0
   -0.5320   -1.4868   -1.1608 H   0  0  0  0  0  0  0  0  0  0  0  0
   -1.4226   -0.2483    1.4365 H   0  0  0  0  0  0  0  0  0  0  0  0
   -1.3922    0.6411   -1.5277 H   0  0  0  0  0  0  0  0  0  0  0  0
   -2.7893    0.0307   -0.5389 H   0  0  0  0  0  0  0  0  0  0  0  0
   -1.7761    2.5926   -0.6416 H   0  0  0  0  0  0  0  0  0  0  0  0
  1  2  3  0
  2  3  1  0
  3  4  1  0
  4  5  1  0
  5  6  1  0
  6  7  1  0
  7  8  1  0
  6  9  1  0
  9  3  1  0
  1 10  1  0
  3 11  1  0
  5 12  1  0
  5 13  1  0
  6 14  1  0
  7 15  1  0
  7 16  1  0
  8 17  1  0
M  END
