
     RDKit          3D

 17 17  0  0  0  0  0  0  0  0999 V2000
    2.0894    2.6491   -0.5502 C   0  0  0  0  0  0  0  0  0  0  0  0
    1.6346    1.5200   -0.5866 C   0  0  0  0  0  0  0  0  0  0  0  0
    1.0863    0.1555   -0.6064 C   0  0  0  0  0  0  0  0  0  0  0  0
    2.1089   -0.8156   -0.1728 C   0  0  0  0  0  0  0  0  0  0  0  0
    2.9455   -1.6078    0.2036 C   0  0  0  0  0  0  0  0  0  0  0  0
    0.0548    0.0848    0.3122 O   0  0  0  0  0  0  0  0  0  0  0  0
   -1.1308   -0.2666   -0.2792 C   0  0  0  0  0  0  0  0  0  0  0  0
   -2.3938    0.3326    0.2412 C   0  0  0  0  0  0  0  0  0  0  0  0
   -2.1241   -1.1327    0.4106 C   0  0  0  0  0  0  0  0  0  0  0  0
    2.5001    3.6248   -0.5100 H   0  0  0  0  0  0  0  0  0  0  0  0
    0.7531   -0.0867   -1.6477 H   0  0  0  0  0  0  0  0  0  0  0  0
    3.6876   -2.2858    0.5365 H   0  0  0  0  0  0  0  0  0  0  0  0
   -1.0681   -0.4352   -1.3880 H   0  0  0  0  0  0  0  0  0  0  0  0
   -2.3894    0.9241    1.1737 H   0  0  0  0  0  0  0  0  0  0  0  0
   -3.1153    0.6777   -0.5039 H   0  0  0  0  0  0  0  0  0  0  0  0
   -2.7839   -1.8059   -0.1654 H   0  0  0  0  0  0  0  0  0  0  0  0
   -1.8549   -1.5321    1.4106 H   0  0  0  0  0  0  0  0  0  0  0  0
  1  2  3  0
  2  3  1  0
  3  4  1  0
  4  5  3  0
  3  6  1  0
  6  7  1  0
  7  8  1  0
  8  9  1  0
  9  7  1  0
  1 10  1  0
  3 11  1  0
  5 12  1  0
  7 13  1  0
  8 14  1  0
  8 15  1  0
  9 16  1  0
  9 17  1  0
M  END
