
     RDKit          3D

 17 17  0  0  0  0  0  0  0  0999 V2000
    4.6454   -0.2063    0.1012 C   0  0  0  0  0  0  0  0  0  0  0  0
    3.3642   -0.3341    0.1448 C   0  0  0  0  0  0  0  0  0  0  0  0
    2.1795   -0.4343    0.1779 C   0  0  0  0  0  0  0  0  0  0  0  0
    1.7534    0.7429   -0.7360 O   0  0  0  0  0  0  0  0  0  0  0  0
    0.8953   -0.8489    0.4469 O   0  0  0  0  0  0  0  0  0  0  0  0
   -0.2316   -0.1247   -0.0701 C   0  0  0  0  0  0  0  0  0  0  0  0
   -1.3192   -0.9278   -0.7157 C   0  0  0  0  0  0  0  0  0  0  0  0
   -1.5570   -0.2164    0.5829 C   0  0  0  0  0  0  0  0  0  0  0  0
   -2.5026    0.9839    0.4549 C   0  0  0  0  0  0  0  0  0  0  0  0
    5.7506   -0.1007    0.0830 H   0  0  0  0  0  0  0  0  0  0  0  0
   -0.0484    0.8187   -0.5589 H   0  0  0  0  0  0  0  0  0  0  0  0
   -1.3238   -1.9978   -0.7061 H   0  0  0  0  0  0  0  0  0  0  0  0
   -1.8026   -0.4848   -1.6434 H   0  0  0  0  0  0  0  0  0  0  0  0
   -1.5729   -0.7171    1.5376 H   0  0  0  0  0  0  0  0  0  0  0  0
   -3.5093    0.6875    0.7935 H   0  0  0  0  0  0  0  0  0  0  0  0
   -2.6416    1.2852   -0.6331 H   0  0  0  0  0  0  0  0  0  0  0  0
   -2.0794    1.8747    0.9200 H   0  0  0  0  0  0  0  0  0  0  0  0
  1  2  3  0
  2  3  1  0
  3  4  2  0
  3  5  1  0
  5  6  1  0
  6  7  1  0
  7  8  1  0
  8  9  1  0
  8  6  1  0
  1 10  1  0
  6 11  1  0
  7 12  1  0
  7 13  1  0
  8 14  1  0
  9 15  1  0
  9 16  1  0
  9 17  1  0
M  END
