
     RDKit          3D

 16 16  0  0  0  0  0  0  0  0999 V2000
    2.5284    0.7889   -0.1632 C   0  0  0  0  0  0  0  0  0  0  0  0
    1.4718    0.2443   -0.1980 C   0  0  0  0  0  0  0  0  0  0  0  0
    0.1404   -0.4261   -0.2338 C   0  0  0  0  0  0  0  0  0  0  0  0
   -0.9106    0.4517   -0.9020 C   0  0  0  0  0  0  0  0  0  0  0  0
   -1.0264    1.7131   -0.0946 C   0  0  0  0  0  0  0  0  0  0  0  0
   -0.6369    2.8031   -0.4958 O   0  0  0  0  0  0  0  0  0  0  0  0
   -0.0469   -1.8420    0.0377 C   0  0  0  0  0  0  0  0  0  0  0  0
   -0.2635   -0.8975    1.1592 C   0  0  0  0  0  0  0  0  0  0  0  0
    3.5155    1.2779   -0.1231 H   0  0  0  0  0  0  0  0  0  0  0  0
   -1.8509   -0.0609   -1.0751 H   0  0  0  0  0  0  0  0  0  0  0  0
   -0.4959    0.7564   -1.9091 H   0  0  0  0  0  0  0  0  0  0  0  0
   -1.4999    1.5974    0.9125 H   0  0  0  0  0  0  0  0  0  0  0  0
   -0.9679   -2.3281   -0.3903 H   0  0  0  0  0  0  0  0  0  0  0  0
    0.8180   -2.5300    0.0018 H   0  0  0  0  0  0  0  0  0  0  0  0
   -1.2873   -0.7362    1.5029 H   0  0  0  0  0  0  0  0  0  0  0  0
    0.5121   -0.8120    1.9710 H   0  0  0  0  0  0  0  0  0  0  0  0
  1  2  3  0
  2  3  1  0
  3  4  1  0
  4  5  1  0
  5  6  2  0
  3  7  1  0
  7  8  1  0
  8  3  1  0
  1  9  1  0
  4 10  1  0
  4 11  1  0
  5 12  1  0
  7 13  1  0
  7 14  1  0
  8 15  1  0
  8 16  1  0
M  END
