
     RDKit          3D

 20 19  0  0  0  0  0  0  0  0999 V2000
    1.8915    1.8816    1.4551 C   0  0  0  0  0  0  0  0  0  0  0  0
    1.2863    0.9920    0.8849 C   0  0  0  0  0  0  0  0  0  0  0  0
    0.5368   -0.1499    0.1779 C   0  0  0  0  0  0  0  0  0  0  0  0
    0.5784   -1.3647    0.9789 C   0  0  0  0  0  0  0  0  0  0  0  0
    1.7274   -0.4318   -0.8335 O   0  0  0  0  0  0  0  0  0  0  0  0
   -0.4339    0.2093   -0.7956 C   0  0  0  0  0  0  0  0  0  0  0  0
   -1.1115   -1.1072   -1.2468 C   0  0  0  0  0  0  0  0  0  0  0  0
   -1.4952    1.2218   -0.4088 C   0  0  0  0  0  0  0  0  0  0  0  0
    2.4608    2.6841    1.9753 H   0  0  0  0  0  0  0  0  0  0  0  0
    0.8719   -2.2680    0.3163 H   0  0  0  0  0  0  0  0  0  0  0  0
    1.4119   -1.3855    1.7706 H   0  0  0  0  0  0  0  0  0  0  0  0
   -0.3560   -1.6560    1.5118 H   0  0  0  0  0  0  0  0  0  0  0  0
    1.7347    0.4784   -1.2639 H   0  0  0  0  0  0  0  0  0  0  0  0
    0.0091    0.5858   -1.7738 H   0  0  0  0  0  0  0  0  0  0  0  0
   -2.0704   -0.8409   -1.6918 H   0  0  0  0  0  0  0  0  0  0  0  0
   -0.5091   -1.7054   -1.8942 H   0  0  0  0  0  0  0  0  0  0  0  0
   -1.2990   -1.6313   -0.2487 H   0  0  0  0  0  0  0  0  0  0  0  0
   -1.6904    1.2036    0.6669 H   0  0  0  0  0  0  0  0  0  0  0  0
   -1.0844    2.2607   -0.6085 H   0  0  0  0  0  0  0  0  0  0  0  0
   -2.4592    1.0233   -0.8993 H   0  0  0  0  0  0  0  0  0  0  0  0
  1  2  3  0
  2  3  1  0
  3  4  1  0
  3  5  1  0
  3  6  1  0
  6  7  1  0
  6  8  1  0
  1  9  1  0
  4 10  1  0
  4 11  1  0
  4 12  1  0
  5 13  1  0
  6 14  1  0
  7 15  1  0
  7 16  1  0
  7 17  1  0
  8 18  1  0
  8 19  1  0
  8 20  1  0
M  END
