
     RDKit          3D

 23 23  0  0  0  0  0  0  0  0999 V2000
   -1.9029    2.7365   -0.4431 C   0  0  0  0  0  0  0  0  0  0  0  0
   -1.4724    1.6192   -0.3717 C   0  0  0  0  0  0  0  0  0  0  0  0
   -0.9648    0.2480   -0.2699 C   0  0  0  0  0  0  0  0  0  0  0  0
   -1.1524   -0.4957   -1.5532 C   0  0  0  0  0  0  0  0  0  0  0  0
   -1.5724   -0.5384    0.8774 C   0  0  0  0  0  0  0  0  0  0  0  0
   -0.1760   -1.0660    1.1460 C   0  0  0  0  0  0  0  0  0  0  0  0
    0.3417    0.1309    0.4171 C   0  0  0  0  0  0  0  0  0  0  0  0
    1.5590   -0.0872   -0.4419 C   0  0  0  0  0  0  0  0  0  0  0  0
    2.7433   -0.1698    0.5033 C   0  0  0  0  0  0  0  0  0  0  0  0
   -2.3008    3.7325   -0.4979 H   0  0  0  0  0  0  0  0  0  0  0  0
   -0.5832   -0.0756   -2.3919 H   0  0  0  0  0  0  0  0  0  0  0  0
   -2.2370   -0.4065   -1.8274 H   0  0  0  0  0  0  0  0  0  0  0  0
   -0.9679   -1.5908   -1.4172 H   0  0  0  0  0  0  0  0  0  0  0  0
   -1.9586    0.1643    1.6381 H   0  0  0  0  0  0  0  0  0  0  0  0
   -2.2563   -1.3479    0.5657 H   0  0  0  0  0  0  0  0  0  0  0  0
    0.0092   -1.0567    2.2446 H   0  0  0  0  0  0  0  0  0  0  0  0
    0.0075   -2.0385    0.6565 H   0  0  0  0  0  0  0  0  0  0  0  0
    0.5140    0.9872    1.1129 H   0  0  0  0  0  0  0  0  0  0  0  0
    1.4740   -1.0020   -1.0589 H   0  0  0  0  0  0  0  0  0  0  0  0
    1.7127    0.8164   -1.0675 H   0  0  0  0  0  0  0  0  0  0  0  0
    3.6325   -0.5888   -0.0240 H   0  0  0  0  0  0  0  0  0  0  0  0
    3.0286    0.8502    0.8188 H   0  0  0  0  0  0  0  0  0  0  0  0
    2.5222   -0.8213    1.3845 H   0  0  0  0  0  0  0  0  0  0  0  0
  1  2  3  0
  2  3  1  0
  3  4  1  0
  3  5  1  0
  5  6  1  0
  6  7  1  0
  7  8  1  0
  8  9  1  0
  7  3  1  0
  1 10  1  0
  4 11  1  0
  4 12  1  0
  4 13  1  0
  5 14  1  0
  5 15  1  0
  6 16  1  0
  6 17  1  0
  7 18  1  0
  8 19  1  0
  8 20  1  0
  9 21  1  0
  9 22  1  0
  9 23  1  0
M  END
