
     RDKit          3D

 17 18  0  0  0  0  0  0  0  0999 V2000
    2.7062    1.4749    0.7693 C   0  0  0  0  0  0  0  0  0  0  0  0
    2.0418    0.4710    0.6936 C   0  0  0  0  0  0  0  0  0  0  0  0
    1.2453   -0.7632    0.5820 C   0  0  0  0  0  0  0  0  0  0  0  0
    0.6156   -1.0394   -0.7177 C   0  0  0  0  0  0  0  0  0  0  0  0
    0.1871    0.1152   -1.3988 O   0  0  0  0  0  0  0  0  0  0  0  0
   -0.9408    0.0387   -0.6032 C   0  0  0  0  0  0  0  0  0  0  0  0
   -1.6501    1.3237   -0.3229 C   0  0  0  0  0  0  0  0  0  0  0  0
   -0.2200   -0.6017    0.5265 C   0  0  0  0  0  0  0  0  0  0  0  0
   -0.9279   -1.6225    1.1692 O   0  0  0  0  0  0  0  0  0  0  0  0
    3.3110    2.3652    0.8240 H   0  0  0  0  0  0  0  0  0  0  0  0
    1.6952   -1.6386    1.0982 H   0  0  0  0  0  0  0  0  0  0  0  0
    0.3832   -2.0240   -1.1040 H   0  0  0  0  0  0  0  0  0  0  0  0
   -1.6637   -0.6827   -1.0857 H   0  0  0  0  0  0  0  0  0  0  0  0
   -1.1670    1.9666    0.4137 H   0  0  0  0  0  0  0  0  0  0  0  0
   -2.6923    1.0760    0.0101 H   0  0  0  0  0  0  0  0  0  0  0  0
   -1.7409    1.8910   -1.2617 H   0  0  0  0  0  0  0  0  0  0  0  0
   -1.1827   -2.3500    0.5488 H   0  0  0  0  0  0  0  0  0  0  0  0
  1  2  3  0
  2  3  1  0
  3  4  1  0
  4  5  1  0
  5  6  1  0
  6  7  1  0
  6  8  1  0
  8  9  1  0
  8  3  1  0
  8  4  1  0
  1 10  1  0
  3 11  1  0
  4 12  1  0
  6 13  1  0
  7 14  1  0
  7 15  1  0
  7 16  1  0
  9 17  1  0
M  END
