
     RDKit          3D

 21 21  0  0  0  0  0  0  0  0999 V2000
    2.4572    0.8715   -1.3519 C   0  0  0  0  0  0  0  0  0  0  0  0
    1.6128    0.3031   -0.7166 C   0  0  0  0  0  0  0  0  0  0  0  0
    0.5949   -0.3847    0.0795 C   0  0  0  0  0  0  0  0  0  0  0  0
    0.6653   -1.8792    0.0184 C   0  0  0  0  0  0  0  0  0  0  0  0
    0.1262    0.2921    1.3285 C   0  0  0  0  0  0  0  0  0  0  0  0
    0.8238    1.4311    1.7352 O   0  0  0  0  0  0  0  0  0  0  0  0
   -0.7598    0.2915    0.1703 C   0  0  0  0  0  0  0  0  0  0  0  0
   -0.9465    1.4939   -0.7175 C   0  0  0  0  0  0  0  0  0  0  0  0
   -1.9136   -0.6864    0.1540 C   0  0  0  0  0  0  0  0  0  0  0  0
    3.1975    1.3834   -1.9050 H   0  0  0  0  0  0  0  0  0  0  0  0
    1.2565   -2.2059   -0.8608 H   0  0  0  0  0  0  0  0  0  0  0  0
   -0.3281   -2.3596   -0.0829 H   0  0  0  0  0  0  0  0  0  0  0  0
    1.1368   -2.3256    0.9386 H   0  0  0  0  0  0  0  0  0  0  0  0
   -0.1941   -0.3325    2.2128 H   0  0  0  0  0  0  0  0  0  0  0  0
    1.7704    1.3343    1.4289 H   0  0  0  0  0  0  0  0  0  0  0  0
   -0.8953    2.4519   -0.1556 H   0  0  0  0  0  0  0  0  0  0  0  0
   -0.1428    1.5523   -1.4876 H   0  0  0  0  0  0  0  0  0  0  0  0
   -1.9239    1.4878   -1.2508 H   0  0  0  0  0  0  0  0  0  0  0  0
   -1.8289   -1.4024    1.0026 H   0  0  0  0  0  0  0  0  0  0  0  0
   -1.8649   -1.2193   -0.8160 H   0  0  0  0  0  0  0  0  0  0  0  0
   -2.8436   -0.0974    0.2761 H   0  0  0  0  0  0  0  0  0  0  0  0
  1  2  3  0
  2  3  1  0
  3  4  1  0
  3  5  1  0
  5  6  1  0
  5  7  1  0
  7  8  1  0
  7  9  1  0
  7  3  1  0
  1 10  1  0
  4 11  1  0
  4 12  1  0
  4 13  1  0
  5 14  1  0
  6 15  1  0
  8 16  1  0
  8 17  1  0
  8 18  1  0
  9 19  1  0
  9 20  1  0
  9 21  1  0
M  END
