
     RDKit          3D

 15 17  0  0  0  0  0  0  0  0999 V2000
    2.9360    0.6100   -0.9905 C   0  0  0  0  0  0  0  0  0  0  0  0
    1.7859    0.3361   -0.8110 C   0  0  0  0  0  0  0  0  0  0  0  0
    0.4033    0.0251   -0.6064 C   0  0  0  0  0  0  0  0  0  0  0  0
    0.1105   -1.4006   -0.2047 C   0  0  0  0  0  0  0  0  0  0  0  0
   -0.9536   -1.4361    0.5834 C   0  0  0  0  0  0  0  0  0  0  0  0
   -1.4496   -0.0533    0.7673 C   0  0  0  0  0  0  0  0  0  0  0  0
   -1.3779    0.8214   -0.4299 C   0  0  0  0  0  0  0  0  0  0  0  0
   -0.5209    0.5224   -1.4812 O   0  0  0  0  0  0  0  0  0  0  0  0
   -0.2590    0.7617    0.5044 C   0  0  0  0  0  0  0  0  0  0  0  0
    3.9736    0.8567   -1.1365 H   0  0  0  0  0  0  0  0  0  0  0  0
    0.6944   -2.2314   -0.5262 H   0  0  0  0  0  0  0  0  0  0  0  0
   -1.4025   -2.3059    1.0279 H   0  0  0  0  0  0  0  0  0  0  0  0
   -2.1664    0.2064    1.5311 H   0  0  0  0  0  0  0  0  0  0  0  0
   -1.9334    1.7472   -0.5127 H   0  0  0  0  0  0  0  0  0  0  0  0
    0.1597    1.5405    1.0906 H   0  0  0  0  0  0  0  0  0  0  0  0
  1  2  3  0
  2  3  1  0
  3  4  1  0
  4  5  2  0
  5  6  1  0
  6  7  1  0
  7  8  1  0
  7  9  1  0
  8  3  1  0
  9  3  1  0
  9  6  1  0
  1 10  1  0
  4 11  1  0
  5 12  1  0
  6 13  1  0
  7 14  1  0
  9 15  1  0
M  END
