
     RDKit          3D

 14 14  0  0  0  0  0  0  0  0999 V2000
    2.8226   -0.8891   -0.0050 C   0  0  0  0  0  0  0  0  0  0  0  0
    1.5090   -0.1224   -0.1682 C   0  0  0  0  0  0  0  0  0  0  0  0
   -0.0331    0.7806   -0.3881 C   0  0  0  0  0  0  0  0  0  0  0  0
    0.4731    2.0824   -0.0326 C   0  0  0  0  0  0  0  0  0  0  0  0
    1.0577    2.4649    1.0374 O   0  0  0  0  0  0  0  0  0  0  0  0
   -0.7203    0.3454   -1.2841 O   0  0  0  0  0  0  0  0  0  0  0  0
   -1.0347    0.0021    0.1564 C   0  0  0  0  0  0  0  0  0  0  0  0
   -1.3614   -1.4764    0.2151 C   0  0  0  0  0  0  0  0  0  0  0  0
    3.3476   -1.1867    0.0524 H   0  0  0  0  0  0  0  0  0  0  0  0
    0.2858    2.7898   -0.7673 H   0  0  0  0  0  0  0  0  0  0  0  0
   -1.9200    0.6534    0.4845 H   0  0  0  0  0  0  0  0  0  0  0  0
   -1.3737   -1.8108    1.2668 H   0  0  0  0  0  0  0  0  0  0  0  0
   -0.6551   -2.0724   -0.3689 H   0  0  0  0  0  0  0  0  0  0  0  0
   -2.3974   -1.5609   -0.1984 H   0  0  0  0  0  0  0  0  0  0  0  0
  1  2  3  0
  2  3  1  0
  3  4  1  0
  4  5  2  0
  3  6  1  0
  6  7  1  0
  7  8  1  0
  7  3  1  0
  1  9  1  0
  4 10  1  0
  7 11  1  0
  8 12  1  0
  8 13  1  0
  8 14  1  0
M  END
