
     RDKit          3D

 17 19  0  0  0  0  0  0  0  0999 V2000
    2.9870    0.5668    1.0231 C   0  0  0  0  0  0  0  0  0  0  0  0
    1.8801    0.2629    0.7062 C   0  0  0  0  0  0  0  0  0  0  0  0
    0.5688   -0.1146    0.3116 C   0  0  0  0  0  0  0  0  0  0  0  0
   -0.6705    0.2156    1.0202 C   0  0  0  0  0  0  0  0  0  0  0  0
   -1.6386    0.6012   -0.0913 C   0  0  0  0  0  0  0  0  0  0  0  0
   -0.9136    0.3605   -1.3799 C   0  0  0  0  0  0  0  0  0  0  0  0
    0.1632   -0.6205   -0.9884 C   0  0  0  0  0  0  0  0  0  0  0  0
    0.0479   -1.4490    0.2307 C   0  0  0  0  0  0  0  0  0  0  0  0
   -0.8458   -1.1718    1.2440 O   0  0  0  0  0  0  0  0  0  0  0  0
    3.9872    0.8289    1.2938 H   0  0  0  0  0  0  0  0  0  0  0  0
   -0.6693    0.8361    1.9009 H   0  0  0  0  0  0  0  0  0  0  0  0
   -2.5748    0.0012   -0.0255 H   0  0  0  0  0  0  0  0  0  0  0  0
   -1.9147    1.6648    0.0266 H   0  0  0  0  0  0  0  0  0  0  0  0
   -0.3847    1.3172   -1.6377 H   0  0  0  0  0  0  0  0  0  0  0  0
   -1.5484    0.0031   -2.2011 H   0  0  0  0  0  0  0  0  0  0  0  0
    0.9245   -0.9166   -1.7067 H   0  0  0  0  0  0  0  0  0  0  0  0
    0.6017   -2.3858    0.2737 H   0  0  0  0  0  0  0  0  0  0  0  0
  1  2  3  0
  2  3  1  0
  3  4  1  0
  4  5  1  0
  5  6  1  0
  6  7  1  0
  7  8  1  0
  8  9  1  0
  7  3  1  0
  8  3  1  0
  9  4  1  0
  1 10  1  0
  4 11  1  0
  5 12  1  0
  5 13  1  0
  6 14  1  0
  6 15  1  0
  7 16  1  0
  8 17  1  0
M  END
