
     RDKit          3D

 19 20  0  0  0  0  0  0  0  0999 V2000
    1.0981   -0.8233    2.4861 C   0  0  0  0  0  0  0  0  0  0  0  0
    0.5111   -0.9394    1.4333 C   0  0  0  0  0  0  0  0  0  0  0  0
   -0.2155   -1.0888    0.1755 C   0  0  0  0  0  0  0  0  0  0  0  0
    0.6995   -0.9138   -1.0160 C   0  0  0  0  0  0  0  0  0  0  0  0
    1.5302    0.2898   -0.6205 C   0  0  0  0  0  0  0  0  0  0  0  0
    0.3518    1.1902   -0.1808 C   0  0  0  0  0  0  0  0  0  0  0  0
   -0.7376    0.1810   -0.3907 C   0  0  0  0  0  0  0  0  0  0  0  0
   -2.1297    0.5654   -0.2410 C   0  0  0  0  0  0  0  0  0  0  0  0
   -0.3813   -0.3245   -1.6641 O   0  0  0  0  0  0  0  0  0  0  0  0
    1.6150   -0.7023    3.4234 H   0  0  0  0  0  0  0  0  0  0  0  0
   -0.8855   -1.9576    0.1413 H   0  0  0  0  0  0  0  0  0  0  0  0
    1.1795   -1.7601   -1.4411 H   0  0  0  0  0  0  0  0  0  0  0  0
    2.0570    0.7041   -1.4794 H   0  0  0  0  0  0  0  0  0  0  0  0
    2.1800    0.1090    0.2359 H   0  0  0  0  0  0  0  0  0  0  0  0
    0.4700    1.5419    0.8412 H   0  0  0  0  0  0  0  0  0  0  0  0
    0.2309    1.9830   -0.9258 H   0  0  0  0  0  0  0  0  0  0  0  0
   -2.7715   -0.3287   -0.4618 H   0  0  0  0  0  0  0  0  0  0  0  0
   -2.4040    0.9633    0.7286 H   0  0  0  0  0  0  0  0  0  0  0  0
   -2.3980    1.3107   -1.0441 H   0  0  0  0  0  0  0  0  0  0  0  0
  1  2  3  0
  2  3  1  0
  3  4  1  0
  4  5  1  0
  5  6  1  0
  6  7  1  0
  7  8  1  0
  7  9  1  0
  7  3  1  0
  9  4  1  0
  1 10  1  0
  3 11  1  0
  4 12  1  0
  5 13  1  0
  5 14  1  0
  6 15  1  0
  6 16  1  0
  8 17  1  0
  8 18  1  0
  8 19  1  0
M  END
