
     RDKit          3D

 19 19  0  0  0  0  0  0  0  0999 V2000
    2.6204   -1.2108    0.0392 C   0  0  0  0  0  0  0  0  0  0  0  0
    1.4741   -0.9269   -0.0690 C   0  0  0  0  0  0  0  0  0  0  0  0
    0.0407   -0.5619   -0.1812 C   0  0  0  0  0  0  0  0  0  0  0  0
   -0.7543   -1.7606   -0.5879 C   0  0  0  0  0  0  0  0  0  0  0  0
   -0.4447    0.0605    1.1004 C   0  0  0  0  0  0  0  0  0  0  0  0
   -0.7019    1.5039    0.7988 C   0  0  0  0  0  0  0  0  0  0  0  0
   -0.0277    1.7912   -0.5413 C   0  0  0  0  0  0  0  0  0  0  0  0
   -0.0630    0.4821   -1.2375 C   0  0  0  0  0  0  0  0  0  0  0  0
   -0.1567    0.2738   -2.4242 O   0  0  0  0  0  0  0  0  0  0  0  0
    3.6583   -1.4869    0.1405 H   0  0  0  0  0  0  0  0  0  0  0  0
   -1.1952   -1.6197   -1.6164 H   0  0  0  0  0  0  0  0  0  0  0  0
   -1.6302   -1.8394    0.1119 H   0  0  0  0  0  0  0  0  0  0  0  0
   -0.1837   -2.6975   -0.5814 H   0  0  0  0  0  0  0  0  0  0  0  0
   -1.3540   -0.4682    1.5083 H   0  0  0  0  0  0  0  0  0  0  0  0
    0.3653   -0.0717    1.8765 H   0  0  0  0  0  0  0  0  0  0  0  0
   -0.2490    2.1876    1.5458 H   0  0  0  0  0  0  0  0  0  0  0  0
   -1.7852    1.6809    0.6441 H   0  0  0  0  0  0  0  0  0  0  0  0
    1.0141    2.1293   -0.3620 H   0  0  0  0  0  0  0  0  0  0  0  0
   -0.6272    2.5346   -1.1078 H   0  0  0  0  0  0  0  0  0  0  0  0
  1  2  3  0
  2  3  1  0
  3  4  1  0
  3  5  1  0
  5  6  1  0
  6  7  1  0
  7  8  1  0
  8  9  2  0
  8  3  1  0
  1 10  1  0
  4 11  1  0
  4 12  1  0
  4 13  1  0
  5 14  1  0
  5 15  1  0
  6 16  1  0
  6 17  1  0
  7 18  1  0
  7 19  1  0
M  END
