
     RDKit          3D

 13 12  0  0  0  0  0  0  0  0999 V2000
    2.7935    1.2728    0.0064 C   0  0  0  0  0  0  0  0  0  0  0  0
    1.5503    0.1853    0.4415 C   0  0  0  0  0  0  0  0  0  0  0  0
    0.6498   -0.6255    0.7488 C   0  0  0  0  0  0  0  0  0  0  0  0
   -0.0837   -1.2227   -0.2001 C   0  0  0  0  0  0  0  0  0  0  0  0
   -0.0150   -2.5875   -0.3903 O   0  0  0  0  0  0  0  0  0  0  0  0
   -1.1917   -0.6970   -1.3317 C   0  0  0  0  0  0  0  0  0  0  0  0
   -1.1567   -1.1706   -2.2812 O   0  0  0  0  0  0  0  0  0  0  0  0
   -1.8967    0.3234   -0.5524 C   0  0  0  0  0  0  0  0  0  0  0  0
   -2.5573    1.3168    0.1911 C   0  0  0  0  0  0  0  0  0  0  0  0
    3.8458    2.1905   -0.3871 H   0  0  0  0  0  0  0  0  0  0  0  0
    1.1573   -1.2177    1.6278 H   0  0  0  0  0  0  0  0  0  0  0  0
   -0.1062    0.2372    1.4330 H   0  0  0  0  0  0  0  0  0  0  0  0
   -2.9893    1.9951    0.6943 H   0  0  0  0  0  0  0  0  0  0  0  0
  1  2  3  0
  2  3  1  0
  3  4  1  0
  4  5  2  0
  4  6  1  0
  6  7  2  0
  6  8  1  0
  8  9  3  0
  1 10  1  0
  3 11  1  0
  3 12  1  0
  9 13  1  0
M  END
