
     RDKit          3D

 15 14  0  0  0  0  0  0  0  0999 V2000
    2.7949    1.0683    0.4873 C   0  0  0  0  0  0  0  0  0  0  0  0
    1.8684    0.2838    0.4962 C   0  0  0  0  0  0  0  0  0  0  0  0
    0.7586   -0.6862    0.5182 C   0  0  0  0  0  0  0  0  0  0  0  0
   -0.2989   -0.2570   -0.4787 C   0  0  0  0  0  0  0  0  0  0  0  0
   -1.4226   -1.2569   -0.4432 C   0  0  0  0  0  0  0  0  0  0  0  0
   -0.8362    1.0255   -0.0130 C   0  0  0  0  0  0  0  0  0  0  0  0
   -1.2795    2.0760    0.3906 C   0  0  0  0  0  0  0  0  0  0  0  0
    3.6001    1.7582    0.4620 H   0  0  0  0  0  0  0  0  0  0  0  0
    1.1415   -1.6754    0.1334 H   0  0  0  0  0  0  0  0  0  0  0  0
    0.3640   -0.7476    1.5332 H   0  0  0  0  0  0  0  0  0  0  0  0
    0.1533   -0.1765   -1.4813 H   0  0  0  0  0  0  0  0  0  0  0  0
   -2.3201   -0.7713   -0.8913 H   0  0  0  0  0  0  0  0  0  0  0  0
   -1.2069   -2.1771   -1.0327 H   0  0  0  0  0  0  0  0  0  0  0  0
   -1.6420   -1.4694    0.6183 H   0  0  0  0  0  0  0  0  0  0  0  0
   -1.6747    3.0055    0.7371 H   0  0  0  0  0  0  0  0  0  0  0  0
  1  2  3  0
  2  3  1  0
  3  4  1  0
  4  5  1  0
  4  6  1  0
  6  7  3  0
  1  8  1  0
  3  9  1  0
  3 10  1  0
  4 11  1  0
  5 12  1  0
  5 13  1  0
  5 14  1  0
  7 15  1  0
M  END
