
     RDKit          3D

 19 19  0  0  0  0  0  0  0  0999 V2000
    3.1323    0.5819    1.5828 C   0  0  0  0  0  0  0  0  0  0  0  0
    1.9759    0.4273    1.2787 C   0  0  0  0  0  0  0  0  0  0  0  0
    0.5482    0.2337    0.9262 C   0  0  0  0  0  0  0  0  0  0  0  0
    0.3050    0.9655   -0.3509 C   0  0  0  0  0  0  0  0  0  0  0  0
   -1.1416    1.1658   -0.6138 C   0  0  0  0  0  0  0  0  0  0  0  0
   -1.9805    0.1525   -0.4803 O   0  0  0  0  0  0  0  0  0  0  0  0
   -1.6651   -1.1225   -0.5498 C   0  0  0  0  0  0  0  0  0  0  0  0
   -0.2624   -1.5613   -0.3150 C   0  0  0  0  0  0  0  0  0  0  0  0
    0.3091   -1.1059    0.8438 O   0  0  0  0  0  0  0  0  0  0  0  0
    4.1557    0.7288    1.8513 H   0  0  0  0  0  0  0  0  0  0  0  0
   -0.0841    0.7304    1.7098 H   0  0  0  0  0  0  0  0  0  0  0  0
    0.8735    0.5471   -1.2128 H   0  0  0  0  0  0  0  0  0  0  0  0
    0.7540    1.9968   -0.2140 H   0  0  0  0  0  0  0  0  0  0  0  0
   -1.4782    2.0199    0.0491 H   0  0  0  0  0  0  0  0  0  0  0  0
   -1.2333    1.6023   -1.6540 H   0  0  0  0  0  0  0  0  0  0  0  0
   -2.3228   -1.7233    0.1478 H   0  0  0  0  0  0  0  0  0  0  0  0
   -1.9535   -1.5215   -1.5706 H   0  0  0  0  0  0  0  0  0  0  0  0
    0.3860   -1.4290   -1.2229 H   0  0  0  0  0  0  0  0  0  0  0  0
   -0.3182   -2.6886   -0.2055 H   0  0  0  0  0  0  0  0  0  0  0  0
  1  2  3  0
  2  3  1  0
  3  4  1  0
  4  5  1  0
  5  6  1  0
  6  7  1  0
  7  8  1  0
  8  9  1  0
  9  3  1  0
  1 10  1  0
  3 11  1  0
  4 12  1  0
  4 13  1  0
  5 14  1  0
  5 15  1  0
  7 16  1  0
  7 17  1  0
  8 18  1  0
  8 19  1  0
M  END
