
     RDKit          3D

 13 13  0  0  0  0  0  0  0  0999 V2000
    4.2622   -1.1706   -0.4174 C   0  0  0  0  0  0  0  0  0  0  0  0
    3.0553   -0.7869   -0.3826 C   0  0  0  0  0  0  0  0  0  0  0  0
    1.6424   -0.3361   -0.3265 C   0  0  0  0  0  0  0  0  0  0  0  0
    0.4333    0.0284   -0.2874 C   0  0  0  0  0  0  0  0  0  0  0  0
   -0.7747    0.3752   -0.2489 C   0  0  0  0  0  0  0  0  0  0  0  0
   -1.5377    1.3344    0.6409 C   0  0  0  0  0  0  0  0  0  0  0  0
   -2.1592    2.1002    1.3365 C   0  0  0  0  0  0  0  0  0  0  0  0
   -1.8496   -0.7751   -0.6169 C   0  0  0  0  0  0  0  0  0  0  0  0
   -1.5425    0.3217   -1.4736 O   0  0  0  0  0  0  0  0  0  0  0  0
    5.2371   -1.4871   -0.4285 H   0  0  0  0  0  0  0  0  0  0  0  0
   -2.7493    2.8170    1.9747 H   0  0  0  0  0  0  0  0  0  0  0  0
   -1.3330   -1.7018   -0.7529 H   0  0  0  0  0  0  0  0  0  0  0  0
   -2.6844   -0.7192    0.0876 H   0  0  0  0  0  0  0  0  0  0  0  0
  1  2  3  0
  2  3  1  0
  3  4  3  0
  4  5  1  0
  5  6  1  0
  6  7  3  0
  5  8  1  0
  8  9  1  0
  9  5  1  0
  1 10  1  0
  7 11  1  0
  8 12  1  0
  8 13  1  0
M  END
