
     RDKit          3D

 19 18  0  0  0  0  0  0  0  0999 V2000
   -0.5629    3.0307    0.4697 C   0  0  0  0  0  0  0  0  0  0  0  0
   -0.6374    1.8826   -0.1268 C   0  0  0  0  0  0  0  0  0  0  0  0
   -0.7030    0.6177   -0.7624 C   0  0  0  0  0  0  0  0  0  0  0  0
    0.5425   -0.1476   -1.0117 C   0  0  0  0  0  0  0  0  0  0  0  0
    1.2789   -0.5831   -0.1328 C   0  0  0  0  0  0  0  0  0  0  0  0
    2.0809   -1.0569    0.8583 C   0  0  0  0  0  0  0  0  0  0  0  0
    2.9919   -1.5936    1.9446 C   0  0  0  0  0  0  0  0  0  0  0  0
   -1.5894   -0.1451    0.0990 O   0  0  0  0  0  0  0  0  0  0  0  0
   -2.8529   -0.2547   -0.4906 C   0  0  0  0  0  0  0  0  0  0  0  0
   -0.4999    3.8989    0.9046 H   0  0  0  0  0  0  0  0  0  0  0  0
   -1.3416    0.7599   -1.7042 H   0  0  0  0  0  0  0  0  0  0  0  0
    1.1084    0.5961   -1.8075 H   0  0  0  0  0  0  0  0  0  0  0  0
    0.2557   -0.9160   -1.9054 H   0  0  0  0  0  0  0  0  0  0  0  0
    2.4375   -2.4030    2.4860 H   0  0  0  0  0  0  0  0  0  0  0  0
    3.2284   -0.7204    2.5485 H   0  0  0  0  0  0  0  0  0  0  0  0
    3.8311   -2.0754    1.4643 H   0  0  0  0  0  0  0  0  0  0  0  0
   -3.4907   -0.8063    0.2293 H   0  0  0  0  0  0  0  0  0  0  0  0
   -3.3077    0.7427   -0.6664 H   0  0  0  0  0  0  0  0  0  0  0  0
   -2.7699   -0.8264   -1.4466 H   0  0  0  0  0  0  0  0  0  0  0  0
  1  2  3  0
  2  3  1  0
  3  4  1  0
  4  5  1  0
  5  6  3  0
  6  7  1  0
  3  8  1  0
  8  9  1  0
  1 10  1  0
  3 11  1  0
  4 12  1  0
  4 13  1  0
  7 14  1  0
  7 15  1  0
  7 16  1  0
  9 17  1  0
  9 18  1  0
  9 19  1  0
M  END
