
     RDKit          3D

 12 11  0  0  0  0  0  0  0  0999 V2000
   -1.0491    0.7702    2.0793 C   0  0  0  0  0  0  0  0  0  0  0  0
   -0.4027    0.2461    1.1811 C   0  0  0  0  0  0  0  0  0  0  0  0
    0.3596   -0.3939    0.1046 C   0  0  0  0  0  0  0  0  0  0  0  0
   -0.6293   -1.1112   -0.7796 C   0  0  0  0  0  0  0  0  0  0  0  0
    1.0552    0.5996   -0.7205 C   0  0  0  0  0  0  0  0  0  0  0  0
    1.6183    1.4364   -1.4184 C   0  0  0  0  0  0  0  0  0  0  0  0
   -1.6111    1.2360    2.8425 H   0  0  0  0  0  0  0  0  0  0  0  0
    1.1245   -1.0560    0.5266 H   0  0  0  0  0  0  0  0  0  0  0  0
   -1.4241   -0.4074   -1.0792 H   0  0  0  0  0  0  0  0  0  0  0  0
   -0.1222   -1.4996   -1.6786 H   0  0  0  0  0  0  0  0  0  0  0  0
   -1.0363   -1.9664   -0.2065 H   0  0  0  0  0  0  0  0  0  0  0  0
    2.1169    2.1461   -2.0187 H   0  0  0  0  0  0  0  0  0  0  0  0
  1  2  3  0
  2  3  1  0
  3  4  1  0
  3  5  1  0
  5  6  3  0
  1  7  1  0
  3  8  1  0
  4  9  1  0
  4 10  1  0
  4 11  1  0
  6 12  1  0
M  END
