
     RDKit          3D

 13 12  0  0  0  0  0  0  0  0999 V2000
    2.2332    0.5257    1.0320 C   0  0  0  0  0  0  0  0  0  0  0  0
    1.4882    0.3278    0.0910 C   0  0  0  0  0  0  0  0  0  0  0  0
    0.5732    0.0872   -1.0238 C   0  0  0  0  0  0  0  0  0  0  0  0
   -0.7198   -0.4539   -0.4514 C   0  0  0  0  0  0  0  0  0  0  0  0
   -0.5121   -1.6455    0.2413 O   0  0  0  0  0  0  0  0  0  0  0  0
   -1.3442    0.5281    0.4625 C   0  0  0  0  0  0  0  0  0  0  0  0
   -1.6008    1.6406    0.0230 O   0  0  0  0  0  0  0  0  0  0  0  0
    2.8746    0.6835    1.8600 H   0  0  0  0  0  0  0  0  0  0  0  0
    0.9951   -0.5709   -1.7945 H   0  0  0  0  0  0  0  0  0  0  0  0
    0.3066    1.0658   -1.5056 H   0  0  0  0  0  0  0  0  0  0  0  0
   -1.4576   -0.6880   -1.2535 H   0  0  0  0  0  0  0  0  0  0  0  0
   -1.2672   -1.7886    0.8440 H   0  0  0  0  0  0  0  0  0  0  0  0
   -1.5693    0.2883    1.4748 H   0  0  0  0  0  0  0  0  0  0  0  0
  1  2  3  0
  2  3  1  0
  3  4  1  0
  4  5  1  0
  4  6  1  0
  6  7  2  0
  1  8  1  0
  3  9  1  0
  3 10  1  0
  4 11  1  0
  5 12  1  0
  6 13  1  0
M  END
