
     RDKit          3D

 19 19  0  0  0  0  0  0  0  0999 V2000
    3.3310   -1.0969    0.5327 C   0  0  0  0  0  0  0  0  0  0  0  0
    2.1183    0.0927    0.3605 C   0  0  0  0  0  0  0  0  0  0  0  0
    1.4095    0.8056    0.2666 C   0  0  0  0  0  0  0  0  0  0  0  0
    0.8753    1.6669   -0.6854 O   0  0  0  0  0  0  0  0  0  0  0  0
   -0.5501    1.6575   -0.6576 C   0  0  0  0  0  0  0  0  0  0  0  0
   -0.9344    0.1368   -0.8472 C   0  0  0  0  0  0  0  0  0  0  0  0
   -0.4568   -0.5926    0.3709 C   0  0  0  0  0  0  0  0  0  0  0  0
   -1.6754   -1.2386    1.0303 C   0  0  0  0  0  0  0  0  0  0  0  0
    0.1150    0.4291    1.1546 O   0  0  0  0  0  0  0  0  0  0  0  0
    4.2029   -1.9738    0.6718 H   0  0  0  0  0  0  0  0  0  0  0  0
    1.5876    1.6928    1.2796 H   0  0  0  0  0  0  0  0  0  0  0  0
   -0.9089    2.0173    0.3011 H   0  0  0  0  0  0  0  0  0  0  0  0
   -0.8305    2.1614   -1.5798 H   0  0  0  0  0  0  0  0  0  0  0  0
   -0.5032   -0.2259   -1.7575 H   0  0  0  0  0  0  0  0  0  0  0  0
   -2.0820    0.1706   -0.8437 H   0  0  0  0  0  0  0  0  0  0  0  0
    0.3336   -1.3186    0.2170 H   0  0  0  0  0  0  0  0  0  0  0  0
   -1.5314   -1.5898    2.0509 H   0  0  0  0  0  0  0  0  0  0  0  0
   -2.5938   -0.6407    0.9235 H   0  0  0  0  0  0  0  0  0  0  0  0
   -1.9066   -2.1537    0.3818 H   0  0  0  0  0  0  0  0  0  0  0  0
  1  2  3  0
  2  3  1  0
  3  4  1  0
  4  5  1  0
  5  6  1  0
  6  7  1  0
  7  8  1  0
  7  9  1  0
  9  3  1  0
  1 10  1  0
  3 11  1  0
  5 12  1  0
  5 13  1  0
  6 14  1  0
  6 15  1  0
  7 16  1  0
  8 17  1  0
  8 18  1  0
  8 19  1  0
M  END
