
     RDKit          3D

 17 18  0  0  0  0  0  0  0  0999 V2000
    1.0554    3.4095   -0.2238 C   0  0  0  0  0  0  0  0  0  0  0  0
    1.1601    2.1499    0.1144 C   0  0  0  0  0  0  0  0  0  0  0  0
    1.2809    0.6964    0.5015 C   0  0  0  0  0  0  0  0  0  0  0  0
    1.6521   -0.0691   -0.7507 O   0  0  0  0  0  0  0  0  0  0  0  0
    0.4458   -0.2568   -0.0434 C   0  0  0  0  0  0  0  0  0  0  0  0
    0.2185   -1.5943    0.5541 C   0  0  0  0  0  0  0  0  0  0  0  0
   -1.2196   -1.8001    0.5055 C   0  0  0  0  0  0  0  0  0  0  0  0
   -1.8225   -0.8736   -0.2546 C   0  0  0  0  0  0  0  0  0  0  0  0
   -0.8233    0.0612   -0.7931 C   0  0  0  0  0  0  0  0  0  0  0  0
    0.9967    4.2437   -0.4590 H   0  0  0  0  0  0  0  0  0  0  0  0
    2.1072    0.5426    1.2286 H   0  0  0  0  0  0  0  0  0  0  0  0
    0.6819   -2.4196   -0.0660 H   0  0  0  0  0  0  0  0  0  0  0  0
    0.6500   -1.7181    1.5765 H   0  0  0  0  0  0  0  0  0  0  0  0
   -1.7724   -2.5929    1.0451 H   0  0  0  0  0  0  0  0  0  0  0  0
   -2.8804   -0.8167   -0.4353 H   0  0  0  0  0  0  0  0  0  0  0  0
   -1.0514    1.1424   -0.6104 H   0  0  0  0  0  0  0  0  0  0  0  0
   -0.6790   -0.1045   -1.8895 H   0  0  0  0  0  0  0  0  0  0  0  0
  1  2  3  0
  2  3  1  0
  3  4  1  0
  4  5  1  0
  5  6  1  0
  6  7  1  0
  7  8  2  0
  8  9  1  0
  5  3  1  0
  9  5  1  0
  1 10  1  0
  3 11  1  0
  6 12  1  0
  6 13  1  0
  7 14  1  0
  8 15  1  0
  9 16  1  0
  9 17  1  0
M  END
