
     RDKit          3D

 21 21  0  0  0  0  0  0  0  0999 V2000
    1.2394    1.3462   -2.8325 C   0  0  0  0  0  0  0  0  0  0  0  0
    0.8578    0.8464   -1.7221 C   0  0  0  0  0  0  0  0  0  0  0  0
    0.4334    0.2735   -0.5081 C   0  0  0  0  0  0  0  0  0  0  0  0
   -0.2507   -0.8768   -0.4285 C   0  0  0  0  0  0  0  0  0  0  0  0
   -0.6326   -1.6848   -1.6014 C   0  0  0  0  0  0  0  0  0  0  0  0
   -0.5500   -1.1919    1.0096 C   0  0  0  0  0  0  0  0  0  0  0  0
    0.5271   -0.3901    1.7302 C   0  0  0  0  0  0  0  0  0  0  0  0
    0.6438    0.8275    0.8747 C   0  0  0  0  0  0  0  0  0  0  0  0
   -0.4824    1.7770    1.2069 C   0  0  0  0  0  0  0  0  0  0  0  0
    1.5678    1.7601   -3.7351 H   0  0  0  0  0  0  0  0  0  0  0  0
   -0.3799   -2.7494   -1.4098 H   0  0  0  0  0  0  0  0  0  0  0  0
   -1.7224   -1.6874   -1.8282 H   0  0  0  0  0  0  0  0  0  0  0  0
   -0.1513   -1.3032   -2.5120 H   0  0  0  0  0  0  0  0  0  0  0  0
   -0.4818   -2.2628    1.2372 H   0  0  0  0  0  0  0  0  0  0  0  0
   -1.5656   -0.8154    1.2183 H   0  0  0  0  0  0  0  0  0  0  0  0
    0.2007   -0.0965    2.7246 H   0  0  0  0  0  0  0  0  0  0  0  0
    1.4845   -0.9694    1.7098 H   0  0  0  0  0  0  0  0  0  0  0  0
    1.6458    1.3181    0.9397 H   0  0  0  0  0  0  0  0  0  0  0  0
   -0.6526    1.7206    2.3020 H   0  0  0  0  0  0  0  0  0  0  0  0
   -0.3046    2.7974    0.8788 H   0  0  0  0  0  0  0  0  0  0  0  0
   -1.4263    1.3610    0.7459 H   0  0  0  0  0  0  0  0  0  0  0  0
  1  2  3  0
  2  3  1  0
  3  4  2  0
  4  5  1  0
  4  6  1  0
  6  7  1  0
  7  8  1  0
  8  9  1  0
  8  3  1  0
  1 10  1  0
  5 11  1  0
  5 12  1  0
  5 13  1  0
  6 14  1  0
  6 15  1  0
  7 16  1  0
  7 17  1  0
  8 18  1  0
  9 19  1  0
  9 20  1  0
  9 21  1  0
M  END
