
     RDKit          3D

 23 23  0  0  0  0  0  0  0  0999 V2000
   -2.5297   -1.8017    1.2096 C   0  0  0  0  0  0  0  0  0  0  0  0
   -2.1466   -0.7231    0.9069 C   0  0  0  0  0  0  0  0  0  0  0  0
   -1.6247    0.7208    0.5284 C   0  0  0  0  0  0  0  0  0  0  0  0
   -0.7816    0.5646   -0.7162 C   0  0  0  0  0  0  0  0  0  0  0  0
    0.4901   -0.2388   -0.3868 C   0  0  0  0  0  0  0  0  0  0  0  0
    1.4766    0.0256   -1.5426 C   0  0  0  0  0  0  0  0  0  0  0  0
    2.6855   -0.8491   -1.4752 C   0  0  0  0  0  0  0  0  0  0  0  0
   -1.6620    1.5782    1.6515 C   0  0  0  0  0  0  0  0  0  0  0  0
   -0.4159    0.7610    1.6544 C   0  0  0  0  0  0  0  0  0  0  0  0
   -2.9713   -3.0595    1.5869 H   0  0  0  0  0  0  0  0  0  0  0  0
   -1.2594   -0.0376   -1.5640 H   0  0  0  0  0  0  0  0  0  0  0  0
   -0.4608    1.5152   -1.2146 H   0  0  0  0  0  0  0  0  0  0  0  0
    1.0209    0.0373    0.5028 H   0  0  0  0  0  0  0  0  0  0  0  0
    0.3016   -1.3447   -0.3203 H   0  0  0  0  0  0  0  0  0  0  0  0
    1.8305    1.1109   -1.3329 H   0  0  0  0  0  0  0  0  0  0  0  0
    0.9138   -0.0245   -2.4820 H   0  0  0  0  0  0  0  0  0  0  0  0
    2.5451   -1.7315   -0.7538 H   0  0  0  0  0  0  0  0  0  0  0  0
    3.6042   -0.2938   -1.2239 H   0  0  0  0  0  0  0  0  0  0  0  0
    2.7357   -1.3582   -2.4898 H   0  0  0  0  0  0  0  0  0  0  0  0
   -1.5848    2.6726    1.7118 H   0  0  0  0  0  0  0  0  0  0  0  0
   -2.4533    1.2253    2.4693 H   0  0  0  0  0  0  0  0  0  0  0  0
   -0.1573   -0.2027    1.9426 H   0  0  0  0  0  0  0  0  0  0  0  0
    0.4435    1.4539    1.3379 H   0  0  0  0  0  0  0  0  0  0  0  0
  1  2  3  0
  2  3  1  0
  3  4  1  0
  4  5  1  0
  5  6  1  0
  6  7  1  0
  3  8  1  0
  8  9  1  0
  9  3  1  0
  1 10  1  0
  4 11  1  0
  4 12  1  0
  5 13  1  0
  5 14  1  0
  6 15  1  0
  6 16  1  0
  7 17  1  0
  7 18  1  0
  7 19  1  0
  8 20  1  0
  8 21  1  0
  9 22  1  0
  9 23  1  0
M  END
