
     RDKit          3D

 19 19  0  0  0  0  0  0  0  0999 V2000
   -2.5929    0.5265    2.0191 C   0  0  0  0  0  0  0  0  0  0  0  0
   -1.8770   -0.1194    1.7663 C   0  0  0  0  0  0  0  0  0  0  0  0
   -0.7049   -1.2066    1.3552 C   0  0  0  0  0  0  0  0  0  0  0  0
    0.3163   -1.2946    0.6442 O   0  0  0  0  0  0  0  0  0  0  0  0
    0.3900    0.0007    0.9790 C   0  0  0  0  0  0  0  0  0  0  0  0
   -0.1591    0.8023   -0.2629 C   0  0  0  0  0  0  0  0  0  0  0  0
   -0.2141   -0.4748   -1.3254 C   0  0  0  0  0  0  0  0  0  0  0  0
    1.1213   -0.7768   -1.2648 O   0  0  0  0  0  0  0  0  0  0  0  0
    1.9842    0.0837   -1.8566 C   0  0  0  0  0  0  0  0  0  0  0  0
   -3.7449    1.5471    2.4238 H   0  0  0  0  0  0  0  0  0  0  0  0
   -0.3344   -1.5399    2.4991 H   0  0  0  0  0  0  0  0  0  0  0  0
    0.6022    0.6217    1.8456 H   0  0  0  0  0  0  0  0  0  0  0  0
    0.6514    1.3627   -0.6639 H   0  0  0  0  0  0  0  0  0  0  0  0
   -1.0998    1.2265   -0.1490 H   0  0  0  0  0  0  0  0  0  0  0  0
   -0.8927   -1.1544   -0.8530 H   0  0  0  0  0  0  0  0  0  0  0  0
   -0.5059    0.0274   -2.2424 H   0  0  0  0  0  0  0  0  0  0  0  0
    3.0464    0.0146   -1.4812 H   0  0  0  0  0  0  0  0  0  0  0  0
    1.7297    0.9597   -2.3644 H   0  0  0  0  0  0  0  0  0  0  0  0
    2.2841   -0.6062   -2.8904 H   0  0  0  0  0  0  0  0  0  0  0  0
  1  2  3  0
  2  3  1  0
  3  4  1  0
  4  5  1  0
  5  6  1  0
  6  7  1  0
  7  8  1  0
  8  9  1  0
  5  3  1  0
  1 10  1  0
  3 11  1  0
  5 12  1  0
  6 13  1  0
  6 14  1  0
  7 15  1  0
  7 16  1  0
  9 17  1  0
  9 18  1  0
  9 19  1  0
M  END
