
     RDKit          3D

 15 16  0  0  0  0  0  0  0  0999 V2000
    0.3797    2.1536   -1.6174 C   0  0  0  0  0  0  0  0  0  0  0  0
    0.3099    1.2459   -0.8345 C   0  0  0  0  0  0  0  0  0  0  0  0
    0.2381    0.1230    0.1186 C   0  0  0  0  0  0  0  0  0  0  0  0
    1.5430   -0.4725    0.4332 C   0  0  0  0  0  0  0  0  0  0  0  0
    2.6207   -0.9682    0.6731 C   0  0  0  0  0  0  0  0  0  0  0  0
   -0.7620   -0.9291   -0.3608 C   0  0  0  0  0  0  0  0  0  0  0  0
   -1.5842   -0.6480    0.8481 C   0  0  0  0  0  0  0  0  0  0  0  0
   -0.9636   -0.7111    2.0690 O   0  0  0  0  0  0  0  0  0  0  0  0
   -0.6393    0.3779    1.2924 C   0  0  0  0  0  0  0  0  0  0  0  0
    0.4414    2.9630   -2.2936 H   0  0  0  0  0  0  0  0  0  0  0  0
    3.5596   -1.4125    0.8714 H   0  0  0  0  0  0  0  0  0  0  0  0
   -0.3111   -1.9458   -0.3815 H   0  0  0  0  0  0  0  0  0  0  0  0
   -1.1838   -0.6954   -1.3382 H   0  0  0  0  0  0  0  0  0  0  0  0
   -2.6758   -0.4778    0.7773 H   0  0  0  0  0  0  0  0  0  0  0  0
   -0.9725    1.3970    1.5638 H   0  0  0  0  0  0  0  0  0  0  0  0
  1  2  3  0
  2  3  1  0
  3  4  1  0
  4  5  3  0
  3  6  1  0
  6  7  1  0
  7  8  1  0
  8  9  1  0
  9  3  1  0
  9  7  1  0
  1 10  1  0
  5 11  1  0
  6 12  1  0
  6 13  1  0
  7 14  1  0
  9 15  1  0
M  END
