
     RDKit          3D

 17 16  0  0  0  0  0  0  0  0999 V2000
   -1.4966    2.5050    0.2359 C   0  0  0  0  0  0  0  0  0  0  0  0
   -1.0827    1.3832    0.0675 C   0  0  0  0  0  0  0  0  0  0  0  0
   -0.5672    0.0267   -0.1537 C   0  0  0  0  0  0  0  0  0  0  0  0
   -1.3136   -0.9308    0.7644 C   0  0  0  0  0  0  0  0  0  0  0  0
   -0.8112   -0.3546   -1.6076 C   0  0  0  0  0  0  0  0  0  0  0  0
    0.8476   -0.0734    0.1877 C   0  0  0  0  0  0  0  0  0  0  0  0
    2.0209   -0.1677    0.4640 C   0  0  0  0  0  0  0  0  0  0  0  0
    3.4158   -0.2772    0.7674 C   0  0  0  0  0  0  0  0  0  0  0  0
    3.9271   -1.4238    0.7322 O   0  0  0  0  0  0  0  0  0  0  0  0
   -1.8484    3.5087    0.3932 H   0  0  0  0  0  0  0  0  0  0  0  0
   -2.3804   -1.0185    0.4703 H   0  0  0  0  0  0  0  0  0  0  0  0
   -1.3013   -0.4423    1.7751 H   0  0  0  0  0  0  0  0  0  0  0  0
   -0.7850   -1.8989    0.7997 H   0  0  0  0  0  0  0  0  0  0  0  0
   -0.8943   -1.4610   -1.6918 H   0  0  0  0  0  0  0  0  0  0  0  0
   -1.7758    0.0663   -1.9600 H   0  0  0  0  0  0  0  0  0  0  0  0
    0.0008   -0.0070   -2.2666 H   0  0  0  0  0  0  0  0  0  0  0  0
    4.0443    0.5653    1.0222 H   0  0  0  0  0  0  0  0  0  0  0  0
  1  2  3  0
  2  3  1  0
  3  4  1  0
  3  5  1  0
  3  6  1  0
  6  7  3  0
  7  8  1  0
  8  9  2  0
  1 10  1  0
  4 11  1  0
  4 12  1  0
  4 13  1  0
  5 14  1  0
  5 15  1  0
  5 16  1  0
  8 17  1  0
M  END
