
     RDKit          3D

 16 17  0  0  0  0  0  0  0  0999 V2000
    3.6445    0.0672   -0.8049 C   0  0  0  0  0  0  0  0  0  0  0  0
    2.5006   -0.2995   -0.8948 C   0  0  0  0  0  0  0  0  0  0  0  0
    1.1317   -0.7544   -1.0214 C   0  0  0  0  0  0  0  0  0  0  0  0
    0.4400   -0.0832   -2.0062 O   0  0  0  0  0  0  0  0  0  0  0  0
   -0.7925    0.1043   -1.3305 C   0  0  0  0  0  0  0  0  0  0  0  0
   -1.2030   -0.3243    0.0230 C   0  0  0  0  0  0  0  0  0  0  0  0
   -2.1195    0.6700    0.7329 C   0  0  0  0  0  0  0  0  0  0  0  0
    0.1027    0.0072   -0.2203 C   0  0  0  0  0  0  0  0  0  0  0  0
    4.6662    0.3955   -0.7058 H   0  0  0  0  0  0  0  0  0  0  0  0
    1.0285   -1.8513   -1.0033 H   0  0  0  0  0  0  0  0  0  0  0  0
   -1.4730   -0.3786   -1.9769 H   0  0  0  0  0  0  0  0  0  0  0  0
   -1.4993   -1.3828    0.2781 H   0  0  0  0  0  0  0  0  0  0  0  0
   -2.3539    0.3325    1.7531 H   0  0  0  0  0  0  0  0  0  0  0  0
   -3.0152    0.8440    0.1288 H   0  0  0  0  0  0  0  0  0  0  0  0
   -1.5899    1.6591    0.8408 H   0  0  0  0  0  0  0  0  0  0  0  0
    0.5322    0.9942    0.1329 H   0  0  0  0  0  0  0  0  0  0  0  0
  1  2  3  0
  2  3  1  0
  3  4  1  0
  4  5  1  0
  5  6  1  0
  6  7  1  0
  6  8  1  0
  8  3  1  0
  8  5  1  0
  1  9  1  0
  3 10  1  0
  5 11  1  0
  6 12  1  0
  7 13  1  0
  7 14  1  0
  7 15  1  0
  8 16  1  0
M  END
