
     RDKit          3D

 17 16  0  0  0  0  0  0  0  0999 V2000
   -3.0384    0.9831    0.2077 C   0  0  0  0  0  0  0  0  0  0  0  0
   -1.9209    0.6673   -0.1134 C   0  0  0  0  0  0  0  0  0  0  0  0
   -0.5386    0.3030   -0.5133 C   0  0  0  0  0  0  0  0  0  0  0  0
   -0.2229   -0.9520   -0.0162 O   0  0  0  0  0  0  0  0  0  0  0  0
    0.0020   -1.8950   -1.0080 C   0  0  0  0  0  0  0  0  0  0  0  0
    0.4260    1.2592    0.0685 C   0  0  0  0  0  0  0  0  0  0  0  0
    0.3486    2.4415   -0.2237 O   0  0  0  0  0  0  0  0  0  0  0  0
    1.5083    0.8593    1.0085 C   0  0  0  0  0  0  0  0  0  0  0  0
    1.4791   -0.5010    1.2515 O   0  0  0  0  0  0  0  0  0  0  0  0
   -4.0295    1.2662    0.5041 H   0  0  0  0  0  0  0  0  0  0  0  0
   -0.5518    0.3156   -1.6248 H   0  0  0  0  0  0  0  0  0  0  0  0
    0.2433   -2.8481   -0.5016 H   0  0  0  0  0  0  0  0  0  0  0  0
    0.9086   -1.5696   -1.5625 H   0  0  0  0  0  0  0  0  0  0  0  0
   -0.8777   -2.0417   -1.6764 H   0  0  0  0  0  0  0  0  0  0  0  0
    2.4983    1.0969    0.5378 H   0  0  0  0  0  0  0  0  0  0  0  0
    1.4534    1.4056    1.9661 H   0  0  0  0  0  0  0  0  0  0  0  0
    2.3125   -0.7903    1.6958 H   0  0  0  0  0  0  0  0  0  0  0  0
  1  2  3  0
  2  3  1  0
  3  4  1  0
  4  5  1  0
  3  6  1  0
  6  7  2  0
  6  8  1  0
  8  9  1  0
  1 10  1  0
  3 11  1  0
  5 12  1  0
  5 13  1  0
  5 14  1  0
  8 15  1  0
  8 16  1  0
  9 17  1  0
M  END
