
     RDKit          3D

 21 21  0  0  0  0  0  0  0  0999 V2000
   -0.4237    0.5271   -2.7040 C   0  0  0  0  0  0  0  0  0  0  0  0
    0.2888    0.5089   -1.5481 C   0  0  0  0  0  0  0  0  0  0  0  0
    1.0025    0.4918   -0.4282 C   0  0  0  0  0  0  0  0  0  0  0  0
    0.1648    0.8775    0.8258 C   0  0  0  0  0  0  0  0  0  0  0  0
   -0.8979   -0.1179    1.1323 C   0  0  0  0  0  0  0  0  0  0  0  0
   -1.9919   -0.3834    0.1522 C   0  0  0  0  0  0  0  0  0  0  0  0
   -2.2615    0.3422    1.4899 C   0  0  0  0  0  0  0  0  0  0  0  0
    1.3391   -0.9278   -0.1603 O   0  0  0  0  0  0  0  0  0  0  0  0
    2.6755   -1.0953   -0.3282 C   0  0  0  0  0  0  0  0  0  0  0  0
   -1.0256    0.5483   -3.6451 H   0  0  0  0  0  0  0  0  0  0  0  0
    1.9623    0.9692   -0.4722 H   0  0  0  0  0  0  0  0  0  0  0  0
    0.8374    0.9452    1.6682 H   0  0  0  0  0  0  0  0  0  0  0  0
   -0.2547    1.8906    0.6141 H   0  0  0  0  0  0  0  0  0  0  0  0
   -0.5338   -1.0163    1.7077 H   0  0  0  0  0  0  0  0  0  0  0  0
   -2.2748    0.1984   -0.6913 H   0  0  0  0  0  0  0  0  0  0  0  0
   -2.2910   -1.4600    0.0918 H   0  0  0  0  0  0  0  0  0  0  0  0
   -2.5996    1.4323    1.4049 H   0  0  0  0  0  0  0  0  0  0  0  0
   -3.0041   -0.2451    2.1322 H   0  0  0  0  0  0  0  0  0  0  0  0
    3.2894   -0.4006    0.2757 H   0  0  0  0  0  0  0  0  0  0  0  0
    3.0537   -2.1544   -0.0917 H   0  0  0  0  0  0  0  0  0  0  0  0
    2.9450   -0.9307   -1.4257 H   0  0  0  0  0  0  0  0  0  0  0  0
  1  2  3  0
  2  3  1  0
  3  4  1  0
  4  5  1  0
  5  6  1  0
  6  7  1  0
  3  8  1  0
  8  9  1  0
  7  5  1  0
  1 10  1  0
  3 11  1  0
  4 12  1  0
  4 13  1  0
  5 14  1  0
  6 15  1  0
  6 16  1  0
  7 17  1  0
  7 18  1  0
  9 19  1  0
  9 20  1  0
  9 21  1  0
M  END
