
     RDKit          3D

 21 21  0  0  0  0  0  0  0  0999 V2000
    3.6157    0.1952    0.9730 C   0  0  0  0  0  0  0  0  0  0  0  0
    2.5571   -0.2006    0.5534 C   0  0  0  0  0  0  0  0  0  0  0  0
    1.2505   -0.6832    0.0631 C   0  0  0  0  0  0  0  0  0  0  0  0
    0.9646   -0.1016   -1.2984 C   0  0  0  0  0  0  0  0  0  0  0  0
   -0.5112    0.2616   -1.2302 C   0  0  0  0  0  0  0  0  0  0  0  0
   -0.8539    0.0625    0.2075 C   0  0  0  0  0  0  0  0  0  0  0  0
   -1.8166   -1.0996    0.4280 C   0  0  0  0  0  0  0  0  0  0  0  0
   -1.4617    1.3398    0.7783 C   0  0  0  0  0  0  0  0  0  0  0  0
    0.2920   -0.1961    0.9122 O   0  0  0  0  0  0  0  0  0  0  0  0
    4.5497    0.5530    1.3269 H   0  0  0  0  0  0  0  0  0  0  0  0
    1.2820   -1.8092    0.0375 H   0  0  0  0  0  0  0  0  0  0  0  0
    1.5811    0.8061   -1.4216 H   0  0  0  0  0  0  0  0  0  0  0  0
    1.1449   -0.7957   -2.1270 H   0  0  0  0  0  0  0  0  0  0  0  0
   -0.6804    1.3074   -1.5898 H   0  0  0  0  0  0  0  0  0  0  0  0
   -1.1224   -0.4168   -1.8828 H   0  0  0  0  0  0  0  0  0  0  0  0
   -1.2911   -2.0224    0.1835 H   0  0  0  0  0  0  0  0  0  0  0  0
   -2.7652   -0.9478   -0.1219 H   0  0  0  0  0  0  0  0  0  0  0  0
   -2.0374   -1.1013    1.5209 H   0  0  0  0  0  0  0  0  0  0  0  0
   -0.6368    2.1090    0.7680 H   0  0  0  0  0  0  0  0  0  0  0  0
   -2.2895    1.6376    0.1125 H   0  0  0  0  0  0  0  0  0  0  0  0
   -1.7715    1.1020    1.8069 H   0  0  0  0  0  0  0  0  0  0  0  0
  1  2  3  0
  2  3  1  0
  3  4  1  0
  4  5  1  0
  5  6  1  0
  6  7  1  0
  6  8  1  0
  6  9  1  0
  9  3  1  0
  1 10  1  0
  3 11  1  0
  4 12  1  0
  4 13  1  0
  5 14  1  0
  5 15  1  0
  7 16  1  0
  7 17  1  0
  7 18  1  0
  8 19  1  0
  8 20  1  0
  8 21  1  0
M  END
