
     RDKit          3D

 21 22  0  0  0  0  0  0  0  0999 V2000
    3.4252   -0.2390   -2.0308 C   0  0  0  0  0  0  0  0  0  0  0  0
    2.4380    0.1675   -1.3980 C   0  0  0  0  0  0  0  0  0  0  0  0
    1.2906    0.6628   -0.6731 C   0  0  0  0  0  0  0  0  0  0  0  0
    1.0645    0.3029    0.7567 C   0  0  0  0  0  0  0  0  0  0  0  0
    0.0733    1.0370    1.5839 C   0  0  0  0  0  0  0  0  0  0  0  0
   -1.2332    0.2492    1.3303 C   0  0  0  0  0  0  0  0  0  0  0  0
   -1.1616    0.1085   -0.1609 C   0  0  0  0  0  0  0  0  0  0  0  0
   -2.1855   -0.8540   -0.6747 C   0  0  0  0  0  0  0  0  0  0  0  0
    0.2673   -0.3729   -0.3396 C   0  0  0  0  0  0  0  0  0  0  0  0
    4.2875   -0.5910   -2.5755 H   0  0  0  0  0  0  0  0  0  0  0  0
    0.9258    1.6974   -0.9478 H   0  0  0  0  0  0  0  0  0  0  0  0
    1.8117   -0.3416    1.2716 H   0  0  0  0  0  0  0  0  0  0  0  0
    0.3337    0.9374    2.6734 H   0  0  0  0  0  0  0  0  0  0  0  0
   -0.0151    2.0837    1.2814 H   0  0  0  0  0  0  0  0  0  0  0  0
   -1.0688   -0.7219    1.8371 H   0  0  0  0  0  0  0  0  0  0  0  0
   -2.0966    0.7809    1.7172 H   0  0  0  0  0  0  0  0  0  0  0  0
   -1.2591    1.1401   -0.5972 H   0  0  0  0  0  0  0  0  0  0  0  0
   -1.9487   -1.8702   -0.2928 H   0  0  0  0  0  0  0  0  0  0  0  0
   -2.1638   -0.8289   -1.8024 H   0  0  0  0  0  0  0  0  0  0  0  0
   -3.2141   -0.6065   -0.3887 H   0  0  0  0  0  0  0  0  0  0  0  0
    0.4291   -1.4152   -0.5701 H   0  0  0  0  0  0  0  0  0  0  0  0
  1  2  3  0
  2  3  1  0
  3  4  1  0
  4  5  1  0
  5  6  1  0
  6  7  1  0
  7  8  1  0
  7  9  1  0
  9  3  1  0
  9  4  1  0
  1 10  1  0
  3 11  1  0
  4 12  1  0
  5 13  1  0
  5 14  1  0
  6 15  1  0
  6 16  1  0
  7 17  1  0
  8 18  1  0
  8 19  1  0
  8 20  1  0
  9 21  1  0
M  END
