
     RDKit          3D

 21 22  0  0  0  0  0  0  0  0999 V2000
    3.2047    1.5461    0.4468 C   0  0  0  0  0  0  0  0  0  0  0  0
    2.1912    0.9285    0.6580 C   0  0  0  0  0  0  0  0  0  0  0  0
    0.9497    0.1937    0.9166 C   0  0  0  0  0  0  0  0  0  0  0  0
    1.0173   -1.1816    0.2214 C   0  0  0  0  0  0  0  0  0  0  0  0
   -0.2238   -1.0794   -0.6242 C   0  0  0  0  0  0  0  0  0  0  0  0
   -0.0373    0.3157   -1.2365 C   0  0  0  0  0  0  0  0  0  0  0  0
   -0.2341    0.7592    0.2124 C   0  0  0  0  0  0  0  0  0  0  0  0
   -1.2174   -0.4182    0.2899 C   0  0  0  0  0  0  0  0  0  0  0  0
   -2.5445   -0.0694   -0.3097 C   0  0  0  0  0  0  0  0  0  0  0  0
    4.1035    2.0738    0.2580 H   0  0  0  0  0  0  0  0  0  0  0  0
    0.8378    0.0783    2.0028 H   0  0  0  0  0  0  0  0  0  0  0  0
    1.9150   -1.1821   -0.4439 H   0  0  0  0  0  0  0  0  0  0  0  0
    1.0028   -1.9871    0.9528 H   0  0  0  0  0  0  0  0  0  0  0  0
   -0.5133   -1.8680   -1.2600 H   0  0  0  0  0  0  0  0  0  0  0  0
   -0.8385    0.5802   -1.9235 H   0  0  0  0  0  0  0  0  0  0  0  0
    1.0087    0.4449   -1.6070 H   0  0  0  0  0  0  0  0  0  0  0  0
   -0.5996    1.7274    0.4044 H   0  0  0  0  0  0  0  0  0  0  0  0
   -1.2562   -0.8228    1.3246 H   0  0  0  0  0  0  0  0  0  0  0  0
   -2.5398    0.8866   -0.8401 H   0  0  0  0  0  0  0  0  0  0  0  0
   -3.3539   -0.0741    0.4714 H   0  0  0  0  0  0  0  0  0  0  0  0
   -2.8723   -0.8519   -1.0492 H   0  0  0  0  0  0  0  0  0  0  0  0
  1  2  3  0
  2  3  1  0
  3  4  1  0
  4  5  1  0
  5  6  1  0
  6  7  1  0
  7  8  1  0
  8  9  1  0
  7  3  1  0
  8  5  1  0
  1 10  1  0
  3 11  1  0
  4 12  1  0
  4 13  1  0
  5 14  1  0
  6 15  1  0
  6 16  1  0
  7 17  1  0
  8 18  1  0
  9 19  1  0
  9 20  1  0
  9 21  1  0
M  END
