
     RDKit          3D

 15 14  0  0  0  0  0  0  0  0999 V2000
    2.4946    0.0430   -1.2860 C   0  0  0  0  0  0  0  0  0  0  0  0
    1.2937   -0.7777   -1.1892 C   0  0  0  0  0  0  0  0  0  0  0  0
    0.2711   -1.4728   -1.0859 C   0  0  0  0  0  0  0  0  0  0  0  0
   -0.3949   -2.2918   -1.6619 O   0  0  0  0  0  0  0  0  0  0  0  0
   -0.5254   -1.2605    0.3735 C   0  0  0  0  0  0  0  0  0  0  0  0
    0.0852   -0.3577    1.0707 O   0  0  0  0  0  0  0  0  0  0  0  0
   -0.0131    0.9531    0.7465 C   0  0  0  0  0  0  0  0  0  0  0  0
   -1.3679    1.4521    0.7492 C   0  0  0  0  0  0  0  0  0  0  0  0
   -2.3444    0.8093    1.0921 O   0  0  0  0  0  0  0  0  0  0  0  0
    3.3736    0.6634   -1.3471 H   0  0  0  0  0  0  0  0  0  0  0  0
   -1.4741   -0.7497   -0.0962 H   0  0  0  0  0  0  0  0  0  0  0  0
   -0.8674   -2.2181    0.6403 H   0  0  0  0  0  0  0  0  0  0  0  0
    0.5135    1.4569    1.6909 H   0  0  0  0  0  0  0  0  0  0  0  0
    0.5561    1.2445   -0.1182 H   0  0  0  0  0  0  0  0  0  0  0  0
   -1.6006    2.5058    0.4213 H   0  0  0  0  0  0  0  0  0  0  0  0
  1  2  3  0
  2  3  1  0
  3  4  2  0
  3  5  1  0
  5  6  1  0
  6  7  1  0
  7  8  1  0
  8  9  2  0
  1 10  1  0
  5 11  1  0
  5 12  1  0
  7 13  1  0
  7 14  1  0
  8 15  1  0
M  END
