
     RDKit          3D

 16 16  0  0  0  0  0  0  0  0999 V2000
    2.9998   -1.1857    1.2747 C   0  0  0  0  0  0  0  0  0  0  0  0
    1.8768   -0.8350    0.8738 C   0  0  0  0  0  0  0  0  0  0  0  0
    0.5883   -0.4116    0.4203 C   0  0  0  0  0  0  0  0  0  0  0  0
   -0.3355   -1.2368   -0.0469 C   0  0  0  0  0  0  0  0  0  0  0  0
   -1.5549   -0.5078   -0.4351 C   0  0  0  0  0  0  0  0  0  0  0  0
   -1.1067    0.9203   -0.4953 C   0  0  0  0  0  0  0  0  0  0  0  0
   -0.8290    1.3424   -1.7950 O   0  0  0  0  0  0  0  0  0  0  0  0
    0.0890    0.9706    0.4073 C   0  0  0  0  0  0  0  0  0  0  0  0
    3.9441   -1.4722    1.5938 H   0  0  0  0  0  0  0  0  0  0  0  0
   -0.2245   -2.3268   -0.1354 H   0  0  0  0  0  0  0  0  0  0  0  0
   -1.8920   -0.8317   -1.4734 H   0  0  0  0  0  0  0  0  0  0  0  0
   -2.3941   -0.6601    0.2852 H   0  0  0  0  0  0  0  0  0  0  0  0
   -1.9529    1.5176   -0.0570 H   0  0  0  0  0  0  0  0  0  0  0  0
    0.0777    1.7482   -1.7717 H   0  0  0  0  0  0  0  0  0  0  0  0
    0.8709    1.6181   -0.0703 H   0  0  0  0  0  0  0  0  0  0  0  0
   -0.1570    1.3505    1.4249 H   0  0  0  0  0  0  0  0  0  0  0  0
  1  2  3  0
  2  3  1  0
  3  4  2  0
  4  5  1  0
  5  6  1  0
  6  7  1  0
  6  8  1  0
  8  3  1  0
  1  9  1  0
  4 10  1  0
  5 11  1  0
  5 12  1  0
  6 13  1  0
  7 14  1  0
  8 15  1  0
  8 16  1  0
M  END
