
     RDKit          3D

 19 21  0  0  0  0  0  0  0  0999 V2000
    3.4876   -0.7283    0.4410 C   0  0  0  0  0  0  0  0  0  0  0  0
    2.2899   -0.7703    0.3694 C   0  0  0  0  0  0  0  0  0  0  0  0
    0.8547   -0.8165    0.2895 C   0  0  0  0  0  0  0  0  0  0  0  0
    0.2064   -1.6391   -0.7613 C   0  0  0  0  0  0  0  0  0  0  0  0
    0.1406   -0.1463   -0.8813 C   0  0  0  0  0  0  0  0  0  0  0  0
   -0.7277    0.5484    0.0725 C   0  0  0  0  0  0  0  0  0  0  0  0
   -1.3076    1.8602   -0.0305 C   0  0  0  0  0  0  0  0  0  0  0  0
   -2.1753    0.5900   -0.0505 C   0  0  0  0  0  0  0  0  0  0  0  0
    0.0061   -0.0006    1.2471 C   0  0  0  0  0  0  0  0  0  0  0  0
    4.5475   -0.7097    0.5044 H   0  0  0  0  0  0  0  0  0  0  0  0
   -0.7817   -2.1196   -0.5837 H   0  0  0  0  0  0  0  0  0  0  0  0
    0.8711   -2.2287   -1.3898 H   0  0  0  0  0  0  0  0  0  0  0  0
    0.7599    0.3761   -1.6335 H   0  0  0  0  0  0  0  0  0  0  0  0
   -1.2727    2.4637   -0.9380 H   0  0  0  0  0  0  0  0  0  0  0  0
   -1.4124    2.4559    0.9154 H   0  0  0  0  0  0  0  0  0  0  0  0
   -2.7737    0.3731    0.8547 H   0  0  0  0  0  0  0  0  0  0  0  0
   -2.7164    0.4291   -1.0026 H   0  0  0  0  0  0  0  0  0  0  0  0
    0.6228    0.7275    1.8204 H   0  0  0  0  0  0  0  0  0  0  0  0
   -0.6191   -0.6649    1.8520 H   0  0  0  0  0  0  0  0  0  0  0  0
  1  2  3  0
  2  3  1  0
  3  4  1  0
  4  5  1  0
  5  6  1  0
  6  7  1  0
  7  8  1  0
  6  9  1  0
  5  3  1  0
  8  6  1  0
  9  3  1  0
  1 10  1  0
  4 11  1  0
  4 12  1  0
  5 13  1  0
  7 14  1  0
  7 15  1  0
  8 16  1  0
  8 17  1  0
  9 18  1  0
  9 19  1  0
M  END
