
     RDKit          3D

 21 20  0  0  0  0  0  0  0  0999 V2000
   -0.8406    2.4865   -1.1609 C   0  0  0  0  0  0  0  0  0  0  0  0
   -0.9263    1.7280   -0.2037 C   0  0  0  0  0  0  0  0  0  0  0  0
   -1.0110    0.8063    0.9304 C   0  0  0  0  0  0  0  0  0  0  0  0
   -0.2828   -0.4908    0.6654 C   0  0  0  0  0  0  0  0  0  0  0  0
    1.1306   -0.1893    0.4115 C   0  0  0  0  0  0  0  0  0  0  0  0
    2.2980    0.0567    0.2231 C   0  0  0  0  0  0  0  0  0  0  0  0
    3.7326    0.3468   -0.0005 C   0  0  0  0  0  0  0  0  0  0  0  0
   -0.8955   -1.1867   -0.5319 C   0  0  0  0  0  0  0  0  0  0  0  0
   -2.3491   -1.4547   -0.2007 C   0  0  0  0  0  0  0  0  0  0  0  0
   -0.7804    3.1528   -1.9827 H   0  0  0  0  0  0  0  0  0  0  0  0
   -0.5076    1.2874    1.8133 H   0  0  0  0  0  0  0  0  0  0  0  0
   -2.0681    0.5826    1.1926 H   0  0  0  0  0  0  0  0  0  0  0  0
   -0.4178   -1.1200    1.5693 H   0  0  0  0  0  0  0  0  0  0  0  0
    4.2242    0.6949    0.9345 H   0  0  0  0  0  0  0  0  0  0  0  0
    4.2023   -0.6224   -0.2503 H   0  0  0  0  0  0  0  0  0  0  0  0
    3.8758    1.1220   -0.7613 H   0  0  0  0  0  0  0  0  0  0  0  0
   -0.3792   -2.1325   -0.7715 H   0  0  0  0  0  0  0  0  0  0  0  0
   -0.8437   -0.4827   -1.3804 H   0  0  0  0  0  0  0  0  0  0  0  0
   -2.9584   -0.5438   -0.4676 H   0  0  0  0  0  0  0  0  0  0  0  0
   -2.4812   -1.7608    0.8364 H   0  0  0  0  0  0  0  0  0  0  0  0
   -2.7219   -2.2800   -0.8650 H   0  0  0  0  0  0  0  0  0  0  0  0
  1  2  3  0
  2  3  1  0
  3  4  1  0
  4  5  1  0
  5  6  3  0
  6  7  1  0
  4  8  1  0
  8  9  1  0
  1 10  1  0
  3 11  1  0
  3 12  1  0
  4 13  1  0
  7 14  1  0
  7 15  1  0
  7 16  1  0
  8 17  1  0
  8 18  1  0
  9 19  1  0
  9 20  1  0
  9 21  1  0
M  END
