
     RDKit          3D

 13 14  0  0  0  0  0  0  0  0999 V2000
    2.1935   -1.4983    1.3040 C   0  0  0  0  0  0  0  0  0  0  0  0
    1.3508   -1.0608    0.5604 C   0  0  0  0  0  0  0  0  0  0  0  0
    0.3388   -0.5067   -0.3422 C   0  0  0  0  0  0  0  0  0  0  0  0
    0.7210   -0.0379   -1.5744 O   0  0  0  0  0  0  0  0  0  0  0  0
    0.4557    0.9448   -0.6589 C   0  0  0  0  0  0  0  0  0  0  0  0
   -0.8872    1.4781   -0.4439 C   0  0  0  0  0  0  0  0  0  0  0  0
   -1.7533    0.5319   -0.1177 C   0  0  0  0  0  0  0  0  0  0  0  0
   -1.0911   -0.7647   -0.0736 C   0  0  0  0  0  0  0  0  0  0  0  0
   -1.6173   -1.8859    0.1474 O   0  0  0  0  0  0  0  0  0  0  0  0
    2.9443   -1.9068    1.9619 H   0  0  0  0  0  0  0  0  0  0  0  0
    1.3397    1.5281   -0.3268 H   0  0  0  0  0  0  0  0  0  0  0  0
   -1.1695    2.5191   -0.5336 H   0  0  0  0  0  0  0  0  0  0  0  0
   -2.8254    0.6592    0.0973 H   0  0  0  0  0  0  0  0  0  0  0  0
  1  2  3  0
  2  3  1  0
  3  4  1  0
  4  5  1  0
  5  6  1  0
  6  7  2  0
  7  8  1  0
  8  9  2  0
  5  3  1  0
  8  3  1  0
  1 10  1  0
  5 11  1  0
  6 12  1  0
  7 13  1  0
M  END
