
     RDKit          3D

 21 22  0  0  0  0  0  0  0  0999 V2000
    3.4856    0.1141   -0.2074 C   0  0  0  0  0  0  0  0  0  0  0  0
    2.3036   -0.0579   -0.1729 C   0  0  0  0  0  0  0  0  0  0  0  0
    0.9879   -0.2439   -0.1120 C   0  0  0  0  0  0  0  0  0  0  0  0
    0.2162   -1.2799   -0.8974 C   0  0  0  0  0  0  0  0  0  0  0  0
   -0.8389   -0.5149   -0.1194 C   0  0  0  0  0  0  0  0  0  0  0  0
   -2.1748   -0.7289   -0.0644 C   0  0  0  0  0  0  0  0  0  0  0  0
    0.1584   -0.6073    1.0481 C   0  0  0  0  0  0  0  0  0  0  0  0
   -0.0758    0.7265   -0.5106 C   0  0  0  0  0  0  0  0  0  0  0  0
   -0.2781    1.9111    0.3866 C   0  0  0  0  0  0  0  0  0  0  0  0
    4.5561    0.2839   -0.2257 H   0  0  0  0  0  0  0  0  0  0  0  0
    0.1974   -1.1595   -1.9812 H   0  0  0  0  0  0  0  0  0  0  0  0
    0.3513   -2.3017   -0.5145 H   0  0  0  0  0  0  0  0  0  0  0  0
   -2.5362   -1.6696   -0.5819 H   0  0  0  0  0  0  0  0  0  0  0  0
   -2.8224    0.0738   -0.5295 H   0  0  0  0  0  0  0  0  0  0  0  0
   -2.6148   -0.8331    0.9732 H   0  0  0  0  0  0  0  0  0  0  0  0
   -0.0423    0.1326    1.8215 H   0  0  0  0  0  0  0  0  0  0  0  0
    0.3401   -1.6470    1.3867 H   0  0  0  0  0  0  0  0  0  0  0  0
   -0.1473    1.0018   -1.5624 H   0  0  0  0  0  0  0  0  0  0  0  0
    0.5072    2.0562    1.1294 H   0  0  0  0  0  0  0  0  0  0  0  0
   -0.3254    2.8707   -0.2065 H   0  0  0  0  0  0  0  0  0  0  0  0
   -1.2480    1.8731    0.9403 H   0  0  0  0  0  0  0  0  0  0  0  0
  1  2  3  0
  2  3  1  0
  3  4  1  0
  4  5  1  0
  5  6  1  0
  5  7  1  0
  5  8  1  0
  8  9  1  0
  7  3  1  0
  8  3  1  0
  1 10  1  0
  4 11  1  0
  4 12  1  0
  6 13  1  0
  6 14  1  0
  6 15  1  0
  7 16  1  0
  7 17  1  0
  8 18  1  0
  9 19  1  0
  9 20  1  0
  9 21  1  0
M  END
