
     RDKit          3D

 14 13  0  0  0  0  0  0  0  0999 V2000
   -2.0517   -2.1118   -0.8671 C   0  0  0  0  0  0  0  0  0  0  0  0
   -1.6625   -1.0573   -0.4127 C   0  0  0  0  0  0  0  0  0  0  0  0
   -1.2055    0.2280    0.1174 C   0  0  0  0  0  0  0  0  0  0  0  0
   -1.4627    1.2329   -0.9185 C   0  0  0  0  0  0  0  0  0  0  0  0
   -1.6956    2.0672   -1.7760 C   0  0  0  0  0  0  0  0  0  0  0  0
    0.2306    0.0974    0.3901 C   0  0  0  0  0  0  0  0  0  0  0  0
    1.4114   -0.0270    0.6021 C   0  0  0  0  0  0  0  0  0  0  0  0
    2.8434   -0.1617    0.8423 C   0  0  0  0  0  0  0  0  0  0  0  0
   -2.4115   -3.0386   -1.2664 H   0  0  0  0  0  0  0  0  0  0  0  0
   -1.7586    0.4940    1.0541 H   0  0  0  0  0  0  0  0  0  0  0  0
   -1.8829    2.8017   -2.5166 H   0  0  0  0  0  0  0  0  0  0  0  0
    3.3479   -0.0411   -0.1393 H   0  0  0  0  0  0  0  0  0  0  0  0
    3.1263   -1.1245    1.2949 H   0  0  0  0  0  0  0  0  0  0  0  0
    3.1712    0.6407    1.5364 H   0  0  0  0  0  0  0  0  0  0  0  0
  1  2  3  0
  2  3  1  0
  3  4  1  0
  4  5  3  0
  3  6  1  0
  6  7  3  0
  7  8  1  0
  1  9  1  0
  3 10  1  0
  5 11  1  0
  8 12  1  0
  8 13  1  0
  8 14  1  0
M  END
