
     RDKit          3D

 17 17  0  0  0  0  0  0  0  0999 V2000
    2.7023   -1.7059   -1.0804 C   0  0  0  0  0  0  0  0  0  0  0  0
    1.8544   -1.0727   -0.5091 C   0  0  0  0  0  0  0  0  0  0  0  0
    0.8395   -0.3197    0.1538 C   0  0  0  0  0  0  0  0  0  0  0  0
    0.5474   -0.1356    1.4087 C   0  0  0  0  0  0  0  0  0  0  0  0
   -0.5953    0.7570    1.5728 C   0  0  0  0  0  0  0  0  0  0  0  0
   -1.4284    0.9233    2.4517 O   0  0  0  0  0  0  0  0  0  0  0  0
   -0.5629    1.5606    0.2820 C   0  0  0  0  0  0  0  0  0  0  0  0
   -0.2075    0.4473   -0.6671 C   0  0  0  0  0  0  0  0  0  0  0  0
   -1.4159   -0.4647   -0.7706 C   0  0  0  0  0  0  0  0  0  0  0  0
    3.4832   -2.3134   -1.6148 H   0  0  0  0  0  0  0  0  0  0  0  0
    1.0885   -0.5970    2.2293 H   0  0  0  0  0  0  0  0  0  0  0  0
    0.2536    2.2816    0.3939 H   0  0  0  0  0  0  0  0  0  0  0  0
   -1.5581    1.9996    0.0658 H   0  0  0  0  0  0  0  0  0  0  0  0
    0.2201    0.7578   -1.6140 H   0  0  0  0  0  0  0  0  0  0  0  0
   -1.2933   -1.2566   -1.5586 H   0  0  0  0  0  0  0  0  0  0  0  0
   -2.3446    0.1132   -0.9460 H   0  0  0  0  0  0  0  0  0  0  0  0
   -1.5830   -0.9747    0.2027 H   0  0  0  0  0  0  0  0  0  0  0  0
  1  2  3  0
  2  3  1  0
  3  4  2  0
  4  5  1  0
  5  6  2  0
  5  7  1  0
  7  8  1  0
  8  9  1  0
  8  3  1  0
  1 10  1  0
  4 11  1  0
  7 12  1  0
  7 13  1  0
  8 14  1  0
  9 15  1  0
  9 16  1  0
  9 17  1  0
M  END
