
     RDKit          3D

 15 16  0  0  0  0  0  0  0  0999 V2000
    2.5028    1.4638    0.0136 C   0  0  0  0  0  0  0  0  0  0  0  0
    1.4469    0.8889    0.0394 C   0  0  0  0  0  0  0  0  0  0  0  0
    0.2167    0.2463    0.0737 C   0  0  0  0  0  0  0  0  0  0  0  0
   -0.4287   -0.1328    1.3704 C   0  0  0  0  0  0  0  0  0  0  0  0
   -1.6196   -0.7204    0.8659 O   0  0  0  0  0  0  0  0  0  0  0  0
   -1.4230   -0.6893   -0.4882 C   0  0  0  0  0  0  0  0  0  0  0  0
    0.0527   -1.0711   -0.6990 C   0  0  0  0  0  0  0  0  0  0  0  0
   -0.9253    0.7216   -0.7195 C   0  0  0  0  0  0  0  0  0  0  0  0
   -1.3818    1.6672   -1.3059 O   0  0  0  0  0  0  0  0  0  0  0  0
    3.4499    1.9772    0.0091 H   0  0  0  0  0  0  0  0  0  0  0  0
    0.1521   -0.9792    1.8003 H   0  0  0  0  0  0  0  0  0  0  0  0
   -0.6253    0.6818    2.0527 H   0  0  0  0  0  0  0  0  0  0  0  0
   -2.1306   -1.0764   -1.1734 H   0  0  0  0  0  0  0  0  0  0  0  0
    0.3495   -1.9495   -0.1017 H   0  0  0  0  0  0  0  0  0  0  0  0
    0.3635   -1.0283   -1.7374 H   0  0  0  0  0  0  0  0  0  0  0  0
  1  2  3  0
  2  3  1  0
  3  4  1  0
  4  5  1  0
  5  6  1  0
  6  7  1  0
  6  8  1  0
  8  9  2  0
  7  3  1  0
  8  3  1  0
  1 10  1  0
  4 11  1  0
  4 12  1  0
  6 13  1  0
  7 14  1  0
  7 15  1  0
M  END
