
     RDKit          3D

 19 19  0  0  0  0  0  0  0  0999 V2000
   -2.1275   -2.5176   -0.7334 C   0  0  0  0  0  0  0  0  0  0  0  0
   -1.4474   -1.7429   -0.1090 C   0  0  0  0  0  0  0  0  0  0  0  0
   -0.6031   -0.7898    0.6509 C   0  0  0  0  0  0  0  0  0  0  0  0
   -0.8545    0.6311    0.4258 C   0  0  0  0  0  0  0  0  0  0  0  0
   -1.8808    1.1254   -0.5623 C   0  0  0  0  0  0  0  0  0  0  0  0
    0.3817    0.0543   -0.1658 C   0  0  0  0  0  0  0  0  0  0  0  0
    1.6885    0.3711    0.4688 C   0  0  0  0  0  0  0  0  0  0  0  0
    2.9167    0.3618   -0.3271 C   0  0  0  0  0  0  0  0  0  0  0  0
    1.7312    0.6382    1.6537 O   0  0  0  0  0  0  0  0  0  0  0  0
   -2.7120   -3.2061   -1.2930 H   0  0  0  0  0  0  0  0  0  0  0  0
   -0.2446   -1.1373    1.6242 H   0  0  0  0  0  0  0  0  0  0  0  0
   -0.6983    1.3180    1.2844 H   0  0  0  0  0  0  0  0  0  0  0  0
   -2.8062    1.5051   -0.0655 H   0  0  0  0  0  0  0  0  0  0  0  0
   -2.0934    0.3801   -1.3514 H   0  0  0  0  0  0  0  0  0  0  0  0
   -1.4340    2.0039   -1.0861 H   0  0  0  0  0  0  0  0  0  0  0  0
    0.4009   -0.1824   -1.2510 H   0  0  0  0  0  0  0  0  0  0  0  0
    3.7447   -0.0104    0.3159 H   0  0  0  0  0  0  0  0  0  0  0  0
    3.1965    1.4282   -0.5685 H   0  0  0  0  0  0  0  0  0  0  0  0
    2.8417   -0.2306   -1.2551 H   0  0  0  0  0  0  0  0  0  0  0  0
  1  2  3  0
  2  3  1  0
  3  4  1  0
  4  5  1  0
  4  6  1  0
  6  7  1  0
  7  8  1  0
  7  9  2  0
  6  3  1  0
  1 10  1  0
  3 11  1  0
  4 12  1  0
  5 13  1  0
  5 14  1  0
  5 15  1  0
  6 16  1  0
  8 17  1  0
  8 18  1  0
  8 19  1  0
M  END
