
     RDKit          3D

 19 19  0  0  0  0  0  0  0  0999 V2000
    1.2686    3.1316    0.8904 C   0  0  0  0  0  0  0  0  0  0  0  0
    1.3501    1.8527    0.7082 C   0  0  0  0  0  0  0  0  0  0  0  0
    1.4081    0.6530    0.5427 C   0  0  0  0  0  0  0  0  0  0  0  0
    0.4643   -0.0712   -0.4785 C   0  0  0  0  0  0  0  0  0  0  0  0
    0.8453   -1.5701   -0.4358 C   0  0  0  0  0  0  0  0  0  0  0  0
   -0.6530   -1.8275   -0.6833 C   0  0  0  0  0  0  0  0  0  0  0  0
   -0.8267   -0.5085    0.1460 C   0  0  0  0  0  0  0  0  0  0  0  0
   -2.0180    0.1761   -0.1648 C   0  0  0  0  0  0  0  0  0  0  0  0
   -3.1643    0.8489   -0.4852 C   0  0  0  0  0  0  0  0  0  0  0  0
    1.2144    4.2564    1.0419 H   0  0  0  0  0  0  0  0  0  0  0  0
    2.4716    0.2362    0.1962 H   0  0  0  0  0  0  0  0  0  0  0  0
    1.1942   -0.0459    1.4857 H   0  0  0  0  0  0  0  0  0  0  0  0
    0.4564    0.3408   -1.4792 H   0  0  0  0  0  0  0  0  0  0  0  0
    1.1084   -1.9071    0.5321 H   0  0  0  0  0  0  0  0  0  0  0  0
    1.5034   -1.8037   -1.2529 H   0  0  0  0  0  0  0  0  0  0  0  0
   -0.8862   -1.5902   -1.7642 H   0  0  0  0  0  0  0  0  0  0  0  0
   -1.1013   -2.6576   -0.1885 H   0  0  0  0  0  0  0  0  0  0  0  0
   -0.6871   -0.8184    1.2012 H   0  0  0  0  0  0  0  0  0  0  0  0
   -3.9481    1.3045   -0.7200 H   0  0  0  0  0  0  0  0  0  0  0  0
  1  2  3  0
  2  3  1  0
  3  4  1  0
  4  5  1  0
  5  6  1  0
  6  7  1  0
  7  8  1  0
  8  9  3  0
  7  4  1  0
  1 10  1  0
  3 11  1  0
  3 12  1  0
  4 13  1  0
  5 14  1  0
  5 15  1  0
  6 16  1  0
  6 17  1  0
  7 18  1  0
  9 19  1  0
M  END
