
     RDKit          3D

 19 19  0  0  0  0  0  0  0  0999 V2000
   -0.7277    3.2131   -0.6850 C   0  0  0  0  0  0  0  0  0  0  0  0
   -0.5886    2.0172   -0.6777 C   0  0  0  0  0  0  0  0  0  0  0  0
   -0.4178    0.5394   -0.6620 C   0  0  0  0  0  0  0  0  0  0  0  0
   -1.4051   -0.1088    0.1870 C   0  0  0  0  0  0  0  0  0  0  0  0
   -1.4964   -1.5759    0.3450 C   0  0  0  0  0  0  0  0  0  0  0  0
   -2.2066    0.5637    0.8086 O   0  0  0  0  0  0  0  0  0  0  0  0
    1.0157    0.2854   -0.3682 C   0  0  0  0  0  0  0  0  0  0  0  0
    1.6278   -1.0355   -0.2508 C   0  0  0  0  0  0  0  0  0  0  0  0
    1.4896   -0.1267    0.9928 C   0  0  0  0  0  0  0  0  0  0  0  0
   -0.8414    4.2652   -0.6911 H   0  0  0  0  0  0  0  0  0  0  0  0
   -0.5856    0.2227   -1.7352 H   0  0  0  0  0  0  0  0  0  0  0  0
   -1.2087   -2.1303   -0.5681 H   0  0  0  0  0  0  0  0  0  0  0  0
   -2.5353   -1.9176    0.5606 H   0  0  0  0  0  0  0  0  0  0  0  0
   -0.8907   -1.9683    1.1815 H   0  0  0  0  0  0  0  0  0  0  0  0
    1.6906    1.0597   -0.8539 H   0  0  0  0  0  0  0  0  0  0  0  0
    1.1279   -1.9869   -0.1044 H   0  0  0  0  0  0  0  0  0  0  0  0
    2.6806   -1.1812   -0.6346 H   0  0  0  0  0  0  0  0  0  0  0  0
    2.4718    0.2746    1.3658 H   0  0  0  0  0  0  0  0  0  0  0  0
    0.7997   -0.4099    1.7897 H   0  0  0  0  0  0  0  0  0  0  0  0
  1  2  3  0
  2  3  1  0
  3  4  1  0
  4  5  1  0
  4  6  2  0
  3  7  1  0
  7  8  1  0
  8  9  1  0
  9  7  1  0
  1 10  1  0
  3 11  1  0
  5 12  1  0
  5 13  1  0
  5 14  1  0
  7 15  1  0
  8 16  1  0
  8 17  1  0
  9 18  1  0
  9 19  1  0
M  END
