
     RDKit          3D

 13 12  0  0  0  0  0  0  0  0999 V2000
    3.2043    2.1416    0.2748 C   0  0  0  0  0  0  0  0  0  0  0  0
    2.2651    1.5031    0.4164 C   0  0  0  0  0  0  0  0  0  0  0  0
    0.9765    0.6319    0.5839 C   0  0  0  0  0  0  0  0  0  0  0  0
    0.1841    0.0911    0.6830 C   0  0  0  0  0  0  0  0  0  0  0  0
   -1.0272   -0.7256    0.8585 C   0  0  0  0  0  0  0  0  0  0  0  0
   -1.6847   -1.3384    1.4842 O   0  0  0  0  0  0  0  0  0  0  0  0
   -1.7175   -0.6146   -0.8815 C   0  0  0  0  0  0  0  0  0  0  0  0
   -1.4275   -0.7872   -1.1267 C   0  0  0  0  0  0  0  0  0  0  0  0
   -0.1787   -1.5599   -2.1887 C   0  0  0  0  0  0  0  0  0  0  0  0
    4.1051    2.7675    0.1489 H   0  0  0  0  0  0  0  0  0  0  0  0
   -2.9663   -0.8613   -0.1970 H   0  0  0  0  0  0  0  0  0  0  0  0
   -2.1526    0.6695   -0.4253 H   0  0  0  0  0  0  0  0  0  0  0  0
    0.4193   -1.9178   -2.7041 H   0  0  0  0  0  0  0  0  0  0  0  0
  1  2  3  0
  2  3  1  0
  3  4  3  0
  4  5  1  0
  5  6  2  0
  5  7  1  0
  7  8  1  0
  8  9  3  0
  1 10  1  0
  7 11  1  0
  7 12  1  0
  9 13  1  0
M  END
