
     RDKit          3D

 19 19  0  0  0  0  0  0  0  0999 V2000
   -0.5494    2.7684    0.0580 C   0  0  0  0  0  0  0  0  0  0  0  0
   -0.5398    1.5745   -0.0787 C   0  0  0  0  0  0  0  0  0  0  0  0
   -0.5049    0.1373   -0.2344 C   0  0  0  0  0  0  0  0  0  0  0  0
    0.7067   -0.3699   -0.9792 C   0  0  0  0  0  0  0  0  0  0  0  0
    1.9845    0.2306   -0.4931 C   0  0  0  0  0  0  0  0  0  0  0  0
    0.7729   -1.7485   -0.8137 O   0  0  0  0  0  0  0  0  0  0  0  0
   -0.7158   -0.5392    1.1028 C   0  0  0  0  0  0  0  0  0  0  0  0
   -2.0725   -0.8571    0.5438 C   0  0  0  0  0  0  0  0  0  0  0  0
   -1.6686   -0.4450   -0.7282 O   0  0  0  0  0  0  0  0  0  0  0  0
   -0.5403    3.8319    0.1861 H   0  0  0  0  0  0  0  0  0  0  0  0
    0.6090   -0.1495   -2.0736 H   0  0  0  0  0  0  0  0  0  0  0  0
    1.9197    0.5053    0.5855 H   0  0  0  0  0  0  0  0  0  0  0  0
    2.7874   -0.5311   -0.5769 H   0  0  0  0  0  0  0  0  0  0  0  0
    2.3099    1.0889   -1.1203 H   0  0  0  0  0  0  0  0  0  0  0  0
    1.4186   -2.0253   -0.1110 H   0  0  0  0  0  0  0  0  0  0  0  0
   -0.0197   -1.3991    1.2090 H   0  0  0  0  0  0  0  0  0  0  0  0
   -0.7155    0.1540    1.9794 H   0  0  0  0  0  0  0  0  0  0  0  0
   -2.9038   -0.2728    0.9572 H   0  0  0  0  0  0  0  0  0  0  0  0
   -2.2785   -1.9531    0.5874 H   0  0  0  0  0  0  0  0  0  0  0  0
  1  2  3  0
  2  3  1  0
  3  4  1  0
  4  5  1  0
  4  6  1  0
  3  7  1  0
  7  8  1  0
  8  9  1  0
  9  3  1  0
  1 10  1  0
  4 11  1  0
  5 12  1  0
  5 13  1  0
  5 14  1  0
  6 15  1  0
  7 16  1  0
  7 17  1  0
  8 18  1  0
  8 19  1  0
M  END
