
     RDKit          3D

 19 19  0  0  0  0  0  0  0  0999 V2000
    3.0073    1.6567   -0.0389 C   0  0  0  0  0  0  0  0  0  0  0  0
    2.8432    0.4599   -0.0739 C   0  0  0  0  0  0  0  0  0  0  0  0
    2.6208   -1.0022   -0.1285 C   0  0  0  0  0  0  0  0  0  0  0  0
    1.3746   -1.2568    0.4892 O   0  0  0  0  0  0  0  0  0  0  0  0
    0.4335   -0.5531   -0.2502 C   0  0  0  0  0  0  0  0  0  0  0  0
   -0.9648   -0.7149    0.2763 C   0  0  0  0  0  0  0  0  0  0  0  0
   -1.2809   -0.3286    1.5544 O   0  0  0  0  0  0  0  0  0  0  0  0
   -1.7510    0.4888    0.5277 C   0  0  0  0  0  0  0  0  0  0  0  0
   -3.1899    0.4647    0.1395 C   0  0  0  0  0  0  0  0  0  0  0  0
    3.1512    2.7064    0.0034 H   0  0  0  0  0  0  0  0  0  0  0  0
    3.4371   -1.4668    0.4297 H   0  0  0  0  0  0  0  0  0  0  0  0
    2.6158   -1.3628   -1.1802 H   0  0  0  0  0  0  0  0  0  0  0  0
    0.4855   -0.9430   -1.2863 H   0  0  0  0  0  0  0  0  0  0  0  0
    0.6865    0.5239   -0.2801 H   0  0  0  0  0  0  0  0  0  0  0  0
   -1.4811   -1.6191   -0.0644 H   0  0  0  0  0  0  0  0  0  0  0  0
   -1.2984    1.5020    0.5584 H   0  0  0  0  0  0  0  0  0  0  0  0
   -3.8792    0.4071    1.0074 H   0  0  0  0  0  0  0  0  0  0  0  0
   -3.3538   -0.3598   -0.5807 H   0  0  0  0  0  0  0  0  0  0  0  0
   -3.4563    1.3976   -0.3990 H   0  0  0  0  0  0  0  0  0  0  0  0
  1  2  3  0
  2  3  1  0
  3  4  1  0
  4  5  1  0
  5  6  1  0
  6  7  1  0
  7  8  1  0
  8  9  1  0
  8  6  1  0
  1 10  1  0
  3 11  1  0
  3 12  1  0
  5 13  1  0
  5 14  1  0
  6 15  1  0
  8 16  1  0
  9 17  1  0
  9 18  1  0
  9 19  1  0
M  END
