
     RDKit          3D

 15 17  0  0  0  0  0  0  0  0999 V2000
    3.2174   -0.9857    0.0497 C   0  0  0  0  0  0  0  0  0  0  0  0
    2.2442   -0.3010    0.2117 C   0  0  0  0  0  0  0  0  0  0  0  0
    1.0807    0.5338    0.3851 C   0  0  0  0  0  0  0  0  0  0  0  0
    0.5805    0.8119    1.6388 O   0  0  0  0  0  0  0  0  0  0  0  0
   -0.1518   -0.1598    0.9920 C   0  0  0  0  0  0  0  0  0  0  0  0
   -0.8386    0.1101   -0.3046 C   0  0  0  0  0  0  0  0  0  0  0  0
   -2.3043    0.1478   -0.4468 C   0  0  0  0  0  0  0  0  0  0  0  0
   -0.1748   -0.3490   -1.4988 O   0  0  0  0  0  0  0  0  0  0  0  0
    0.1899    0.8055   -0.8372 C   0  0  0  0  0  0  0  0  0  0  0  0
    4.0827   -1.5784   -0.0800 H   0  0  0  0  0  0  0  0  0  0  0  0
   -0.0299   -1.1930    1.3598 H   0  0  0  0  0  0  0  0  0  0  0  0
   -2.8694    0.1645    0.4981 H   0  0  0  0  0  0  0  0  0  0  0  0
   -2.6628    1.0083   -1.0695 H   0  0  0  0  0  0  0  0  0  0  0  0
   -2.6612   -0.7772   -0.9884 H   0  0  0  0  0  0  0  0  0  0  0  0
    0.2974    1.7625   -1.3528 H   0  0  0  0  0  0  0  0  0  0  0  0
  1  2  3  0
  2  3  1  0
  3  4  1  0
  4  5  1  0
  5  6  1  0
  6  7  1  0
  6  8  1  0
  8  9  1  0
  5  3  1  0
  9  6  1  0
  9  3  1  0
  1 10  1  0
  5 11  1  0
  7 12  1  0
  7 13  1  0
  7 14  1  0
  9 15  1  0
M  END
