
     RDKit          3D

 21 21  0  0  0  0  0  0  0  0999 V2000
   -1.5259    2.7067    0.5393 C   0  0  0  0  0  0  0  0  0  0  0  0
   -1.1640    1.7591   -0.1074 C   0  0  0  0  0  0  0  0  0  0  0  0
   -0.7041    0.6114   -0.8811 C   0  0  0  0  0  0  0  0  0  0  0  0
   -1.5618   -0.5771   -0.6260 C   0  0  0  0  0  0  0  0  0  0  0  0
   -1.5984   -1.0265    0.7982 C   0  0  0  0  0  0  0  0  0  0  0  0
    0.7701    0.3717   -0.6919 C   0  0  0  0  0  0  0  0  0  0  0  0
    1.3070   -0.7421   -1.4207 O   0  0  0  0  0  0  0  0  0  0  0  0
    1.3804   -0.6465    0.0693 C   0  0  0  0  0  0  0  0  0  0  0  0
    2.8162   -0.4189    0.5561 C   0  0  0  0  0  0  0  0  0  0  0  0
   -1.8490    3.5671    1.1040 H   0  0  0  0  0  0  0  0  0  0  0  0
   -0.8604    0.8962   -1.9626 H   0  0  0  0  0  0  0  0  0  0  0  0
   -1.2326   -1.4072   -1.3163 H   0  0  0  0  0  0  0  0  0  0  0  0
   -2.5913   -0.3300   -0.9591 H   0  0  0  0  0  0  0  0  0  0  0  0
   -2.6505   -0.9584    1.2047 H   0  0  0  0  0  0  0  0  0  0  0  0
   -1.3638   -2.1128    0.8275 H   0  0  0  0  0  0  0  0  0  0  0  0
   -0.9244   -0.4290    1.4671 H   0  0  0  0  0  0  0  0  0  0  0  0
    1.3775    1.2878   -0.9408 H   0  0  0  0  0  0  0  0  0  0  0  0
    0.9392   -1.5547    0.4636 H   0  0  0  0  0  0  0  0  0  0  0  0
    3.3762   -1.3543    0.5445 H   0  0  0  0  0  0  0  0  0  0  0  0
    3.2858    0.2577   -0.1880 H   0  0  0  0  0  0  0  0  0  0  0  0
    2.7737    0.0998    1.5198 H   0  0  0  0  0  0  0  0  0  0  0  0
  1  2  3  0
  2  3  1  0
  3  4  1  0
  4  5  1  0
  3  6  1  0
  6  7  1  0
  7  8  1  0
  8  9  1  0
  8  6  1  0
  1 10  1  0
  3 11  1  0
  4 12  1  0
  4 13  1  0
  5 14  1  0
  5 15  1  0
  5 16  1  0
  6 17  1  0
  8 18  1  0
  9 19  1  0
  9 20  1  0
  9 21  1  0
M  END
