
     RDKit          3D

 17 16  0  0  0  0  0  0  0  0999 V2000
   -1.8632    2.5177    0.0069 C   0  0  0  0  0  0  0  0  0  0  0  0
   -1.2280    1.5000    0.1294 C   0  0  0  0  0  0  0  0  0  0  0  0
   -0.4234    0.2501    0.2789 C   0  0  0  0  0  0  0  0  0  0  0  0
   -1.3671   -0.9133    0.3051 C   0  0  0  0  0  0  0  0  0  0  0  0
    0.4887    0.2132   -0.9136 C   0  0  0  0  0  0  0  0  0  0  0  0
    1.2829   -0.9101   -0.8958 O   0  0  0  0  0  0  0  0  0  0  0  0
    2.1112   -0.9995    0.2054 C   0  0  0  0  0  0  0  0  0  0  0  0
   -2.4323    3.4050   -0.0953 H   0  0  0  0  0  0  0  0  0  0  0  0
    0.1072    0.2880    1.2535 H   0  0  0  0  0  0  0  0  0  0  0  0
   -0.7836   -1.8395    0.5290 H   0  0  0  0  0  0  0  0  0  0  0  0
   -2.1167   -0.7737    1.1012 H   0  0  0  0  0  0  0  0  0  0  0  0
   -1.8297   -1.0922   -0.6935 H   0  0  0  0  0  0  0  0  0  0  0  0
    1.0933    1.1484   -0.9304 H   0  0  0  0  0  0  0  0  0  0  0  0
   -0.1955    0.2184   -1.8140 H   0  0  0  0  0  0  0  0  0  0  0  0
    2.7932   -0.1006    0.2624 H   0  0  0  0  0  0  0  0  0  0  0  0
    2.8104   -1.8731    0.1172 H   0  0  0  0  0  0  0  0  0  0  0  0
    1.5526   -1.0388    1.1534 H   0  0  0  0  0  0  0  0  0  0  0  0
  1  2  3  0
  2  3  1  0
  3  4  1  0
  3  5  1  0
  5  6  1  0
  6  7  1  0
  1  8  1  0
  3  9  1  0
  4 10  1  0
  4 11  1  0
  4 12  1  0
  5 13  1  0
  5 14  1  0
  7 15  1  0
  7 16  1  0
  7 17  1  0
M  END
