
     RDKit          3D

 17 18  0  0  0  0  0  0  0  0999 V2000
    3.5308   -0.2183   -0.8330 C   0  0  0  0  0  0  0  0  0  0  0  0
    2.3296   -0.2159   -0.7120 C   0  0  0  0  0  0  0  0  0  0  0  0
    0.8990   -0.2233   -0.5590 C   0  0  0  0  0  0  0  0  0  0  0  0
    0.0867   -1.2144   -0.2191 C   0  0  0  0  0  0  0  0  0  0  0  0
   -1.2624   -0.7335   -0.2052 C   0  0  0  0  0  0  0  0  0  0  0  0
   -2.1081   -0.0073    0.6422 C   0  0  0  0  0  0  0  0  0  0  0  0
   -0.8885    0.6375    0.4582 C   0  0  0  0  0  0  0  0  0  0  0  0
   -0.0132    0.5531    1.5825 O   0  0  0  0  0  0  0  0  0  0  0  0
   -0.0241    0.9853   -0.7213 C   0  0  0  0  0  0  0  0  0  0  0  0
    4.5885   -0.2120   -0.9320 H   0  0  0  0  0  0  0  0  0  0  0  0
    0.4309   -2.2266    0.0077 H   0  0  0  0  0  0  0  0  0  0  0  0
   -1.6094   -0.6881   -1.2938 H   0  0  0  0  0  0  0  0  0  0  0  0
   -2.3714   -0.4804    1.6318 H   0  0  0  0  0  0  0  0  0  0  0  0
   -3.0398    0.4974    0.2577 H   0  0  0  0  0  0  0  0  0  0  0  0
   -0.5556    0.7645    2.3690 H   0  0  0  0  0  0  0  0  0  0  0  0
   -0.4999    0.8737   -1.6899 H   0  0  0  0  0  0  0  0  0  0  0  0
    0.5070    1.9083   -0.5155 H   0  0  0  0  0  0  0  0  0  0  0  0
  1  2  3  0
  2  3  1  0
  3  4  2  0
  4  5  1  0
  5  6  1  0
  6  7  1  0
  7  8  1  0
  7  9  1  0
  9  3  1  0
  7  5  1  0
  1 10  1  0
  4 11  1  0
  5 12  1  0
  6 13  1  0
  6 14  1  0
  8 15  1  0
  9 16  1  0
  9 17  1  0
M  END
