
     RDKit          3D

 17 18  0  0  0  0  0  0  0  0999 V2000
    2.5829    1.6345    1.7544 C   0  0  0  0  0  0  0  0  0  0  0  0
    1.6838    1.1339    1.1214 C   0  0  0  0  0  0  0  0  0  0  0  0
    0.5823    0.5472    0.3651 C   0  0  0  0  0  0  0  0  0  0  0  0
    0.1831    1.1383   -0.7462 C   0  0  0  0  0  0  0  0  0  0  0  0
   -0.9489    0.5193   -1.5062 C   0  0  0  0  0  0  0  0  0  0  0  0
   -1.9084    0.0074   -0.6437 O   0  0  0  0  0  0  0  0  0  0  0  0
   -1.4253   -0.9085    0.2511 C   0  0  0  0  0  0  0  0  0  0  0  0
   -0.2961   -1.8034   -0.1552 C   0  0  0  0  0  0  0  0  0  0  0  0
   -0.0892   -0.6805    0.8082 C   0  0  0  0  0  0  0  0  0  0  0  0
    3.3682    2.0639    2.3246 H   0  0  0  0  0  0  0  0  0  0  0  0
    0.6827    2.0378   -1.0633 H   0  0  0  0  0  0  0  0  0  0  0  0
   -0.6160   -0.1635   -2.2822 H   0  0  0  0  0  0  0  0  0  0  0  0
   -1.4479    1.3904   -2.0268 H   0  0  0  0  0  0  0  0  0  0  0  0
   -2.2252   -1.4343    0.8211 H   0  0  0  0  0  0  0  0  0  0  0  0
    0.1011   -1.7182   -1.1777 H   0  0  0  0  0  0  0  0  0  0  0  0
   -0.2430   -2.8359    0.2526 H   0  0  0  0  0  0  0  0  0  0  0  0
    0.0159   -0.9285    1.9027 H   0  0  0  0  0  0  0  0  0  0  0  0
  1  2  3  0
  2  3  1  0
  3  4  2  0
  4  5  1  0
  5  6  1  0
  6  7  1  0
  7  8  1  0
  8  9  1  0
  9  3  1  0
  9  7  1  0
  1 10  1  0
  4 11  1  0
  5 12  1  0
  5 13  1  0
  7 14  1  0
  8 15  1  0
  8 16  1  0
  9 17  1  0
M  END
