
     RDKit          3D

 23 22  0  0  0  0  0  0  0  0999 V2000
   -1.8580   -1.4695    1.8520 C   0  0  0  0  0  0  0  0  0  0  0  0
   -1.4856   -0.8384    0.8637 C   0  0  0  0  0  0  0  0  0  0  0  0
   -1.0702   -0.0850   -0.2973 C   0  0  0  0  0  0  0  0  0  0  0  0
   -1.9147    1.1813   -0.3185 C   0  0  0  0  0  0  0  0  0  0  0  0
    0.3768    0.1765   -0.3699 C   0  0  0  0  0  0  0  0  0  0  0  0
    1.1863   -1.0706   -0.4530 C   0  0  0  0  0  0  0  0  0  0  0  0
    1.0725   -2.0123    0.6997 C   0  0  0  0  0  0  0  0  0  0  0  0
    0.7251    1.0910   -1.3744 O   0  0  0  0  0  0  0  0  0  0  0  0
    1.3267    2.2177   -0.8778 C   0  0  0  0  0  0  0  0  0  0  0  0
   -2.1648   -2.0116    2.7083 H   0  0  0  0  0  0  0  0  0  0  0  0
   -1.4545   -0.6788   -1.1787 H   0  0  0  0  0  0  0  0  0  0  0  0
   -2.9729    0.9548   -0.5272 H   0  0  0  0  0  0  0  0  0  0  0  0
   -1.8372    1.6141    0.7013 H   0  0  0  0  0  0  0  0  0  0  0  0
   -1.5138    1.9287   -1.0139 H   0  0  0  0  0  0  0  0  0  0  0  0
    0.7227    0.6872    0.5912 H   0  0  0  0  0  0  0  0  0  0  0  0
    2.2691   -0.8235   -0.5794 H   0  0  0  0  0  0  0  0  0  0  0  0
    0.8998   -1.6888   -1.3660 H   0  0  0  0  0  0  0  0  0  0  0  0
    0.9468   -1.4974    1.6724 H   0  0  0  0  0  0  0  0  0  0  0  0
    0.2773   -2.7619    0.5547 H   0  0  0  0  0  0  0  0  0  0  0  0
    2.0264   -2.6040    0.8374 H   0  0  0  0  0  0  0  0  0  0  0  0
    1.6120    2.9545   -1.6420 H   0  0  0  0  0  0  0  0  0  0  0  0
    0.6054    2.7637   -0.2033 H   0  0  0  0  0  0  0  0  0  0  0  0
    2.2246    1.9722   -0.2794 H   0  0  0  0  0  0  0  0  0  0  0  0
  1  2  3  0
  2  3  1  0
  3  4  1  0
  3  5  1  0
  5  6  1  0
  6  7  1  0
  5  8  1  0
  8  9  1  0
  1 10  1  0
  3 11  1  0
  4 12  1  0
  4 13  1  0
  4 14  1  0
  5 15  1  0
  6 16  1  0
  6 17  1  0
  7 18  1  0
  7 19  1  0
  7 20  1  0
  9 21  1  0
  9 22  1  0
  9 23  1  0
M  END
