
     RDKit          3D

 12 13  0  0  0  0  0  0  0  0999 V2000
    2.2744    0.8803    1.1354 C   0  0  0  0  0  0  0  0  0  0  0  0
    1.4301    0.2496    0.5558 C   0  0  0  0  0  0  0  0  0  0  0  0
    0.4195   -0.5055   -0.1668 C   0  0  0  0  0  0  0  0  0  0  0  0
   -0.2719    0.2175   -1.2595 C   0  0  0  0  0  0  0  0  0  0  0  0
    0.0540    0.7162   -2.3045 O   0  0  0  0  0  0  0  0  0  0  0  0
   -1.5364    0.0583   -0.5048 C   0  0  0  0  0  0  0  0  0  0  0  0
   -1.8910   -1.2734   -0.2063 O   0  0  0  0  0  0  0  0  0  0  0  0
   -0.9123   -0.5565    0.5410 C   0  0  0  0  0  0  0  0  0  0  0  0
    3.0178    1.4303    1.6641 H   0  0  0  0  0  0  0  0  0  0  0  0
    0.7381   -1.5057   -0.5079 H   0  0  0  0  0  0  0  0  0  0  0  0
   -2.3284    0.8080   -0.5674 H   0  0  0  0  0  0  0  0  0  0  0  0
   -0.9940   -0.5192    1.6209 H   0  0  0  0  0  0  0  0  0  0  0  0
  1  2  3  0
  2  3  1  0
  3  4  1  0
  4  5  2  0
  4  6  1  0
  6  7  1  0
  7  8  1  0
  8  3  1  0
  8  6  1  0
  1  9  1  0
  3 10  1  0
  6 11  1  0
  8 12  1  0
M  END
