
     RDKit          3D

 19 19  0  0  0  0  0  0  0  0999 V2000
   -3.4096    1.2952   -0.7383 C   0  0  0  0  0  0  0  0  0  0  0  0
   -2.5253    0.5478   -0.4007 C   0  0  0  0  0  0  0  0  0  0  0  0
   -1.4474   -0.3782    0.0084 C   0  0  0  0  0  0  0  0  0  0  0  0
   -0.1344    0.2324    0.0789 C   0  0  0  0  0  0  0  0  0  0  0  0
    0.9575    0.7416    0.1212 C   0  0  0  0  0  0  0  0  0  0  0  0
    2.2714    1.3816    0.1683 C   0  0  0  0  0  0  0  0  0  0  0  0
    3.3346    0.3480   -0.1260 C   0  0  0  0  0  0  0  0  0  0  0  0
   -1.6307   -1.8150   -0.2012 C   0  0  0  0  0  0  0  0  0  0  0  0
   -1.8043   -1.2927    1.1802 C   0  0  0  0  0  0  0  0  0  0  0  0
   -4.1945    1.9487   -1.0197 H   0  0  0  0  0  0  0  0  0  0  0  0
    2.4958    1.8202    1.1475 H   0  0  0  0  0  0  0  0  0  0  0  0
    2.3507    2.1634   -0.6411 H   0  0  0  0  0  0  0  0  0  0  0  0
    3.2303   -0.0703   -1.1631 H   0  0  0  0  0  0  0  0  0  0  0  0
    3.2798   -0.4349    0.6420 H   0  0  0  0  0  0  0  0  0  0  0  0
    4.3374    0.8314   -0.1141 H   0  0  0  0  0  0  0  0  0  0  0  0
   -2.5372   -2.2104   -0.6849 H   0  0  0  0  0  0  0  0  0  0  0  0
   -0.7153   -2.3963   -0.4776 H   0  0  0  0  0  0  0  0  0  0  0  0
   -2.8314   -1.2272    1.5997 H   0  0  0  0  0  0  0  0  0  0  0  0
   -1.0273   -1.4853    1.9485 H   0  0  0  0  0  0  0  0  0  0  0  0
  1  2  3  0
  2  3  1  0
  3  4  1  0
  4  5  3  0
  5  6  1  0
  6  7  1  0
  3  8  1  0
  8  9  1  0
  9  3  1  0
  1 10  1  0
  6 11  1  0
  6 12  1  0
  7 13  1  0
  7 14  1  0
  7 15  1  0
  8 16  1  0
  8 17  1  0
  9 18  1  0
  9 19  1  0
M  END
