
     RDKit          3D

 17 16  0  0  0  0  0  0  0  0999 V2000
    2.7190   -1.1026   -0.2790 C   0  0  0  0  0  0  0  0  0  0  0  0
    1.6240   -1.0902    0.2872 C   0  0  0  0  0  0  0  0  0  0  0  0
    0.2806   -1.1003    0.9749 C   0  0  0  0  0  0  0  0  0  0  0  0
   -0.5652   -0.2603   -0.0870 C   0  0  0  0  0  0  0  0  0  0  0  0
   -1.9922   -0.2697    0.2812 C   0  0  0  0  0  0  0  0  0  0  0  0
   -0.1231    1.2075    0.0430 C   0  0  0  0  0  0  0  0  0  0  0  0
   -0.3199    1.7363    1.1504 O   0  0  0  0  0  0  0  0  0  0  0  0
    0.4945    1.8934   -1.1156 C   0  0  0  0  0  0  0  0  0  0  0  0
    0.5451    1.2914   -2.1744 O   0  0  0  0  0  0  0  0  0  0  0  0
    3.7087   -1.1272   -0.8066 H   0  0  0  0  0  0  0  0  0  0  0  0
   -0.0790   -2.0913    0.8672 H   0  0  0  0  0  0  0  0  0  0  0  0
    0.3306   -0.5796    1.8803 H   0  0  0  0  0  0  0  0  0  0  0  0
   -0.2658   -0.5825   -1.0771 H   0  0  0  0  0  0  0  0  0  0  0  0
   -2.2152   -0.5711    1.3197 H   0  0  0  0  0  0  0  0  0  0  0  0
   -2.4220    0.7689    0.0647 H   0  0  0  0  0  0  0  0  0  0  0  0
   -2.5762   -0.9782   -0.3834 H   0  0  0  0  0  0  0  0  0  0  0  0
    0.8561    2.8556   -0.9456 H   0  0  0  0  0  0  0  0  0  0  0  0
  1  2  3  0
  2  3  1  0
  3  4  1  0
  4  5  1  0
  4  6  1  0
  6  7  2  0
  6  8  1  0
  8  9  2  0
  1 10  1  0
  3 11  1  0
  3 12  1  0
  4 13  1  0
  5 14  1  0
  5 15  1  0
  5 16  1  0
  8 17  1  0
M  END
