
     RDKit          3D

 12 12  0  0  0  0  0  0  0  0999 V2000
    2.4712   -0.1851   -0.4694 C   0  0  0  0  0  0  0  0  0  0  0  0
    1.3185   -0.1579   -0.0788 C   0  0  0  0  0  0  0  0  0  0  0  0
   -0.0565   -0.1175    0.3618 C   0  0  0  0  0  0  0  0  0  0  0  0
   -0.3494   -1.1880    1.1894 O   0  0  0  0  0  0  0  0  0  0  0  0
   -1.0957    0.0197   -0.7317 C   0  0  0  0  0  0  0  0  0  0  0  0
   -1.5673    1.2362   -0.1997 O   0  0  0  0  0  0  0  0  0  0  0  0
   -0.5765    1.1869    0.7696 C   0  0  0  0  0  0  0  0  0  0  0  0
   -0.2411    1.9839    1.6809 O   0  0  0  0  0  0  0  0  0  0  0  0
    3.4806   -0.2154   -0.8113 H   0  0  0  0  0  0  0  0  0  0  0  0
   -0.8445   -1.8941    0.7056 H   0  0  0  0  0  0  0  0  0  0  0  0
   -0.6481    0.0770   -1.7323 H   0  0  0  0  0  0  0  0  0  0  0  0
   -1.8913   -0.7457   -0.6840 H   0  0  0  0  0  0  0  0  0  0  0  0
  1  2  3  0
  2  3  1  0
  3  4  1  0
  3  5  1  0
  5  6  1  0
  6  7  1  0
  7  8  2  0
  7  3  1  0
  1  9  1  0
  4 10  1  0
  5 11  1  0
  5 12  1  0
M  END
