
     RDKit          3D

 21 21  0  0  0  0  0  0  0  0999 V2000
    3.0288    1.7164   -1.1445 C   0  0  0  0  0  0  0  0  0  0  0  0
    2.3254    0.8504   -1.2700 C   0  0  0  0  0  0  0  0  0  0  0  0
    1.4567   -0.2421   -1.4272 C   0  0  0  0  0  0  0  0  0  0  0  0
    0.8814   -0.5634   -0.0359 C   0  0  0  0  0  0  0  0  0  0  0  0
   -0.0907   -1.7307   -0.1427 C   0  0  0  0  0  0  0  0  0  0  0  0
   -1.1768   -1.4388    0.5761 C   0  0  0  0  0  0  0  0  0  0  0  0
   -1.0916   -0.1352    1.2091 C   0  0  0  0  0  0  0  0  0  0  0  0
   -2.4228    0.6320    1.1344 C   0  0  0  0  0  0  0  0  0  0  0  0
   -0.0500    0.5341    0.3481 C   0  0  0  0  0  0  0  0  0  0  0  0
    3.8013    2.6653   -0.9855 H   0  0  0  0  0  0  0  0  0  0  0  0
    0.6519   -0.0953   -2.1347 H   0  0  0  0  0  0  0  0  0  0  0  0
    2.0854   -1.1609   -1.7386 H   0  0  0  0  0  0  0  0  0  0  0  0
    1.6170   -0.8095    0.6871 H   0  0  0  0  0  0  0  0  0  0  0  0
    0.0963   -2.6022   -0.7142 H   0  0  0  0  0  0  0  0  0  0  0  0
   -2.0465   -2.1155    0.6451 H   0  0  0  0  0  0  0  0  0  0  0  0
   -0.7680   -0.2523    2.2625 H   0  0  0  0  0  0  0  0  0  0  0  0
   -2.6080    1.0904    2.0997 H   0  0  0  0  0  0  0  0  0  0  0  0
   -2.2712    1.4716    0.3865 H   0  0  0  0  0  0  0  0  0  0  0  0
   -3.1417   -0.0678    0.7090 H   0  0  0  0  0  0  0  0  0  0  0  0
    0.3794    1.4283    0.8242 H   0  0  0  0  0  0  0  0  0  0  0  0
   -0.6562    0.8252   -0.5985 H   0  0  0  0  0  0  0  0  0  0  0  0
  1  2  3  0
  2  3  1  0
  3  4  1  0
  4  5  1  0
  5  6  2  0
  6  7  1  0
  7  8  1  0
  7  9  1  0
  9  4  1  0
  1 10  1  0
  3 11  1  0
  3 12  1  0
  4 13  1  0
  5 14  1  0
  6 15  1  0
  7 16  1  0
  8 17  1  0
  8 18  1  0
  8 19  1  0
  9 20  1  0
  9 21  1  0
M  END
