
     RDKit          3D

 19 20  0  0  0  0  0  0  0  0999 V2000
    3.3462    1.2228   -1.2366 C   0  0  0  0  0  0  0  0  0  0  0  0
    2.1749    1.1601   -0.9500 C   0  0  0  0  0  0  0  0  0  0  0  0
    0.7444    1.0891   -0.5741 C   0  0  0  0  0  0  0  0  0  0  0  0
    0.1322   -0.1954   -1.0662 C   0  0  0  0  0  0  0  0  0  0  0  0
   -1.2893   -0.4125   -0.7692 C   0  0  0  0  0  0  0  0  0  0  0  0
   -1.8771    0.2884    0.4278 C   0  0  0  0  0  0  0  0  0  0  0  0
   -1.7609   -0.6298    1.4626 O   0  0  0  0  0  0  0  0  0  0  0  0
   -0.4559   -1.1228    1.2949 C   0  0  0  0  0  0  0  0  0  0  0  0
   -0.2428   -1.2942   -0.1724 C   0  0  0  0  0  0  0  0  0  0  0  0
    4.3703    1.2945   -1.4952 H   0  0  0  0  0  0  0  0  0  0  0  0
    0.6987    1.2270    0.5062 H   0  0  0  0  0  0  0  0  0  0  0  0
    0.2215    1.9174   -1.0964 H   0  0  0  0  0  0  0  0  0  0  0  0
    0.4715   -0.4818   -2.0810 H   0  0  0  0  0  0  0  0  0  0  0  0
   -1.9678   -0.7943   -1.5596 H   0  0  0  0  0  0  0  0  0  0  0  0
   -2.9667    0.5007    0.2754 H   0  0  0  0  0  0  0  0  0  0  0  0
   -1.3300    1.1913    0.7263 H   0  0  0  0  0  0  0  0  0  0  0  0
   -0.4546   -2.1201    1.8036 H   0  0  0  0  0  0  0  0  0  0  0  0
    0.2972   -0.5028    1.7983 H   0  0  0  0  0  0  0  0  0  0  0  0
   -0.1118   -2.3376   -0.5324 H   0  0  0  0  0  0  0  0  0  0  0  0
  1  2  3  0
  2  3  1  0
  3  4  1  0
  4  5  1  0
  5  6  1  0
  6  7  1  0
  7  8  1  0
  8  9  1  0
  9  4  1  0
  9  5  1  0
  1 10  1  0
  3 11  1  0
  3 12  1  0
  4 13  1  0
  5 14  1  0
  6 15  1  0
  6 16  1  0
  8 17  1  0
  8 18  1  0
  9 19  1  0
M  END
