
     RDKit          3D

 19 20  0  0  0  0  0  0  0  0999 V2000
    3.4302    0.7722   -0.1560 C   0  0  0  0  0  0  0  0  0  0  0  0
    2.2715    0.4134   -0.3122 C   0  0  0  0  0  0  0  0  0  0  0  0
    0.9074   -0.0025   -0.4713 C   0  0  0  0  0  0  0  0  0  0  0  0
    0.4550   -1.1128   -1.0187 C   0  0  0  0  0  0  0  0  0  0  0  0
   -1.0274   -1.1561   -0.9838 C   0  0  0  0  0  0  0  0  0  0  0  0
   -1.6118   -1.3310    0.3791 C   0  0  0  0  0  0  0  0  0  0  0  0
   -1.4767    0.0205   -0.2164 C   0  0  0  0  0  0  0  0  0  0  0  0
   -0.2405    0.8318   -0.0028 C   0  0  0  0  0  0  0  0  0  0  0  0
   -0.1158    1.1509    1.4830 C   0  0  0  0  0  0  0  0  0  0  0  0
    4.4408    1.0680   -0.0291 H   0  0  0  0  0  0  0  0  0  0  0  0
    1.0995   -1.8706   -1.4290 H   0  0  0  0  0  0  0  0  0  0  0  0
   -1.5916   -1.4437   -1.8832 H   0  0  0  0  0  0  0  0  0  0  0  0
   -0.9469   -1.6154    1.2138 H   0  0  0  0  0  0  0  0  0  0  0  0
   -2.6027   -1.7845    0.4143 H   0  0  0  0  0  0  0  0  0  0  0  0
   -2.4336    0.5462   -0.4383 H   0  0  0  0  0  0  0  0  0  0  0  0
   -0.3235    1.7579   -0.6038 H   0  0  0  0  0  0  0  0  0  0  0  0
    0.9617    1.3157    1.7652 H   0  0  0  0  0  0  0  0  0  0  0  0
   -0.6252    2.1033    1.7343 H   0  0  0  0  0  0  0  0  0  0  0  0
   -0.5704    0.3368    2.0860 H   0  0  0  0  0  0  0  0  0  0  0  0
  1  2  3  0
  2  3  1  0
  3  4  2  0
  4  5  1  0
  5  6  1  0
  6  7  1  0
  7  8  1  0
  8  9  1  0
  8  3  1  0
  7  5  1  0
  1 10  1  0
  4 11  1  0
  5 12  1  0
  6 13  1  0
  6 14  1  0
  7 15  1  0
  8 16  1  0
  9 17  1  0
  9 18  1  0
  9 19  1  0
M  END
