
     RDKit          3D

 19 18  0  0  0  0  0  0  0  0999 V2000
    3.0365   -0.2913   -0.9847 C   0  0  0  0  0  0  0  0  0  0  0  0
    1.8067   -0.0217   -0.1057 C   0  0  0  0  0  0  0  0  0  0  0  0
    0.8348    0.1944    0.5994 C   0  0  0  0  0  0  0  0  0  0  0  0
    0.5725    1.8188    0.5060 C   0  0  0  0  0  0  0  0  0  0  0  0
   -0.5511   -0.3132    0.1877 C   0  0  0  0  0  0  0  0  0  0  0  0
   -0.4504   -1.8326   -0.1105 C   0  0  0  0  0  0  0  0  0  0  0  0
   -1.0875   -0.5373    1.7027 O   0  0  0  0  0  0  0  0  0  0  0  0
   -1.4527    0.3095   -0.3279 C   0  0  0  0  0  0  0  0  0  0  0  0
   -2.3690    0.9654   -0.8494 C   0  0  0  0  0  0  0  0  0  0  0  0
    3.8294   -0.4795   -1.5490 H   0  0  0  0  0  0  0  0  0  0  0  0
    1.0135    0.1453    1.7344 H   0  0  0  0  0  0  0  0  0  0  0  0
    1.5414    2.2297    0.6383 H   0  0  0  0  0  0  0  0  0  0  0  0
    0.2207    1.9874   -0.5703 H   0  0  0  0  0  0  0  0  0  0  0  0
   -0.1896    1.9400    1.1933 H   0  0  0  0  0  0  0  0  0  0  0  0
   -1.5072   -2.1758   -0.3760 H   0  0  0  0  0  0  0  0  0  0  0  0
   -0.1861   -2.3834    0.8448 H   0  0  0  0  0  0  0  0  0  0  0  0
    0.1405   -2.0248   -0.9826 H   0  0  0  0  0  0  0  0  0  0  0  0
   -1.8145   -1.2244    1.5218 H   0  0  0  0  0  0  0  0  0  0  0  0
   -3.3882    1.6935   -1.4441 H   0  0  0  0  0  0  0  0  0  0  0  0
  1  2  3  0
  2  3  1  0
  3  4  1  0
  3  5  1  0
  5  6  1  0
  5  7  1  0
  5  8  1  0
  8  9  3  0
  1 10  1  0
  3 11  1  0
  4 12  1  0
  4 13  1  0
  4 14  1  0
  6 15  1  0
  6 16  1  0
  6 17  1  0
  7 18  1  0
  9 19  1  0
M  END
