
     RDKit          3D

 19 20  0  0  0  0  0  0  0  0999 V2000
   -3.1192    1.1121    0.4881 C   0  0  0  0  0  0  0  0  0  0  0  0
   -2.0517    0.6270    0.8098 C   0  0  0  0  0  0  0  0  0  0  0  0
   -0.7633    0.0497    1.1719 C   0  0  0  0  0  0  0  0  0  0  0  0
   -0.5377   -1.3039    0.4951 C   0  0  0  0  0  0  0  0  0  0  0  0
   -0.4881   -2.3429    1.4028 O   0  0  0  0  0  0  0  0  0  0  0  0
    0.7949   -0.7706    0.0379 C   0  0  0  0  0  0  0  0  0  0  0  0
    0.7519    0.3320   -0.9304 C   0  0  0  0  0  0  0  0  0  0  0  0
    2.0908    0.8311   -1.4222 C   0  0  0  0  0  0  0  0  0  0  0  0
    0.3909    0.6706    0.4616 C   0  0  0  0  0  0  0  0  0  0  0  0
   -4.0463    1.5534    0.2092 H   0  0  0  0  0  0  0  0  0  0  0  0
   -0.5761   -0.0269    2.2663 H   0  0  0  0  0  0  0  0  0  0  0  0
   -1.1900   -1.4779   -0.3914 H   0  0  0  0  0  0  0  0  0  0  0  0
   -1.4288   -2.4890    1.7162 H   0  0  0  0  0  0  0  0  0  0  0  0
    1.7291   -1.1487    0.4929 H   0  0  0  0  0  0  0  0  0  0  0  0
   -0.0397    0.2777   -1.7249 H   0  0  0  0  0  0  0  0  0  0  0  0
    1.9957    1.7507   -2.0399 H   0  0  0  0  0  0  0  0  0  0  0  0
    2.7524    1.0407   -0.5396 H   0  0  0  0  0  0  0  0  0  0  0  0
    2.5964    0.0833   -2.0708 H   0  0  0  0  0  0  0  0  0  0  0  0
    1.1388    1.2313    1.0602 H   0  0  0  0  0  0  0  0  0  0  0  0
  1  2  3  0
  2  3  1  0
  3  4  1  0
  4  5  1  0
  4  6  1  0
  6  7  1  0
  7  8  1  0
  7  9  1  0
  9  3  1  0
  9  6  1  0
  1 10  1  0
  3 11  1  0
  4 12  1  0
  5 13  1  0
  6 14  1  0
  7 15  1  0
  8 16  1  0
  8 17  1  0
  8 18  1  0
  9 19  1  0
M  END
