
     RDKit          3D

 17 18  0  0  0  0  0  0  0  0999 V2000
    2.1184   -1.9879   -0.1019 C   0  0  0  0  0  0  0  0  0  0  0  0
    1.4738   -0.9270   -0.3998 C   0  0  0  0  0  0  0  0  0  0  0  0
    0.7292    0.2510   -0.7384 C   0  0  0  0  0  0  0  0  0  0  0  0
    1.3552    1.0944   -1.6532 O   0  0  0  0  0  0  0  0  0  0  0  0
   -0.7299    0.2372   -0.7946 C   0  0  0  0  0  0  0  0  0  0  0  0
   -1.4481   -0.7343    0.0961 C   0  0  0  0  0  0  0  0  0  0  0  0
   -0.8668    0.0171    1.2779 C   0  0  0  0  0  0  0  0  0  0  0  0
   -0.0705    0.9065    0.3474 C   0  0  0  0  0  0  0  0  0  0  0  0
    0.0509    2.2355    0.5449 O   0  0  0  0  0  0  0  0  0  0  0  0
    2.6392   -2.8520    0.1585 H   0  0  0  0  0  0  0  0  0  0  0  0
    2.2512    0.7685   -1.9155 H   0  0  0  0  0  0  0  0  0  0  0  0
   -1.3133    0.8906   -1.4773 H   0  0  0  0  0  0  0  0  0  0  0  0
   -0.9993   -1.7451   -0.0597 H   0  0  0  0  0  0  0  0  0  0  0  0
   -2.5496   -0.7123    0.0594 H   0  0  0  0  0  0  0  0  0  0  0  0
   -1.6692    0.5488    1.8197 H   0  0  0  0  0  0  0  0  0  0  0  0
   -0.2457   -0.6667    1.8755 H   0  0  0  0  0  0  0  0  0  0  0  0
   -0.7256    2.6759    0.9608 H   0  0  0  0  0  0  0  0  0  0  0  0
  1  2  3  0
  2  3  1  0
  3  4  1  0
  3  5  1  0
  5  6  1  0
  6  7  1  0
  7  8  1  0
  8  9  1  0
  8  3  1  0
  8  5  1  0
  1 10  1  0
  4 11  1  0
  5 12  1  0
  6 13  1  0
  6 14  1  0
  7 15  1  0
  7 16  1  0
  9 17  1  0
M  END
