
     RDKit          3D

 16 16  0  0  0  0  0  0  0  0999 V2000
    0.5197    2.5925    0.2979 C   0  0  0  0  0  0  0  0  0  0  0  0
    0.5101    1.3981    0.1219 C   0  0  0  0  0  0  0  0  0  0  0  0
    0.4808   -0.0482   -0.0939 C   0  0  0  0  0  0  0  0  0  0  0  0
    1.7867   -0.6846   -0.3299 C   0  0  0  0  0  0  0  0  0  0  0  0
    2.0918   -1.3060   -1.3320 O   0  0  0  0  0  0  0  0  0  0  0  0
   -0.3538   -0.7239    1.0063 C   0  0  0  0  0  0  0  0  0  0  0  0
   -1.5615   -0.2856    0.1622 C   0  0  0  0  0  0  0  0  0  0  0  0
   -0.6258   -0.4742   -1.0401 C   0  0  0  0  0  0  0  0  0  0  0  0
    0.5326    3.6489    0.4694 H   0  0  0  0  0  0  0  0  0  0  0  0
    2.5375   -0.5936    0.4498 H   0  0  0  0  0  0  0  0  0  0  0  0
   -0.2320   -0.1882    1.9454 H   0  0  0  0  0  0  0  0  0  0  0  0
   -0.2188   -1.8166    1.0078 H   0  0  0  0  0  0  0  0  0  0  0  0
   -1.7276    0.7863    0.3066 H   0  0  0  0  0  0  0  0  0  0  0  0
   -2.4082   -0.9612    0.2029 H   0  0  0  0  0  0  0  0  0  0  0  0
   -0.8073    0.2022   -1.8753 H   0  0  0  0  0  0  0  0  0  0  0  0
   -0.5242   -1.5456   -1.2990 H   0  0  0  0  0  0  0  0  0  0  0  0
  1  2  3  0
  2  3  1  0
  3  4  1  0
  4  5  2  0
  3  6  1  0
  6  7  1  0
  7  8  1  0
  8  3  1  0
  1  9  1  0
  4 10  1  0
  6 11  1  0
  6 12  1  0
  7 13  1  0
  7 14  1  0
  8 15  1  0
  8 16  1  0
M  END
