
     RDKit          3D

 19 19  0  0  0  0  0  0  0  0999 V2000
    2.6137   -1.6854   -0.6588 C   0  0  0  0  0  0  0  0  0  0  0  0
    1.8984   -0.7421   -0.4452 C   0  0  0  0  0  0  0  0  0  0  0  0
    0.9977    0.4066   -0.1767 C   0  0  0  0  0  0  0  0  0  0  0  0
    1.5071    1.3085    0.8144 C   0  0  0  0  0  0  0  0  0  0  0  0
    1.9473    2.0892    1.6984 C   0  0  0  0  0  0  0  0  0  0  0  0
   -0.3141   -0.1678    0.2054 C   0  0  0  0  0  0  0  0  0  0  0  0
   -0.8754   -1.0185   -0.9331 C   0  0  0  0  0  0  0  0  0  0  0  0
   -2.2106   -0.3351   -0.6562 C   0  0  0  0  0  0  0  0  0  0  0  0
   -1.4761    0.7863    0.0709 C   0  0  0  0  0  0  0  0  0  0  0  0
    3.2465   -2.5344   -0.8639 H   0  0  0  0  0  0  0  0  0  0  0  0
    0.8600    0.9754   -1.1285 H   0  0  0  0  0  0  0  0  0  0  0  0
    2.2889    2.7163    2.3834 H   0  0  0  0  0  0  0  0  0  0  0  0
   -0.3513   -0.7212    1.1761 H   0  0  0  0  0  0  0  0  0  0  0  0
   -0.4652   -0.7200   -1.9302 H   0  0  0  0  0  0  0  0  0  0  0  0
   -0.8300   -2.0918   -0.7769 H   0  0  0  0  0  0  0  0  0  0  0  0
   -2.8035   -0.9485    0.0398 H   0  0  0  0  0  0  0  0  0  0  0  0
   -2.7582   -0.0299   -1.5474 H   0  0  0  0  0  0  0  0  0  0  0  0
   -1.9515    1.0320    1.0669 H   0  0  0  0  0  0  0  0  0  0  0  0
   -1.3238    1.6804   -0.5385 H   0  0  0  0  0  0  0  0  0  0  0  0
  1  2  3  0
  2  3  1  0
  3  4  1  0
  4  5  3  0
  3  6  1  0
  6  7  1  0
  7  8  1  0
  8  9  1  0
  9  6  1  0
  1 10  1  0
  3 11  1  0
  5 12  1  0
  6 13  1  0
  7 14  1  0
  7 15  1  0
  8 16  1  0
  8 17  1  0
  9 18  1  0
  9 19  1  0
M  END
