
     RDKit          3D

 19 20  0  0  0  0  0  0  0  0999 V2000
    2.7384    0.7249   -2.2671 C   0  0  0  0  0  0  0  0  0  0  0  0
    1.8428    0.0223   -1.8170 C   0  0  0  0  0  0  0  0  0  0  0  0
    0.7711   -0.7978   -1.3010 C   0  0  0  0  0  0  0  0  0  0  0  0
   -0.5378   -0.5741   -1.9150 O   0  0  0  0  0  0  0  0  0  0  0  0
   -0.3355   -0.3032   -0.5708 C   0  0  0  0  0  0  0  0  0  0  0  0
   -0.5262    1.0804   -0.0601 C   0  0  0  0  0  0  0  0  0  0  0  0
   -0.7433    0.9541    1.4245 C   0  0  0  0  0  0  0  0  0  0  0  0
   -0.4898   -0.5214    1.7531 C   0  0  0  0  0  0  0  0  0  0  0  0
   -0.9716   -1.1786    0.4737 C   0  0  0  0  0  0  0  0  0  0  0  0
    3.5227    1.3169   -2.6573 H   0  0  0  0  0  0  0  0  0  0  0  0
    0.9978   -1.8877   -1.2968 H   0  0  0  0  0  0  0  0  0  0  0  0
    0.2982    1.7745   -0.3146 H   0  0  0  0  0  0  0  0  0  0  0  0
   -1.4407    1.5027   -0.5685 H   0  0  0  0  0  0  0  0  0  0  0  0
   -1.8321    1.1241    1.6724 H   0  0  0  0  0  0  0  0  0  0  0  0
   -0.0856    1.6178    2.0215 H   0  0  0  0  0  0  0  0  0  0  0  0
    0.5920   -0.6686    1.8855 H   0  0  0  0  0  0  0  0  0  0  0  0
   -1.0957   -0.8450    2.6259 H   0  0  0  0  0  0  0  0  0  0  0  0
   -2.0768   -1.1202    0.4761 H   0  0  0  0  0  0  0  0  0  0  0  0
   -0.6278   -2.2212    0.4355 H   0  0  0  0  0  0  0  0  0  0  0  0
  1  2  3  0
  2  3  1  0
  3  4  1  0
  4  5  1  0
  5  6  1  0
  6  7  1  0
  7  8  1  0
  8  9  1  0
  5  3  1  0
  9  5  1  0
  1 10  1  0
  3 11  1  0
  6 12  1  0
  6 13  1  0
  7 14  1  0
  7 15  1  0
  8 16  1  0
  8 17  1  0
  9 18  1  0
  9 19  1  0
M  END
