
     RDKit          3D

 17 19  0  0  0  0  0  0  0  0999 V2000
    2.2303    1.3777    1.0755 C   0  0  0  0  0  0  0  0  0  0  0  0
    1.5905    0.8637    0.2125 C   0  0  0  0  0  0  0  0  0  0  0  0
    0.8134    0.2622   -0.8371 C   0  0  0  0  0  0  0  0  0  0  0  0
    0.2191   -1.1041   -0.5230 C   0  0  0  0  0  0  0  0  0  0  0  0
   -0.8384   -0.7006   -1.5678 C   0  0  0  0  0  0  0  0  0  0  0  0
   -0.6369    0.6819   -0.9237 C   0  0  0  0  0  0  0  0  0  0  0  0
   -1.2071    0.4343    0.4373 C   0  0  0  0  0  0  0  0  0  0  0  0
   -1.9535   -0.7305    0.6702 O   0  0  0  0  0  0  0  0  0  0  0  0
   -0.5683   -0.9363    0.7349 C   0  0  0  0  0  0  0  0  0  0  0  0
    2.7960    1.8562    1.8555 H   0  0  0  0  0  0  0  0  0  0  0  0
    1.3039    0.2047   -1.8336 H   0  0  0  0  0  0  0  0  0  0  0  0
    0.7899   -1.9713   -0.7139 H   0  0  0  0  0  0  0  0  0  0  0  0
   -0.4693   -0.7221   -2.5932 H   0  0  0  0  0  0  0  0  0  0  0  0
   -1.8321   -1.1348   -1.3696 H   0  0  0  0  0  0  0  0  0  0  0  0
   -0.9076    1.5316   -1.4909 H   0  0  0  0  0  0  0  0  0  0  0  0
   -1.1993    1.1912    1.2183 H   0  0  0  0  0  0  0  0  0  0  0  0
   -0.1306   -1.1038    1.7224 H   0  0  0  0  0  0  0  0  0  0  0  0
  1  2  3  0
  2  3  1  0
  3  4  1  0
  4  5  1  0
  5  6  1  0
  6  7  1  0
  7  8  1  0
  8  9  1  0
  6  3  1  0
  9  7  1  0
  9  4  1  0
  1 10  1  0
  3 11  1  0
  4 12  1  0
  5 13  1  0
  5 14  1  0
  6 15  1  0
  7 16  1  0
  9 17  1  0
M  END
