
     RDKit          3D

 17 17  0  0  0  0  0  0  0  0999 V2000
    0.5060    2.8055    0.0480 C   0  0  0  0  0  0  0  0  0  0  0  0
    0.4471    1.4059    0.0054 C   0  0  0  0  0  0  0  0  0  0  0  0
    0.3992   -0.1955   -0.0633 C   0  0  0  0  0  0  0  0  0  0  0  0
   -0.8306   -0.5799   -0.2608 C   0  0  0  0  0  0  0  0  0  0  0  0
   -2.1633   -0.9791   -0.4920 C   0  0  0  0  0  0  0  0  0  0  0  0
   -3.3713   -1.3227   -0.6887 C   0  0  0  0  0  0  0  0  0  0  0  0
    0.7667   -0.4456    1.4466 O   0  0  0  0  0  0  0  0  0  0  0  0
    1.6299   -0.6608    0.2407 C   0  0  0  0  0  0  0  0  0  0  0  0
    2.8080    0.3731    0.5149 C   0  0  0  0  0  0  0  0  0  0  0  0
    0.5561    3.6480    0.0756 H   0  0  0  0  0  0  0  0  0  0  0  0
   -3.6603   -1.2882   -1.8575 H   0  0  0  0  0  0  0  0  0  0  0  0
   -3.7814   -2.3673   -0.4799 H   0  0  0  0  0  0  0  0  0  0  0  0
   -4.2123   -0.6409   -0.2816 H   0  0  0  0  0  0  0  0  0  0  0  0
    1.9829   -1.6989    0.2585 H   0  0  0  0  0  0  0  0  0  0  0  0
    2.8039    0.6406    1.5934 H   0  0  0  0  0  0  0  0  0  0  0  0
    2.4364    1.2589   -0.0990 H   0  0  0  0  0  0  0  0  0  0  0  0
    3.6830    0.0470    0.0396 H   0  0  0  0  0  0  0  0  0  0  0  0
  1  2  3  0
  2  3  1  0
  3  4  1  0
  4  5  3  0
  5  6  1  0
  3  7  1  0
  7  8  1  0
  8  9  1  0
  8  3  1  0
  1 10  1  0
  6 11  1  0
  6 12  1  0
  6 13  1  0
  8 14  1  0
  9 15  1  0
  9 16  1  0
  9 17  1  0
M  END
