
     RDKit          3D

 19 18  0  0  0  0  0  0  0  0999 V2000
    4.0206    0.3422    0.7578 C   0  0  0  0  0  0  0  0  0  0  0  0
    2.8506   -0.0788    0.6887 C   0  0  0  0  0  0  0  0  0  0  0  0
    1.4804   -0.5559    0.6287 C   0  0  0  0  0  0  0  0  0  0  0  0
    0.5333    0.4748    0.0859 C   0  0  0  0  0  0  0  0  0  0  0  0
   -0.8728   -0.0496    0.0272 C   0  0  0  0  0  0  0  0  0  0  0  0
   -1.3956   -0.4546    1.3410 C   0  0  0  0  0  0  0  0  0  0  0  0
   -2.3053    0.0839    1.8668 O   0  0  0  0  0  0  0  0  0  0  0  0
   -1.7510    0.8923   -0.5128 O   0  0  0  0  0  0  0  0  0  0  0  0
   -2.3418    0.3555   -1.6791 C   0  0  0  0  0  0  0  0  0  0  0  0
    5.0459    0.6947    0.8286 H   0  0  0  0  0  0  0  0  0  0  0  0
    1.4559   -1.5048    0.0492 H   0  0  0  0  0  0  0  0  0  0  0  0
    1.1758   -0.7777    1.6746 H   0  0  0  0  0  0  0  0  0  0  0  0
    0.5958    1.4386    0.5972 H   0  0  0  0  0  0  0  0  0  0  0  0
    0.8402    0.6579   -0.9856 H   0  0  0  0  0  0  0  0  0  0  0  0
   -0.8848   -0.9573   -0.6372 H   0  0  0  0  0  0  0  0  0  0  0  0
   -0.8866   -1.2889    1.8064 H   0  0  0  0  0  0  0  0  0  0  0  0
   -2.8656   -0.5628   -1.3255 H   0  0  0  0  0  0  0  0  0  0  0  0
   -1.6111    0.1943   -2.4574 H   0  0  0  0  0  0  0  0  0  0  0  0
   -3.0838    1.0960   -2.0196 H   0  0  0  0  0  0  0  0  0  0  0  0
  1  2  3  0
  2  3  1  0
  3  4  1  0
  4  5  1  0
  5  6  1  0
  6  7  2  0
  5  8  1  0
  8  9  1  0
  1 10  1  0
  3 11  1  0
  3 12  1  0
  4 13  1  0
  4 14  1  0
  5 15  1  0
  6 16  1  0
  9 17  1  0
  9 18  1  0
  9 19  1  0
M  END
