
     RDKit          3D

 21 20  0  0  0  0  0  0  0  0999 V2000
    3.7664   -0.9860   -0.0312 C   0  0  0  0  0  0  0  0  0  0  0  0
    3.0688    0.0105   -0.0660 C   0  0  0  0  0  0  0  0  0  0  0  0
    2.2213    1.1933   -0.0962 C   0  0  0  0  0  0  0  0  0  0  0  0
    0.9427    0.8881    0.3191 O   0  0  0  0  0  0  0  0  0  0  0  0
    0.3368   -0.0697   -0.4784 C   0  0  0  0  0  0  0  0  0  0  0  0
   -1.0623   -0.3579    0.0325 C   0  0  0  0  0  0  0  0  0  0  0  0
   -1.7864   -1.3430   -0.8495 C   0  0  0  0  0  0  0  0  0  0  0  0
   -1.7804    0.8384   -0.0174 O   0  0  0  0  0  0  0  0  0  0  0  0
   -2.2200    1.0918    1.2949 C   0  0  0  0  0  0  0  0  0  0  0  0
    4.3688   -1.8602   -0.0143 H   0  0  0  0  0  0  0  0  0  0  0  0
    2.1672    1.5319   -1.1623 H   0  0  0  0  0  0  0  0  0  0  0  0
    2.6110    2.0259    0.5108 H   0  0  0  0  0  0  0  0  0  0  0  0
    0.9683   -0.9825   -0.4705 H   0  0  0  0  0  0  0  0  0  0  0  0
    0.3039    0.2938   -1.5169 H   0  0  0  0  0  0  0  0  0  0  0  0
   -1.0189   -0.7915    1.0489 H   0  0  0  0  0  0  0  0  0  0  0  0
   -2.6001   -1.7922   -0.2213 H   0  0  0  0  0  0  0  0  0  0  0  0
   -2.2133   -0.7803   -1.7125 H   0  0  0  0  0  0  0  0  0  0  0  0
   -1.1354   -2.1762   -1.1813 H   0  0  0  0  0  0  0  0  0  0  0  0
   -2.8571    0.2128    1.5663 H   0  0  0  0  0  0  0  0  0  0  0  0
   -1.3238    1.0180    1.9396 H   0  0  0  0  0  0  0  0  0  0  0  0
   -2.7576    2.0350    1.3655 H   0  0  0  0  0  0  0  0  0  0  0  0
  1  2  3  0
  2  3  1  0
  3  4  1  0
  4  5  1  0
  5  6  1  0
  6  7  1  0
  6  8  1  0
  8  9  1  0
  1 10  1  0
  3 11  1  0
  3 12  1  0
  5 13  1  0
  5 14  1  0
  6 15  1  0
  7 16  1  0
  7 17  1  0
  7 18  1  0
  9 19  1  0
  9 20  1  0
  9 21  1  0
M  END
