
     RDKit          3D

 15 15  0  0  0  0  0  0  0  0999 V2000
    3.2153    1.9893   -0.5957 C   0  0  0  0  0  0  0  0  0  0  0  0
    2.0271    0.9757   -0.7879 C   0  0  0  0  0  0  0  0  0  0  0  0
    1.1082    0.1792   -0.9201 C   0  0  0  0  0  0  0  0  0  0  0  0
    0.0400    0.5067    0.0185 O   0  0  0  0  0  0  0  0  0  0  0  0
   -0.9679   -0.3632    0.0568 C   0  0  0  0  0  0  0  0  0  0  0  0
   -1.1059   -1.0077    1.4468 C   0  0  0  0  0  0  0  0  0  0  0  0
   -2.1889   -0.0726    0.7379 C   0  0  0  0  0  0  0  0  0  0  0  0
    4.1820    2.8315   -0.4216 H   0  0  0  0  0  0  0  0  0  0  0  0
    1.4439   -1.0025   -0.5796 H   0  0  0  0  0  0  0  0  0  0  0  0
    0.6161   -0.0882   -1.9774 H   0  0  0  0  0  0  0  0  0  0  0  0
   -0.8511   -1.2098   -0.6929 H   0  0  0  0  0  0  0  0  0  0  0  0
   -1.3894   -2.1156    1.4714 H   0  0  0  0  0  0  0  0  0  0  0  0
   -0.5771   -0.6524    2.2727 H   0  0  0  0  0  0  0  0  0  0  0  0
   -2.4208    0.7119    1.4448 H   0  0  0  0  0  0  0  0  0  0  0  0
   -3.1315   -0.6822    0.5161 H   0  0  0  0  0  0  0  0  0  0  0  0
  1  2  3  0
  2  3  1  0
  3  4  1  0
  4  5  1  0
  5  6  1  0
  6  7  1  0
  7  5  1  0
  1  8  1  0
  3  9  1  0
  3 10  1  0
  5 11  1  0
  6 12  1  0
  6 13  1  0
  7 14  1  0
  7 15  1  0
M  END
