
     RDKit          3D

 19 20  0  0  0  0  0  0  0  0999 V2000
    0.6748    1.7998   -3.1990 C   0  0  0  0  0  0  0  0  0  0  0  0
    0.3330    0.7810   -2.5285 C   0  0  0  0  0  0  0  0  0  0  0  0
   -0.0836   -0.3840   -1.7654 C   0  0  0  0  0  0  0  0  0  0  0  0
    0.3153   -0.0510   -0.2895 C   0  0  0  0  0  0  0  0  0  0  0  0
    0.0306   -1.1857    0.6998 C   0  0  0  0  0  0  0  0  0  0  0  0
    0.8305   -1.0889    1.9657 C   0  0  0  0  0  0  0  0  0  0  0  0
    0.3283   -0.1158    2.6808 C   0  0  0  0  0  0  0  0  0  0  0  0
   -0.8302    0.5300    2.0023 C   0  0  0  0  0  0  0  0  0  0  0  0
   -0.8569   -0.0311    0.6361 C   0  0  0  0  0  0  0  0  0  0  0  0
    0.9686    2.6534   -3.7667 H   0  0  0  0  0  0  0  0  0  0  0  0
   -1.1699   -0.4459   -1.7706 H   0  0  0  0  0  0  0  0  0  0  0  0
    0.4844   -1.2671   -2.0856 H   0  0  0  0  0  0  0  0  0  0  0  0
    1.1392    0.6203   -0.1003 H   0  0  0  0  0  0  0  0  0  0  0  0
   -0.2371   -2.1581    0.2772 H   0  0  0  0  0  0  0  0  0  0  0  0
    1.6686   -1.6940    2.2325 H   0  0  0  0  0  0  0  0  0  0  0  0
    0.6920    0.2043    3.6649 H   0  0  0  0  0  0  0  0  0  0  0  0
   -0.7032    1.6325    1.9473 H   0  0  0  0  0  0  0  0  0  0  0  0
   -1.7313    0.2176    2.5589 H   0  0  0  0  0  0  0  0  0  0  0  0
   -1.8531   -0.0172    0.1317 H   0  0  0  0  0  0  0  0  0  0  0  0
  1  2  3  0
  2  3  1  0
  3  4  1  0
  4  5  1  0
  5  6  1  0
  6  7  2  0
  7  8  1  0
  8  9  1  0
  9  4  1  0
  9  5  1  0
  1 10  1  0
  3 11  1  0
  3 12  1  0
  4 13  1  0
  5 14  1  0
  6 15  1  0
  7 16  1  0
  8 17  1  0
  8 18  1  0
  9 19  1  0
M  END
