
     RDKit          3D

 17 17  0  0  0  0  0  0  0  0999 V2000
    2.7399   -0.2056    0.1722 C   0  0  0  0  0  0  0  0  0  0  0  0
    1.5715    0.0927    0.0833 C   0  0  0  0  0  0  0  0  0  0  0  0
    0.1508    0.4644   -0.0326 C   0  0  0  0  0  0  0  0  0  0  0  0
   -0.0040    1.8528   -0.5527 C   0  0  0  0  0  0  0  0  0  0  0  0
   -0.6008    0.1945    1.1184 O   0  0  0  0  0  0  0  0  0  0  0  0
   -1.6682   -0.1608    0.2647 C   0  0  0  0  0  0  0  0  0  0  0  0
   -0.6204   -0.6156   -0.7294 C   0  0  0  0  0  0  0  0  0  0  0  0
   -0.1192   -1.9615   -0.3342 C   0  0  0  0  0  0  0  0  0  0  0  0
   -0.5500   -2.9980   -0.8352 O   0  0  0  0  0  0  0  0  0  0  0  0
    3.7715   -0.4751    0.2472 H   0  0  0  0  0  0  0  0  0  0  0  0
    0.9000    2.1088   -1.1692 H   0  0  0  0  0  0  0  0  0  0  0  0
    0.0730    2.5386    0.3422 H   0  0  0  0  0  0  0  0  0  0  0  0
   -0.9434    2.0330   -1.0869 H   0  0  0  0  0  0  0  0  0  0  0  0
   -2.2816   -1.0007    0.6223 H   0  0  0  0  0  0  0  0  0  0  0  0
   -2.2155    0.7021   -0.1500 H   0  0  0  0  0  0  0  0  0  0  0  0
   -0.8572   -0.4754   -1.7814 H   0  0  0  0  0  0  0  0  0  0  0  0
    0.6537   -2.0941    0.4182 H   0  0  0  0  0  0  0  0  0  0  0  0
  1  2  3  0
  2  3  1  0
  3  4  1  0
  3  5  1  0
  5  6  1  0
  6  7  1  0
  7  8  1  0
  8  9  2  0
  7  3  1  0
  1 10  1  0
  4 11  1  0
  4 12  1  0
  4 13  1  0
  6 14  1  0
  6 15  1  0
  7 16  1  0
  8 17  1  0
M  END
