
     RDKit          3D

 19 20  0  0  0  0  0  0  0  0999 V2000
   -1.5174    2.1317    1.7442 C   0  0  0  0  0  0  0  0  0  0  0  0
   -1.0911    1.1827    1.0403 C   0  0  0  0  0  0  0  0  0  0  0  0
   -0.5811    0.1065    0.2265 C   0  0  0  0  0  0  0  0  0  0  0  0
   -1.4720   -0.9457   -0.3186 C   0  0  0  0  0  0  0  0  0  0  0  0
   -0.9396    0.0641   -1.2679 C   0  0  0  0  0  0  0  0  0  0  0  0
    0.3752   -0.0114   -1.9311 C   0  0  0  0  0  0  0  0  0  0  0  0
    1.3617   -0.3385   -0.9075 C   0  0  0  0  0  0  0  0  0  0  0  0
    0.8415   -0.2748    0.2819 C   0  0  0  0  0  0  0  0  0  0  0  0
    1.5512   -0.5499    1.5603 C   0  0  0  0  0  0  0  0  0  0  0  0
   -1.8728    2.8928    2.2976 H   0  0  0  0  0  0  0  0  0  0  0  0
   -2.5392   -0.8765   -0.1252 H   0  0  0  0  0  0  0  0  0  0  0  0
   -1.0741   -1.9921   -0.4358 H   0  0  0  0  0  0  0  0  0  0  0  0
   -1.6495    0.8641   -1.6344 H   0  0  0  0  0  0  0  0  0  0  0  0
    0.5851    1.0123   -2.3779 H   0  0  0  0  0  0  0  0  0  0  0  0
    0.3983   -0.7077   -2.8063 H   0  0  0  0  0  0  0  0  0  0  0  0
    2.4150   -0.6081   -1.1141 H   0  0  0  0  0  0  0  0  0  0  0  0
    1.6240   -1.6586    1.7409 H   0  0  0  0  0  0  0  0  0  0  0  0
    1.0093   -0.1552    2.4365 H   0  0  0  0  0  0  0  0  0  0  0  0
    2.5756   -0.1357    1.5907 H   0  0  0  0  0  0  0  0  0  0  0  0
  1  2  3  0
  2  3  1  0
  3  4  1  0
  4  5  1  0
  5  6  1  0
  6  7  1  0
  7  8  2  0
  8  9  1  0
  5  3  1  0
  8  3  1  0
  1 10  1  0
  4 11  1  0
  4 12  1  0
  5 13  1  0
  6 14  1  0
  6 15  1  0
  7 16  1  0
  9 17  1  0
  9 18  1  0
  9 19  1  0
M  END
