
     RDKit          3D

 16 17  0  0  0  0  0  0  0  0999 V2000
    3.0760    1.3380    0.1057 C   0  0  0  0  0  0  0  0  0  0  0  0
    1.4288    0.4211   -0.2413 C   0  0  0  0  0  0  0  0  0  0  0  0
    0.7556    0.0335   -0.3827 C   0  0  0  0  0  0  0  0  0  0  0  0
    0.7878   -1.2741   -1.3826 O   0  0  0  0  0  0  0  0  0  0  0  0
   -0.5630   -1.0689   -1.1330 C   0  0  0  0  0  0  0  0  0  0  0  0
   -0.4640   -0.6662    0.3870 C   0  0  0  0  0  0  0  0  0  0  0  0
   -0.8368   -0.4182    1.5467 C   0  0  0  0  0  0  0  0  0  0  0  0
   -1.4031    0.6313    0.4286 C   0  0  0  0  0  0  0  0  0  0  0  0
    4.3715    2.0453    0.3766 H   0  0  0  0  0  0  0  0  0  0  0  0
   -0.3389    0.2728   -1.3258 H   0  0  0  0  0  0  0  0  0  0  0  0
   -1.5053   -0.7763   -1.6035 H   0  0  0  0  0  0  0  0  0  0  0  0
   -0.8879   -2.2418   -1.0126 H   0  0  0  0  0  0  0  0  0  0  0  0
   -1.3068   -0.4941    2.4910 H   0  0  0  0  0  0  0  0  0  0  0  0
    0.2550    0.3553    1.9982 H   0  0  0  0  0  0  0  0  0  0  0  0
   -2.4975    0.5085    0.0570 H   0  0  0  0  0  0  0  0  0  0  0  0
   -0.8714    1.3339   -0.3094 H   0  0  0  0  0  0  0  0  0  0  0  0
  1  2  3  0
  2  3  1  0
  3  4  1  0
  4  5  1  0
  5  6  1  0
  6  7  1  0
  7  8  1  0
  6  3  1  0
  8  6  1  0
  1  9  1  0
  3 10  1  0
  5 11  1  0
  5 12  1  0
  7 13  1  0
  7 14  1  0
  8 15  1  0
  8 16  1  0
M  END
