
     RDKit          3D

 21 21  0  0  0  0  0  0  0  0999 V2000
    2.6381    2.4479    0.1248 C   0  0  0  0  0  0  0  0  0  0  0  0
    1.9269    1.4710   -0.0590 C   0  0  0  0  0  0  0  0  0  0  0  0
    1.0619    0.3046   -0.2578 C   0  0  0  0  0  0  0  0  0  0  0  0
   -0.3469    0.5087    0.2146 C   0  0  0  0  0  0  0  0  0  0  0  0
   -1.2304   -0.6806    0.0124 C   0  0  0  0  0  0  0  0  0  0  0  0
   -2.6142   -0.3083    0.5415 C   0  0  0  0  0  0  0  0  0  0  0  0
   -2.5061    0.0083    1.8946 O   0  0  0  0  0  0  0  0  0  0  0  0
    1.3157   -0.4601   -1.5370 C   0  0  0  0  0  0  0  0  0  0  0  0
    1.7201   -1.0155   -0.2120 C   0  0  0  0  0  0  0  0  0  0  0  0
    3.2684    3.2852    0.2875 H   0  0  0  0  0  0  0  0  0  0  0  0
   -0.3488    0.7814    1.2865 H   0  0  0  0  0  0  0  0  0  0  0  0
   -0.7963    1.3583   -0.3764 H   0  0  0  0  0  0  0  0  0  0  0  0
   -1.3487   -0.8451   -1.0928 H   0  0  0  0  0  0  0  0  0  0  0  0
   -0.8493   -1.6088    0.4310 H   0  0  0  0  0  0  0  0  0  0  0  0
   -2.9014    0.6338    0.0239 H   0  0  0  0  0  0  0  0  0  0  0  0
   -3.3553   -1.0927    0.3426 H   0  0  0  0  0  0  0  0  0  0  0  0
   -2.2180   -0.7630    2.4435 H   0  0  0  0  0  0  0  0  0  0  0  0
    0.4621   -0.9747   -2.0239 H   0  0  0  0  0  0  0  0  0  0  0  0
    2.0990   -0.0899   -2.2442 H   0  0  0  0  0  0  0  0  0  0  0  0
    1.2051   -1.9269    0.1527 H   0  0  0  0  0  0  0  0  0  0  0  0
    2.8182   -1.0337    0.0474 H   0  0  0  0  0  0  0  0  0  0  0  0
  1  2  3  0
  2  3  1  0
  3  4  1  0
  4  5  1  0
  5  6  1  0
  6  7  1  0
  3  8  1  0
  8  9  1  0
  9  3  1  0
  1 10  1  0
  4 11  1  0
  4 12  1  0
  5 13  1  0
  5 14  1  0
  6 15  1  0
  6 16  1  0
  7 17  1  0
  8 18  1  0
  8 19  1  0
  9 20  1  0
  9 21  1  0
M  END
