
     RDKit          3D

 17 18  0  0  0  0  0  0  0  0999 V2000
    2.4007    1.5879   -0.7087 C   0  0  0  0  0  0  0  0  0  0  0  0
    1.6462    0.6615   -0.5700 C   0  0  0  0  0  0  0  0  0  0  0  0
    0.7357   -0.4406   -0.4271 C   0  0  0  0  0  0  0  0  0  0  0  0
   -0.0288   -0.3305    0.9063 C   0  0  0  0  0  0  0  0  0  0  0  0
   -0.7304    0.9787    0.6677 C   0  0  0  0  0  0  0  0  0  0  0  0
   -0.9334    1.0436   -0.7079 O   0  0  0  0  0  0  0  0  0  0  0  0
   -0.5618   -0.2122   -1.2291 C   0  0  0  0  0  0  0  0  0  0  0  0
   -1.4159   -1.1581   -0.7206 O   0  0  0  0  0  0  0  0  0  0  0  0
   -1.0545   -1.4182    0.6064 C   0  0  0  0  0  0  0  0  0  0  0  0
    3.0815    2.4139   -0.8198 H   0  0  0  0  0  0  0  0  0  0  0  0
    1.1471   -1.4308   -0.5860 H   0  0  0  0  0  0  0  0  0  0  0  0
    0.5523   -0.4450    1.7750 H   0  0  0  0  0  0  0  0  0  0  0  0
   -0.2105    1.8467    1.0812 H   0  0  0  0  0  0  0  0  0  0  0  0
   -1.7474    0.8887    1.1260 H   0  0  0  0  0  0  0  0  0  0  0  0
   -0.4093   -0.2105   -2.2851 H   0  0  0  0  0  0  0  0  0  0  0  0
   -0.5549   -2.4083    0.5968 H   0  0  0  0  0  0  0  0  0  0  0  0
   -1.9167   -1.3669    1.2949 H   0  0  0  0  0  0  0  0  0  0  0  0
  1  2  3  0
  2  3  1  0
  3  4  1  0
  4  5  1  0
  5  6  1  0
  6  7  1  0
  7  8  1  0
  8  9  1  0
  7  3  1  0
  9  4  1  0
  1 10  1  0
  3 11  1  0
  4 12  1  0
  5 13  1  0
  5 14  1  0
  7 15  1  0
  9 16  1  0
  9 17  1  0
M  END
