
     RDKit          3D

 19 19  0  0  0  0  0  0  0  0999 V2000
    2.9399    0.9236    0.9522 C   0  0  0  0  0  0  0  0  0  0  0  0
    2.1806    0.3810    0.1869 C   0  0  0  0  0  0  0  0  0  0  0  0
    1.2543   -0.2625   -0.7650 C   0  0  0  0  0  0  0  0  0  0  0  0
   -0.0233    0.5272   -0.8414 C   0  0  0  0  0  0  0  0  0  0  0  0
   -1.2064   -0.2711   -0.3922 C   0  0  0  0  0  0  0  0  0  0  0  0
   -2.3805    0.6456   -0.1474 C   0  0  0  0  0  0  0  0  0  0  0  0
   -1.0000   -1.0220    0.7329 O   0  0  0  0  0  0  0  0  0  0  0  0
    0.3277   -1.3328    0.9819 C   0  0  0  0  0  0  0  0  0  0  0  0
    0.9834   -1.5308   -0.2254 O   0  0  0  0  0  0  0  0  0  0  0  0
    3.6262    1.3969    1.6261 H   0  0  0  0  0  0  0  0  0  0  0  0
    1.7272   -0.4352   -1.7509 H   0  0  0  0  0  0  0  0  0  0  0  0
    0.0330    1.4718   -0.2631 H   0  0  0  0  0  0  0  0  0  0  0  0
   -0.1687    0.8120   -1.9040 H   0  0  0  0  0  0  0  0  0  0  0  0
   -1.4695   -0.9684   -1.2214 H   0  0  0  0  0  0  0  0  0  0  0  0
   -2.4691    1.4568   -0.8744 H   0  0  0  0  0  0  0  0  0  0  0  0
   -2.2730    1.0154    0.9042 H   0  0  0  0  0  0  0  0  0  0  0  0
   -3.2961   -0.0062   -0.1355 H   0  0  0  0  0  0  0  0  0  0  0  0
    0.3711   -2.2857    1.5731 H   0  0  0  0  0  0  0  0  0  0  0  0
    0.8432   -0.5156    1.5637 H   0  0  0  0  0  0  0  0  0  0  0  0
  1  2  3  0
  2  3  1  0
  3  4  1  0
  4  5  1  0
  5  6  1  0
  5  7  1  0
  7  8  1  0
  8  9  1  0
  9  3  1  0
  1 10  1  0
  3 11  1  0
  4 12  1  0
  4 13  1  0
  5 14  1  0
  6 15  1  0
  6 16  1  0
  6 17  1  0
  8 18  1  0
  8 19  1  0
M  END
