
     RDKit          3D

 14 13  0  0  0  0  0  0  0  0999 V2000
    3.6009   -0.4508   -0.6018 C   0  0  0  0  0  0  0  0  0  0  0  0
    2.6787   -0.5592    0.2628 C   0  0  0  0  0  0  0  0  0  0  0  0
    1.6480   -0.6596    1.2458 C   0  0  0  0  0  0  0  0  0  0  0  0
    0.3392   -0.3386    0.4870 C   0  0  0  0  0  0  0  0  0  0  0  0
   -0.6603   -0.0764   -0.0861 C   0  0  0  0  0  0  0  0  0  0  0  0
   -1.9690    0.2684   -0.8244 C   0  0  0  0  0  0  0  0  0  0  0  0
   -2.9036    0.9045    0.0735 C   0  0  0  0  0  0  0  0  0  0  0  0
   -2.4176    1.7964    0.8090 O   0  0  0  0  0  0  0  0  0  0  0  0
    4.3835   -0.3768   -1.3259 H   0  0  0  0  0  0  0  0  0  0  0  0
    1.5175   -1.6621    1.6451 H   0  0  0  0  0  0  0  0  0  0  0  0
    1.6978    0.1614    1.9641 H   0  0  0  0  0  0  0  0  0  0  0  0
   -2.3324   -0.6545   -1.3316 H   0  0  0  0  0  0  0  0  0  0  0  0
   -1.6326    0.9594   -1.6621 H   0  0  0  0  0  0  0  0  0  0  0  0
   -3.9501    0.6879    0.1689 H   0  0  0  0  0  0  0  0  0  0  0  0
  1  2  3  0
  2  3  1  0
  3  4  1  0
  4  5  3  0
  5  6  1  0
  6  7  1  0
  7  8  2  0
  1  9  1  0
  3 10  1  0
  3 11  1  0
  6 12  1  0
  6 13  1  0
  7 14  1  0
M  END
