
     RDKit          3D

 19 20  0  0  0  0  0  0  0  0999 V2000
    2.4622    2.4282   -1.4606 C   0  0  0  0  0  0  0  0  0  0  0  0
    1.5877    1.6858   -1.0048 C   0  0  0  0  0  0  0  0  0  0  0  0
    0.5849    0.8410   -0.4579 C   0  0  0  0  0  0  0  0  0  0  0  0
   -0.6785    1.0549   -0.7228 C   0  0  0  0  0  0  0  0  0  0  0  0
   -1.7422    0.1405   -0.1362 C   0  0  0  0  0  0  0  0  0  0  0  0
   -1.0050   -1.1601   -0.0510 C   0  0  0  0  0  0  0  0  0  0  0  0
   -0.7520   -2.0342    1.0340 C   0  0  0  0  0  0  0  0  0  0  0  0
   -0.0019   -0.8215    1.1182 C   0  0  0  0  0  0  0  0  0  0  0  0
    1.1383   -0.2719    0.4244 C   0  0  0  0  0  0  0  0  0  0  0  0
    3.2561    3.0941   -1.8536 H   0  0  0  0  0  0  0  0  0  0  0  0
   -1.0486    1.8477   -1.3462 H   0  0  0  0  0  0  0  0  0  0  0  0
   -2.0550    0.5326    0.8732 H   0  0  0  0  0  0  0  0  0  0  0  0
   -2.6059    0.1847   -0.7962 H   0  0  0  0  0  0  0  0  0  0  0  0
   -0.5542   -1.4212   -1.0505 H   0  0  0  0  0  0  0  0  0  0  0  0
   -0.2344   -2.9840    0.8457 H   0  0  0  0  0  0  0  0  0  0  0  0
   -1.5639   -2.1897    1.8125 H   0  0  0  0  0  0  0  0  0  0  0  0
   -0.3796   -0.0653    1.8890 H   0  0  0  0  0  0  0  0  0  0  0  0
    1.9292    0.1732    1.1041 H   0  0  0  0  0  0  0  0  0  0  0  0
    1.6630   -1.0345   -0.2213 H   0  0  0  0  0  0  0  0  0  0  0  0
  1  2  3  0
  2  3  1  0
  3  4  2  0
  4  5  1  0
  5  6  1  0
  6  7  1  0
  7  8  1  0
  8  9  1  0
  9  3  1  0
  8  6  1  0
  1 10  1  0
  4 11  1  0
  5 12  1  0
  5 13  1  0
  6 14  1  0
  7 15  1  0
  7 16  1  0
  8 17  1  0
  9 18  1  0
  9 19  1  0
M  END
