
     RDKit          3D

 17 17  0  0  0  0  0  0  0  0999 V2000
    3.4351    2.2445   -2.1328 C   0  0  0  0  0  0  0  0  0  0  0  0
    2.4928    1.3317   -1.4814 C   0  0  0  0  0  0  0  0  0  0  0  0
    1.5874    0.4524   -0.8818 C   0  0  0  0  0  0  0  0  0  0  0  0
    1.3463    0.6869    0.6429 C   0  0  0  0  0  0  0  0  0  0  0  0
    0.0134    0.1022    0.9614 C   0  0  0  0  0  0  0  0  0  0  0  0
   -1.0857   -0.3897    1.2449 C   0  0  0  0  0  0  0  0  0  0  0  0
   -2.2742   -0.9399    1.5362 C   0  0  0  0  0  0  0  0  0  0  0  0
   -3.1083   -1.1539    0.2470 C   0  0  0  0  0  0  0  0  0  0  0  0
   -2.9738   -2.0050    1.4236 O   0  0  0  0  0  0  0  0  0  0  0  0
    3.8459    2.6533   -2.4272 H   0  0  0  0  0  0  0  0  0  0  0  0
    0.6996    0.6550   -1.5693 H   0  0  0  0  0  0  0  0  0  0  0  0
    2.0580   -0.5612   -1.1172 H   0  0  0  0  0  0  0  0  0  0  0  0
    2.1446    0.1659    1.1652 H   0  0  0  0  0  0  0  0  0  0  0  0
    1.2692    1.7535    0.7087 H   0  0  0  0  0  0  0  0  0  0  0  0
   -2.9653   -0.0000    2.1605 H   0  0  0  0  0  0  0  0  0  0  0  0
   -4.0532   -0.5574    0.0981 H   0  0  0  0  0  0  0  0  0  0  0  0
   -2.4318   -1.1349   -0.5788 H   0  0  0  0  0  0  0  0  0  0  0  0
  1  2  3  0
  2  3  1  0
  3  4  1  0
  4  5  1  0
  5  6  3  0
  6  7  1  0
  7  8  1  0
  8  9  1  0
  9  7  1  0
  1 10  1  0
  3 11  1  0
  3 12  1  0
  4 13  1  0
  4 14  1  0
  7 15  1  0
  8 16  1  0
  8 17  1  0
M  END
