
     RDKit          3D

 23 23  0  0  0  0  0  0  0  0999 V2000
    2.8930    0.3051   -0.6454 C   0  0  0  0  0  0  0  0  0  0  0  0
    1.6895    0.6807   -0.5013 C   0  0  0  0  0  0  0  0  0  0  0  0
    0.1101    1.1713   -0.2984 C   0  0  0  0  0  0  0  0  0  0  0  0
   -0.0842    1.9371   -1.4436 C   0  0  0  0  0  0  0  0  0  0  0  0
   -0.3024   -0.0447    0.4196 C   0  0  0  0  0  0  0  0  0  0  0  0
    0.1632   -0.1313    1.8395 C   0  0  0  0  0  0  0  0  0  0  0  0
   -1.7040   -0.4420    0.1652 C   0  0  0  0  0  0  0  0  0  0  0  0
   -1.3811   -1.8638    0.1232 C   0  0  0  0  0  0  0  0  0  0  0  0
    0.0700   -1.4113   -0.2478 C   0  0  0  0  0  0  0  0  0  0  0  0
    3.9497   -0.0176   -0.7683 H   0  0  0  0  0  0  0  0  0  0  0  0
    0.4941    1.8770    0.6657 H   0  0  0  0  0  0  0  0  0  0  0  0
    0.7144    2.8409   -1.4327 H   0  0  0  0  0  0  0  0  0  0  0  0
    0.3050    1.4778   -2.4142 H   0  0  0  0  0  0  0  0  0  0  0  0
   -1.0335    2.4907   -1.6208 H   0  0  0  0  0  0  0  0  0  0  0  0
   -0.6502   -0.5781    2.5039 H   0  0  0  0  0  0  0  0  0  0  0  0
    1.0365   -0.7861    1.9328 H   0  0  0  0  0  0  0  0  0  0  0  0
    0.3238    0.9270    2.2267 H   0  0  0  0  0  0  0  0  0  0  0  0
   -2.4620   -0.0449    0.8015 H   0  0  0  0  0  0  0  0  0  0  0  0
   -2.0164   -0.1273   -0.9323 H   0  0  0  0  0  0  0  0  0  0  0  0
   -1.4109   -2.3938    1.0852 H   0  0  0  0  0  0  0  0  0  0  0  0
   -1.8668   -2.4955   -0.6642 H   0  0  0  0  0  0  0  0  0  0  0  0
    0.7699   -1.9903    0.4529 H   0  0  0  0  0  0  0  0  0  0  0  0
    0.3923   -1.3810   -1.2472 H   0  0  0  0  0  0  0  0  0  0  0  0
  1  2  3  0
  2  3  1  0
  3  4  1  0
  3  5  1  0
  5  6  1  0
  5  7  1  0
  7  8  1  0
  8  9  1  0
  9  5  1  0
  1 10  1  0
  3 11  1  0
  4 12  1  0
  4 13  1  0
  4 14  1  0
  6 15  1  0
  6 16  1  0
  6 17  1  0
  7 18  1  0
  7 19  1  0
  8 20  1  0
  8 21  1  0
  9 22  1  0
  9 23  1  0
M  END
