
     RDKit          3D

 21 21  0  0  0  0  0  0  0  0999 V2000
    0.4414    1.9076   -1.7456 C   0  0  0  0  0  0  0  0  0  0  0  0
    0.4158    1.1858   -0.7799 C   0  0  0  0  0  0  0  0  0  0  0  0
    0.4039    0.3134    0.4152 C   0  0  0  0  0  0  0  0  0  0  0  0
    1.6233   -0.1795    0.7875 O   0  0  0  0  0  0  0  0  0  0  0  0
    2.2499   -0.9510   -0.1647 C   0  0  0  0  0  0  0  0  0  0  0  0
   -0.2727    0.9912    1.5956 C   0  0  0  0  0  0  0  0  0  0  0  0
   -1.5839    0.5144    0.9720 C   0  0  0  0  0  0  0  0  0  0  0  0
   -0.7504   -0.6370    0.3995 C   0  0  0  0  0  0  0  0  0  0  0  0
   -1.2424   -1.0843   -0.9414 C   0  0  0  0  0  0  0  0  0  0  0  0
    0.4518    2.5601   -2.5958 H   0  0  0  0  0  0  0  0  0  0  0  0
    3.2272   -1.2827    0.2734 H   0  0  0  0  0  0  0  0  0  0  0  0
    2.4911   -0.3796   -1.0794 H   0  0  0  0  0  0  0  0  0  0  0  0
    1.6923   -1.8719   -0.4374 H   0  0  0  0  0  0  0  0  0  0  0  0
   -0.0528    0.5040    2.5501 H   0  0  0  0  0  0  0  0  0  0  0  0
   -0.1674    2.0942    1.5736 H   0  0  0  0  0  0  0  0  0  0  0  0
   -1.8797    1.2241    0.1695 H   0  0  0  0  0  0  0  0  0  0  0  0
   -2.3462    0.2138    1.6838 H   0  0  0  0  0  0  0  0  0  0  0  0
   -0.6419   -1.4786    1.1107 H   0  0  0  0  0  0  0  0  0  0  0  0
   -1.8744   -0.3033   -1.4205 H   0  0  0  0  0  0  0  0  0  0  0  0
   -1.8312   -2.0196   -0.7897 H   0  0  0  0  0  0  0  0  0  0  0  0
   -0.3537   -1.3211   -1.5766 H   0  0  0  0  0  0  0  0  0  0  0  0
  1  2  3  0
  2  3  1  0
  3  4  1  0
  4  5  1  0
  3  6  1  0
  6  7  1  0
  7  8  1  0
  8  9  1  0
  8  3  1  0
  1 10  1  0
  5 11  1  0
  5 12  1  0
  5 13  1  0
  6 14  1  0
  6 15  1  0
  7 16  1  0
  7 17  1  0
  8 18  1  0
  9 19  1  0
  9 20  1  0
  9 21  1  0
M  END
