
     RDKit          3D

 14 13  0  0  0  0  0  0  0  0999 V2000
   -0.8385    1.9250    2.4734 C   0  0  0  0  0  0  0  0  0  0  0  0
   -0.9089    0.6677    2.3816 C   0  0  0  0  0  0  0  0  0  0  0  0
   -0.9752   -0.4980    2.3023 C   0  0  0  0  0  0  0  0  0  0  0  0
   -0.3757   -0.6768    0.9566 C   0  0  0  0  0  0  0  0  0  0  0  0
    0.2519   -0.8518   -0.4753 C   0  0  0  0  0  0  0  0  0  0  0  0
    0.7885   -0.9906   -1.7063 C   0  0  0  0  0  0  0  0  0  0  0  0
    1.0510    0.1458   -2.6569 C   0  0  0  0  0  0  0  0  0  0  0  0
    1.1659   -2.1490   -2.1957 O   0  0  0  0  0  0  0  0  0  0  0  0
   -0.7504    3.4004    2.5720 H   0  0  0  0  0  0  0  0  0  0  0  0
   -1.2148   -1.5350    2.6869 H   0  0  0  0  0  0  0  0  0  0  0  0
   -2.2248   -0.6287    1.6103 H   0  0  0  0  0  0  0  0  0  0  0  0
    2.1150    0.4684   -1.8897 H   0  0  0  0  0  0  0  0  0  0  0  0
    1.4972   -0.2405   -3.4911 H   0  0  0  0  0  0  0  0  0  0  0  0
    0.4189    0.9631   -2.5682 H   0  0  0  0  0  0  0  0  0  0  0  0
  1  2  3  0
  2  3  1  0
  3  4  1  0
  4  5  3  0
  5  6  1  0
  6  7  1  0
  6  8  2  0
  1  9  1  0
  3 10  1  0
  3 11  1  0
  7 12  1  0
  7 13  1  0
  7 14  1  0
M  END
