
     RDKit          3D

 19 19  0  0  0  0  0  0  0  0999 V2000
    3.1517   -0.5920    0.3485 C   0  0  0  0  0  0  0  0  0  0  0  0
    2.1764    0.1453    0.3253 C   0  0  0  0  0  0  0  0  0  0  0  0
    0.9970    1.0074    0.3000 C   0  0  0  0  0  0  0  0  0  0  0  0
   -0.2032    0.1685   -0.0133 C   0  0  0  0  0  0  0  0  0  0  0  0
   -0.4959   -0.9406    0.9633 C   0  0  0  0  0  0  0  0  0  0  0  0
   -1.6323   -1.6353    0.5508 O   0  0  0  0  0  0  0  0  0  0  0  0
   -0.4046   -0.2220   -1.4312 C   0  0  0  0  0  0  0  0  0  0  0  0
   -1.7882   -0.0067   -1.2580 O   0  0  0  0  0  0  0  0  0  0  0  0
   -1.4244    1.0013   -0.3397 C   0  0  0  0  0  0  0  0  0  0  0  0
    3.9919   -1.2346    0.3860 H   0  0  0  0  0  0  0  0  0  0  0  0
    0.8976    1.5758    1.2462 H   0  0  0  0  0  0  0  0  0  0  0  0
    1.0854    1.7844   -0.5015 H   0  0  0  0  0  0  0  0  0  0  0  0
   -0.6497   -0.4603    1.9589 H   0  0  0  0  0  0  0  0  0  0  0  0
    0.3291   -1.6807    1.0060 H   0  0  0  0  0  0  0  0  0  0  0  0
   -2.4585   -1.1232    0.7215 H   0  0  0  0  0  0  0  0  0  0  0  0
   -0.2684   -1.3047   -1.6730 H   0  0  0  0  0  0  0  0  0  0  0  0
   -0.0177    0.4354   -2.2070 H   0  0  0  0  0  0  0  0  0  0  0  0
   -2.1468    1.1274    0.4858 H   0  0  0  0  0  0  0  0  0  0  0  0
   -1.1394    1.9546   -0.8686 H   0  0  0  0  0  0  0  0  0  0  0  0
  1  2  3  0
  2  3  1  0
  3  4  1  0
  4  5  1  0
  5  6  1  0
  4  7  1  0
  7  8  1  0
  8  9  1  0
  9  4  1  0
  1 10  1  0
  3 11  1  0
  3 12  1  0
  5 13  1  0
  5 14  1  0
  6 15  1  0
  7 16  1  0
  7 17  1  0
  9 18  1  0
  9 19  1  0
M  END
