
     RDKit          3D

 19 20  0  0  0  0  0  0  0  0999 V2000
   -0.4284    2.8005    0.2519 C   0  0  0  0  0  0  0  0  0  0  0  0
   -0.1298    1.6398    0.1476 C   0  0  0  0  0  0  0  0  0  0  0  0
    0.2183    0.1988    0.0324 C   0  0  0  0  0  0  0  0  0  0  0  0
    1.6202   -0.0164   -0.4102 C   0  0  0  0  0  0  0  0  0  0  0  0
    2.4498    0.5937    0.5617 O   0  0  0  0  0  0  0  0  0  0  0  0
   -0.3757   -0.6680    1.0616 C   0  0  0  0  0  0  0  0  0  0  0  0
   -1.7077   -0.1909    0.5274 C   0  0  0  0  0  0  0  0  0  0  0  0
   -0.8804   -0.4998   -0.7125 C   0  0  0  0  0  0  0  0  0  0  0  0
   -0.5021   -1.7319   -0.0020 C   0  0  0  0  0  0  0  0  0  0  0  0
   -0.7030    3.8183    0.3529 H   0  0  0  0  0  0  0  0  0  0  0  0
    1.9562   -1.0658   -0.4459 H   0  0  0  0  0  0  0  0  0  0  0  0
    1.8055    0.4971   -1.3939 H   0  0  0  0  0  0  0  0  0  0  0  0
    3.4108    0.5557    0.2755 H   0  0  0  0  0  0  0  0  0  0  0  0
   -0.1403   -0.8087    2.0210 H   0  0  0  0  0  0  0  0  0  0  0  0
   -2.4954   -0.9115    0.7508 H   0  0  0  0  0  0  0  0  0  0  0  0
   -1.9461    0.8646    0.6852 H   0  0  0  0  0  0  0  0  0  0  0  0
   -1.1764   -0.3478   -1.6531 H   0  0  0  0  0  0  0  0  0  0  0  0
    0.3810   -2.2980   -0.2725 H   0  0  0  0  0  0  0  0  0  0  0  0
   -1.3565   -2.4298    0.1562 H   0  0  0  0  0  0  0  0  0  0  0  0
  1  2  3  0
  2  3  1  0
  3  4  1  0
  4  5  1  0
  3  6  1  0
  6  7  1  0
  7  8  1  0
  8  9  1  0
  8  3  1  0
  9  6  1  0
  1 10  1  0
  4 11  1  0
  4 12  1  0
  5 13  1  0
  6 14  1  0
  7 15  1  0
  7 16  1  0
  8 17  1  0
  9 18  1  0
  9 19  1  0
M  END
