
     RDKit          3D

 21 21  0  0  0  0  0  0  0  0999 V2000
    4.0193   -0.6404    1.4504 C   0  0  0  0  0  0  0  0  0  0  0  0
    2.9218   -0.2734    0.6850 C   0  0  0  0  0  0  0  0  0  0  0  0
    1.9550    0.0333   -0.0031 C   0  0  0  0  0  0  0  0  0  0  0  0
    1.6530    1.4178   -0.2227 O   0  0  0  0  0  0  0  0  0  0  0  0
    0.5597   -0.6267    0.2536 C   0  0  0  0  0  0  0  0  0  0  0  0
   -0.3591    0.0589   -0.6943 C   0  0  0  0  0  0  0  0  0  0  0  0
   -1.7879   -0.4176   -0.6161 C   0  0  0  0  0  0  0  0  0  0  0  0
   -2.5626   -0.3212    0.6222 C   0  0  0  0  0  0  0  0  0  0  0  0
   -2.7646    0.7846   -0.3607 C   0  0  0  0  0  0  0  0  0  0  0  0
    4.8359   -0.9226    2.0101 H   0  0  0  0  0  0  0  0  0  0  0  0
    2.0492   -0.2736   -1.1610 H   0  0  0  0  0  0  0  0  0  0  0  0
    2.4771    1.7319   -0.7007 H   0  0  0  0  0  0  0  0  0  0  0  0
    0.3163   -0.4944    1.2793 H   0  0  0  0  0  0  0  0  0  0  0  0
    0.6599   -1.7218    0.0463 H   0  0  0  0  0  0  0  0  0  0  0  0
   -0.3078    1.1725   -0.4532 H   0  0  0  0  0  0  0  0  0  0  0  0
    0.0063   -0.0183   -1.7309 H   0  0  0  0  0  0  0  0  0  0  0  0
   -2.1580   -1.0711   -1.4234 H   0  0  0  0  0  0  0  0  0  0  0  0
   -2.1170   -0.0210    1.5866 H   0  0  0  0  0  0  0  0  0  0  0  0
   -3.4460   -0.9926    0.7794 H   0  0  0  0  0  0  0  0  0  0  0  0
   -2.3086    1.7670   -0.2092 H   0  0  0  0  0  0  0  0  0  0  0  0
   -3.6422    0.8286   -1.0360 H   0  0  0  0  0  0  0  0  0  0  0  0
  1  2  3  0
  2  3  1  0
  3  4  1  0
  3  5  1  0
  5  6  1  0
  6  7  1  0
  7  8  1  0
  8  9  1  0
  9  7  1  0
  1 10  1  0
  3 11  1  0
  4 12  1  0
  5 13  1  0
  5 14  1  0
  6 15  1  0
  6 16  1  0
  7 17  1  0
  8 18  1  0
  8 19  1  0
  9 20  1  0
  9 21  1  0
M  END
