
     RDKit          3D

 17 17  0  0  0  0  0  0  0  0999 V2000
    2.5809    0.3192    0.8898 C   0  0  0  0  0  0  0  0  0  0  0  0
    1.4524    0.5578    0.3249 C   0  0  0  0  0  0  0  0  0  0  0  0
   -0.0448    0.8778   -0.4193 C   0  0  0  0  0  0  0  0  0  0  0  0
    0.5544   -0.1853   -1.5628 C   0  0  0  0  0  0  0  0  0  0  0  0
    0.8493   -1.2788   -0.8803 O   0  0  0  0  0  0  0  0  0  0  0  0
   -0.0025   -1.2148    0.3609 C   0  0  0  0  0  0  0  0  0  0  0  0
   -0.8919   -0.1050    0.0122 C   0  0  0  0  0  0  0  0  0  0  0  0
   -1.7402    0.3612    0.7755 C   0  0  0  0  0  0  0  0  0  0  0  0
   -2.6825    0.8991    1.6294 C   0  0  0  0  0  0  0  0  0  0  0  0
    3.9137    0.0252    1.5556 H   0  0  0  0  0  0  0  0  0  0  0  0
    0.1275    1.8032   -0.6354 H   0  0  0  0  0  0  0  0  0  0  0  0
    1.3872    0.2528   -2.1003 H   0  0  0  0  0  0  0  0  0  0  0  0
   -0.3451   -0.5277   -2.1632 H   0  0  0  0  0  0  0  0  0  0  0  0
   -0.6203   -2.1318    0.4904 H   0  0  0  0  0  0  0  0  0  0  0  0
    0.7074   -0.8341    1.1735 H   0  0  0  0  0  0  0  0  0  0  0  0
   -1.4247   -0.3956   -1.0601 H   0  0  0  0  0  0  0  0  0  0  0  0
   -3.8209    1.5765    2.6715 H   0  0  0  0  0  0  0  0  0  0  0  0
  1  2  3  0
  2  3  1  0
  3  4  1  0
  4  5  1  0
  5  6  1  0
  6  7  1  0
  7  8  1  0
  8  9  3  0
  7  3  1  0
  1 10  1  0
  3 11  1  0
  4 12  1  0
  4 13  1  0
  6 14  1  0
  6 15  1  0
  7 16  1  0
  9 17  1  0
M  END
