
     RDKit          3D

 19 20  0  0  0  0  0  0  0  0999 V2000
    2.9046    0.8296   -1.6681 C   0  0  0  0  0  0  0  0  0  0  0  0
    2.1375    0.4526   -0.8180 C   0  0  0  0  0  0  0  0  0  0  0  0
    1.1926    0.0019    0.2039 C   0  0  0  0  0  0  0  0  0  0  0  0
    1.1605   -1.4573    0.4360 C   0  0  0  0  0  0  0  0  0  0  0  0
    0.0146   -0.7680   -0.2065 C   0  0  0  0  0  0  0  0  0  0  0  0
   -1.1040   -0.1955    0.6380 C   0  0  0  0  0  0  0  0  0  0  0  0
   -2.2779    0.0925   -0.2603 C   0  0  0  0  0  0  0  0  0  0  0  0
   -0.4871    1.0775    1.1529 C   0  0  0  0  0  0  0  0  0  0  0  0
    0.8771    0.8251    1.2536 O   0  0  0  0  0  0  0  0  0  0  0  0
    3.5806    1.1825   -2.4308 H   0  0  0  0  0  0  0  0  0  0  0  0
    0.9737   -1.8247    1.4721 H   0  0  0  0  0  0  0  0  0  0  0  0
    1.7607   -2.1352   -0.1651 H   0  0  0  0  0  0  0  0  0  0  0  0
   -0.1983   -1.0328   -1.2603 H   0  0  0  0  0  0  0  0  0  0  0  0
   -1.3612   -0.9053    1.4559 H   0  0  0  0  0  0  0  0  0  0  0  0
   -2.6310   -0.8284   -0.7415 H   0  0  0  0  0  0  0  0  0  0  0  0
   -1.8964    0.7596   -1.0743 H   0  0  0  0  0  0  0  0  0  0  0  0
   -3.0780    0.6648    0.2529 H   0  0  0  0  0  0  0  0  0  0  0  0
   -0.9181    1.4022    2.1189 H   0  0  0  0  0  0  0  0  0  0  0  0
   -0.6502    1.8589    0.3863 H   0  0  0  0  0  0  0  0  0  0  0  0
  1  2  3  0
  2  3  1  0
  3  4  1  0
  4  5  1  0
  5  6  1  0
  6  7  1  0
  6  8  1  0
  8  9  1  0
  5  3  1  0
  9  3  1  0
  1 10  1  0
  4 11  1  0
  4 12  1  0
  5 13  1  0
  6 14  1  0
  7 15  1  0
  7 16  1  0
  7 17  1  0
  8 18  1  0
  8 19  1  0
M  END
