
     RDKit          3D

 15 16  0  0  0  0  0  0  0  0999 V2000
    1.7073    0.6707    2.0149 C   0  0  0  0  0  0  0  0  0  0  0  0
    1.0634   -0.0458    1.2924 C   0  0  0  0  0  0  0  0  0  0  0  0
    0.3057   -0.8808    0.4163 C   0  0  0  0  0  0  0  0  0  0  0  0
   -1.2102   -0.6211    0.3591 C   0  0  0  0  0  0  0  0  0  0  0  0
   -0.7458    0.6364   -0.3314 C   0  0  0  0  0  0  0  0  0  0  0  0
   -0.0992    0.7949   -1.5981 C   0  0  0  0  0  0  0  0  0  0  0  0
    0.1595   -0.4695   -1.0219 C   0  0  0  0  0  0  0  0  0  0  0  0
    2.2737    1.2969    2.6546 H   0  0  0  0  0  0  0  0  0  0  0  0
    0.5761   -1.9394    0.5531 H   0  0  0  0  0  0  0  0  0  0  0  0
   -1.6968   -0.4537    1.3025 H   0  0  0  0  0  0  0  0  0  0  0  0
   -1.6632   -1.3505   -0.3395 H   0  0  0  0  0  0  0  0  0  0  0  0
   -0.2204    1.2531    0.4617 H   0  0  0  0  0  0  0  0  0  0  0  0
    0.8008    1.4621   -1.7694 H   0  0  0  0  0  0  0  0  0  0  0  0
   -0.7963    0.9429   -2.4794 H   0  0  0  0  0  0  0  0  0  0  0  0
   -0.4549   -1.2961   -1.5149 H   0  0  0  0  0  0  0  0  0  0  0  0
  1  2  3  0
  2  3  1  0
  3  4  1  0
  4  5  1  0
  5  6  1  0
  6  7  1  0
  7  3  1  0
  7  5  1  0
  1  8  1  0
  3  9  1  0
  4 10  1  0
  4 11  1  0
  5 12  1  0
  6 13  1  0
  6 14  1  0
  7 15  1  0
M  END
