
     RDKit          3D

 18 18  0  0  0  0  0  0  0  0999 V2000
    3.1068   -0.3152    0.1750 C   0  0  0  0  0  0  0  0  0  0  0  0
    1.9875   -0.6318   -0.1463 C   0  0  0  0  0  0  0  0  0  0  0  0
    0.6253   -1.0155   -0.5109 C   0  0  0  0  0  0  0  0  0  0  0  0
   -0.3137   -0.0251    0.1540 C   0  0  0  0  0  0  0  0  0  0  0  0
   -0.0734    1.4053   -0.2837 C   0  0  0  0  0  0  0  0  0  0  0  0
   -0.2677    1.4643   -1.6632 O   0  0  0  0  0  0  0  0  0  0  0  0
   -0.9491   -0.3336    1.4505 C   0  0  0  0  0  0  0  0  0  0  0  0
   -1.7972   -0.3805    0.1994 C   0  0  0  0  0  0  0  0  0  0  0  0
    4.0913   -0.0387    0.4578 H   0  0  0  0  0  0  0  0  0  0  0  0
    0.4502   -0.9008   -1.6138 H   0  0  0  0  0  0  0  0  0  0  0  0
    0.3922   -2.0548   -0.2434 H   0  0  0  0  0  0  0  0  0  0  0  0
   -0.8884    2.0219    0.1822 H   0  0  0  0  0  0  0  0  0  0  0  0
    0.9043    1.7924    0.0328 H   0  0  0  0  0  0  0  0  0  0  0  0
   -0.8144    0.7366   -2.0118 H   0  0  0  0  0  0  0  0  0  0  0  0
   -0.7523   -1.3067    1.9107 H   0  0  0  0  0  0  0  0  0  0  0  0
   -1.1232    0.5311    2.1398 H   0  0  0  0  0  0  0  0  0  0  0  0
   -2.0319   -1.3472   -0.2585 H   0  0  0  0  0  0  0  0  0  0  0  0
   -2.5463    0.3983    0.0294 H   0  0  0  0  0  0  0  0  0  0  0  0
  1  2  3  0
  2  3  1  0
  3  4  1  0
  4  5  1  0
  5  6  1  0
  4  7  1  0
  7  8  1  0
  8  4  1  0
  1  9  1  0
  3 10  1  0
  3 11  1  0
  5 12  1  0
  5 13  1  0
  6 14  1  0
  7 15  1  0
  7 16  1  0
  8 17  1  0
  8 18  1  0
M  END
