
     RDKit          3D

 16 15  0  0  0  0  0  0  0  0999 V2000
    1.9092   -2.0733    1.1409 C   0  0  0  0  0  0  0  0  0  0  0  0
    1.0686   -1.7938    0.3154 C   0  0  0  0  0  0  0  0  0  0  0  0
    0.0446   -1.4291   -0.6823 C   0  0  0  0  0  0  0  0  0  0  0  0
   -0.1308    0.0685   -0.5883 C   0  0  0  0  0  0  0  0  0  0  0  0
   -0.5835    0.5009    0.7954 C   0  0  0  0  0  0  0  0  0  0  0  0
   -0.7171    2.0192    0.7416 C   0  0  0  0  0  0  0  0  0  0  0  0
    2.6494   -2.3000    1.8637 H   0  0  0  0  0  0  0  0  0  0  0  0
   -0.9034   -1.8933   -0.4181 H   0  0  0  0  0  0  0  0  0  0  0  0
    0.3799   -1.6515   -1.7079 H   0  0  0  0  0  0  0  0  0  0  0  0
    0.8149    0.6181   -0.7911 H   0  0  0  0  0  0  0  0  0  0  0  0
   -0.8751    0.4408   -1.3207 H   0  0  0  0  0  0  0  0  0  0  0  0
    0.2179    0.2494    1.5072 H   0  0  0  0  0  0  0  0  0  0  0  0
   -1.5493    0.0853    1.0863 H   0  0  0  0  0  0  0  0  0  0  0  0
    0.1134    2.4781    0.1459 H   0  0  0  0  0  0  0  0  0  0  0  0
   -1.6637    2.2907    0.1988 H   0  0  0  0  0  0  0  0  0  0  0  0
   -0.7751    2.3899    1.7684 H   0  0  0  0  0  0  0  0  0  0  0  0
  1  2  3  0
  2  3  1  0
  3  4  1  0
  4  5  1  0
  5  6  1  0
  1  7  1  0
  3  8  1  0
  3  9  1  0
  4 10  1  0
  4 11  1  0
  5 12  1  0
  5 13  1  0
  6 14  1  0
  6 15  1  0
  6 16  1  0
M  END
