
     RDKit          3D

 17 17  0  0  0  0  0  0  0  0999 V2000
   -3.3787    1.0026    1.8922 C   0  0  0  0  0  0  0  0  0  0  0  0
   -2.4082    0.5857    1.2277 C   0  0  0  0  0  0  0  0  0  0  0  0
   -1.3227    0.0960    0.4750 C   0  0  0  0  0  0  0  0  0  0  0  0
   -0.7133   -0.9975    0.2591 C   0  0  0  0  0  0  0  0  0  0  0  0
    0.3747   -0.7260   -0.7081 C   0  0  0  0  0  0  0  0  0  0  0  0
    1.4795   -0.2614   -0.0121 O   0  0  0  0  0  0  0  0  0  0  0  0
    2.6847   -0.5832   -0.5539 C   0  0  0  0  0  0  0  0  0  0  0  0
   -0.1414    0.4298   -1.3949 O   0  0  0  0  0  0  0  0  0  0  0  0
   -0.4521    1.1762   -0.2953 C   0  0  0  0  0  0  0  0  0  0  0  0
   -4.1638    1.3346    2.4487 H   0  0  0  0  0  0  0  0  0  0  0  0
   -0.9365   -1.9801    0.7197 H   0  0  0  0  0  0  0  0  0  0  0  0
    0.5632   -1.4709   -1.4735 H   0  0  0  0  0  0  0  0  0  0  0  0
    2.8366    0.0072   -1.5353 H   0  0  0  0  0  0  0  0  0  0  0  0
    3.5541   -0.4419    0.0508 H   0  0  0  0  0  0  0  0  0  0  0  0
    2.6881   -1.6376   -0.9956 H   0  0  0  0  0  0  0  0  0  0  0  0
    0.4185    1.4151    0.3720 H   0  0  0  0  0  0  0  0  0  0  0  0
   -1.0827    2.0514   -0.4767 H   0  0  0  0  0  0  0  0  0  0  0  0
  1  2  3  0
  2  3  1  0
  3  4  2  0
  4  5  1  0
  5  6  1  0
  6  7  1  0
  5  8  1  0
  8  9  1  0
  9  3  1  0
  1 10  1  0
  4 11  1  0
  5 12  1  0
  7 13  1  0
  7 14  1  0
  7 15  1  0
  9 16  1  0
  9 17  1  0
M  END
