
     RDKit          3D

 17 18  0  0  0  0  0  0  0  0999 V2000
    3.0122    0.7985   -1.0811 C   0  0  0  0  0  0  0  0  0  0  0  0
    1.9202    0.3352   -0.8703 C   0  0  0  0  0  0  0  0  0  0  0  0
    0.6185   -0.2420   -0.6186 C   0  0  0  0  0  0  0  0  0  0  0  0
   -0.1974   -0.7369   -1.7761 C   0  0  0  0  0  0  0  0  0  0  0  0
   -1.4704   -0.8127   -1.4121 C   0  0  0  0  0  0  0  0  0  0  0  0
   -1.6327   -0.3789    0.0166 C   0  0  0  0  0  0  0  0  0  0  0  0
   -0.2074   -0.0238    0.4345 C   0  0  0  0  0  0  0  0  0  0  0  0
   -0.0842    0.8143    1.6572 C   0  0  0  0  0  0  0  0  0  0  0  0
    0.5945   -1.2312    0.4924 O   0  0  0  0  0  0  0  0  0  0  0  0
    3.9961    1.1967   -1.2635 H   0  0  0  0  0  0  0  0  0  0  0  0
    0.1903   -0.9923   -2.7550 H   0  0  0  0  0  0  0  0  0  0  0  0
   -2.3002   -1.1387   -2.0368 H   0  0  0  0  0  0  0  0  0  0  0  0
   -2.0229   -1.2352    0.6080 H   0  0  0  0  0  0  0  0  0  0  0  0
   -2.2794    0.5247    0.0914 H   0  0  0  0  0  0  0  0  0  0  0  0
   -1.0841    1.1327    2.0170 H   0  0  0  0  0  0  0  0  0  0  0  0
    0.4047    0.2880    2.5034 H   0  0  0  0  0  0  0  0  0  0  0  0
    0.5422    1.7013    1.4082 H   0  0  0  0  0  0  0  0  0  0  0  0
  1  2  3  0
  2  3  1  0
  3  4  1  0
  4  5  2  0
  5  6  1  0
  6  7  1  0
  7  8  1  0
  7  9  1  0
  7  3  1  0
  9  3  1  0
  1 10  1  0
  4 11  1  0
  5 12  1  0
  6 13  1  0
  6 14  1  0
  8 15  1  0
  8 16  1  0
  8 17  1  0
M  END
