
     RDKit          3D

 14 14  0  0  0  0  0  0  0  0999 V2000
    1.1519    2.7986   -0.3967 C   0  0  0  0  0  0  0  0  0  0  0  0
    0.7577    1.6181   -0.6161 C   0  0  0  0  0  0  0  0  0  0  0  0
    0.3394    0.4041   -0.8617 C   0  0  0  0  0  0  0  0  0  0  0  0
   -1.0718   -0.0869   -1.0982 C   0  0  0  0  0  0  0  0  0  0  0  0
   -1.0884   -1.2732   -1.8761 O   0  0  0  0  0  0  0  0  0  0  0  0
   -0.6965   -0.0991    0.3052 C   0  0  0  0  0  0  0  0  0  0  0  0
    0.0096   -1.2375    0.9689 C   0  0  0  0  0  0  0  0  0  0  0  0
    0.6212   -2.2670    1.5634 C   0  0  0  0  0  0  0  0  0  0  0  0
    1.5463    4.0403   -0.1673 H   0  0  0  0  0  0  0  0  0  0  0  0
    1.1338   -0.3876   -1.0905 H   0  0  0  0  0  0  0  0  0  0  0  0
   -1.6798    0.7521   -1.5540 H   0  0  0  0  0  0  0  0  0  0  0  0
   -1.0858   -2.0769   -1.2708 H   0  0  0  0  0  0  0  0  0  0  0  0
   -0.9194    0.7171    0.9958 H   0  0  0  0  0  0  0  0  0  0  0  0
    0.9819   -2.9020    1.9290 H   0  0  0  0  0  0  0  0  0  0  0  0
  1  2  3  0
  2  3  1  0
  3  4  1  0
  4  5  1  0
  4  6  1  0
  6  7  1  0
  7  8  3  0
  6  3  1  0
  1  9  1  0
  3 10  1  0
  4 11  1  0
  5 12  1  0
  6 13  1  0
  8 14  1  0
M  END
