
     RDKit          3D

 21 20  0  0  0  0  0  0  0  0999 V2000
    2.7805    3.4000   -0.6359 C   0  0  0  0  0  0  0  0  0  0  0  0
    2.1158    2.3433   -0.5205 C   0  0  0  0  0  0  0  0  0  0  0  0
    1.4032    1.2179   -0.4122 C   0  0  0  0  0  0  0  0  0  0  0  0
    0.9042    0.4529   -0.3452 C   0  0  0  0  0  0  0  0  0  0  0  0
   -0.0049   -0.9710   -0.2174 C   0  0  0  0  0  0  0  0  0  0  0  0
   -0.0762   -1.6781   -1.3903 C   0  0  0  0  0  0  0  0  0  0  0  0
    0.3224   -1.4065    1.1253 C   0  0  0  0  0  0  0  0  0  0  0  0
   -1.4348   -0.2265   -0.1080 C   0  0  0  0  0  0  0  0  0  0  0  0
   -1.4727    0.6036    1.1062 C   0  0  0  0  0  0  0  0  0  0  0  0
    3.3955    4.3733   -0.7236 H   0  0  0  0  0  0  0  0  0  0  0  0
   -1.1925   -2.1315   -1.4047 H   0  0  0  0  0  0  0  0  0  0  0  0
    0.4991   -2.6824   -1.4285 H   0  0  0  0  0  0  0  0  0  0  0  0
   -0.0691   -1.1429   -2.3944 H   0  0  0  0  0  0  0  0  0  0  0  0
   -0.6073   -1.0925    1.8269 H   0  0  0  0  0  0  0  0  0  0  0  0
    1.2054   -0.8680    1.6054 H   0  0  0  0  0  0  0  0  0  0  0  0
    0.3962   -2.4854    1.2851 H   0  0  0  0  0  0  0  0  0  0  0  0
   -2.2178   -0.9151   -0.3219 H   0  0  0  0  0  0  0  0  0  0  0  0
   -1.2753    0.4995   -0.9647 H   0  0  0  0  0  0  0  0  0  0  0  0
   -2.2595    0.2371    1.8310 H   0  0  0  0  0  0  0  0  0  0  0  0
   -0.5211    0.8368    1.5558 H   0  0  0  0  0  0  0  0  0  0  0  0
   -1.8909    1.6355    0.8092 H   0  0  0  0  0  0  0  0  0  0  0  0
  1  2  3  0
  2  3  1  0
  3  4  3  0
  4  5  1  0
  5  6  1  0
  5  7  1  0
  5  8  1  0
  8  9  1  0
  1 10  1  0
  6 11  1  0
  6 12  1  0
  6 13  1  0
  7 14  1  0
  7 15  1  0
  7 16  1  0
  8 17  1  0
  8 18  1  0
  9 19  1  0
  9 20  1  0
  9 21  1  0
M  END
