
     RDKit          3D

 16 15  0  0  0  0  0  0  0  0999 V2000
   -1.9966    0.8548    2.0467 C   0  0  0  0  0  0  0  0  0  0  0  0
   -1.5759    0.5717    0.8856 C   0  0  0  0  0  0  0  0  0  0  0  0
   -1.1046    0.2278   -0.4366 C   0  0  0  0  0  0  0  0  0  0  0  0
   -1.6324   -1.0442   -0.9224 C   0  0  0  0  0  0  0  0  0  0  0  0
   -1.0333   -1.8567   -1.5687 O   0  0  0  0  0  0  0  0  0  0  0  0
    0.4137    0.3377   -0.4929 C   0  0  0  0  0  0  0  0  0  0  0  0
    1.0766   -0.4803    0.3740 O   0  0  0  0  0  0  0  0  0  0  0  0
    2.4496   -0.2700    0.2201 C   0  0  0  0  0  0  0  0  0  0  0  0
   -2.3252    1.0967    2.9700 H   0  0  0  0  0  0  0  0  0  0  0  0
   -1.4539    1.0046   -1.1969 H   0  0  0  0  0  0  0  0  0  0  0  0
   -2.6831   -1.2587   -0.6609 H   0  0  0  0  0  0  0  0  0  0  0  0
    0.7021    0.0426   -1.5370 H   0  0  0  0  0  0  0  0  0  0  0  0
    0.6485    1.4053   -0.3024 H   0  0  0  0  0  0  0  0  0  0  0  0
    2.9821   -0.9710    0.9201 H   0  0  0  0  0  0  0  0  0  0  0  0
    2.8253   -0.4519   -0.7925 H   0  0  0  0  0  0  0  0  0  0  0  0
    2.7070    0.7918    0.4937 H   0  0  0  0  0  0  0  0  0  0  0  0
  1  2  3  0
  2  3  1  0
  3  4  1  0
  4  5  2  0
  3  6  1  0
  6  7  1  0
  7  8  1  0
  1  9  1  0
  3 10  1  0
  4 11  1  0
  6 12  1  0
  6 13  1  0
  8 14  1  0
  8 15  1  0
  8 16  1  0
M  END
