
     RDKit          3D

 16 15  0  0  0  0  0  0  0  0999 V2000
    4.5665    1.1455   -1.1460 C   0  0  0  0  0  0  0  0  0  0  0  0
    3.3674   -0.0245   -1.0314 C   0  0  0  0  0  0  0  0  0  0  0  0
    2.3938   -0.9483   -0.9538 C   0  0  0  0  0  0  0  0  0  0  0  0
    1.1451   -0.5954   -0.4511 C   0  0  0  0  0  0  0  0  0  0  0  0
   -0.0864   -0.2560    0.0623 C   0  0  0  0  0  0  0  0  0  0  0  0
   -1.1743    0.0538    0.5372 C   0  0  0  0  0  0  0  0  0  0  0  0
   -2.3303   -0.0280   -0.3230 O   0  0  0  0  0  0  0  0  0  0  0  0
   -3.4979    0.3917    0.2713 C   0  0  0  0  0  0  0  0  0  0  0  0
    5.1277    1.6778   -1.1910 H   0  0  0  0  0  0  0  0  0  0  0  0
    2.6998   -1.8822   -0.3070 H   0  0  0  0  0  0  0  0  0  0  0  0
    2.1586   -1.4670   -2.0061 H   0  0  0  0  0  0  0  0  0  0  0  0
   -1.5675   -0.7974    1.3243 H   0  0  0  0  0  0  0  0  0  0  0  0
   -1.3070    0.9809    1.2475 H   0  0  0  0  0  0  0  0  0  0  0  0
   -3.6887   -0.1045    1.2248 H   0  0  0  0  0  0  0  0  0  0  0  0
   -3.3540    1.5047    0.4197 H   0  0  0  0  0  0  0  0  0  0  0  0
   -4.4528    0.3488   -0.3599 H   0  0  0  0  0  0  0  0  0  0  0  0
  1  2  3  0
  2  3  1  0
  3  4  1  0
  4  5  3  0
  5  6  1  0
  6  7  1  0
  7  8  1  0
  1  9  1  0
  3 10  1  0
  3 11  1  0
  6 12  1  0
  6 13  1  0
  8 14  1  0
  8 15  1  0
  8 16  1  0
M  END
