
     RDKit          3D

 19 19  0  0  0  0  0  0  0  0999 V2000
    2.2542   -0.1414   -2.1703 C   0  0  0  0  0  0  0  0  0  0  0  0
    1.8811    0.1012   -1.0483 C   0  0  0  0  0  0  0  0  0  0  0  0
    1.4233    0.4079    0.3261 C   0  0  0  0  0  0  0  0  0  0  0  0
   -0.0752    0.3920    0.2973 C   0  0  0  0  0  0  0  0  0  0  0  0
   -0.6697    1.3927   -0.6430 C   0  0  0  0  0  0  0  0  0  0  0  0
   -0.5775    0.5841    1.6047 O   0  0  0  0  0  0  0  0  0  0  0  0
   -1.5369   -0.4410    1.4793 C   0  0  0  0  0  0  0  0  0  0  0  0
   -0.7263   -0.9650    0.3206 C   0  0  0  0  0  0  0  0  0  0  0  0
    0.1203   -2.0192    0.6292 O   0  0  0  0  0  0  0  0  0  0  0  0
    2.5773   -0.3734   -3.1627 H   0  0  0  0  0  0  0  0  0  0  0  0
    1.8456   -0.2758    1.0626 H   0  0  0  0  0  0  0  0  0  0  0  0
    1.7501    1.4389    0.5730 H   0  0  0  0  0  0  0  0  0  0  0  0
   -1.5232    1.9552   -0.2239 H   0  0  0  0  0  0  0  0  0  0  0  0
    0.1056    2.1511   -0.9185 H   0  0  0  0  0  0  0  0  0  0  0  0
   -1.0455    0.9034   -1.5886 H   0  0  0  0  0  0  0  0  0  0  0  0
   -1.5515   -1.1682    2.2950 H   0  0  0  0  0  0  0  0  0  0  0  0
   -2.5087    0.0193    1.1995 H   0  0  0  0  0  0  0  0  0  0  0  0
   -1.3767   -1.1036   -0.5618 H   0  0  0  0  0  0  0  0  0  0  0  0
   -0.3664   -2.8583    0.5298 H   0  0  0  0  0  0  0  0  0  0  0  0
  1  2  3  0
  2  3  1  0
  3  4  1  0
  4  5  1  0
  4  6  1  0
  6  7  1  0
  7  8  1  0
  8  9  1  0
  8  4  1  0
  1 10  1  0
  3 11  1  0
  3 12  1  0
  5 13  1  0
  5 14  1  0
  5 15  1  0
  7 16  1  0
  7 17  1  0
  8 18  1  0
  9 19  1  0
M  END
