
     RDKit          3D

 15 15  0  0  0  0  0  0  0  0999 V2000
    2.2027   -1.4313    0.0838 C   0  0  0  0  0  0  0  0  0  0  0  0
    1.3265   -0.5794    0.1293 C   0  0  0  0  0  0  0  0  0  0  0  0
    0.2594    0.4241    0.1762 C   0  0  0  0  0  0  0  0  0  0  0  0
    0.6857    1.7710    0.6065 C   0  0  0  0  0  0  0  0  0  0  0  0
   -0.1408    2.6498    0.6690 O   0  0  0  0  0  0  0  0  0  0  0  0
   -0.7134    0.3381   -0.9887 C   0  0  0  0  0  0  0  0  0  0  0  0
   -0.4993   -0.6344   -1.9488 O   0  0  0  0  0  0  0  0  0  0  0  0
   -1.1353   -0.0351    0.3757 C   0  0  0  0  0  0  0  0  0  0  0  0
   -1.3097   -1.3839    0.6783 O   0  0  0  0  0  0  0  0  0  0  0  0
    2.9592   -2.1705    0.0446 H   0  0  0  0  0  0  0  0  0  0  0  0
    1.7031    1.9901    0.8639 H   0  0  0  0  0  0  0  0  0  0  0  0
   -1.0104    1.3228   -1.4161 H   0  0  0  0  0  0  0  0  0  0  0  0
   -1.0354   -1.4472   -1.8227 H   0  0  0  0  0  0  0  0  0  0  0  0
   -1.8842    0.6243    0.8829 H   0  0  0  0  0  0  0  0  0  0  0  0
   -1.4081   -1.4385    1.6660 H   0  0  0  0  0  0  0  0  0  0  0  0
  1  2  3  0
  2  3  1  0
  3  4  1  0
  4  5  2  0
  3  6  1  0
  6  7  1  0
  6  8  1  0
  8  9  1  0
  8  3  1  0
  1 10  1  0
  4 11  1  0
  6 12  1  0
  7 13  1  0
  8 14  1  0
  9 15  1  0
M  END
