
     RDKit          3D

 19 20  0  0  0  0  0  0  0  0999 V2000
   -2.7831    1.2158    1.7193 C   0  0  0  0  0  0  0  0  0  0  0  0
   -2.3562    0.5444    0.8131 C   0  0  0  0  0  0  0  0  0  0  0  0
   -1.8239   -0.2822   -0.2707 C   0  0  0  0  0  0  0  0  0  0  0  0
   -0.6196    0.2808   -0.9758 C   0  0  0  0  0  0  0  0  0  0  0  0
    0.0597   -0.7117   -0.1318 C   0  0  0  0  0  0  0  0  0  0  0  0
    1.2952   -1.3240   -0.5950 C   0  0  0  0  0  0  0  0  0  0  0  0
    1.2424   -0.5287    0.6776 C   0  0  0  0  0  0  0  0  0  0  0  0
    1.9770    0.7832    0.7802 C   0  0  0  0  0  0  0  0  0  0  0  0
   -1.0746   -1.3725    0.2269 O   0  0  0  0  0  0  0  0  0  0  0  0
   -3.1559    1.8044    2.5413 H   0  0  0  0  0  0  0  0  0  0  0  0
   -2.6160   -0.6993   -0.9292 H   0  0  0  0  0  0  0  0  0  0  0  0
   -0.4489    1.3544   -0.7775 H   0  0  0  0  0  0  0  0  0  0  0  0
   -0.6902    0.0696   -2.0658 H   0  0  0  0  0  0  0  0  0  0  0  0
    1.7880   -0.9029   -1.4992 H   0  0  0  0  0  0  0  0  0  0  0  0
    1.4339   -2.4388   -0.5278 H   0  0  0  0  0  0  0  0  0  0  0  0
    1.3605   -1.1495    1.5973 H   0  0  0  0  0  0  0  0  0  0  0  0
    3.0789    0.5992    0.8021 H   0  0  0  0  0  0  0  0  0  0  0  0
    1.6916    1.4887   -0.0350 H   0  0  0  0  0  0  0  0  0  0  0  0
    1.6412    1.2690    1.7209 H   0  0  0  0  0  0  0  0  0  0  0  0
  1  2  3  0
  2  3  1  0
  3  4  1  0
  4  5  1  0
  5  6  1  0
  6  7  1  0
  7  8  1  0
  5  9  1  0
  9  3  1  0
  7  5  1  0
  1 10  1  0
  3 11  1  0
  4 12  1  0
  4 13  1  0
  6 14  1  0
  6 15  1  0
  7 16  1  0
  8 17  1  0
  8 18  1  0
  8 19  1  0
M  END
