
     RDKit          3D

 21 21  0  0  0  0  0  0  0  0999 V2000
    3.4436   -0.9774    1.6469 C   0  0  0  0  0  0  0  0  0  0  0  0
    2.4725   -0.2862    1.4943 C   0  0  0  0  0  0  0  0  0  0  0  0
    1.3003    0.5734    1.3215 C   0  0  0  0  0  0  0  0  0  0  0  0
    0.3959    0.0672    0.2616 C   0  0  0  0  0  0  0  0  0  0  0  0
    0.5748   -1.0131   -0.4643 C   0  0  0  0  0  0  0  0  0  0  0  0
   -0.5517   -1.2033   -1.4350 C   0  0  0  0  0  0  0  0  0  0  0  0
   -1.6597   -0.3191   -0.8709 C   0  0  0  0  0  0  0  0  0  0  0  0
   -0.8599    0.7072   -0.1522 C   0  0  0  0  0  0  0  0  0  0  0  0
   -1.5911    1.3609    0.9894 C   0  0  0  0  0  0  0  0  0  0  0  0
    4.3141   -1.5828    1.7691 H   0  0  0  0  0  0  0  0  0  0  0  0
    1.6979    1.5870    1.0627 H   0  0  0  0  0  0  0  0  0  0  0  0
    0.7608    0.6855    2.2797 H   0  0  0  0  0  0  0  0  0  0  0  0
    1.3937   -1.7404   -0.4444 H   0  0  0  0  0  0  0  0  0  0  0  0
   -0.8641   -2.2624   -1.5083 H   0  0  0  0  0  0  0  0  0  0  0  0
   -0.2647   -0.8665   -2.4535 H   0  0  0  0  0  0  0  0  0  0  0  0
   -2.1771    0.1437   -1.7270 H   0  0  0  0  0  0  0  0  0  0  0  0
   -2.3577   -0.8808   -0.2453 H   0  0  0  0  0  0  0  0  0  0  0  0
   -0.5690    1.5489   -0.8418 H   0  0  0  0  0  0  0  0  0  0  0  0
   -1.0040    2.1129    1.5144 H   0  0  0  0  0  0  0  0  0  0  0  0
   -2.5335    1.7954    0.5544 H   0  0  0  0  0  0  0  0  0  0  0  0
   -1.9209    0.5500    1.6702 H   0  0  0  0  0  0  0  0  0  0  0  0
  1  2  3  0
  2  3  1  0
  3  4  1  0
  4  5  2  0
  5  6  1  0
  6  7  1  0
  7  8  1  0
  8  9  1  0
  8  4  1  0
  1 10  1  0
  3 11  1  0
  3 12  1  0
  5 13  1  0
  6 14  1  0
  6 15  1  0
  7 16  1  0
  7 17  1  0
  8 18  1  0
  9 19  1  0
  9 20  1  0
  9 21  1  0
M  END
