
     RDKit          3D

 17 17  0  0  0  0  0  0  0  0999 V2000
    1.7595   -2.4318    0.1019 C   0  0  0  0  0  0  0  0  0  0  0  0
    0.8972   -1.4554   -0.5796 C   0  0  0  0  0  0  0  0  0  0  0  0
   -0.1264   -0.3388   -1.3604 C   0  0  0  0  0  0  0  0  0  0  0  0
    0.1477    0.7609   -0.4853 C   0  0  0  0  0  0  0  0  0  0  0  0
   -0.0344    2.0960   -0.9272 C   0  0  0  0  0  0  0  0  0  0  0  0
   -0.1941    3.1337   -1.2758 C   0  0  0  0  0  0  0  0  0  0  0  0
    0.9772    0.7024    0.7622 O   0  0  0  0  0  0  0  0  0  0  0  0
   -0.4823    0.5510    0.9062 C   0  0  0  0  0  0  0  0  0  0  0  0
   -0.7891   -0.7908    1.4347 C   0  0  0  0  0  0  0  0  0  0  0  0
    2.3912   -3.1404    0.6163 H   0  0  0  0  0  0  0  0  0  0  0  0
   -0.9693   -0.9387   -1.1064 H   0  0  0  0  0  0  0  0  0  0  0  0
    0.3370   -0.3468   -2.3026 H   0  0  0  0  0  0  0  0  0  0  0  0
   -0.3718    4.3780   -1.6935 H   0  0  0  0  0  0  0  0  0  0  0  0
   -0.9349    1.4637    1.3148 H   0  0  0  0  0  0  0  0  0  0  0  0
    0.0829   -1.1855    1.9739 H   0  0  0  0  0  0  0  0  0  0  0  0
   -1.7021   -0.9145    2.0415 H   0  0  0  0  0  0  0  0  0  0  0  0
   -0.9885   -1.5430    0.5794 H   0  0  0  0  0  0  0  0  0  0  0  0
  1  2  3  0
  2  3  1  0
  3  4  1  0
  4  5  1  0
  5  6  3  0
  4  7  1  0
  7  8  1  0
  8  9  1  0
  8  4  1  0
  1 10  1  0
  3 11  1  0
  3 12  1  0
  6 13  1  0
  8 14  1  0
  9 15  1  0
  9 16  1  0
  9 17  1  0
M  END
