
     RDKit          3D

 19 19  0  0  0  0  0  0  0  0999 V2000
   -0.1937    1.7355    2.5963 C   0  0  0  0  0  0  0  0  0  0  0  0
   -0.3096    1.2782    1.4203 C   0  0  0  0  0  0  0  0  0  0  0  0
   -0.4631    0.7706    0.0790 C   0  0  0  0  0  0  0  0  0  0  0  0
   -0.1102    1.8729   -0.8970 C   0  0  0  0  0  0  0  0  0  0  0  0
    0.4531   -0.4366   -0.1131 C   0  0  0  0  0  0  0  0  0  0  0  0
    1.7931   -0.1599    0.0638 O   0  0  0  0  0  0  0  0  0  0  0  0
    0.0052   -1.7026    0.5972 C   0  0  0  0  0  0  0  0  0  0  0  0
   -0.0363   -1.5930   -0.9057 C   0  0  0  0  0  0  0  0  0  0  0  0
   -1.2281   -1.4682   -1.5745 O   0  0  0  0  0  0  0  0  0  0  0  0
   -0.0904    2.1285    3.5607 H   0  0  0  0  0  0  0  0  0  0  0  0
   -1.5237    0.4860   -0.1071 H   0  0  0  0  0  0  0  0  0  0  0  0
    0.7681    1.5027   -1.4871 H   0  0  0  0  0  0  0  0  0  0  0  0
    0.2407    2.8004   -0.3799 H   0  0  0  0  0  0  0  0  0  0  0  0
   -0.9719    2.1372   -1.5031 H   0  0  0  0  0  0  0  0  0  0  0  0
    2.3237   -0.9845    0.1319 H   0  0  0  0  0  0  0  0  0  0  0  0
    0.7977   -2.3658    1.0557 H   0  0  0  0  0  0  0  0  0  0  0  0
   -0.8986   -1.6835    1.2034 H   0  0  0  0  0  0  0  0  0  0  0  0
    0.7357   -2.2180   -1.4144 H   0  0  0  0  0  0  0  0  0  0  0  0
   -1.2918   -2.1000   -2.3261 H   0  0  0  0  0  0  0  0  0  0  0  0
  1  2  3  0
  2  3  1  0
  3  4  1  0
  3  5  1  0
  5  6  1  0
  5  7  1  0
  7  8  1  0
  8  9  1  0
  8  5  1  0
  1 10  1  0
  3 11  1  0
  4 12  1  0
  4 13  1  0
  4 14  1  0
  6 15  1  0
  7 16  1  0
  7 17  1  0
  8 18  1  0
  9 19  1  0
M  END
