
     RDKit          3D

 11 11  0  0  0  0  0  0  0  0999 V2000
    2.2851    1.0373    0.3577 C   0  0  0  0  0  0  0  0  0  0  0  0
    1.4730    0.2750   -0.1511 C   0  0  0  0  0  0  0  0  0  0  0  0
    0.5215   -0.6226   -0.7401 C   0  0  0  0  0  0  0  0  0  0  0  0
    0.8265   -1.2662   -1.7770 O   0  0  0  0  0  0  0  0  0  0  0  0
   -0.8335   -0.8236   -0.1610 C   0  0  0  0  0  0  0  0  0  0  0  0
   -1.4409    0.3498    0.6143 C   0  0  0  0  0  0  0  0  0  0  0  0
   -0.9032   -0.8086    1.2301 O   0  0  0  0  0  0  0  0  0  0  0  0
    2.9763    1.7107    0.7940 H   0  0  0  0  0  0  0  0  0  0  0  0
   -1.5278   -1.5116   -0.6340 H   0  0  0  0  0  0  0  0  0  0  0  0
   -0.8446    1.2766    0.6999 H   0  0  0  0  0  0  0  0  0  0  0  0
   -2.5324    0.3831    0.6240 H   0  0  0  0  0  0  0  0  0  0  0  0
  1  2  3  0
  2  3  1  0
  3  4  2  0
  3  5  1  0
  5  6  1  0
  6  7  1  0
  7  5  1  0
  1  8  1  0
  5  9  1  0
  6 10  1  0
  6 11  1  0
M  END
