
     RDKit          3D

 17 18  0  0  0  0  0  0  0  0999 V2000
    3.3969    0.7901    0.3527 C   0  0  0  0  0  0  0  0  0  0  0  0
    2.4430    0.2062   -0.1206 C   0  0  0  0  0  0  0  0  0  0  0  0
    1.2849   -0.4860   -0.7147 C   0  0  0  0  0  0  0  0  0  0  0  0
    0.3823    0.4502   -1.4346 O   0  0  0  0  0  0  0  0  0  0  0  0
    0.0028   -0.2312   -0.2728 C   0  0  0  0  0  0  0  0  0  0  0  0
   -0.4649    0.5241    0.9239 C   0  0  0  0  0  0  0  0  0  0  0  0
   -1.9572    0.5645    0.7019 C   0  0  0  0  0  0  0  0  0  0  0  0
   -2.3060   -0.5060   -0.0729 O   0  0  0  0  0  0  0  0  0  0  0  0
   -1.1800   -1.1489   -0.5107 C   0  0  0  0  0  0  0  0  0  0  0  0
    4.2378    1.2833    0.7669 H   0  0  0  0  0  0  0  0  0  0  0  0
    1.5236   -1.3900   -1.3240 H   0  0  0  0  0  0  0  0  0  0  0  0
   -0.0222    1.5296    1.0363 H   0  0  0  0  0  0  0  0  0  0  0  0
   -0.2899   -0.1217    1.8316 H   0  0  0  0  0  0  0  0  0  0  0  0
   -2.2804    1.5508    0.2617 H   0  0  0  0  0  0  0  0  0  0  0  0
   -2.4937    0.4696    1.6776 H   0  0  0  0  0  0  0  0  0  0  0  0
   -1.0201   -2.0390    0.1304 H   0  0  0  0  0  0  0  0  0  0  0  0
   -1.2569   -1.4456   -1.5946 H   0  0  0  0  0  0  0  0  0  0  0  0
  1  2  3  0
  2  3  1  0
  3  4  1  0
  4  5  1  0
  5  6  1  0
  6  7  1  0
  7  8  1  0
  8  9  1  0
  5  3  1  0
  9  5  1  0
  1 10  1  0
  3 11  1  0
  6 12  1  0
  6 13  1  0
  7 14  1  0
  7 15  1  0
  9 16  1  0
  9 17  1  0
M  END
