
     RDKit          3D

 15 16  0  0  0  0  0  0  0  0999 V2000
    2.6641   -1.7759    0.2268 C   0  0  0  0  0  0  0  0  0  0  0  0
    1.7199   -1.0549    0.4354 C   0  0  0  0  0  0  0  0  0  0  0  0
    0.5874   -0.1919    0.6718 C   0  0  0  0  0  0  0  0  0  0  0  0
    0.8527    0.9564    1.3822 O   0  0  0  0  0  0  0  0  0  0  0  0
    0.5484    1.1970    0.0679 C   0  0  0  0  0  0  0  0  0  0  0  0
   -0.9180    1.0214   -0.2672 C   0  0  0  0  0  0  0  0  0  0  0  0
   -1.2851    1.3130   -1.5560 O   0  0  0  0  0  0  0  0  0  0  0  0
   -0.7410   -0.4528    0.0551 C   0  0  0  0  0  0  0  0  0  0  0  0
   -1.6298   -0.9645    0.9734 O   0  0  0  0  0  0  0  0  0  0  0  0
    3.4887   -2.4258    0.0437 H   0  0  0  0  0  0  0  0  0  0  0  0
    1.2880    1.3697   -0.7013 H   0  0  0  0  0  0  0  0  0  0  0  0
   -1.5182    1.5282    0.5404 H   0  0  0  0  0  0  0  0  0  0  0  0
   -2.0518    1.9653   -1.5070 H   0  0  0  0  0  0  0  0  0  0  0  0
   -0.6719   -1.0367   -0.8801 H   0  0  0  0  0  0  0  0  0  0  0  0
   -2.3335   -1.4485    0.4843 H   0  0  0  0  0  0  0  0  0  0  0  0
  1  2  3  0
  2  3  1  0
  3  4  1  0
  4  5  1  0
  5  6  1  0
  6  7  1  0
  6  8  1  0
  8  9  1  0
  5  3  1  0
  8  3  1  0
  1 10  1  0
  5 11  1  0
  6 12  1  0
  7 13  1  0
  8 14  1  0
  9 15  1  0
M  END
