
     RDKit          3D

 17 19  0  0  0  0  0  0  0  0999 V2000
    2.8751    1.3327   -0.4413 C   0  0  0  0  0  0  0  0  0  0  0  0
    1.8204    1.0015    0.0516 C   0  0  0  0  0  0  0  0  0  0  0  0
    0.5499    0.6280    0.6378 C   0  0  0  0  0  0  0  0  0  0  0  0
    0.4881    0.0763    1.8940 O   0  0  0  0  0  0  0  0  0  0  0  0
    0.4502   -0.8873    0.9137 C   0  0  0  0  0  0  0  0  0  0  0  0
   -0.8064   -1.1909    0.1667 C   0  0  0  0  0  0  0  0  0  0  0  0
   -0.5566   -0.4121   -1.1352 C   0  0  0  0  0  0  0  0  0  0  0  0
   -0.6843    0.7949   -0.1961 C   0  0  0  0  0  0  0  0  0  0  0  0
   -1.7256   -0.0393    0.5175 C   0  0  0  0  0  0  0  0  0  0  0  0
    3.8054    1.6275   -0.8564 H   0  0  0  0  0  0  0  0  0  0  0  0
    1.3185   -1.5172    0.7327 H   0  0  0  0  0  0  0  0  0  0  0  0
   -1.1917   -2.1694    0.0920 H   0  0  0  0  0  0  0  0  0  0  0  0
    0.4758   -0.5877   -1.4675 H   0  0  0  0  0  0  0  0  0  0  0  0
   -1.3549   -0.5034   -1.8757 H   0  0  0  0  0  0  0  0  0  0  0  0
   -0.9472    1.7263   -0.6138 H   0  0  0  0  0  0  0  0  0  0  0  0
   -1.8556    0.1622    1.5836 H   0  0  0  0  0  0  0  0  0  0  0  0
   -2.6611   -0.0420   -0.0973 H   0  0  0  0  0  0  0  0  0  0  0  0
  1  2  3  0
  2  3  1  0
  3  4  1  0
  4  5  1  0
  5  6  1  0
  6  7  1  0
  7  8  1  0
  8  9  1  0
  5  3  1  0
  9  6  1  0
  8  3  1  0
  1 10  1  0
  5 11  1  0
  6 12  1  0
  7 13  1  0
  7 14  1  0
  8 15  1  0
  9 16  1  0
  9 17  1  0
M  END
