
     RDKit          3D

 25 24  0  0  0  0  0  0  0  0999 V2000
    1.0042    2.6693    1.2669 C   0  0  0  0  0  0  0  0  0  0  0  0
    0.9585    1.4441    1.2725 C   0  0  0  0  0  0  0  0  0  0  0  0
    0.9037   -0.0108    1.2978 C   0  0  0  0  0  0  0  0  0  0  0  0
    2.3318   -0.4626    1.6467 C   0  0  0  0  0  0  0  0  0  0  0  0
    0.5387   -0.6335    0.0114 C   0  0  0  0  0  0  0  0  0  0  0  0
   -0.7703   -0.3113   -0.5884 C   0  0  0  0  0  0  0  0  0  0  0  0
   -1.9500   -0.6704    0.2817 C   0  0  0  0  0  0  0  0  0  0  0  0
   -0.9459   -1.0947   -1.8984 C   0  0  0  0  0  0  0  0  0  0  0  0
   -0.9178    1.1398   -0.9723 C   0  0  0  0  0  0  0  0  0  0  0  0
    1.0537    3.7250    1.2485 H   0  0  0  0  0  0  0  0  0  0  0  0
    0.2315   -0.2693    2.1445 H   0  0  0  0  0  0  0  0  0  0  0  0
    2.4160   -1.5345    1.3638 H   0  0  0  0  0  0  0  0  0  0  0  0
    3.0790    0.0930    1.0704 H   0  0  0  0  0  0  0  0  0  0  0  0
    2.5233   -0.3752    2.7270 H   0  0  0  0  0  0  0  0  0  0  0  0
    0.6290   -1.7600    0.0612 H   0  0  0  0  0  0  0  0  0  0  0  0
    1.3434   -0.3574   -0.7361 H   0  0  0  0  0  0  0  0  0  0  0  0
   -1.7762   -1.6367    0.8055 H   0  0  0  0  0  0  0  0  0  0  0  0
   -1.9767    0.1010    1.1040 H   0  0  0  0  0  0  0  0  0  0  0  0
   -2.9057   -0.6142   -0.2354 H   0  0  0  0  0  0  0  0  0  0  0  0
   -0.2032   -1.9091   -1.8951 H   0  0  0  0  0  0  0  0  0  0  0  0
   -1.9718   -1.4904   -1.9956 H   0  0  0  0  0  0  0  0  0  0  0  0
   -0.7573   -0.4647   -2.7792 H   0  0  0  0  0  0  0  0  0  0  0  0
   -1.3211    1.6845   -0.0944 H   0  0  0  0  0  0  0  0  0  0  0  0
   -1.6043    1.2209   -1.8488 H   0  0  0  0  0  0  0  0  0  0  0  0
    0.0874    1.5172   -1.1981 H   0  0  0  0  0  0  0  0  0  0  0  0
  1  2  3  0
  2  3  1  0
  3  4  1  0
  3  5  1  0
  5  6  1  0
  6  7  1  0
  6  8  1  0
  6  9  1  0
  1 10  1  0
  3 11  1  0
  4 12  1  0
  4 13  1  0
  4 14  1  0
  5 15  1  0
  5 16  1  0
  7 17  1  0
  7 18  1  0
  7 19  1  0
  8 20  1  0
  8 21  1  0
  8 22  1  0
  9 23  1  0
  9 24  1  0
  9 25  1  0
M  END
