
     RDKit          3D

 19 19  0  0  0  0  0  0  0  0999 V2000
    0.8469    1.9302    2.1239 C   0  0  0  0  0  0  0  0  0  0  0  0
    1.2668    1.1427    1.1172 C   0  0  0  0  0  0  0  0  0  0  0  0
    1.7230    0.3173    0.0666 C   0  0  0  0  0  0  0  0  0  0  0  0
    1.1345    0.4522   -1.2954 C   0  0  0  0  0  0  0  0  0  0  0  0
    0.0817   -0.5320   -0.8720 C   0  0  0  0  0  0  0  0  0  0  0  0
   -1.2156    0.1329   -0.4415 C   0  0  0  0  0  0  0  0  0  0  0  0
   -2.1600   -1.0242   -0.1044 C   0  0  0  0  0  0  0  0  0  0  0  0
    0.9951   -1.0629    0.1379 C   0  0  0  0  0  0  0  0  0  0  0  0
    1.2234   -2.0166    0.7898 O   0  0  0  0  0  0  0  0  0  0  0  0
    0.5598    2.4996    2.8301 H   0  0  0  0  0  0  0  0  0  0  0  0
    2.8332    0.1808    0.0855 H   0  0  0  0  0  0  0  0  0  0  0  0
    0.8056    1.5000   -1.5168 H   0  0  0  0  0  0  0  0  0  0  0  0
    1.8179    0.0778   -2.1229 H   0  0  0  0  0  0  0  0  0  0  0  0
   -0.1101   -1.3188   -1.6552 H   0  0  0  0  0  0  0  0  0  0  0  0
   -1.0488    0.7045    0.4539 H   0  0  0  0  0  0  0  0  0  0  0  0
   -1.6467    0.7835   -1.2063 H   0  0  0  0  0  0  0  0  0  0  0  0
   -2.1278   -1.1585    0.9784 H   0  0  0  0  0  0  0  0  0  0  0  0
   -3.1590   -0.6806   -0.4542 H   0  0  0  0  0  0  0  0  0  0  0  0
   -1.8199   -1.9278   -0.6779 H   0  0  0  0  0  0  0  0  0  0  0  0
  1  2  3  0
  2  3  1  0
  3  4  1  0
  4  5  1  0
  5  6  1  0
  6  7  1  0
  5  8  1  0
  8  9  2  0
  8  3  1  0
  1 10  1  0
  3 11  1  0
  4 12  1  0
  4 13  1  0
  5 14  1  0
  6 15  1  0
  6 16  1  0
  7 17  1  0
  7 18  1  0
  7 19  1  0
M  END
