
     RDKit          3D

 21 22  0  0  0  0  0  0  0  0999 V2000
    2.1068   -2.2392    1.5535 C   0  0  0  0  0  0  0  0  0  0  0  0
    1.3959   -1.4405    0.9997 C   0  0  0  0  0  0  0  0  0  0  0  0
    0.5523   -0.4875    0.3149 C   0  0  0  0  0  0  0  0  0  0  0  0
    0.7097    0.9475    0.6815 C   0  0  0  0  0  0  0  0  0  0  0  0
   -0.5631    1.7172    0.3598 C   0  0  0  0  0  0  0  0  0  0  0  0
   -1.0824    1.1952   -0.9672 C   0  0  0  0  0  0  0  0  0  0  0  0
   -1.0323   -0.3021   -1.0221 C   0  0  0  0  0  0  0  0  0  0  0  0
    0.4392   -0.6905   -1.1928 C   0  0  0  0  0  0  0  0  0  0  0  0
   -0.9083   -0.8833    0.3915 C   0  0  0  0  0  0  0  0  0  0  0  0
    2.7323   -2.9654    2.0486 H   0  0  0  0  0  0  0  0  0  0  0  0
    1.5077    1.4218    0.0442 H   0  0  0  0  0  0  0  0  0  0  0  0
    0.9680    1.0073    1.7514 H   0  0  0  0  0  0  0  0  0  0  0  0
   -0.2961    2.7885    0.2365 H   0  0  0  0  0  0  0  0  0  0  0  0
   -1.3066    1.6538    1.1585 H   0  0  0  0  0  0  0  0  0  0  0  0
   -0.3809    1.6071   -1.7449 H   0  0  0  0  0  0  0  0  0  0  0  0
   -2.0777    1.6025   -1.2211 H   0  0  0  0  0  0  0  0  0  0  0  0
   -1.7308   -0.8135   -1.6767 H   0  0  0  0  0  0  0  0  0  0  0  0
    1.0240    0.0028   -1.8021 H   0  0  0  0  0  0  0  0  0  0  0  0
    0.5507   -1.7719   -1.4047 H   0  0  0  0  0  0  0  0  0  0  0  0
   -1.5077   -0.3814    1.1516 H   0  0  0  0  0  0  0  0  0  0  0  0
   -1.1008   -1.9683    0.3398 H   0  0  0  0  0  0  0  0  0  0  0  0
  1  2  3  0
  2  3  1  0
  3  4  1  0
  4  5  1  0
  5  6  1  0
  6  7  1  0
  7  8  1  0
  7  9  1  0
  8  3  1  0
  9  3  1  0
  1 10  1  0
  4 11  1  0
  4 12  1  0
  5 13  1  0
  5 14  1  0
  6 15  1  0
  6 16  1  0
  7 17  1  0
  8 18  1  0
  8 19  1  0
  9 20  1  0
  9 21  1  0
M  END
