
     RDKit          3D

 21 20  0  0  0  0  0  0  0  0999 V2000
    0.9236   -1.6329    2.0959 C   0  0  0  0  0  0  0  0  0  0  0  0
    0.7799   -0.9658    1.1055 C   0  0  0  0  0  0  0  0  0  0  0  0
    0.6231   -0.1416   -0.0964 C   0  0  0  0  0  0  0  0  0  0  0  0
    1.2690    1.0736    0.0669 O   0  0  0  0  0  0  0  0  0  0  0  0
    2.2505    1.3006   -0.8716 C   0  0  0  0  0  0  0  0  0  0  0  0
   -0.8472    0.1829   -0.2644 C   0  0  0  0  0  0  0  0  0  0  0  0
   -1.3108    0.9330    0.9525 C   0  0  0  0  0  0  0  0  0  0  0  0
   -1.6850   -1.0561   -0.4496 C   0  0  0  0  0  0  0  0  0  0  0  0
   -1.2558   -1.7415   -1.5934 O   0  0  0  0  0  0  0  0  0  0  0  0
    1.0542   -2.2173    2.9900 H   0  0  0  0  0  0  0  0  0  0  0  0
    1.0124   -0.7251   -0.9617 H   0  0  0  0  0  0  0  0  0  0  0  0
    3.0516    0.5284   -0.8501 H   0  0  0  0  0  0  0  0  0  0  0  0
    2.7481    2.2593   -0.6032 H   0  0  0  0  0  0  0  0  0  0  0  0
    1.8496    1.4253   -1.9039 H   0  0  0  0  0  0  0  0  0  0  0  0
   -0.9078    0.8221   -1.1892 H   0  0  0  0  0  0  0  0  0  0  0  0
   -2.0808    0.3637    1.5337 H   0  0  0  0  0  0  0  0  0  0  0  0
   -0.4833    1.1337    1.6771 H   0  0  0  0  0  0  0  0  0  0  0  0
   -1.7909    1.9030    0.6935 H   0  0  0  0  0  0  0  0  0  0  0  0
   -1.5453   -1.6992    0.4286 H   0  0  0  0  0  0  0  0  0  0  0  0
   -2.7378   -0.7187   -0.5480 H   0  0  0  0  0  0  0  0  0  0  0  0
   -0.9173   -1.0274   -2.2121 H   0  0  0  0  0  0  0  0  0  0  0  0
  1  2  3  0
  2  3  1  0
  3  4  1  0
  4  5  1  0
  3  6  1  0
  6  7  1  0
  6  8  1  0
  8  9  1  0
  1 10  1  0
  3 11  1  0
  5 12  1  0
  5 13  1  0
  5 14  1  0
  6 15  1  0
  7 16  1  0
  7 17  1  0
  7 18  1  0
  8 19  1  0
  8 20  1  0
  9 21  1  0
M  END
