
     RDKit          3D

 21 20  0  0  0  0  0  0  0  0999 V2000
   -0.1710    2.5345    0.9810 C   0  0  0  0  0  0  0  0  0  0  0  0
   -0.2248    1.8681    0.6156 C   0  0  0  0  0  0  0  0  0  0  0  0
   -0.3091    0.4993   -0.1435 C   0  0  0  0  0  0  0  0  0  0  0  0
    0.6442    0.6013   -1.2385 C   0  0  0  0  0  0  0  0  0  0  0  0
    0.9003   -0.4690   -2.2264 C   0  0  0  0  0  0  0  0  0  0  0  0
    1.3986   -1.5968   -1.6268 O   0  0  0  0  0  0  0  0  0  0  0  0
   -0.1139   -0.5334    0.9064 C   0  0  0  0  0  0  0  0  0  0  0  0
   -1.2669   -0.4225    1.9574 C   0  0  0  0  0  0  0  0  0  0  0  0
   -0.3534   -1.8047    0.3236 O   0  0  0  0  0  0  0  0  0  0  0  0
   -0.0729    3.7556    1.6536 H   0  0  0  0  0  0  0  0  0  0  0  0
   -1.3806    0.4066   -0.5273 H   0  0  0  0  0  0  0  0  0  0  0  0
    1.6363    1.0497   -0.9672 H   0  0  0  0  0  0  0  0  0  0  0  0
    0.2301    1.4608   -1.9512 H   0  0  0  0  0  0  0  0  0  0  0  0
    0.1032   -0.6495   -2.9908 H   0  0  0  0  0  0  0  0  0  0  0  0
    1.7760   -0.0582   -2.9000 H   0  0  0  0  0  0  0  0  0  0  0  0
    0.9820   -2.4484   -1.9054 H   0  0  0  0  0  0  0  0  0  0  0  0
    0.7999   -0.4461    1.4510 H   0  0  0  0  0  0  0  0  0  0  0  0
   -1.4989    0.6171    2.0758 H   0  0  0  0  0  0  0  0  0  0  0  0
   -2.2112   -0.8851    1.4564 H   0  0  0  0  0  0  0  0  0  0  0  0
   -1.0277   -1.0072    2.8470 H   0  0  0  0  0  0  0  0  0  0  0  0
    0.1596   -2.4720    0.9129 H   0  0  0  0  0  0  0  0  0  0  0  0
  1  2  3  0
  2  3  1  0
  3  4  1  0
  4  5  1  0
  5  6  1  0
  3  7  1  0
  7  8  1  0
  7  9  1  0
  1 10  1  0
  3 11  1  0
  4 12  1  0
  4 13  1  0
  5 14  1  0
  5 15  1  0
  6 16  1  0
  7 17  1  0
  8 18  1  0
  8 19  1  0
  8 20  1  0
  9 21  1  0
M  END
