
     RDKit          3D

 19 20  0  0  0  0  0  0  0  0999 V2000
   -2.4555   -0.2305    2.4391 C   0  0  0  0  0  0  0  0  0  0  0  0
   -1.9527   -0.4481    1.3549 C   0  0  0  0  0  0  0  0  0  0  0  0
   -1.3511   -0.7247    0.0472 C   0  0  0  0  0  0  0  0  0  0  0  0
   -0.0872    0.0874   -0.1094 C   0  0  0  0  0  0  0  0  0  0  0  0
   -0.3137    1.5745   -0.0238 C   0  0  0  0  0  0  0  0  0  0  0  0
    0.8382   -0.3049    0.8716 O   0  0  0  0  0  0  0  0  0  0  0  0
    1.8361   -0.1076   -0.0726 C   0  0  0  0  0  0  0  0  0  0  0  0
    1.9716   -1.1786   -1.0890 C   0  0  0  0  0  0  0  0  0  0  0  0
    0.8143   -0.2887   -1.2254 C   0  0  0  0  0  0  0  0  0  0  0  0
   -2.8928   -0.0558    3.3993 H   0  0  0  0  0  0  0  0  0  0  0  0
   -2.1096   -0.3865   -0.7142 H   0  0  0  0  0  0  0  0  0  0  0  0
   -1.1541   -1.7874   -0.0839 H   0  0  0  0  0  0  0  0  0  0  0  0
    0.4550    2.0692    0.6055 H   0  0  0  0  0  0  0  0  0  0  0  0
   -1.3465    1.7730    0.2956 H   0  0  0  0  0  0  0  0  0  0  0  0
   -0.1996    2.0409   -1.0431 H   0  0  0  0  0  0  0  0  0  0  0  0
    2.4398    0.8013   -0.0731 H   0  0  0  0  0  0  0  0  0  0  0  0
    1.8050   -2.2369   -0.7396 H   0  0  0  0  0  0  0  0  0  0  0  0
    2.8294   -1.0594   -1.7869 H   0  0  0  0  0  0  0  0  0  0  0  0
    0.8733    0.4630   -2.0522 H   0  0  0  0  0  0  0  0  0  0  0  0
  1  2  3  0
  2  3  1  0
  3  4  1  0
  4  5  1  0
  4  6  1  0
  6  7  1  0
  7  8  1  0
  8  9  1  0
  9  4  1  0
  9  7  1  0
  1 10  1  0
  3 11  1  0
  3 12  1  0
  5 13  1  0
  5 14  1  0
  5 15  1  0
  7 16  1  0
  8 17  1  0
  8 18  1  0
  9 19  1  0
M  END
