
     RDKit          3D

 14 13  0  0  0  0  0  0  0  0999 V2000
    4.7605   -1.0693   -1.1740 C   0  0  0  0  0  0  0  0  0  0  0  0
    3.8966   -1.0674   -1.0249 C   0  0  0  0  0  0  0  0  0  0  0  0
    0.4123   -1.0143   -0.4578 C   0  0  0  0  0  0  0  0  0  0  0  0
   -0.2927   -0.9975   -0.3318 C   0  0  0  0  0  0  0  0  0  0  0  0
   -1.6670   -0.9475   -0.0682 C   0  0  0  0  0  0  0  0  0  0  0  0
   -0.7082    0.9346    1.0341 C   0  0  0  0  0  0  0  0  0  0  0  0
   -1.8837    1.4653    0.9303 C   0  0  0  0  0  0  0  0  0  0  0  0
    0.2393    0.0039    0.8539 O   0  0  0  0  0  0  0  0  0  0  0  0
    5.4570   -1.0693   -1.2846 H   0  0  0  0  0  0  0  0  0  0  0  0
   -1.6261   -0.8047    0.9327 H   0  0  0  0  0  0  0  0  0  0  0  0
   -1.5042    0.1131   -0.9608 H   0  0  0  0  0  0  0  0  0  0  0  0
   -2.0786    2.5869    0.7336 H   0  0  0  0  0  0  0  0  0  0  0  0
   -2.0931    1.2481   -0.3338 H   0  0  0  0  0  0  0  0  0  0  0  0
   -2.9119    1.0026    1.1513 H   0  0  0  0  0  0  0  0  0  0  0  0
  1  2  3  0
  2  3  1  0
  3  4  3  0
  4  5  1  0
  5  6  1  0
  6  7  1  0
  6  8  2  0
  1  9  1  0
  5 10  1  0
  5 11  1  0
  7 12  1  0
  7 13  1  0
  7 14  1  0
M  END
