
     RDKit          3D

 17 18  0  0  0  0  0  0  0  0999 V2000
    2.4913   -1.2909    0.5592 C   0  0  0  0  0  0  0  0  0  0  0  0
    1.7142   -0.4831    0.1345 C   0  0  0  0  0  0  0  0  0  0  0  0
    0.8128    0.4833   -0.3813 C   0  0  0  0  0  0  0  0  0  0  0  0
   -0.2843    0.0038   -1.3433 C   0  0  0  0  0  0  0  0  0  0  0  0
   -0.9269   -0.4773   -0.0804 C   0  0  0  0  0  0  0  0  0  0  0  0
   -0.2189   -1.6300    0.3409 O   0  0  0  0  0  0  0  0  0  0  0  0
   -1.3754    0.2241    1.0824 C   0  0  0  0  0  0  0  0  0  0  0  0
   -0.3577    0.9221    0.3909 C   0  0  0  0  0  0  0  0  0  0  0  0
   -0.9398    2.0324   -0.3041 O   0  0  0  0  0  0  0  0  0  0  0  0
    3.1931   -2.0052    0.9222 H   0  0  0  0  0  0  0  0  0  0  0  0
    1.3763    1.2957   -0.9019 H   0  0  0  0  0  0  0  0  0  0  0  0
    0.0067   -0.7808   -2.0307 H   0  0  0  0  0  0  0  0  0  0  0  0
   -0.7719    0.8801   -1.8209 H   0  0  0  0  0  0  0  0  0  0  0  0
   -0.8619   -2.3453    0.5804 H   0  0  0  0  0  0  0  0  0  0  0  0
   -2.4831    0.4715    1.0680 H   0  0  0  0  0  0  0  0  0  0  0  0
   -1.1267   -0.0355    2.1587 H   0  0  0  0  0  0  0  0  0  0  0  0
   -0.2477    2.7349   -0.3747 H   0  0  0  0  0  0  0  0  0  0  0  0
  1  2  3  0
  2  3  1  0
  3  4  1  0
  4  5  1  0
  5  6  1  0
  5  7  1  0
  7  8  1  0
  8  9  1  0
  8  3  1  0
  8  5  1  0
  1 10  1  0
  3 11  1  0
  4 12  1  0
  4 13  1  0
  6 14  1  0
  7 15  1  0
  7 16  1  0
  9 17  1  0
M  END
