
     RDKit          3D

 16 16  0  0  0  0  0  0  0  0999 V2000
    3.2203    0.9960   -1.0601 C   0  0  0  0  0  0  0  0  0  0  0  0
    2.1251    0.5145   -0.9553 C   0  0  0  0  0  0  0  0  0  0  0  0
    0.8088   -0.0431   -0.8268 C   0  0  0  0  0  0  0  0  0  0  0  0
   -0.2691    0.9221   -0.3241 C   0  0  0  0  0  0  0  0  0  0  0  0
   -0.7819   -0.4125    0.1865 C   0  0  0  0  0  0  0  0  0  0  0  0
   -1.5445   -0.3394    1.4877 C   0  0  0  0  0  0  0  0  0  0  0  0
   -1.5032   -1.6121    2.0568 O   0  0  0  0  0  0  0  0  0  0  0  0
    0.5513   -0.7898    0.3350 O   0  0  0  0  0  0  0  0  0  0  0  0
    4.1801    1.4289   -1.1663 H   0  0  0  0  0  0  0  0  0  0  0  0
    0.4124   -0.6089   -1.6932 H   0  0  0  0  0  0  0  0  0  0  0  0
    0.0613    1.6038    0.4616 H   0  0  0  0  0  0  0  0  0  0  0  0
   -0.8778    1.3590   -1.1183 H   0  0  0  0  0  0  0  0  0  0  0  0
   -1.2946   -0.9892   -0.5977 H   0  0  0  0  0  0  0  0  0  0  0  0
   -1.0465    0.3383    2.1957 H   0  0  0  0  0  0  0  0  0  0  0  0
   -2.5795   -0.0288    1.3634 H   0  0  0  0  0  0  0  0  0  0  0  0
   -1.4623   -2.3388    1.4187 H   0  0  0  0  0  0  0  0  0  0  0  0
  1  2  3  0
  2  3  1  0
  3  4  1  0
  4  5  1  0
  5  6  1  0
  6  7  1  0
  5  8  1  0
  8  3  1  0
  1  9  1  0
  3 10  1  0
  4 11  1  0
  4 12  1  0
  5 13  1  0
  6 14  1  0
  6 15  1  0
  7 16  1  0
M  END
