
     RDKit          3D

 20 20  0  0  0  0  0  0  0  0999 V2000
    2.8266    0.6019    1.6282 C   0  0  0  0  0  0  0  0  0  0  0  0
    1.9125   -0.2691    1.3940 C   0  0  0  0  0  0  0  0  0  0  0  0
    0.8875   -1.2121    1.1369 C   0  0  0  0  0  0  0  0  0  0  0  0
   -0.4386   -0.6717    0.8261 C   0  0  0  0  0  0  0  0  0  0  0  0
   -0.5551    0.1763   -0.3998 C   0  0  0  0  0  0  0  0  0  0  0  0
    0.2160    1.4523   -0.4895 C   0  0  0  0  0  0  0  0  0  0  0  0
   -1.9674    0.2839   -1.0406 C   0  0  0  0  0  0  0  0  0  0  0  0
   -0.9218   -0.5604   -1.6466 C   0  0  0  0  0  0  0  0  0  0  0  0
    3.5544    1.2888    1.7964 H   0  0  0  0  0  0  0  0  0  0  0  0
    1.2483   -1.8262    0.2121 H   0  0  0  0  0  0  0  0  0  0  0  0
    0.8580   -2.0341    1.9183 H   0  0  0  0  0  0  0  0  0  0  0  0
   -0.9432   -0.1884    1.7066 H   0  0  0  0  0  0  0  0  0  0  0  0
   -1.1304   -1.5788    0.6502 H   0  0  0  0  0  0  0  0  0  0  0  0
   -0.5497    2.2930   -0.6358 H   0  0  0  0  0  0  0  0  0  0  0  0
    0.8154    1.4218   -1.4235 H   0  0  0  0  0  0  0  0  0  0  0  0
    0.7418    1.7446    0.4125 H   0  0  0  0  0  0  0  0  0  0  0  0
   -2.2197    1.2191   -1.5749 H   0  0  0  0  0  0  0  0  0  0  0  0
   -2.7678   -0.1823   -0.4003 H   0  0  0  0  0  0  0  0  0  0  0  0
   -1.0924   -1.6517   -1.5693 H   0  0  0  0  0  0  0  0  0  0  0  0
   -0.4745   -0.3069   -2.6375 H   0  0  0  0  0  0  0  0  0  0  0  0
  1  2  3  0
  2  3  1  0
  3  4  1  0
  4  5  1  0
  5  6  1  0
  5  7  1  0
  7  8  1  0
  8  5  1  0
  1  9  1  0
  3 10  1  0
  3 11  1  0
  4 12  1  0
  4 13  1  0
  6 14  1  0
  6 15  1  0
  6 16  1  0
  7 17  1  0
  7 18  1  0
  8 19  1  0
  8 20  1  0
M  END
