
     RDKit          3D

 19 18  0  0  0  0  0  0  0  0999 V2000
   -4.8375   -1.0881   -0.2391 C   0  0  0  0  0  0  0  0  0  0  0  0
   -3.7122   -0.8683    0.6138 C   0  0  0  0  0  0  0  0  0  0  0  0
   -2.6821   -0.6513    1.3954 C   0  0  0  0  0  0  0  0  0  0  0  0
   -1.5626   -0.1795    1.0413 C   0  0  0  0  0  0  0  0  0  0  0  0
   -0.4528    0.2862    0.7127 C   0  0  0  0  0  0  0  0  0  0  0  0
    0.9451    0.8761    0.3268 C   0  0  0  0  0  0  0  0  0  0  0  0
    1.7509   -0.3508   -0.1443 C   0  0  0  0  0  0  0  0  0  0  0  0
    2.9938   -0.0303   -0.4935 O   0  0  0  0  0  0  0  0  0  0  0  0
    3.2992    0.8649   -1.4471 C   0  0  0  0  0  0  0  0  0  0  0  0
   -5.7135   -1.2427   -0.9147 H   0  0  0  0  0  0  0  0  0  0  0  0
   -3.1198   -0.1178    2.4514 H   0  0  0  0  0  0  0  0  0  0  0  0
   -2.5106   -1.7189    2.0540 H   0  0  0  0  0  0  0  0  0  0  0  0
    0.7495    1.5371   -0.5075 H   0  0  0  0  0  0  0  0  0  0  0  0
    1.3746    1.2918    1.2027 H   0  0  0  0  0  0  0  0  0  0  0  0
    1.7899   -1.0122    0.8169 H   0  0  0  0  0  0  0  0  0  0  0  0
    1.1885   -0.9943   -0.8092 H   0  0  0  0  0  0  0  0  0  0  0  0
    4.4974    0.8370   -1.4485 H   0  0  0  0  0  0  0  0  0  0  0  0
    3.0450    1.9384   -1.2439 H   0  0  0  0  0  0  0  0  0  0  0  0
    2.9573    0.6225   -2.4610 H   0  0  0  0  0  0  0  0  0  0  0  0
  1  2  3  0
  2  3  1  0
  3  4  1  0
  4  5  3  0
  5  6  1  0
  6  7  1  0
  7  8  1  0
  8  9  1  0
  1 10  1  0
  3 11  1  0
  3 12  1  0
  6 13  1  0
  6 14  1  0
  7 15  1  0
  7 16  1  0
  9 17  1  0
  9 18  1  0
  9 19  1  0
M  END
