
     RDKit          3D

 16 15  0  0  0  0  0  0  0  0999 V2000
   -2.8092    1.6067   -0.9717 C   0  0  0  0  0  0  0  0  0  0  0  0
   -2.1477    0.6816   -0.4182 C   0  0  0  0  0  0  0  0  0  0  0  0
   -1.4271   -0.3619    0.1893 C   0  0  0  0  0  0  0  0  0  0  0  0
   -0.0014    0.1235    0.6310 C   0  0  0  0  0  0  0  0  0  0  0  0
    0.7954    0.6074   -0.4095 C   0  0  0  0  0  0  0  0  0  0  0  0
    1.0604    1.4086   -1.1604 O   0  0  0  0  0  0  0  0  0  0  0  0
    1.9521   -0.5680   -0.7484 C   0  0  0  0  0  0  0  0  0  0  0  0
    1.8131   -1.5631    0.1220 O   0  0  0  0  0  0  0  0  0  0  0  0
   -3.4246    2.4383   -1.4831 H   0  0  0  0  0  0  0  0  0  0  0  0
   -1.8869   -0.7493    1.1581 H   0  0  0  0  0  0  0  0  0  0  0  0
   -1.3511   -1.2404   -0.4789 H   0  0  0  0  0  0  0  0  0  0  0  0
    0.3957   -0.8773    1.0870 H   0  0  0  0  0  0  0  0  0  0  0  0
   -0.1420    0.7534    1.5074 H   0  0  0  0  0  0  0  0  0  0  0  0
    2.8828    0.0215   -0.5837 H   0  0  0  0  0  0  0  0  0  0  0  0
    1.7901   -0.8010   -1.7885 H   0  0  0  0  0  0  0  0  0  0  0  0
    2.5004   -1.4800    0.8447 H   0  0  0  0  0  0  0  0  0  0  0  0
  1  2  3  0
  2  3  1  0
  3  4  1  0
  4  5  1  0
  5  6  2  0
  5  7  1  0
  7  8  1  0
  1  9  1  0
  3 10  1  0
  3 11  1  0
  4 12  1  0
  4 13  1  0
  7 14  1  0
  7 15  1  0
  8 16  1  0
M  END
