
     RDKit          3D

 19 19  0  0  0  0  0  0  0  0999 V2000
    3.9547    0.0726   -0.3751 C   0  0  0  0  0  0  0  0  0  0  0  0
    2.7522   -0.0526   -0.3028 C   0  0  0  0  0  0  0  0  0  0  0  0
    1.3153   -0.2202   -0.2147 C   0  0  0  0  0  0  0  0  0  0  0  0
    0.3770    0.7022   -0.1870 C   0  0  0  0  0  0  0  0  0  0  0  0
   -0.9623    0.0793   -0.0912 C   0  0  0  0  0  0  0  0  0  0  0  0
   -1.3939    0.2185    1.3664 C   0  0  0  0  0  0  0  0  0  0  0  0
   -1.9787    0.7724   -0.9661 C   0  0  0  0  0  0  0  0  0  0  0  0
   -0.7359   -1.2216   -0.4496 O   0  0  0  0  0  0  0  0  0  0  0  0
    0.5859   -1.5182   -0.1376 C   0  0  0  0  0  0  0  0  0  0  0  0
    5.0052    0.1821   -0.4558 H   0  0  0  0  0  0  0  0  0  0  0  0
    0.6219    1.7731   -0.2324 H   0  0  0  0  0  0  0  0  0  0  0  0
   -2.4928    0.1396    1.4754 H   0  0  0  0  0  0  0  0  0  0  0  0
   -0.9840    1.1618    1.7439 H   0  0  0  0  0  0  0  0  0  0  0  0
   -0.9637   -0.6137    1.9662 H   0  0  0  0  0  0  0  0  0  0  0  0
   -1.5490    1.1563   -1.8908 H   0  0  0  0  0  0  0  0  0  0  0  0
   -2.4897    1.5372   -0.3499 H   0  0  0  0  0  0  0  0  0  0  0  0
   -2.7558    0.0042   -1.2102 H   0  0  0  0  0  0  0  0  0  0  0  0
    0.9947   -2.1661   -0.9388 H   0  0  0  0  0  0  0  0  0  0  0  0
    0.6988   -2.0068    0.8428 H   0  0  0  0  0  0  0  0  0  0  0  0
  1  2  3  0
  2  3  1  0
  3  4  2  0
  4  5  1  0
  5  6  1  0
  5  7  1  0
  5  8  1  0
  8  9  1  0
  9  3  1  0
  1 10  1  0
  4 11  1  0
  6 12  1  0
  6 13  1  0
  6 14  1  0
  7 15  1  0
  7 16  1  0
  7 17  1  0
  9 18  1  0
  9 19  1  0
M  END
