
     RDKit          3D

 17 16  0  0  0  0  0  0  0  0999 V2000
    0.8173    2.1747    0.0277 C   0  0  0  0  0  0  0  0  0  0  0  0
    1.1956    0.8642    0.6174 C   0  0  0  0  0  0  0  0  0  0  0  0
    1.5293   -0.3637    1.1561 C   0  0  0  0  0  0  0  0  0  0  0  0
    2.8564   -0.5847    0.8614 O   0  0  0  0  0  0  0  0  0  0  0  0
    0.8097   -1.2569    0.0062 C   0  0  0  0  0  0  0  0  0  0  0  0
   -0.3586   -0.8195   -0.3127 O   0  0  0  0  0  0  0  0  0  0  0  0
   -1.5671   -0.6774   -0.8561 C   0  0  0  0  0  0  0  0  0  0  0  0
   -2.4233    0.5873   -0.3908 C   0  0  0  0  0  0  0  0  0  0  0  0
   -1.9854   -1.4699   -1.6368 O   0  0  0  0  0  0  0  0  0  0  0  0
    0.4987    3.3599   -0.5011 H   0  0  0  0  0  0  0  0  0  0  0  0
    1.0157   -0.4602    2.0663 H   0  0  0  0  0  0  0  0  0  0  0  0
    3.0572   -0.3180   -0.1499 H   0  0  0  0  0  0  0  0  0  0  0  0
    0.6156   -2.1723    0.7690 H   0  0  0  0  0  0  0  0  0  0  0  0
    1.6192   -1.4871   -0.6828 H   0  0  0  0  0  0  0  0  0  0  0  0
   -2.4704    0.5847    0.6988 H   0  0  0  0  0  0  0  0  0  0  0  0
   -1.8330    1.5002   -0.7658 H   0  0  0  0  0  0  0  0  0  0  0  0
   -3.3769    0.5389   -0.9069 H   0  0  0  0  0  0  0  0  0  0  0  0
  1  2  3  0
  2  3  1  0
  3  4  1  0
  3  5  1  0
  5  6  1  0
  6  7  1  0
  7  8  1  0
  7  9  2  0
  1 10  1  0
  3 11  1  0
  4 12  1  0
  5 13  1  0
  5 14  1  0
  8 15  1  0
  8 16  1  0
  8 17  1  0
M  END
