
     RDKit          3D

 19 19  0  0  0  0  0  0  0  0999 V2000
   -2.6684    0.4329   -0.7504 C   0  0  0  0  0  0  0  0  0  0  0  0
   -1.5275    0.2696   -0.4007 C   0  0  0  0  0  0  0  0  0  0  0  0
   -0.1631    0.0886    0.0305 C   0  0  0  0  0  0  0  0  0  0  0  0
    0.2228   -1.2183    0.2774 O   0  0  0  0  0  0  0  0  0  0  0  0
   -0.5417   -1.8133    1.2768 C   0  0  0  0  0  0  0  0  0  0  0  0
    0.1978    1.0728    1.1218 C   0  0  0  0  0  0  0  0  0  0  0  0
    1.4208    1.2790    0.4946 O   0  0  0  0  0  0  0  0  0  0  0  0
    0.8329    0.9334   -0.6996 C   0  0  0  0  0  0  0  0  0  0  0  0
    1.7976    0.1282   -1.5789 C   0  0  0  0  0  0  0  0  0  0  0  0
   -3.6950    0.5616   -1.0584 H   0  0  0  0  0  0  0  0  0  0  0  0
   -1.6064   -1.8400    1.0108 H   0  0  0  0  0  0  0  0  0  0  0  0
   -0.2028   -2.8471    1.4719 H   0  0  0  0  0  0  0  0  0  0  0  0
   -0.4755   -1.2453    2.2395 H   0  0  0  0  0  0  0  0  0  0  0  0
   -0.4700    1.9333    1.1542 H   0  0  0  0  0  0  0  0  0  0  0  0
    0.3766    0.6096    2.1162 H   0  0  0  0  0  0  0  0  0  0  0  0
    0.3329    1.7417   -1.2584 H   0  0  0  0  0  0  0  0  0  0  0  0
    2.6781   -0.1992   -0.9900 H   0  0  0  0  0  0  0  0  0  0  0  0
    1.2798   -0.6923   -2.0778 H   0  0  0  0  0  0  0  0  0  0  0  0
    2.2112    0.8049   -2.3795 H   0  0  0  0  0  0  0  0  0  0  0  0
  1  2  3  0
  2  3  1  0
  3  4  1  0
  4  5  1  0
  3  6  1  0
  6  7  1  0
  7  8  1  0
  8  9  1  0
  8  3  1  0
  1 10  1  0
  5 11  1  0
  5 12  1  0
  5 13  1  0
  6 14  1  0
  6 15  1  0
  8 16  1  0
  9 17  1  0
  9 18  1  0
  9 19  1  0
M  END
