
     RDKit          3D

 21 21  0  0  0  0  0  0  0  0999 V2000
    2.9151    2.1091    0.7311 C   0  0  0  0  0  0  0  0  0  0  0  0
    2.0883    1.2355    0.6461 C   0  0  0  0  0  0  0  0  0  0  0  0
    1.0605    0.1692    0.5436 C   0  0  0  0  0  0  0  0  0  0  0  0
    1.4866   -1.0509   -0.2694 C   0  0  0  0  0  0  0  0  0  0  0  0
    1.0563   -2.2735    0.2332 O   0  0  0  0  0  0  0  0  0  0  0  0
    0.4579   -0.0630   -0.7656 C   0  0  0  0  0  0  0  0  0  0  0  0
   -0.9041   -0.6063   -1.0132 C   0  0  0  0  0  0  0  0  0  0  0  0
   -2.0071    0.2283   -0.4553 C   0  0  0  0  0  0  0  0  0  0  0  0
   -2.0128    0.4348    1.0150 C   0  0  0  0  0  0  0  0  0  0  0  0
    3.6492    2.8701    0.8113 H   0  0  0  0  0  0  0  0  0  0  0  0
    0.5377   -0.0068    1.4948 H   0  0  0  0  0  0  0  0  0  0  0  0
    2.4848   -1.0255   -0.7530 H   0  0  0  0  0  0  0  0  0  0  0  0
    1.6161   -3.0018   -0.1695 H   0  0  0  0  0  0  0  0  0  0  0  0
    0.7949    0.6309   -1.5954 H   0  0  0  0  0  0  0  0  0  0  0  0
   -0.9946   -1.6846   -0.7143 H   0  0  0  0  0  0  0  0  0  0  0  0
   -1.0711   -0.6288   -2.1311 H   0  0  0  0  0  0  0  0  0  0  0  0
   -1.8978    1.2548   -0.9188 H   0  0  0  0  0  0  0  0  0  0  0  0
   -3.0132   -0.1059   -0.8463 H   0  0  0  0  0  0  0  0  0  0  0  0
   -3.0686    0.6802    1.3167 H   0  0  0  0  0  0  0  0  0  0  0  0
   -1.4046    1.3191    1.2790 H   0  0  0  0  0  0  0  0  0  0  0  0
   -1.7735   -0.4850    1.5611 H   0  0  0  0  0  0  0  0  0  0  0  0
  1  2  3  0
  2  3  1  0
  3  4  1  0
  4  5  1  0
  4  6  1  0
  6  7  1  0
  7  8  1  0
  8  9  1  0
  6  3  1  0
  1 10  1  0
  3 11  1  0
  4 12  1  0
  5 13  1  0
  6 14  1  0
  7 15  1  0
  7 16  1  0
  8 17  1  0
  8 18  1  0
  9 19  1  0
  9 20  1  0
  9 21  1  0
M  END
