
     RDKit          3D

 19 20  0  0  0  0  0  0  0  0999 V2000
    2.4234   -1.3179    2.4271 C   0  0  0  0  0  0  0  0  0  0  0  0
    1.8975   -1.0833    1.3592 C   0  0  0  0  0  0  0  0  0  0  0  0
    1.2500   -0.7967    0.0991 C   0  0  0  0  0  0  0  0  0  0  0  0
   -0.1194   -1.4205   -0.0102 C   0  0  0  0  0  0  0  0  0  0  0  0
   -0.9849   -0.5579   -0.5078 C   0  0  0  0  0  0  0  0  0  0  0  0
   -2.1633    0.1757   -1.0339 C   0  0  0  0  0  0  0  0  0  0  0  0
   -1.4851    1.4225   -0.4000 C   0  0  0  0  0  0  0  0  0  0  0  0
   -0.2273    0.7304   -0.8485 C   0  0  0  0  0  0  0  0  0  0  0  0
    0.9550    0.7102    0.0613 C   0  0  0  0  0  0  0  0  0  0  0  0
    2.8818   -1.5102    3.3802 H   0  0  0  0  0  0  0  0  0  0  0  0
    1.9125   -1.0966   -0.7264 H   0  0  0  0  0  0  0  0  0  0  0  0
   -0.2825   -2.4439    0.3006 H   0  0  0  0  0  0  0  0  0  0  0  0
   -2.1223    0.3210   -2.1311 H   0  0  0  0  0  0  0  0  0  0  0  0
   -3.1291   -0.0687   -0.5907 H   0  0  0  0  0  0  0  0  0  0  0  0
   -1.7383    2.3473   -0.9304 H   0  0  0  0  0  0  0  0  0  0  0  0
   -1.5612    1.4359    0.6992 H   0  0  0  0  0  0  0  0  0  0  0  0
   -0.0085    0.7888   -1.9247 H   0  0  0  0  0  0  0  0  0  0  0  0
    1.8167    1.2825   -0.3113 H   0  0  0  0  0  0  0  0  0  0  0  0
    0.6852    1.0816    1.0625 H   0  0  0  0  0  0  0  0  0  0  0  0
  1  2  3  0
  2  3  1  0
  3  4  1  0
  4  5  2  0
  5  6  1  0
  6  7  1  0
  7  8  1  0
  8  9  1  0
  9  3  1  0
  8  5  1  0
  1 10  1  0
  3 11  1  0
  4 12  1  0
  6 13  1  0
  6 14  1  0
  7 15  1  0
  7 16  1  0
  8 17  1  0
  9 18  1  0
  9 19  1  0
M  END
