
     RDKit          3D

 17 18  0  0  0  0  0  0  0  0999 V2000
   -1.8768    1.9492   -0.6377 C   0  0  0  0  0  0  0  0  0  0  0  0
   -1.3540    0.8705   -0.4377 C   0  0  0  0  0  0  0  0  0  0  0  0
   -0.7176   -0.4185   -0.1765 C   0  0  0  0  0  0  0  0  0  0  0  0
   -1.1463   -1.6267   -0.9065 C   0  0  0  0  0  0  0  0  0  0  0  0
    0.1502   -0.9606   -1.2437 C   0  0  0  0  0  0  0  0  0  0  0  0
    1.1851   -1.1805   -0.3619 O   0  0  0  0  0  0  0  0  0  0  0  0
    0.5241   -0.4815    0.6468 C   0  0  0  0  0  0  0  0  0  0  0  0
    1.1932    0.8235    0.9589 C   0  0  0  0  0  0  0  0  0  0  0  0
    2.5054    0.5698    1.3801 O   0  0  0  0  0  0  0  0  0  0  0  0
   -2.3366    2.8904   -0.7941 H   0  0  0  0  0  0  0  0  0  0  0  0
   -1.8992   -1.5708   -1.7197 H   0  0  0  0  0  0  0  0  0  0  0  0
   -1.1383   -2.5847   -0.3334 H   0  0  0  0  0  0  0  0  0  0  0  0
    0.3062   -0.4550   -2.2063 H   0  0  0  0  0  0  0  0  0  0  0  0
    0.3380   -1.0746    1.5781 H   0  0  0  0  0  0  0  0  0  0  0  0
    0.6220    1.3360    1.7851 H   0  0  0  0  0  0  0  0  0  0  0  0
    1.2117    1.4963    0.0999 H   0  0  0  0  0  0  0  0  0  0  0  0
    2.4329    0.4171    2.3686 H   0  0  0  0  0  0  0  0  0  0  0  0
  1  2  3  0
  2  3  1  0
  3  4  1  0
  4  5  1  0
  5  6  1  0
  6  7  1  0
  7  8  1  0
  8  9  1  0
  5  3  1  0
  7  3  1  0
  1 10  1  0
  4 11  1  0
  4 12  1  0
  5 13  1  0
  7 14  1  0
  8 15  1  0
  8 16  1  0
  9 17  1  0
M  END
