
     RDKit          3D

 19 20  0  0  0  0  0  0  0  0999 V2000
    3.4176   -0.3437    0.6425 C   0  0  0  0  0  0  0  0  0  0  0  0
    2.4751   -0.1049   -0.0690 C   0  0  0  0  0  0  0  0  0  0  0  0
    1.3105    0.1859   -0.9214 C   0  0  0  0  0  0  0  0  0  0  0  0
    0.0979   -0.3215   -0.2107 C   0  0  0  0  0  0  0  0  0  0  0  0
   -0.0765   -1.6198    0.1309 O   0  0  0  0  0  0  0  0  0  0  0  0
    0.0828   -0.7603    1.1705 C   0  0  0  0  0  0  0  0  0  0  0  0
   -0.8261    0.3534    1.5095 C   0  0  0  0  0  0  0  0  0  0  0  0
   -1.0849    0.5848    0.0242 C   0  0  0  0  0  0  0  0  0  0  0  0
   -2.3813   -0.0353   -0.4391 C   0  0  0  0  0  0  0  0  0  0  0  0
    4.2458   -0.5646    1.2513 H   0  0  0  0  0  0  0  0  0  0  0  0
    1.4481   -0.2658   -1.9038 H   0  0  0  0  0  0  0  0  0  0  0  0
    1.2814    1.2786   -1.0416 H   0  0  0  0  0  0  0  0  0  0  0  0
    0.9633   -0.8859    1.8149 H   0  0  0  0  0  0  0  0  0  0  0  0
   -1.7170    0.1567    2.1058 H   0  0  0  0  0  0  0  0  0  0  0  0
   -0.2353    1.2393    1.8879 H   0  0  0  0  0  0  0  0  0  0  0  0
   -0.9653    1.6320   -0.3083 H   0  0  0  0  0  0  0  0  0  0  0  0
   -2.6178   -0.8616    0.2924 H   0  0  0  0  0  0  0  0  0  0  0  0
   -2.2640   -0.4389   -1.4615 H   0  0  0  0  0  0  0  0  0  0  0  0
   -3.1542    0.7717   -0.3843 H   0  0  0  0  0  0  0  0  0  0  0  0
  1  2  3  0
  2  3  1  0
  3  4  1  0
  4  5  1  0
  5  6  1  0
  6  7  1  0
  7  8  1  0
  8  9  1  0
  6  4  1  0
  8  4  1  0
  1 10  1  0
  3 11  1  0
  3 12  1  0
  6 13  1  0
  7 14  1  0
  7 15  1  0
  8 16  1  0
  9 17  1  0
  9 18  1  0
  9 19  1  0
M  END
