
     RDKit          3D

 15 16  0  0  0  0  0  0  0  0999 V2000
    2.5023    0.4286    1.2359 C   0  0  0  0  0  0  0  0  0  0  0  0
    1.4169   -0.0596    0.9932 C   0  0  0  0  0  0  0  0  0  0  0  0
    0.1243   -0.6686    0.7051 C   0  0  0  0  0  0  0  0  0  0  0  0
   -0.0183   -0.8567   -0.7983 C   0  0  0  0  0  0  0  0  0  0  0  0
   -1.5004   -0.5289   -0.5692 C   0  0  0  0  0  0  0  0  0  0  0  0
   -0.9195    0.4144    0.4552 C   0  0  0  0  0  0  0  0  0  0  0  0
   -0.1197    1.3116   -0.4247 C   0  0  0  0  0  0  0  0  0  0  0  0
    0.0039    2.5444   -0.4093 O   0  0  0  0  0  0  0  0  0  0  0  0
    0.4703    0.3617   -1.2969 O   0  0  0  0  0  0  0  0  0  0  0  0
    3.4553    0.8479    1.4316 H   0  0  0  0  0  0  0  0  0  0  0  0
   -0.1882   -1.4992    1.3267 H   0  0  0  0  0  0  0  0  0  0  0  0
    0.2311   -1.7778   -1.2343 H   0  0  0  0  0  0  0  0  0  0  0  0
   -2.1058   -1.3488   -0.2082 H   0  0  0  0  0  0  0  0  0  0  0  0
   -1.8633    0.0404   -1.4391 H   0  0  0  0  0  0  0  0  0  0  0  0
   -1.4887    0.7903    1.2431 H   0  0  0  0  0  0  0  0  0  0  0  0
  1  2  3  0
  2  3  1  0
  3  4  1  0
  4  5  1  0
  5  6  1  0
  6  7  1  0
  7  8  2  0
  7  9  1  0
  6  3  1  0
  9  4  1  0
  1 10  1  0
  3 11  1  0
  4 12  1  0
  5 13  1  0
  5 14  1  0
  6 15  1  0
M  END
