
     RDKit          3D

 19 19  0  0  0  0  0  0  0  0999 V2000
    2.4755    1.4482   -1.8472 C   0  0  0  0  0  0  0  0  0  0  0  0
    1.7471    0.9362   -1.0015 C   0  0  0  0  0  0  0  0  0  0  0  0
    0.8921    0.3238   -0.0280 C   0  0  0  0  0  0  0  0  0  0  0  0
    1.3411   -0.5559    0.8636 C   0  0  0  0  0  0  0  0  0  0  0  0
    0.2618   -1.0248    1.7377 C   0  0  0  0  0  0  0  0  0  0  0  0
   -0.9564   -0.7630    0.8593 C   0  0  0  0  0  0  0  0  0  0  0  0
   -1.0826   -1.8184   -0.0724 O   0  0  0  0  0  0  0  0  0  0  0  0
   -0.5421    0.5129    0.1872 C   0  0  0  0  0  0  0  0  0  0  0  0
   -1.3204    0.7891   -1.0713 C   0  0  0  0  0  0  0  0  0  0  0  0
    3.0983    1.9063   -2.5706 H   0  0  0  0  0  0  0  0  0  0  0  0
    2.3674   -0.8964    0.9519 H   0  0  0  0  0  0  0  0  0  0  0  0
    0.1721   -0.3325    2.5957 H   0  0  0  0  0  0  0  0  0  0  0  0
    0.3399   -2.0864    2.0207 H   0  0  0  0  0  0  0  0  0  0  0  0
   -1.8851   -0.6530    1.4558 H   0  0  0  0  0  0  0  0  0  0  0  0
   -1.6147   -1.5227   -0.8307 H   0  0  0  0  0  0  0  0  0  0  0  0
   -0.6982    1.3660    0.8529 H   0  0  0  0  0  0  0  0  0  0  0  0
   -2.3500    0.3702   -0.9011 H   0  0  0  0  0  0  0  0  0  0  0  0
   -0.8828    0.1506   -1.8669 H   0  0  0  0  0  0  0  0  0  0  0  0
   -1.3629    1.8497   -1.3351 H   0  0  0  0  0  0  0  0  0  0  0  0
  1  2  3  0
  2  3  1  0
  3  4  2  0
  4  5  1  0
  5  6  1  0
  6  7  1  0
  6  8  1  0
  8  9  1  0
  8  3  1  0
  1 10  1  0
  4 11  1  0
  5 12  1  0
  5 13  1  0
  6 14  1  0
  7 15  1  0
  8 16  1  0
  9 17  1  0
  9 18  1  0
  9 19  1  0
M  END
