
     RDKit          3D

 17 17  0  0  0  0  0  0  0  0999 V2000
    5.0103   -0.1276   -0.1191 C   0  0  0  0  0  0  0  0  0  0  0  0
    4.1125   -0.3360   -0.1618 C   0  0  0  0  0  0  0  0  0  0  0  0
    2.4646   -0.7200   -0.2186 C   0  0  0  0  0  0  0  0  0  0  0  0
    1.1102   -1.0111   -0.2686 C   0  0  0  0  0  0  0  0  0  0  0  0
   -0.0743   -1.2869   -0.3085 C   0  0  0  0  0  0  0  0  0  0  0  0
   -1.0798   -0.5756    0.4682 C   0  0  0  0  0  0  0  0  0  0  0  0
   -1.0028   -0.2421    1.8333 O   0  0  0  0  0  0  0  0  0  0  0  0
   -1.2722    0.8117    0.8659 C   0  0  0  0  0  0  0  0  0  0  0  0
   -2.7468    1.2823    0.7967 C   0  0  0  0  0  0  0  0  0  0  0  0
    6.2435    0.1544   -0.0390 H   0  0  0  0  0  0  0  0  0  0  0  0
   -0.5356   -1.9774   -1.1252 H   0  0  0  0  0  0  0  0  0  0  0  0
   -0.3156   -0.2813   -1.3861 H   0  0  0  0  0  0  0  0  0  0  0  0
   -2.0867   -1.2135    0.2840 H   0  0  0  0  0  0  0  0  0  0  0  0
   -0.5295    1.5344    0.5926 H   0  0  0  0  0  0  0  0  0  0  0  0
   -2.7558    2.3203    0.6344 H   0  0  0  0  0  0  0  0  0  0  0  0
   -3.2202    0.8016   -0.1247 H   0  0  0  0  0  0  0  0  0  0  0  0
   -3.3218    0.8668    1.6604 H   0  0  0  0  0  0  0  0  0  0  0  0
  1  2  3  0
  2  3  1  0
  3  4  3  0
  4  5  1  0
  5  6  1  0
  6  7  1  0
  7  8  1  0
  8  9  1  0
  8  6  1  0
  1 10  1  0
  5 11  1  0
  5 12  1  0
  6 13  1  0
  8 14  1  0
  9 15  1  0
  9 16  1  0
  9 17  1  0
M  END
