
     RDKit          3D

 19 19  0  0  0  0  0  0  0  0999 V2000
   -0.4179    3.1909    1.4743 C   0  0  0  0  0  0  0  0  0  0  0  0
   -0.0682    2.0635    1.4210 C   0  0  0  0  0  0  0  0  0  0  0  0
    0.3859    0.6556    1.3361 C   0  0  0  0  0  0  0  0  0  0  0  0
   -0.6357   -0.4396    1.1662 C   0  0  0  0  0  0  0  0  0  0  0  0
   -2.0417   -0.0957    1.2856 C   0  0  0  0  0  0  0  0  0  0  0  0
   -2.4519    0.9974    0.9603 O   0  0  0  0  0  0  0  0  0  0  0  0
    0.2167   -0.0035    0.0359 C   0  0  0  0  0  0  0  0  0  0  0  0
    1.2841   -0.9318   -0.4801 C   0  0  0  0  0  0  0  0  0  0  0  0
    0.8068   -1.4789   -1.8428 C   0  0  0  0  0  0  0  0  0  0  0  0
   -0.7434    4.2758    1.5423 H   0  0  0  0  0  0  0  0  0  0  0  0
    1.1661    0.3977    2.0830 H   0  0  0  0  0  0  0  0  0  0  0  0
   -0.3584   -1.4963    1.5173 H   0  0  0  0  0  0  0  0  0  0  0  0
   -2.7606   -0.8036    1.6693 H   0  0  0  0  0  0  0  0  0  0  0  0
   -0.1937    0.6415   -0.7973 H   0  0  0  0  0  0  0  0  0  0  0  0
    2.2417   -0.3910   -0.6437 H   0  0  0  0  0  0  0  0  0  0  0  0
    1.5000   -1.7949    0.1587 H   0  0  0  0  0  0  0  0  0  0  0  0
   -0.0654   -0.8571   -2.1425 H   0  0  0  0  0  0  0  0  0  0  0  0
    1.5806   -1.3633   -2.5941 H   0  0  0  0  0  0  0  0  0  0  0  0
    0.5551   -2.5666   -1.7157 H   0  0  0  0  0  0  0  0  0  0  0  0
  1  2  3  0
  2  3  1  0
  3  4  1  0
  4  5  1  0
  5  6  2  0
  4  7  1  0
  7  8  1  0
  8  9  1  0
  7  3  1  0
  1 10  1  0
  3 11  1  0
  4 12  1  0
  5 13  1  0
  7 14  1  0
  8 15  1  0
  8 16  1  0
  9 17  1  0
  9 18  1  0
  9 19  1  0
M  END
