
     RDKit          3D

 18 18  0  0  0  0  0  0  0  0999 V2000
   -2.2431    1.6173    1.0555 C   0  0  0  0  0  0  0  0  0  0  0  0
   -1.5697    0.7217    0.6451 C   0  0  0  0  0  0  0  0  0  0  0  0
   -0.7487   -0.3779    0.1689 C   0  0  0  0  0  0  0  0  0  0  0  0
   -1.5005   -1.5000   -0.5519 C   0  0  0  0  0  0  0  0  0  0  0  0
    0.3918   -0.8459    0.9988 C   0  0  0  0  0  0  0  0  0  0  0  0
    0.6192   -0.0957   -0.3408 C   0  0  0  0  0  0  0  0  0  0  0  0
    1.2109    1.1314   -0.1688 O   0  0  0  0  0  0  0  0  0  0  0  0
    2.1967    1.2868   -1.1323 C   0  0  0  0  0  0  0  0  0  0  0  0
   -2.8523    2.4185    1.4433 H   0  0  0  0  0  0  0  0  0  0  0  0
   -1.9968   -1.1318   -1.4718 H   0  0  0  0  0  0  0  0  0  0  0  0
   -0.8476   -2.3693   -0.7173 H   0  0  0  0  0  0  0  0  0  0  0  0
   -2.2878   -1.8342    0.1784 H   0  0  0  0  0  0  0  0  0  0  0  0
    0.7005   -1.9088    0.9938 H   0  0  0  0  0  0  0  0  0  0  0  0
    0.6212   -0.3255    1.9276 H   0  0  0  0  0  0  0  0  0  0  0  0
    0.9993   -0.7252   -1.1682 H   0  0  0  0  0  0  0  0  0  0  0  0
    2.9730    0.4866   -1.0388 H   0  0  0  0  0  0  0  0  0  0  0  0
    1.6832    1.1755   -2.1311 H   0  0  0  0  0  0  0  0  0  0  0  0
    2.6507    2.2765   -1.1278 H   0  0  0  0  0  0  0  0  0  0  0  0
  1  2  3  0
  2  3  1  0
  3  4  1  0
  3  5  1  0
  5  6  1  0
  6  7  1  0
  7  8  1  0
  6  3  1  0
  1  9  1  0
  4 10  1  0
  4 11  1  0
  4 12  1  0
  5 13  1  0
  5 14  1  0
  6 15  1  0
  8 16  1  0
  8 17  1  0
  8 18  1  0
M  END
