
     RDKit          3D

 17 16  0  0  0  0  0  0  0  0999 V2000
   -1.3510    2.1933    0.8138 C   0  0  0  0  0  0  0  0  0  0  0  0
   -1.4319    0.9450    0.5469 C   0  0  0  0  0  0  0  0  0  0  0  0
   -1.5208   -0.3779    0.2664 C   0  0  0  0  0  0  0  0  0  0  0  0
   -2.6352   -0.9767    0.9521 O   0  0  0  0  0  0  0  0  0  0  0  0
   -0.3144   -1.2300    0.6915 C   0  0  0  0  0  0  0  0  0  0  0  0
    0.9368   -0.7135    0.0461 C   0  0  0  0  0  0  0  0  0  0  0  0
    2.0054   -1.4038    0.3012 O   0  0  0  0  0  0  0  0  0  0  0  0
    1.0290    0.3674   -0.7355 O   0  0  0  0  0  0  0  0  0  0  0  0
    2.2172    0.8524   -1.3300 C   0  0  0  0  0  0  0  0  0  0  0  0
   -1.2938    3.2888    1.0371 H   0  0  0  0  0  0  0  0  0  0  0  0
   -1.7074   -0.6458   -0.8150 H   0  0  0  0  0  0  0  0  0  0  0  0
   -2.7953   -1.8567    0.5527 H   0  0  0  0  0  0  0  0  0  0  0  0
   -0.2330   -1.1797    1.7698 H   0  0  0  0  0  0  0  0  0  0  0  0
   -0.5498   -2.2915    0.3539 H   0  0  0  0  0  0  0  0  0  0  0  0
    2.7978    1.4342   -0.5459 H   0  0  0  0  0  0  0  0  0  0  0  0
    1.9618    1.5405   -2.1968 H   0  0  0  0  0  0  0  0  0  0  0  0
    2.8846    0.0539   -1.7082 H   0  0  0  0  0  0  0  0  0  0  0  0
  1  2  3  0
  2  3  1  0
  3  4  1  0
  3  5  1  0
  5  6  1  0
  6  7  2  0
  6  8  1  0
  8  9  1  0
  1 10  1  0
  3 11  1  0
  4 12  1  0
  5 13  1  0
  5 14  1  0
  9 15  1  0
  9 16  1  0
  9 17  1  0
M  END
