
     RDKit          3D

 19 18  0  0  0  0  0  0  0  0999 V2000
    2.7735    1.3558    0.1630 C   0  0  0  0  0  0  0  0  0  0  0  0
    2.2419    0.3299   -0.1902 C   0  0  0  0  0  0  0  0  0  0  0  0
    1.6288   -0.9061   -0.6189 C   0  0  0  0  0  0  0  0  0  0  0  0
    0.2539   -1.1316   -0.1243 C   0  0  0  0  0  0  0  0  0  0  0  0
   -0.7716   -0.1619   -0.5461 C   0  0  0  0  0  0  0  0  0  0  0  0
   -0.5270    1.1995   -0.1184 C   0  0  0  0  0  0  0  0  0  0  0  0
   -0.3401    2.3560    0.2486 C   0  0  0  0  0  0  0  0  0  0  0  0
   -2.0794   -0.5849    0.1534 C   0  0  0  0  0  0  0  0  0  0  0  0
   -1.8100   -0.5252    1.5197 O   0  0  0  0  0  0  0  0  0  0  0  0
    3.2242    2.2581    0.4781 H   0  0  0  0  0  0  0  0  0  0  0  0
    1.5669   -0.9015   -1.7405 H   0  0  0  0  0  0  0  0  0  0  0  0
    2.3111   -1.7661   -0.3398 H   0  0  0  0  0  0  0  0  0  0  0  0
   -0.1099   -2.1550   -0.4605 H   0  0  0  0  0  0  0  0  0  0  0  0
    0.2473   -1.2402    0.9975 H   0  0  0  0  0  0  0  0  0  0  0  0
   -0.9214   -0.2215   -1.6575 H   0  0  0  0  0  0  0  0  0  0  0  0
   -0.1661    3.3478    0.5754 H   0  0  0  0  0  0  0  0  0  0  0  0
   -2.8301    0.1839   -0.1141 H   0  0  0  0  0  0  0  0  0  0  0  0
   -2.3197   -1.5938   -0.1924 H   0  0  0  0  0  0  0  0  0  0  0  0
   -2.3722    0.1568    1.9671 H   0  0  0  0  0  0  0  0  0  0  0  0
  1  2  3  0
  2  3  1  0
  3  4  1  0
  4  5  1  0
  5  6  1  0
  6  7  3  0
  5  8  1  0
  8  9  1  0
  1 10  1  0
  3 11  1  0
  3 12  1  0
  4 13  1  0
  4 14  1  0
  5 15  1  0
  7 16  1  0
  8 17  1  0
  8 18  1  0
  9 19  1  0
M  END
