
     RDKit          3D

 19 18  0  0  0  0  0  0  0  0999 V2000
    3.0662    0.9160    0.2731 C   0  0  0  0  0  0  0  0  0  0  0  0
    2.3375    0.0265   -0.1130 C   0  0  0  0  0  0  0  0  0  0  0  0
    1.4739   -1.0632   -0.5721 C   0  0  0  0  0  0  0  0  0  0  0  0
    0.1290   -0.5409   -1.0272 C   0  0  0  0  0  0  0  0  0  0  0  0
   -0.5207    0.1573    0.1559 C   0  0  0  0  0  0  0  0  0  0  0  0
   -0.7155   -0.7671    1.2964 C   0  0  0  0  0  0  0  0  0  0  0  0
   -1.4017   -1.7846    1.1537 O   0  0  0  0  0  0  0  0  0  0  0  0
   -1.8949    0.6815   -0.2295 C   0  0  0  0  0  0  0  0  0  0  0  0
   -2.4633    1.3089    0.8559 O   0  0  0  0  0  0  0  0  0  0  0  0
    3.7010    1.6972    0.6199 H   0  0  0  0  0  0  0  0  0  0  0  0
    1.3036   -1.7975    0.2518 H   0  0  0  0  0  0  0  0  0  0  0  0
    2.0024   -1.6053   -1.3769 H   0  0  0  0  0  0  0  0  0  0  0  0
   -0.4694   -1.3681   -1.4086 H   0  0  0  0  0  0  0  0  0  0  0  0
    0.3298    0.2563   -1.7803 H   0  0  0  0  0  0  0  0  0  0  0  0
    0.1363    0.9815    0.4814 H   0  0  0  0  0  0  0  0  0  0  0  0
   -0.2862   -0.6121    2.2801 H   0  0  0  0  0  0  0  0  0  0  0  0
   -2.5163   -0.1736   -0.5528 H   0  0  0  0  0  0  0  0  0  0  0  0
   -1.8529    1.3893   -1.0706 H   0  0  0  0  0  0  0  0  0  0  0  0
   -2.3587    2.2978    0.7629 H   0  0  0  0  0  0  0  0  0  0  0  0
  1  2  3  0
  2  3  1  0
  3  4  1  0
  4  5  1  0
  5  6  1  0
  6  7  2  0
  5  8  1  0
  8  9  1  0
  1 10  1  0
  3 11  1  0
  3 12  1  0
  4 13  1  0
  4 14  1  0
  5 15  1  0
  6 16  1  0
  8 17  1  0
  8 18  1  0
  9 19  1  0
M  END
