
     RDKit          3D

 17 16  0  0  0  0  0  0  0  0999 V2000
    3.8318   -0.1020    3.2405 C   0  0  0  0  0  0  0  0  0  0  0  0
    3.0239   -0.0305    2.3437 C   0  0  0  0  0  0  0  0  0  0  0  0
    2.0914    0.0669    1.2778 C   0  0  0  0  0  0  0  0  0  0  0  0
    1.3074    0.1411    0.3601 C   0  0  0  0  0  0  0  0  0  0  0  0
    0.3463    0.2466   -0.7433 C   0  0  0  0  0  0  0  0  0  0  0  0
    0.4888   -0.7849   -1.6417 O   0  0  0  0  0  0  0  0  0  0  0  0
   -1.0467    0.2632   -0.1135 C   0  0  0  0  0  0  0  0  0  0  0  0
   -2.0889    0.3712   -1.2065 C   0  0  0  0  0  0  0  0  0  0  0  0
   -3.3468    0.3822   -0.5738 O   0  0  0  0  0  0  0  0  0  0  0  0
    4.5603   -0.1768    4.0266 H   0  0  0  0  0  0  0  0  0  0  0  0
    0.4436    1.2256   -1.2689 H   0  0  0  0  0  0  0  0  0  0  0  0
    0.2754   -0.4427   -2.5588 H   0  0  0  0  0  0  0  0  0  0  0  0
   -1.1891   -0.6256    0.4930 H   0  0  0  0  0  0  0  0  0  0  0  0
   -1.1359    1.1852    0.4975 H   0  0  0  0  0  0  0  0  0  0  0  0
   -1.9850   -0.4837   -1.9028 H   0  0  0  0  0  0  0  0  0  0  0  0
   -1.9534    1.2900   -1.7968 H   0  0  0  0  0  0  0  0  0  0  0  0
   -3.6231    1.3209   -0.4332 H   0  0  0  0  0  0  0  0  0  0  0  0
  1  2  3  0
  2  3  1  0
  3  4  3  0
  4  5  1  0
  5  6  1  0
  5  7  1  0
  7  8  1  0
  8  9  1  0
  1 10  1  0
  5 11  1  0
  6 12  1  0
  7 13  1  0
  7 14  1  0
  8 15  1  0
  8 16  1  0
  9 17  1  0
M  END
