
     RDKit          3D

 15 15  0  0  0  0  0  0  0  0999 V2000
    3.0552   -0.9237    0.8767 C   0  0  0  0  0  0  0  0  0  0  0  0
    2.2384   -0.3337    0.2342 C   0  0  0  0  0  0  0  0  0  0  0  0
    1.2639    0.3851   -0.5553 C   0  0  0  0  0  0  0  0  0  0  0  0
    1.5346    0.7072   -1.7392 O   0  0  0  0  0  0  0  0  0  0  0  0
   -0.0584    0.7644   -0.0241 C   0  0  0  0  0  0  0  0  0  0  0  0
   -0.7962    1.4425   -0.9808 O   0  0  0  0  0  0  0  0  0  0  0  0
   -0.8494   -0.3829    0.4971 C   0  0  0  0  0  0  0  0  0  0  0  0
   -2.2850   -0.4605    0.0247 C   0  0  0  0  0  0  0  0  0  0  0  0
   -1.2875   -1.3922   -0.3271 O   0  0  0  0  0  0  0  0  0  0  0  0
    3.7794   -1.4332    1.4574 H   0  0  0  0  0  0  0  0  0  0  0  0
    0.1382    1.4599    0.8452 H   0  0  0  0  0  0  0  0  0  0  0  0
   -0.4527    1.3303   -1.8946 H   0  0  0  0  0  0  0  0  0  0  0  0
   -0.6397   -0.6719    1.5541 H   0  0  0  0  0  0  0  0  0  0  0  0
   -2.6241    0.2391   -0.7694 H   0  0  0  0  0  0  0  0  0  0  0  0
   -3.0169   -0.7304    0.8010 H   0  0  0  0  0  0  0  0  0  0  0  0
  1  2  3  0
  2  3  1  0
  3  4  2  0
  3  5  1  0
  5  6  1  0
  5  7  1  0
  7  8  1  0
  8  9  1  0
  9  7  1  0
  1 10  1  0
  5 11  1  0
  6 12  1  0
  7 13  1  0
  8 14  1  0
  8 15  1  0
M  END
