
     RDKit          3D

 17 16  0  0  0  0  0  0  0  0999 V2000
    2.8108    0.3180   -1.1126 C   0  0  0  0  0  0  0  0  0  0  0  0
    1.6382    0.4635   -0.8814 C   0  0  0  0  0  0  0  0  0  0  0  0
    0.2062    0.6360   -0.5755 C   0  0  0  0  0  0  0  0  0  0  0  0
    0.1016    1.4110    0.7120 C   0  0  0  0  0  0  0  0  0  0  0  0
   -0.5144   -0.6823   -0.5570 C   0  0  0  0  0  0  0  0  0  0  0  0
    0.0396   -1.5595    0.4312 C   0  0  0  0  0  0  0  0  0  0  0  0
    0.5084   -2.2987    1.2943 C   0  0  0  0  0  0  0  0  0  0  0  0
   -1.9371   -0.4308   -0.2893 C   0  0  0  0  0  0  0  0  0  0  0  0
   -3.1013   -0.2276   -0.0584 C   0  0  0  0  0  0  0  0  0  0  0  0
    3.8593    0.1946   -1.3361 H   0  0  0  0  0  0  0  0  0  0  0  0
   -0.2410    1.3013   -1.3775 H   0  0  0  0  0  0  0  0  0  0  0  0
   -0.2472    0.8328    1.5642 H   0  0  0  0  0  0  0  0  0  0  0  0
    1.1053    1.8382    1.0065 H   0  0  0  0  0  0  0  0  0  0  0  0
   -0.5999    2.2839    0.6147 H   0  0  0  0  0  0  0  0  0  0  0  0
   -0.4017   -1.1022   -1.5972 H   0  0  0  0  0  0  0  0  0  0  0  0
    0.9003   -2.9251    2.0159 H   0  0  0  0  0  0  0  0  0  0  0  0
   -4.1270   -0.0531    0.1464 H   0  0  0  0  0  0  0  0  0  0  0  0
  1  2  3  0
  2  3  1  0
  3  4  1  0
  3  5  1  0
  5  6  1  0
  6  7  3  0
  5  8  1  0
  8  9  3  0
  1 10  1  0
  3 11  1  0
  4 12  1  0
  4 13  1  0
  4 14  1  0
  5 15  1  0
  7 16  1  0
  9 17  1  0
M  END
