
     RDKit          3D

 21 22  0  0  0  0  0  0  0  0999 V2000
    3.3106   -0.4446   -0.0782 C   0  0  0  0  0  0  0  0  0  0  0  0
    2.1872   -0.6094    0.3356 C   0  0  0  0  0  0  0  0  0  0  0  0
    0.8351   -0.8278    0.8241 C   0  0  0  0  0  0  0  0  0  0  0  0
   -0.0852   -1.5680   -0.1214 C   0  0  0  0  0  0  0  0  0  0  0  0
   -1.0464   -0.4324   -0.0683 C   0  0  0  0  0  0  0  0  0  0  0  0
   -1.7374    0.0531   -1.3052 C   0  0  0  0  0  0  0  0  0  0  0  0
   -1.4087    0.2366    1.1976 C   0  0  0  0  0  0  0  0  0  0  0  0
   -0.0468    0.3838    0.6500 C   0  0  0  0  0  0  0  0  0  0  0  0
    0.4906    1.6579    0.1137 C   0  0  0  0  0  0  0  0  0  0  0  0
    4.2983   -0.2873   -0.4286 H   0  0  0  0  0  0  0  0  0  0  0  0
    0.7647   -1.1721    1.8853 H   0  0  0  0  0  0  0  0  0  0  0  0
   -0.4471   -2.4940    0.3632 H   0  0  0  0  0  0  0  0  0  0  0  0
    0.3651   -1.7506   -1.1133 H   0  0  0  0  0  0  0  0  0  0  0  0
   -2.8111   -0.2634   -1.2628 H   0  0  0  0  0  0  0  0  0  0  0  0
   -1.7536    1.1595   -1.3370 H   0  0  0  0  0  0  0  0  0  0  0  0
   -1.2886   -0.3288   -2.2454 H   0  0  0  0  0  0  0  0  0  0  0  0
   -1.5427   -0.4520    2.0732 H   0  0  0  0  0  0  0  0  0  0  0  0
   -2.0597    1.1049    1.1495 H   0  0  0  0  0  0  0  0  0  0  0  0
   -0.2506    2.2327   -0.4675 H   0  0  0  0  0  0  0  0  0  0  0  0
    1.4098    1.4605   -0.4806 H   0  0  0  0  0  0  0  0  0  0  0  0
    0.8164    2.3415    0.9440 H   0  0  0  0  0  0  0  0  0  0  0  0
  1  2  3  0
  2  3  1  0
  3  4  1  0
  4  5  1  0
  5  6  1  0
  5  7  1  0
  7  8  1  0
  8  9  1  0
  8  3  1  0
  8  5  1  0
  1 10  1  0
  3 11  1  0
  4 12  1  0
  4 13  1  0
  6 14  1  0
  6 15  1  0
  6 16  1  0
  7 17  1  0
  7 18  1  0
  9 19  1  0
  9 20  1  0
  9 21  1  0
M  END
