
     RDKit          3D

 19 20  0  0  0  0  0  0  0  0999 V2000
    1.2621    2.7806    0.1660 C   0  0  0  0  0  0  0  0  0  0  0  0
    0.8893    1.7471   -0.3276 C   0  0  0  0  0  0  0  0  0  0  0  0
    0.4289    0.5035   -0.9485 C   0  0  0  0  0  0  0  0  0  0  0  0
    1.2855   -0.6837   -0.5249 C   0  0  0  0  0  0  0  0  0  0  0  0
    0.3977   -1.8355   -1.0148 C   0  0  0  0  0  0  0  0  0  0  0  0
   -0.9546   -1.4032   -0.5351 C   0  0  0  0  0  0  0  0  0  0  0  0
   -1.7477   -0.5669   -1.2852 O   0  0  0  0  0  0  0  0  0  0  0  0
   -0.9167    0.1201   -0.4399 C   0  0  0  0  0  0  0  0  0  0  0  0
   -1.4162    0.6849    0.8616 C   0  0  0  0  0  0  0  0  0  0  0  0
    1.5783    3.7110    0.6118 H   0  0  0  0  0  0  0  0  0  0  0  0
    0.4907    0.5531   -2.0552 H   0  0  0  0  0  0  0  0  0  0  0  0
    2.2682   -0.6906   -0.9904 H   0  0  0  0  0  0  0  0  0  0  0  0
    1.2771   -0.6970    0.5732 H   0  0  0  0  0  0  0  0  0  0  0  0
    0.4324   -1.8458   -2.1379 H   0  0  0  0  0  0  0  0  0  0  0  0
    0.7225   -2.7794   -0.5694 H   0  0  0  0  0  0  0  0  0  0  0  0
   -1.3793   -1.9505    0.3306 H   0  0  0  0  0  0  0  0  0  0  0  0
   -1.7796    1.7080    0.7627 H   0  0  0  0  0  0  0  0  0  0  0  0
   -0.5891    0.5806    1.6109 H   0  0  0  0  0  0  0  0  0  0  0  0
   -2.2494    0.0638    1.2694 H   0  0  0  0  0  0  0  0  0  0  0  0
  1  2  3  0
  2  3  1  0
  3  4  1  0
  4  5  1  0
  5  6  1  0
  6  7  1  0
  7  8  1  0
  8  9  1  0
  8  3  1  0
  8  6  1  0
  1 10  1  0
  3 11  1  0
  4 12  1  0
  4 13  1  0
  5 14  1  0
  5 15  1  0
  6 16  1  0
  9 17  1  0
  9 18  1  0
  9 19  1  0
M  END
