
     RDKit          3D

 18 17  0  0  0  0  0  0  0  0999 V2000
    4.4316   -1.0197   -2.3134 C   0  0  0  0  0  0  0  0  0  0  0  0
    3.2487   -0.7931   -1.7333 C   0  0  0  0  0  0  0  0  0  0  0  0
    1.8529   -0.5023   -1.0629 C   0  0  0  0  0  0  0  0  0  0  0  0
    0.8266   -0.3000   -0.5898 C   0  0  0  0  0  0  0  0  0  0  0  0
   -0.0672   -0.1249   -0.1915 C   0  0  0  0  0  0  0  0  0  0  0  0
   -0.9053   -1.1499    0.7299 C   0  0  0  0  0  0  0  0  0  0  0  0
   -0.6748    1.2350    0.2584 C   0  0  0  0  0  0  0  0  0  0  0  0
   -1.9856    1.1574    0.9531 C   0  0  0  0  0  0  0  0  0  0  0  0
    5.5342   -1.2175   -2.8446 H   0  0  0  0  0  0  0  0  0  0  0  0
   -1.1009   -0.3075   -1.0485 H   0  0  0  0  0  0  0  0  0  0  0  0
   -1.5006   -0.6158    1.4608 H   0  0  0  0  0  0  0  0  0  0  0  0
   -1.5009   -1.8142    0.0525 H   0  0  0  0  0  0  0  0  0  0  0  0
   -0.1159   -1.8107    1.1024 H   0  0  0  0  0  0  0  0  0  0  0  0
    0.0277    1.9519    0.4283 H   0  0  0  0  0  0  0  0  0  0  0  0
   -1.0531    1.6307   -0.8457 H   0  0  0  0  0  0  0  0  0  0  0  0
   -2.5785    0.3748    0.5757 H   0  0  0  0  0  0  0  0  0  0  0  0
   -2.5419    2.1582    0.7186 H   0  0  0  0  0  0  0  0  0  0  0  0
   -1.8971    1.1475    2.0141 H   0  0  0  0  0  0  0  0  0  0  0  0
  1  2  3  0
  2  3  1  0
  3  4  3  0
  4  5  1  0
  5  6  1  0
  5  7  1  0
  7  8  1  0
  1  9  1  0
  5 10  1  0
  6 11  1  0
  6 12  1  0
  6 13  1  0
  7 14  1  0
  7 15  1  0
  8 16  1  0
  8 17  1  0
  8 18  1  0
M  END
