
     RDKit          3D

 19 18  0  0  0  0  0  0  0  0999 V2000
    2.8703    0.1265   -1.5771 C   0  0  0  0  0  0  0  0  0  0  0  0
    2.4071    0.1318   -0.3981 C   0  0  0  0  0  0  0  0  0  0  0  0
    1.8682    0.1409    0.9513 C   0  0  0  0  0  0  0  0  0  0  0  0
    0.3952    0.4126    0.8956 C   0  0  0  0  0  0  0  0  0  0  0  0
   -0.3148   -0.6342    0.1016 C   0  0  0  0  0  0  0  0  0  0  0  0
   -1.7992   -0.4226    0.0107 C   0  0  0  0  0  0  0  0  0  0  0  0
   -2.4291   -0.4130    1.2396 O   0  0  0  0  0  0  0  0  0  0  0  0
   -2.1531    0.7408   -0.8330 C   0  0  0  0  0  0  0  0  0  0  0  0
   -1.6629    0.8492   -1.9250 O   0  0  0  0  0  0  0  0  0  0  0  0
    3.2573    0.1260   -2.5147 H   0  0  0  0  0  0  0  0  0  0  0  0
    2.3762    0.9392    1.5557 H   0  0  0  0  0  0  0  0  0  0  0  0
    2.0413   -0.8612    1.4061 H   0  0  0  0  0  0  0  0  0  0  0  0
   -0.0467    0.3834    1.9348 H   0  0  0  0  0  0  0  0  0  0  0  0
    0.1564    1.4112    0.4948 H   0  0  0  0  0  0  0  0  0  0  0  0
   -0.0445   -1.6283    0.4883 H   0  0  0  0  0  0  0  0  0  0  0  0
    0.0567   -0.6368   -0.9674 H   0  0  0  0  0  0  0  0  0  0  0  0
   -2.2290   -1.3169   -0.5340 H   0  0  0  0  0  0  0  0  0  0  0  0
   -1.9094   -0.8319    1.9702 H   0  0  0  0  0  0  0  0  0  0  0  0
   -2.8401    1.4834   -0.4772 H   0  0  0  0  0  0  0  0  0  0  0  0
  1  2  3  0
  2  3  1  0
  3  4  1  0
  4  5  1  0
  5  6  1  0
  6  7  1  0
  6  8  1  0
  8  9  2  0
  1 10  1  0
  3 11  1  0
  3 12  1  0
  4 13  1  0
  4 14  1  0
  5 15  1  0
  5 16  1  0
  6 17  1  0
  7 18  1  0
  8 19  1  0
M  END
