
     RDKit          3D

 19 19  0  0  0  0  0  0  0  0999 V2000
    0.0869    2.4944    0.1069 C   0  0  0  0  0  0  0  0  0  0  0  0
   -0.0871    1.3561    0.4756 C   0  0  0  0  0  0  0  0  0  0  0  0
   -0.2850   -0.0169    0.9430 C   0  0  0  0  0  0  0  0  0  0  0  0
   -1.2323   -0.7482    0.0246 C   0  0  0  0  0  0  0  0  0  0  0  0
   -2.2514    0.1546   -0.5929 C   0  0  0  0  0  0  0  0  0  0  0  0
   -0.1339   -1.0552   -0.7826 O   0  0  0  0  0  0  0  0  0  0  0  0
    0.6859   -1.0155    0.3269 C   0  0  0  0  0  0  0  0  0  0  0  0
    2.0555   -0.3896    0.0928 C   0  0  0  0  0  0  0  0  0  0  0  0
    2.7639   -1.0803   -0.8676 O   0  0  0  0  0  0  0  0  0  0  0  0
    0.2303    3.5122   -0.2072 H   0  0  0  0  0  0  0  0  0  0  0  0
   -0.4475   -0.1409    2.0126 H   0  0  0  0  0  0  0  0  0  0  0  0
   -1.6577   -1.6306    0.5537 H   0  0  0  0  0  0  0  0  0  0  0  0
   -3.1118   -0.4783   -0.9080 H   0  0  0  0  0  0  0  0  0  0  0  0
   -2.6372    0.9024    0.1553 H   0  0  0  0  0  0  0  0  0  0  0  0
   -1.8256    0.7304   -1.4358 H   0  0  0  0  0  0  0  0  0  0  0  0
    0.7169   -1.9309    0.9524 H   0  0  0  0  0  0  0  0  0  0  0  0
    1.9755    0.6943   -0.1094 H   0  0  0  0  0  0  0  0  0  0  0  0
    2.6200   -0.4996    1.0519 H   0  0  0  0  0  0  0  0  0  0  0  0
    2.5345   -0.8581   -1.7922 H   0  0  0  0  0  0  0  0  0  0  0  0
  1  2  3  0
  2  3  1  0
  3  4  1  0
  4  5  1  0
  4  6  1  0
  6  7  1  0
  7  8  1  0
  8  9  1  0
  7  3  1  0
  1 10  1  0
  3 11  1  0
  4 12  1  0
  5 13  1  0
  5 14  1  0
  5 15  1  0
  7 16  1  0
  8 17  1  0
  8 18  1  0
  9 19  1  0
M  END
