
     RDKit          3D

 17 18  0  0  0  0  0  0  0  0999 V2000
    3.3516    0.8830   -0.6074 C   0  0  0  0  0  0  0  0  0  0  0  0
    1.9864    0.4106   -0.7574 C   0  0  0  0  0  0  0  0  0  0  0  0
    0.6925   -0.0542   -0.8827 C   0  0  0  0  0  0  0  0  0  0  0  0
   -0.4030    0.9754   -0.6403 C   0  0  0  0  0  0  0  0  0  0  0  0
   -1.0734   -0.0407    0.3041 C   0  0  0  0  0  0  0  0  0  0  0  0
   -1.4820    0.4085    1.5985 C   0  0  0  0  0  0  0  0  0  0  0  0
   -2.3404    0.9959    2.0966 O   0  0  0  0  0  0  0  0  0  0  0  0
   -1.2601   -1.4398   -0.1583 C   0  0  0  0  0  0  0  0  0  0  0  0
    0.0806   -0.9441    0.1403 C   0  0  0  0  0  0  0  0  0  0  0  0
    4.1383    1.1676   -0.5264 H   0  0  0  0  0  0  0  0  0  0  0  0
    0.5410   -0.5331   -1.9108 H   0  0  0  0  0  0  0  0  0  0  0  0
   -0.9876    1.2718   -1.5031 H   0  0  0  0  0  0  0  0  0  0  0  0
    0.0021    1.8118   -0.0374 H   0  0  0  0  0  0  0  0  0  0  0  0
   -0.6654    0.0589    2.4714 H   0  0  0  0  0  0  0  0  0  0  0  0
   -1.8191   -2.0606    0.5878 H   0  0  0  0  0  0  0  0  0  0  0  0
   -1.4373   -1.6868   -1.2386 H   0  0  0  0  0  0  0  0  0  0  0  0
    0.6760   -1.2242    1.0637 H   0  0  0  0  0  0  0  0  0  0  0  0
  1  2  3  0
  2  3  1  0
  3  4  1  0
  4  5  1  0
  5  6  1  0
  6  7  2  0
  5  8  1  0
  8  9  1  0
  9  3  1  0
  9  5  1  0
  1 10  1  0
  3 11  1  0
  4 12  1  0
  4 13  1  0
  6 14  1  0
  8 15  1  0
  8 16  1  0
  9 17  1  0
M  END
