
     RDKit          3D

 21 21  0  0  0  0  0  0  0  0999 V2000
    2.6235   -0.9487    1.3304 C   0  0  0  0  0  0  0  0  0  0  0  0
    1.6781   -0.3797    0.8107 C   0  0  0  0  0  0  0  0  0  0  0  0
    0.5290    0.2954    0.2059 C   0  0  0  0  0  0  0  0  0  0  0  0
   -0.4174   -0.5557   -0.6181 C   0  0  0  0  0  0  0  0  0  0  0  0
   -0.9646   -1.6255    0.3079 C   0  0  0  0  0  0  0  0  0  0  0  0
   -1.5719    0.2353   -1.1423 C   0  0  0  0  0  0  0  0  0  0  0  0
    0.3067   -1.1875   -1.6238 O   0  0  0  0  0  0  0  0  0  0  0  0
    0.1137    1.5549    0.8205 C   0  0  0  0  0  0  0  0  0  0  0  0
    0.8830    1.6117   -0.4429 C   0  0  0  0  0  0  0  0  0  0  0  0
    3.4491   -1.4571    1.7695 H   0  0  0  0  0  0  0  0  0  0  0  0
   -1.9707   -1.8821   -0.0409 H   0  0  0  0  0  0  0  0  0  0  0  0
   -0.2611   -2.4904    0.2684 H   0  0  0  0  0  0  0  0  0  0  0  0
   -0.9569   -1.2794    1.3795 H   0  0  0  0  0  0  0  0  0  0  0  0
   -2.2804   -0.4958   -1.6144 H   0  0  0  0  0  0  0  0  0  0  0  0
   -2.1142    0.6537   -0.2634 H   0  0  0  0  0  0  0  0  0  0  0  0
   -1.3275    0.9682   -1.9106 H   0  0  0  0  0  0  0  0  0  0  0  0
    0.2162   -0.7395   -2.5053 H   0  0  0  0  0  0  0  0  0  0  0  0
    0.6333    1.8854    1.7472 H   0  0  0  0  0  0  0  0  0  0  0  0
   -0.9203    1.9512    0.7612 H   0  0  0  0  0  0  0  0  0  0  0  0
    0.4179    1.8953   -1.4083 H   0  0  0  0  0  0  0  0  0  0  0  0
    1.9346    1.9905   -0.3689 H   0  0  0  0  0  0  0  0  0  0  0  0
  1  2  3  0
  2  3  1  0
  3  4  1  0
  4  5  1  0
  4  6  1  0
  4  7  1  0
  3  8  1  0
  8  9  1  0
  9  3  1  0
  1 10  1  0
  5 11  1  0
  5 12  1  0
  5 13  1  0
  6 14  1  0
  6 15  1  0
  6 16  1  0
  7 17  1  0
  8 18  1  0
  8 19  1  0
  9 20  1  0
  9 21  1  0
M  END
