
     RDKit          3D

 21 22  0  0  0  0  0  0  0  0999 V2000
    1.7861   -2.1234   -0.0628 C   0  0  0  0  0  0  0  0  0  0  0  0
    1.0559   -1.2157   -0.3756 C   0  0  0  0  0  0  0  0  0  0  0  0
    0.1562   -0.1143   -0.7339 C   0  0  0  0  0  0  0  0  0  0  0  0
   -0.3478   -0.1597   -2.1487 C   0  0  0  0  0  0  0  0  0  0  0  0
   -0.9966   -0.0322    0.2501 C   0  0  0  0  0  0  0  0  0  0  0  0
   -0.9352   -0.9832    1.4013 C   0  0  0  0  0  0  0  0  0  0  0  0
   -0.5564    1.3849    0.5557 C   0  0  0  0  0  0  0  0  0  0  0  0
    0.7685    1.5561    1.1606 C   0  0  0  0  0  0  0  0  0  0  0  0
    0.6403    1.2481   -0.2911 C   0  0  0  0  0  0  0  0  0  0  0  0
    2.4508   -2.9224    0.2233 H   0  0  0  0  0  0  0  0  0  0  0  0
    0.1280    0.7063   -2.6927 H   0  0  0  0  0  0  0  0  0  0  0  0
    0.0875   -1.0652   -2.6234 H   0  0  0  0  0  0  0  0  0  0  0  0
   -1.4374   -0.1112   -2.1868 H   0  0  0  0  0  0  0  0  0  0  0  0
   -1.9965   -0.0269   -0.2152 H   0  0  0  0  0  0  0  0  0  0  0  0
   -0.3635   -1.8926    1.1211 H   0  0  0  0  0  0  0  0  0  0  0  0
   -1.9331   -1.3015    1.6979 H   0  0  0  0  0  0  0  0  0  0  0  0
   -0.4523   -0.5219    2.2867 H   0  0  0  0  0  0  0  0  0  0  0  0
   -1.2797    2.2030    0.4331 H   0  0  0  0  0  0  0  0  0  0  0  0
    1.2032    0.7999    1.8415 H   0  0  0  0  0  0  0  0  0  0  0  0
    1.0804    2.5831    1.3944 H   0  0  0  0  0  0  0  0  0  0  0  0
    0.9415    1.9887   -1.0353 H   0  0  0  0  0  0  0  0  0  0  0  0
  1  2  3  0
  2  3  1  0
  3  4  1  0
  3  5  1  0
  5  6  1  0
  5  7  1  0
  7  8  1  0
  8  9  1  0
  9  3  1  0
  9  7  1  0
  1 10  1  0
  4 11  1  0
  4 12  1  0
  4 13  1  0
  5 14  1  0
  6 15  1  0
  6 16  1  0
  6 17  1  0
  7 18  1  0
  8 19  1  0
  8 20  1  0
  9 21  1  0
M  END
