
     RDKit          3D

 15 17  0  0  0  0  0  0  0  0999 V2000
    2.6307    1.4962   -0.3520 C   0  0  0  0  0  0  0  0  0  0  0  0
    1.4767    1.1459   -0.4093 C   0  0  0  0  0  0  0  0  0  0  0  0
    0.0879    0.7064   -0.4613 C   0  0  0  0  0  0  0  0  0  0  0  0
   -0.7087    1.0404   -1.5238 O   0  0  0  0  0  0  0  0  0  0  0  0
   -0.2395   -0.2527   -1.5386 C   0  0  0  0  0  0  0  0  0  0  0  0
   -0.8412   -1.1860   -0.5151 C   0  0  0  0  0  0  0  0  0  0  0  0
   -0.4629   -0.2131    0.5498 C   0  0  0  0  0  0  0  0  0  0  0  0
   -1.1272   -0.0263    1.7189 C   0  0  0  0  0  0  0  0  0  0  0  0
    0.2409   -0.6020    1.6639 O   0  0  0  0  0  0  0  0  0  0  0  0
    3.6613    1.7999   -0.2844 H   0  0  0  0  0  0  0  0  0  0  0  0
    0.4827   -0.6033   -2.2706 H   0  0  0  0  0  0  0  0  0  0  0  0
   -1.9344   -1.3070   -0.5825 H   0  0  0  0  0  0  0  0  0  0  0  0
   -0.3215   -2.1758   -0.4663 H   0  0  0  0  0  0  0  0  0  0  0  0
   -1.0735    0.9129    2.3347 H   0  0  0  0  0  0  0  0  0  0  0  0
   -1.8714   -0.7355    2.1366 H   0  0  0  0  0  0  0  0  0  0  0  0
  1  2  3  0
  2  3  1  0
  3  4  1  0
  4  5  1  0
  5  6  1  0
  6  7  1  0
  7  8  1  0
  8  9  1  0
  5  3  1  0
  9  7  1  0
  7  3  1  0
  1 10  1  0
  5 11  1  0
  6 12  1  0
  6 13  1  0
  8 14  1  0
  8 15  1  0
M  END
