
     RDKit          3D

 20 20  0  0  0  0  0  0  0  0999 V2000
    1.5044    2.7027   -0.2738 C   0  0  0  0  0  0  0  0  0  0  0  0
    0.7919    1.7044   -0.2035 C   0  0  0  0  0  0  0  0  0  0  0  0
   -0.0768    0.5287   -0.1108 C   0  0  0  0  0  0  0  0  0  0  0  0
    0.1775   -0.5266   -1.1546 C   0  0  0  0  0  0  0  0  0  0  0  0
    1.5833   -1.0723   -1.0936 C   0  0  0  0  0  0  0  0  0  0  0  0
   -1.5818    0.8099    0.0940 C   0  0  0  0  0  0  0  0  0  0  0  0
   -0.7167    0.2078    1.1841 C   0  0  0  0  0  0  0  0  0  0  0  0
   -1.0272   -1.1969    1.5818 C   0  0  0  0  0  0  0  0  0  0  0  0
    2.1134    3.5681   -0.3174 H   0  0  0  0  0  0  0  0  0  0  0  0
   -0.0254   -0.0564   -2.1437 H   0  0  0  0  0  0  0  0  0  0  0  0
   -0.5073   -1.3837   -1.0627 H   0  0  0  0  0  0  0  0  0  0  0  0
    1.9116   -1.1596   -0.0309 H   0  0  0  0  0  0  0  0  0  0  0  0
    2.2443   -0.4120   -1.6745 H   0  0  0  0  0  0  0  0  0  0  0  0
    1.6166   -2.0711   -1.5952 H   0  0  0  0  0  0  0  0  0  0  0  0
   -1.8476    1.9003    0.1848 H   0  0  0  0  0  0  0  0  0  0  0  0
   -2.3068    0.2086   -0.4393 H   0  0  0  0  0  0  0  0  0  0  0  0
   -0.4749    0.9228    2.0116 H   0  0  0  0  0  0  0  0  0  0  0  0
   -1.2352   -1.2121    2.6690 H   0  0  0  0  0  0  0  0  0  0  0  0
   -1.9341   -1.5498    1.0402 H   0  0  0  0  0  0  0  0  0  0  0  0
   -0.2092   -1.9126    1.3345 H   0  0  0  0  0  0  0  0  0  0  0  0
  1  2  3  0
  2  3  1  0
  3  4  1  0
  4  5  1  0
  3  6  1  0
  6  7  1  0
  7  8  1  0
  7  3  1  0
  1  9  1  0
  4 10  1  0
  4 11  1  0
  5 12  1  0
  5 13  1  0
  5 14  1  0
  6 15  1  0
  6 16  1  0
  7 17  1  0
  8 18  1  0
  8 19  1  0
  8 20  1  0
M  END
