
     RDKit          3D

 19 19  0  0  0  0  0  0  0  0999 V2000
   -3.1318    1.3378   -0.4370 C   0  0  0  0  0  0  0  0  0  0  0  0
   -2.2928    0.5397   -0.0424 C   0  0  0  0  0  0  0  0  0  0  0  0
   -1.2715   -0.4050    0.4139 C   0  0  0  0  0  0  0  0  0  0  0  0
   -0.9529   -0.1247    1.7190 O   0  0  0  0  0  0  0  0  0  0  0  0
   -0.0724   -0.3454   -0.5116 C   0  0  0  0  0  0  0  0  0  0  0  0
    1.0118   -1.2985   -0.0897 C   0  0  0  0  0  0  0  0  0  0  0  0
    2.2807   -0.5272   -0.1308 C   0  0  0  0  0  0  0  0  0  0  0  0
    2.0650    0.7567   -0.3710 C   0  0  0  0  0  0  0  0  0  0  0  0
    0.5897    0.9981   -0.5220 C   0  0  0  0  0  0  0  0  0  0  0  0
   -3.8468    2.0433   -0.7778 H   0  0  0  0  0  0  0  0  0  0  0  0
   -1.6946   -1.4417    0.2880 H   0  0  0  0  0  0  0  0  0  0  0  0
   -1.0071   -0.9164    2.2737 H   0  0  0  0  0  0  0  0  0  0  0  0
   -0.4215   -0.5881   -1.5351 H   0  0  0  0  0  0  0  0  0  0  0  0
    1.1134   -2.1550   -0.7975 H   0  0  0  0  0  0  0  0  0  0  0  0
    0.8716   -1.6822    0.9432 H   0  0  0  0  0  0  0  0  0  0  0  0
    3.2574   -0.9550    0.0159 H   0  0  0  0  0  0  0  0  0  0  0  0
    2.7709    1.5709   -0.4612 H   0  0  0  0  0  0  0  0  0  0  0  0
    0.2640    1.6662    0.2894 H   0  0  0  0  0  0  0  0  0  0  0  0
    0.4669    1.5265   -1.4905 H   0  0  0  0  0  0  0  0  0  0  0  0
  1  2  3  0
  2  3  1  0
  3  4  1  0
  3  5  1  0
  5  6  1  0
  6  7  1  0
  7  8  2  0
  8  9  1  0
  9  5  1  0
  1 10  1  0
  3 11  1  0
  4 12  1  0
  5 13  1  0
  6 14  1  0
  6 15  1  0
  7 16  1  0
  8 17  1  0
  9 18  1  0
  9 19  1  0
M  END
