
     RDKit          3D

 18 18  0  0  0  0  0  0  0  0999 V2000
   -0.3984    1.9996   -2.2450 C   0  0  0  0  0  0  0  0  0  0  0  0
   -0.2937    1.2701   -1.2679 C   0  0  0  0  0  0  0  0  0  0  0  0
   -0.1437    0.3936   -0.1036 C   0  0  0  0  0  0  0  0  0  0  0  0
   -1.3142   -0.5518    0.0785 C   0  0  0  0  0  0  0  0  0  0  0  0
   -2.5196    0.1577    0.2561 O   0  0  0  0  0  0  0  0  0  0  0  0
    0.5443    0.9585    1.0844 C   0  0  0  0  0  0  0  0  0  0  0  0
    1.2197   -0.0962    0.2163 C   0  0  0  0  0  0  0  0  0  0  0  0
    1.4160   -1.4417    0.8944 C   0  0  0  0  0  0  0  0  0  0  0  0
   -0.4785    2.6326   -3.0904 H   0  0  0  0  0  0  0  0  0  0  0  0
   -1.1782   -1.2760    0.8760 H   0  0  0  0  0  0  0  0  0  0  0  0
   -1.4178   -1.1086   -0.8939 H   0  0  0  0  0  0  0  0  0  0  0  0
   -3.2490   -0.5151    0.1397 H   0  0  0  0  0  0  0  0  0  0  0  0
    0.9971    1.9777    1.0061 H   0  0  0  0  0  0  0  0  0  0  0  0
    0.2308    0.6871    2.1095 H   0  0  0  0  0  0  0  0  0  0  0  0
    2.1002    0.2131   -0.3752 H   0  0  0  0  0  0  0  0  0  0  0  0
    2.4475   -1.4471    1.3334 H   0  0  0  0  0  0  0  0  0  0  0  0
    0.6659   -1.5879    1.6904 H   0  0  0  0  0  0  0  0  0  0  0  0
    1.3717   -2.2656    0.1307 H   0  0  0  0  0  0  0  0  0  0  0  0
  1  2  3  0
  2  3  1  0
  3  4  1  0
  4  5  1  0
  3  6  1  0
  6  7  1  0
  7  8  1  0
  7  3  1  0
  1  9  1  0
  4 10  1  0
  4 11  1  0
  5 12  1  0
  6 13  1  0
  6 14  1  0
  7 15  1  0
  8 16  1  0
  8 17  1  0
  8 18  1  0
M  END
