
     RDKit          3D

 19 20  0  0  0  0  0  0  0  0999 V2000
    3.1361    0.9604    0.0276 C   0  0  0  0  0  0  0  0  0  0  0  0
    2.0402    0.4889   -0.1259 C   0  0  0  0  0  0  0  0  0  0  0  0
    0.7507   -0.0423   -0.2938 C   0  0  0  0  0  0  0  0  0  0  0  0
    0.5310   -1.5055    0.1298 C   0  0  0  0  0  0  0  0  0  0  0  0
   -0.9177   -1.0061    0.1960 C   0  0  0  0  0  0  0  0  0  0  0  0
   -1.1360   -0.5809   -1.2133 C   0  0  0  0  0  0  0  0  0  0  0  0
    0.0796    0.1072   -1.4741 O   0  0  0  0  0  0  0  0  0  0  0  0
   -0.2890    0.2590    0.7972 C   0  0  0  0  0  0  0  0  0  0  0  0
   -1.1430    1.4563    0.5193 C   0  0  0  0  0  0  0  0  0  0  0  0
    4.1160    1.3922    0.1508 H   0  0  0  0  0  0  0  0  0  0  0  0
    0.7026   -2.2388   -0.6566 H   0  0  0  0  0  0  0  0  0  0  0  0
    0.9957   -1.6800    1.1131 H   0  0  0  0  0  0  0  0  0  0  0  0
   -1.6183   -1.5418    0.7557 H   0  0  0  0  0  0  0  0  0  0  0  0
   -1.1824   -1.5028   -1.8449 H   0  0  0  0  0  0  0  0  0  0  0  0
   -2.0050    0.0804   -1.3591 H   0  0  0  0  0  0  0  0  0  0  0  0
    0.0986    0.1373    1.8088 H   0  0  0  0  0  0  0  0  0  0  0  0
   -0.8872    1.9802   -0.4216 H   0  0  0  0  0  0  0  0  0  0  0  0
   -2.2012    1.0990    0.4763 H   0  0  0  0  0  0  0  0  0  0  0  0
   -1.0708    2.1375    1.4147 H   0  0  0  0  0  0  0  0  0  0  0  0
  1  2  3  0
  2  3  1  0
  3  4  1  0
  4  5  1  0
  5  6  1  0
  6  7  1  0
  5  8  1  0
  8  9  1  0
  7  3  1  0
  8  3  1  0
  1 10  1  0
  4 11  1  0
  4 12  1  0
  5 13  1  0
  6 14  1  0
  6 15  1  0
  8 16  1  0
  9 17  1  0
  9 18  1  0
  9 19  1  0
M  END
