
     RDKit          3D

 15 16  0  0  0  0  0  0  0  0999 V2000
    1.2435    2.1130   -1.8139 C   0  0  0  0  0  0  0  0  0  0  0  0
    0.9583    1.1144   -1.2164 C   0  0  0  0  0  0  0  0  0  0  0  0
    0.6054   -0.0742   -0.4783 C   0  0  0  0  0  0  0  0  0  0  0  0
   -0.1307   -1.0592   -1.3272 C   0  0  0  0  0  0  0  0  0  0  0  0
   -0.1019   -1.5425   -2.4305 O   0  0  0  0  0  0  0  0  0  0  0  0
   -1.0402   -1.2598   -0.1628 C   0  0  0  0  0  0  0  0  0  0  0  0
   -1.8445   -0.1860    0.0943 O   0  0  0  0  0  0  0  0  0  0  0  0
   -0.5322   -0.0066    0.4669 C   0  0  0  0  0  0  0  0  0  0  0  0
   -0.3154    0.1044    1.9488 C   0  0  0  0  0  0  0  0  0  0  0  0
    1.4816    3.0121   -2.3431 H   0  0  0  0  0  0  0  0  0  0  0  0
    1.5311   -0.5901   -0.0971 H   0  0  0  0  0  0  0  0  0  0  0  0
   -0.9914   -2.1538    0.4444 H   0  0  0  0  0  0  0  0  0  0  0  0
   -0.5783    1.1631    2.2348 H   0  0  0  0  0  0  0  0  0  0  0  0
   -1.0210   -0.5832    2.4462 H   0  0  0  0  0  0  0  0  0  0  0  0
    0.7357   -0.0516    2.2339 H   0  0  0  0  0  0  0  0  0  0  0  0
  1  2  3  0
  2  3  1  0
  3  4  1  0
  4  5  2  0
  4  6  1  0
  6  7  1  0
  7  8  1  0
  8  9  1  0
  8  3  1  0
  8  6  1  0
  1 10  1  0
  3 11  1  0
  6 12  1  0
  9 13  1  0
  9 14  1  0
  9 15  1  0
M  END
