
     RDKit          3D

 17 18  0  0  0  0  0  0  0  0999 V2000
   -1.5390    0.7084    3.4837 C   0  0  0  0  0  0  0  0  0  0  0  0
   -1.3664   -0.0417    2.4640 C   0  0  0  0  0  0  0  0  0  0  0  0
   -1.1706   -0.8489    1.3461 C   0  0  0  0  0  0  0  0  0  0  0  0
   -0.2460   -0.3493    0.3307 C   0  0  0  0  0  0  0  0  0  0  0  0
   -0.4916    0.8257   -0.3404 O   0  0  0  0  0  0  0  0  0  0  0  0
    0.7269    0.9940   -1.0572 C   0  0  0  0  0  0  0  0  0  0  0  0
    0.9937    0.3600   -2.3286 C   0  0  0  0  0  0  0  0  0  0  0  0
    1.2752   -0.4582   -1.1415 C   0  0  0  0  0  0  0  0  0  0  0  0
    0.2162   -1.2117   -0.6331 O   0  0  0  0  0  0  0  0  0  0  0  0
   -1.6830    1.3009    4.3163 H   0  0  0  0  0  0  0  0  0  0  0  0
   -2.1909   -1.1332    0.8039 H   0  0  0  0  0  0  0  0  0  0  0  0
   -0.8746   -1.8769    1.7490 H   0  0  0  0  0  0  0  0  0  0  0  0
    0.7677   -0.1142    0.9183 H   0  0  0  0  0  0  0  0  0  0  0  0
    1.3810    1.7713   -0.6124 H   0  0  0  0  0  0  0  0  0  0  0  0
    0.0879    0.0104   -2.8937 H   0  0  0  0  0  0  0  0  0  0  0  0
    1.8342    0.6579   -2.9230 H   0  0  0  0  0  0  0  0  0  0  0  0
    2.2794   -0.5944   -0.6819 H   0  0  0  0  0  0  0  0  0  0  0  0
  1  2  3  0
  2  3  1  0
  3  4  1  0
  4  5  1  0
  5  6  1  0
  6  7  1  0
  7  8  1  0
  8  9  1  0
  9  4  1  0
  8  6  1  0
  1 10  1  0
  3 11  1  0
  3 12  1  0
  4 13  1  0
  6 14  1  0
  7 15  1  0
  7 16  1  0
  8 17  1  0
M  END
