
     RDKit          3D

 20 20  0  0  0  0  0  0  0  0999 V2000
   -0.6969    2.7726   -0.7704 C   0  0  0  0  0  0  0  0  0  0  0  0
   -0.3888    1.6318   -0.7823 C   0  0  0  0  0  0  0  0  0  0  0  0
    0.0206    0.2150   -0.7970 C   0  0  0  0  0  0  0  0  0  0  0  0
   -0.8530   -0.6301    0.1043 C   0  0  0  0  0  0  0  0  0  0  0  0
   -1.6559   -1.6130   -0.7268 C   0  0  0  0  0  0  0  0  0  0  0  0
    0.4118   -1.1970    0.7030 C   0  0  0  0  0  0  0  0  0  0  0  0
    1.2024   -0.0694    0.0669 C   0  0  0  0  0  0  0  0  0  0  0  0
    1.5870    0.9700    1.0627 C   0  0  0  0  0  0  0  0  0  0  0  0
   -1.0015    3.8320   -0.7664 H   0  0  0  0  0  0  0  0  0  0  0  0
    0.1629   -0.1817   -1.8237 H   0  0  0  0  0  0  0  0  0  0  0  0
   -1.4415   -0.0397    0.8362 H   0  0  0  0  0  0  0  0  0  0  0  0
   -2.7145   -1.5491   -0.3696 H   0  0  0  0  0  0  0  0  0  0  0  0
   -1.2754   -2.6529   -0.6467 H   0  0  0  0  0  0  0  0  0  0  0  0
   -1.6145   -1.3425   -1.8038 H   0  0  0  0  0  0  0  0  0  0  0  0
    0.4148   -1.1846    1.8041 H   0  0  0  0  0  0  0  0  0  0  0  0
    0.6718   -2.1739    0.2207 H   0  0  0  0  0  0  0  0  0  0  0  0
    2.0952   -0.4496   -0.4792 H   0  0  0  0  0  0  0  0  0  0  0  0
    2.5412    1.4801    0.8600 H   0  0  0  0  0  0  0  0  0  0  0  0
    1.7049    0.4358    2.0506 H   0  0  0  0  0  0  0  0  0  0  0  0
    0.8293    1.7465    1.2576 H   0  0  0  0  0  0  0  0  0  0  0  0
  1  2  3  0
  2  3  1  0
  3  4  1  0
  4  5  1  0
  4  6  1  0
  6  7  1  0
  7  8  1  0
  7  3  1  0
  1  9  1  0
  3 10  1  0
  4 11  1  0
  5 12  1  0
  5 13  1  0
  5 14  1  0
  6 15  1  0
  6 16  1  0
  7 17  1  0
  8 18  1  0
  8 19  1  0
  8 20  1  0
M  END
