
     RDKit          3D

 17 18  0  0  0  0  0  0  0  0999 V2000
    2.7218   -0.7101   -1.0502 C   0  0  0  0  0  0  0  0  0  0  0  0
    1.8031   -0.7075   -0.3024 C   0  0  0  0  0  0  0  0  0  0  0  0
    0.6533   -0.6926    0.6041 C   0  0  0  0  0  0  0  0  0  0  0  0
    0.6397    0.4621    1.5527 C   0  0  0  0  0  0  0  0  0  0  0  0
    1.3234    0.8199    2.4929 O   0  0  0  0  0  0  0  0  0  0  0  0
   -0.5644    1.0194    0.8855 C   0  0  0  0  0  0  0  0  0  0  0  0
   -1.7443    0.1248    0.8554 C   0  0  0  0  0  0  0  0  0  0  0  0
   -0.5943   -0.1503   -0.0111 C   0  0  0  0  0  0  0  0  0  0  0  0
   -0.7193    0.0051   -1.5011 C   0  0  0  0  0  0  0  0  0  0  0  0
    3.5412   -0.6941   -1.7202 H   0  0  0  0  0  0  0  0  0  0  0  0
    0.5092   -1.6343    1.1747 H   0  0  0  0  0  0  0  0  0  0  0  0
   -0.5829    2.0495    0.5227 H   0  0  0  0  0  0  0  0  0  0  0  0
   -2.6640    0.5259    0.3850 H   0  0  0  0  0  0  0  0  0  0  0  0
   -1.8942   -0.5680    1.7133 H   0  0  0  0  0  0  0  0  0  0  0  0
   -1.1380   -0.9266   -1.9347 H   0  0  0  0  0  0  0  0  0  0  0  0
   -1.5123    0.7885   -1.6681 H   0  0  0  0  0  0  0  0  0  0  0  0
    0.2217    0.2963   -1.9985 H   0  0  0  0  0  0  0  0  0  0  0  0
  1  2  3  0
  2  3  1  0
  3  4  1  0
  4  5  2  0
  4  6  1  0
  6  7  1  0
  7  8  1  0
  8  9  1  0
  8  3  1  0
  8  6  1  0
  1 10  1  0
  3 11  1  0
  6 12  1  0
  7 13  1  0
  7 14  1  0
  9 15  1  0
  9 16  1  0
  9 17  1  0
M  END
