
     RDKit          3D

 15 16  0  0  0  0  0  0  0  0999 V2000
    3.2594    0.4018    0.2603 C   0  0  0  0  0  0  0  0  0  0  0  0
    2.1282   -0.0154    0.2264 C   0  0  0  0  0  0  0  0  0  0  0  0
    0.7665   -0.5400    0.1726 C   0  0  0  0  0  0  0  0  0  0  0  0
   -0.0201   -0.0163   -1.0325 C   0  0  0  0  0  0  0  0  0  0  0  0
   -1.0128    0.4843   -0.0428 C   0  0  0  0  0  0  0  0  0  0  0  0
   -2.3874    0.3149   -0.0345 C   0  0  0  0  0  0  0  0  0  0  0  0
   -1.7230    1.6317   -0.2158 O   0  0  0  0  0  0  0  0  0  0  0  0
   -0.1050    0.2737    1.0937 C   0  0  0  0  0  0  0  0  0  0  0  0
   -0.0425    0.5869    2.2502 O   0  0  0  0  0  0  0  0  0  0  0  0
    4.2616    0.7877    0.2810 H   0  0  0  0  0  0  0  0  0  0  0  0
    0.6877   -1.6291    0.3244 H   0  0  0  0  0  0  0  0  0  0  0  0
   -0.4527   -0.8515   -1.6267 H   0  0  0  0  0  0  0  0  0  0  0  0
    0.5522    0.7248   -1.5995 H   0  0  0  0  0  0  0  0  0  0  0  0
   -2.9329   -0.0014   -0.9691 H   0  0  0  0  0  0  0  0  0  0  0  0
   -2.9791    0.2707    0.9121 H   0  0  0  0  0  0  0  0  0  0  0  0
  1  2  3  0
  2  3  1  0
  3  4  1  0
  4  5  1  0
  5  6  1  0
  6  7  1  0
  5  8  1  0
  8  9  2  0
  8  3  1  0
  7  5  1  0
  1 10  1  0
  3 11  1  0
  4 12  1  0
  4 13  1  0
  6 14  1  0
  6 15  1  0
M  END
