
     RDKit          3D

 15 14  0  0  0  0  0  0  0  0999 V2000
   -2.6643    0.4938    1.3690 C   0  0  0  0  0  0  0  0  0  0  0  0
   -1.8952   -0.0769    0.6199 C   0  0  0  0  0  0  0  0  0  0  0  0
   -0.9523   -0.7675   -0.2763 C   0  0  0  0  0  0  0  0  0  0  0  0
   -1.0569   -0.2040   -1.6492 C   0  0  0  0  0  0  0  0  0  0  0  0
   -0.3722    0.7687   -1.9089 O   0  0  0  0  0  0  0  0  0  0  0  0
    0.4350   -0.6452    0.2506 C   0  0  0  0  0  0  0  0  0  0  0  0
    1.0915   -1.6767    0.5416 O   0  0  0  0  0  0  0  0  0  0  0  0
    1.0526    0.5833    0.4404 O   0  0  0  0  0  0  0  0  0  0  0  0
    2.3672    0.7207    0.9390 C   0  0  0  0  0  0  0  0  0  0  0  0
   -3.3311    1.0066    2.0121 H   0  0  0  0  0  0  0  0  0  0  0  0
   -1.2386   -1.8225   -0.3070 H   0  0  0  0  0  0  0  0  0  0  0  0
   -1.7224   -0.6585   -2.3707 H   0  0  0  0  0  0  0  0  0  0  0  0
    3.1248    0.7665    0.1139 H   0  0  0  0  0  0  0  0  0  0  0  0
    2.5011    1.6480    1.5316 H   0  0  0  0  0  0  0  0  0  0  0  0
    2.6609   -0.1363    1.5902 H   0  0  0  0  0  0  0  0  0  0  0  0
  1  2  3  0
  2  3  1  0
  3  4  1  0
  4  5  2  0
  3  6  1  0
  6  7  2  0
  6  8  1  0
  8  9  1  0
  1 10  1  0
  3 11  1  0
  4 12  1  0
  9 13  1  0
  9 14  1  0
  9 15  1  0
M  END
