
     RDKit          3D

 23 23  0  0  0  0  0  0  0  0999 V2000
   -1.4911    2.1472    0.7306 C   0  0  0  0  0  0  0  0  0  0  0  0
   -1.1872    1.0149    0.3793 C   0  0  0  0  0  0  0  0  0  0  0  0
   -0.8332   -0.3416   -0.0343 C   0  0  0  0  0  0  0  0  0  0  0  0
   -1.3190   -1.3654    0.9816 C   0  0  0  0  0  0  0  0  0  0  0  0
   -1.4940   -0.7039   -1.3550 C   0  0  0  0  0  0  0  0  0  0  0  0
    0.6545   -0.4477   -0.1045 C   0  0  0  0  0  0  0  0  0  0  0  0
    1.3371    0.4903   -1.0700 C   0  0  0  0  0  0  0  0  0  0  0  0
    2.4114    0.6812    0.0058 C   0  0  0  0  0  0  0  0  0  0  0  0
    1.3228    0.3173    1.0207 C   0  0  0  0  0  0  0  0  0  0  0  0
   -1.7351    3.1273    1.0349 H   0  0  0  0  0  0  0  0  0  0  0  0
   -1.5945   -2.3295    0.5023 H   0  0  0  0  0  0  0  0  0  0  0  0
   -2.2651   -0.9805    1.4354 H   0  0  0  0  0  0  0  0  0  0  0  0
   -0.5448   -1.5901    1.7243 H   0  0  0  0  0  0  0  0  0  0  0  0
   -1.7476   -1.7894   -1.3969 H   0  0  0  0  0  0  0  0  0  0  0  0
   -0.8538   -0.4878   -2.2163 H   0  0  0  0  0  0  0  0  0  0  0  0
   -2.4513   -0.1604   -1.4557 H   0  0  0  0  0  0  0  0  0  0  0  0
    1.0349   -1.4821   -0.2185 H   0  0  0  0  0  0  0  0  0  0  0  0
    1.6971    0.0226   -1.9948 H   0  0  0  0  0  0  0  0  0  0  0  0
    0.7429    1.4173   -1.1929 H   0  0  0  0  0  0  0  0  0  0  0  0
    2.7845    1.6972    0.1122 H   0  0  0  0  0  0  0  0  0  0  0  0
    3.1457   -0.1417   -0.0308 H   0  0  0  0  0  0  0  0  0  0  0  0
    0.7245    1.2153    1.2948 H   0  0  0  0  0  0  0  0  0  0  0  0
    1.6610   -0.3105    1.8478 H   0  0  0  0  0  0  0  0  0  0  0  0
  1  2  3  0
  2  3  1  0
  3  4  1  0
  3  5  1  0
  3  6  1  0
  6  7  1  0
  7  8  1  0
  8  9  1  0
  9  6  1  0
  1 10  1  0
  4 11  1  0
  4 12  1  0
  4 13  1  0
  5 14  1  0
  5 15  1  0
  5 16  1  0
  6 17  1  0
  7 18  1  0
  7 19  1  0
  8 20  1  0
  8 21  1  0
  9 22  1  0
  9 23  1  0
M  END
