
     RDKit          3D

 15 16  0  0  0  0  0  0  0  0999 V2000
    2.2540   -2.6178   -0.0079 C   0  0  0  0  0  0  0  0  0  0  0  0
    1.4243   -1.7806    0.1662 C   0  0  0  0  0  0  0  0  0  0  0  0
    0.3944   -0.7280    0.3796 C   0  0  0  0  0  0  0  0  0  0  0  0
   -0.8080   -1.1220   -0.1603 O   0  0  0  0  0  0  0  0  0  0  0  0
   -0.8631   -0.1628   -1.1373 C   0  0  0  0  0  0  0  0  0  0  0  0
   -0.6566    1.2638   -0.8928 C   0  0  0  0  0  0  0  0  0  0  0  0
   -1.2489    1.8475    0.2912 C   0  0  0  0  0  0  0  0  0  0  0  0
   -1.7636    2.3296    1.3053 C   0  0  0  0  0  0  0  0  0  0  0  0
    0.4733    0.3324   -0.6928 C   0  0  0  0  0  0  0  0  0  0  0  0
    2.9996   -3.3869   -0.1810 H   0  0  0  0  0  0  0  0  0  0  0  0
    0.3515   -0.3611    1.4140 H   0  0  0  0  0  0  0  0  0  0  0  0
   -1.0296   -0.5012   -2.1801 H   0  0  0  0  0  0  0  0  0  0  0  0
   -0.6096    1.9159   -1.7871 H   0  0  0  0  0  0  0  0  0  0  0  0
   -2.2108    2.7370    2.2030 H   0  0  0  0  0  0  0  0  0  0  0  0
    1.2932    0.2343   -1.4284 H   0  0  0  0  0  0  0  0  0  0  0  0
  1  2  3  0
  2  3  1  0
  3  4  1  0
  4  5  1  0
  5  6  1  0
  6  7  1  0
  7  8  3  0
  6  9  1  0
  9  3  1  0
  9  5  1  0
  1 10  1  0
  3 11  1  0
  5 12  1  0
  6 13  1  0
  8 14  1  0
  9 15  1  0
M  END
