
     RDKit          3D

 19 19  0  0  0  0  0  0  0  0999 V2000
    2.4696   -0.6402    0.1381 C   0  0  0  0  0  0  0  0  0  0  0  0
    1.5573   -0.8511    0.3032 C   0  0  0  0  0  0  0  0  0  0  0  0
    0.1950   -1.1681    0.5500 C   0  0  0  0  0  0  0  0  0  0  0  0
   -0.7829   -1.6743   -0.3346 C   0  0  0  0  0  0  0  0  0  0  0  0
   -0.9660   -2.6856   -1.0470 O   0  0  0  0  0  0  0  0  0  0  0  0
   -1.6581   -0.4793   -0.1347 C   0  0  0  0  0  0  0  0  0  0  0  0
   -0.4810    0.3490    0.0647 C   0  0  0  0  0  0  0  0  0  0  0  0
    0.2750    0.7186   -1.2281 C   0  0  0  0  0  0  0  0  0  0  0  0
   -0.2550    1.3364    1.0889 C   0  0  0  0  0  0  0  0  0  0  0  0
    3.8973   -0.3155   -0.1027 H   0  0  0  0  0  0  0  0  0  0  0  0
   -0.1535   -1.1321    1.6098 H   0  0  0  0  0  0  0  0  0  0  0  0
   -2.2390   -0.2385   -1.0824 H   0  0  0  0  0  0  0  0  0  0  0  0
   -2.4021   -0.6291    0.7285 H   0  0  0  0  0  0  0  0  0  0  0  0
    1.1617    0.1334   -1.3575 H   0  0  0  0  0  0  0  0  0  0  0  0
   -0.5082    0.4165   -2.0294 H   0  0  0  0  0  0  0  0  0  0  0  0
    0.3014    1.7994   -1.3654 H   0  0  0  0  0  0  0  0  0  0  0  0
   -0.7751    1.2150    2.0981 H   0  0  0  0  0  0  0  0  0  0  0  0
    0.8445    1.4430    1.3553 H   0  0  0  0  0  0  0  0  0  0  0  0
   -0.4809    2.4025    0.7452 H   0  0  0  0  0  0  0  0  0  0  0  0
  1  2  3  0
  2  3  1  0
  3  4  1  0
  4  5  2  0
  4  6  1  0
  6  7  1  0
  7  8  1  0
  7  9  1  0
  7  3  1  0
  1 10  1  0
  3 11  1  0
  6 12  1  0
  6 13  1  0
  8 14  1  0
  8 15  1  0
  8 16  1  0
  9 17  1  0
  9 18  1  0
  9 19  1  0
M  END
