
     RDKit          3D

 19 19  0  0  0  0  0  0  0  0999 V2000
    2.8978   -0.9591    0.5551 C   0  0  0  0  0  0  0  0  0  0  0  0
    2.1048   -0.0633    0.4214 C   0  0  0  0  0  0  0  0  0  0  0  0
    1.1586    1.0367    0.2731 C   0  0  0  0  0  0  0  0  0  0  0  0
   -0.0554    0.8109    1.0937 C   0  0  0  0  0  0  0  0  0  0  0  0
   -0.8596    0.0144    0.4173 C   0  0  0  0  0  0  0  0  0  0  0  0
   -2.1819   -0.4564    0.8879 C   0  0  0  0  0  0  0  0  0  0  0  0
   -0.2474   -0.3462   -0.9023 C   0  0  0  0  0  0  0  0  0  0  0  0
   -1.1733   -0.5136   -1.8978 O   0  0  0  0  0  0  0  0  0  0  0  0
    0.5744    0.9387   -1.1188 C   0  0  0  0  0  0  0  0  0  0  0  0
    3.6093   -1.7587    0.6560 H   0  0  0  0  0  0  0  0  0  0  0  0
    1.6482    1.9991    0.4666 H   0  0  0  0  0  0  0  0  0  0  0  0
   -0.1778    1.2677    2.0811 H   0  0  0  0  0  0  0  0  0  0  0  0
   -2.1145   -0.6175    1.9889 H   0  0  0  0  0  0  0  0  0  0  0  0
   -2.4373   -1.4527    0.4351 H   0  0  0  0  0  0  0  0  0  0  0  0
   -2.9640    0.2839    0.6228 H   0  0  0  0  0  0  0  0  0  0  0  0
    0.4341   -1.2151   -0.7756 H   0  0  0  0  0  0  0  0  0  0  0  0
   -1.3635   -1.5027   -1.9740 H   0  0  0  0  0  0  0  0  0  0  0  0
   -0.1744    1.7237   -1.3300 H   0  0  0  0  0  0  0  0  0  0  0  0
    1.3217    0.8102   -1.9006 H   0  0  0  0  0  0  0  0  0  0  0  0
  1  2  3  0
  2  3  1  0
  3  4  1  0
  4  5  2  0
  5  6  1  0
  5  7  1  0
  7  8  1  0
  7  9  1  0
  9  3  1  0
  1 10  1  0
  3 11  1  0
  4 12  1  0
  6 13  1  0
  6 14  1  0
  6 15  1  0
  7 16  1  0
  8 17  1  0
  9 18  1  0
  9 19  1  0
M  END
