
     RDKit          3D

 19 20  0  0  0  0  0  0  0  0999 V2000
    3.5231   -0.6263   -2.2818 C   0  0  0  0  0  0  0  0  0  0  0  0
    2.5515   -0.9697   -1.6570 C   0  0  0  0  0  0  0  0  0  0  0  0
    1.3681   -1.3998   -0.8662 C   0  0  0  0  0  0  0  0  0  0  0  0
    0.1075   -0.8725   -1.2489 C   0  0  0  0  0  0  0  0  0  0  0  0
   -0.4388    0.3852   -0.9854 O   0  0  0  0  0  0  0  0  0  0  0  0
   -0.7196   -0.2255    0.2681 C   0  0  0  0  0  0  0  0  0  0  0  0
   -0.9979    0.7515    1.3656 C   0  0  0  0  0  0  0  0  0  0  0  0
   -2.2182    1.5919    0.9664 C   0  0  0  0  0  0  0  0  0  0  0  0
    0.7771   -0.5607    0.1511 C   0  0  0  0  0  0  0  0  0  0  0  0
    4.3835   -0.3112   -2.8241 H   0  0  0  0  0  0  0  0  0  0  0  0
    1.4755   -2.4889   -0.5896 H   0  0  0  0  0  0  0  0  0  0  0  0
   -0.7526   -1.6118   -1.1926 H   0  0  0  0  0  0  0  0  0  0  0  0
   -1.3982   -1.0703    0.2481 H   0  0  0  0  0  0  0  0  0  0  0  0
   -1.3267    0.1679    2.2501 H   0  0  0  0  0  0  0  0  0  0  0  0
   -0.1608    1.4072    1.6072 H   0  0  0  0  0  0  0  0  0  0  0  0
   -1.9810    2.0592    0.0070 H   0  0  0  0  0  0  0  0  0  0  0  0
   -3.1153    0.9421    0.9085 H   0  0  0  0  0  0  0  0  0  0  0  0
   -2.3774    2.3842    1.7116 H   0  0  0  0  0  0  0  0  0  0  0  0
    1.3001    0.4476    0.1986 H   0  0  0  0  0  0  0  0  0  0  0  0
  1  2  3  0
  2  3  1  0
  3  4  1  0
  4  5  1  0
  5  6  1  0
  6  7  1  0
  7  8  1  0
  6  9  1  0
  9  3  1  0
  9  4  1  0
  1 10  1  0
  3 11  1  0
  4 12  1  0
  6 13  1  0
  7 14  1  0
  7 15  1  0
  8 16  1  0
  8 17  1  0
  8 18  1  0
  9 19  1  0
M  END
