
     RDKit          3D

 15 17  0  0  0  0  0  0  0  0999 V2000
    2.2942    2.0307    0.1107 C   0  0  0  0  0  0  0  0  0  0  0  0
    1.5660    1.0990    0.2292 C   0  0  0  0  0  0  0  0  0  0  0  0
    0.6682   -0.0130    0.3836 C   0  0  0  0  0  0  0  0  0  0  0  0
   -0.1912    0.0123    1.5737 O   0  0  0  0  0  0  0  0  0  0  0  0
   -0.6629   -0.1433    0.2864 C   0  0  0  0  0  0  0  0  0  0  0  0
   -1.7708    0.6618   -0.2603 C   0  0  0  0  0  0  0  0  0  0  0  0
   -0.5311   -1.5664   -0.2730 C   0  0  0  0  0  0  0  0  0  0  0  0
    0.3260   -1.7460   -1.3271 O   0  0  0  0  0  0  0  0  0  0  0  0
    0.9713   -1.3673   -0.1689 C   0  0  0  0  0  0  0  0  0  0  0  0
    2.9647    2.8666    0.0163 H   0  0  0  0  0  0  0  0  0  0  0  0
   -1.4632    1.7013   -0.5360 H   0  0  0  0  0  0  0  0  0  0  0  0
   -2.5700    0.7486    0.5228 H   0  0  0  0  0  0  0  0  0  0  0  0
   -2.1505    0.2042   -1.1901 H   0  0  0  0  0  0  0  0  0  0  0  0
   -1.0197   -2.3897    0.2331 H   0  0  0  0  0  0  0  0  0  0  0  0
    1.5691   -2.0987    0.3997 H   0  0  0  0  0  0  0  0  0  0  0  0
  1  2  3  0
  2  3  1  0
  3  4  1  0
  4  5  1  0
  5  6  1  0
  5  7  1  0
  7  8  1  0
  8  9  1  0
  5  3  1  0
  9  7  1  0
  9  3  1  0
  1 10  1  0
  6 11  1  0
  6 12  1  0
  6 13  1  0
  7 14  1  0
  9 15  1  0
M  END
