
     RDKit          3D

 19 19  0  0  0  0  0  0  0  0999 V2000
    1.4432    2.4963   -0.7467 C   0  0  0  0  0  0  0  0  0  0  0  0
    1.0784    1.3333   -0.9204 C   0  0  0  0  0  0  0  0  0  0  0  0
    0.6713   -0.0460   -1.1327 C   0  0  0  0  0  0  0  0  0  0  0  0
   -0.1698   -0.5617   -0.0316 C   0  0  0  0  0  0  0  0  0  0  0  0
   -1.3606   -0.0217    0.2715 O   0  0  0  0  0  0  0  0  0  0  0  0
   -1.5157    1.2644    0.6215 C   0  0  0  0  0  0  0  0  0  0  0  0
   -0.3275   -2.0870   -0.2127 C   0  0  0  0  0  0  0  0  0  0  0  0
   -0.2901   -2.1766    1.1869 O   0  0  0  0  0  0  0  0  0  0  0  0
    0.6052   -1.0928    1.1692 C   0  0  0  0  0  0  0  0  0  0  0  0
    1.7744    3.4910   -0.5989 H   0  0  0  0  0  0  0  0  0  0  0  0
    0.0440   -0.1419   -2.0737 H   0  0  0  0  0  0  0  0  0  0  0  0
    1.5615   -0.6730   -1.3516 H   0  0  0  0  0  0  0  0  0  0  0  0
   -1.2185    1.9375   -0.2051 H   0  0  0  0  0  0  0  0  0  0  0  0
   -2.6268    1.4373    0.7714 H   0  0  0  0  0  0  0  0  0  0  0  0
   -1.0234    1.5712    1.5703 H   0  0  0  0  0  0  0  0  0  0  0  0
    0.5149   -2.5353   -0.7413 H   0  0  0  0  0  0  0  0  0  0  0  0
   -1.3107   -2.3498   -0.6113 H   0  0  0  0  0  0  0  0  0  0  0  0
    1.6410   -1.3526    0.9632 H   0  0  0  0  0  0  0  0  0  0  0  0
    0.5092   -0.4927    2.0719 H   0  0  0  0  0  0  0  0  0  0  0  0
  1  2  3  0
  2  3  1  0
  3  4  1  0
  4  5  1  0
  5  6  1  0
  4  7  1  0
  7  8  1  0
  8  9  1  0
  9  4  1  0
  1 10  1  0
  3 11  1  0
  3 12  1  0
  6 13  1  0
  6 14  1  0
  6 15  1  0
  7 16  1  0
  7 17  1  0
  9 18  1  0
  9 19  1  0
M  END
