
     RDKit          3D

 18 18  0  0  0  0  0  0  0  0999 V2000
   -2.1500    1.6089   -0.3479 C   0  0  0  0  0  0  0  0  0  0  0  0
   -1.4029    0.6259   -0.2875 C   0  0  0  0  0  0  0  0  0  0  0  0
   -0.5132   -0.5249   -0.1944 C   0  0  0  0  0  0  0  0  0  0  0  0
   -0.1969   -0.9707   -1.6348 C   0  0  0  0  0  0  0  0  0  0  0  0
    0.4419    0.0872   -2.2687 O   0  0  0  0  0  0  0  0  0  0  0  0
    0.8000    0.0116    0.4088 C   0  0  0  0  0  0  0  0  0  0  0  0
    0.5844    0.6080    1.7735 C   0  0  0  0  0  0  0  0  0  0  0  0
    1.4450   -0.6320    1.5420 C   0  0  0  0  0  0  0  0  0  0  0  0
   -2.7985    2.4637   -0.4027 H   0  0  0  0  0  0  0  0  0  0  0  0
   -0.9598   -1.3151    0.4008 H   0  0  0  0  0  0  0  0  0  0  0  0
    0.4491   -1.8509   -1.6700 H   0  0  0  0  0  0  0  0  0  0  0  0
   -1.1725   -1.1227   -2.1768 H   0  0  0  0  0  0  0  0  0  0  0  0
   -0.2014    0.5974   -2.8080 H   0  0  0  0  0  0  0  0  0  0  0  0
    1.3579    0.5860   -0.3632 H   0  0  0  0  0  0  0  0  0  0  0  0
   -0.3596    0.3623    2.3083 H   0  0  0  0  0  0  0  0  0  0  0  0
    1.1033    1.5477    2.0367 H   0  0  0  0  0  0  0  0  0  0  0  0
    2.5135   -0.4579    1.7181 H   0  0  0  0  0  0  0  0  0  0  0  0
    1.0597   -1.6243    1.8480 H   0  0  0  0  0  0  0  0  0  0  0  0
  1  2  3  0
  2  3  1  0
  3  4  1  0
  4  5  1  0
  3  6  1  0
  6  7  1  0
  7  8  1  0
  8  6  1  0
  1  9  1  0
  3 10  1  0
  4 11  1  0
  4 12  1  0
  5 13  1  0
  6 14  1  0
  7 15  1  0
  7 16  1  0
  8 17  1  0
  8 18  1  0
M  END
