
     RDKit          3D

 21 21  0  0  0  0  0  0  0  0999 V2000
    1.2120   -2.2966    1.0033 C   0  0  0  0  0  0  0  0  0  0  0  0
    0.7109   -1.4181    0.3434 C   0  0  0  0  0  0  0  0  0  0  0  0
    0.1064   -0.3675   -0.4774 C   0  0  0  0  0  0  0  0  0  0  0  0
    1.1668    0.5511   -1.0382 C   0  0  0  0  0  0  0  0  0  0  0  0
    1.9653    1.2309    0.0251 C   0  0  0  0  0  0  0  0  0  0  0  0
   -0.8426   -0.7824   -1.3852 O   0  0  0  0  0  0  0  0  0  0  0  0
   -1.5706    0.3675   -1.1156 C   0  0  0  0  0  0  0  0  0  0  0  0
   -0.9784    0.3463    0.2791 C   0  0  0  0  0  0  0  0  0  0  0  0
   -1.7936   -0.5268    1.1816 C   0  0  0  0  0  0  0  0  0  0  0  0
    1.6722   -3.0735    1.5788 H   0  0  0  0  0  0  0  0  0  0  0  0
    0.7023    1.2642   -1.7406 H   0  0  0  0  0  0  0  0  0  0  0  0
    1.8497   -0.0829   -1.6500 H   0  0  0  0  0  0  0  0  0  0  0  0
    2.9507    0.7490    0.1327 H   0  0  0  0  0  0  0  0  0  0  0  0
    2.1405    2.2748   -0.2938 H   0  0  0  0  0  0  0  0  0  0  0  0
    1.4578    1.1898    1.0139 H   0  0  0  0  0  0  0  0  0  0  0  0
   -1.3371    1.2520   -1.7155 H   0  0  0  0  0  0  0  0  0  0  0  0
   -2.6677    0.1367   -1.1067 H   0  0  0  0  0  0  0  0  0  0  0  0
   -0.7556    1.3580    0.6176 H   0  0  0  0  0  0  0  0  0  0  0  0
   -1.3945   -1.5583    1.2712 H   0  0  0  0  0  0  0  0  0  0  0  0
   -1.7462   -0.0911    2.2008 H   0  0  0  0  0  0  0  0  0  0  0  0
   -2.8483   -0.5232    0.8756 H   0  0  0  0  0  0  0  0  0  0  0  0
  1  2  3  0
  2  3  1  0
  3  4  1  0
  4  5  1  0
  3  6  1  0
  6  7  1  0
  7  8  1  0
  8  9  1  0
  8  3  1  0
  1 10  1  0
  4 11  1  0
  4 12  1  0
  5 13  1  0
  5 14  1  0
  5 15  1  0
  7 16  1  0
  7 17  1  0
  8 18  1  0
  9 19  1  0
  9 20  1  0
  9 21  1  0
M  END
