
     RDKit          3D

 21 21  0  0  0  0  0  0  0  0999 V2000
    2.9200    0.1406   -1.0183 C   0  0  0  0  0  0  0  0  0  0  0  0
    1.7637    0.3772   -0.8607 C   0  0  0  0  0  0  0  0  0  0  0  0
    0.3415    0.6500   -0.6854 C   0  0  0  0  0  0  0  0  0  0  0  0
   -0.5160    0.1318   -1.8090 C   0  0  0  0  0  0  0  0  0  0  0  0
   -0.1103    0.1653    0.6826 C   0  0  0  0  0  0  0  0  0  0  0  0
    0.0040   -1.1407    1.0495 O   0  0  0  0  0  0  0  0  0  0  0  0
   -0.6493   -2.0784    0.3048 C   0  0  0  0  0  0  0  0  0  0  0  0
   -1.1805    1.0313    1.3072 C   0  0  0  0  0  0  0  0  0  0  0  0
    0.2012    1.1404    1.8537 C   0  0  0  0  0  0  0  0  0  0  0  0
    3.9501   -0.0522   -1.1536 H   0  0  0  0  0  0  0  0  0  0  0  0
    0.1818    1.7719   -0.6958 H   0  0  0  0  0  0  0  0  0  0  0  0
   -1.4567   -0.3133   -1.4289 H   0  0  0  0  0  0  0  0  0  0  0  0
   -0.8488    0.9454   -2.5080 H   0  0  0  0  0  0  0  0  0  0  0  0
    0.0986   -0.5776   -2.4176 H   0  0  0  0  0  0  0  0  0  0  0  0
   -0.4198   -3.0729    0.8009 H   0  0  0  0  0  0  0  0  0  0  0  0
   -1.7447   -1.9969    0.3004 H   0  0  0  0  0  0  0  0  0  0  0  0
   -0.2137   -2.2209   -0.7182 H   0  0  0  0  0  0  0  0  0  0  0  0
   -1.9603    0.4700    1.8357 H   0  0  0  0  0  0  0  0  0  0  0  0
   -1.5642    1.9038    0.7374 H   0  0  0  0  0  0  0  0  0  0  0  0
    0.8149    2.0100    1.5749 H   0  0  0  0  0  0  0  0  0  0  0  0
    0.3884    0.7151    2.8486 H   0  0  0  0  0  0  0  0  0  0  0  0
  1  2  3  0
  2  3  1  0
  3  4  1  0
  3  5  1  0
  5  6  1  0
  6  7  1  0
  5  8  1  0
  8  9  1  0
  9  5  1  0
  1 10  1  0
  3 11  1  0
  4 12  1  0
  4 13  1  0
  4 14  1  0
  7 15  1  0
  7 16  1  0
  7 17  1  0
  8 18  1  0
  8 19  1  0
  9 20  1  0
  9 21  1  0
M  END
