
     RDKit          3D

 17 17  0  0  0  0  0  0  0  0999 V2000
    2.5387   -1.4460    0.9095 C   0  0  0  0  0  0  0  0  0  0  0  0
    1.6108   -0.5373    0.6636 C   0  0  0  0  0  0  0  0  0  0  0  0
    0.5667    0.4952    0.3772 C   0  0  0  0  0  0  0  0  0  0  0  0
   -0.5685    0.1411    1.3580 C   0  0  0  0  0  0  0  0  0  0  0  0
   -1.7366    0.9156    0.6393 C   0  0  0  0  0  0  0  0  0  0  0  0
   -1.4332    0.8826   -0.6993 C   0  0  0  0  0  0  0  0  0  0  0  0
   -0.1231    0.0776   -0.8179 C   0  0  0  0  0  0  0  0  0  0  0  0
    0.2863   -0.2192   -2.1675 C   0  0  0  0  0  0  0  0  0  0  0  0
   -0.4428   -1.0916   -2.7577 O   0  0  0  0  0  0  0  0  0  0  0  0
    3.3808   -2.2836    1.1499 H   0  0  0  0  0  0  0  0  0  0  0  0
    0.9826    1.4593    0.5106 H   0  0  0  0  0  0  0  0  0  0  0  0
   -0.3242    0.6200    2.3163 H   0  0  0  0  0  0  0  0  0  0  0  0
   -0.8576   -0.9131    1.3332 H   0  0  0  0  0  0  0  0  0  0  0  0
   -2.5623    1.3304    1.0654 H   0  0  0  0  0  0  0  0  0  0  0  0
   -1.8370    1.3222   -1.5235 H   0  0  0  0  0  0  0  0  0  0  0  0
   -0.5966   -1.0128   -0.4077 H   0  0  0  0  0  0  0  0  0  0  0  0
    1.1161    0.2597   -2.5979 H   0  0  0  0  0  0  0  0  0  0  0  0
  1  2  3  0
  2  3  1  0
  3  4  1  0
  4  5  1  0
  5  6  2  0
  6  7  1  0
  7  8  1  0
  8  9  2  0
  7  3  1  0
  1 10  1  0
  3 11  1  0
  4 12  1  0
  4 13  1  0
  5 14  1  0
  6 15  1  0
  7 16  1  0
  8 17  1  0
M  END
