
     RDKit          3D

 16 15  0  0  0  0  0  0  0  0999 V2000
    2.4693   -0.0741    0.5525 C   0  0  0  0  0  0  0  0  0  0  0  0
    1.8143   -0.0894   -0.4757 C   0  0  0  0  0  0  0  0  0  0  0  0
    1.0413   -0.1325   -1.6863 C   0  0  0  0  0  0  0  0  0  0  0  0
    1.4979   -0.5423   -2.7842 O   0  0  0  0  0  0  0  0  0  0  0  0
   -0.3519    0.3228   -1.6483 C   0  0  0  0  0  0  0  0  0  0  0  0
   -0.7710    0.7883   -0.2691 C   0  0  0  0  0  0  0  0  0  0  0  0
   -0.6537   -0.2328    0.6717 O   0  0  0  0  0  0  0  0  0  0  0  0
   -1.0405    0.2118    1.9226 C   0  0  0  0  0  0  0  0  0  0  0  0
    3.0372   -0.0766    1.4467 H   0  0  0  0  0  0  0  0  0  0  0  0
   -1.0785   -0.4506   -1.9642 H   0  0  0  0  0  0  0  0  0  0  0  0
   -0.4836    1.1986   -2.3300 H   0  0  0  0  0  0  0  0  0  0  0  0
   -1.8236    1.1315   -0.2558 H   0  0  0  0  0  0  0  0  0  0  0  0
   -0.1336    1.6431    0.0265 H   0  0  0  0  0  0  0  0  0  0  0  0
   -0.4476    1.0559    2.3037 H   0  0  0  0  0  0  0  0  0  0  0  0
   -0.9757   -0.5974    2.6761 H   0  0  0  0  0  0  0  0  0  0  0  0
   -2.1004    0.5771    1.8137 H   0  0  0  0  0  0  0  0  0  0  0  0
  1  2  3  0
  2  3  1  0
  3  4  2  0
  3  5  1  0
  5  6  1  0
  6  7  1  0
  7  8  1  0
  1  9  1  0
  5 10  1  0
  5 11  1  0
  6 12  1  0
  6 13  1  0
  8 14  1  0
  8 15  1  0
  8 16  1  0
M  END
