
     RDKit          3D

 21 21  0  0  0  0  0  0  0  0999 V2000
    2.8037    1.5800    0.3339 C   0  0  0  0  0  0  0  0  0  0  0  0
    2.0416    0.7118    0.5465 C   0  0  0  0  0  0  0  0  0  0  0  0
    1.1004   -0.3881    0.7946 C   0  0  0  0  0  0  0  0  0  0  0  0
    0.0105   -0.4233   -0.2298 C   0  0  0  0  0  0  0  0  0  0  0  0
   -0.8480    0.8052   -0.3201 C   0  0  0  0  0  0  0  0  0  0  0  0
   -1.5714    1.1246    0.9657 C   0  0  0  0  0  0  0  0  0  0  0  0
    0.3307   -0.9883   -1.5663 C   0  0  0  0  0  0  0  0  0  0  0  0
    0.0954   -2.2656   -1.0613 O   0  0  0  0  0  0  0  0  0  0  0  0
   -0.8015   -1.6976   -0.1584 C   0  0  0  0  0  0  0  0  0  0  0  0
    3.5069    2.3836    0.1565 H   0  0  0  0  0  0  0  0  0  0  0  0
    0.6327   -0.3065    1.7861 H   0  0  0  0  0  0  0  0  0  0  0  0
    1.6731   -1.3346    0.7373 H   0  0  0  0  0  0  0  0  0  0  0  0
   -1.6305    0.5831   -1.0907 H   0  0  0  0  0  0  0  0  0  0  0  0
   -0.2993    1.6863   -0.7021 H   0  0  0  0  0  0  0  0  0  0  0  0
   -2.2992    0.3414    1.2083 H   0  0  0  0  0  0  0  0  0  0  0  0
   -2.1403    2.0776    0.7575 H   0  0  0  0  0  0  0  0  0  0  0  0
   -0.8622    1.3642    1.7696 H   0  0  0  0  0  0  0  0  0  0  0  0
   -0.4911   -0.7372   -2.2935 H   0  0  0  0  0  0  0  0  0  0  0  0
    1.3530   -0.8104   -1.9561 H   0  0  0  0  0  0  0  0  0  0  0  0
   -1.8393   -1.5695   -0.5389 H   0  0  0  0  0  0  0  0  0  0  0  0
   -0.7654   -2.1369    0.8611 H   0  0  0  0  0  0  0  0  0  0  0  0
  1  2  3  0
  2  3  1  0
  3  4  1  0
  4  5  1  0
  5  6  1  0
  4  7  1  0
  7  8  1  0
  8  9  1  0
  9  4  1  0
  1 10  1  0
  3 11  1  0
  3 12  1  0
  5 13  1  0
  5 14  1  0
  6 15  1  0
  6 16  1  0
  6 17  1  0
  7 18  1  0
  7 19  1  0
  9 20  1  0
  9 21  1  0
M  END
