
     RDKit          3D

 15 17  0  0  0  0  0  0  0  0999 V2000
    2.5325    0.7688    1.1824 C   0  0  0  0  0  0  0  0  0  0  0  0
    1.7140    0.2591    0.4582 C   0  0  0  0  0  0  0  0  0  0  0  0
    0.7371   -0.3596   -0.4096 C   0  0  0  0  0  0  0  0  0  0  0  0
   -0.1137    0.7207   -1.0731 C   0  0  0  0  0  0  0  0  0  0  0  0
   -1.1154   -0.0656   -1.6332 O   0  0  0  0  0  0  0  0  0  0  0  0
   -1.5559   -0.7715   -0.4875 C   0  0  0  0  0  0  0  0  0  0  0  0
   -1.3047    0.1318    0.6309 C   0  0  0  0  0  0  0  0  0  0  0  0
   -0.7471    1.2747    0.0086 O   0  0  0  0  0  0  0  0  0  0  0  0
   -0.4059   -0.9974    0.3895 C   0  0  0  0  0  0  0  0  0  0  0  0
    3.2513    1.2227    1.8435 H   0  0  0  0  0  0  0  0  0  0  0  0
    1.1789   -1.0483   -1.1271 H   0  0  0  0  0  0  0  0  0  0  0  0
    0.4128    1.3657   -1.7357 H   0  0  0  0  0  0  0  0  0  0  0  0
   -2.4098   -1.4427   -0.5771 H   0  0  0  0  0  0  0  0  0  0  0  0
   -1.9416    0.2568    1.5038 H   0  0  0  0  0  0  0  0  0  0  0  0
   -0.2325   -1.8377    1.0263 H   0  0  0  0  0  0  0  0  0  0  0  0
  1  2  3  0
  2  3  1  0
  3  4  1  0
  4  5  1  0
  5  6  1  0
  6  7  1  0
  7  8  1  0
  7  9  1  0
  9  3  1  0
  8  4  1  0
  9  6  1  0
  1 10  1  0
  3 11  1  0
  4 12  1  0
  6 13  1  0
  7 14  1  0
  9 15  1  0
M  END
