
     RDKit          3D

 19 20  0  0  0  0  0  0  0  0999 V2000
    2.3755   -1.2358   -1.2966 C   0  0  0  0  0  0  0  0  0  0  0  0
    1.4847   -0.5065   -0.8848 C   0  0  0  0  0  0  0  0  0  0  0  0
    0.4276    0.3841   -0.3989 C   0  0  0  0  0  0  0  0  0  0  0  0
    0.8324    1.8219   -0.4652 C   0  0  0  0  0  0  0  0  0  0  0  0
   -0.7413    0.1342   -1.1632 O   0  0  0  0  0  0  0  0  0  0  0  0
   -1.5355   -0.5372   -0.2764 C   0  0  0  0  0  0  0  0  0  0  0  0
   -1.4685    0.3636    0.9668 C   0  0  0  0  0  0  0  0  0  0  0  0
   -0.0213   -0.0777    0.9371 C   0  0  0  0  0  0  0  0  0  0  0  0
   -0.6061   -1.4466    0.5472 C   0  0  0  0  0  0  0  0  0  0  0  0
    3.1553   -1.8533   -1.6614 H   0  0  0  0  0  0  0  0  0  0  0  0
    1.5803    1.9869   -1.2550 H   0  0  0  0  0  0  0  0  0  0  0  0
   -0.0661    2.4351   -0.5947 H   0  0  0  0  0  0  0  0  0  0  0  0
    1.2949    2.0982    0.5000 H   0  0  0  0  0  0  0  0  0  0  0  0
   -2.4806   -0.9265   -0.5459 H   0  0  0  0  0  0  0  0  0  0  0  0
   -2.0219   -0.0291    1.8300 H   0  0  0  0  0  0  0  0  0  0  0  0
   -1.6672    1.3933    0.6540 H   0  0  0  0  0  0  0  0  0  0  0  0
    0.5727   -0.0182    1.8018 H   0  0  0  0  0  0  0  0  0  0  0  0
   -1.1750   -1.9171    1.3562 H   0  0  0  0  0  0  0  0  0  0  0  0
    0.0601   -2.0693   -0.0512 H   0  0  0  0  0  0  0  0  0  0  0  0
  1  2  3  0
  2  3  1  0
  3  4  1  0
  3  5  1  0
  5  6  1  0
  6  7  1  0
  7  8  1  0
  8  9  1  0
  8  3  1  0
  9  6  1  0
  1 10  1  0
  4 11  1  0
  4 12  1  0
  4 13  1  0
  6 14  1  0
  7 15  1  0
  7 16  1  0
  8 17  1  0
  9 18  1  0
  9 19  1  0
M  END
