
     RDKit          3D

 21 21  0  0  0  0  0  0  0  0999 V2000
    2.2215    2.0191   -0.4061 C   0  0  0  0  0  0  0  0  0  0  0  0
    1.1934    1.5591   -0.8385 C   0  0  0  0  0  0  0  0  0  0  0  0
   -0.0331    0.9852   -1.3695 C   0  0  0  0  0  0  0  0  0  0  0  0
   -0.7209   -0.0043   -0.4930 C   0  0  0  0  0  0  0  0  0  0  0  0
   -1.9115   -0.4995   -1.0686 O   0  0  0  0  0  0  0  0  0  0  0  0
    0.0542   -1.0996    0.1724 C   0  0  0  0  0  0  0  0  0  0  0  0
    1.5364   -1.1536    0.0111 C   0  0  0  0  0  0  0  0  0  0  0  0
   -0.5653    0.0753    0.9624 C   0  0  0  0  0  0  0  0  0  0  0  0
   -1.8279   -0.3177    1.7532 C   0  0  0  0  0  0  0  0  0  0  0  0
    3.1558    2.4414   -0.0326 H   0  0  0  0  0  0  0  0  0  0  0  0
    0.2656    0.4622   -2.3512 H   0  0  0  0  0  0  0  0  0  0  0  0
   -0.6668    1.8031   -1.7454 H   0  0  0  0  0  0  0  0  0  0  0  0
   -1.9391   -0.1742   -1.9922 H   0  0  0  0  0  0  0  0  0  0  0  0
   -0.4318   -2.0634    0.3426 H   0  0  0  0  0  0  0  0  0  0  0  0
    1.8689   -2.2026   -0.0374 H   0  0  0  0  0  0  0  0  0  0  0  0
    2.1124   -0.6466    0.8030 H   0  0  0  0  0  0  0  0  0  0  0  0
    1.8213   -0.7348   -0.9967 H   0  0  0  0  0  0  0  0  0  0  0  0
    0.1400    0.7495    1.4862 H   0  0  0  0  0  0  0  0  0  0  0  0
   -2.5317    0.5130    1.7025 H   0  0  0  0  0  0  0  0  0  0  0  0
   -2.2968   -1.2308    1.3175 H   0  0  0  0  0  0  0  0  0  0  0  0
   -1.4446   -0.4808    2.7801 H   0  0  0  0  0  0  0  0  0  0  0  0
  1  2  3  0
  2  3  1  0
  3  4  1  0
  4  5  1  0
  4  6  1  0
  6  7  1  0
  6  8  1  0
  8  9  1  0
  8  4  1  0
  1 10  1  0
  3 11  1  0
  3 12  1  0
  5 13  1  0
  6 14  1  0
  7 15  1  0
  7 16  1  0
  7 17  1  0
  8 18  1  0
  9 19  1  0
  9 20  1  0
  9 21  1  0
M  END
