
     RDKit          3D

 21 21  0  0  0  0  0  0  0  0999 V2000
    2.7566    1.3394    1.4799 C   0  0  0  0  0  0  0  0  0  0  0  0
    1.5166    0.9828    1.7469 C   0  0  0  0  0  0  0  0  0  0  0  0
    0.2664    0.6161    1.9937 C   0  0  0  0  0  0  0  0  0  0  0  0
   -0.5464    0.2003    0.7803 C   0  0  0  0  0  0  0  0  0  0  0  0
   -1.8390   -0.1302    1.0214 O   0  0  0  0  0  0  0  0  0  0  0  0
    0.0905   -1.1743    0.3394 C   0  0  0  0  0  0  0  0  0  0  0  0
   -0.7506   -1.3190   -0.9334 C   0  0  0  0  0  0  0  0  0  0  0  0
   -0.5402    0.0168   -1.6021 C   0  0  0  0  0  0  0  0  0  0  0  0
   -0.2302    0.9754   -0.4488 C   0  0  0  0  0  0  0  0  0  0  0  0
    3.8100    1.6598    1.2519 H   0  0  0  0  0  0  0  0  0  0  0  0
    0.2277   -0.3447    2.6500 H   0  0  0  0  0  0  0  0  0  0  0  0
   -0.3678    1.3239    2.6479 H   0  0  0  0  0  0  0  0  0  0  0  0
   -2.0117   -1.0333    1.3245 H   0  0  0  0  0  0  0  0  0  0  0  0
   -0.1303   -1.9396    1.0671 H   0  0  0  0  0  0  0  0  0  0  0  0
    1.1103   -0.9429    0.1020 H   0  0  0  0  0  0  0  0  0  0  0  0
   -1.8241   -1.4486   -0.6667 H   0  0  0  0  0  0  0  0  0  0  0  0
   -0.4455   -2.1893   -1.4976 H   0  0  0  0  0  0  0  0  0  0  0  0
   -1.5133    0.2883   -2.0835 H   0  0  0  0  0  0  0  0  0  0  0  0
    0.3141    0.0115   -2.2619 H   0  0  0  0  0  0  0  0  0  0  0  0
    0.8752    1.1963   -0.3863 H   0  0  0  0  0  0  0  0  0  0  0  0
   -0.7685    1.9114   -0.6164 H   0  0  0  0  0  0  0  0  0  0  0  0
  1  2  3  0
  2  3  1  0
  3  4  1  0
  4  5  1  0
  4  6  1  0
  6  7  1  0
  7  8  1  0
  8  9  1  0
  9  4  1  0
  1 10  1  0
  3 11  1  0
  3 12  1  0
  5 13  1  0
  6 14  1  0
  6 15  1  0
  7 16  1  0
  7 17  1  0
  8 18  1  0
  8 19  1  0
  9 20  1  0
  9 21  1  0
M  END
