
     RDKit          3D

 19 20  0  0  0  0  0  0  0  0999 V2000
    2.2577    1.9075   -0.2461 C   0  0  0  0  0  0  0  0  0  0  0  0
    1.3762    1.1707   -0.6195 C   0  0  0  0  0  0  0  0  0  0  0  0
    0.3217    0.2849   -1.0705 C   0  0  0  0  0  0  0  0  0  0  0  0
    0.2086   -1.0741   -0.3612 C   0  0  0  0  0  0  0  0  0  0  0  0
    1.3715   -1.4236    0.5400 C   0  0  0  0  0  0  0  0  0  0  0  0
   -0.7469   -0.0658   -0.1385 C   0  0  0  0  0  0  0  0  0  0  0  0
   -1.1289    0.7206    1.0244 C   0  0  0  0  0  0  0  0  0  0  0  0
   -2.2482    1.1936    0.2946 O   0  0  0  0  0  0  0  0  0  0  0  0
   -2.1834   -0.0359   -0.4065 C   0  0  0  0  0  0  0  0  0  0  0  0
    3.0419    2.5489    0.0842 H   0  0  0  0  0  0  0  0  0  0  0  0
    0.0336    0.3243   -2.1482 H   0  0  0  0  0  0  0  0  0  0  0  0
   -0.0268   -1.9175   -1.0754 H   0  0  0  0  0  0  0  0  0  0  0  0
    2.1674   -1.8413   -0.1378 H   0  0  0  0  0  0  0  0  0  0  0  0
    1.8183   -0.5642    1.0406 H   0  0  0  0  0  0  0  0  0  0  0  0
    1.1006   -2.2502    1.2177 H   0  0  0  0  0  0  0  0  0  0  0  0
   -0.5206    1.5731    1.3363 H   0  0  0  0  0  0  0  0  0  0  0  0
   -1.5379    0.1937    1.9231 H   0  0  0  0  0  0  0  0  0  0  0  0
   -2.5381    0.0340   -1.4473 H   0  0  0  0  0  0  0  0  0  0  0  0
   -2.7668   -0.7787    0.1901 H   0  0  0  0  0  0  0  0  0  0  0  0
  1  2  3  0
  2  3  1  0
  3  4  1  0
  4  5  1  0
  4  6  1  0
  6  7  1  0
  7  8  1  0
  8  9  1  0
  6  3  1  0
  9  6  1  0
  1 10  1  0
  3 11  1  0
  4 12  1  0
  5 13  1  0
  5 14  1  0
  5 15  1  0
  7 16  1  0
  7 17  1  0
  9 18  1  0
  9 19  1  0
M  END
