
     RDKit          3D

 19 20  0  0  0  0  0  0  0  0999 V2000
    2.8498    1.1484    0.6889 C   0  0  0  0  0  0  0  0  0  0  0  0
    2.0364    0.2937    0.4369 C   0  0  0  0  0  0  0  0  0  0  0  0
    1.0523   -0.7413    0.1057 C   0  0  0  0  0  0  0  0  0  0  0  0
   -0.1804   -0.8919    0.8778 C   0  0  0  0  0  0  0  0  0  0  0  0
   -0.9323    0.2795    1.4266 C   0  0  0  0  0  0  0  0  0  0  0  0
   -0.9726    0.8718    0.0357 C   0  0  0  0  0  0  0  0  0  0  0  0
   -0.2519    2.0687   -0.0764 O   0  0  0  0  0  0  0  0  0  0  0  0
   -0.2687   -0.3473   -0.4756 C   0  0  0  0  0  0  0  0  0  0  0  0
   -0.8673   -1.0815   -1.6250 C   0  0  0  0  0  0  0  0  0  0  0  0
    3.5747    1.9165    0.8959 H   0  0  0  0  0  0  0  0  0  0  0  0
    1.4946   -1.6456   -0.3240 H   0  0  0  0  0  0  0  0  0  0  0  0
   -0.5367   -1.9349    1.1167 H   0  0  0  0  0  0  0  0  0  0  0  0
   -0.3606    0.8782    2.1724 H   0  0  0  0  0  0  0  0  0  0  0  0
   -1.9476    0.0073    1.7923 H   0  0  0  0  0  0  0  0  0  0  0  0
   -1.9916    0.9778   -0.3471 H   0  0  0  0  0  0  0  0  0  0  0  0
    0.3606    2.0679   -0.8559 H   0  0  0  0  0  0  0  0  0  0  0  0
   -1.1826   -0.3638   -2.4345 H   0  0  0  0  0  0  0  0  0  0  0  0
   -0.1181   -1.8114   -2.0462 H   0  0  0  0  0  0  0  0  0  0  0  0
   -1.7578   -1.6921   -1.3642 H   0  0  0  0  0  0  0  0  0  0  0  0
  1  2  3  0
  2  3  1  0
  3  4  1  0
  4  5  1  0
  5  6  1  0
  6  7  1  0
  6  8  1  0
  8  9  1  0
  8  3  1  0
  8  4  1  0
  1 10  1  0
  3 11  1  0
  4 12  1  0
  5 13  1  0
  5 14  1  0
  6 15  1  0
  7 16  1  0
  9 17  1  0
  9 18  1  0
  9 19  1  0
M  END
