
     RDKit          3D

 17 18  0  0  0  0  0  0  0  0999 V2000
    2.6572    0.8100   -1.0911 C   0  0  0  0  0  0  0  0  0  0  0  0
    1.6332    0.8328   -0.4667 C   0  0  0  0  0  0  0  0  0  0  0  0
    0.4101    0.8359    0.2864 C   0  0  0  0  0  0  0  0  0  0  0  0
   -0.8090    0.5833   -0.6224 C   0  0  0  0  0  0  0  0  0  0  0  0
   -1.8184    0.3271    0.4645 C   0  0  0  0  0  0  0  0  0  0  0  0
   -1.1905   -0.2935    1.4550 C   0  0  0  0  0  0  0  0  0  0  0  0
    0.2025   -0.5105    1.0201 C   0  0  0  0  0  0  0  0  0  0  0  0
    0.1565   -1.4085   -0.1391 C   0  0  0  0  0  0  0  0  0  0  0  0
   -0.4301   -0.7590   -1.1403 C   0  0  0  0  0  0  0  0  0  0  0  0
    3.5601    0.7715   -1.6406 H   0  0  0  0  0  0  0  0  0  0  0  0
    0.2567    1.6833    0.9505 H   0  0  0  0  0  0  0  0  0  0  0  0
   -1.0312    1.3430   -1.3111 H   0  0  0  0  0  0  0  0  0  0  0  0
   -2.8517    0.6278    0.3745 H   0  0  0  0  0  0  0  0  0  0  0  0
   -1.6066   -0.5862    2.3960 H   0  0  0  0  0  0  0  0  0  0  0  0
    0.9251   -0.7008    1.7722 H   0  0  0  0  0  0  0  0  0  0  0  0
    0.5353   -2.4160   -0.1623 H   0  0  0  0  0  0  0  0  0  0  0  0
   -0.5990   -1.1401   -2.1454 H   0  0  0  0  0  0  0  0  0  0  0  0
  1  2  3  0
  2  3  1  0
  3  4  1  0
  4  5  1  0
  5  6  2  0
  6  7  1  0
  7  8  1  0
  8  9  2  0
  7  3  1  0
  9  4  1  0
  1 10  1  0
  3 11  1  0
  4 12  1  0
  5 13  1  0
  6 14  1  0
  7 15  1  0
  8 16  1  0
  9 17  1  0
M  END
