
     RDKit          3D

 21 20  0  0  0  0  0  0  0  0999 V2000
   -1.6270   -2.1419   -0.5297 C   0  0  0  0  0  0  0  0  0  0  0  0
   -1.1764   -1.0762   -0.1259 C   0  0  0  0  0  0  0  0  0  0  0  0
   -0.5937    0.2515    0.3988 C   0  0  0  0  0  0  0  0  0  0  0  0
   -1.3178    1.3996   -0.2471 C   0  0  0  0  0  0  0  0  0  0  0  0
   -2.7779    1.5704   -0.0173 C   0  0  0  0  0  0  0  0  0  0  0  0
    0.7201    0.1999    0.0012 O   0  0  0  0  0  0  0  0  0  0  0  0
    1.4636   -0.4906    0.9516 C   0  0  0  0  0  0  0  0  0  0  0  0
    2.9378   -0.4631    0.5884 C   0  0  0  0  0  0  0  0  0  0  0  0
    3.1993   -1.0041   -0.6397 O   0  0  0  0  0  0  0  0  0  0  0  0
   -1.9905   -3.0296   -0.8795 H   0  0  0  0  0  0  0  0  0  0  0  0
   -0.7564    0.0744    1.4722 H   0  0  0  0  0  0  0  0  0  0  0  0
   -0.7605    2.3697   -0.1936 H   0  0  0  0  0  0  0  0  0  0  0  0
   -1.1966    1.1640   -1.3820 H   0  0  0  0  0  0  0  0  0  0  0  0
   -3.2427    0.8935    0.7024 H   0  0  0  0  0  0  0  0  0  0  0  0
   -3.0361    2.6650    0.2057 H   0  0  0  0  0  0  0  0  0  0  0  0
   -3.3184    1.3386   -1.0090 H   0  0  0  0  0  0  0  0  0  0  0  0
    1.3108   -0.0864    1.9373 H   0  0  0  0  0  0  0  0  0  0  0  0
    1.1713   -1.5756    0.9503 H   0  0  0  0  0  0  0  0  0  0  0  0
    3.4463   -1.1682    1.3475 H   0  0  0  0  0  0  0  0  0  0  0  0
    3.4207    0.4945    0.7752 H   0  0  0  0  0  0  0  0  0  0  0  0
    4.1241   -1.3852   -0.6863 H   0  0  0  0  0  0  0  0  0  0  0  0
  1  2  3  0
  2  3  1  0
  3  4  1  0
  4  5  1  0
  3  6  1  0
  6  7  1  0
  7  8  1  0
  8  9  1  0
  1 10  1  0
  3 11  1  0
  4 12  1  0
  4 13  1  0
  5 14  1  0
  5 15  1  0
  5 16  1  0
  7 17  1  0
  7 18  1  0
  8 19  1  0
  8 20  1  0
  9 21  1  0
M  END
