
     RDKit          3D

 17 18  0  0  0  0  0  0  0  0999 V2000
   -1.5019   -1.3072   -2.1456 C   0  0  0  0  0  0  0  0  0  0  0  0
   -1.1299   -1.0989   -1.0694 C   0  0  0  0  0  0  0  0  0  0  0  0
   -0.6151   -0.8176    0.3412 C   0  0  0  0  0  0  0  0  0  0  0  0
   -1.3707    0.3389    0.8054 C   0  0  0  0  0  0  0  0  0  0  0  0
   -0.6341    1.4143    0.6864 C   0  0  0  0  0  0  0  0  0  0  0  0
    0.6949    1.0803    0.1314 C   0  0  0  0  0  0  0  0  0  0  0  0
    1.5693    0.3993    1.1145 C   0  0  0  0  0  0  0  0  0  0  0  0
    0.7809   -0.4529    0.2240 C   0  0  0  0  0  0  0  0  0  0  0  0
    1.4844   -1.1238   -0.7947 O   0  0  0  0  0  0  0  0  0  0  0  0
   -1.8536   -1.4918   -3.1544 H   0  0  0  0  0  0  0  0  0  0  0  0
   -0.8383   -1.7486    0.9097 H   0  0  0  0  0  0  0  0  0  0  0  0
   -2.4287    0.3193    1.2064 H   0  0  0  0  0  0  0  0  0  0  0  0
   -0.9464    2.4059    0.9570 H   0  0  0  0  0  0  0  0  0  0  0  0
    1.0543    1.4913   -0.8086 H   0  0  0  0  0  0  0  0  0  0  0  0
    2.6615    0.4526    0.8863 H   0  0  0  0  0  0  0  0  0  0  0  0
    1.3697    0.5528    2.1885 H   0  0  0  0  0  0  0  0  0  0  0  0
    1.7037   -0.4138   -1.4782 H   0  0  0  0  0  0  0  0  0  0  0  0
  1  2  3  0
  2  3  1  0
  3  4  1  0
  4  5  2  0
  5  6  1  0
  6  7  1  0
  7  8  1  0
  8  9  1  0
  8  3  1  0
  8  6  1  0
  1 10  1  0
  3 11  1  0
  4 12  1  0
  5 13  1  0
  6 14  1  0
  7 15  1  0
  7 16  1  0
  9 17  1  0
M  END
