
     RDKit          3D

 17 17  0  0  0  0  0  0  0  0999 V2000
    3.1110    2.6852   -0.0966 C   0  0  0  0  0  0  0  0  0  0  0  0
    2.1524    1.8632   -0.1135 C   0  0  0  0  0  0  0  0  0  0  0  0
    1.0954    0.9526   -0.1532 C   0  0  0  0  0  0  0  0  0  0  0  0
    0.8396    0.3455    0.9992 O   0  0  0  0  0  0  0  0  0  0  0  0
    0.2413    0.5580   -1.1677 O   0  0  0  0  0  0  0  0  0  0  0  0
   -0.7889   -0.3857   -0.7015 C   0  0  0  0  0  0  0  0  0  0  0  0
   -1.7190    0.2953    0.2851 C   0  0  0  0  0  0  0  0  0  0  0  0
   -0.0606   -1.6051   -0.1129 C   0  0  0  0  0  0  0  0  0  0  0  0
   -0.9848   -1.6723   -1.3197 C   0  0  0  0  0  0  0  0  0  0  0  0
    3.8685    3.3445   -0.0672 H   0  0  0  0  0  0  0  0  0  0  0  0
   -1.4774   -0.0490    1.3299 H   0  0  0  0  0  0  0  0  0  0  0  0
   -2.7990    0.0755    0.0769 H   0  0  0  0  0  0  0  0  0  0  0  0
   -1.4968    1.4064    0.2915 H   0  0  0  0  0  0  0  0  0  0  0  0
    0.9976   -1.6955   -0.3166 H   0  0  0  0  0  0  0  0  0  0  0  0
   -0.4506   -2.0203    0.8241 H   0  0  0  0  0  0  0  0  0  0  0  0
   -0.5238   -1.9619   -2.2810 H   0  0  0  0  0  0  0  0  0  0  0  0
   -2.0047   -2.1365   -1.1561 H   0  0  0  0  0  0  0  0  0  0  0  0
  1  2  3  0
  2  3  1  0
  3  4  2  0
  3  5  1  0
  5  6  1  0
  6  7  1  0
  6  8  1  0
  8  9  1  0
  9  6  1  0
  1 10  1  0
  7 11  1  0
  7 12  1  0
  7 13  1  0
  8 14  1  0
  8 15  1  0
  9 16  1  0
  9 17  1  0
M  END
