
     RDKit          3D

 21 21  0  0  0  0  0  0  0  0999 V2000
    3.9546    0.1697    0.0949 C   0  0  0  0  0  0  0  0  0  0  0  0
    2.9547   -0.0454    0.4670 C   0  0  0  0  0  0  0  0  0  0  0  0
    1.5388   -0.3256    1.0060 C   0  0  0  0  0  0  0  0  0  0  0  0
    0.5986    0.1494   -0.1471 C   0  0  0  0  0  0  0  0  0  0  0  0
    1.0246    1.5751   -0.4585 C   0  0  0  0  0  0  0  0  0  0  0  0
   -0.6546    0.0019    0.0655 O   0  0  0  0  0  0  0  0  0  0  0  0
   -1.6117   -0.8455    0.2771 C   0  0  0  0  0  0  0  0  0  0  0  0
   -2.7668   -0.6649   -0.7717 C   0  0  0  0  0  0  0  0  0  0  0  0
   -2.9908   -0.4599    0.7039 C   0  0  0  0  0  0  0  0  0  0  0  0
    4.9163    0.3739   -0.2515 H   0  0  0  0  0  0  0  0  0  0  0  0
    1.4536    0.2961    1.8919 H   0  0  0  0  0  0  0  0  0  0  0  0
    1.4784   -1.3957    1.1087 H   0  0  0  0  0  0  0  0  0  0  0  0
    1.0176   -0.5974   -0.9217 H   0  0  0  0  0  0  0  0  0  0  0  0
    0.1511    2.2626   -0.5335 H   0  0  0  0  0  0  0  0  0  0  0  0
    1.4564    1.5605   -1.5190 H   0  0  0  0  0  0  0  0  0  0  0  0
    1.8181    1.9075    0.2124 H   0  0  0  0  0  0  0  0  0  0  0  0
   -1.4321   -2.0011    0.3422 H   0  0  0  0  0  0  0  0  0  0  0  0
   -2.7873    0.2484   -1.3719 H   0  0  0  0  0  0  0  0  0  0  0  0
   -3.2174   -1.5621   -1.2324 H   0  0  0  0  0  0  0  0  0  0  0  0
   -3.2515    0.5882    1.0186 H   0  0  0  0  0  0  0  0  0  0  0  0
   -3.6506   -1.2359    1.1021 H   0  0  0  0  0  0  0  0  0  0  0  0
  1  2  3  0
  2  3  1  0
  3  4  1  0
  4  5  1  0
  4  6  1  0
  6  7  1  0
  7  8  1  0
  8  9  1  0
  9  7  1  0
  1 10  1  0
  3 11  1  0
  3 12  1  0
  4 13  1  0
  5 14  1  0
  5 15  1  0
  5 16  1  0
  7 17  1  0
  8 18  1  0
  8 19  1  0
  9 20  1  0
  9 21  1  0
M  END
