
     RDKit          3D

 21 20  0  0  0  0  0  0  0  0999 V2000
   -0.3011    0.3182   -2.6800 C   0  0  0  0  0  0  0  0  0  0  0  0
    0.2652   -0.0113   -1.9166 C   0  0  0  0  0  0  0  0  0  0  0  0
    1.0783   -0.4903   -0.7785 C   0  0  0  0  0  0  0  0  0  0  0  0
    1.3980   -1.9894   -1.0280 C   0  0  0  0  0  0  0  0  0  0  0  0
    0.5570   -0.3408    0.5609 C   0  0  0  0  0  0  0  0  0  0  0  0
    1.3600   -0.8269    1.5354 O   0  0  0  0  0  0  0  0  0  0  0  0
   -0.1317    0.9622    0.9150 C   0  0  0  0  0  0  0  0  0  0  0  0
   -1.0629    0.6197    1.9465 O   0  0  0  0  0  0  0  0  0  0  0  0
   -1.9448    1.6354    2.2103 C   0  0  0  0  0  0  0  0  0  0  0  0
   -0.9796    0.7330   -3.5898 H   0  0  0  0  0  0  0  0  0  0  0  0
    2.1216   -0.0040   -0.8775 H   0  0  0  0  0  0  0  0  0  0  0  0
    2.3447   -2.2971   -0.5445 H   0  0  0  0  0  0  0  0  0  0  0  0
    1.5275   -2.0546   -2.1548 H   0  0  0  0  0  0  0  0  0  0  0  0
    0.4866   -2.5303   -0.7974 H   0  0  0  0  0  0  0  0  0  0  0  0
   -0.3686   -1.1288    0.5933 H   0  0  0  0  0  0  0  0  0  0  0  0
    0.8049   -1.2335    2.2373 H   0  0  0  0  0  0  0  0  0  0  0  0
    0.5075    1.7893    1.1424 H   0  0  0  0  0  0  0  0  0  0  0  0
   -0.7770    1.2036    0.0099 H   0  0  0  0  0  0  0  0  0  0  0  0
   -2.4596    2.0584    1.3198 H   0  0  0  0  0  0  0  0  0  0  0  0
   -2.8639    1.1565    2.7488 H   0  0  0  0  0  0  0  0  0  0  0  0
   -1.5620    2.4310    2.8189 H   0  0  0  0  0  0  0  0  0  0  0  0
  1  2  3  0
  2  3  1  0
  3  4  1  0
  3  5  1  0
  5  6  1  0
  5  7  1  0
  7  8  1  0
  8  9  1  0
  1 10  1  0
  3 11  1  0
  4 12  1  0
  4 13  1  0
  4 14  1  0
  5 15  1  0
  6 16  1  0
  7 17  1  0
  7 18  1  0
  9 19  1  0
  9 20  1  0
  9 21  1  0
M  END
