
     RDKit          3D

 19 19  0  0  0  0  0  0  0  0999 V2000
   -1.2944    2.2926    1.4346 C   0  0  0  0  0  0  0  0  0  0  0  0
   -1.1155    1.3196    0.7455 C   0  0  0  0  0  0  0  0  0  0  0  0
   -0.9037    0.1282   -0.0805 C   0  0  0  0  0  0  0  0  0  0  0  0
    0.2299    0.2095   -0.8852 O   0  0  0  0  0  0  0  0  0  0  0  0
    1.3242    0.3680   -0.0407 C   0  0  0  0  0  0  0  0  0  0  0  0
    2.6214    0.4689   -0.8056 C   0  0  0  0  0  0  0  0  0  0  0  0
   -2.0695   -0.6743   -0.4624 C   0  0  0  0  0  0  0  0  0  0  0  0
   -1.1192   -1.2153    0.5587 C   0  0  0  0  0  0  0  0  0  0  0  0
   -0.3295   -2.2738    0.1237 O   0  0  0  0  0  0  0  0  0  0  0  0
   -1.4535    3.1521    2.0663 H   0  0  0  0  0  0  0  0  0  0  0  0
    1.3137   -0.4969    0.6540 H   0  0  0  0  0  0  0  0  0  0  0  0
    1.2295    1.2850    0.5709 H   0  0  0  0  0  0  0  0  0  0  0  0
    2.9684   -0.5884   -0.9753 H   0  0  0  0  0  0  0  0  0  0  0  0
    3.4055    0.9711   -0.2297 H   0  0  0  0  0  0  0  0  0  0  0  0
    2.5220    0.9568   -1.7726 H   0  0  0  0  0  0  0  0  0  0  0  0
   -2.1387   -1.1808   -1.4568 H   0  0  0  0  0  0  0  0  0  0  0  0
   -3.0534   -0.3715   -0.0449 H   0  0  0  0  0  0  0  0  0  0  0  0
   -1.3506   -1.2040    1.6281 H   0  0  0  0  0  0  0  0  0  0  0  0
   -0.7866   -3.1468    0.1852 H   0  0  0  0  0  0  0  0  0  0  0  0
  1  2  3  0
  2  3  1  0
  3  4  1  0
  4  5  1  0
  5  6  1  0
  3  7  1  0
  7  8  1  0
  8  9  1  0
  8  3  1  0
  1 10  1  0
  5 11  1  0
  5 12  1  0
  6 13  1  0
  6 14  1  0
  6 15  1  0
  7 16  1  0
  7 17  1  0
  8 18  1  0
  9 19  1  0
M  END
