
     RDKit          3D

 17 18  0  0  0  0  0  0  0  0999 V2000
   -0.9594    2.5859   -0.3384 C   0  0  0  0  0  0  0  0  0  0  0  0
   -0.7156    1.4069   -0.2598 C   0  0  0  0  0  0  0  0  0  0  0  0
   -0.4125   -0.0068   -0.1459 C   0  0  0  0  0  0  0  0  0  0  0  0
   -1.5373   -0.9241   -0.4835 C   0  0  0  0  0  0  0  0  0  0  0  0
    0.4602   -0.4056    1.0146 C   0  0  0  0  0  0  0  0  0  0  0  0
    1.5017    0.4858    0.3750 C   0  0  0  0  0  0  0  0  0  0  0  0
    0.9266   -0.3245   -0.7563 C   0  0  0  0  0  0  0  0  0  0  0  0
    0.9673   -1.4526    0.1599 C   0  0  0  0  0  0  0  0  0  0  0  0
    1.2686   -2.6069    0.1542 O   0  0  0  0  0  0  0  0  0  0  0  0
   -1.1774    3.6381   -0.3998 H   0  0  0  0  0  0  0  0  0  0  0  0
   -2.1998   -0.4050   -1.2071 H   0  0  0  0  0  0  0  0  0  0  0  0
   -2.1227   -1.1939    0.4228 H   0  0  0  0  0  0  0  0  0  0  0  0
   -1.1256   -1.8758   -0.8916 H   0  0  0  0  0  0  0  0  0  0  0  0
    0.2033   -0.4106    1.9816 H   0  0  0  0  0  0  0  0  0  0  0  0
    1.1996    1.5290    0.4444 H   0  0  0  0  0  0  0  0  0  0  0  0
    2.5509    0.2308    0.5905 H   0  0  0  0  0  0  0  0  0  0  0  0
    1.1720   -0.2705   -1.7234 H   0  0  0  0  0  0  0  0  0  0  0  0
  1  2  3  0
  2  3  1  0
  3  4  1  0
  3  5  1  0
  5  6  1  0
  6  7  1  0
  7  8  1  0
  8  9  2  0
  7  3  1  0
  8  5  1  0
  1 10  1  0
  4 11  1  0
  4 12  1  0
  4 13  1  0
  5 14  1  0
  6 15  1  0
  6 16  1  0
  7 17  1  0
M  END
