
     RDKit          3D

 17 17  0  0  0  0  0  0  0  0999 V2000
    1.2800    1.7933    1.9195 C   0  0  0  0  0  0  0  0  0  0  0  0
    0.8147    0.8923    1.0825 C   0  0  0  0  0  0  0  0  0  0  0  0
    0.2991   -0.1219    0.1263 C   0  0  0  0  0  0  0  0  0  0  0  0
   -1.1018   -0.5692    0.3601 C   0  0  0  0  0  0  0  0  0  0  0  0
   -1.4118   -1.6107   -0.5159 O   0  0  0  0  0  0  0  0  0  0  0  0
   -2.0942    0.5529    0.0801 C   0  0  0  0  0  0  0  0  0  0  0  0
   -1.7162    1.6579   -0.2514 O   0  0  0  0  0  0  0  0  0  0  0  0
    1.3578   -1.0129   -0.3921 C   0  0  0  0  0  0  0  0  0  0  0  0
    0.8078    0.1069   -1.2702 C   0  0  0  0  0  0  0  0  0  0  0  0
    1.6640    2.5404    2.5889 H   0  0  0  0  0  0  0  0  0  0  0  0
   -1.2657   -0.8685    1.3950 H   0  0  0  0  0  0  0  0  0  0  0  0
   -0.6305   -1.6364   -1.1538 H   0  0  0  0  0  0  0  0  0  0  0  0
   -3.1340    0.3461    0.1850 H   0  0  0  0  0  0  0  0  0  0  0  0
    2.4160   -0.8635   -0.0066 H   0  0  0  0  0  0  0  0  0  0  0  0
    1.1177   -2.0738   -0.5775 H   0  0  0  0  0  0  0  0  0  0  0  0
    0.2415   -0.1870   -2.1924 H   0  0  0  0  0  0  0  0  0  0  0  0
    1.3555    1.0540   -1.3775 H   0  0  0  0  0  0  0  0  0  0  0  0
  1  2  3  0
  2  3  1  0
  3  4  1  0
  4  5  1  0
  4  6  1  0
  6  7  2  0
  3  8  1  0
  8  9  1  0
  9  3  1  0
  1 10  1  0
  4 11  1  0
  5 12  1  0
  6 13  1  0
  8 14  1  0
  8 15  1  0
  9 16  1  0
  9 17  1  0
M  END
