
     RDKit          3D

 21 21  0  0  0  0  0  0  0  0999 V2000
   -0.1701   -2.6365    1.3330 C   0  0  0  0  0  0  0  0  0  0  0  0
   -0.2175   -1.6151    0.6735 C   0  0  0  0  0  0  0  0  0  0  0  0
   -0.2583   -0.3788   -0.1043 C   0  0  0  0  0  0  0  0  0  0  0  0
    0.0054   -0.7400   -1.5508 C   0  0  0  0  0  0  0  0  0  0  0  0
   -1.6143    0.2752    0.0096 C   0  0  0  0  0  0  0  0  0  0  0  0
   -1.2356    1.6327    0.6041 C   0  0  0  0  0  0  0  0  0  0  0  0
    0.0406    1.8458    0.0766 O   0  0  0  0  0  0  0  0  0  0  0  0
    0.6782    0.6638    0.4118 C   0  0  0  0  0  0  0  0  0  0  0  0
    2.0657    0.5565   -0.1622 C   0  0  0  0  0  0  0  0  0  0  0  0
   -0.1197   -3.5175    1.9211 H   0  0  0  0  0  0  0  0  0  0  0  0
   -0.4511   -1.6907   -1.8391 H   0  0  0  0  0  0  0  0  0  0  0  0
    1.1182   -0.7967   -1.7309 H   0  0  0  0  0  0  0  0  0  0  0  0
   -0.3779    0.0997   -2.1673 H   0  0  0  0  0  0  0  0  0  0  0  0
   -2.0848    0.4157   -0.9765 H   0  0  0  0  0  0  0  0  0  0  0  0
   -2.2898   -0.2702    0.6955 H   0  0  0  0  0  0  0  0  0  0  0  0
   -1.9475    2.4105    0.3268 H   0  0  0  0  0  0  0  0  0  0  0  0
   -1.1530    1.4862    1.7124 H   0  0  0  0  0  0  0  0  0  0  0  0
    0.7156    0.6039    1.5185 H   0  0  0  0  0  0  0  0  0  0  0  0
    2.3886   -0.5043   -0.1609 H   0  0  0  0  0  0  0  0  0  0  0  0
    2.7409    1.1072    0.5476 H   0  0  0  0  0  0  0  0  0  0  0  0
    2.1661    1.0527   -1.1387 H   0  0  0  0  0  0  0  0  0  0  0  0
  1  2  3  0
  2  3  1  0
  3  4  1  0
  3  5  1  0
  5  6  1  0
  6  7  1  0
  7  8  1  0
  8  9  1  0
  8  3  1  0
  1 10  1  0
  4 11  1  0
  4 12  1  0
  4 13  1  0
  5 14  1  0
  5 15  1  0
  6 16  1  0
  6 17  1  0
  8 18  1  0
  9 19  1  0
  9 20  1  0
  9 21  1  0
M  END
