
     RDKit          3D

 17 16  0  0  0  0  0  0  0  0999 V2000
    3.3022    0.2652   -1.7345 C   0  0  0  0  0  0  0  0  0  0  0  0
    2.3860    0.3072   -0.9928 C   0  0  0  0  0  0  0  0  0  0  0  0
    1.2220    0.3354   -0.0428 C   0  0  0  0  0  0  0  0  0  0  0  0
    0.2837   -0.7298   -0.4284 C   0  0  0  0  0  0  0  0  0  0  0  0
    0.5702   -1.4202   -1.4152 O   0  0  0  0  0  0  0  0  0  0  0  0
   -0.9758   -1.0850    0.2373 C   0  0  0  0  0  0  0  0  0  0  0  0
   -1.5107   -0.1198    1.2261 C   0  0  0  0  0  0  0  0  0  0  0  0
   -1.8724    1.1672    0.6037 C   0  0  0  0  0  0  0  0  0  0  0  0
   -1.8097    1.3166   -0.5812 O   0  0  0  0  0  0  0  0  0  0  0  0
    4.1292    0.2413   -2.4157 H   0  0  0  0  0  0  0  0  0  0  0  0
    1.6149    0.1989    0.9929 H   0  0  0  0  0  0  0  0  0  0  0  0
    0.7957    1.3263   -0.1094 H   0  0  0  0  0  0  0  0  0  0  0  0
   -0.8967   -2.1126    0.6813 H   0  0  0  0  0  0  0  0  0  0  0  0
   -1.7515   -1.1518   -0.5932 H   0  0  0  0  0  0  0  0  0  0  0  0
   -0.8285    0.0441    2.0965 H   0  0  0  0  0  0  0  0  0  0  0  0
   -2.4616   -0.5584    1.6392 H   0  0  0  0  0  0  0  0  0  0  0  0
   -2.1969    1.9753    1.2422 H   0  0  0  0  0  0  0  0  0  0  0  0
  1  2  3  0
  2  3  1  0
  3  4  1  0
  4  5  2  0
  4  6  1  0
  6  7  1  0
  7  8  1  0
  8  9  2  0
  1 10  1  0
  3 11  1  0
  3 12  1  0
  6 13  1  0
  6 14  1  0
  7 15  1  0
  7 16  1  0
  8 17  1  0
M  END
