
     RDKit          3D

 19 18  0  0  0  0  0  0  0  0999 V2000
   -0.4485    2.1264   -1.2284 C   0  0  0  0  0  0  0  0  0  0  0  0
   -0.8216    1.0975   -0.7143 C   0  0  0  0  0  0  0  0  0  0  0  0
   -1.2621   -0.1616   -0.0991 C   0  0  0  0  0  0  0  0  0  0  0  0
   -2.0962   -0.9256   -1.0795 C   0  0  0  0  0  0  0  0  0  0  0  0
   -0.0443   -0.9056    0.3093 C   0  0  0  0  0  0  0  0  0  0  0  0
    0.1254   -2.0104   -0.1908 O   0  0  0  0  0  0  0  0  0  0  0  0
    0.8725   -0.2883    1.2716 C   0  0  0  0  0  0  0  0  0  0  0  0
    2.2787   -0.1310    0.7329 C   0  0  0  0  0  0  0  0  0  0  0  0
    0.3945    0.9500    1.6374 O   0  0  0  0  0  0  0  0  0  0  0  0
   -0.1110    3.0292   -1.6676 H   0  0  0  0  0  0  0  0  0  0  0  0
   -1.8494    0.0202    0.8221 H   0  0  0  0  0  0  0  0  0  0  0  0
   -1.4483   -1.5612   -1.7298 H   0  0  0  0  0  0  0  0  0  0  0  0
   -2.8585   -1.5299   -0.5415 H   0  0  0  0  0  0  0  0  0  0  0  0
   -2.5696   -0.1830   -1.7753 H   0  0  0  0  0  0  0  0  0  0  0  0
    0.9505   -0.9875    2.1451 H   0  0  0  0  0  0  0  0  0  0  0  0
    2.3124   -0.0138   -0.3621 H   0  0  0  0  0  0  0  0  0  0  0  0
    2.7166    0.7582    1.2335 H   0  0  0  0  0  0  0  0  0  0  0  0
    2.9306   -0.9911    1.0535 H   0  0  0  0  0  0  0  0  0  0  0  0
    0.9282    1.7074    1.2945 H   0  0  0  0  0  0  0  0  0  0  0  0
  1  2  3  0
  2  3  1  0
  3  4  1  0
  3  5  1  0
  5  6  2  0
  5  7  1  0
  7  8  1  0
  7  9  1  0
  1 10  1  0
  3 11  1  0
  4 12  1  0
  4 13  1  0
  4 14  1  0
  7 15  1  0
  8 16  1  0
  8 17  1  0
  8 18  1  0
  9 19  1  0
M  END
