
     RDKit          3D

 19 20  0  0  0  0  0  0  0  0999 V2000
    2.8799   -0.3543    1.5596 C   0  0  0  0  0  0  0  0  0  0  0  0
    1.7814    0.1252    1.4358 C   0  0  0  0  0  0  0  0  0  0  0  0
    0.4207    0.7010    1.2631 C   0  0  0  0  0  0  0  0  0  0  0  0
   -0.3154   -0.1142    0.2888 C   0  0  0  0  0  0  0  0  0  0  0  0
   -0.4940   -1.5860    0.6788 C   0  0  0  0  0  0  0  0  0  0  0  0
   -0.0074    0.0704   -1.1367 C   0  0  0  0  0  0  0  0  0  0  0  0
   -0.7806    1.3214   -1.1605 C   0  0  0  0  0  0  0  0  0  0  0  0
   -1.5558    0.3620   -0.3531 C   0  0  0  0  0  0  0  0  0  0  0  0
   -1.2532   -0.5527   -1.3711 O   0  0  0  0  0  0  0  0  0  0  0  0
    3.8499   -0.7617    1.6797 H   0  0  0  0  0  0  0  0  0  0  0  0
   -0.0113    0.6464    2.3063 H   0  0  0  0  0  0  0  0  0  0  0  0
    0.5163    1.7419    0.9303 H   0  0  0  0  0  0  0  0  0  0  0  0
   -0.8968   -2.0841   -0.2282 H   0  0  0  0  0  0  0  0  0  0  0  0
    0.4332   -2.0253    1.0491 H   0  0  0  0  0  0  0  0  0  0  0  0
   -1.3213   -1.5913    1.4197 H   0  0  0  0  0  0  0  0  0  0  0  0
    0.8335   -0.1725   -1.6420 H   0  0  0  0  0  0  0  0  0  0  0  0
   -1.2556    1.5952   -2.1460 H   0  0  0  0  0  0  0  0  0  0  0  0
   -0.3547    2.2035   -0.7089 H   0  0  0  0  0  0  0  0  0  0  0  0
   -2.4690    0.4752    0.0642 H   0  0  0  0  0  0  0  0  0  0  0  0
  1  2  3  0
  2  3  1  0
  3  4  1  0
  4  5  1  0
  4  6  1  0
  6  7  1  0
  7  8  1  0
  8  9  1  0
  8  4  1  0
  9  6  1  0
  1 10  1  0
  3 11  1  0
  3 12  1  0
  5 13  1  0
  5 14  1  0
  5 15  1  0
  6 16  1  0
  7 17  1  0
  7 18  1  0
  8 19  1  0
M  END
