
     RDKit          3D

 15 16  0  0  0  0  0  0  0  0999 V2000
    3.2660   -0.5160    0.2104 C   0  0  0  0  0  0  0  0  0  0  0  0
    2.0642   -0.4495    0.0283 C   0  0  0  0  0  0  0  0  0  0  0  0
    0.6513   -0.3621   -0.1997 C   0  0  0  0  0  0  0  0  0  0  0  0
   -0.2361   -1.2973    0.1101 C   0  0  0  0  0  0  0  0  0  0  0  0
   -1.5549   -0.7201   -0.3400 C   0  0  0  0  0  0  0  0  0  0  0  0
   -1.8654    0.2674    0.5626 O   0  0  0  0  0  0  0  0  0  0  0  0
   -1.0677    1.3786    0.1995 C   0  0  0  0  0  0  0  0  0  0  0  0
   -0.1408    0.7339   -0.8066 C   0  0  0  0  0  0  0  0  0  0  0  0
   -1.1083   -0.0419   -1.5031 O   0  0  0  0  0  0  0  0  0  0  0  0
    4.2906   -0.5644    0.3819 H   0  0  0  0  0  0  0  0  0  0  0  0
   -0.0969   -2.2618    0.5758 H   0  0  0  0  0  0  0  0  0  0  0  0
   -2.3043   -1.4600   -0.5347 H   0  0  0  0  0  0  0  0  0  0  0  0
   -0.5648    1.8264    1.0488 H   0  0  0  0  0  0  0  0  0  0  0  0
   -1.7339    2.0572   -0.3594 H   0  0  0  0  0  0  0  0  0  0  0  0
    0.4011    1.4095   -1.4381 H   0  0  0  0  0  0  0  0  0  0  0  0
  1  2  3  0
  2  3  1  0
  3  4  2  0
  4  5  1  0
  5  6  1  0
  6  7  1  0
  7  8  1  0
  8  9  1  0
  8  3  1  0
  9  5  1  0
  1 10  1  0
  4 11  1  0
  5 12  1  0
  7 13  1  0
  7 14  1  0
  8 15  1  0
M  END
