
     RDKit          3D

 19 19  0  0  0  0  0  0  0  0999 V2000
    2.4750   -1.7106   -1.6544 C   0  0  0  0  0  0  0  0  0  0  0  0
    1.6987   -1.8690   -1.1651 C   0  0  0  0  0  0  0  0  0  0  0  0
    0.2914   -2.1365   -0.2869 C   0  0  0  0  0  0  0  0  0  0  0  0
   -0.5528   -0.9671   -0.7788 C   0  0  0  0  0  0  0  0  0  0  0  0
    0.1067    0.1718   -0.3565 O   0  0  0  0  0  0  0  0  0  0  0  0
   -0.6353    1.2447   -0.0486 C   0  0  0  0  0  0  0  0  0  0  0  0
   -1.0915    0.9171    1.4767 C   0  0  0  0  0  0  0  0  0  0  0  0
   -1.2468    2.3389    1.5636 O   0  0  0  0  0  0  0  0  0  0  0  0
   -0.1033    2.4384    0.6784 C   0  0  0  0  0  0  0  0  0  0  0  0
    3.6785   -1.4491   -2.4290 H   0  0  0  0  0  0  0  0  0  0  0  0
    0.0420   -3.0731   -0.4527 H   0  0  0  0  0  0  0  0  0  0  0  0
    0.7685   -1.8440    0.7201 H   0  0  0  0  0  0  0  0  0  0  0  0
   -1.5248   -1.1430   -0.2320 H   0  0  0  0  0  0  0  0  0  0  0  0
   -0.5716   -1.0415   -1.9020 H   0  0  0  0  0  0  0  0  0  0  0  0
   -1.6281    1.4111   -0.5463 H   0  0  0  0  0  0  0  0  0  0  0  0
   -1.9630    0.3110    1.3372 H   0  0  0  0  0  0  0  0  0  0  0  0
   -0.2404    0.6383    2.1014 H   0  0  0  0  0  0  0  0  0  0  0  0
   -0.2791    3.3953    0.0828 H   0  0  0  0  0  0  0  0  0  0  0  0
    0.7760    2.3673    1.2967 H   0  0  0  0  0  0  0  0  0  0  0  0
  1  2  3  0
  2  3  1  0
  3  4  1  0
  4  5  1  0
  5  6  1  0
  6  7  1  0
  7  8  1  0
  8  9  1  0
  9  6  1  0
  1 10  1  0
  3 11  1  0
  3 12  1  0
  4 13  1  0
  4 14  1  0
  6 15  1  0
  7 16  1  0
  7 17  1  0
  9 18  1  0
  9 19  1  0
M  END
