
     RDKit          3D

 15 16  0  0  0  0  0  0  0  0999 V2000
    2.0491   -1.6932   -0.0671 C   0  0  0  0  0  0  0  0  0  0  0  0
    1.1575   -0.8808    0.1253 C   0  0  0  0  0  0  0  0  0  0  0  0
    0.0892    0.0918    0.3800 C   0  0  0  0  0  0  0  0  0  0  0  0
    0.2641    0.8352    1.6306 C   0  0  0  0  0  0  0  0  0  0  0  0
    0.9857    0.3428    2.4852 O   0  0  0  0  0  0  0  0  0  0  0  0
   -0.0929    1.0389   -0.8137 C   0  0  0  0  0  0  0  0  0  0  0  0
   -1.2520    0.1920   -1.2133 C   0  0  0  0  0  0  0  0  0  0  0  0
   -2.3148    0.2048   -0.3225 O   0  0  0  0  0  0  0  0  0  0  0  0
   -1.2534   -0.5229    0.1303 C   0  0  0  0  0  0  0  0  0  0  0  0
    2.8262   -2.3935   -0.2519 H   0  0  0  0  0  0  0  0  0  0  0  0
   -0.2108    1.7911    1.8325 H   0  0  0  0  0  0  0  0  0  0  0  0
    0.7936    1.0206   -1.4695 H   0  0  0  0  0  0  0  0  0  0  0  0
   -0.4283    2.0286   -0.4680 H   0  0  0  0  0  0  0  0  0  0  0  0
   -1.2472   -0.4423   -2.0948 H   0  0  0  0  0  0  0  0  0  0  0  0
   -1.3660   -1.6131    0.1169 H   0  0  0  0  0  0  0  0  0  0  0  0
  1  2  3  0
  2  3  1  0
  3  4  1  0
  4  5  2  0
  3  6  1  0
  6  7  1  0
  7  8  1  0
  8  9  1  0
  9  3  1  0
  9  7  1  0
  1 10  1  0
  4 11  1  0
  6 12  1  0
  6 13  1  0
  7 14  1  0
  9 15  1  0
M  END
