
     RDKit          3D

 19 20  0  0  0  0  0  0  0  0999 V2000
    2.6758    1.7236   -1.6193 C   0  0  0  0  0  0  0  0  0  0  0  0
    1.5789    1.2729   -1.5065 C   0  0  0  0  0  0  0  0  0  0  0  0
    0.2228    0.7130   -1.3914 C   0  0  0  0  0  0  0  0  0  0  0  0
    0.1441   -0.2701   -0.2713 C   0  0  0  0  0  0  0  0  0  0  0  0
    0.5039    0.4309    1.0571 C   0  0  0  0  0  0  0  0  0  0  0  0
   -0.5551    0.0950    1.9451 O   0  0  0  0  0  0  0  0  0  0  0  0
   -0.8688   -1.1467    1.4865 C   0  0  0  0  0  0  0  0  0  0  0  0
   -1.8886   -1.6891    0.6945 C   0  0  0  0  0  0  0  0  0  0  0  0
   -1.2596   -0.6197    0.0439 C   0  0  0  0  0  0  0  0  0  0  0  0
    3.6731    2.1514   -1.7317 H   0  0  0  0  0  0  0  0  0  0  0  0
   -0.4900    1.5268   -1.2572 H   0  0  0  0  0  0  0  0  0  0  0  0
   -0.0343    0.1587   -2.3336 H   0  0  0  0  0  0  0  0  0  0  0  0
    0.7992   -1.1354   -0.4115 H   0  0  0  0  0  0  0  0  0  0  0  0
    0.6077    1.5049    0.9224 H   0  0  0  0  0  0  0  0  0  0  0  0
    1.3999   -0.0726    1.4814 H   0  0  0  0  0  0  0  0  0  0  0  0
    0.0759   -1.7750    1.5374 H   0  0  0  0  0  0  0  0  0  0  0  0
   -1.7752   -2.7230    0.2557 H   0  0  0  0  0  0  0  0  0  0  0  0
   -2.9506   -1.5939    1.0591 H   0  0  0  0  0  0  0  0  0  0  0  0
   -1.8592    0.3473    0.0394 H   0  0  0  0  0  0  0  0  0  0  0  0
  1  2  3  0
  2  3  1  0
  3  4  1  0
  4  5  1  0
  5  6  1  0
  6  7  1  0
  7  8  1  0
  8  9  1  0
  9  4  1  0
  9  7  1  0
  1 10  1  0
  3 11  1  0
  3 12  1  0
  4 13  1  0
  5 14  1  0
  5 15  1  0
  7 16  1  0
  8 17  1  0
  8 18  1  0
  9 19  1  0
M  END
