
     RDKit          3D

 13 14  0  0  0  0  0  0  0  0999 V2000
    2.2632   -1.1542    1.0922 C   0  0  0  0  0  0  0  0  0  0  0  0
    1.1759   -0.7071    0.9307 C   0  0  0  0  0  0  0  0  0  0  0  0
   -0.1541   -0.1388    0.7160 C   0  0  0  0  0  0  0  0  0  0  0  0
   -1.1368   -0.8307   -0.1170 C   0  0  0  0  0  0  0  0  0  0  0  0
   -0.5243    0.4382   -0.5970 C   0  0  0  0  0  0  0  0  0  0  0  0
    0.3562    0.3761   -1.6751 O   0  0  0  0  0  0  0  0  0  0  0  0
   -0.6829    1.7048    0.1325 C   0  0  0  0  0  0  0  0  0  0  0  0
   -0.8918    2.9248   -0.0923 O   0  0  0  0  0  0  0  0  0  0  0  0
   -0.5035    1.0503    1.3607 O   0  0  0  0  0  0  0  0  0  0  0  0
    3.2345   -1.5552    1.2179 H   0  0  0  0  0  0  0  0  0  0  0  0
   -0.8609   -1.7251   -0.6949 H   0  0  0  0  0  0  0  0  0  0  0  0
   -2.1964   -0.8071    0.2746 H   0  0  0  0  0  0  0  0  0  0  0  0
   -0.0791    0.4240   -2.5481 H   0  0  0  0  0  0  0  0  0  0  0  0
  1  2  3  0
  2  3  1  0
  3  4  1  0
  4  5  1  0
  5  6  1  0
  5  7  1  0
  7  8  2  0
  7  9  1  0
  5  3  1  0
  9  3  1  0
  1 10  1  0
  4 11  1  0
  4 12  1  0
  6 13  1  0
M  END
