
     RDKit          3D

 21 20  0  0  0  0  0  0  0  0999 V2000
    2.2121   -1.5860   -1.1237 C   0  0  0  0  0  0  0  0  0  0  0  0
    1.7204   -1.1108   -0.1415 C   0  0  0  0  0  0  0  0  0  0  0  0
    1.1234   -0.5026    1.0608 C   0  0  0  0  0  0  0  0  0  0  0  0
    2.0965   -0.3153    2.0405 O   0  0  0  0  0  0  0  0  0  0  0  0
    0.4893    0.8052    0.7639 C   0  0  0  0  0  0  0  0  0  0  0  0
   -0.6230    0.6452   -0.2446 C   0  0  0  0  0  0  0  0  0  0  0  0
   -1.1587    2.0374   -0.4668 C   0  0  0  0  0  0  0  0  0  0  0  0
   -1.5109   -0.2519    0.1993 O   0  0  0  0  0  0  0  0  0  0  0  0
   -1.8256   -1.3704   -0.4606 C   0  0  0  0  0  0  0  0  0  0  0  0
    2.6546   -2.0344   -2.0083 H   0  0  0  0  0  0  0  0  0  0  0  0
    0.3358   -1.1782    1.4664 H   0  0  0  0  0  0  0  0  0  0  0  0
    2.9820   -0.1413    1.5869 H   0  0  0  0  0  0  0  0  0  0  0  0
   -0.0107    1.1520    1.7035 H   0  0  0  0  0  0  0  0  0  0  0  0
    1.1982    1.5723    0.3872 H   0  0  0  0  0  0  0  0  0  0  0  0
   -0.1703    0.3164   -1.1955 H   0  0  0  0  0  0  0  0  0  0  0  0
   -0.5473    2.5281   -1.2519 H   0  0  0  0  0  0  0  0  0  0  0  0
   -2.1957    2.0778   -0.7886 H   0  0  0  0  0  0  0  0  0  0  0  0
   -1.0468    2.6472    0.4527 H   0  0  0  0  0  0  0  0  0  0  0  0
   -0.9310   -2.0057   -0.5917 H   0  0  0  0  0  0  0  0  0  0  0  0
   -2.5505   -2.0379    0.0937 H   0  0  0  0  0  0  0  0  0  0  0  0
   -2.2417   -1.2470   -1.4816 H   0  0  0  0  0  0  0  0  0  0  0  0
  1  2  3  0
  2  3  1  0
  3  4  1  0
  3  5  1  0
  5  6  1  0
  6  7  1  0
  6  8  1  0
  8  9  1  0
  1 10  1  0
  3 11  1  0
  4 12  1  0
  5 13  1  0
  5 14  1  0
  6 15  1  0
  7 16  1  0
  7 17  1  0
  7 18  1  0
  9 19  1  0
  9 20  1  0
  9 21  1  0
M  END
