
     RDKit          3D

 14 13  0  0  0  0  0  0  0  0999 V2000
    2.1842   -0.9692   -0.8334 C   0  0  0  0  0  0  0  0  0  0  0  0
    1.1398   -0.4627   -0.4576 C   0  0  0  0  0  0  0  0  0  0  0  0
   -0.1051    0.1662   -0.0057 C   0  0  0  0  0  0  0  0  0  0  0  0
   -0.8068   -0.7910    0.9388 C   0  0  0  0  0  0  0  0  0  0  0  0
   -1.0070    0.3707   -1.1717 C   0  0  0  0  0  0  0  0  0  0  0  0
   -1.6973    1.3665   -1.3116 O   0  0  0  0  0  0  0  0  0  0  0  0
    0.2318    1.4544    0.6391 C   0  0  0  0  0  0  0  0  0  0  0  0
    0.7726    1.5004    1.7193 O   0  0  0  0  0  0  0  0  0  0  0  0
    3.0854   -1.4136   -1.1769 H   0  0  0  0  0  0  0  0  0  0  0  0
   -1.7209   -0.3811    1.3608 H   0  0  0  0  0  0  0  0  0  0  0  0
   -0.9776   -1.7279    0.3421 H   0  0  0  0  0  0  0  0  0  0  0  0
   -0.0733   -1.0522    1.7298 H   0  0  0  0  0  0  0  0  0  0  0  0
   -1.0205   -0.4386   -1.9176 H   0  0  0  0  0  0  0  0  0  0  0  0
   -0.0054    2.3781    0.1446 H   0  0  0  0  0  0  0  0  0  0  0  0
  1  2  3  0
  2  3  1  0
  3  4  1  0
  3  5  1  0
  5  6  2  0
  3  7  1  0
  7  8  2  0
  1  9  1  0
  4 10  1  0
  4 11  1  0
  4 12  1  0
  5 13  1  0
  7 14  1  0
M  END
