
     RDKit          3D

 16 17  0  0  0  0  0  0  0  0999 V2000
    2.4122    0.6784    1.3344 C   0  0  0  0  0  0  0  0  0  0  0  0
    1.6374    0.0533    0.6186 C   0  0  0  0  0  0  0  0  0  0  0  0
    0.7067   -0.7060   -0.2145 C   0  0  0  0  0  0  0  0  0  0  0  0
    0.6781   -0.2186   -1.6696 C   0  0  0  0  0  0  0  0  0  0  0  0
   -0.7184   -0.2263   -1.6728 O   0  0  0  0  0  0  0  0  0  0  0  0
   -0.6671   -0.1829   -0.2953 C   0  0  0  0  0  0  0  0  0  0  0  0
   -1.2525    0.8506    0.5247 C   0  0  0  0  0  0  0  0  0  0  0  0
   -1.7968   -0.5755    0.5240 C   0  0  0  0  0  0  0  0  0  0  0  0
    3.0906    1.2253    1.9381 H   0  0  0  0  0  0  0  0  0  0  0  0
    0.7420   -1.7880   -0.1024 H   0  0  0  0  0  0  0  0  0  0  0  0
    1.0247    0.8329   -1.7189 H   0  0  0  0  0  0  0  0  0  0  0  0
    1.1735   -0.9464   -2.3073 H   0  0  0  0  0  0  0  0  0  0  0  0
   -0.7081    1.2057    1.4317 H   0  0  0  0  0  0  0  0  0  0  0  0
   -1.8885    1.6550    0.0915 H   0  0  0  0  0  0  0  0  0  0  0  0
   -2.8260   -0.6473    0.1058 H   0  0  0  0  0  0  0  0  0  0  0  0
   -1.6078   -1.2104    1.4121 H   0  0  0  0  0  0  0  0  0  0  0  0
  1  2  3  0
  2  3  1  0
  3  4  1  0
  4  5  1  0
  5  6  1  0
  6  7  1  0
  7  8  1  0
  6  3  1  0
  8  6  1  0
  1  9  1  0
  3 10  1  0
  4 11  1  0
  4 12  1  0
  7 13  1  0
  7 14  1  0
  8 15  1  0
  8 16  1  0
M  END
