
     RDKit          3D

 25 24  0  0  0  0  0  0  0  0999 V2000
    3.8217   -0.9066    1.3166 C   0  0  0  0  0  0  0  0  0  0  0  0
    2.9158   -0.8245    0.6685 C   0  0  0  0  0  0  0  0  0  0  0  0
    1.6986   -0.7066   -0.2221 C   0  0  0  0  0  0  0  0  0  0  0  0
    0.6960    0.1949    0.4547 C   0  0  0  0  0  0  0  0  0  0  0  0
   -0.6449    0.0802   -0.0365 C   0  0  0  0  0  0  0  0  0  0  0  0
   -1.6533    1.0580    0.5865 C   0  0  0  0  0  0  0  0  0  0  0  0
   -1.7227    1.0015    2.0649 C   0  0  0  0  0  0  0  0  0  0  0  0
   -0.9172    0.1505   -1.5006 C   0  0  0  0  0  0  0  0  0  0  0  0
   -0.2927   -0.8839   -2.3635 C   0  0  0  0  0  0  0  0  0  0  0  0
    4.7848   -0.9883    2.0267 H   0  0  0  0  0  0  0  0  0  0  0  0
    2.1459   -0.0630   -1.0849 H   0  0  0  0  0  0  0  0  0  0  0  0
    1.4180   -1.6358   -0.5885 H   0  0  0  0  0  0  0  0  0  0  0  0
    1.0791    1.2654    0.2696 H   0  0  0  0  0  0  0  0  0  0  0  0
    0.7796    0.0306    1.5588 H   0  0  0  0  0  0  0  0  0  0  0  0
   -1.0462   -0.9644    0.2784 H   0  0  0  0  0  0  0  0  0  0  0  0
   -2.6452    0.6220    0.2292 H   0  0  0  0  0  0  0  0  0  0  0  0
   -1.5769    2.0509    0.1873 H   0  0  0  0  0  0  0  0  0  0  0  0
   -2.7496    1.1946    2.4053 H   0  0  0  0  0  0  0  0  0  0  0  0
   -1.3853    0.0192    2.4953 H   0  0  0  0  0  0  0  0  0  0  0  0
   -1.1488    1.8526    2.5495 H   0  0  0  0  0  0  0  0  0  0  0  0
   -2.0527   -0.0908   -1.5985 H   0  0  0  0  0  0  0  0  0  0  0  0
   -0.8879    1.1857   -1.9042 H   0  0  0  0  0  0  0  0  0  0  0  0
   -0.9751   -1.0759   -3.2755 H   0  0  0  0  0  0  0  0  0  0  0  0
   -0.3622   -1.8745   -1.8439 H   0  0  0  0  0  0  0  0  0  0  0  0
    0.7212   -0.6919   -2.6730 H   0  0  0  0  0  0  0  0  0  0  0  0
  1  2  3  0
  2  3  1  0
  3  4  1  0
  4  5  1  0
  5  6  1  0
  6  7  1  0
  5  8  1  0
  8  9  1  0
  1 10  1  0
  3 11  1  0
  3 12  1  0
  4 13  1  0
  4 14  1  0
  5 15  1  0
  6 16  1  0
  6 17  1  0
  7 18  1  0
  7 19  1  0
  7 20  1  0
  8 21  1  0
  8 22  1  0
  9 23  1  0
  9 24  1  0
  9 25  1  0
M  END
