
     RDKit          3D

 21 21  0  0  0  0  0  0  0  0999 V2000
    3.3589    1.7423   -0.2845 C   0  0  0  0  0  0  0  0  0  0  0  0
    2.6941    0.7160   -0.2384 C   0  0  0  0  0  0  0  0  0  0  0  0
    1.9061   -0.5161   -0.1593 C   0  0  0  0  0  0  0  0  0  0  0  0
    0.4712   -0.1740   -0.4933 C   0  0  0  0  0  0  0  0  0  0  0  0
   -0.1546    0.8412    0.4387 C   0  0  0  0  0  0  0  0  0  0  0  0
   -1.4325    0.0268    0.3721 C   0  0  0  0  0  0  0  0  0  0  0  0
   -2.3550    0.4385   -0.7665 C   0  0  0  0  0  0  0  0  0  0  0  0
   -0.5533   -1.1739   -0.0025 C   0  0  0  0  0  0  0  0  0  0  0  0
   -1.1601   -1.9353   -0.9913 O   0  0  0  0  0  0  0  0  0  0  0  0
    3.9472    2.6229   -0.3171 H   0  0  0  0  0  0  0  0  0  0  0  0
    2.3146   -1.2736   -0.8561 H   0  0  0  0  0  0  0  0  0  0  0  0
    1.9097   -0.9326    0.8757 H   0  0  0  0  0  0  0  0  0  0  0  0
    0.3159    0.0848   -1.5497 H   0  0  0  0  0  0  0  0  0  0  0  0
   -0.2230    1.8514   -0.0014 H   0  0  0  0  0  0  0  0  0  0  0  0
    0.2704    0.7839    1.4647 H   0  0  0  0  0  0  0  0  0  0  0  0
   -1.9746   -0.1001    1.3059 H   0  0  0  0  0  0  0  0  0  0  0  0
   -2.8173   -0.4974   -1.1488 H   0  0  0  0  0  0  0  0  0  0  0  0
   -3.1531    1.0624   -0.3405 H   0  0  0  0  0  0  0  0  0  0  0  0
   -1.8127    1.0046   -1.5469 H   0  0  0  0  0  0  0  0  0  0  0  0
   -0.2296   -1.7419    0.8923 H   0  0  0  0  0  0  0  0  0  0  0  0
   -1.3224   -2.8300   -0.5980 H   0  0  0  0  0  0  0  0  0  0  0  0
  1  2  3  0
  2  3  1  0
  3  4  1  0
  4  5  1  0
  5  6  1  0
  6  7  1  0
  6  8  1  0
  8  9  1  0
  8  4  1  0
  1 10  1  0
  3 11  1  0
  3 12  1  0
  4 13  1  0
  5 14  1  0
  5 15  1  0
  6 16  1  0
  7 17  1  0
  7 18  1  0
  7 19  1  0
  8 20  1  0
  9 21  1  0
M  END
