
     RDKit          3D

 12 12  0  0  0  0  0  0  0  0999 V2000
    2.0756   -0.8949    1.3189 C   0  0  0  0  0  0  0  0  0  0  0  0
    1.2467   -0.4174    0.5649 C   0  0  0  0  0  0  0  0  0  0  0  0
    0.2439    0.1579   -0.3143 C   0  0  0  0  0  0  0  0  0  0  0  0
    0.7538    0.7921   -1.4304 O   0  0  0  0  0  0  0  0  0  0  0  0
   -1.1267   -0.4857   -0.3734 C   0  0  0  0  0  0  0  0  0  0  0  0
   -0.9339    0.8051    0.3171 C   0  0  0  0  0  0  0  0  0  0  0  0
    2.7946   -1.3011    1.9918 H   0  0  0  0  0  0  0  0  0  0  0  0
    0.0467    0.7120   -2.1479 H   0  0  0  0  0  0  0  0  0  0  0  0
   -1.2156   -1.4297    0.2186 H   0  0  0  0  0  0  0  0  0  0  0  0
   -1.5699   -0.5038   -1.3744 H   0  0  0  0  0  0  0  0  0  0  0  0
   -0.9253    0.8737    1.4241 H   0  0  0  0  0  0  0  0  0  0  0  0
   -1.3899    1.6919   -0.1950 H   0  0  0  0  0  0  0  0  0  0  0  0
  1  2  3  0
  2  3  1  0
  3  4  1  0
  3  5  1  0
  5  6  1  0
  6  3  1  0
  1  7  1  0
  4  8  1  0
  5  9  1  0
  5 10  1  0
  6 11  1  0
  6 12  1  0
M  END
