
     RDKit          3D

 23 23  0  0  0  0  0  0  0  0999 V2000
   -2.5574    1.6981   -0.9936 C   0  0  0  0  0  0  0  0  0  0  0  0
   -1.8753    0.8903   -0.5674 C   0  0  0  0  0  0  0  0  0  0  0  0
   -1.0683   -0.1008   -0.0483 C   0  0  0  0  0  0  0  0  0  0  0  0
   -1.2255   -1.4621   -0.5443 C   0  0  0  0  0  0  0  0  0  0  0  0
   -1.4541   -0.1600    1.5315 C   0  0  0  0  0  0  0  0  0  0  0  0
    0.3913    0.4023    0.0504 C   0  0  0  0  0  0  0  0  0  0  0  0
    1.1480    0.7496   -1.1753 C   0  0  0  0  0  0  0  0  0  0  0  0
    1.5894   -0.3770   -0.2170 C   0  0  0  0  0  0  0  0  0  0  0  0
    2.8344   -0.0945    0.5888 C   0  0  0  0  0  0  0  0  0  0  0  0
   -3.3284    2.6374   -1.4733 H   0  0  0  0  0  0  0  0  0  0  0  0
   -1.1997   -2.1911    0.3763 H   0  0  0  0  0  0  0  0  0  0  0  0
   -0.2636   -1.7157   -1.1184 H   0  0  0  0  0  0  0  0  0  0  0  0
   -2.0588   -1.7669   -1.1876 H   0  0  0  0  0  0  0  0  0  0  0  0
   -1.1175   -1.1106    1.9283 H   0  0  0  0  0  0  0  0  0  0  0  0
   -1.0523    0.7626    1.9543 H   0  0  0  0  0  0  0  0  0  0  0  0
   -2.5802   -0.0452    1.5209 H   0  0  0  0  0  0  0  0  0  0  0  0
    0.5161    1.1937    0.8600 H   0  0  0  0  0  0  0  0  0  0  0  0
    0.6089    0.4272   -2.1114 H   0  0  0  0  0  0  0  0  0  0  0  0
    1.8255    1.5804   -1.2956 H   0  0  0  0  0  0  0  0  0  0  0  0
    1.4878   -1.4096   -0.5654 H   0  0  0  0  0  0  0  0  0  0  0  0
    2.7630    0.9806    0.9382 H   0  0  0  0  0  0  0  0  0  0  0  0
    2.8503   -0.6966    1.5222 H   0  0  0  0  0  0  0  0  0  0  0  0
    3.7666   -0.1921    0.0268 H   0  0  0  0  0  0  0  0  0  0  0  0
  1  2  3  0
  2  3  1  0
  3  4  1  0
  3  5  1  0
  3  6  1  0
  6  7  1  0
  7  8  1  0
  8  9  1  0
  8  6  1  0
  1 10  1  0
  4 11  1  0
  4 12  1  0
  4 13  1  0
  5 14  1  0
  5 15  1  0
  5 16  1  0
  6 17  1  0
  7 18  1  0
  7 19  1  0
  8 20  1  0
  9 21  1  0
  9 22  1  0
  9 23  1  0
M  END
