
     RDKit          3D

 15 14  0  0  0  0  0  0  0  0999 V2000
    3.8135   -0.2261    0.6360 C   0  0  0  0  0  0  0  0  0  0  0  0
    2.7859   -0.8550    0.2652 C   0  0  0  0  0  0  0  0  0  0  0  0
    1.6816   -1.5543   -0.1498 C   0  0  0  0  0  0  0  0  0  0  0  0
    0.5007   -0.5631   -0.2441 C   0  0  0  0  0  0  0  0  0  0  0  0
   -0.4778    0.2368   -0.3267 C   0  0  0  0  0  0  0  0  0  0  0  0
   -1.5883    1.1588   -0.4430 C   0  0  0  0  0  0  0  0  0  0  0  0
   -2.4813    0.4759   -1.4257 O   0  0  0  0  0  0  0  0  0  0  0  0
   -2.3881    1.2251    0.7722 C   0  0  0  0  0  0  0  0  0  0  0  0
   -3.6488    0.9412    0.5586 O   0  0  0  0  0  0  0  0  0  0  0  0
    4.7897    0.3926    1.0023 H   0  0  0  0  0  0  0  0  0  0  0  0
    1.7990   -2.0243   -1.1159 H   0  0  0  0  0  0  0  0  0  0  0  0
    1.3280   -2.2112    0.7385 H   0  0  0  0  0  0  0  0  0  0  0  0
   -1.3668    2.0758   -0.9446 H   0  0  0  0  0  0  0  0  0  0  0  0
   -2.4810   -0.5093   -1.1201 H   0  0  0  0  0  0  0  0  0  0  0  0
   -2.2661    1.4373    1.7971 H   0  0  0  0  0  0  0  0  0  0  0  0
  1  2  3  0
  2  3  1  0
  3  4  1  0
  4  5  3  0
  5  6  1  0
  6  7  1  0
  6  8  1  0
  8  9  2  0
  1 10  1  0
  3 11  1  0
  3 12  1  0
  6 13  1  0
  7 14  1  0
  8 15  1  0
M  END
