
     RDKit          3D

 18 17  0  0  0  0  0  0  0  0999 V2000
    2.0391    2.1145   -0.1153 C   0  0  0  0  0  0  0  0  0  0  0  0
    1.3944    1.0957   -0.2075 C   0  0  0  0  0  0  0  0  0  0  0  0
    0.6122   -0.1526   -0.3451 C   0  0  0  0  0  0  0  0  0  0  0  0
    1.3757   -1.2338    0.3431 C   0  0  0  0  0  0  0  0  0  0  0  0
   -0.7345    0.1184    0.2745 C   0  0  0  0  0  0  0  0  0  0  0  0
   -1.6637   -1.0511    0.2221 C   0  0  0  0  0  0  0  0  0  0  0  0
   -1.3536    1.2441   -0.4835 C   0  0  0  0  0  0  0  0  0  0  0  0
   -0.8911    1.6453   -1.5402 O   0  0  0  0  0  0  0  0  0  0  0  0
    2.6026    3.0165   -0.0508 H   0  0  0  0  0  0  0  0  0  0  0  0
    0.5174   -0.3672   -1.4141 H   0  0  0  0  0  0  0  0  0  0  0  0
    0.9720   -1.5137    1.3333 H   0  0  0  0  0  0  0  0  0  0  0  0
    1.3263   -2.1451   -0.2893 H   0  0  0  0  0  0  0  0  0  0  0  0
    2.4698   -0.9855    0.4101 H   0  0  0  0  0  0  0  0  0  0  0  0
   -0.5950    0.4592    1.3250 H   0  0  0  0  0  0  0  0  0  0  0  0
   -2.0530   -1.1932   -0.8071 H   0  0  0  0  0  0  0  0  0  0  0  0
   -1.2332   -1.9866    0.6067 H   0  0  0  0  0  0  0  0  0  0  0  0
   -2.5402   -0.8154    0.8569 H   0  0  0  0  0  0  0  0  0  0  0  0
   -2.2451    1.7505   -0.1188 H   0  0  0  0  0  0  0  0  0  0  0  0
  1  2  3  0
  2  3  1  0
  3  4  1  0
  3  5  1  0
  5  6  1  0
  5  7  1  0
  7  8  2  0
  1  9  1  0
  3 10  1  0
  4 11  1  0
  4 12  1  0
  4 13  1  0
  5 14  1  0
  6 15  1  0
  6 16  1  0
  6 17  1  0
  7 18  1  0
M  END
