
     RDKit          3D

 21 21  0  0  0  0  0  0  0  0999 V2000
    3.1109    0.3625    0.7143 C   0  0  0  0  0  0  0  0  0  0  0  0
    1.9998    0.5751    0.3385 C   0  0  0  0  0  0  0  0  0  0  0  0
    0.6554    0.8175   -0.1260 C   0  0  0  0  0  0  0  0  0  0  0  0
   -0.3195    1.3356    0.9154 C   0  0  0  0  0  0  0  0  0  0  0  0
   -1.3797    0.5474    0.1321 C   0  0  0  0  0  0  0  0  0  0  0  0
   -1.7695    1.2233   -1.0134 O   0  0  0  0  0  0  0  0  0  0  0  0
   -0.2322   -0.4049   -0.2258 C   0  0  0  0  0  0  0  0  0  0  0  0
   -0.0490   -1.4179    0.8732 C   0  0  0  0  0  0  0  0  0  0  0  0
   -0.2728   -0.9482   -1.6118 C   0  0  0  0  0  0  0  0  0  0  0  0
    4.1094    0.1731    1.0421 H   0  0  0  0  0  0  0  0  0  0  0  0
    0.5671    1.4127   -1.0585 H   0  0  0  0  0  0  0  0  0  0  0  0
   -0.1586    0.9598    1.9323 H   0  0  0  0  0  0  0  0  0  0  0  0
   -0.5131    2.4170    0.8900 H   0  0  0  0  0  0  0  0  0  0  0  0
   -2.1529    0.0848    0.7344 H   0  0  0  0  0  0  0  0  0  0  0  0
   -2.7481    1.2307   -1.0336 H   0  0  0  0  0  0  0  0  0  0  0  0
   -0.5302   -1.0708    1.8273 H   0  0  0  0  0  0  0  0  0  0  0  0
    0.9950   -1.6706    1.0816 H   0  0  0  0  0  0  0  0  0  0  0  0
   -0.5664   -2.3559    0.5447 H   0  0  0  0  0  0  0  0  0  0  0  0
   -1.2924   -1.0656   -1.9981 H   0  0  0  0  0  0  0  0  0  0  0  0
    0.2580   -0.2857   -2.3530 H   0  0  0  0  0  0  0  0  0  0  0  0
    0.2888   -1.9199   -1.6060 H   0  0  0  0  0  0  0  0  0  0  0  0
  1  2  3  0
  2  3  1  0
  3  4  1  0
  4  5  1  0
  5  6  1  0
  5  7  1  0
  7  8  1  0
  7  9  1  0
  7  3  1  0
  1 10  1  0
  3 11  1  0
  4 12  1  0
  4 13  1  0
  5 14  1  0
  6 15  1  0
  8 16  1  0
  8 17  1  0
  8 18  1  0
  9 19  1  0
  9 20  1  0
  9 21  1  0
M  END
