
     RDKit          3D

 17 16  0  0  0  0  0  0  0  0999 V2000
   -3.8126    1.3037   -1.4374 C   0  0  0  0  0  0  0  0  0  0  0  0
   -2.7150    1.5972   -1.1450 C   0  0  0  0  0  0  0  0  0  0  0  0
   -1.3214    1.9574   -0.7506 C   0  0  0  0  0  0  0  0  0  0  0  0
   -0.7596    0.8237   -0.1736 O   0  0  0  0  0  0  0  0  0  0  0  0
    0.5352    0.9864    0.2449 C   0  0  0  0  0  0  0  0  0  0  0  0
    0.9652   -0.2865    0.8214 C   0  0  0  0  0  0  0  0  0  0  0  0
    1.3148   -1.3659    1.2991 C   0  0  0  0  0  0  0  0  0  0  0  0
    1.7203   -2.6599    1.8471 C   0  0  0  0  0  0  0  0  0  0  0  0
    2.8978   -3.1230    1.2443 O   0  0  0  0  0  0  0  0  0  0  0  0
   -4.8422    1.0458   -1.7202 H   0  0  0  0  0  0  0  0  0  0  0  0
   -1.3172    2.8294   -0.0874 H   0  0  0  0  0  0  0  0  0  0  0  0
   -0.7452    2.1388   -1.7040 H   0  0  0  0  0  0  0  0  0  0  0  0
    1.1445    1.2480   -0.6645 H   0  0  0  0  0  0  0  0  0  0  0  0
    0.6983    1.7966    0.9734 H   0  0  0  0  0  0  0  0  0  0  0  0
    1.8919   -2.5188    2.9249 H   0  0  0  0  0  0  0  0  0  0  0  0
    0.9369   -3.4481    1.6476 H   0  0  0  0  0  0  0  0  0  0  0  0
    3.4081   -2.3246    0.9591 H   0  0  0  0  0  0  0  0  0  0  0  0
  1  2  3  0
  2  3  1  0
  3  4  1  0
  4  5  1  0
  5  6  1  0
  6  7  3  0
  7  8  1  0
  8  9  1  0
  1 10  1  0
  3 11  1  0
  3 12  1  0
  5 13  1  0
  5 14  1  0
  8 15  1  0
  8 16  1  0
  9 17  1  0
M  END
