
     RDKit          3D

 17 17  0  0  0  0  0  0  0  0999 V2000
   -0.6030    1.1466    2.4122 C   0  0  0  0  0  0  0  0  0  0  0  0
   -0.3069    0.6040    1.1610 C   0  0  0  0  0  0  0  0  0  0  0  0
   -0.0132    0.1117    0.0119 C   0  0  0  0  0  0  0  0  0  0  0  0
    1.0410    0.6238   -0.8341 O   0  0  0  0  0  0  0  0  0  0  0  0
    2.2326    0.6472   -0.1650 C   0  0  0  0  0  0  0  0  0  0  0  0
   -1.2889   -0.0404   -0.9328 C   0  0  0  0  0  0  0  0  0  0  0  0
   -1.2495    0.1698   -2.2456 O   0  0  0  0  0  0  0  0  0  0  0  0
   -0.5442   -1.2675   -0.4048 C   0  0  0  0  0  0  0  0  0  0  0  0
   -1.2628   -1.9800    0.5599 O   0  0  0  0  0  0  0  0  0  0  0  0
   -0.8279    1.5915    3.4103 H   0  0  0  0  0  0  0  0  0  0  0  0
    3.0193    1.0027   -0.9189 H   0  0  0  0  0  0  0  0  0  0  0  0
    2.2385    1.5055    0.5883 H   0  0  0  0  0  0  0  0  0  0  0  0
    2.5972   -0.2881    0.2732 H   0  0  0  0  0  0  0  0  0  0  0  0
   -2.2492    0.2886   -0.4787 H   0  0  0  0  0  0  0  0  0  0  0  0
   -2.1684    0.0298   -2.6581 H   0  0  0  0  0  0  0  0  0  0  0  0
    0.0332   -1.8453   -1.1226 H   0  0  0  0  0  0  0  0  0  0  0  0
   -0.6479   -2.2997    1.3438 H   0  0  0  0  0  0  0  0  0  0  0  0
  1  2  3  0
  2  3  1  0
  3  4  1  0
  4  5  1  0
  3  6  1  0
  6  7  1  0
  6  8  1  0
  8  9  1  0
  8  3  1  0
  1 10  1  0
  5 11  1  0
  5 12  1  0
  5 13  1  0
  6 14  1  0
  7 15  1  0
  8 16  1  0
  9 17  1  0
M  END
