
     RDKit          3D

 20 19  0  0  0  0  0  0  0  0999 V2000
   -4.3570    0.4603    0.5751 C   0  0  0  0  0  0  0  0  0  0  0  0
   -3.1823    0.6785    0.4286 C   0  0  0  0  0  0  0  0  0  0  0  0
   -1.7559    0.9592    0.2708 C   0  0  0  0  0  0  0  0  0  0  0  0
   -0.9420   -0.3176    0.3396 C   0  0  0  0  0  0  0  0  0  0  0  0
    0.5235    0.1081    0.1621 C   0  0  0  0  0  0  0  0  0  0  0  0
    1.4377   -1.0760    0.2117 C   0  0  0  0  0  0  0  0  0  0  0  0
    2.7599   -0.7027    0.0599 O   0  0  0  0  0  0  0  0  0  0  0  0
    3.0529   -0.0681   -1.1217 C   0  0  0  0  0  0  0  0  0  0  0  0
   -5.4036    0.2549    0.6904 H   0  0  0  0  0  0  0  0  0  0  0  0
   -1.5403    1.5037   -0.6643 H   0  0  0  0  0  0  0  0  0  0  0  0
   -1.4284    1.5799    1.1496 H   0  0  0  0  0  0  0  0  0  0  0  0
   -1.2309   -0.9537   -0.5116 H   0  0  0  0  0  0  0  0  0  0  0  0
   -1.1171   -0.7661    1.3231 H   0  0  0  0  0  0  0  0  0  0  0  0
    0.7781    0.8986    0.8685 H   0  0  0  0  0  0  0  0  0  0  0  0
    0.5446    0.5445   -0.8650 H   0  0  0  0  0  0  0  0  0  0  0  0
    1.1799   -1.7874   -0.6195 H   0  0  0  0  0  0  0  0  0  0  0  0
    1.3621   -1.6474    1.1511 H   0  0  0  0  0  0  0  0  0  0  0  0
    2.4927    0.8760   -1.2724 H   0  0  0  0  0  0  0  0  0  0  0  0
    2.7064   -0.7307   -1.9705 H   0  0  0  0  0  0  0  0  0  0  0  0
    4.1196    0.1861   -1.2280 H   0  0  0  0  0  0  0  0  0  0  0  0
  1  2  3  0
  2  3  1  0
  3  4  1  0
  4  5  1  0
  5  6  1  0
  6  7  1  0
  7  8  1  0
  1  9  1  0
  3 10  1  0
  3 11  1  0
  4 12  1  0
  4 13  1  0
  5 14  1  0
  5 15  1  0
  6 16  1  0
  6 17  1  0
  8 18  1  0
  8 19  1  0
  8 20  1  0
M  END
