
     RDKit          3D

 15 15  0  0  0  0  0  0  0  0999 V2000
    1.7353    1.9069    0.7766 C   0  0  0  0  0  0  0  0  0  0  0  0
    1.2516    0.9076    0.4747 C   0  0  0  0  0  0  0  0  0  0  0  0
    0.6263   -0.4210    0.0626 C   0  0  0  0  0  0  0  0  0  0  0  0
   -0.3696   -0.2284   -1.0222 C   0  0  0  0  0  0  0  0  0  0  0  0
   -0.1726   -0.5377   -2.1535 O   0  0  0  0  0  0  0  0  0  0  0  0
   -1.6599    0.3819   -0.6400 C   0  0  0  0  0  0  0  0  0  0  0  0
   -2.0826   -0.0710    0.6205 O   0  0  0  0  0  0  0  0  0  0  0  0
    1.0067   -1.6801    0.5922 C   0  0  0  0  0  0  0  0  0  0  0  0
    1.8035   -1.1667   -0.5853 O   0  0  0  0  0  0  0  0  0  0  0  0
    2.2114    2.8861    1.0524 H   0  0  0  0  0  0  0  0  0  0  0  0
   -1.4900    1.5106   -0.5285 H   0  0  0  0  0  0  0  0  0  0  0  0
   -2.4291    0.2726   -1.4278 H   0  0  0  0  0  0  0  0  0  0  0  0
   -2.6108    0.6201    1.0790 H   0  0  0  0  0  0  0  0  0  0  0  0
    1.6839   -1.7798    1.4900 H   0  0  0  0  0  0  0  0  0  0  0  0
    0.4958   -2.6009    0.2091 H   0  0  0  0  0  0  0  0  0  0  0  0
  1  2  3  0
  2  3  1  0
  3  4  1  0
  4  5  2  0
  4  6  1  0
  6  7  1  0
  3  8  1  0
  8  9  1  0
  9  3  1  0
  1 10  1  0
  6 11  1  0
  6 12  1  0
  7 13  1  0
  8 14  1  0
  8 15  1  0
M  END
