
     RDKit          3D

 23 22  0  0  0  0  0  0  0  0999 V2000
   -0.0786    2.4522    0.6352 C   0  0  0  0  0  0  0  0  0  0  0  0
   -0.4960    1.3453    0.2898 C   0  0  0  0  0  0  0  0  0  0  0  0
   -1.0118    0.0487   -0.1216 C   0  0  0  0  0  0  0  0  0  0  0  0
   -2.2514   -0.1950    0.7645 C   0  0  0  0  0  0  0  0  0  0  0  0
   -1.4937    0.0936   -1.5670 C   0  0  0  0  0  0  0  0  0  0  0  0
   -0.0591   -1.0511    0.1276 C   0  0  0  0  0  0  0  0  0  0  0  0
    1.2397   -1.0444   -0.5642 C   0  0  0  0  0  0  0  0  0  0  0  0
    2.1571    0.1027   -0.3680 C   0  0  0  0  0  0  0  0  0  0  0  0
    3.3392   -0.2116   -1.1146 O   0  0  0  0  0  0  0  0  0  0  0  0
    0.2723    3.4059    0.9319 H   0  0  0  0  0  0  0  0  0  0  0  0
   -3.0270    0.5320    0.4797 H   0  0  0  0  0  0  0  0  0  0  0  0
   -2.5584   -1.2449    0.7425 H   0  0  0  0  0  0  0  0  0  0  0  0
   -1.9291    0.0183    1.8198 H   0  0  0  0  0  0  0  0  0  0  0  0
   -2.3086    0.8442   -1.6126 H   0  0  0  0  0  0  0  0  0  0  0  0
   -1.8770   -0.9137   -1.8299 H   0  0  0  0  0  0  0  0  0  0  0  0
   -0.6854    0.3563   -2.2610 H   0  0  0  0  0  0  0  0  0  0  0  0
    0.1637   -1.0379    1.2394 H   0  0  0  0  0  0  0  0  0  0  0  0
   -0.6307   -2.0214   -0.0724 H   0  0  0  0  0  0  0  0  0  0  0  0
    1.8218   -1.9694   -0.2817 H   0  0  0  0  0  0  0  0  0  0  0  0
    1.1108   -1.1555   -1.6807 H   0  0  0  0  0  0  0  0  0  0  0  0
    2.4918    0.3085    0.6439 H   0  0  0  0  0  0  0  0  0  0  0  0
    1.7188    1.0168   -0.8598 H   0  0  0  0  0  0  0  0  0  0  0  0
    4.0917    0.3206   -0.7717 H   0  0  0  0  0  0  0  0  0  0  0  0
  1  2  3  0
  2  3  1  0
  3  4  1  0
  3  5  1  0
  3  6  1  0
  6  7  1  0
  7  8  1  0
  8  9  1  0
  1 10  1  0
  4 11  1  0
  4 12  1  0
  4 13  1  0
  5 14  1  0
  5 15  1  0
  5 16  1  0
  6 17  1  0
  6 18  1  0
  7 19  1  0
  7 20  1  0
  8 21  1  0
  8 22  1  0
  9 23  1  0
M  END
