
     RDKit          3D

 15 16  0  0  0  0  0  0  0  0999 V2000
    2.8178   -1.5726   -0.4798 C   0  0  0  0  0  0  0  0  0  0  0  0
    1.8897   -0.8009   -0.4924 C   0  0  0  0  0  0  0  0  0  0  0  0
    0.7438    0.1233   -0.5210 C   0  0  0  0  0  0  0  0  0  0  0  0
   -0.1368   -0.2586   -1.5338 O   0  0  0  0  0  0  0  0  0  0  0  0
   -1.4031    0.1729   -1.1662 C   0  0  0  0  0  0  0  0  0  0  0  0
   -2.3313    0.5580   -1.9416 O   0  0  0  0  0  0  0  0  0  0  0  0
   -1.4795    0.1039    0.2943 C   0  0  0  0  0  0  0  0  0  0  0  0
   -0.8462    1.0986    1.1821 C   0  0  0  0  0  0  0  0  0  0  0  0
   -0.0393   -0.0651    0.7334 C   0  0  0  0  0  0  0  0  0  0  0  0
    3.6346   -2.2756   -0.4645 H   0  0  0  0  0  0  0  0  0  0  0  0
    1.1128    1.1612   -0.6181 H   0  0  0  0  0  0  0  0  0  0  0  0
   -2.2426   -0.6054    0.6775 H   0  0  0  0  0  0  0  0  0  0  0  0
   -0.6244    2.0808    0.7149 H   0  0  0  0  0  0  0  0  0  0  0  0
   -1.2320    1.1858    2.2134 H   0  0  0  0  0  0  0  0  0  0  0  0
    0.1366   -0.9064    1.4020 H   0  0  0  0  0  0  0  0  0  0  0  0
  1  2  3  0
  2  3  1  0
  3  4  1  0
  4  5  1  0
  5  6  2  0
  5  7  1  0
  7  8  1  0
  8  9  1  0
  9  3  1  0
  9  7  1  0
  1 10  1  0
  3 11  1  0
  7 12  1  0
  8 13  1  0
  8 14  1  0
  9 15  1  0
M  END
