
     RDKit          3D

 15 15  0  0  0  0  0  0  0  0999 V2000
    3.1025   -0.3292    1.5741 C   0  0  0  0  0  0  0  0  0  0  0  0
    1.9756   -0.2090    1.1455 C   0  0  0  0  0  0  0  0  0  0  0  0
    0.6289   -0.0738    0.6269 C   0  0  0  0  0  0  0  0  0  0  0  0
   -0.4714   -0.4378    1.2228 C   0  0  0  0  0  0  0  0  0  0  0  0
   -1.5993   -0.1270    0.3639 C   0  0  0  0  0  0  0  0  0  0  0  0
   -2.8197   -0.4125    0.6256 O   0  0  0  0  0  0  0  0  0  0  0  0
   -1.1288    0.5657   -0.8524 C   0  0  0  0  0  0  0  0  0  0  0  0
   -1.5491   -0.1495   -1.9725 O   0  0  0  0  0  0  0  0  0  0  0  0
    0.3529    0.5159   -0.6926 C   0  0  0  0  0  0  0  0  0  0  0  0
    4.1009   -0.4206    1.9415 H   0  0  0  0  0  0  0  0  0  0  0  0
   -0.5690   -0.9131    2.2268 H   0  0  0  0  0  0  0  0  0  0  0  0
   -1.5350    1.5973   -0.9555 H   0  0  0  0  0  0  0  0  0  0  0  0
   -2.0133   -0.9873   -1.7289 H   0  0  0  0  0  0  0  0  0  0  0  0
    0.7771   -0.1653   -1.4789 H   0  0  0  0  0  0  0  0  0  0  0  0
    0.7475    1.5461   -0.7915 H   0  0  0  0  0  0  0  0  0  0  0  0
  1  2  3  0
  2  3  1  0
  3  4  2  0
  4  5  1  0
  5  6  2  0
  5  7  1  0
  7  8  1  0
  7  9  1  0
  9  3  1  0
  1 10  1  0
  4 11  1  0
  7 12  1  0
  8 13  1  0
  9 14  1  0
  9 15  1  0
M  END
