
     RDKit          3D

 17 19  0  0  0  0  0  0  0  0999 V2000
    2.9475   -0.4509   -0.1883 C   0  0  0  0  0  0  0  0  0  0  0  0
    1.8243   -0.0499   -0.0875 C   0  0  0  0  0  0  0  0  0  0  0  0
    0.4850    0.4487    0.0243 C   0  0  0  0  0  0  0  0  0  0  0  0
    0.1798    1.9171   -0.1470 C   0  0  0  0  0  0  0  0  0  0  0  0
   -0.0784    1.0407   -1.2995 C   0  0  0  0  0  0  0  0  0  0  0  0
   -1.0172    0.0415   -1.2975 O   0  0  0  0  0  0  0  0  0  0  0  0
   -0.7085   -0.4180   -0.0581 C   0  0  0  0  0  0  0  0  0  0  0  0
   -1.6946   -0.5692    1.0310 C   0  0  0  0  0  0  0  0  0  0  0  0
   -0.8807   -1.7393    0.4617 C   0  0  0  0  0  0  0  0  0  0  0  0
    3.9647   -0.7961   -0.2875 H   0  0  0  0  0  0  0  0  0  0  0  0
    0.9788    2.6469   -0.2438 H   0  0  0  0  0  0  0  0  0  0  0  0
   -0.7198    2.2401    0.4376 H   0  0  0  0  0  0  0  0  0  0  0  0
    0.5928    1.0769   -2.1596 H   0  0  0  0  0  0  0  0  0  0  0  0
   -1.4432   -0.1953    2.0353 H   0  0  0  0  0  0  0  0  0  0  0  0
   -2.7632   -0.4925    0.7214 H   0  0  0  0  0  0  0  0  0  0  0  0
   -0.2151   -2.1962    1.1978 H   0  0  0  0  0  0  0  0  0  0  0  0
   -1.4522   -2.5044   -0.1404 H   0  0  0  0  0  0  0  0  0  0  0  0
  1  2  3  0
  2  3  1  0
  3  4  1  0
  4  5  1  0
  5  6  1  0
  6  7  1  0
  7  8  1  0
  8  9  1  0
  5  3  1  0
  9  7  1  0
  7  3  1  0
  1 10  1  0
  4 11  1  0
  4 12  1  0
  5 13  1  0
  8 14  1  0
  8 15  1  0
  9 16  1  0
  9 17  1  0
M  END
