
     RDKit          3D

 13 14  0  0  0  0  0  0  0  0999 V2000
    2.5689   -0.4919   -0.1850 C   0  0  0  0  0  0  0  0  0  0  0  0
    1.4289   -0.1703   -0.0032 C   0  0  0  0  0  0  0  0  0  0  0  0
    0.0587    0.1954    0.2296 C   0  0  0  0  0  0  0  0  0  0  0  0
   -0.5859    1.3245   -0.5177 C   0  0  0  0  0  0  0  0  0  0  0  0
   -1.5174    0.4275   -1.0179 O   0  0  0  0  0  0  0  0  0  0  0  0
   -1.0139   -0.7203   -0.3937 C   0  0  0  0  0  0  0  0  0  0  0  0
   -0.8367   -0.6269    1.0743 C   0  0  0  0  0  0  0  0  0  0  0  0
    3.5579   -0.7897   -0.3432 H   0  0  0  0  0  0  0  0  0  0  0  0
   -1.0588    2.0500    0.1556 H   0  0  0  0  0  0  0  0  0  0  0  0
    0.0473    1.8326   -1.2680 H   0  0  0  0  0  0  0  0  0  0  0  0
   -0.6438   -1.5575   -0.9916 H   0  0  0  0  0  0  0  0  0  0  0  0
   -1.6359   -0.0503    1.6086 H   0  0  0  0  0  0  0  0  0  0  0  0
   -0.3694   -1.4230    1.6522 H   0  0  0  0  0  0  0  0  0  0  0  0
  1  2  3  0
  2  3  1  0
  3  4  1  0
  4  5  1  0
  5  6  1  0
  6  7  1  0
  6  3  1  0
  7  3  1  0
  1  8  1  0
  4  9  1  0
  4 10  1  0
  6 11  1  0
  7 12  1  0
  7 13  1  0
M  END
