
     RDKit          3D

 15 14  0  0  0  0  0  0  0  0999 V2000
    2.6578   -0.8957   -0.7477 C   0  0  0  0  0  0  0  0  0  0  0  0
    1.5872   -0.5957   -0.2741 C   0  0  0  0  0  0  0  0  0  0  0  0
    0.2716   -0.2282    0.2948 C   0  0  0  0  0  0  0  0  0  0  0  0
   -0.7204   -1.2599   -0.1622 C   0  0  0  0  0  0  0  0  0  0  0  0
   -0.1323    1.1087   -0.2904 C   0  0  0  0  0  0  0  0  0  0  0  0
   -1.4355    1.5531    0.2159 C   0  0  0  0  0  0  0  0  0  0  0  0
   -1.5547    2.0067    1.3326 O   0  0  0  0  0  0  0  0  0  0  0  0
    3.5842   -1.1568   -1.1761 H   0  0  0  0  0  0  0  0  0  0  0  0
    0.3352   -0.1596    1.3920 H   0  0  0  0  0  0  0  0  0  0  0  0
   -0.4110   -2.2568    0.2663 H   0  0  0  0  0  0  0  0  0  0  0  0
   -0.6185   -1.3644   -1.2657 H   0  0  0  0  0  0  0  0  0  0  0  0
   -1.7494   -1.0095    0.0937 H   0  0  0  0  0  0  0  0  0  0  0  0
    0.6834    1.8209   -0.1365 H   0  0  0  0  0  0  0  0  0  0  0  0
   -0.1765    0.9564   -1.4037 H   0  0  0  0  0  0  0  0  0  0  0  0
   -2.3210    1.4808   -0.4028 H   0  0  0  0  0  0  0  0  0  0  0  0
  1  2  3  0
  2  3  1  0
  3  4  1  0
  3  5  1  0
  5  6  1  0
  6  7  2  0
  1  8  1  0
  3  9  1  0
  4 10  1  0
  4 11  1  0
  4 12  1  0
  5 13  1  0
  5 14  1  0
  6 15  1  0
M  END
