
     RDKit          3D

 15 15  0  0  0  0  0  0  0  0999 V2000
   -2.2460   -0.8297   -2.3788 C   0  0  0  0  0  0  0  0  0  0  0  0
   -1.5727   -0.6231   -1.3946 C   0  0  0  0  0  0  0  0  0  0  0  0
   -0.7462   -0.3952   -0.1990 C   0  0  0  0  0  0  0  0  0  0  0  0
    0.7140   -0.2436   -0.4073 C   0  0  0  0  0  0  0  0  0  0  0  0
    1.5964   -0.7577    0.6573 C   0  0  0  0  0  0  0  0  0  0  0  0
    2.3228   -1.1933    1.5156 C   0  0  0  0  0  0  0  0  0  0  0  0
   -0.0612    0.9814   -0.0885 C   0  0  0  0  0  0  0  0  0  0  0  0
    0.0042    1.5943    1.2538 C   0  0  0  0  0  0  0  0  0  0  0  0
    0.2459    0.9236    2.2371 O   0  0  0  0  0  0  0  0  0  0  0  0
   -2.8511   -1.0200   -3.2416 H   0  0  0  0  0  0  0  0  0  0  0  0
   -1.0625   -0.8391    0.7507 H   0  0  0  0  0  0  0  0  0  0  0  0
    1.1398   -0.3137   -1.4299 H   0  0  0  0  0  0  0  0  0  0  0  0
    2.9657   -1.5964    2.2781 H   0  0  0  0  0  0  0  0  0  0  0  0
   -0.2877    1.6622   -0.9397 H   0  0  0  0  0  0  0  0  0  0  0  0
   -0.1614    2.6503    1.3868 H   0  0  0  0  0  0  0  0  0  0  0  0
  1  2  3  0
  2  3  1  0
  3  4  1  0
  4  5  1  0
  5  6  3  0
  4  7  1  0
  7  8  1  0
  8  9  2  0
  7  3  1  0
  1 10  1  0
  3 11  1  0
  4 12  1  0
  6 13  1  0
  7 14  1  0
  8 15  1  0
M  END
