
     RDKit          3D

 17 17  0  0  0  0  0  0  0  0999 V2000
    4.4190    0.9393   -0.9970 C   0  0  0  0  0  0  0  0  0  0  0  0
    3.3552    0.4014   -0.8134 C   0  0  0  0  0  0  0  0  0  0  0  0
    2.0927   -0.2412   -0.5701 C   0  0  0  0  0  0  0  0  0  0  0  0
    1.0416   -0.7767   -0.3703 C   0  0  0  0  0  0  0  0  0  0  0  0
   -0.2582   -1.4677   -0.1245 C   0  0  0  0  0  0  0  0  0  0  0  0
   -0.6492   -1.5045    1.3054 C   0  0  0  0  0  0  0  0  0  0  0  0
   -1.2855   -0.5066    0.4226 C   0  0  0  0  0  0  0  0  0  0  0  0
   -0.9897    0.8307    0.5090 O   0  0  0  0  0  0  0  0  0  0  0  0
   -2.0534    1.6665    0.1624 C   0  0  0  0  0  0  0  0  0  0  0  0
    5.3456    1.4220   -1.1481 H   0  0  0  0  0  0  0  0  0  0  0  0
   -0.5342   -2.2788   -0.7863 H   0  0  0  0  0  0  0  0  0  0  0  0
   -1.2183   -2.3824    1.6918 H   0  0  0  0  0  0  0  0  0  0  0  0
    0.0583   -1.0874    2.0746 H   0  0  0  0  0  0  0  0  0  0  0  0
   -2.3469   -0.7015    0.0935 H   0  0  0  0  0  0  0  0  0  0  0  0
   -2.3929    1.4849   -0.8735 H   0  0  0  0  0  0  0  0  0  0  0  0
   -2.8918    1.4814    0.8597 H   0  0  0  0  0  0  0  0  0  0  0  0
   -1.6923    2.7207    0.2608 H   0  0  0  0  0  0  0  0  0  0  0  0
  1  2  3  0
  2  3  1  0
  3  4  3  0
  4  5  1  0
  5  6  1  0
  6  7  1  0
  7  8  1  0
  8  9  1  0
  7  5  1  0
  1 10  1  0
  5 11  1  0
  6 12  1  0
  6 13  1  0
  7 14  1  0
  9 15  1  0
  9 16  1  0
  9 17  1  0
M  END
