
     RDKit          3D

 19 19  0  0  0  0  0  0  0  0999 V2000
    2.4998    1.0463   -1.3017 C   0  0  0  0  0  0  0  0  0  0  0  0
    1.4974    0.7162   -1.0285 C   0  0  0  0  0  0  0  0  0  0  0  0
    0.2185    0.2795   -0.6581 C   0  0  0  0  0  0  0  0  0  0  0  0
   -0.5404   -0.5953   -1.6112 C   0  0  0  0  0  0  0  0  0  0  0  0
    0.6362   -0.6382    0.6951 C   0  0  0  0  0  0  0  0  0  0  0  0
   -0.8385   -0.5803    0.8936 C   0  0  0  0  0  0  0  0  0  0  0  0
   -1.2617   -0.5775    2.1735 O   0  0  0  0  0  0  0  0  0  0  0  0
   -0.7182    0.9045    0.3085 C   0  0  0  0  0  0  0  0  0  0  0  0
   -0.2442    1.7428    1.3127 O   0  0  0  0  0  0  0  0  0  0  0  0
    3.6483    1.4391   -1.5979 H   0  0  0  0  0  0  0  0  0  0  0  0
   -0.4248   -1.6761   -1.5278 H   0  0  0  0  0  0  0  0  0  0  0  0
   -0.1957   -0.1801   -2.6424 H   0  0  0  0  0  0  0  0  0  0  0  0
   -1.6393   -0.2593   -1.5717 H   0  0  0  0  0  0  0  0  0  0  0  0
    1.2146    0.1024    1.3495 H   0  0  0  0  0  0  0  0  0  0  0  0
    1.1805   -1.4403    0.3071 H   0  0  0  0  0  0  0  0  0  0  0  0
   -1.3834   -1.2381    0.1792 H   0  0  0  0  0  0  0  0  0  0  0  0
   -1.6055   -1.4941    2.4111 H   0  0  0  0  0  0  0  0  0  0  0  0
   -1.7618    1.1630    0.0716 H   0  0  0  0  0  0  0  0  0  0  0  0
   -0.2821    1.2853    2.2373 H   0  0  0  0  0  0  0  0  0  0  0  0
  1  2  3  0
  2  3  1  0
  3  4  1  0
  3  5  1  0
  5  6  1  0
  6  7  1  0
  6  8  1  0
  8  9  1  0
  8  3  1  0
  1 10  1  0
  4 11  1  0
  4 12  1  0
  4 13  1  0
  5 14  1  0
  5 15  1  0
  6 16  1  0
  7 17  1  0
  8 18  1  0
  9 19  1  0
M  END
