
     RDKit          3D

 15 14  0  0  0  0  0  0  0  0999 V2000
    2.4020    1.1060   -1.6121 C   0  0  0  0  0  0  0  0  0  0  0  0
    1.2592    0.9706   -1.1673 C   0  0  0  0  0  0  0  0  0  0  0  0
   -0.0567    0.7984   -0.6530 C   0  0  0  0  0  0  0  0  0  0  0  0
   -0.0997   -0.2762    0.4796 C   0  0  0  0  0  0  0  0  0  0  0  0
    0.7531    0.2019    1.5566 C   0  0  0  0  0  0  0  0  0  0  0  0
    0.2525    0.4640    2.6846 O   0  0  0  0  0  0  0  0  0  0  0  0
   -1.4156   -0.4883    0.8015 O   0  0  0  0  0  0  0  0  0  0  0  0
   -2.2664   -1.5176    0.6964 C   0  0  0  0  0  0  0  0  0  0  0  0
   -1.9034   -2.5960    0.2160 O   0  0  0  0  0  0  0  0  0  0  0  0
    3.4355    1.2259   -1.9937 H   0  0  0  0  0  0  0  0  0  0  0  0
   -0.3582    1.7980   -0.2252 H   0  0  0  0  0  0  0  0  0  0  0  0
   -0.8032    0.4858   -1.3949 H   0  0  0  0  0  0  0  0  0  0  0  0
    0.3105   -1.1856   -0.0720 H   0  0  0  0  0  0  0  0  0  0  0  0
    1.8090    0.3616    1.4916 H   0  0  0  0  0  0  0  0  0  0  0  0
   -3.3187   -1.3484    1.0657 H   0  0  0  0  0  0  0  0  0  0  0  0
  1  2  3  0
  2  3  1  0
  3  4  1  0
  4  5  1  0
  5  6  2  0
  4  7  1  0
  7  8  1  0
  8  9  2  0
  1 10  1  0
  3 11  1  0
  3 12  1  0
  4 13  1  0
  5 14  1  0
  8 15  1  0
M  END
