
     RDKit          3D

 20 19  0  0  0  0  0  0  0  0999 V2000
    3.4939    2.1469    0.2136 C   0  0  0  0  0  0  0  0  0  0  0  0
    2.1493    1.6220    0.0654 C   0  0  0  0  0  0  0  0  0  0  0  0
    1.0114    1.1914   -0.0417 C   0  0  0  0  0  0  0  0  0  0  0  0
    0.6815   -0.2477    0.2463 C   0  0  0  0  0  0  0  0  0  0  0  0
   -0.7450   -0.5238   -0.1765 C   0  0  0  0  0  0  0  0  0  0  0  0
   -1.6751    0.4188    0.5345 C   0  0  0  0  0  0  0  0  0  0  0  0
   -1.0960   -1.9482    0.3751 C   0  0  0  0  0  0  0  0  0  0  0  0
   -0.8807   -0.6287   -1.5575 O   0  0  0  0  0  0  0  0  0  0  0  0
    4.5277    2.5296    0.3254 H   0  0  0  0  0  0  0  0  0  0  0  0
    0.4214    1.7666    0.9258 H   0  0  0  0  0  0  0  0  0  0  0  0
    0.3182    1.6066   -0.8750 H   0  0  0  0  0  0  0  0  0  0  0  0
    1.4008   -0.9782   -0.2281 H   0  0  0  0  0  0  0  0  0  0  0  0
    0.7815   -0.4126    1.3842 H   0  0  0  0  0  0  0  0  0  0  0  0
   -2.5289   -0.1774    0.9986 H   0  0  0  0  0  0  0  0  0  0  0  0
   -1.1596    0.9194    1.3717 H   0  0  0  0  0  0  0  0  0  0  0  0
   -2.0566    1.1391   -0.2330 H   0  0  0  0  0  0  0  0  0  0  0  0
   -1.2839   -2.6403   -0.4661 H   0  0  0  0  0  0  0  0  0  0  0  0
   -2.1276   -1.8348    0.8647 H   0  0  0  0  0  0  0  0  0  0  0  0
   -0.3498   -2.3317    1.0480 H   0  0  0  0  0  0  0  0  0  0  0  0
   -0.8827   -1.6169   -1.8307 H   0  0  0  0  0  0  0  0  0  0  0  0
  1  2  3  0
  2  3  1  0
  3  4  1  0
  4  5  1  0
  5  6  1  0
  5  7  1  0
  5  8  1  0
  1  9  1  0
  3 10  1  0
  3 11  1  0
  4 12  1  0
  4 13  1  0
  6 14  1  0
  6 15  1  0
  6 16  1  0
  7 17  1  0
  7 18  1  0
  7 19  1  0
  8 20  1  0
M  END
