
     RDKit          3D

 18 17  0  0  0  0  0  0  0  0999 V2000
    0.1679    2.5406   -1.3197 C   0  0  0  0  0  0  0  0  0  0  0  0
   -0.0124    1.5226   -1.1038 C   0  0  0  0  0  0  0  0  0  0  0  0
   -0.2477    0.1586   -0.8191 C   0  0  0  0  0  0  0  0  0  0  0  0
    0.9675   -0.0951    0.2134 C   0  0  0  0  0  0  0  0  0  0  0  0
    1.5217   -1.2785    0.7943 C   0  0  0  0  0  0  0  0  0  0  0  0
    2.7404   -0.8258    1.5009 O   0  0  0  0  0  0  0  0  0  0  0  0
   -1.4067   -0.1703   -0.5207 O   0  0  0  0  0  0  0  0  0  0  0  0
   -2.5700   -0.5213   -0.2435 C   0  0  0  0  0  0  0  0  0  0  0  0
    0.4316    4.0469   -1.6221 H   0  0  0  0  0  0  0  0  0  0  0  0
    0.0819   -0.4023   -1.7537 H   0  0  0  0  0  0  0  0  0  0  0  0
    1.7258    0.7354    0.0909 H   0  0  0  0  0  0  0  0  0  0  0  0
    0.5236    0.4406    1.2910 H   0  0  0  0  0  0  0  0  0  0  0  0
    1.8384   -1.9867    0.0453 H   0  0  0  0  0  0  0  0  0  0  0  0
    0.9255   -1.6875    1.6523 H   0  0  0  0  0  0  0  0  0  0  0  0
    2.5482   -0.8733    2.4549 H   0  0  0  0  0  0  0  0  0  0  0  0
   -3.2389   -0.5287   -1.2044 H   0  0  0  0  0  0  0  0  0  0  0  0
   -2.7780   -1.4354    0.2920 H   0  0  0  0  0  0  0  0  0  0  0  0
   -3.2189    0.3600    0.2518 H   0  0  0  0  0  0  0  0  0  0  0  0
  1  2  3  0
  2  3  1  0
  3  4  1  0
  4  5  1  0
  5  6  1  0
  3  7  1  0
  7  8  1  0
  1  9  1  0
  3 10  1  0
  4 11  1  0
  4 12  1  0
  5 13  1  0
  5 14  1  0
  6 15  1  0
  8 16  1  0
  8 17  1  0
  8 18  1  0
M  END
