
     RDKit          3D

 17 17  0  0  0  0  0  0  0  0999 V2000
   -2.6912    1.2287    0.7566 C   0  0  0  0  0  0  0  0  0  0  0  0
   -2.0253    0.5773    0.3716 C   0  0  0  0  0  0  0  0  0  0  0  0
   -1.0141   -0.3946   -0.2254 C   0  0  0  0  0  0  0  0  0  0  0  0
   -0.9177   -1.7091    0.5846 C   0  0  0  0  0  0  0  0  0  0  0  0
    0.1263   -2.2619    0.8074 O   0  0  0  0  0  0  0  0  0  0  0  0
   -0.5206   -0.2020   -1.4827 C   0  0  0  0  0  0  0  0  0  0  0  0
    0.3296    0.3283   -0.3323 C   0  0  0  0  0  0  0  0  0  0  0  0
    1.4453   -0.4069    0.0240 O   0  0  0  0  0  0  0  0  0  0  0  0
    2.6188    0.3471    0.0658 C   0  0  0  0  0  0  0  0  0  0  0  0
   -3.6430    2.1501    1.3273 H   0  0  0  0  0  0  0  0  0  0  0  0
   -1.8684   -2.1086    0.9094 H   0  0  0  0  0  0  0  0  0  0  0  0
   -1.0789    0.5021   -2.1217 H   0  0  0  0  0  0  0  0  0  0  0  0
   -0.0091   -1.0419   -2.0362 H   0  0  0  0  0  0  0  0  0  0  0  0
    0.4419    1.4106   -0.3604 H   0  0  0  0  0  0  0  0  0  0  0  0
    3.4327   -0.3515    0.3406 H   0  0  0  0  0  0  0  0  0  0  0  0
    2.5104    1.0789    0.9106 H   0  0  0  0  0  0  0  0  0  0  0  0
    2.8633    0.8534   -0.8654 H   0  0  0  0  0  0  0  0  0  0  0  0
  1  2  3  0
  2  3  1  0
  3  4  1  0
  4  5  2  0
  3  6  1  0
  6  7  1  0
  7  8  1  0
  8  9  1  0
  7  3  1  0
  1 10  1  0
  4 11  1  0
  6 12  1  0
  6 13  1  0
  7 14  1  0
  9 15  1  0
  9 16  1  0
  9 17  1  0
M  END
