
     RDKit          3D

 19 19  0  0  0  0  0  0  0  0999 V2000
    1.1385    2.6092    0.2395 C   0  0  0  0  0  0  0  0  0  0  0  0
    0.3176    1.7422   -0.0139 C   0  0  0  0  0  0  0  0  0  0  0  0
   -0.6368    0.7024   -0.3035 C   0  0  0  0  0  0  0  0  0  0  0  0
   -1.6365    0.5244    0.8472 C   0  0  0  0  0  0  0  0  0  0  0  0
   -2.2237   -0.6839    0.4591 O   0  0  0  0  0  0  0  0  0  0  0  0
   -1.1203   -1.5152    0.3172 C   0  0  0  0  0  0  0  0  0  0  0  0
   -0.0358   -0.6676   -0.3475 C   0  0  0  0  0  0  0  0  0  0  0  0
    1.2423   -0.7899    0.4434 C   0  0  0  0  0  0  0  0  0  0  0  0
    2.1976    0.0725   -0.0325 O   0  0  0  0  0  0  0  0  0  0  0  0
    1.8417    3.3741    0.4493 H   0  0  0  0  0  0  0  0  0  0  0  0
   -1.2141    0.9503   -1.2148 H   0  0  0  0  0  0  0  0  0  0  0  0
   -2.3398    1.3503    0.9182 H   0  0  0  0  0  0  0  0  0  0  0  0
   -1.0807    0.3111    1.7837 H   0  0  0  0  0  0  0  0  0  0  0  0
   -1.3731   -2.3594   -0.3510 H   0  0  0  0  0  0  0  0  0  0  0  0
   -0.8258   -1.8411    1.3312 H   0  0  0  0  0  0  0  0  0  0  0  0
    0.1033   -1.0081   -1.3896 H   0  0  0  0  0  0  0  0  0  0  0  0
    1.5454   -1.8573    0.4040 H   0  0  0  0  0  0  0  0  0  0  0  0
    0.9789   -0.5930    1.5086 H   0  0  0  0  0  0  0  0  0  0  0  0
    3.1212   -0.3209    0.0408 H   0  0  0  0  0  0  0  0  0  0  0  0
  1  2  3  0
  2  3  1  0
  3  4  1  0
  4  5  1  0
  5  6  1  0
  6  7  1  0
  7  8  1  0
  8  9  1  0
  7  3  1  0
  1 10  1  0
  3 11  1  0
  4 12  1  0
  4 13  1  0
  6 14  1  0
  6 15  1  0
  7 16  1  0
  8 17  1  0
  8 18  1  0
  9 19  1  0
M  END
