
     RDKit          3D

 19 20  0  0  0  0  0  0  0  0999 V2000
    3.4448    0.5516    0.2969 C   0  0  0  0  0  0  0  0  0  0  0  0
    2.3162    0.5021   -0.1366 C   0  0  0  0  0  0  0  0  0  0  0  0
    0.9322    0.4392   -0.6517 C   0  0  0  0  0  0  0  0  0  0  0  0
    0.4408   -0.9569   -0.5231 C   0  0  0  0  0  0  0  0  0  0  0  0
   -0.9960   -0.9866   -0.0817 C   0  0  0  0  0  0  0  0  0  0  0  0
   -1.0382   -0.2466    1.2644 C   0  0  0  0  0  0  0  0  0  0  0  0
   -1.0355    1.0246    0.4241 C   0  0  0  0  0  0  0  0  0  0  0  0
   -1.7600    0.2059   -0.6487 C   0  0  0  0  0  0  0  0  0  0  0  0
    0.2069    1.3911   -0.0020 O   0  0  0  0  0  0  0  0  0  0  0  0
    4.4390    0.6037    0.6737 H   0  0  0  0  0  0  0  0  0  0  0  0
    0.9836    0.7142   -1.7427 H   0  0  0  0  0  0  0  0  0  0  0  0
    0.6126   -1.5179   -1.4711 H   0  0  0  0  0  0  0  0  0  0  0  0
    1.0325   -1.4836    0.2613 H   0  0  0  0  0  0  0  0  0  0  0  0
   -1.5130   -1.9371   -0.0999 H   0  0  0  0  0  0  0  0  0  0  0  0
   -1.9921   -0.3639    1.7749 H   0  0  0  0  0  0  0  0  0  0  0  0
   -0.1177   -0.4013    1.8671 H   0  0  0  0  0  0  0  0  0  0  0  0
   -1.6058    1.8565    0.8300 H   0  0  0  0  0  0  0  0  0  0  0  0
   -2.8239    0.1329   -0.3596 H   0  0  0  0  0  0  0  0  0  0  0  0
   -1.5265    0.4722   -1.6753 H   0  0  0  0  0  0  0  0  0  0  0  0
  1  2  3  0
  2  3  1  0
  3  4  1  0
  4  5  1  0
  5  6  1  0
  6  7  1  0
  7  8  1  0
  7  9  1  0
  9  3  1  0
  8  5  1  0
  1 10  1  0
  3 11  1  0
  4 12  1  0
  4 13  1  0
  5 14  1  0
  6 15  1  0
  6 16  1  0
  7 17  1  0
  8 18  1  0
  8 19  1  0
M  END
