
     RDKit          3D

 21 21  0  0  0  0  0  0  0  0999 V2000
    3.2067   -0.5109   -0.9640 C   0  0  0  0  0  0  0  0  0  0  0  0
    2.3700   -0.1380   -0.1792 C   0  0  0  0  0  0  0  0  0  0  0  0
    1.3695    0.3070    0.7926 C   0  0  0  0  0  0  0  0  0  0  0  0
    0.0181    0.3460    0.1119 C   0  0  0  0  0  0  0  0  0  0  0  0
    0.0465    1.2996   -1.0516 C   0  0  0  0  0  0  0  0  0  0  0  0
   -1.1645    0.4793    1.0292 C   0  0  0  0  0  0  0  0  0  0  0  0
   -1.9022   -0.4719    0.0762 C   0  0  0  0  0  0  0  0  0  0  0  0
   -2.7395   -1.3681    0.6854 O   0  0  0  0  0  0  0  0  0  0  0  0
   -0.5147   -1.0196   -0.2725 C   0  0  0  0  0  0  0  0  0  0  0  0
    3.9474   -0.8323   -1.6760 H   0  0  0  0  0  0  0  0  0  0  0  0
    1.6589    1.3081    1.1696 H   0  0  0  0  0  0  0  0  0  0  0  0
    1.3809   -0.3681    1.6752 H   0  0  0  0  0  0  0  0  0  0  0  0
   -0.9762    1.4667   -1.4363 H   0  0  0  0  0  0  0  0  0  0  0  0
    0.6640    0.9596   -1.8819 H   0  0  0  0  0  0  0  0  0  0  0  0
    0.4189    2.2725   -0.6870 H   0  0  0  0  0  0  0  0  0  0  0  0
   -1.6074    1.4713    1.1215 H   0  0  0  0  0  0  0  0  0  0  0  0
   -0.9669   -0.0708    1.9732 H   0  0  0  0  0  0  0  0  0  0  0  0
   -2.3595    0.0258   -0.7828 H   0  0  0  0  0  0  0  0  0  0  0  0
   -2.2760   -2.0688    1.2027 H   0  0  0  0  0  0  0  0  0  0  0  0
   -0.3897   -1.2741   -1.3395 H   0  0  0  0  0  0  0  0  0  0  0  0
   -0.1841   -1.8133    0.4331 H   0  0  0  0  0  0  0  0  0  0  0  0
  1  2  3  0
  2  3  1  0
  3  4  1  0
  4  5  1  0
  4  6  1  0
  6  7  1  0
  7  8  1  0
  7  9  1  0
  9  4  1  0
  1 10  1  0
  3 11  1  0
  3 12  1  0
  5 13  1  0
  5 14  1  0
  5 15  1  0
  6 16  1  0
  6 17  1  0
  7 18  1  0
  8 19  1  0
  9 20  1  0
  9 21  1  0
M  END
