
     RDKit          3D

 19 19  0  0  0  0  0  0  0  0999 V2000
   -0.7008    3.3724    0.0354 C   0  0  0  0  0  0  0  0  0  0  0  0
   -0.4773    2.2173    0.2763 C   0  0  0  0  0  0  0  0  0  0  0  0
   -0.1805    0.8169    0.5718 C   0  0  0  0  0  0  0  0  0  0  0  0
   -0.8088   -0.0715   -0.5039 C   0  0  0  0  0  0  0  0  0  0  0  0
   -0.5045   -1.3770   -0.1844 O   0  0  0  0  0  0  0  0  0  0  0  0
   -1.0787   -2.2161   -1.1644 C   0  0  0  0  0  0  0  0  0  0  0  0
    1.2798    0.6037    0.7231 C   0  0  0  0  0  0  0  0  0  0  0  0
    1.9281   -0.6269    1.0134 C   0  0  0  0  0  0  0  0  0  0  0  0
    1.8142   -0.2578   -0.3718 O   0  0  0  0  0  0  0  0  0  0  0  0
   -0.9162    4.4110   -0.1944 H   0  0  0  0  0  0  0  0  0  0  0  0
   -0.6649    0.6122    1.5618 H   0  0  0  0  0  0  0  0  0  0  0  0
   -0.3713    0.2516   -1.4798 H   0  0  0  0  0  0  0  0  0  0  0  0
   -1.8878    0.1491   -0.5635 H   0  0  0  0  0  0  0  0  0  0  0  0
   -0.8726   -3.2825   -0.9717 H   0  0  0  0  0  0  0  0  0  0  0  0
   -2.2000   -2.1179   -1.1234 H   0  0  0  0  0  0  0  0  0  0  0  0
   -0.7049   -1.8996   -2.1588 H   0  0  0  0  0  0  0  0  0  0  0  0
    1.8868    1.5504    0.7618 H   0  0  0  0  0  0  0  0  0  0  0  0
    3.0161   -0.5901    1.3008 H   0  0  0  0  0  0  0  0  0  0  0  0
    1.4434   -1.5454    1.3436 H   0  0  0  0  0  0  0  0  0  0  0  0
  1  2  3  0
  2  3  1  0
  3  4  1  0
  4  5  1  0
  5  6  1  0
  3  7  1  0
  7  8  1  0
  8  9  1  0
  9  7  1  0
  1 10  1  0
  3 11  1  0
  4 12  1  0
  4 13  1  0
  6 14  1  0
  6 15  1  0
  6 16  1  0
  7 17  1  0
  8 18  1  0
  8 19  1  0
M  END
