
     RDKit          3D

 19 19  0  0  0  0  0  0  0  0999 V2000
    2.8432    1.3392   -2.6254 C   0  0  0  0  0  0  0  0  0  0  0  0
    2.0915    0.8516   -1.9091 C   0  0  0  0  0  0  0  0  0  0  0  0
    1.1989    0.2949   -1.0561 C   0  0  0  0  0  0  0  0  0  0  0  0
    0.5618   -0.8842   -1.3296 C   0  0  0  0  0  0  0  0  0  0  0  0
   -0.3287   -1.2648   -0.2694 C   0  0  0  0  0  0  0  0  0  0  0  0
   -0.5755    0.1195    0.4713 C   0  0  0  0  0  0  0  0  0  0  0  0
   -0.7460   -0.2071    1.8151 O   0  0  0  0  0  0  0  0  0  0  0  0
   -2.0809   -0.2867    2.1636 C   0  0  0  0  0  0  0  0  0  0  0  0
    0.6969    0.8745    0.2147 C   0  0  0  0  0  0  0  0  0  0  0  0
    3.7229    1.8981   -3.4858 H   0  0  0  0  0  0  0  0  0  0  0  0
    0.7467   -1.4108   -2.2391 H   0  0  0  0  0  0  0  0  0  0  0  0
   -1.3145   -1.6038   -0.6006 H   0  0  0  0  0  0  0  0  0  0  0  0
    0.1279   -1.9407    0.5089 H   0  0  0  0  0  0  0  0  0  0  0  0
   -1.5242    0.5332    0.0199 H   0  0  0  0  0  0  0  0  0  0  0  0
   -2.4830   -1.1668    1.5220 H   0  0  0  0  0  0  0  0  0  0  0  0
   -2.6179    0.6272    1.9503 H   0  0  0  0  0  0  0  0  0  0  0  0
   -2.1838   -0.5667    3.2515 H   0  0  0  0  0  0  0  0  0  0  0  0
    0.4970    1.9900    0.0488 H   0  0  0  0  0  0  0  0  0  0  0  0
    1.3679    0.8032    1.0620 H   0  0  0  0  0  0  0  0  0  0  0  0
  1  2  3  0
  2  3  1  0
  3  4  2  0
  4  5  1  0
  5  6  1  0
  6  7  1  0
  7  8  1  0
  6  9  1  0
  9  3  1  0
  1 10  1  0
  4 11  1  0
  5 12  1  0
  5 13  1  0
  6 14  1  0
  8 15  1  0
  8 16  1  0
  8 17  1  0
  9 18  1  0
  9 19  1  0
M  END
