
     RDKit          3D

 17 19  0  0  0  0  0  0  0  0999 V2000
    3.5936    0.4573   -0.9123 C   0  0  0  0  0  0  0  0  0  0  0  0
    2.4451    0.1248   -0.8409 C   0  0  0  0  0  0  0  0  0  0  0  0
    1.0686   -0.2830   -0.7461 C   0  0  0  0  0  0  0  0  0  0  0  0
   -0.0316    0.7920   -0.8133 C   0  0  0  0  0  0  0  0  0  0  0  0
   -0.7531   -0.0581    0.1838 C   0  0  0  0  0  0  0  0  0  0  0  0
   -2.1167   -0.4940    0.0899 C   0  0  0  0  0  0  0  0  0  0  0  0
   -1.6141    0.4083    1.2268 C   0  0  0  0  0  0  0  0  0  0  0  0
    0.4529   -0.8930    0.2960 C   0  0  0  0  0  0  0  0  0  0  0  0
    0.7204   -1.5858   -1.0003 O   0  0  0  0  0  0  0  0  0  0  0  0
    4.6121    0.7512   -0.9591 H   0  0  0  0  0  0  0  0  0  0  0  0
    0.3409    1.7457   -0.4373 H   0  0  0  0  0  0  0  0  0  0  0  0
   -0.5282    0.8619   -1.7820 H   0  0  0  0  0  0  0  0  0  0  0  0
   -2.3487   -1.5573    0.3649 H   0  0  0  0  0  0  0  0  0  0  0  0
   -2.8273   -0.0633   -0.6387 H   0  0  0  0  0  0  0  0  0  0  0  0
   -2.0940    1.4073    1.2276 H   0  0  0  0  0  0  0  0  0  0  0  0
   -1.6040   -0.0484    2.2526 H   0  0  0  0  0  0  0  0  0  0  0  0
    0.6840   -1.5657    1.0990 H   0  0  0  0  0  0  0  0  0  0  0  0
  1  2  3  0
  2  3  1  0
  3  4  1  0
  4  5  1  0
  5  6  1  0
  6  7  1  0
  5  8  1  0
  8  9  1  0
  8  3  1  0
  9  3  1  0
  7  5  1  0
  1 10  1  0
  4 11  1  0
  4 12  1  0
  6 13  1  0
  6 14  1  0
  7 15  1  0
  7 16  1  0
  8 17  1  0
M  END
