
     RDKit          3D

 12 12  0  0  0  0  0  0  0  0999 V2000
    2.4431    0.4017   -0.0803 C   0  0  0  0  0  0  0  0  0  0  0  0
    1.2588    0.6977    0.0144 C   0  0  0  0  0  0  0  0  0  0  0  0
   -0.1570    1.0314    0.1437 C   0  0  0  0  0  0  0  0  0  0  0  0
   -1.0029   -0.1889    0.0542 C   0  0  0  0  0  0  0  0  0  0  0  0
   -1.0349   -1.0459   -1.0638 C   0  0  0  0  0  0  0  0  0  0  0  0
   -0.1624   -1.4124    0.1102 O   0  0  0  0  0  0  0  0  0  0  0  0
    3.4631    0.1297   -0.1703 H   0  0  0  0  0  0  0  0  0  0  0  0
   -0.4442    1.8101   -0.6066 H   0  0  0  0  0  0  0  0  0  0  0  0
   -0.2825    1.5297    1.1279 H   0  0  0  0  0  0  0  0  0  0  0  0
   -1.8227   -0.2409    0.8305 H   0  0  0  0  0  0  0  0  0  0  0  0
   -1.8367   -1.8099   -1.1598 H   0  0  0  0  0  0  0  0  0  0  0  0
   -0.4217   -0.9024   -1.9527 H   0  0  0  0  0  0  0  0  0  0  0  0
  1  2  3  0
  2  3  1  0
  3  4  1  0
  4  5  1  0
  5  6  1  0
  6  4  1  0
  1  7  1  0
  3  8  1  0
  3  9  1  0
  4 10  1  0
  5 11  1  0
  5 12  1  0
M  END
