
     RDKit          3D

 25 24  0  0  0  0  0  0  0  0999 V2000
    2.8970    0.0602    1.8553 C   0  0  0  0  0  0  0  0  0  0  0  0
    2.0887    0.8212    1.3348 C   0  0  0  0  0  0  0  0  0  0  0  0
    1.1333    1.7296    0.7085 C   0  0  0  0  0  0  0  0  0  0  0  0
   -0.1826    1.1159    0.4321 C   0  0  0  0  0  0  0  0  0  0  0  0
   -0.2028   -0.0617   -0.4866 C   0  0  0  0  0  0  0  0  0  0  0  0
    0.6039   -1.2408   -0.0286 C   0  0  0  0  0  0  0  0  0  0  0  0
    0.3482    0.3563   -1.8351 C   0  0  0  0  0  0  0  0  0  0  0  0
   -1.6124   -0.5678   -0.7396 C   0  0  0  0  0  0  0  0  0  0  0  0
   -2.3022   -1.0005    0.5208 C   0  0  0  0  0  0  0  0  0  0  0  0
    3.5866   -0.5925    2.3207 H   0  0  0  0  0  0  0  0  0  0  0  0
    1.6378    2.1967   -0.1564 H   0  0  0  0  0  0  0  0  0  0  0  0
    0.9796    2.5799    1.4366 H   0  0  0  0  0  0  0  0  0  0  0  0
   -0.6779    0.9110    1.4115 H   0  0  0  0  0  0  0  0  0  0  0  0
   -0.8374    1.8938   -0.0482 H   0  0  0  0  0  0  0  0  0  0  0  0
    0.2013   -2.1395   -0.5885 H   0  0  0  0  0  0  0  0  0  0  0  0
    1.6500   -1.1545   -0.4450 H   0  0  0  0  0  0  0  0  0  0  0  0
    0.5644   -1.4362    1.0390 H   0  0  0  0  0  0  0  0  0  0  0  0
    1.1888   -0.3031   -2.1746 H   0  0  0  0  0  0  0  0  0  0  0  0
    0.7392    1.4016   -1.7986 H   0  0  0  0  0  0  0  0  0  0  0  0
   -0.4446    0.3594   -2.6074 H   0  0  0  0  0  0  0  0  0  0  0  0
   -1.5193   -1.4492   -1.3947 H   0  0  0  0  0  0  0  0  0  0  0  0
   -2.2530    0.1989   -1.2197 H   0  0  0  0  0  0  0  0  0  0  0  0
   -3.3428   -1.2717    0.2445 H   0  0  0  0  0  0  0  0  0  0  0  0
   -2.3894   -0.1896    1.2730 H   0  0  0  0  0  0  0  0  0  0  0  0
   -1.8544   -1.9290    0.9464 H   0  0  0  0  0  0  0  0  0  0  0  0
  1  2  3  0
  2  3  1  0
  3  4  1  0
  4  5  1  0
  5  6  1  0
  5  7  1  0
  5  8  1  0
  8  9  1  0
  1 10  1  0
  3 11  1  0
  3 12  1  0
  4 13  1  0
  4 14  1  0
  6 15  1  0
  6 16  1  0
  6 17  1  0
  7 18  1  0
  7 19  1  0
  7 20  1  0
  8 21  1  0
  8 22  1  0
  9 23  1  0
  9 24  1  0
  9 25  1  0
M  END
