
     RDKit          3D

 19 19  0  0  0  0  0  0  0  0999 V2000
    2.2711    0.0461    1.5835 C   0  0  0  0  0  0  0  0  0  0  0  0
    1.1228   -0.2689    1.2529 C   0  0  0  0  0  0  0  0  0  0  0  0
   -0.2355   -0.6194    0.8744 C   0  0  0  0  0  0  0  0  0  0  0  0
   -0.2476   -2.0870    0.5216 C   0  0  0  0  0  0  0  0  0  0  0  0
   -0.7628    0.2433   -0.2427 C   0  0  0  0  0  0  0  0  0  0  0  0
    0.0407    0.1551   -1.5026 C   0  0  0  0  0  0  0  0  0  0  0  0
    0.4430    1.4710   -1.7002 O   0  0  0  0  0  0  0  0  0  0  0  0
   -0.5238    2.2216   -1.0686 C   0  0  0  0  0  0  0  0  0  0  0  0
   -0.6217    1.5674    0.1720 O   0  0  0  0  0  0  0  0  0  0  0  0
    3.2588    0.3025    1.8544 H   0  0  0  0  0  0  0  0  0  0  0  0
   -0.9135   -0.4698    1.7401 H   0  0  0  0  0  0  0  0  0  0  0  0
   -0.9806   -2.3080   -0.2794 H   0  0  0  0  0  0  0  0  0  0  0  0
    0.7639   -2.3231    0.0833 H   0  0  0  0  0  0  0  0  0  0  0  0
   -0.3558   -2.7394    1.3934 H   0  0  0  0  0  0  0  0  0  0  0  0
   -1.8170    0.0172   -0.4647 H   0  0  0  0  0  0  0  0  0  0  0  0
    0.8923   -0.5457   -1.4593 H   0  0  0  0  0  0  0  0  0  0  0  0
   -0.6262   -0.1244   -2.3718 H   0  0  0  0  0  0  0  0  0  0  0  0
   -0.2019    3.2811   -0.9112 H   0  0  0  0  0  0  0  0  0  0  0  0
   -1.5063    2.1804   -1.5352 H   0  0  0  0  0  0  0  0  0  0  0  0
  1  2  3  0
  2  3  1  0
  3  4  1  0
  3  5  1  0
  5  6  1  0
  6  7  1  0
  7  8  1  0
  8  9  1  0
  9  5  1  0
  1 10  1  0
  3 11  1  0
  4 12  1  0
  4 13  1  0
  4 14  1  0
  5 15  1  0
  6 16  1  0
  6 17  1  0
  8 18  1  0
  8 19  1  0
M  END
