
     RDKit          3D

 18 18  0  0  0  0  0  0  0  0999 V2000
   -3.9359    0.7532    0.1793 C   0  0  0  0  0  0  0  0  0  0  0  0
   -3.0228   -0.0143    0.3506 C   0  0  0  0  0  0  0  0  0  0  0  0
   -1.8979   -0.9595    0.5355 C   0  0  0  0  0  0  0  0  0  0  0  0
   -0.6497   -0.0977    0.7231 C   0  0  0  0  0  0  0  0  0  0  0  0
   -0.4849    0.7320   -0.5020 O   0  0  0  0  0  0  0  0  0  0  0  0
    0.5107   -0.2781   -0.0574 C   0  0  0  0  0  0  0  0  0  0  0  0
    1.7983    0.4014    0.3823 C   0  0  0  0  0  0  0  0  0  0  0  0
    2.9435    0.1139   -0.5495 C   0  0  0  0  0  0  0  0  0  0  0  0
   -4.7630    1.4272    0.0231 H   0  0  0  0  0  0  0  0  0  0  0  0
   -2.0083   -1.5627    1.4466 H   0  0  0  0  0  0  0  0  0  0  0  0
   -1.7533   -1.5836   -0.3587 H   0  0  0  0  0  0  0  0  0  0  0  0
   -0.6970    0.6147    1.5753 H   0  0  0  0  0  0  0  0  0  0  0  0
    0.5694   -1.0477   -0.8353 H   0  0  0  0  0  0  0  0  0  0  0  0
    1.6629    1.5004    0.5238 H   0  0  0  0  0  0  0  0  0  0  0  0
    2.0251   -0.0185    1.3927 H   0  0  0  0  0  0  0  0  0  0  0  0
    3.8342   -0.1291    0.0634 H   0  0  0  0  0  0  0  0  0  0  0  0
    2.7031   -0.8199   -1.1379 H   0  0  0  0  0  0  0  0  0  0  0  0
    3.1656    0.9684   -1.2258 H   0  0  0  0  0  0  0  0  0  0  0  0
  1  2  3  0
  2  3  1  0
  3  4  1  0
  4  5  1  0
  5  6  1  0
  6  7  1  0
  7  8  1  0
  6  4  1  0
  1  9  1  0
  3 10  1  0
  3 11  1  0
  4 12  1  0
  6 13  1  0
  7 14  1  0
  7 15  1  0
  8 16  1  0
  8 17  1  0
  8 18  1  0
M  END
