
     RDKit          3D

 17 16  0  0  0  0  0  0  0  0999 V2000
    2.2556   -2.1421    0.4804 C   0  0  0  0  0  0  0  0  0  0  0  0
    1.1555   -1.4379   -0.0128 C   0  0  0  0  0  0  0  0  0  0  0  0
    0.0738   -0.7401   -0.4788 C   0  0  0  0  0  0  0  0  0  0  0  0
    0.4934   -0.3536   -1.9653 C   0  0  0  0  0  0  0  0  0  0  0  0
    1.7092   -0.2344   -2.0220 O   0  0  0  0  0  0  0  0  0  0  0  0
   -0.3449    0.4328    0.2010 C   0  0  0  0  0  0  0  0  0  0  0  0
    0.7592    1.2925    0.3841 O   0  0  0  0  0  0  0  0  0  0  0  0
   -1.4028    0.3968    1.2017 C   0  0  0  0  0  0  0  0  0  0  0  0
   -1.8806    1.7398    1.3652 O   0  0  0  0  0  0  0  0  0  0  0  0
    3.1518   -2.7384    0.8931 H   0  0  0  0  0  0  0  0  0  0  0  0
   -0.7921   -1.5010   -0.7433 H   0  0  0  0  0  0  0  0  0  0  0  0
   -0.1909   -0.2396   -2.6978 H   0  0  0  0  0  0  0  0  0  0  0  0
   -0.8890    1.0757   -0.7218 H   0  0  0  0  0  0  0  0  0  0  0  0
    0.6049    2.2550    0.2782 H   0  0  0  0  0  0  0  0  0  0  0  0
   -1.2359    0.0061    2.1997 H   0  0  0  0  0  0  0  0  0  0  0  0
   -2.2986   -0.1687    0.7111 H   0  0  0  0  0  0  0  0  0  0  0  0
   -1.1685    2.3572    0.9273 H   0  0  0  0  0  0  0  0  0  0  0  0
  1  2  3  0
  2  3  1  0
  3  4  1  0
  4  5  2  0
  3  6  1  0
  6  7  1  0
  6  8  1  0
  8  9  1  0
  1 10  1  0
  3 11  1  0
  4 12  1  0
  6 13  1  0
  7 14  1  0
  8 15  1  0
  8 16  1  0
  9 17  1  0
M  END
