
     RDKit          3D

 21 20  0  0  0  0  0  0  0  0999 V2000
   -1.8090    2.5878   -0.4841 C   0  0  0  0  0  0  0  0  0  0  0  0
   -1.1478    1.7430   -0.0829 C   0  0  0  0  0  0  0  0  0  0  0  0
   -0.4683    0.8552    0.3182 C   0  0  0  0  0  0  0  0  0  0  0  0
   -0.6834   -0.4917    0.7344 C   0  0  0  0  0  0  0  0  0  0  0  0
   -1.2641   -1.5405   -0.0681 C   0  0  0  0  0  0  0  0  0  0  0  0
   -0.7183   -1.9687   -1.2507 O   0  0  0  0  0  0  0  0  0  0  0  0
    1.0060    1.0162   -0.5335 C   0  0  0  0  0  0  0  0  0  0  0  0
    1.9733   -0.0165   -0.1307 C   0  0  0  0  0  0  0  0  0  0  0  0
    2.4225   -0.0559    1.1579 O   0  0  0  0  0  0  0  0  0  0  0  0
   -2.6937    3.7392   -1.0515 H   0  0  0  0  0  0  0  0  0  0  0  0
    0.2182    1.2747    1.3933 H   0  0  0  0  0  0  0  0  0  0  0  0
    0.3985   -0.9100    1.0038 H   0  0  0  0  0  0  0  0  0  0  0  0
   -1.1054   -0.6135    1.8531 H   0  0  0  0  0  0  0  0  0  0  0  0
   -1.5722   -2.4071    0.6308 H   0  0  0  0  0  0  0  0  0  0  0  0
   -2.3400   -1.1988   -0.4136 H   0  0  0  0  0  0  0  0  0  0  0  0
   -1.0914   -2.9264   -1.4226 H   0  0  0  0  0  0  0  0  0  0  0  0
    0.6124    0.9100   -1.5358 H   0  0  0  0  0  0  0  0  0  0  0  0
    1.2970    2.0011   -0.2307 H   0  0  0  0  0  0  0  0  0  0  0  0
    1.5856   -1.0339   -0.3911 H   0  0  0  0  0  0  0  0  0  0  0  0
    2.8448    0.0861   -0.8772 H   0  0  0  0  0  0  0  0  0  0  0  0
    2.5354   -1.0504    1.3808 H   0  0  0  0  0  0  0  0  0  0  0  0
  1  2  3  0
  2  3  1  0
  3  4  1  0
  4  5  1  0
  5  6  1  0
  3  7  1  0
  7  8  1  0
  8  9  1  0
  1 10  1  0
  3 11  1  0
  4 12  1  0
  4 13  1  0
  5 14  1  0
  5 15  1  0
  6 16  1  0
  7 17  1  0
  7 18  1  0
  8 19  1  0
  8 20  1  0
  9 21  1  0
M  END
