
     RDKit          3D

 17 17  0  0  0  0  0  0  0  0999 V2000
    3.0276    0.5974    0.1438 C   0  0  0  0  0  0  0  0  0  0  0  0
    1.9404    0.1200    0.4106 C   0  0  0  0  0  0  0  0  0  0  0  0
    0.6361   -0.4791    0.7314 C   0  0  0  0  0  0  0  0  0  0  0  0
   -0.0011   -1.0247   -0.5162 C   0  0  0  0  0  0  0  0  0  0  0  0
   -1.4575   -0.5732   -0.6375 C   0  0  0  0  0  0  0  0  0  0  0  0
   -1.4273    0.9530   -0.6133 C   0  0  0  0  0  0  0  0  0  0  0  0
   -1.1071    1.3237    0.7039 O   0  0  0  0  0  0  0  0  0  0  0  0
   -0.1699    0.5688    1.3876 C   0  0  0  0  0  0  0  0  0  0  0  0
    0.0167    0.7674    2.6129 O   0  0  0  0  0  0  0  0  0  0  0  0
    3.9659    1.0289   -0.0927 H   0  0  0  0  0  0  0  0  0  0  0  0
    0.8194   -1.3216    1.4458 H   0  0  0  0  0  0  0  0  0  0  0  0
    0.0622   -2.1307   -0.5866 H   0  0  0  0  0  0  0  0  0  0  0  0
    0.5250   -0.5916   -1.4059 H   0  0  0  0  0  0  0  0  0  0  0  0
   -1.8602   -0.9575   -1.5854 H   0  0  0  0  0  0  0  0  0  0  0  0
   -2.0000   -0.9638    0.2418 H   0  0  0  0  0  0  0  0  0  0  0  0
   -0.5851    1.3011   -1.2762 H   0  0  0  0  0  0  0  0  0  0  0  0
   -2.3848    1.3821   -0.9641 H   0  0  0  0  0  0  0  0  0  0  0  0
  1  2  3  0
  2  3  1  0
  3  4  1  0
  4  5  1  0
  5  6  1  0
  6  7  1  0
  7  8  1  0
  8  9  2  0
  8  3  1  0
  1 10  1  0
  3 11  1  0
  4 12  1  0
  4 13  1  0
  5 14  1  0
  5 15  1  0
  6 16  1  0
  6 17  1  0
M  END
