
     RDKit          3D

 17 18  0  0  0  0  0  0  0  0999 V2000
    3.0377   -0.2045   -0.8534 C   0  0  0  0  0  0  0  0  0  0  0  0
    2.0077   -0.6731   -0.4367 C   0  0  0  0  0  0  0  0  0  0  0  0
    0.7689   -1.2300    0.0395 C   0  0  0  0  0  0  0  0  0  0  0  0
   -0.2846   -0.3391    0.0325 C   0  0  0  0  0  0  0  0  0  0  0  0
   -0.8570    0.3781   -1.1400 C   0  0  0  0  0  0  0  0  0  0  0  0
   -1.7305    0.6668    0.0408 C   0  0  0  0  0  0  0  0  0  0  0  0
   -1.6144   -0.6768    0.3568 O   0  0  0  0  0  0  0  0  0  0  0  0
   -0.4785    0.8757    0.8374 C   0  0  0  0  0  0  0  0  0  0  0  0
   -0.6922    0.6525    2.2138 O   0  0  0  0  0  0  0  0  0  0  0  0
    3.9606    0.1996   -1.2374 H   0  0  0  0  0  0  0  0  0  0  0  0
    0.9718   -1.6287    1.0751 H   0  0  0  0  0  0  0  0  0  0  0  0
    0.5580   -2.1553   -0.5607 H   0  0  0  0  0  0  0  0  0  0  0  0
   -0.2340    1.1946   -1.5194 H   0  0  0  0  0  0  0  0  0  0  0  0
   -1.3893   -0.2410   -1.8822 H   0  0  0  0  0  0  0  0  0  0  0  0
   -2.5668    1.2293    0.0608 H   0  0  0  0  0  0  0  0  0  0  0  0
    0.1013    1.7739    0.6140 H   0  0  0  0  0  0  0  0  0  0  0  0
   -1.5586    0.1781    2.3588 H   0  0  0  0  0  0  0  0  0  0  0  0
  1  2  3  0
  2  3  1  0
  3  4  1  0
  4  5  1  0
  5  6  1  0
  6  7  1  0
  6  8  1  0
  8  9  1  0
  7  4  1  0
  8  4  1  0
  1 10  1  0
  3 11  1  0
  3 12  1  0
  5 13  1  0
  5 14  1  0
  6 15  1  0
  8 16  1  0
  9 17  1  0
M  END
