
     RDKit          3D

 15 16  0  0  0  0  0  0  0  0999 V2000
    2.3805    1.8486   -0.0761 C   0  0  0  0  0  0  0  0  0  0  0  0
    1.6584    0.8936   -0.3225 C   0  0  0  0  0  0  0  0  0  0  0  0
    0.8105   -0.2588   -0.6341 C   0  0  0  0  0  0  0  0  0  0  0  0
   -0.0118   -0.8456    0.4490 C   0  0  0  0  0  0  0  0  0  0  0  0
   -0.9741   -1.9461    0.0094 C   0  0  0  0  0  0  0  0  0  0  0  0
   -1.5269   -1.0028   -0.8871 O   0  0  0  0  0  0  0  0  0  0  0  0
   -0.6463   -0.0046   -0.5593 C   0  0  0  0  0  0  0  0  0  0  0  0
   -1.1493    1.3616   -0.2703 C   0  0  0  0  0  0  0  0  0  0  0  0
   -0.4468    2.2858    0.0227 O   0  0  0  0  0  0  0  0  0  0  0  0
    2.9832    2.6726    0.1362 H   0  0  0  0  0  0  0  0  0  0  0  0
    1.1291   -0.9168   -1.4834 H   0  0  0  0  0  0  0  0  0  0  0  0
    0.1056   -0.6137    1.4998 H   0  0  0  0  0  0  0  0  0  0  0  0
   -0.3989   -2.7476   -0.4584 H   0  0  0  0  0  0  0  0  0  0  0  0
   -1.6942   -2.2489    0.7867 H   0  0  0  0  0  0  0  0  0  0  0  0
   -2.2190    1.5227   -0.3307 H   0  0  0  0  0  0  0  0  0  0  0  0
  1  2  3  0
  2  3  1  0
  3  4  1  0
  4  5  1  0
  5  6  1  0
  6  7  1  0
  7  8  1  0
  8  9  2  0
  7  3  1  0
  7  4  1  0
  1 10  1  0
  3 11  1  0
  4 12  1  0
  5 13  1  0
  5 14  1  0
  8 15  1  0
M  END
