
     RDKit          3D

 17 17  0  0  0  0  0  0  0  0999 V2000
   -1.7834    2.5802   -0.7080 C   0  0  0  0  0  0  0  0  0  0  0  0
   -1.3026    1.4835   -0.5672 C   0  0  0  0  0  0  0  0  0  0  0  0
   -0.7434    0.1883   -0.3839 C   0  0  0  0  0  0  0  0  0  0  0  0
   -1.3759   -0.9265   -0.0761 C   0  0  0  0  0  0  0  0  0  0  0  0
   -0.3744   -2.0432    0.0121 C   0  0  0  0  0  0  0  0  0  0  0  0
    0.6793   -1.5625   -0.7219 O   0  0  0  0  0  0  0  0  0  0  0  0
    0.6774   -0.1655   -0.5048 C   0  0  0  0  0  0  0  0  0  0  0  0
    1.4490    0.1036    0.7679 C   0  0  0  0  0  0  0  0  0  0  0  0
    1.4718    1.4738    1.0199 O   0  0  0  0  0  0  0  0  0  0  0  0
   -2.2234    3.5562   -0.8193 H   0  0  0  0  0  0  0  0  0  0  0  0
   -2.4267   -1.0958    0.0993 H   0  0  0  0  0  0  0  0  0  0  0  0
   -0.1562   -2.2718    1.0536 H   0  0  0  0  0  0  0  0  0  0  0  0
   -0.7583   -2.9538   -0.5205 H   0  0  0  0  0  0  0  0  0  0  0  0
    1.1704    0.3679   -1.3417 H   0  0  0  0  0  0  0  0  0  0  0  0
    1.0233   -0.4531    1.6068 H   0  0  0  0  0  0  0  0  0  0  0  0
    2.4984   -0.2105    0.6095 H   0  0  0  0  0  0  0  0  0  0  0  0
    2.1748    1.9293    0.4743 H   0  0  0  0  0  0  0  0  0  0  0  0
  1  2  3  0
  2  3  1  0
  3  4  2  0
  4  5  1  0
  5  6  1  0
  6  7  1  0
  7  8  1  0
  8  9  1  0
  7  3  1  0
  1 10  1  0
  4 11  1  0
  5 12  1  0
  5 13  1  0
  7 14  1  0
  8 15  1  0
  8 16  1  0
  9 17  1  0
M  END
