
     RDKit          3D

 21 21  0  0  0  0  0  0  0  0999 V2000
   -0.4630    2.1571   -1.9115 C   0  0  0  0  0  0  0  0  0  0  0  0
   -0.8453    1.2327   -1.2167 C   0  0  0  0  0  0  0  0  0  0  0  0
   -1.3190    0.1509   -0.4038 C   0  0  0  0  0  0  0  0  0  0  0  0
   -1.9200    0.6031    0.8020 O   0  0  0  0  0  0  0  0  0  0  0  0
   -0.6067    0.6469    1.3371 C   0  0  0  0  0  0  0  0  0  0  0  0
   -0.2958   -0.5063    0.4256 C   0  0  0  0  0  0  0  0  0  0  0  0
   -0.8653   -1.8180    0.9928 C   0  0  0  0  0  0  0  0  0  0  0  0
    1.0895   -0.6945   -0.0397 C   0  0  0  0  0  0  0  0  0  0  0  0
    1.8921    0.5045   -0.3760 C   0  0  0  0  0  0  0  0  0  0  0  0
   -0.1187    2.9670   -2.5028 H   0  0  0  0  0  0  0  0  0  0  0  0
   -2.0157   -0.5559   -0.9072 H   0  0  0  0  0  0  0  0  0  0  0  0
   -0.0905    1.5837    1.1471 H   0  0  0  0  0  0  0  0  0  0  0  0
   -0.5944    0.2976    2.4012 H   0  0  0  0  0  0  0  0  0  0  0  0
   -0.8218   -2.6076    0.2377 H   0  0  0  0  0  0  0  0  0  0  0  0
   -0.3302   -2.1004    1.9192 H   0  0  0  0  0  0  0  0  0  0  0  0
   -1.9131   -1.5962    1.2633 H   0  0  0  0  0  0  0  0  0  0  0  0
    1.6356   -1.2278    0.8010 H   0  0  0  0  0  0  0  0  0  0  0  0
    1.1551   -1.4358   -0.8782 H   0  0  0  0  0  0  0  0  0  0  0  0
    2.9598    0.3438   -0.0847 H   0  0  0  0  0  0  0  0  0  0  0  0
    1.5593    1.4644    0.0051 H   0  0  0  0  0  0  0  0  0  0  0  0
    1.9082    0.5907   -1.5044 H   0  0  0  0  0  0  0  0  0  0  0  0
  1  2  3  0
  2  3  1  0
  3  4  1  0
  4  5  1  0
  5  6  1  0
  6  7  1  0
  6  8  1  0
  8  9  1  0
  6  3  1  0
  1 10  1  0
  3 11  1  0
  5 12  1  0
  5 13  1  0
  7 14  1  0
  7 15  1  0
  7 16  1  0
  8 17  1  0
  8 18  1  0
  9 19  1  0
  9 20  1  0
  9 21  1  0
M  END
