
     RDKit          3D

 17 18  0  0  0  0  0  0  0  0999 V2000
    2.3181   -0.5889   -1.2004 C   0  0  0  0  0  0  0  0  0  0  0  0
    1.4877   -0.1275   -0.4449 C   0  0  0  0  0  0  0  0  0  0  0  0
    0.4568    0.4463    0.4602 C   0  0  0  0  0  0  0  0  0  0  0  0
   -0.1037   -0.5700    1.3583 C   0  0  0  0  0  0  0  0  0  0  0  0
   -1.2334   -1.0919    0.6795 O   0  0  0  0  0  0  0  0  0  0  0  0
   -1.0580   -1.1355   -0.6919 C   0  0  0  0  0  0  0  0  0  0  0  0
   -0.9424    0.1526   -1.2803 O   0  0  0  0  0  0  0  0  0  0  0  0
   -0.8386    1.0057   -0.2371 C   0  0  0  0  0  0  0  0  0  0  0  0
    0.1880    1.8232    0.2825 C   0  0  0  0  0  0  0  0  0  0  0  0
    3.0359   -0.9979   -1.8637 H   0  0  0  0  0  0  0  0  0  0  0  0
   -0.5455   -0.0519    2.2574 H   0  0  0  0  0  0  0  0  0  0  0  0
    0.5656   -1.3578    1.7028 H   0  0  0  0  0  0  0  0  0  0  0  0
   -2.0356   -1.5215   -1.0957 H   0  0  0  0  0  0  0  0  0  0  0  0
   -0.2941   -1.8274   -1.0415 H   0  0  0  0  0  0  0  0  0  0  0  0
   -1.7920    0.9605    0.3736 H   0  0  0  0  0  0  0  0  0  0  0  0
   -0.0288    2.4671    1.1739 H   0  0  0  0  0  0  0  0  0  0  0  0
    0.8201    2.4150   -0.4327 H   0  0  0  0  0  0  0  0  0  0  0  0
  1  2  3  0
  2  3  1  0
  3  4  1  0
  4  5  1  0
  5  6  1  0
  6  7  1  0
  7  8  1  0
  8  9  1  0
  8  3  1  0
  9  3  1  0
  1 10  1  0
  4 11  1  0
  4 12  1  0
  6 13  1  0
  6 14  1  0
  8 15  1  0
  9 16  1  0
  9 17  1  0
M  END
