
     RDKit          3D

 19 19  0  0  0  0  0  0  0  0999 V2000
    3.6292    0.7011   -0.2257 C   0  0  0  0  0  0  0  0  0  0  0  0
    2.5859    0.8439   -0.5171 C   0  0  0  0  0  0  0  0  0  0  0  0
    1.1433    1.0182   -0.9302 C   0  0  0  0  0  0  0  0  0  0  0  0
    1.2149    1.5667   -2.4088 C   0  0  0  0  0  0  0  0  0  0  0  0
    0.3090    0.2809   -0.5984 C   0  0  0  0  0  0  0  0  0  0  0  0
   -0.6950   -0.6382   -0.1891 C   0  0  0  0  0  0  0  0  0  0  0  0
   -1.7033   -1.5795    0.2357 C   0  0  0  0  0  0  0  0  0  0  0  0
   -1.7548   -1.9540    1.6926 C   0  0  0  0  0  0  0  0  0  0  0  0
   -2.6685   -0.8648    1.3149 C   0  0  0  0  0  0  0  0  0  0  0  0
    4.7013    0.5536    0.0914 H   0  0  0  0  0  0  0  0  0  0  0  0
    0.9707    2.1973   -0.4474 H   0  0  0  0  0  0  0  0  0  0  0  0
    0.9276    0.7878   -3.0655 H   0  0  0  0  0  0  0  0  0  0  0  0
    0.4816    2.4004   -2.4894 H   0  0  0  0  0  0  0  0  0  0  0  0
    2.2083    2.0266   -2.5770 H   0  0  0  0  0  0  0  0  0  0  0  0
   -2.3116   -2.0663   -0.5368 H   0  0  0  0  0  0  0  0  0  0  0  0
   -2.1762   -2.8753    1.9983 H   0  0  0  0  0  0  0  0  0  0  0  0
   -0.8213   -1.6792    2.2276 H   0  0  0  0  0  0  0  0  0  0  0  0
   -3.7280   -0.9238    1.1210 H   0  0  0  0  0  0  0  0  0  0  0  0
   -2.3132    0.2046    1.5139 H   0  0  0  0  0  0  0  0  0  0  0  0
  1  2  3  0
  2  3  1  0
  3  4  1  0
  3  5  1  0
  5  6  3  0
  6  7  1  0
  7  8  1  0
  8  9  1  0
  9  7  1  0
  1 10  1  0
  3 11  1  0
  4 12  1  0
  4 13  1  0
  4 14  1  0
  7 15  1  0
  8 16  1  0
  8 17  1  0
  9 18  1  0
  9 19  1  0
M  END
