
     RDKit          3D

 18 19  0  0  0  0  0  0  0  0999 V2000
    2.4288   -1.4548    1.5598 C   0  0  0  0  0  0  0  0  0  0  0  0
    1.8993   -0.9861    0.5845 C   0  0  0  0  0  0  0  0  0  0  0  0
    1.2628   -0.4071   -0.5745 C   0  0  0  0  0  0  0  0  0  0  0  0
    0.7392    1.0210   -0.3595 C   0  0  0  0  0  0  0  0  0  0  0  0
   -0.6294    0.4198   -0.2616 C   0  0  0  0  0  0  0  0  0  0  0  0
   -1.8574    1.0948   -0.5967 C   0  0  0  0  0  0  0  0  0  0  0  0
   -1.5474    0.6659    0.8370 C   0  0  0  0  0  0  0  0  0  0  0  0
   -0.1824   -0.9002   -0.7409 C   0  0  0  0  0  0  0  0  0  0  0  0
    2.8875   -1.8671    2.4413 H   0  0  0  0  0  0  0  0  0  0  0  0
    1.8246   -0.4731   -1.5061 H   0  0  0  0  0  0  0  0  0  0  0  0
    0.9157    1.6950   -1.2125 H   0  0  0  0  0  0  0  0  0  0  0  0
    1.0386    1.4674    0.6042 H   0  0  0  0  0  0  0  0  0  0  0  0
   -2.7060    0.5109   -1.0411 H   0  0  0  0  0  0  0  0  0  0  0  0
   -1.8773    2.1823   -0.7277 H   0  0  0  0  0  0  0  0  0  0  0  0
   -2.0836   -0.1960    1.2638 H   0  0  0  0  0  0  0  0  0  0  0  0
   -1.2565    1.4545    1.5677 H   0  0  0  0  0  0  0  0  0  0  0  0
   -0.4508   -1.7290   -0.0487 H   0  0  0  0  0  0  0  0  0  0  0  0
   -0.4057   -1.1721   -1.7891 H   0  0  0  0  0  0  0  0  0  0  0  0
  1  2  3  0
  2  3  1  0
  3  4  1  0
  4  5  1  0
  5  6  1  0
  6  7  1  0
  5  8  1  0
  8  3  1  0
  7  5  1  0
  1  9  1  0
  3 10  1  0
  4 11  1  0
  4 12  1  0
  6 13  1  0
  6 14  1  0
  7 15  1  0
  7 16  1  0
  8 17  1  0
  8 18  1  0
M  END
