
     RDKit          3D

 21 21  0  0  0  0  0  0  0  0999 V2000
    2.7994    1.7126    0.2970 C   0  0  0  0  0  0  0  0  0  0  0  0
    1.8274    1.2808   -0.2845 C   0  0  0  0  0  0  0  0  0  0  0  0
    0.6649    0.7373   -0.9795 C   0  0  0  0  0  0  0  0  0  0  0  0
    0.0591   -0.3627   -0.1484 C   0  0  0  0  0  0  0  0  0  0  0  0
    0.9947   -1.4994    0.1177 C   0  0  0  0  0  0  0  0  0  0  0  0
   -0.4755    0.1684    1.1721 C   0  0  0  0  0  0  0  0  0  0  0  0
   -1.8218    0.7075    0.8501 C   0  0  0  0  0  0  0  0  0  0  0  0
   -2.2299    0.1412   -0.2711 C   0  0  0  0  0  0  0  0  0  0  0  0
   -1.2248   -0.8121   -0.8015 C   0  0  0  0  0  0  0  0  0  0  0  0
    3.6557    2.0736    0.8106 H   0  0  0  0  0  0  0  0  0  0  0  0
   -0.0972    1.5383   -1.0656 H   0  0  0  0  0  0  0  0  0  0  0  0
    0.8969    0.3744   -1.9804 H   0  0  0  0  0  0  0  0  0  0  0  0
    1.1416   -2.1557   -0.7782 H   0  0  0  0  0  0  0  0  0  0  0  0
    1.9460   -1.1287    0.4993 H   0  0  0  0  0  0  0  0  0  0  0  0
    0.5184   -2.1499    0.8841 H   0  0  0  0  0  0  0  0  0  0  0  0
   -0.6522   -0.7428    1.8136 H   0  0  0  0  0  0  0  0  0  0  0  0
    0.1889    0.8978    1.6408 H   0  0  0  0  0  0  0  0  0  0  0  0
   -2.3611    1.4306    1.4325 H   0  0  0  0  0  0  0  0  0  0  0  0
   -3.1977    0.3374   -0.7719 H   0  0  0  0  0  0  0  0  0  0  0  0
   -1.5156   -1.8430   -0.5206 H   0  0  0  0  0  0  0  0  0  0  0  0
   -1.1173   -0.7058   -1.9162 H   0  0  0  0  0  0  0  0  0  0  0  0
  1  2  3  0
  2  3  1  0
  3  4  1  0
  4  5  1  0
  4  6  1  0
  6  7  1  0
  7  8  2  0
  8  9  1  0
  9  4  1  0
  1 10  1  0
  3 11  1  0
  3 12  1  0
  5 13  1  0
  5 14  1  0
  5 15  1  0
  6 16  1  0
  6 17  1  0
  7 18  1  0
  8 19  1  0
  9 20  1  0
  9 21  1  0
M  END
