
     RDKit          3D

 19 20  0  0  0  0  0  0  0  0999 V2000
    0.7468    2.6032    0.4222 C   0  0  0  0  0  0  0  0  0  0  0  0
    0.3228    1.5111    0.1542 C   0  0  0  0  0  0  0  0  0  0  0  0
   -0.2196    0.1643   -0.1590 C   0  0  0  0  0  0  0  0  0  0  0  0
   -1.5782    0.0770   -0.2190 O   0  0  0  0  0  0  0  0  0  0  0  0
   -2.1690    0.4325    0.9849 C   0  0  0  0  0  0  0  0  0  0  0  0
    0.5331   -0.3848   -1.3510 C   0  0  0  0  0  0  0  0  0  0  0  0
    1.7153   -0.4347   -0.4185 C   0  0  0  0  0  0  0  0  0  0  0  0
    0.5717   -0.9407    0.4190 C   0  0  0  0  0  0  0  0  0  0  0  0
    0.1745   -1.7368   -0.8097 C   0  0  0  0  0  0  0  0  0  0  0  0
    1.1373    3.5753    0.6558 H   0  0  0  0  0  0  0  0  0  0  0  0
   -1.8466   -0.2129    1.8217 H   0  0  0  0  0  0  0  0  0  0  0  0
   -1.9115    1.4696    1.2880 H   0  0  0  0  0  0  0  0  0  0  0  0
   -3.2665    0.4324    0.8198 H   0  0  0  0  0  0  0  0  0  0  0  0
    0.5096   -0.0537   -2.2874 H   0  0  0  0  0  0  0  0  0  0  0  0
    2.1153    0.5533   -0.1199 H   0  0  0  0  0  0  0  0  0  0  0  0
    2.4402   -1.2313   -0.6143 H   0  0  0  0  0  0  0  0  0  0  0  0
    0.6077   -1.2907    1.3543 H   0  0  0  0  0  0  0  0  0  0  0  0
    0.9743   -2.4742   -1.0596 H   0  0  0  0  0  0  0  0  0  0  0  0
   -0.8573   -2.0589   -0.8813 H   0  0  0  0  0  0  0  0  0  0  0  0
  1  2  3  0
  2  3  1  0
  3  4  1  0
  4  5  1  0
  3  6  1  0
  6  7  1  0
  7  8  1  0
  8  9  1  0
  8  3  1  0
  9  6  1  0
  1 10  1  0
  5 11  1  0
  5 12  1  0
  5 13  1  0
  6 14  1  0
  7 15  1  0
  7 16  1  0
  8 17  1  0
  9 18  1  0
  9 19  1  0
M  END
