
     RDKit          3D

 21 21  0  0  0  0  0  0  0  0999 V2000
   -0.0253    2.8507   -0.9822 C   0  0  0  0  0  0  0  0  0  0  0  0
   -0.1229    1.5714   -0.6492 C   0  0  0  0  0  0  0  0  0  0  0  0
   -0.2083    0.1398   -0.2807 C   0  0  0  0  0  0  0  0  0  0  0  0
    0.8454   -0.6154   -0.1088 O   0  0  0  0  0  0  0  0  0  0  0  0
    1.8331   -0.2847    0.7730 C   0  0  0  0  0  0  0  0  0  0  0  0
    2.8680   -1.4244    0.7583 C   0  0  0  0  0  0  0  0  0  0  0  0
   -1.3096    0.1791    0.9275 C   0  0  0  0  0  0  0  0  0  0  0  0
   -1.5982   -0.5139   -0.3240 C   0  0  0  0  0  0  0  0  0  0  0  0
   -2.5613   -0.0802   -1.3784 C   0  0  0  0  0  0  0  0  0  0  0  0
    0.0154    3.5402   -1.1596 H   0  0  0  0  0  0  0  0  0  0  0  0
    2.3247    0.6949    0.5450 H   0  0  0  0  0  0  0  0  0  0  0  0
    1.4152   -0.2447    1.7969 H   0  0  0  0  0  0  0  0  0  0  0  0
    3.8887   -0.9951    0.6286 H   0  0  0  0  0  0  0  0  0  0  0  0
    2.8580   -1.9009    1.7370 H   0  0  0  0  0  0  0  0  0  0  0  0
    2.5941   -2.1502   -0.0510 H   0  0  0  0  0  0  0  0  0  0  0  0
   -1.0186   -0.3056    1.8531 H   0  0  0  0  0  0  0  0  0  0  0  0
   -1.6603    1.2239    1.0949 H   0  0  0  0  0  0  0  0  0  0  0  0
   -1.6892   -1.6397   -0.1351 H   0  0  0  0  0  0  0  0  0  0  0  0
   -2.1824   -0.4703   -2.3682 H   0  0  0  0  0  0  0  0  0  0  0  0
   -2.7384    1.0157   -1.4335 H   0  0  0  0  0  0  0  0  0  0  0  0
   -3.5280   -0.5908   -1.2436 H   0  0  0  0  0  0  0  0  0  0  0  0
  1  2  3  0
  2  3  1  0
  3  4  1  0
  4  5  1  0
  5  6  1  0
  3  7  1  0
  7  8  1  0
  8  9  1  0
  8  3  1  0
  1 10  1  0
  5 11  1  0
  5 12  1  0
  6 13  1  0
  6 14  1  0
  6 15  1  0
  7 16  1  0
  7 17  1  0
  8 18  1  0
  9 19  1  0
  9 20  1  0
  9 21  1  0
M  END
