
     RDKit          3D

 16 16  0  0  0  0  0  0  0  0999 V2000
    2.5994   -0.4953    0.2627 C   0  0  0  0  0  0  0  0  0  0  0  0
    1.4446   -0.7147   -0.0423 C   0  0  0  0  0  0  0  0  0  0  0  0
    0.0430   -0.9627   -0.3928 C   0  0  0  0  0  0  0  0  0  0  0  0
   -0.4338    0.2176   -1.2397 C   0  0  0  0  0  0  0  0  0  0  0  0
   -0.5357    1.3093   -0.2070 C   0  0  0  0  0  0  0  0  0  0  0  0
   -0.6839    0.6422    1.1158 C   0  0  0  0  0  0  0  0  0  0  0  0
   -0.6806    1.2254    2.1626 O   0  0  0  0  0  0  0  0  0  0  0  0
   -0.8251   -0.8066    0.8341 C   0  0  0  0  0  0  0  0  0  0  0  0
    3.6059   -0.2937    0.5339 H   0  0  0  0  0  0  0  0  0  0  0  0
   -0.0807   -1.9165   -0.8951 H   0  0  0  0  0  0  0  0  0  0  0  0
    0.3559    0.4117   -1.9933 H   0  0  0  0  0  0  0  0  0  0  0  0
   -1.4144   -0.0044   -1.7140 H   0  0  0  0  0  0  0  0  0  0  0  0
    0.3734    1.9718   -0.1955 H   0  0  0  0  0  0  0  0  0  0  0  0
   -1.4227    1.9451   -0.4582 H   0  0  0  0  0  0  0  0  0  0  0  0
   -0.4805   -1.4399    1.6747 H   0  0  0  0  0  0  0  0  0  0  0  0
   -1.8650   -1.0895    0.5540 H   0  0  0  0  0  0  0  0  0  0  0  0
  1  2  3  0
  2  3  1  0
  3  4  1  0
  4  5  1  0
  5  6  1  0
  6  7  2  0
  6  8  1  0
  8  3  1  0
  1  9  1  0
  3 10  1  0
  4 11  1  0
  4 12  1  0
  5 13  1  0
  5 14  1  0
  8 15  1  0
  8 16  1  0
M  END
