
     RDKit          3D

 15 16  0  0  0  0  0  0  0  0999 V2000
    2.6011   -0.2878   -0.6619 C   0  0  0  0  0  0  0  0  0  0  0  0
    1.6632   -0.1693    0.1126 C   0  0  0  0  0  0  0  0  0  0  0  0
    0.5331   -0.0181    1.0784 C   0  0  0  0  0  0  0  0  0  0  0  0
    0.2875   -1.1388    1.7164 O   0  0  0  0  0  0  0  0  0  0  0  0
   -0.6419   -1.0194    0.8176 C   0  0  0  0  0  0  0  0  0  0  0  0
   -0.6873   -0.7015   -0.6439 C   0  0  0  0  0  0  0  0  0  0  0  0
   -0.9559    0.8216   -0.5035 C   0  0  0  0  0  0  0  0  0  0  0  0
   -0.2494    1.1541    0.7609 C   0  0  0  0  0  0  0  0  0  0  0  0
   -0.3384    2.1822    1.3535 O   0  0  0  0  0  0  0  0  0  0  0  0
    3.4153   -0.4079   -1.3271 H   0  0  0  0  0  0  0  0  0  0  0  0
   -1.6396   -0.7202    1.2763 H   0  0  0  0  0  0  0  0  0  0  0  0
   -1.5803   -1.1504   -1.1042 H   0  0  0  0  0  0  0  0  0  0  0  0
    0.2421   -0.8754   -1.1862 H   0  0  0  0  0  0  0  0  0  0  0  0
   -2.0569    0.9632   -0.3185 H   0  0  0  0  0  0  0  0  0  0  0  0
   -0.5925    1.3677   -1.3705 H   0  0  0  0  0  0  0  0  0  0  0  0
  1  2  3  0
  2  3  1  0
  3  4  1  0
  4  5  1  0
  5  6  1  0
  6  7  1  0
  7  8  1  0
  8  9  2  0
  5  3  1  0
  8  3  1  0
  1 10  1  0
  5 11  1  0
  6 12  1  0
  6 13  1  0
  7 14  1  0
  7 15  1  0
M  END
