
     RDKit          3D

 12 11  0  0  0  0  0  0  0  0999 V2000
    3.0601    0.5489    0.0765 C   0  0  0  0  0  0  0  0  0  0  0  0
    1.9107   -0.6825   -0.2093 C   0  0  0  0  0  0  0  0  0  0  0  0
    1.3080   -1.3323   -0.3611 C   0  0  0  0  0  0  0  0  0  0  0  0
   -0.1161   -0.4739    0.0706 C   0  0  0  0  0  0  0  0  0  0  0  0
   -1.2035    0.1836    0.3775 C   0  0  0  0  0  0  0  0  0  0  0  0
   -2.1941    0.8040    0.6603 C   0  0  0  0  0  0  0  0  0  0  0  0
    3.8275    1.3487    0.2521 H   0  0  0  0  0  0  0  0  0  0  0  0
    0.8295   -2.4272   -0.0778 H   0  0  0  0  0  0  0  0  0  0  0  0
    0.6970   -1.3182   -1.6782 H   0  0  0  0  0  0  0  0  0  0  0  0
   -2.1907    1.7443    1.3747 H   0  0  0  0  0  0  0  0  0  0  0  0
   -3.1659    0.2727    1.0375 H   0  0  0  0  0  0  0  0  0  0  0  0
   -2.7625    1.3319   -0.2923 H   0  0  0  0  0  0  0  0  0  0  0  0
  1  2  3  0
  2  3  1  0
  3  4  1  0
  4  5  3  0
  5  6  1  0
  1  7  1  0
  3  8  1  0
  3  9  1  0
  6 10  1  0
  6 11  1  0
  6 12  1  0
M  END
