
     RDKit          3D

 19 20  0  0  0  0  0  0  0  0999 V2000
    2.5467   -1.1583   -1.7493 C   0  0  0  0  0  0  0  0  0  0  0  0
    1.7863   -0.9994   -0.8020 C   0  0  0  0  0  0  0  0  0  0  0  0
    0.8696   -0.7893    0.3195 C   0  0  0  0  0  0  0  0  0  0  0  0
   -0.4415   -1.4950   -0.0347 C   0  0  0  0  0  0  0  0  0  0  0  0
   -1.0737   -0.6528   -0.9145 O   0  0  0  0  0  0  0  0  0  0  0  0
   -0.6984    0.6386   -0.6822 C   0  0  0  0  0  0  0  0  0  0  0  0
   -1.5694    1.3282    0.3076 C   0  0  0  0  0  0  0  0  0  0  0  0
   -0.5527    1.0224    1.3980 C   0  0  0  0  0  0  0  0  0  0  0  0
    0.4205    0.6474    0.3270 C   0  0  0  0  0  0  0  0  0  0  0  0
    3.2166   -1.2988   -2.5574 H   0  0  0  0  0  0  0  0  0  0  0  0
    1.2986   -1.1371    1.2558 H   0  0  0  0  0  0  0  0  0  0  0  0
   -1.0330   -1.7001    0.8764 H   0  0  0  0  0  0  0  0  0  0  0  0
   -0.1501   -2.4353   -0.5488 H   0  0  0  0  0  0  0  0  0  0  0  0
   -0.4598    1.2350   -1.5874 H   0  0  0  0  0  0  0  0  0  0  0  0
   -2.5364    0.8413    0.5620 H   0  0  0  0  0  0  0  0  0  0  0  0
   -1.7105    2.4073    0.1075 H   0  0  0  0  0  0  0  0  0  0  0  0
   -0.2715    1.9569    1.9270 H   0  0  0  0  0  0  0  0  0  0  0  0
   -0.8542    0.2075    2.0841 H   0  0  0  0  0  0  0  0  0  0  0  0
    1.2130    1.3816    0.1895 H   0  0  0  0  0  0  0  0  0  0  0  0
  1  2  3  0
  2  3  1  0
  3  4  1  0
  4  5  1  0
  5  6  1  0
  6  7  1  0
  7  8  1  0
  8  9  1  0
  9  3  1  0
  9  6  1  0
  1 10  1  0
  3 11  1  0
  4 12  1  0
  4 13  1  0
  6 14  1  0
  7 15  1  0
  7 16  1  0
  8 17  1  0
  8 18  1  0
  9 19  1  0
M  END
