
     RDKit          3D

 19 18  0  0  0  0  0  0  0  0999 V2000
   -0.7590    1.5707   -2.3603 C   0  0  0  0  0  0  0  0  0  0  0  0
   -0.3986    0.7940   -1.5214 C   0  0  0  0  0  0  0  0  0  0  0  0
    0.0490   -0.1691   -0.5166 C   0  0  0  0  0  0  0  0  0  0  0  0
   -1.0787   -1.1515   -0.2466 C   0  0  0  0  0  0  0  0  0  0  0  0
   -1.3936   -1.8047   -1.4357 O   0  0  0  0  0  0  0  0  0  0  0  0
    0.3476    0.6147    0.7631 C   0  0  0  0  0  0  0  0  0  0  0  0
    1.3431    1.5174    0.4133 O   0  0  0  0  0  0  0  0  0  0  0  0
    0.8999   -0.2941    1.8344 C   0  0  0  0  0  0  0  0  0  0  0  0
    1.9959   -1.0068    1.3983 O   0  0  0  0  0  0  0  0  0  0  0  0
   -1.0854    2.2561   -3.1281 H   0  0  0  0  0  0  0  0  0  0  0  0
    0.8985   -0.7617   -0.8475 H   0  0  0  0  0  0  0  0  0  0  0  0
   -1.9479   -0.5649    0.1369 H   0  0  0  0  0  0  0  0  0  0  0  0
   -0.7634   -1.8912    0.4811 H   0  0  0  0  0  0  0  0  0  0  0  0
   -2.3342   -1.5566   -1.6623 H   0  0  0  0  0  0  0  0  0  0  0  0
   -0.5337    1.1668    1.0814 H   0  0  0  0  0  0  0  0  0  0  0  0
    0.9459    2.2665   -0.0886 H   0  0  0  0  0  0  0  0  0  0  0  0
    0.1076   -0.9741    2.1582 H   0  0  0  0  0  0  0  0  0  0  0  0
    1.1837    0.3564    2.7068 H   0  0  0  0  0  0  0  0  0  0  0  0
    2.5231   -0.3681    0.8337 H   0  0  0  0  0  0  0  0  0  0  0  0
  1  2  3  0
  2  3  1  0
  3  4  1  0
  4  5  1  0
  3  6  1  0
  6  7  1  0
  6  8  1  0
  8  9  1  0
  1 10  1  0
  3 11  1  0
  4 12  1  0
  4 13  1  0
  5 14  1  0
  6 15  1  0
  7 16  1  0
  8 17  1  0
  8 18  1  0
  9 19  1  0
M  END
