
     RDKit          3D

 19 20  0  0  0  0  0  0  0  0999 V2000
    3.4229    0.3402   -0.6031 C   0  0  0  0  0  0  0  0  0  0  0  0
    2.2677    0.2737   -0.2123 C   0  0  0  0  0  0  0  0  0  0  0  0
    0.8997    0.2022    0.2634 C   0  0  0  0  0  0  0  0  0  0  0  0
    0.4133   -1.2390    0.3590 C   0  0  0  0  0  0  0  0  0  0  0  0
   -0.9643   -1.1044   -0.2849 C   0  0  0  0  0  0  0  0  0  0  0  0
   -1.8400   -0.1835    0.5059 C   0  0  0  0  0  0  0  0  0  0  0  0
   -1.3111    1.2080    0.1283 C   0  0  0  0  0  0  0  0  0  0  0  0
   -0.0840    0.8017   -0.6854 C   0  0  0  0  0  0  0  0  0  0  0  0
   -0.6260   -0.2937   -1.3886 O   0  0  0  0  0  0  0  0  0  0  0  0
    4.4298    0.3867   -0.9392 H   0  0  0  0  0  0  0  0  0  0  0  0
    0.8538    0.7067    1.2531 H   0  0  0  0  0  0  0  0  0  0  0  0
    1.0556   -1.8340   -0.2988 H   0  0  0  0  0  0  0  0  0  0  0  0
    0.3546   -1.5956    1.3987 H   0  0  0  0  0  0  0  0  0  0  0  0
   -1.4043   -2.0502   -0.5634 H   0  0  0  0  0  0  0  0  0  0  0  0
   -1.7761   -0.3545    1.5984 H   0  0  0  0  0  0  0  0  0  0  0  0
   -2.8808   -0.3193    0.1992 H   0  0  0  0  0  0  0  0  0  0  0  0
   -1.0576    1.7884    1.0112 H   0  0  0  0  0  0  0  0  0  0  0  0
   -2.0413    1.6812   -0.5539 H   0  0  0  0  0  0  0  0  0  0  0  0
    0.2882    1.5855   -1.3274 H   0  0  0  0  0  0  0  0  0  0  0  0
  1  2  3  0
  2  3  1  0
  3  4  1  0
  4  5  1  0
  5  6  1  0
  6  7  1  0
  7  8  1  0
  8  9  1  0
  8  3  1  0
  9  5  1  0
  1 10  1  0
  3 11  1  0
  4 12  1  0
  4 13  1  0
  5 14  1  0
  6 15  1  0
  6 16  1  0
  7 17  1  0
  7 18  1  0
  8 19  1  0
M  END
