
     RDKit          3D

 19 19  0  0  0  0  0  0  0  0999 V2000
    2.8787    1.0612   -0.5657 C   0  0  0  0  0  0  0  0  0  0  0  0
    1.8869    0.4066   -0.3599 C   0  0  0  0  0  0  0  0  0  0  0  0
    0.6637   -0.3762   -0.1190 C   0  0  0  0  0  0  0  0  0  0  0  0
    0.5950   -1.7234   -0.7946 C   0  0  0  0  0  0  0  0  0  0  0  0
    0.1452   -0.2319    1.2952 C   0  0  0  0  0  0  0  0  0  0  0  0
   -0.6004    0.3297    0.0890 C   0  0  0  0  0  0  0  0  0  0  0  0
   -0.6808    1.8199   -0.0724 C   0  0  0  0  0  0  0  0  0  0  0  0
   -1.8727   -0.3549   -0.2401 C   0  0  0  0  0  0  0  0  0  0  0  0
   -2.9181   -0.8967   -0.4978 C   0  0  0  0  0  0  0  0  0  0  0  0
    3.7585    1.6567   -0.7480 H   0  0  0  0  0  0  0  0  0  0  0  0
   -0.3905   -1.8911   -1.3002 H   0  0  0  0  0  0  0  0  0  0  0  0
    1.3612   -1.7558   -1.5971 H   0  0  0  0  0  0  0  0  0  0  0  0
    0.8020   -2.5530   -0.0679 H   0  0  0  0  0  0  0  0  0  0  0  0
   -0.2807   -1.1809    1.7262 H   0  0  0  0  0  0  0  0  0  0  0  0
    0.5648    0.5302    1.9510 H   0  0  0  0  0  0  0  0  0  0  0  0
    0.1484    2.3104    0.4779 H   0  0  0  0  0  0  0  0  0  0  0  0
   -0.5414    2.0557   -1.1448 H   0  0  0  0  0  0  0  0  0  0  0  0
   -1.6826    2.1631    0.2433 H   0  0  0  0  0  0  0  0  0  0  0  0
   -3.8373   -1.3696   -0.7317 H   0  0  0  0  0  0  0  0  0  0  0  0
  1  2  3  0
  2  3  1  0
  3  4  1  0
  3  5  1  0
  5  6  1  0
  6  7  1  0
  6  8  1  0
  8  9  3  0
  6  3  1  0
  1 10  1  0
  4 11  1  0
  4 12  1  0
  4 13  1  0
  5 14  1  0
  5 15  1  0
  7 16  1  0
  7 17  1  0
  7 18  1  0
  9 19  1  0
M  END
