
     RDKit          3D

 17 18  0  0  0  0  0  0  0  0999 V2000
    2.8522    1.2945    1.3560 C   0  0  0  0  0  0  0  0  0  0  0  0
    2.0205    0.8048    0.6662 C   0  0  0  0  0  0  0  0  0  0  0  0
    0.9917    0.2198   -0.1579 C   0  0  0  0  0  0  0  0  0  0  0  0
    0.6617   -1.2490    0.1937 C   0  0  0  0  0  0  0  0  0  0  0  0
   -0.6000   -0.8261   -0.5717 C   0  0  0  0  0  0  0  0  0  0  0  0
   -1.6648    0.0156   -0.1183 C   0  0  0  0  0  0  0  0  0  0  0  0
   -2.3001    1.0140   -1.0288 C   0  0  0  0  0  0  0  0  0  0  0  0
   -1.5432    1.6561   -1.7449 O   0  0  0  0  0  0  0  0  0  0  0  0
   -0.3960    0.3892    0.4338 C   0  0  0  0  0  0  0  0  0  0  0  0
    3.6137    1.7426    1.9720 H   0  0  0  0  0  0  0  0  0  0  0  0
    1.0824    0.3310   -1.2349 H   0  0  0  0  0  0  0  0  0  0  0  0
    1.2340   -1.9863   -0.3537 H   0  0  0  0  0  0  0  0  0  0  0  0
    0.4224   -1.4235    1.2367 H   0  0  0  0  0  0  0  0  0  0  0  0
   -0.2631   -0.5886   -1.6292 H   0  0  0  0  0  0  0  0  0  0  0  0
   -2.4463   -0.5285    0.5001 H   0  0  0  0  0  0  0  0  0  0  0  0
   -3.3725    1.1454   -1.0380 H   0  0  0  0  0  0  0  0  0  0  0  0
   -0.2926    0.0674    1.5187 H   0  0  0  0  0  0  0  0  0  0  0  0
  1  2  3  0
  2  3  1  0
  3  4  1  0
  4  5  1  0
  5  6  1  0
  6  7  1  0
  7  8  2  0
  6  9  1  0
  9  3  1  0
  9  5  1  0
  1 10  1  0
  3 11  1  0
  4 12  1  0
  4 13  1  0
  5 14  1  0
  6 15  1  0
  7 16  1  0
  9 17  1  0
M  END
