
     RDKit          3D

 14 14  0  0  0  0  0  0  0  0999 V2000
    2.8298    0.8613   -0.9826 C   0  0  0  0  0  0  0  0  0  0  0  0
    1.9020    0.1598   -0.6086 C   0  0  0  0  0  0  0  0  0  0  0  0
    0.7897   -0.6880   -0.1671 C   0  0  0  0  0  0  0  0  0  0  0  0
   -0.2967    0.1628    0.4772 C   0  0  0  0  0  0  0  0  0  0  0  0
   -1.5218   -0.4573    1.0033 C   0  0  0  0  0  0  0  0  0  0  0  0
   -1.5755    0.3894   -0.2610 C   0  0  0  0  0  0  0  0  0  0  0  0
    3.6440    1.4665   -1.2916 H   0  0  0  0  0  0  0  0  0  0  0  0
    1.1675   -1.4644    0.5232 H   0  0  0  0  0  0  0  0  0  0  0  0
    0.4008   -1.2288   -1.0660 H   0  0  0  0  0  0  0  0  0  0  0  0
    0.1110    1.0805    0.9645 H   0  0  0  0  0  0  0  0  0  0  0  0
   -1.6928   -1.5430    0.9319 H   0  0  0  0  0  0  0  0  0  0  0  0
   -2.0077    0.0303    1.8986 H   0  0  0  0  0  0  0  0  0  0  0  0
   -1.6573   -0.1412   -1.2270 H   0  0  0  0  0  0  0  0  0  0  0  0
   -2.0929    1.3720   -0.1947 H   0  0  0  0  0  0  0  0  0  0  0  0
  1  2  3  0
  2  3  1  0
  3  4  1  0
  4  5  1  0
  5  6  1  0
  6  4  1  0
  1  7  1  0
  3  8  1  0
  3  9  1  0
  4 10  1  0
  5 11  1  0
  5 12  1  0
  6 13  1  0
  6 14  1  0
M  END
