
     RDKit          3D

 19 20  0  0  0  0  0  0  0  0999 V2000
    3.3463   -0.0268    0.5385 C   0  0  0  0  0  0  0  0  0  0  0  0
    2.2026   -0.3371    0.2962 C   0  0  0  0  0  0  0  0  0  0  0  0
    0.8398   -0.7198    0.0062 C   0  0  0  0  0  0  0  0  0  0  0  0
    0.0620    0.3460   -0.7465 C   0  0  0  0  0  0  0  0  0  0  0  0
   -1.2773   -0.2944   -0.9175 C   0  0  0  0  0  0  0  0  0  0  0  0
   -1.4467   -0.8939    0.4945 C   0  0  0  0  0  0  0  0  0  0  0  0
   -0.1678   -0.4304    1.1114 C   0  0  0  0  0  0  0  0  0  0  0  0
   -0.1013    1.0219    0.6214 C   0  0  0  0  0  0  0  0  0  0  0  0
   -1.3512    1.5957    0.7576 O   0  0  0  0  0  0  0  0  0  0  0  0
    4.3522    0.2484    0.7701 H   0  0  0  0  0  0  0  0  0  0  0  0
    0.7408   -1.7424   -0.4005 H   0  0  0  0  0  0  0  0  0  0  0  0
    0.5281    0.8859   -1.5197 H   0  0  0  0  0  0  0  0  0  0  0  0
   -2.0847    0.4500   -1.1184 H   0  0  0  0  0  0  0  0  0  0  0  0
   -1.3367   -1.0581   -1.6898 H   0  0  0  0  0  0  0  0  0  0  0  0
   -1.3959   -2.0013    0.3912 H   0  0  0  0  0  0  0  0  0  0  0  0
   -2.3542   -0.5260    0.9677 H   0  0  0  0  0  0  0  0  0  0  0  0
    0.0844   -0.6374    2.1103 H   0  0  0  0  0  0  0  0  0  0  0  0
    0.7600    1.5883    0.9646 H   0  0  0  0  0  0  0  0  0  0  0  0
   -1.4003    2.5315    0.4651 H   0  0  0  0  0  0  0  0  0  0  0  0
  1  2  3  0
  2  3  1  0
  3  4  1  0
  4  5  1  0
  5  6  1  0
  6  7  1  0
  7  8  1  0
  8  9  1  0
  7  3  1  0
  8  4  1  0
  1 10  1  0
  3 11  1  0
  4 12  1  0
  5 13  1  0
  5 14  1  0
  6 15  1  0
  6 16  1  0
  7 17  1  0
  8 18  1  0
  9 19  1  0
M  END
