
     RDKit          3D

 17 16  0  0  0  0  0  0  0  0999 V2000
    2.7163   -0.4625   -0.7655 C   0  0  0  0  0  0  0  0  0  0  0  0
    1.7790    0.1921   -0.4017 C   0  0  0  0  0  0  0  0  0  0  0  0
    0.6317    0.9960    0.0197 C   0  0  0  0  0  0  0  0  0  0  0  0
    0.9243    1.7218    1.1779 O   0  0  0  0  0  0  0  0  0  0  0  0
   -0.6001    0.1542    0.2072 C   0  0  0  0  0  0  0  0  0  0  0  0
   -0.4555   -0.8429    1.3259 C   0  0  0  0  0  0  0  0  0  0  0  0
   -0.8528   -0.5559   -0.9832 O   0  0  0  0  0  0  0  0  0  0  0  0
   -2.0164   -0.3339   -1.7187 C   0  0  0  0  0  0  0  0  0  0  0  0
   -2.8079    0.5350   -1.2436 O   0  0  0  0  0  0  0  0  0  0  0  0
    3.5509   -1.0661   -1.0872 H   0  0  0  0  0  0  0  0  0  0  0  0
    0.4274    1.7116   -0.8011 H   0  0  0  0  0  0  0  0  0  0  0  0
    1.6717    1.3271    1.6918 H   0  0  0  0  0  0  0  0  0  0  0  0
   -1.4421    0.8643    0.4218 H   0  0  0  0  0  0  0  0  0  0  0  0
    0.5408   -1.3347    1.2531 H   0  0  0  0  0  0  0  0  0  0  0  0
   -1.2201   -1.6426    1.2205 H   0  0  0  0  0  0  0  0  0  0  0  0
   -0.6163   -0.3903    2.3262 H   0  0  0  0  0  0  0  0  0  0  0  0
   -2.2310   -0.8733   -2.6432 H   0  0  0  0  0  0  0  0  0  0  0  0
  1  2  3  0
  2  3  1  0
  3  4  1  0
  3  5  1  0
  5  6  1  0
  5  7  1  0
  7  8  1  0
  8  9  2  0
  1 10  1  0
  3 11  1  0
  4 12  1  0
  5 13  1  0
  6 14  1  0
  6 15  1  0
  6 16  1  0
  8 17  1  0
M  END
