
     RDKit          3D

 19 19  0  0  0  0  0  0  0  0999 V2000
   -1.7627    1.8099   -1.5454 C   0  0  0  0  0  0  0  0  0  0  0  0
   -1.6641    0.7252   -1.3262 C   0  0  0  0  0  0  0  0  0  0  0  0
   -1.5650   -0.3468   -1.1030 C   0  0  0  0  0  0  0  0  0  0  0  0
   -0.5900   -0.1318    0.3113 C   0  0  0  0  0  0  0  0  0  0  0  0
   -1.1863    0.2585    1.4814 O   0  0  0  0  0  0  0  0  0  0  0  0
    0.3562    1.1549   -0.0706 C   0  0  0  0  0  0  0  0  0  0  0  0
    0.9383   -0.0573    0.2370 C   0  0  0  0  0  0  0  0  0  0  0  0
    1.4122   -1.0085   -0.7456 O   0  0  0  0  0  0  0  0  0  0  0  0
    2.2113   -1.8606   -0.2479 C   0  0  0  0  0  0  0  0  0  0  0  0
   -1.8811    3.4089   -1.8758 H   0  0  0  0  0  0  0  0  0  0  0  0
   -2.0312   -1.2924   -1.0492 H   0  0  0  0  0  0  0  0  0  0  0  0
   -2.7452   -0.1489   -0.1424 H   0  0  0  0  0  0  0  0  0  0  0  0
   -0.6613    0.8483    2.0077 H   0  0  0  0  0  0  0  0  0  0  0  0
    0.1300    2.0284    0.5673 H   0  0  0  0  0  0  0  0  0  0  0  0
    0.2848    1.4822   -1.1407 H   0  0  0  0  0  0  0  0  0  0  0  0
    1.3098   -0.5283    1.2253 H   0  0  0  0  0  0  0  0  0  0  0  0
    1.8180   -2.2271    0.8074 H   0  0  0  0  0  0  0  0  0  0  0  0
    2.4738   -2.8080   -0.8053 H   0  0  0  0  0  0  0  0  0  0  0  0
    3.1525   -1.3065    0.0892 H   0  0  0  0  0  0  0  0  0  0  0  0
  1  2  3  0
  2  3  1  0
  3  4  1  0
  4  5  1  0
  4  6  1  0
  6  7  1  0
  7  8  1  0
  8  9  1  0
  7  4  1  0
  1 10  1  0
  3 11  1  0
  3 12  1  0
  5 13  1  0
  6 14  1  0
  6 15  1  0
  7 16  1  0
  9 17  1  0
  9 18  1  0
  9 19  1  0
M  END
