
     RDKit          3D

 21 21  0  0  0  0  0  0  0  0999 V2000
    3.1563   -1.1278   -0.5630 C   0  0  0  0  0  0  0  0  0  0  0  0
    2.1462   -0.6651   -0.1239 C   0  0  0  0  0  0  0  0  0  0  0  0
    0.8950   -0.0685    0.4085 C   0  0  0  0  0  0  0  0  0  0  0  0
    0.9701    1.3124    0.9770 C   0  0  0  0  0  0  0  0  0  0  0  0
    0.0559   -0.9448    1.0473 O   0  0  0  0  0  0  0  0  0  0  0  0
   -0.3646   -0.5821   -0.2258 C   0  0  0  0  0  0  0  0  0  0  0  0
   -0.2202   -1.7162   -1.2370 C   0  0  0  0  0  0  0  0  0  0  0  0
   -1.4460    0.4145   -0.4243 C   0  0  0  0  0  0  0  0  0  0  0  0
   -1.9579    1.0709    0.8077 C   0  0  0  0  0  0  0  0  0  0  0  0
    4.0487   -1.5470   -0.9501 H   0  0  0  0  0  0  0  0  0  0  0  0
    0.6786    2.0691    0.2185 H   0  0  0  0  0  0  0  0  0  0  0  0
    2.0595    1.5179    1.1779 H   0  0  0  0  0  0  0  0  0  0  0  0
    0.4580    1.4211    1.9410 H   0  0  0  0  0  0  0  0  0  0  0  0
    0.8017   -2.1137   -1.1605 H   0  0  0  0  0  0  0  0  0  0  0  0
   -0.9134   -2.5344   -0.9293 H   0  0  0  0  0  0  0  0  0  0  0  0
   -0.5064   -1.4005   -2.2565 H   0  0  0  0  0  0  0  0  0  0  0  0
   -2.2887   -0.1080   -0.9629 H   0  0  0  0  0  0  0  0  0  0  0  0
   -1.1376    1.2265   -1.1447 H   0  0  0  0  0  0  0  0  0  0  0  0
   -1.6080    2.1166    0.9390 H   0  0  0  0  0  0  0  0  0  0  0  0
   -1.7462    0.4978    1.7399 H   0  0  0  0  0  0  0  0  0  0  0  0
   -3.0809    1.1614    0.7212 H   0  0  0  0  0  0  0  0  0  0  0  0
  1  2  3  0
  2  3  1  0
  3  4  1  0
  3  5  1  0
  5  6  1  0
  6  7  1  0
  6  8  1  0
  8  9  1  0
  6  3  1  0
  1 10  1  0
  4 11  1  0
  4 12  1  0
  4 13  1  0
  7 14  1  0
  7 15  1  0
  7 16  1  0
  8 17  1  0
  8 18  1  0
  9 19  1  0
  9 20  1  0
  9 21  1  0
M  END
