
     RDKit          3D

 16 16  0  0  0  0  0  0  0  0999 V2000
    2.5478    1.5057   -1.0710 C   0  0  0  0  0  0  0  0  0  0  0  0
    1.5038    1.4462   -0.4715 C   0  0  0  0  0  0  0  0  0  0  0  0
    0.2586    1.3784    0.2724 C   0  0  0  0  0  0  0  0  0  0  0  0
   -0.5465    0.1888   -0.1953 C   0  0  0  0  0  0  0  0  0  0  0  0
    0.1729   -1.1102   -0.0006 C   0  0  0  0  0  0  0  0  0  0  0  0
   -0.8944   -2.0011    0.1278 O   0  0  0  0  0  0  0  0  0  0  0  0
   -1.7107   -1.2830    1.0215 C   0  0  0  0  0  0  0  0  0  0  0  0
   -1.6914    0.0241    0.5812 O   0  0  0  0  0  0  0  0  0  0  0  0
    3.4566    1.5612   -1.6135 H   0  0  0  0  0  0  0  0  0  0  0  0
   -0.3523    2.2923    0.1402 H   0  0  0  0  0  0  0  0  0  0  0  0
    0.4305    1.2615    1.3563 H   0  0  0  0  0  0  0  0  0  0  0  0
   -0.8184    0.2636   -1.2700 H   0  0  0  0  0  0  0  0  0  0  0  0
    0.8479   -1.3730   -0.8378 H   0  0  0  0  0  0  0  0  0  0  0  0
    0.7220   -1.1550    0.9797 H   0  0  0  0  0  0  0  0  0  0  0  0
   -2.7358   -1.6687    1.0609 H   0  0  0  0  0  0  0  0  0  0  0  0
   -1.1906   -1.3309    2.0234 H   0  0  0  0  0  0  0  0  0  0  0  0
  1  2  3  0
  2  3  1  0
  3  4  1  0
  4  5  1  0
  5  6  1  0
  6  7  1  0
  7  8  1  0
  8  4  1  0
  1  9  1  0
  3 10  1  0
  3 11  1  0
  4 12  1  0
  5 13  1  0
  5 14  1  0
  7 15  1  0
  7 16  1  0
M  END
