
     RDKit          3D

 17 18  0  0  0  0  0  0  0  0999 V2000
    1.5064    2.1451    0.8846 C   0  0  0  0  0  0  0  0  0  0  0  0
    1.1759    1.5415   -0.0686 C   0  0  0  0  0  0  0  0  0  0  0  0
    0.7690    0.8160   -1.2611 C   0  0  0  0  0  0  0  0  0  0  0  0
   -0.1704   -0.3106   -0.9085 C   0  0  0  0  0  0  0  0  0  0  0  0
   -1.3939    0.1829   -0.2465 C   0  0  0  0  0  0  0  0  0  0  0  0
   -1.5369   -0.4031    0.9293 C   0  0  0  0  0  0  0  0  0  0  0  0
   -0.4233   -1.3443    1.1670 C   0  0  0  0  0  0  0  0  0  0  0  0
   -0.4786   -2.4358    0.1722 O   0  0  0  0  0  0  0  0  0  0  0  0
    0.4319   -1.2613    0.0964 C   0  0  0  0  0  0  0  0  0  0  0  0
    1.8292    2.6986    1.7583 H   0  0  0  0  0  0  0  0  0  0  0  0
    0.2393    1.5069   -1.9491 H   0  0  0  0  0  0  0  0  0  0  0  0
    1.6448    0.4198   -1.8020 H   0  0  0  0  0  0  0  0  0  0  0  0
   -0.3857   -0.9015   -1.8245 H   0  0  0  0  0  0  0  0  0  0  0  0
   -2.0853    0.9401   -0.6918 H   0  0  0  0  0  0  0  0  0  0  0  0
   -2.3481   -0.2208    1.6167 H   0  0  0  0  0  0  0  0  0  0  0  0
   -0.2286   -1.7176    2.1920 H   0  0  0  0  0  0  0  0  0  0  0  0
    1.4543   -1.6558   -0.0644 H   0  0  0  0  0  0  0  0  0  0  0  0
  1  2  3  0
  2  3  1  0
  3  4  1  0
  4  5  1  0
  5  6  2  0
  6  7  1  0
  7  8  1  0
  8  9  1  0
  9  4  1  0
  9  7  1  0
  1 10  1  0
  3 11  1  0
  3 12  1  0
  4 13  1  0
  5 14  1  0
  6 15  1  0
  7 16  1  0
  9 17  1  0
M  END
