
     RDKit          3D

 19 19  0  0  0  0  0  0  0  0999 V2000
   -0.7955    2.7250   -0.6518 C   0  0  0  0  0  0  0  0  0  0  0  0
   -0.3004    1.3312   -0.2087 C   0  0  0  0  0  0  0  0  0  0  0  0
    0.1390    0.1530    0.1562 C   0  0  0  0  0  0  0  0  0  0  0  0
    1.5295   -0.2588   -0.0055 C   0  0  0  0  0  0  0  0  0  0  0  0
    2.0998   -0.2210   -1.3521 C   0  0  0  0  0  0  0  0  0  0  0  0
    1.5886    0.2882   -2.3005 O   0  0  0  0  0  0  0  0  0  0  0  0
   -0.4306   -0.3289    1.5174 C   0  0  0  0  0  0  0  0  0  0  0  0
   -1.7596   -0.4188    0.7266 C   0  0  0  0  0  0  0  0  0  0  0  0
   -0.8941   -0.9266   -0.4788 C   0  0  0  0  0  0  0  0  0  0  0  0
   -1.0900    3.5090   -0.9040 H   0  0  0  0  0  0  0  0  0  0  0  0
    1.6041   -1.3237    0.4219 H   0  0  0  0  0  0  0  0  0  0  0  0
    2.1384    0.3092    0.7180 H   0  0  0  0  0  0  0  0  0  0  0  0
    3.1191   -0.7515   -1.4122 H   0  0  0  0  0  0  0  0  0  0  0  0
   -0.3712    0.4112    2.2800 H   0  0  0  0  0  0  0  0  0  0  0  0
   -0.1803   -1.3470    1.7404 H   0  0  0  0  0  0  0  0  0  0  0  0
   -2.2476    0.5288    0.5573 H   0  0  0  0  0  0  0  0  0  0  0  0
   -2.3773   -1.2664    1.0436 H   0  0  0  0  0  0  0  0  0  0  0  0
   -0.5372   -1.9170   -0.4096 H   0  0  0  0  0  0  0  0  0  0  0  0
   -1.2347   -0.4961   -1.4382 H   0  0  0  0  0  0  0  0  0  0  0  0
  1  2  3  0
  2  3  1  0
  3  4  1  0
  4  5  1  0
  5  6  2  0
  3  7  1  0
  7  8  1  0
  8  9  1  0
  9  3  1  0
  1 10  1  0
  4 11  1  0
  4 12  1  0
  5 13  1  0
  7 14  1  0
  7 15  1  0
  8 16  1  0
  8 17  1  0
  9 18  1  0
  9 19  1  0
M  END
