
     RDKit          3D

 21 21  0  0  0  0  0  0  0  0999 V2000
    1.8385    1.5622    1.8559 C   0  0  0  0  0  0  0  0  0  0  0  0
    1.2086    0.5458    1.6126 C   0  0  0  0  0  0  0  0  0  0  0  0
    0.4314   -0.6651    1.3078 C   0  0  0  0  0  0  0  0  0  0  0  0
   -0.9781   -0.5956    1.7763 C   0  0  0  0  0  0  0  0  0  0  0  0
   -1.3633   -0.9824    0.4721 O   0  0  0  0  0  0  0  0  0  0  0  0
   -0.1668   -0.5682   -0.0921 C   0  0  0  0  0  0  0  0  0  0  0  0
    0.5382   -1.4761   -1.0242 C   0  0  0  0  0  0  0  0  0  0  0  0
   -0.2730    0.8513   -0.5978 C   0  0  0  0  0  0  0  0  0  0  0  0
   -0.8637    0.9075   -1.9871 C   0  0  0  0  0  0  0  0  0  0  0  0
    2.3780    2.4258    2.0450 H   0  0  0  0  0  0  0  0  0  0  0  0
    0.9160   -1.6189    1.5521 H   0  0  0  0  0  0  0  0  0  0  0  0
   -1.3103   -1.3873    2.4730 H   0  0  0  0  0  0  0  0  0  0  0  0
   -1.3820    0.3910    2.0797 H   0  0  0  0  0  0  0  0  0  0  0  0
    1.0355   -0.8310   -1.8142 H   0  0  0  0  0  0  0  0  0  0  0  0
   -0.1273   -2.1507   -1.6030 H   0  0  0  0  0  0  0  0  0  0  0  0
    1.3272   -2.0389   -0.5056 H   0  0  0  0  0  0  0  0  0  0  0  0
   -0.9502    1.3900    0.1213 H   0  0  0  0  0  0  0  0  0  0  0  0
    0.7178    1.3492   -0.6323 H   0  0  0  0  0  0  0  0  0  0  0  0
   -1.4372    0.0053   -2.2357 H   0  0  0  0  0  0  0  0  0  0  0  0
   -1.4692    1.8561   -2.0361 H   0  0  0  0  0  0  0  0  0  0  0  0
   -0.0701    1.0298   -2.7678 H   0  0  0  0  0  0  0  0  0  0  0  0
  1  2  3  0
  2  3  1  0
  3  4  1  0
  4  5  1  0
  5  6  1  0
  6  7  1  0
  6  8  1  0
  8  9  1  0
  6  3  1  0
  1 10  1  0
  3 11  1  0
  4 12  1  0
  4 13  1  0
  7 14  1  0
  7 15  1  0
  7 16  1  0
  8 17  1  0
  8 18  1  0
  9 19  1  0
  9 20  1  0
  9 21  1  0
M  END
