
     RDKit          3D

 17 17  0  0  0  0  0  0  0  0999 V2000
    3.4019   -0.9896   -0.2905 C   0  0  0  0  0  0  0  0  0  0  0  0
    2.2370   -0.9857    0.0609 C   0  0  0  0  0  0  0  0  0  0  0  0
    0.8326   -0.9798    0.4966 C   0  0  0  0  0  0  0  0  0  0  0  0
    0.4510    0.2162    1.0547 O   0  0  0  0  0  0  0  0  0  0  0  0
   -0.6060    0.3196    0.1656 C   0  0  0  0  0  0  0  0  0  0  0  0
   -0.4840    1.6352   -0.5991 C   0  0  0  0  0  0  0  0  0  0  0  0
   -1.9714    0.0395    0.7212 C   0  0  0  0  0  0  0  0  0  0  0  0
   -0.1167   -0.8001   -0.6444 C   0  0  0  0  0  0  0  0  0  0  0  0
   -0.2717   -1.3969   -1.6830 O   0  0  0  0  0  0  0  0  0  0  0  0
    4.4156   -0.9763   -0.6006 H   0  0  0  0  0  0  0  0  0  0  0  0
    0.5864   -1.8257    1.1647 H   0  0  0  0  0  0  0  0  0  0  0  0
    0.1296    1.5383   -1.5039 H   0  0  0  0  0  0  0  0  0  0  0  0
   -0.1383    2.4622    0.0788 H   0  0  0  0  0  0  0  0  0  0  0  0
   -1.5245    1.8797   -0.9290 H   0  0  0  0  0  0  0  0  0  0  0  0
   -2.7121    0.3452   -0.0553 H   0  0  0  0  0  0  0  0  0  0  0  0
   -2.1681    0.5644    1.6882 H   0  0  0  0  0  0  0  0  0  0  0  0
   -2.0613   -1.0462    0.8750 H   0  0  0  0  0  0  0  0  0  0  0  0
  1  2  3  0
  2  3  1  0
  3  4  1  0
  4  5  1  0
  5  6  1  0
  5  7  1  0
  5  8  1  0
  8  9  2  0
  8  3  1  0
  1 10  1  0
  3 11  1  0
  6 12  1  0
  6 13  1  0
  6 14  1  0
  7 15  1  0
  7 16  1  0
  7 17  1  0
M  END
