
     RDKit          3D

 18 18  0  0  0  0  0  0  0  0999 V2000
    2.6189   -0.1584   -1.5441 C   0  0  0  0  0  0  0  0  0  0  0  0
    1.7680   -0.5781   -0.7925 C   0  0  0  0  0  0  0  0  0  0  0  0
    0.7402   -1.0652    0.1265 C   0  0  0  0  0  0  0  0  0  0  0  0
   -0.3193   -0.0051    0.2721 C   0  0  0  0  0  0  0  0  0  0  0  0
    0.2391    1.2719    0.8132 C   0  0  0  0  0  0  0  0  0  0  0  0
   -1.5918   -0.5026    0.8800 C   0  0  0  0  0  0  0  0  0  0  0  0
   -2.0449   -0.8224   -0.4165 O   0  0  0  0  0  0  0  0  0  0  0  0
   -1.2140    0.1962   -0.9084 C   0  0  0  0  0  0  0  0  0  0  0  0
    3.3539    0.2206   -2.2133 H   0  0  0  0  0  0  0  0  0  0  0  0
    0.2836   -1.9701   -0.3136 H   0  0  0  0  0  0  0  0  0  0  0  0
    1.1455   -1.3322    1.1188 H   0  0  0  0  0  0  0  0  0  0  0  0
   -0.4937    2.0853    0.8695 H   0  0  0  0  0  0  0  0  0  0  0  0
    0.6619    1.1124    1.8237 H   0  0  0  0  0  0  0  0  0  0  0  0
    1.0750    1.5803    0.1431 H   0  0  0  0  0  0  0  0  0  0  0  0
   -1.4800   -1.4637    1.4495 H   0  0  0  0  0  0  0  0  0  0  0  0
   -2.2129    0.2397    1.4089 H   0  0  0  0  0  0  0  0  0  0  0  0
   -0.7802    0.0180   -1.8976 H   0  0  0  0  0  0  0  0  0  0  0  0
   -1.7493    1.1732   -0.8193 H   0  0  0  0  0  0  0  0  0  0  0  0
  1  2  3  0
  2  3  1  0
  3  4  1  0
  4  5  1  0
  4  6  1  0
  6  7  1  0
  7  8  1  0
  8  4  1  0
  1  9  1  0
  3 10  1  0
  3 11  1  0
  5 12  1  0
  5 13  1  0
  5 14  1  0
  6 15  1  0
  6 16  1  0
  8 17  1  0
  8 18  1  0
M  END
