
     RDKit          3D

 21 21  0  0  0  0  0  0  0  0999 V2000
    2.7936    1.3289    1.1725 C   0  0  0  0  0  0  0  0  0  0  0  0
    1.9606    0.7847    0.3063 C   0  0  0  0  0  0  0  0  0  0  0  0
    1.0216    0.1970   -0.6702 C   0  0  0  0  0  0  0  0  0  0  0  0
    1.8587   -1.0641   -1.0955 C   0  0  0  0  0  0  0  0  0  0  0  0
   -0.1746   -0.2907    0.1763 C   0  0  0  0  0  0  0  0  0  0  0  0
   -1.3305   -0.9066   -0.5749 C   0  0  0  0  0  0  0  0  0  0  0  0
   -2.2029    0.2627   -0.1462 C   0  0  0  0  0  0  0  0  0  0  0  0
   -3.2084   -0.0118    0.7811 O   0  0  0  0  0  0  0  0  0  0  0  0
   -1.0287    0.8497    0.5654 C   0  0  0  0  0  0  0  0  0  0  0  0
    3.4776    1.7964    1.8840 H   0  0  0  0  0  0  0  0  0  0  0  0
    0.7769    0.8917   -1.4132 H   0  0  0  0  0  0  0  0  0  0  0  0
    2.7994   -0.6894   -1.5035 H   0  0  0  0  0  0  0  0  0  0  0  0
    2.0191   -1.5558   -0.0489 H   0  0  0  0  0  0  0  0  0  0  0  0
    1.3896   -1.7297   -1.7764 H   0  0  0  0  0  0  0  0  0  0  0  0
    0.1416   -0.8844    1.0967 H   0  0  0  0  0  0  0  0  0  0  0  0
   -1.6635   -1.8888   -0.1217 H   0  0  0  0  0  0  0  0  0  0  0  0
   -1.1848   -0.9568   -1.7017 H   0  0  0  0  0  0  0  0  0  0  0  0
   -2.6088    0.8244   -0.9714 H   0  0  0  0  0  0  0  0  0  0  0  0
   -2.9202    0.2333    1.7125 H   0  0  0  0  0  0  0  0  0  0  0  0
   -0.6986    1.8675    0.2267 H   0  0  0  0  0  0  0  0  0  0  0  0
   -1.2176    0.9419    1.6919 H   0  0  0  0  0  0  0  0  0  0  0  0
  1  2  3  0
  2  3  1  0
  3  4  1  0
  3  5  1  0
  5  6  1  0
  6  7  1  0
  7  8  1  0
  7  9  1  0
  9  5  1  0
  1 10  1  0
  3 11  1  0
  4 12  1  0
  4 13  1  0
  4 14  1  0
  5 15  1  0
  6 16  1  0
  6 17  1  0
  7 18  1  0
  8 19  1  0
  9 20  1  0
  9 21  1  0
M  END
