
     RDKit          3D

 19 18  0  0  0  0  0  0  0  0999 V2000
   -0.9439   -2.9042    1.0137 C   0  0  0  0  0  0  0  0  0  0  0  0
   -1.1384   -1.7656    0.1420 C   0  0  0  0  0  0  0  0  0  0  0  0
   -1.3916   -0.4502   -0.8642 C   0  0  0  0  0  0  0  0  0  0  0  0
   -2.0349   -1.0035   -1.6093 O   0  0  0  0  0  0  0  0  0  0  0  0
   -0.6091    0.5328   -0.1191 C   0  0  0  0  0  0  0  0  0  0  0  0
   -0.9041    1.9504   -0.6171 C   0  0  0  0  0  0  0  0  0  0  0  0
    0.9136    0.3491   -0.1460 C   0  0  0  0  0  0  0  0  0  0  0  0
    1.3480   -0.7985    0.6663 C   0  0  0  0  0  0  0  0  0  0  0  0
    1.5864    1.5468    0.0662 O   0  0  0  0  0  0  0  0  0  0  0  0
   -0.7800   -3.7531    1.6688 H   0  0  0  0  0  0  0  0  0  0  0  0
   -0.7915    0.5507    1.0564 H   0  0  0  0  0  0  0  0  0  0  0  0
    0.0417    2.5226   -0.5712 H   0  0  0  0  0  0  0  0  0  0  0  0
   -1.6043    2.4471    0.0466 H   0  0  0  0  0  0  0  0  0  0  0  0
   -1.3381    1.8628   -1.6490 H   0  0  0  0  0  0  0  0  0  0  0  0
    1.1843    0.0537   -1.2312 H   0  0  0  0  0  0  0  0  0  0  0  0
    0.6896   -0.8371    1.5852 H   0  0  0  0  0  0  0  0  0  0  0  0
    2.3518   -0.4559    1.1441 H   0  0  0  0  0  0  0  0  0  0  0  0
    1.4617   -1.7666    0.1868 H   0  0  0  0  0  0  0  0  0  0  0  0
    1.9588    1.9185   -0.7689 H   0  0  0  0  0  0  0  0  0  0  0  0
  1  2  3  0
  2  3  1  0
  3  4  2  0
  3  5  1  0
  5  6  1  0
  5  7  1  0
  7  8  1  0
  7  9  1  0
  1 10  1  0
  5 11  1  0
  6 12  1  0
  6 13  1  0
  6 14  1  0
  7 15  1  0
  8 16  1  0
  8 17  1  0
  8 18  1  0
  9 19  1  0
M  END
