
     RDKit          3D

 17 18  0  0  0  0  0  0  0  0999 V2000
    2.4774   -0.7908    1.2152 C   0  0  0  0  0  0  0  0  0  0  0  0
    1.4561   -0.1506    1.0551 C   0  0  0  0  0  0  0  0  0  0  0  0
    0.2240    0.6178    0.8876 C   0  0  0  0  0  0  0  0  0  0  0  0
    0.4322    1.7046    0.0208 O   0  0  0  0  0  0  0  0  0  0  0  0
   -0.0891    1.3482   -1.2413 C   0  0  0  0  0  0  0  0  0  0  0  0
    0.0344   -0.1261   -1.1847 C   0  0  0  0  0  0  0  0  0  0  0  0
   -0.7894   -1.1874   -0.8011 C   0  0  0  0  0  0  0  0  0  0  0  0
   -1.9323   -1.4403   -1.5976 O   0  0  0  0  0  0  0  0  0  0  0  0
   -0.7971   -0.1710    0.1653 C   0  0  0  0  0  0  0  0  0  0  0  0
    3.3815   -1.3401    1.3606 H   0  0  0  0  0  0  0  0  0  0  0  0
   -0.1511    1.0316    1.8318 H   0  0  0  0  0  0  0  0  0  0  0  0
   -1.1268    1.7370   -1.2548 H   0  0  0  0  0  0  0  0  0  0  0  0
    0.5367    1.7585   -2.0622 H   0  0  0  0  0  0  0  0  0  0  0  0
    1.1462   -0.3450   -1.0675 H   0  0  0  0  0  0  0  0  0  0  0  0
   -0.3509   -2.1852   -0.5009 H   0  0  0  0  0  0  0  0  0  0  0  0
   -2.7000   -0.9072   -1.3310 H   0  0  0  0  0  0  0  0  0  0  0  0
   -1.7520    0.4461    0.1590 H   0  0  0  0  0  0  0  0  0  0  0  0
  1  2  3  0
  2  3  1  0
  3  4  1  0
  4  5  1  0
  5  6  1  0
  6  7  1  0
  7  8  1  0
  7  9  1  0
  9  3  1  0
  9  6  1  0
  1 10  1  0
  3 11  1  0
  5 12  1  0
  5 13  1  0
  6 14  1  0
  7 15  1  0
  8 16  1  0
  9 17  1  0
M  END
