
     RDKit          3D

 21 20  0  0  0  0  0  0  0  0999 V2000
    2.9367   -0.7537    0.2777 C   0  0  0  0  0  0  0  0  0  0  0  0
    2.2563   -0.0602   -0.4132 C   0  0  0  0  0  0  0  0  0  0  0  0
    1.4496    0.7936   -1.2372 C   0  0  0  0  0  0  0  0  0  0  0  0
    0.0137    0.7971   -0.9493 C   0  0  0  0  0  0  0  0  0  0  0  0
   -0.6582    1.5404   -1.6764 O   0  0  0  0  0  0  0  0  0  0  0  0
   -0.6806    0.0303    0.0832 C   0  0  0  0  0  0  0  0  0  0  0  0
   -0.5108   -1.4701   -0.0798 C   0  0  0  0  0  0  0  0  0  0  0  0
   -2.1732    0.2882    0.0494 C   0  0  0  0  0  0  0  0  0  0  0  0
   -0.1956    0.5000    1.4341 C   0  0  0  0  0  0  0  0  0  0  0  0
    3.5396   -1.3775    0.9162 H   0  0  0  0  0  0  0  0  0  0  0  0
    1.5692    0.4390   -2.3028 H   0  0  0  0  0  0  0  0  0  0  0  0
    1.7994    1.8661   -1.1834 H   0  0  0  0  0  0  0  0  0  0  0  0
    0.3847   -1.7312   -0.6796 H   0  0  0  0  0  0  0  0  0  0  0  0
   -1.3749   -1.8747   -0.6471 H   0  0  0  0  0  0  0  0  0  0  0  0
   -0.4567   -1.9994    0.8877 H   0  0  0  0  0  0  0  0  0  0  0  0
   -2.4810    0.2265   -1.0130 H   0  0  0  0  0  0  0  0  0  0  0  0
   -2.6993   -0.4769    0.6745 H   0  0  0  0  0  0  0  0  0  0  0  0
   -2.4343    1.2752    0.4874 H   0  0  0  0  0  0  0  0  0  0  0  0
    0.8416    0.8893    1.4140 H   0  0  0  0  0  0  0  0  0  0  0  0
   -0.8291    1.3591    1.7379 H   0  0  0  0  0  0  0  0  0  0  0  0
   -0.2971   -0.2610    2.2199 H   0  0  0  0  0  0  0  0  0  0  0  0
  1  2  3  0
  2  3  1  0
  3  4  1  0
  4  5  2  0
  4  6  1  0
  6  7  1  0
  6  8  1  0
  6  9  1  0
  1 10  1  0
  3 11  1  0
  3 12  1  0
  7 13  1  0
  7 14  1  0
  7 15  1  0
  8 16  1  0
  8 17  1  0
  8 18  1  0
  9 19  1  0
  9 20  1  0
  9 21  1  0
M  END
