
     RDKit          3D

 21 20  0  0  0  0  0  0  0  0999 V2000
    2.4801   -1.3253   -1.1584 C   0  0  0  0  0  0  0  0  0  0  0  0
    1.7687   -0.4746   -0.6456 C   0  0  0  0  0  0  0  0  0  0  0  0
    0.9088    0.5561   -0.0531 C   0  0  0  0  0  0  0  0  0  0  0  0
    1.4174    0.8563    1.2927 C   0  0  0  0  0  0  0  0  0  0  0  0
    1.8363    1.9627    1.5857 O   0  0  0  0  0  0  0  0  0  0  0  0
   -0.5283    0.0963   -0.0449 C   0  0  0  0  0  0  0  0  0  0  0  0
   -0.7479   -1.1562    0.7359 C   0  0  0  0  0  0  0  0  0  0  0  0
   -0.9182   -0.1857   -1.4786 C   0  0  0  0  0  0  0  0  0  0  0  0
   -1.3653    1.1926    0.5646 C   0  0  0  0  0  0  0  0  0  0  0  0
    3.0824   -2.0684   -1.6102 H   0  0  0  0  0  0  0  0  0  0  0  0
    0.9443    1.4826   -0.6626 H   0  0  0  0  0  0  0  0  0  0  0  0
    1.4376    0.0884    2.0862 H   0  0  0  0  0  0  0  0  0  0  0  0
   -1.0210   -0.9831    1.7953 H   0  0  0  0  0  0  0  0  0  0  0  0
    0.1315   -1.8425    0.6428 H   0  0  0  0  0  0  0  0  0  0  0  0
   -1.6020   -1.7011    0.2810 H   0  0  0  0  0  0  0  0  0  0  0  0
   -0.3444    0.4713   -2.1519 H   0  0  0  0  0  0  0  0  0  0  0  0
   -2.0060   -0.1402   -1.6498 H   0  0  0  0  0  0  0  0  0  0  0  0
   -0.6202   -1.2459   -1.6797 H   0  0  0  0  0  0  0  0  0  0  0  0
   -2.4186    1.1132    0.1841 H   0  0  0  0  0  0  0  0  0  0  0  0
   -1.4409    1.1132    1.6623 H   0  0  0  0  0  0  0  0  0  0  0  0
   -0.9942    2.1903    0.3043 H   0  0  0  0  0  0  0  0  0  0  0  0
  1  2  3  0
  2  3  1  0
  3  4  1  0
  4  5  2  0
  3  6  1  0
  6  7  1  0
  6  8  1  0
  6  9  1  0
  1 10  1  0
  3 11  1  0
  4 12  1  0
  7 13  1  0
  7 14  1  0
  7 15  1  0
  8 16  1  0
  8 17  1  0
  8 18  1  0
  9 19  1  0
  9 20  1  0
  9 21  1  0
M  END
