
     RDKit          3D

 19 20  0  0  0  0  0  0  0  0999 V2000
    2.6140    0.9383   -2.2649 C   0  0  0  0  0  0  0  0  0  0  0  0
    1.4878    0.5954   -1.9520 C   0  0  0  0  0  0  0  0  0  0  0  0
    0.1364    0.1686   -1.5682 C   0  0  0  0  0  0  0  0  0  0  0  0
   -0.0211    0.2043   -0.0694 C   0  0  0  0  0  0  0  0  0  0  0  0
    0.8646   -0.6330    0.7907 C   0  0  0  0  0  0  0  0  0  0  0  0
   -0.3699   -1.1237    1.5308 C   0  0  0  0  0  0  0  0  0  0  0  0
   -1.2105   -0.2729    0.6136 C   0  0  0  0  0  0  0  0  0  0  0  0
   -2.3205   -0.7860   -0.0054 O   0  0  0  0  0  0  0  0  0  0  0  0
   -0.9308    1.1705    0.5909 C   0  0  0  0  0  0  0  0  0  0  0  0
    3.5901    1.2535   -2.5305 H   0  0  0  0  0  0  0  0  0  0  0  0
   -0.0703   -0.8235   -1.9966 H   0  0  0  0  0  0  0  0  0  0  0  0
   -0.5533    0.9380   -2.0038 H   0  0  0  0  0  0  0  0  0  0  0  0
    1.5788   -0.0797    1.4498 H   0  0  0  0  0  0  0  0  0  0  0  0
    1.3779   -1.4805    0.3343 H   0  0  0  0  0  0  0  0  0  0  0  0
   -0.5675   -2.1918    1.4669 H   0  0  0  0  0  0  0  0  0  0  0  0
   -0.3546   -0.7743    2.5820 H   0  0  0  0  0  0  0  0  0  0  0  0
   -3.1189   -0.5258    0.5195 H   0  0  0  0  0  0  0  0  0  0  0  0
   -0.6069    1.6106    1.5696 H   0  0  0  0  0  0  0  0  0  0  0  0
   -1.5254    1.8119   -0.0955 H   0  0  0  0  0  0  0  0  0  0  0  0
  1  2  3  0
  2  3  1  0
  3  4  1  0
  4  5  1  0
  5  6  1  0
  6  7  1  0
  7  8  1  0
  7  9  1  0
  7  4  1  0
  9  4  1  0
  1 10  1  0
  3 11  1  0
  3 12  1  0
  5 13  1  0
  5 14  1  0
  6 15  1  0
  6 16  1  0
  8 17  1  0
  9 18  1  0
  9 19  1  0
M  END
