
     RDKit          3D

 16 15  0  0  0  0  0  0  0  0999 V2000
    1.9433    1.1945    1.7072 C   0  0  0  0  0  0  0  0  0  0  0  0
    1.4781    1.1260    0.6978 C   0  0  0  0  0  0  0  0  0  0  0  0
    0.8715    1.0275   -0.5762 C   0  0  0  0  0  0  0  0  0  0  0  0
    0.6788   -0.4064   -1.0204 C   0  0  0  0  0  0  0  0  0  0  0  0
    1.8093   -1.1541   -1.0582 O   0  0  0  0  0  0  0  0  0  0  0  0
   -0.5030   -0.8492   -0.3458 C   0  0  0  0  0  0  0  0  0  0  0  0
   -1.5534   -1.2211    0.2411 C   0  0  0  0  0  0  0  0  0  0  0  0
   -2.7381   -1.6441    0.9119 C   0  0  0  0  0  0  0  0  0  0  0  0
    2.4681    1.2936    2.8680 H   0  0  0  0  0  0  0  0  0  0  0  0
    0.3096    1.7761   -1.0675 H   0  0  0  0  0  0  0  0  0  0  0  0
    1.9697    1.1997   -1.2607 H   0  0  0  0  0  0  0  0  0  0  0  0
    0.3610   -0.2455   -2.1501 H   0  0  0  0  0  0  0  0  0  0  0  0
    2.2420   -1.0467   -1.9953 H   0  0  0  0  0  0  0  0  0  0  0  0
   -2.7208   -2.7353    0.8558 H   0  0  0  0  0  0  0  0  0  0  0  0
   -3.6313   -1.2059    0.3098 H   0  0  0  0  0  0  0  0  0  0  0  0
   -2.9847   -1.2114    1.8827 H   0  0  0  0  0  0  0  0  0  0  0  0
  1  2  3  0
  2  3  1  0
  3  4  1  0
  4  5  1  0
  4  6  1  0
  6  7  3  0
  7  8  1  0
  1  9  1  0
  3 10  1  0
  3 11  1  0
  4 12  1  0
  5 13  1  0
  8 14  1  0
  8 15  1  0
  8 16  1  0
M  END
