
     RDKit          3D

 19 19  0  0  0  0  0  0  0  0999 V2000
    1.4383    2.2871    0.9494 C   0  0  0  0  0  0  0  0  0  0  0  0
    1.0983    1.1666    0.8445 C   0  0  0  0  0  0  0  0  0  0  0  0
    0.6812   -0.2291    0.7390 C   0  0  0  0  0  0  0  0  0  0  0  0
    0.6183   -0.8588    2.0060 O   0  0  0  0  0  0  0  0  0  0  0  0
    1.4497   -0.9958   -0.2779 C   0  0  0  0  0  0  0  0  0  0  0  0
    0.2096   -1.1028   -1.1234 C   0  0  0  0  0  0  0  0  0  0  0  0
   -0.5804   -0.4674   -0.0182 C   0  0  0  0  0  0  0  0  0  0  0  0
   -1.3290    0.7657   -0.5047 C   0  0  0  0  0  0  0  0  0  0  0  0
   -2.4957    0.3225   -1.1852 O   0  0  0  0  0  0  0  0  0  0  0  0
    1.7493    3.3357    1.0309 H   0  0  0  0  0  0  0  0  0  0  0  0
   -0.2985   -0.5791    2.3374 H   0  0  0  0  0  0  0  0  0  0  0  0
    2.3032   -0.4619   -0.7497 H   0  0  0  0  0  0  0  0  0  0  0  0
    1.7856   -1.9593    0.1717 H   0  0  0  0  0  0  0  0  0  0  0  0
   -0.1027   -2.1470   -1.3582 H   0  0  0  0  0  0  0  0  0  0  0  0
    0.2577   -0.5205   -2.0705 H   0  0  0  0  0  0  0  0  0  0  0  0
   -1.2679   -1.2286    0.4438 H   0  0  0  0  0  0  0  0  0  0  0  0
   -1.6749    1.2974    0.4042 H   0  0  0  0  0  0  0  0  0  0  0  0
   -0.7140    1.4393   -1.1131 H   0  0  0  0  0  0  0  0  0  0  0  0
   -3.1278   -0.0639   -0.5259 H   0  0  0  0  0  0  0  0  0  0  0  0
  1  2  3  0
  2  3  1  0
  3  4  1  0
  3  5  1  0
  5  6  1  0
  6  7  1  0
  7  8  1  0
  8  9  1  0
  7  3  1  0
  1 10  1  0
  4 11  1  0
  5 12  1  0
  5 13  1  0
  6 14  1  0
  6 15  1  0
  7 16  1  0
  8 17  1  0
  8 18  1  0
  9 19  1  0
M  END
