
     RDKit          3D

 15 14  0  0  0  0  0  0  0  0999 V2000
    3.9341   -0.3151    1.2600 C   0  0  0  0  0  0  0  0  0  0  0  0
    2.8611   -0.0660    0.7731 C   0  0  0  0  0  0  0  0  0  0  0  0
    1.6077    0.2479    0.1993 C   0  0  0  0  0  0  0  0  0  0  0  0
    0.5310    0.5084   -0.2745 C   0  0  0  0  0  0  0  0  0  0  0  0
   -0.7691    0.8438   -0.8612 C   0  0  0  0  0  0  0  0  0  0  0  0
   -0.6768    1.0886   -2.2334 O   0  0  0  0  0  0  0  0  0  0  0  0
   -1.6736   -0.3680   -0.7000 C   0  0  0  0  0  0  0  0  0  0  0  0
   -1.8125   -0.6678    0.7113 C   0  0  0  0  0  0  0  0  0  0  0  0
   -1.9128   -0.9340    1.9029 C   0  0  0  0  0  0  0  0  0  0  0  0
    4.8714   -0.5161    1.6909 H   0  0  0  0  0  0  0  0  0  0  0  0
   -1.2675    1.6731   -0.3224 H   0  0  0  0  0  0  0  0  0  0  0  0
    0.1267    0.7029   -2.6383 H   0  0  0  0  0  0  0  0  0  0  0  0
   -1.1805   -1.1921   -1.2648 H   0  0  0  0  0  0  0  0  0  0  0  0
   -2.6512   -0.0876   -1.1660 H   0  0  0  0  0  0  0  0  0  0  0  0
   -1.9880   -1.1755    2.9231 H   0  0  0  0  0  0  0  0  0  0  0  0
  1  2  3  0
  2  3  1  0
  3  4  3  0
  4  5  1  0
  5  6  1  0
  5  7  1  0
  7  8  1  0
  8  9  3  0
  1 10  1  0
  5 11  1  0
  6 12  1  0
  7 13  1  0
  7 14  1  0
  9 15  1  0
M  END
