
     RDKit          3D

 15 14  0  0  0  0  0  0  0  0999 V2000
    2.4860   -0.6830    0.6946 C   0  0  0  0  0  0  0  0  0  0  0  0
    1.4435   -0.4988    0.1169 C   0  0  0  0  0  0  0  0  0  0  0  0
    0.1711   -0.2898   -0.5746 C   0  0  0  0  0  0  0  0  0  0  0  0
    0.2965   -0.6363   -1.9360 O   0  0  0  0  0  0  0  0  0  0  0  0
   -0.8570   -1.1449    0.0200 C   0  0  0  0  0  0  0  0  0  0  0  0
   -1.7097   -1.8532    0.5363 C   0  0  0  0  0  0  0  0  0  0  0  0
   -0.2339    1.1616   -0.5123 C   0  0  0  0  0  0  0  0  0  0  0  0
   -0.3895    1.5954    0.8876 C   0  0  0  0  0  0  0  0  0  0  0  0
   -0.2082    0.8579    1.8249 O   0  0  0  0  0  0  0  0  0  0  0  0
    3.3928   -0.8432    1.2171 H   0  0  0  0  0  0  0  0  0  0  0  0
   -0.6170   -0.8811   -2.2353 H   0  0  0  0  0  0  0  0  0  0  0  0
   -2.4585   -2.4636    0.9752 H   0  0  0  0  0  0  0  0  0  0  0  0
   -1.1766    1.2874   -1.0717 H   0  0  0  0  0  0  0  0  0  0  0  0
    0.5431    1.7576   -1.0168 H   0  0  0  0  0  0  0  0  0  0  0  0
   -0.6827    2.6339    1.0742 H   0  0  0  0  0  0  0  0  0  0  0  0
  1  2  3  0
  2  3  1  0
  3  4  1  0
  3  5  1  0
  5  6  3  0
  3  7  1  0
  7  8  1  0
  8  9  2  0
  1 10  1  0
  4 11  1  0
  6 12  1  0
  7 13  1  0
  7 14  1  0
  8 15  1  0
M  END
