
     RDKit          3D

 19 19  0  0  0  0  0  0  0  0999 V2000
   -2.2479    2.0747   -0.5479 C   0  0  0  0  0  0  0  0  0  0  0  0
   -1.8480    0.9377   -0.5164 C   0  0  0  0  0  0  0  0  0  0  0  0
   -1.3748   -0.4673   -0.4628 C   0  0  0  0  0  0  0  0  0  0  0  0
   -1.7901   -1.0318    0.8718 C   0  0  0  0  0  0  0  0  0  0  0  0
    0.0831   -0.5242   -0.6690 C   0  0  0  0  0  0  0  0  0  0  0  0
    0.5159   -1.1579   -1.6153 O   0  0  0  0  0  0  0  0  0  0  0  0
    1.0351    0.1643    0.2373 C   0  0  0  0  0  0  0  0  0  0  0  0
    2.4230   -0.4822    0.4121 C   0  0  0  0  0  0  0  0  0  0  0  0
    2.2487    0.7820   -0.4152 C   0  0  0  0  0  0  0  0  0  0  0  0
   -2.5929    3.0758   -0.5927 H   0  0  0  0  0  0  0  0  0  0  0  0
   -1.9073   -1.0335   -1.2402 H   0  0  0  0  0  0  0  0  0  0  0  0
   -2.5510   -0.3852    1.3515 H   0  0  0  0  0  0  0  0  0  0  0  0
   -0.9009   -1.1812    1.4936 H   0  0  0  0  0  0  0  0  0  0  0  0
   -2.3011   -2.0320    0.7480 H   0  0  0  0  0  0  0  0  0  0  0  0
    0.6487    0.7339    1.0877 H   0  0  0  0  0  0  0  0  0  0  0  0
    2.8489   -0.3981    1.4316 H   0  0  0  0  0  0  0  0  0  0  0  0
    2.6087   -1.4335   -0.1147 H   0  0  0  0  0  0  0  0  0  0  0  0
    2.4086    0.6677   -1.5051 H   0  0  0  0  0  0  0  0  0  0  0  0
    2.6932    1.6909    0.0456 H   0  0  0  0  0  0  0  0  0  0  0  0
  1  2  3  0
  2  3  1  0
  3  4  1  0
  3  5  1  0
  5  6  2  0
  5  7  1  0
  7  8  1  0
  8  9  1  0
  9  7  1  0
  1 10  1  0
  3 11  1  0
  4 12  1  0
  4 13  1  0
  4 14  1  0
  7 15  1  0
  8 16  1  0
  8 17  1  0
  9 18  1  0
  9 19  1  0
M  END
