
     RDKit          3D

 13 12  0  0  0  0  0  0  0  0999 V2000
    2.4638   -1.0424   -0.4146 C   0  0  0  0  0  0  0  0  0  0  0  0
    1.2356   -0.6909   -0.0520 C   0  0  0  0  0  0  0  0  0  0  0  0
   -0.0442   -0.3474    0.3150 C   0  0  0  0  0  0  0  0  0  0  0  0
   -1.1822   -1.0962   -0.3447 C   0  0  0  0  0  0  0  0  0  0  0  0
   -0.1438    1.0110   -0.3812 O   0  0  0  0  0  0  0  0  0  0  0  0
   -0.3683    2.1299    0.3538 C   0  0  0  0  0  0  0  0  0  0  0  0
   -0.5093    2.0069    1.6253 O   0  0  0  0  0  0  0  0  0  0  0  0
    3.4686   -1.3326   -0.7310 H   0  0  0  0  0  0  0  0  0  0  0  0
   -0.2102   -0.0813    1.3477 H   0  0  0  0  0  0  0  0  0  0  0  0
   -1.4436   -0.5987   -1.3594 H   0  0  0  0  0  0  0  0  0  0  0  0
   -0.8158   -2.0788   -0.6030 H   0  0  0  0  0  0  0  0  0  0  0  0
   -2.0220   -1.0100    0.3477 H   0  0  0  0  0  0  0  0  0  0  0  0
   -0.4285    3.1303   -0.1037 H   0  0  0  0  0  0  0  0  0  0  0  0
  1  2  3  0
  2  3  1  0
  3  4  1  0
  3  5  1  0
  5  6  1  0
  6  7  2  0
  1  8  1  0
  3  9  1  0
  4 10  1  0
  4 11  1  0
  4 12  1  0
  6 13  1  0
M  END
