
     RDKit          3D

 16 16  0  0  0  0  0  0  0  0999 V2000
    2.4873    0.7940    1.8368 C   0  0  0  0  0  0  0  0  0  0  0  0
    1.5742    0.5028    1.5227 C   0  0  0  0  0  0  0  0  0  0  0  0
    0.1439    0.0444    1.0012 C   0  0  0  0  0  0  0  0  0  0  0  0
   -0.0095    0.9652   -0.2845 C   0  0  0  0  0  0  0  0  0  0  0  0
   -1.4897    0.6917   -0.6129 C   0  0  0  0  0  0  0  0  0  0  0  0
   -1.5980   -0.6201   -0.8259 C   0  0  0  0  0  0  0  0  0  0  0  0
   -0.3229   -1.4226   -0.7124 C   0  0  0  0  0  0  0  0  0  0  0  0
    0.4849   -1.1870    0.3683 O   0  0  0  0  0  0  0  0  0  0  0  0
    3.6220    1.1689    2.2307 H   0  0  0  0  0  0  0  0  0  0  0  0
   -0.5474   -0.0933    1.6501 H   0  0  0  0  0  0  0  0  0  0  0  0
    0.5481    0.5440   -1.1407 H   0  0  0  0  0  0  0  0  0  0  0  0
    0.2299    2.0233   -0.1673 H   0  0  0  0  0  0  0  0  0  0  0  0
   -2.1740    1.4284   -0.5730 H   0  0  0  0  0  0  0  0  0  0  0  0
   -2.5603   -1.0729   -1.0290 H   0  0  0  0  0  0  0  0  0  0  0  0
   -0.6478   -2.5108   -0.7398 H   0  0  0  0  0  0  0  0  0  0  0  0
    0.2593   -1.2560   -1.6594 H   0  0  0  0  0  0  0  0  0  0  0  0
  1  2  3  0
  2  3  1  0
  3  4  1  0
  4  5  1  0
  5  6  2  0
  6  7  1  0
  7  8  1  0
  8  3  1  0
  1  9  1  0
  3 10  1  0
  4 11  1  0
  4 12  1  0
  5 13  1  0
  6 14  1  0
  7 15  1  0
  7 16  1  0
M  END
