
     RDKit          3D

 16 15  0  0  0  0  0  0  0  0999 V2000
    2.9243   -0.3486    0.9668 C   0  0  0  0  0  0  0  0  0  0  0  0
    1.9474   -0.3698    0.2019 C   0  0  0  0  0  0  0  0  0  0  0  0
    0.8069   -0.3734   -0.7093 C   0  0  0  0  0  0  0  0  0  0  0  0
   -0.4167   -0.0615    0.1597 C   0  0  0  0  0  0  0  0  0  0  0  0
   -0.3766    1.1998    0.7710 C   0  0  0  0  0  0  0  0  0  0  0  0
   -0.3443    2.3356    1.2982 C   0  0  0  0  0  0  0  0  0  0  0  0
   -1.7022   -0.5566   -0.4047 C   0  0  0  0  0  0  0  0  0  0  0  0
   -2.0113   -0.0674   -1.6816 O   0  0  0  0  0  0  0  0  0  0  0  0
    3.8005   -0.3193    1.6324 H   0  0  0  0  0  0  0  0  0  0  0  0
    0.9388    0.3226   -1.5237 H   0  0  0  0  0  0  0  0  0  0  0  0
    0.6545   -1.4167   -1.0855 H   0  0  0  0  0  0  0  0  0  0  0  0
   -0.2467   -0.8504    1.0620 H   0  0  0  0  0  0  0  0  0  0  0  0
   -0.3281    3.3241    1.7406 H   0  0  0  0  0  0  0  0  0  0  0  0
   -2.5374   -0.4045    0.3299 H   0  0  0  0  0  0  0  0  0  0  0  0
   -1.6230   -1.6923   -0.4725 H   0  0  0  0  0  0  0  0  0  0  0  0
   -1.4859   -0.7214   -2.2852 H   0  0  0  0  0  0  0  0  0  0  0  0
  1  2  3  0
  2  3  1  0
  3  4  1  0
  4  5  1  0
  5  6  3  0
  4  7  1  0
  7  8  1  0
  1  9  1  0
  3 10  1  0
  3 11  1  0
  4 12  1  0
  6 13  1  0
  7 14  1  0
  7 15  1  0
  8 16  1  0
M  END
