
     RDKit          3D

 19 19  0  0  0  0  0  0  0  0999 V2000
    2.8491    0.2122    0.0285 C   0  0  0  0  0  0  0  0  0  0  0  0
    1.7105    0.3147   -0.4091 C   0  0  0  0  0  0  0  0  0  0  0  0
    0.3537    0.4606   -0.9408 C   0  0  0  0  0  0  0  0  0  0  0  0
    0.1463   -0.4753   -1.9662 O   0  0  0  0  0  0  0  0  0  0  0  0
   -0.3054   -1.5775   -1.2148 C   0  0  0  0  0  0  0  0  0  0  0  0
   -1.2773   -1.0098   -0.3936 O   0  0  0  0  0  0  0  0  0  0  0  0
   -0.6122    0.0989    0.1336 C   0  0  0  0  0  0  0  0  0  0  0  0
   -1.5877    1.2639    0.2922 C   0  0  0  0  0  0  0  0  0  0  0  0
    0.0100   -0.2404    1.4443 C   0  0  0  0  0  0  0  0  0  0  0  0
    3.8384    0.1401    0.4014 H   0  0  0  0  0  0  0  0  0  0  0  0
    0.2090    1.5006   -1.3123 H   0  0  0  0  0  0  0  0  0  0  0  0
   -0.7775   -2.3331   -1.8518 H   0  0  0  0  0  0  0  0  0  0  0  0
    0.5484   -1.9806   -0.6485 H   0  0  0  0  0  0  0  0  0  0  0  0
   -1.0906    2.0276    0.9130 H   0  0  0  0  0  0  0  0  0  0  0  0
   -2.5161    0.8713    0.7823 H   0  0  0  0  0  0  0  0  0  0  0  0
   -1.8675    1.6323   -0.7207 H   0  0  0  0  0  0  0  0  0  0  0  0
    1.0039   -0.7028    1.3841 H   0  0  0  0  0  0  0  0  0  0  0  0
   -0.7104   -0.8997    2.0120 H   0  0  0  0  0  0  0  0  0  0  0  0
    0.0754    0.6971    2.0664 H   0  0  0  0  0  0  0  0  0  0  0  0
  1  2  3  0
  2  3  1  0
  3  4  1  0
  4  5  1  0
  5  6  1  0
  6  7  1  0
  7  8  1  0
  7  9  1  0
  7  3  1  0
  1 10  1  0
  3 11  1  0
  5 12  1  0
  5 13  1  0
  8 14  1  0
  8 15  1  0
  8 16  1  0
  9 17  1  0
  9 18  1  0
  9 19  1  0
M  END
