
     RDKit          3D

 17 16  0  0  0  0  0  0  0  0999 V2000
    0.3977   -2.4479    1.5263 C   0  0  0  0  0  0  0  0  0  0  0  0
    0.3007   -1.8549    0.4414 C   0  0  0  0  0  0  0  0  0  0  0  0
    0.1592   -1.1037   -0.9057 C   0  0  0  0  0  0  0  0  0  0  0  0
   -0.5086    0.1012   -0.3581 C   0  0  0  0  0  0  0  0  0  0  0  0
   -0.1434    1.1213   -1.6741 C   0  0  0  0  0  0  0  0  0  0  0  0
    0.6839    0.4852    0.6058 C   0  0  0  0  0  0  0  0  0  0  0  0
    1.7591    0.8169    1.4979 C   0  0  0  0  0  0  0  0  0  0  0  0
   -1.4562    0.6210    0.3023 C   0  0  0  0  0  0  0  0  0  0  0  0
   -2.3818    1.1142    0.9540 C   0  0  0  0  0  0  0  0  0  0  0  0
    0.4708   -2.8740    2.3188 H   0  0  0  0  0  0  0  0  0  0  0  0
   -0.1845   -1.4268   -1.7711 H   0  0  0  0  0  0  0  0  0  0  0  0
    1.3337   -0.8552   -0.8999 H   0  0  0  0  0  0  0  0  0  0  0  0
    1.0479    1.0392   -1.6827 H   0  0  0  0  0  0  0  0  0  0  0  0
   -0.4339    0.4830   -2.5440 H   0  0  0  0  0  0  0  0  0  0  0  0
   -0.4049    2.1222   -1.6112 H   0  0  0  0  0  0  0  0  0  0  0  0
    2.6336    1.0880    2.2161 H   0  0  0  0  0  0  0  0  0  0  0  0
   -3.2734    1.5704    1.5842 H   0  0  0  0  0  0  0  0  0  0  0  0
  1  2  3  0
  2  3  1  0
  3  4  1  0
  4  5  1  0
  4  6  1  0
  6  7  3  0
  4  8  1  0
  8  9  3  0
  1 10  1  0
  3 11  1  0
  3 12  1  0
  5 13  1  0
  5 14  1  0
  5 15  1  0
  7 16  1  0
  9 17  1  0
M  END
