
     RDKit          3D

 23 22  0  0  0  0  0  0  0  0999 V2000
    2.0282    1.7148    1.7714 C   0  0  0  0  0  0  0  0  0  0  0  0
    2.1514    0.9308    0.7774 C   0  0  0  0  0  0  0  0  0  0  0  0
    2.2673    0.0565   -0.3459 C   0  0  0  0  0  0  0  0  0  0  0  0
    1.1477    0.0499   -1.3284 C   0  0  0  0  0  0  0  0  0  0  0  0
   -0.1533   -0.4530   -0.9610 C   0  0  0  0  0  0  0  0  0  0  0  0
   -0.9678   -0.3138   -2.1612 O   0  0  0  0  0  0  0  0  0  0  0  0
   -1.0064   -0.0263    0.1294 C   0  0  0  0  0  0  0  0  0  0  0  0
   -0.6594   -0.1199    1.5371 C   0  0  0  0  0  0  0  0  0  0  0  0
   -2.3625   -0.7744   -0.0618 C   0  0  0  0  0  0  0  0  0  0  0  0
    1.9467    2.3487    2.5721 H   0  0  0  0  0  0  0  0  0  0  0  0
    2.4703   -0.9785    0.0551 H   0  0  0  0  0  0  0  0  0  0  0  0
    3.2572    0.2995   -0.8579 H   0  0  0  0  0  0  0  0  0  0  0  0
    1.5437   -0.5221   -2.2454 H   0  0  0  0  0  0  0  0  0  0  0  0
    1.1070    1.1044   -1.7877 H   0  0  0  0  0  0  0  0  0  0  0  0
   -0.0680   -1.6173   -0.9427 H   0  0  0  0  0  0  0  0  0  0  0  0
   -1.4610    0.5248   -2.0005 H   0  0  0  0  0  0  0  0  0  0  0  0
   -1.3381    1.0624   -0.0576 H   0  0  0  0  0  0  0  0  0  0  0  0
   -1.5275   -0.6327    2.0985 H   0  0  0  0  0  0  0  0  0  0  0  0
   -0.6382    0.8762    2.0686 H   0  0  0  0  0  0  0  0  0  0  0  0
    0.1926   -0.7327    1.8513 H   0  0  0  0  0  0  0  0  0  0  0  0
   -3.1054   -0.1303    0.4425 H   0  0  0  0  0  0  0  0  0  0  0  0
   -2.2864   -1.7053    0.5639 H   0  0  0  0  0  0  0  0  0  0  0  0
   -2.5381   -0.9619   -1.1172 H   0  0  0  0  0  0  0  0  0  0  0  0
  1  2  3  0
  2  3  1  0
  3  4  1  0
  4  5  1  0
  5  6  1  0
  5  7  1  0
  7  8  1  0
  7  9  1  0
  1 10  1  0
  3 11  1  0
  3 12  1  0
  4 13  1  0
  4 14  1  0
  5 15  1  0
  6 16  1  0
  7 17  1  0
  8 18  1  0
  8 19  1  0
  8 20  1  0
  9 21  1  0
  9 22  1  0
  9 23  1  0
M  END
