
     RDKit          3D

 18 18  0  0  0  0  0  0  0  0999 V2000
   -1.3876    2.5704    0.7655 C   0  0  0  0  0  0  0  0  0  0  0  0
   -1.1889    1.5330    0.1703 C   0  0  0  0  0  0  0  0  0  0  0  0
   -0.9610    0.2815   -0.5299 C   0  0  0  0  0  0  0  0  0  0  0  0
   -1.6693   -0.9256    0.0483 C   0  0  0  0  0  0  0  0  0  0  0  0
   -0.3618   -1.6751   -0.1130 C   0  0  0  0  0  0  0  0  0  0  0  0
    0.3324   -0.3462   -0.0496 C   0  0  0  0  0  0  0  0  0  0  0  0
    1.3895   -0.1770   -0.9357 O   0  0  0  0  0  0  0  0  0  0  0  0
    2.4716    0.2994   -0.1954 C   0  0  0  0  0  0  0  0  0  0  0  0
   -1.5611    3.4700    1.2931 H   0  0  0  0  0  0  0  0  0  0  0  0
   -0.9732    0.3349   -1.6349 H   0  0  0  0  0  0  0  0  0  0  0  0
   -1.9195   -0.7295    1.1057 H   0  0  0  0  0  0  0  0  0  0  0  0
   -2.5058   -1.3093   -0.5676 H   0  0  0  0  0  0  0  0  0  0  0  0
   -0.2566   -2.1137   -1.1413 H   0  0  0  0  0  0  0  0  0  0  0  0
   -0.1276   -2.3904    0.6987 H   0  0  0  0  0  0  0  0  0  0  0  0
    0.5555   -0.0818    1.0066 H   0  0  0  0  0  0  0  0  0  0  0  0
    2.1587    1.2653    0.2615 H   0  0  0  0  0  0  0  0  0  0  0  0
    3.3754    0.4622   -0.7971 H   0  0  0  0  0  0  0  0  0  0  0  0
    2.6295   -0.4682    0.6147 H   0  0  0  0  0  0  0  0  0  0  0  0
  1  2  3  0
  2  3  1  0
  3  4  1  0
  4  5  1  0
  5  6  1  0
  6  7  1  0
  7  8  1  0
  6  3  1  0
  1  9  1  0
  3 10  1  0
  4 11  1  0
  4 12  1  0
  5 13  1  0
  5 14  1  0
  6 15  1  0
  8 16  1  0
  8 17  1  0
  8 18  1  0
M  END
