
     RDKit          3D

 17 16  0  0  0  0  0  0  0  0999 V2000
   -2.7398    0.9466    0.1706 C   0  0  0  0  0  0  0  0  0  0  0  0
   -1.9812    0.0241    0.6400 C   0  0  0  0  0  0  0  0  0  0  0  0
   -1.1760   -0.9279    1.1479 C   0  0  0  0  0  0  0  0  0  0  0  0
    0.0302   -1.2076    0.3506 C   0  0  0  0  0  0  0  0  0  0  0  0
    1.3142   -0.5434    0.2380 C   0  0  0  0  0  0  0  0  0  0  0  0
    1.5844    0.6819   -0.3964 C   0  0  0  0  0  0  0  0  0  0  0  0
    2.6930    1.2516    0.0861 O   0  0  0  0  0  0  0  0  0  0  0  0
    1.0453    1.5010   -1.4407 C   0  0  0  0  0  0  0  0  0  0  0  0
   -0.1761    1.9833   -1.3141 O   0  0  0  0  0  0  0  0  0  0  0  0
   -3.5077    1.8953   -0.3252 H   0  0  0  0  0  0  0  0  0  0  0  0
   -0.5817   -0.2649    2.1026 H   0  0  0  0  0  0  0  0  0  0  0  0
   -1.5851   -1.7273    1.7825 H   0  0  0  0  0  0  0  0  0  0  0  0
   -0.4621   -0.9412   -0.8080 H   0  0  0  0  0  0  0  0  0  0  0  0
    0.0535   -2.3529    0.1970 H   0  0  0  0  0  0  0  0  0  0  0  0
    1.8477   -0.6869    1.2624 H   0  0  0  0  0  0  0  0  0  0  0  0
    1.9845   -1.3540   -0.3571 H   0  0  0  0  0  0  0  0  0  0  0  0
    1.6568    1.7223   -2.3635 H   0  0  0  0  0  0  0  0  0  0  0  0
  1  2  3  0
  2  3  1  0
  3  4  1  0
  4  5  1  0
  5  6  1  0
  6  7  2  0
  6  8  1  0
  8  9  2  0
  1 10  1  0
  3 11  1  0
  3 12  1  0
  4 13  1  0
  4 14  1  0
  5 15  1  0
  5 16  1  0
  8 17  1  0
M  END
