
     RDKit          3D

 16 17  0  0  0  0  0  0  0  0999 V2000
    2.9232   -0.7774   -0.5804 C   0  0  0  0  0  0  0  0  0  0  0  0
    1.7911   -0.4960   -0.3297 C   0  0  0  0  0  0  0  0  0  0  0  0
    0.5326   -0.1766   -0.0410 C   0  0  0  0  0  0  0  0  0  0  0  0
   -0.5976   -0.0408   -1.0114 C   0  0  0  0  0  0  0  0  0  0  0  0
   -1.2219    0.2494    0.3561 C   0  0  0  0  0  0  0  0  0  0  0  0
   -2.4040    0.5389    0.5995 O   0  0  0  0  0  0  0  0  0  0  0  0
   -0.4089   -0.9353    0.8361 C   0  0  0  0  0  0  0  0  0  0  0  0
    0.0313    1.0647    0.6022 C   0  0  0  0  0  0  0  0  0  0  0  0
    3.9550   -1.0234   -0.8024 H   0  0  0  0  0  0  0  0  0  0  0  0
   -0.9621   -0.9611   -1.4911 H   0  0  0  0  0  0  0  0  0  0  0  0
   -0.5754    0.8518   -1.6640 H   0  0  0  0  0  0  0  0  0  0  0  0
   -2.5641    1.3453    1.1850 H   0  0  0  0  0  0  0  0  0  0  0  0
   -0.7553   -1.9165    0.4811 H   0  0  0  0  0  0  0  0  0  0  0  0
   -0.1080   -0.8859    1.9133 H   0  0  0  0  0  0  0  0  0  0  0  0
    0.0652    1.9369   -0.0513 H   0  0  0  0  0  0  0  0  0  0  0  0
    0.2989    1.2261    1.6568 H   0  0  0  0  0  0  0  0  0  0  0  0
  1  2  3  0
  2  3  1  0
  3  4  1  0
  4  5  1  0
  5  6  1  0
  5  7  1  0
  5  8  1  0
  7  3  1  0
  8  3  1  0
  1  9  1  0
  4 10  1  0
  4 11  1  0
  6 12  1  0
  7 13  1  0
  7 14  1  0
  8 15  1  0
  8 16  1  0
M  END
