
     RDKit          3D

  8  7  0  0  0  0  0  0  0  0999 V2000
    3.2007   -0.5118   -0.1442 C   0  0  0  0  0  0  0  0  0  0  0  0
    1.9975   -0.3168   -0.1259 C   0  0  0  0  0  0  0  0  0  0  0  0
    0.5956   -0.1046   -0.1031 C   0  0  0  0  0  0  0  0  0  0  0  0
   -0.5987    0.0817   -0.0804 C   0  0  0  0  0  0  0  0  0  0  0  0
   -2.0017    0.3097   -0.0465 C   0  0  0  0  0  0  0  0  0  0  0  0
   -3.1932    0.5127   -0.0312 C   0  0  0  0  0  0  0  0  0  0  0  0
    4.2512   -0.6759   -0.1428 H   0  0  0  0  0  0  0  0  0  0  0  0
   -4.2512    0.7050   -0.0311 H   0  0  0  0  0  0  0  0  0  0  0  0
  1  2  3  0
  2  3  1  0
  3  4  3  0
  4  5  1  0
  5  6  3  0
  1  7  1  0
  6  8  1  0
M  END
