
     RDKit          3D

 19 19  0  0  0  0  0  0  0  0999 V2000
    2.0479    1.6562    0.1673 C   0  0  0  0  0  0  0  0  0  0  0  0
    1.6081    0.6105   -0.2599 C   0  0  0  0  0  0  0  0  0  0  0  0
    1.1054   -0.6419   -0.7700 C   0  0  0  0  0  0  0  0  0  0  0  0
    1.5788   -1.7841   -0.0829 O   0  0  0  0  0  0  0  0  0  0  0  0
    0.4471   -1.8335    0.7112 C   0  0  0  0  0  0  0  0  0  0  0  0
   -0.2720   -1.0261   -0.3723 C   0  0  0  0  0  0  0  0  0  0  0  0
   -1.1300    0.0227    0.2553 C   0  0  0  0  0  0  0  0  0  0  0  0
   -1.3517    1.2132   -0.6423 C   0  0  0  0  0  0  0  0  0  0  0  0
   -0.6841    0.3724    1.5218 O   0  0  0  0  0  0  0  0  0  0  0  0
    2.4441    2.5715    0.5595 H   0  0  0  0  0  0  0  0  0  0  0  0
    1.3476   -0.8076   -1.8603 H   0  0  0  0  0  0  0  0  0  0  0  0
    0.5506   -1.2651    1.6700 H   0  0  0  0  0  0  0  0  0  0  0  0
    0.0127   -2.8152    0.8949 H   0  0  0  0  0  0  0  0  0  0  0  0
   -0.7993   -1.6571   -1.1089 H   0  0  0  0  0  0  0  0  0  0  0  0
   -2.1479   -0.4427    0.4095 H   0  0  0  0  0  0  0  0  0  0  0  0
   -2.4334    1.5358   -0.6335 H   0  0  0  0  0  0  0  0  0  0  0  0
   -1.1112    0.8712   -1.6888 H   0  0  0  0  0  0  0  0  0  0  0  0
   -0.7663    2.0921   -0.3800 H   0  0  0  0  0  0  0  0  0  0  0  0
   -0.4464    1.3277    1.6093 H   0  0  0  0  0  0  0  0  0  0  0  0
  1  2  3  0
  2  3  1  0
  3  4  1  0
  4  5  1  0
  5  6  1  0
  6  7  1  0
  7  8  1  0
  7  9  1  0
  6  3  1  0
  1 10  1  0
  3 11  1  0
  5 12  1  0
  5 13  1  0
  6 14  1  0
  7 15  1  0
  8 16  1  0
  8 17  1  0
  8 18  1  0
  9 19  1  0
M  END
