
     RDKit          3D

 19 19  0  0  0  0  0  0  0  0999 V2000
    2.9301    0.5228   -1.1100 C   0  0  0  0  0  0  0  0  0  0  0  0
    1.8894    0.1969   -0.6243 C   0  0  0  0  0  0  0  0  0  0  0  0
    0.6432   -0.2182   -0.0481 C   0  0  0  0  0  0  0  0  0  0  0  0
    0.0585    0.7977    0.9226 C   0  0  0  0  0  0  0  0  0  0  0  0
    0.8258    0.9273    2.0664 O   0  0  0  0  0  0  0  0  0  0  0  0
   -1.2863    0.1563    1.2000 C   0  0  0  0  0  0  0  0  0  0  0  0
   -1.6624   -0.5243   -0.1097 C   0  0  0  0  0  0  0  0  0  0  0  0
   -0.5045   -0.2319   -1.0637 C   0  0  0  0  0  0  0  0  0  0  0  0
   -0.3513   -1.1719   -2.0298 O   0  0  0  0  0  0  0  0  0  0  0  0
    3.8592    0.8143   -1.5251 H   0  0  0  0  0  0  0  0  0  0  0  0
    0.6690   -1.2124    0.4298 H   0  0  0  0  0  0  0  0  0  0  0  0
   -0.0724    1.7449    0.3724 H   0  0  0  0  0  0  0  0  0  0  0  0
    1.7685    1.0772    1.8050 H   0  0  0  0  0  0  0  0  0  0  0  0
   -1.1436   -0.6394    1.9800 H   0  0  0  0  0  0  0  0  0  0  0  0
   -2.0316    0.8802    1.5347 H   0  0  0  0  0  0  0  0  0  0  0  0
   -1.6506   -1.6437    0.0261 H   0  0  0  0  0  0  0  0  0  0  0  0
   -2.6191   -0.1682   -0.5032 H   0  0  0  0  0  0  0  0  0  0  0  0
   -0.6214    0.7618   -1.4915 H   0  0  0  0  0  0  0  0  0  0  0  0
   -0.7005   -2.0694   -1.8314 H   0  0  0  0  0  0  0  0  0  0  0  0
  1  2  3  0
  2  3  1  0
  3  4  1  0
  4  5  1  0
  4  6  1  0
  6  7  1  0
  7  8  1  0
  8  9  1  0
  8  3  1  0
  1 10  1  0
  3 11  1  0
  4 12  1  0
  5 13  1  0
  6 14  1  0
  6 15  1  0
  7 16  1  0
  7 17  1  0
  8 18  1  0
  9 19  1  0
M  END
