
     RDKit          3D

 19 18  0  0  0  0  0  0  0  0999 V2000
    2.3300    1.4960    2.5719 C   0  0  0  0  0  0  0  0  0  0  0  0
    1.3823    0.8222    2.1957 C   0  0  0  0  0  0  0  0  0  0  0  0
    0.2302    0.0321    1.7542 C   0  0  0  0  0  0  0  0  0  0  0  0
    0.0381    0.2833    0.2711 C   0  0  0  0  0  0  0  0  0  0  0  0
    1.2738   -0.1414   -0.4268 C   0  0  0  0  0  0  0  0  0  0  0  0
    1.6820    0.5438   -1.3395 O   0  0  0  0  0  0  0  0  0  0  0  0
   -1.1065   -0.5113   -0.2930 C   0  0  0  0  0  0  0  0  0  0  0  0
   -1.2017   -0.1817   -1.7685 C   0  0  0  0  0  0  0  0  0  0  0  0
   -2.2550   -0.8928   -2.3596 O   0  0  0  0  0  0  0  0  0  0  0  0
    3.1430    2.0802    2.9118 H   0  0  0  0  0  0  0  0  0  0  0  0
    0.4031   -1.0571    1.8929 H   0  0  0  0  0  0  0  0  0  0  0  0
   -0.6611    0.3263    2.3458 H   0  0  0  0  0  0  0  0  0  0  0  0
   -0.1736    1.3575    0.1581 H   0  0  0  0  0  0  0  0  0  0  0  0
    1.8118   -1.0287   -0.1504 H   0  0  0  0  0  0  0  0  0  0  0  0
   -2.0645   -0.1929    0.1700 H   0  0  0  0  0  0  0  0  0  0  0  0
   -0.9384   -1.5965   -0.2122 H   0  0  0  0  0  0  0  0  0  0  0  0
   -0.2225   -0.4694   -2.2387 H   0  0  0  0  0  0  0  0  0  0  0  0
   -1.3848    0.9038   -1.8403 H   0  0  0  0  0  0  0  0  0  0  0  0
   -2.2863   -1.7735   -1.9038 H   0  0  0  0  0  0  0  0  0  0  0  0
  1  2  3  0
  2  3  1  0
  3  4  1  0
  4  5  1  0
  5  6  2  0
  4  7  1  0
  7  8  1  0
  8  9  1  0
  1 10  1  0
  3 11  1  0
  3 12  1  0
  4 13  1  0
  5 14  1  0
  7 15  1  0
  7 16  1  0
  8 17  1  0
  8 18  1  0
  9 19  1  0
M  END
