
     RDKit          3D

 17 17  0  0  0  0  0  0  0  0999 V2000
    3.2893   -0.0148   -0.1479 C   0  0  0  0  0  0  0  0  0  0  0  0
    1.9081    0.0401   -0.1972 C   0  0  0  0  0  0  0  0  0  0  0  0
    0.6924    0.0946   -0.2517 C   0  0  0  0  0  0  0  0  0  0  0  0
   -0.1787   -0.0115    1.0931 C   0  0  0  0  0  0  0  0  0  0  0  0
   -1.3381   -0.0992   -0.1707 C   0  0  0  0  0  0  0  0  0  0  0  0
   -1.3304   -1.0889   -0.5143 C   0  0  0  0  0  0  0  0  0  0  0  0
   -1.2988   -2.4438   -0.9711 C   0  0  0  0  0  0  0  0  0  0  0  0
   -0.3471    1.1467   -0.6075 C   0  0  0  0  0  0  0  0  0  0  0  0
   -0.5171    2.1231    0.3346 O   0  0  0  0  0  0  0  0  0  0  0  0
    4.4141   -0.0508   -0.1208 H   0  0  0  0  0  0  0  0  0  0  0  0
    0.2525   -0.8531   -0.9686 H   0  0  0  0  0  0  0  0  0  0  0  0
   -0.1925   -0.9221    1.5543 H   0  0  0  0  0  0  0  0  0  0  0  0
   -0.3238    0.8868    1.5714 H   0  0  0  0  0  0  0  0  0  0  0  0
   -2.2192    0.4848    0.3832 H   0  0  0  0  0  0  0  0  0  0  0  0
   -1.2905   -3.5897   -1.3681 H   0  0  0  0  0  0  0  0  0  0  0  0
   -0.6132    1.3533   -1.6246 H   0  0  0  0  0  0  0  0  0  0  0  0
   -0.9070    2.9445   -0.1262 H   0  0  0  0  0  0  0  0  0  0  0  0
  1  2  3  0
  2  3  1  0
  3  4  1  0
  4  5  1  0
  5  6  1  0
  6  7  3  0
  5  8  1  0
  8  9  1  0
  8  3  1  0
  1 10  1  0
  3 11  1  0
  4 12  1  0
  4 13  1  0
  5 14  1  0
  7 15  1  0
  8 16  1  0
  9 17  1  0
M  END
