
     RDKit          3D

 17 17  0  0  0  0  0  0  0  0999 V2000
    3.2221   -0.7244   -1.0437 C   0  0  0  0  0  0  0  0  0  0  0  0
    2.0905   -0.8335   -0.6505 C   0  0  0  0  0  0  0  0  0  0  0  0
    0.8871   -0.9582   -0.2157 C   0  0  0  0  0  0  0  0  0  0  0  0
   -0.2668   -0.8920   -0.9431 O   0  0  0  0  0  0  0  0  0  0  0  0
   -1.0687   -0.0548   -0.2124 C   0  0  0  0  0  0  0  0  0  0  0  0
   -0.4306    1.3062   -0.2729 C   0  0  0  0  0  0  0  0  0  0  0  0
    0.0088    2.2822   -0.3252 C   0  0  0  0  0  0  0  0  0  0  0  0
   -2.3095    0.0681    0.4595 C   0  0  0  0  0  0  0  0  0  0  0  0
   -1.1368   -0.4628    1.2835 C   0  0  0  0  0  0  0  0  0  0  0  0
    4.5385   -0.5947   -1.4759 H   0  0  0  0  0  0  0  0  0  0  0  0
    0.7927   -1.9725    0.4212 H   0  0  0  0  0  0  0  0  0  0  0  0
    0.8235   -0.2359    0.7670 H   0  0  0  0  0  0  0  0  0  0  0  0
    0.6548    3.6877   -0.3898 H   0  0  0  0  0  0  0  0  0  0  0  0
   -3.2242   -0.5090    0.3772 H   0  0  0  0  0  0  0  0  0  0  0  0
   -2.5876    1.1672    0.8999 H   0  0  0  0  0  0  0  0  0  0  0  0
   -0.6876    0.2049    2.0286 H   0  0  0  0  0  0  0  0  0  0  0  0
   -1.3063   -1.4786    1.6469 H   0  0  0  0  0  0  0  0  0  0  0  0
  1  2  3  0
  2  3  1  0
  3  4  1  0
  4  5  1  0
  5  6  1  0
  6  7  3  0
  5  8  1  0
  8  9  1  0
  9  5  1  0
  1 10  1  0
  3 11  1  0
  3 12  1  0
  7 13  1  0
  8 14  1  0
  8 15  1  0
  9 16  1  0
  9 17  1  0
M  END
