
     RDKit          3D

 15 15  0  0  0  0  0  0  0  0999 V2000
    2.1756    0.6870   -0.9067 C   0  0  0  0  0  0  0  0  0  0  0  0
    1.0747    0.3728   -0.5807 C   0  0  0  0  0  0  0  0  0  0  0  0
   -0.3279   -0.0443   -0.1676 C   0  0  0  0  0  0  0  0  0  0  0  0
   -0.5163   -1.4383   -0.2272 O   0  0  0  0  0  0  0  0  0  0  0  0
   -1.4278    0.7243    0.2992 C   0  0  0  0  0  0  0  0  0  0  0  0
   -1.4425   -0.2701    1.4811 C   0  0  0  0  0  0  0  0  0  0  0  0
   -2.1464   -0.9766    2.0925 O   0  0  0  0  0  0  0  0  0  0  0  0
   -0.0053    0.0958    1.5008 C   0  0  0  0  0  0  0  0  0  0  0  0
    0.9396   -0.7774    1.7547 O   0  0  0  0  0  0  0  0  0  0  0  0
    3.0837    0.9550   -1.1608 H   0  0  0  0  0  0  0  0  0  0  0  0
    0.4021   -1.8800   -0.3059 H   0  0  0  0  0  0  0  0  0  0  0  0
   -1.1811    1.7399    0.6978 H   0  0  0  0  0  0  0  0  0  0  0  0
   -2.4039    0.6819   -0.2157 H   0  0  0  0  0  0  0  0  0  0  0  0
    0.2013    1.1978    1.5574 H   0  0  0  0  0  0  0  0  0  0  0  0
    1.5743   -1.0677    1.0808 H   0  0  0  0  0  0  0  0  0  0  0  0
  1  2  3  0
  2  3  1  0
  3  4  1  0
  3  5  1  0
  5  6  1  0
  6  7  2  0
  6  8  1  0
  8  9  1  0
  8  3  1  0
  1 10  1  0
  4 11  1  0
  5 12  1  0
  5 13  1  0
  8 14  1  0
  9 15  1  0
M  END
