
     RDKit          3D

 19 20  0  0  0  0  0  0  0  0999 V2000
   -2.6306    1.8736   -0.5710 C   0  0  0  0  0  0  0  0  0  0  0  0
   -1.6967    1.1407   -0.3753 C   0  0  0  0  0  0  0  0  0  0  0  0
   -0.6150    0.2822   -0.1674 C   0  0  0  0  0  0  0  0  0  0  0  0
    0.6676    0.4741   -0.9102 C   0  0  0  0  0  0  0  0  0  0  0  0
    1.4968   -0.6569   -0.2632 C   0  0  0  0  0  0  0  0  0  0  0  0
    2.5192   -0.0691    0.4907 O   0  0  0  0  0  0  0  0  0  0  0  0
    0.4707   -1.1992    0.6716 C   0  0  0  0  0  0  0  0  0  0  0  0
   -0.8094   -1.2021   -0.1762 C   0  0  0  0  0  0  0  0  0  0  0  0
   -0.1099    0.0921    1.2699 C   0  0  0  0  0  0  0  0  0  0  0  0
   -3.4561    2.5438   -0.7529 H   0  0  0  0  0  0  0  0  0  0  0  0
    0.5358    0.2925   -1.9845 H   0  0  0  0  0  0  0  0  0  0  0  0
    1.1562    1.4593   -0.7005 H   0  0  0  0  0  0  0  0  0  0  0  0
    1.8608   -1.3585   -1.0133 H   0  0  0  0  0  0  0  0  0  0  0  0
    2.5620    0.9099    0.3352 H   0  0  0  0  0  0  0  0  0  0  0  0
    0.6531   -2.0117    1.3131 H   0  0  0  0  0  0  0  0  0  0  0  0
   -0.6519   -1.7285   -1.1232 H   0  0  0  0  0  0  0  0  0  0  0  0
   -1.6832   -1.5659    0.4342 H   0  0  0  0  0  0  0  0  0  0  0  0
   -0.9239   -0.1049    1.9669 H   0  0  0  0  0  0  0  0  0  0  0  0
    0.6545    0.8287    1.5561 H   0  0  0  0  0  0  0  0  0  0  0  0
  1  2  3  0
  2  3  1  0
  3  4  1  0
  4  5  1  0
  5  6  1  0
  5  7  1  0
  7  8  1  0
  7  9  1  0
  8  3  1  0
  9  3  1  0
  1 10  1  0
  4 11  1  0
  4 12  1  0
  5 13  1  0
  6 14  1  0
  7 15  1  0
  8 16  1  0
  8 17  1  0
  9 18  1  0
  9 19  1  0
M  END
