
     RDKit          3D

 21 21  0  0  0  0  0  0  0  0999 V2000
    3.3391    1.4182   -1.0260 C   0  0  0  0  0  0  0  0  0  0  0  0
    2.4030    0.6736   -0.9876 C   0  0  0  0  0  0  0  0  0  0  0  0
    1.2558   -0.2605   -0.9595 C   0  0  0  0  0  0  0  0  0  0  0  0
    0.3462   -0.0297   -2.1698 C   0  0  0  0  0  0  0  0  0  0  0  0
   -0.0644    0.3371   -0.7159 C   0  0  0  0  0  0  0  0  0  0  0  0
   -1.2874   -0.3844   -0.3003 C   0  0  0  0  0  0  0  0  0  0  0  0
   -1.1631   -1.1409    0.9988 C   0  0  0  0  0  0  0  0  0  0  0  0
   -0.8107   -0.2679    2.1648 C   0  0  0  0  0  0  0  0  0  0  0  0
   -1.7339    0.7423    2.4254 O   0  0  0  0  0  0  0  0  0  0  0  0
    4.2168    2.1138   -1.0792 H   0  0  0  0  0  0  0  0  0  0  0  0
    1.4438   -1.2743   -0.6111 H   0  0  0  0  0  0  0  0  0  0  0  0
   -0.0935   -0.9266   -2.6293 H   0  0  0  0  0  0  0  0  0  0  0  0
    0.5549    0.7962   -2.8608 H   0  0  0  0  0  0  0  0  0  0  0  0
   -0.0711    1.4616   -0.5673 H   0  0  0  0  0  0  0  0  0  0  0  0
   -1.6409   -1.0727   -1.0712 H   0  0  0  0  0  0  0  0  0  0  0  0
   -2.1014    0.3808   -0.0904 H   0  0  0  0  0  0  0  0  0  0  0  0
   -2.2127   -1.5001    1.2151 H   0  0  0  0  0  0  0  0  0  0  0  0
   -0.5075   -2.0177    0.9388 H   0  0  0  0  0  0  0  0  0  0  0  0
   -0.7106   -0.8723    3.1045 H   0  0  0  0  0  0  0  0  0  0  0  0
    0.1953    0.1746    1.9730 H   0  0  0  0  0  0  0  0  0  0  0  0
   -1.3579    1.6488    2.2478 H   0  0  0  0  0  0  0  0  0  0  0  0
  1  2  3  0
  2  3  1  0
  3  4  1  0
  4  5  1  0
  5  6  1  0
  6  7  1  0
  7  8  1  0
  8  9  1  0
  5  3  1  0
  1 10  1  0
  3 11  1  0
  4 12  1  0
  4 13  1  0
  5 14  1  0
  6 15  1  0
  6 16  1  0
  7 17  1  0
  7 18  1  0
  8 19  1  0
  8 20  1  0
  9 21  1  0
M  END
