
     RDKit          3D

 14 14  0  0  0  0  0  0  0  0999 V2000
    2.3630    1.0416    0.5879 C   0  0  0  0  0  0  0  0  0  0  0  0
    1.4134    0.3449    0.2875 C   0  0  0  0  0  0  0  0  0  0  0  0
    0.2804   -0.4807   -0.0856 C   0  0  0  0  0  0  0  0  0  0  0  0
    0.6896   -1.7482   -0.4905 O   0  0  0  0  0  0  0  0  0  0  0  0
   -0.6978    0.2039   -0.9816 C   0  0  0  0  0  0  0  0  0  0  0  0
   -1.6064    0.4369    0.2127 C   0  0  0  0  0  0  0  0  0  0  0  0
   -0.7556   -0.5434    0.9738 C   0  0  0  0  0  0  0  0  0  0  0  0
   -0.8342   -1.1532    2.0108 O   0  0  0  0  0  0  0  0  0  0  0  0
    3.2016    1.6523    0.8433 H   0  0  0  0  0  0  0  0  0  0  0  0
    1.6114   -1.9431   -0.1846 H   0  0  0  0  0  0  0  0  0  0  0  0
   -0.3869    1.1773   -1.4128 H   0  0  0  0  0  0  0  0  0  0  0  0
   -1.0990   -0.5004   -1.7322 H   0  0  0  0  0  0  0  0  0  0  0  0
   -1.5380    1.4440    0.6499 H   0  0  0  0  0  0  0  0  0  0  0  0
   -2.6415    0.0682    0.0194 H   0  0  0  0  0  0  0  0  0  0  0  0
  1  2  3  0
  2  3  1  0
  3  4  1  0
  3  5  1  0
  5  6  1  0
  6  7  1  0
  7  8  2  0
  7  3  1  0
  1  9  1  0
  4 10  1  0
  5 11  1  0
  5 12  1  0
  6 13  1  0
  6 14  1  0
M  END
