
     RDKit          3D

 15 15  0  0  0  0  0  0  0  0999 V2000
   -2.4074   -1.6017   -0.3596 C   0  0  0  0  0  0  0  0  0  0  0  0
   -1.2826   -1.1314   -0.4500 C   0  0  0  0  0  0  0  0  0  0  0  0
    0.0647   -0.5955   -0.5585 C   0  0  0  0  0  0  0  0  0  0  0  0
    0.1632    0.3884   -1.5387 O   0  0  0  0  0  0  0  0  0  0  0  0
   -0.5125    1.4539   -0.9453 C   0  0  0  0  0  0  0  0  0  0  0  0
    0.0754    1.4989    0.3157 O   0  0  0  0  0  0  0  0  0  0  0  0
    0.3374    0.2030    0.7015 C   0  0  0  0  0  0  0  0  0  0  0  0
    1.7136    0.0360    1.1701 C   0  0  0  0  0  0  0  0  0  0  0  0
    2.8457   -0.1185    1.5556 C   0  0  0  0  0  0  0  0  0  0  0  0
   -3.3856   -1.9969   -0.2681 H   0  0  0  0  0  0  0  0  0  0  0  0
    0.8363   -1.3522   -0.6854 H   0  0  0  0  0  0  0  0  0  0  0  0
   -1.6127    1.2336   -0.8737 H   0  0  0  0  0  0  0  0  0  0  0  0
   -0.3223    2.3546   -1.5394 H   0  0  0  0  0  0  0  0  0  0  0  0
   -0.3647   -0.1056    1.5239 H   0  0  0  0  0  0  0  0  0  0  0  0
    3.8515   -0.2669    1.9145 H   0  0  0  0  0  0  0  0  0  0  0  0
  1  2  3  0
  2  3  1  0
  3  4  1  0
  4  5  1  0
  5  6  1  0
  6  7  1  0
  7  8  1  0
  8  9  3  0
  7  3  1  0
  1 10  1  0
  3 11  1  0
  5 12  1  0
  5 13  1  0
  7 14  1  0
  9 15  1  0
M  END
