
     RDKit          3D

 17 20  0  0  0  0  0  0  0  0999 V2000
    3.3125   -0.4369    0.3108 C   0  0  0  0  0  0  0  0  0  0  0  0
    2.2501    0.0403    0.6250 C   0  0  0  0  0  0  0  0  0  0  0  0
    0.9751    0.6398    1.0130 C   0  0  0  0  0  0  0  0  0  0  0  0
   -0.1413    0.1781    0.3409 C   0  0  0  0  0  0  0  0  0  0  0  0
   -1.5732    0.5791    0.4337 C   0  0  0  0  0  0  0  0  0  0  0  0
   -1.6054    0.6673   -1.0009 C   0  0  0  0  0  0  0  0  0  0  0  0
   -1.9382   -0.6346   -0.1923 C   0  0  0  0  0  0  0  0  0  0  0  0
   -0.5457   -1.0313   -0.3289 C   0  0  0  0  0  0  0  0  0  0  0  0
   -0.2699    0.0969   -1.1717 C   0  0  0  0  0  0  0  0  0  0  0  0
    4.3103   -0.8915   -0.0040 H   0  0  0  0  0  0  0  0  0  0  0  0
    1.0934    1.7769    1.0188 H   0  0  0  0  0  0  0  0  0  0  0  0
    0.8835    0.4038    2.1445 H   0  0  0  0  0  0  0  0  0  0  0  0
   -2.0066    1.1508    1.2103 H   0  0  0  0  0  0  0  0  0  0  0  0
   -2.2887    1.0069   -1.7212 H   0  0  0  0  0  0  0  0  0  0  0  0
   -2.8344   -1.0860   -0.5250 H   0  0  0  0  0  0  0  0  0  0  0  0
   -0.1282   -2.0069   -0.3004 H   0  0  0  0  0  0  0  0  0  0  0  0
    0.5066    0.3038   -1.8526 H   0  0  0  0  0  0  0  0  0  0  0  0
  1  2  3  0
  2  3  1  0
  3  4  1  0
  4  5  1  0
  5  6  1  0
  6  7  1  0
  7  8  1  0
  8  9  1  0
  8  4  1  0
  9  4  1  0
  7  5  1  0
  9  6  1  0
  1 10  1  0
  3 11  1  0
  3 12  1  0
  5 13  1  0
  6 14  1  0
  7 15  1  0
  8 16  1  0
  9 17  1  0
M  END
