
     RDKit          3D

 19 19  0  0  0  0  0  0  0  0999 V2000
    2.9928    1.7763   -0.4839 C   0  0  0  0  0  0  0  0  0  0  0  0
    1.8126    1.5237   -0.5332 C   0  0  0  0  0  0  0  0  0  0  0  0
    0.3672    1.2040   -0.5806 C   0  0  0  0  0  0  0  0  0  0  0  0
    0.1018    0.2543    0.5585 C   0  0  0  0  0  0  0  0  0  0  0  0
    0.8755   -1.0348    0.5007 C   0  0  0  0  0  0  0  0  0  0  0  0
   -0.3699   -1.7910    0.3180 C   0  0  0  0  0  0  0  0  0  0  0  0
   -0.7544   -2.9423    0.0903 O   0  0  0  0  0  0  0  0  0  0  0  0
   -1.1483   -0.5264    0.5278 C   0  0  0  0  0  0  0  0  0  0  0  0
   -2.1207   -0.3223   -0.5644 C   0  0  0  0  0  0  0  0  0  0  0  0
    4.0323    2.0178   -0.4384 H   0  0  0  0  0  0  0  0  0  0  0  0
    0.1866    0.7624   -1.5687 H   0  0  0  0  0  0  0  0  0  0  0  0
   -0.1572    2.1529   -0.4372 H   0  0  0  0  0  0  0  0  0  0  0  0
    0.2400    0.7721    1.5297 H   0  0  0  0  0  0  0  0  0  0  0  0
    1.3834   -1.3275    1.4511 H   0  0  0  0  0  0  0  0  0  0  0  0
    1.5783   -1.0859   -0.3703 H   0  0  0  0  0  0  0  0  0  0  0  0
   -1.6591   -0.6142    1.5291 H   0  0  0  0  0  0  0  0  0  0  0  0
   -3.0306    0.2164   -0.1648 H   0  0  0  0  0  0  0  0  0  0  0  0
   -2.5478   -1.2844   -0.9741 H   0  0  0  0  0  0  0  0  0  0  0  0
   -1.7825    0.2489   -1.4249 H   0  0  0  0  0  0  0  0  0  0  0  0
  1  2  3  0
  2  3  1  0
  3  4  1  0
  4  5  1  0
  5  6  1  0
  6  7  2  0
  6  8  1  0
  8  9  1  0
  8  4  1  0
  1 10  1  0
  3 11  1  0
  3 12  1  0
  4 13  1  0
  5 14  1  0
  5 15  1  0
  8 16  1  0
  9 17  1  0
  9 18  1  0
  9 19  1  0
M  END
