
     RDKit          3D

 19 19  0  0  0  0  0  0  0  0999 V2000
    2.2949    2.3693   -0.4595 C   0  0  0  0  0  0  0  0  0  0  0  0
    1.6022    1.3776   -0.6309 C   0  0  0  0  0  0  0  0  0  0  0  0
    0.7833    0.1810   -0.8149 C   0  0  0  0  0  0  0  0  0  0  0  0
    1.5089   -0.9812   -0.6150 O   0  0  0  0  0  0  0  0  0  0  0  0
    0.6512   -1.9774   -0.2417 C   0  0  0  0  0  0  0  0  0  0  0  0
   -0.6496   -1.3819    0.1762 C   0  0  0  0  0  0  0  0  0  0  0  0
   -0.3682    0.1264    0.1470 C   0  0  0  0  0  0  0  0  0  0  0  0
   -1.6126    0.7964   -0.3724 C   0  0  0  0  0  0  0  0  0  0  0  0
   -0.0873    0.6272    1.3940 O   0  0  0  0  0  0  0  0  0  0  0  0
    2.9089    3.2225   -0.3122 H   0  0  0  0  0  0  0  0  0  0  0  0
    0.4261    0.1785   -1.8609 H   0  0  0  0  0  0  0  0  0  0  0  0
    1.1075   -2.5235    0.6170 H   0  0  0  0  0  0  0  0  0  0  0  0
    0.5566   -2.6908   -1.0922 H   0  0  0  0  0  0  0  0  0  0  0  0
   -0.9962   -1.6572    1.1727 H   0  0  0  0  0  0  0  0  0  0  0  0
   -1.3981   -1.6088   -0.6245 H   0  0  0  0  0  0  0  0  0  0  0  0
   -1.4320    1.7339   -0.8979 H   0  0  0  0  0  0  0  0  0  0  0  0
   -2.3008    0.9294    0.5094 H   0  0  0  0  0  0  0  0  0  0  0  0
   -2.1462    0.1087   -1.0601 H   0  0  0  0  0  0  0  0  0  0  0  0
   -0.8485    1.1700    1.7729 H   0  0  0  0  0  0  0  0  0  0  0  0
  1  2  3  0
  2  3  1  0
  3  4  1  0
  4  5  1  0
  5  6  1  0
  6  7  1  0
  7  8  1  0
  7  9  1  0
  7  3  1  0
  1 10  1  0
  3 11  1  0
  5 12  1  0
  5 13  1  0
  6 14  1  0
  6 15  1  0
  8 16  1  0
  8 17  1  0
  8 18  1  0
  9 19  1  0
M  END
