
     RDKit          3D

 19 19  0  0  0  0  0  0  0  0999 V2000
    3.3586    0.5155   -0.4181 C   0  0  0  0  0  0  0  0  0  0  0  0
    2.3428   -0.0770   -0.1488 C   0  0  0  0  0  0  0  0  0  0  0  0
    1.1058   -0.7826    0.1927 C   0  0  0  0  0  0  0  0  0  0  0  0
    0.1133   -0.6561   -0.9675 C   0  0  0  0  0  0  0  0  0  0  0  0
   -0.7700    0.1608   -0.0471 C   0  0  0  0  0  0  0  0  0  0  0  0
   -2.0773   -0.5973    0.1742 C   0  0  0  0  0  0  0  0  0  0  0  0
   -1.0512    1.5299   -0.4800 C   0  0  0  0  0  0  0  0  0  0  0  0
   -1.9766    2.1476   -0.0147 O   0  0  0  0  0  0  0  0  0  0  0  0
    0.2156    0.0349    1.0893 C   0  0  0  0  0  0  0  0  0  0  0  0
    4.2695    1.0462   -0.6408 H   0  0  0  0  0  0  0  0  0  0  0  0
    1.3032   -1.8091    0.5198 H   0  0  0  0  0  0  0  0  0  0  0  0
   -0.2618   -1.6409   -1.2433 H   0  0  0  0  0  0  0  0  0  0  0  0
    0.4668   -0.0224   -1.7992 H   0  0  0  0  0  0  0  0  0  0  0  0
   -1.7991   -1.5921    0.5649 H   0  0  0  0  0  0  0  0  0  0  0  0
   -2.5285   -0.7086   -0.8445 H   0  0  0  0  0  0  0  0  0  0  0  0
   -2.7156   -0.0140    0.8522 H   0  0  0  0  0  0  0  0  0  0  0  0
   -0.4247    1.9850   -1.2197 H   0  0  0  0  0  0  0  0  0  0  0  0
    0.6813    0.9850    1.4056 H   0  0  0  0  0  0  0  0  0  0  0  0
   -0.2522   -0.5048    1.9280 H   0  0  0  0  0  0  0  0  0  0  0  0
  1  2  3  0
  2  3  1  0
  3  4  1  0
  4  5  1  0
  5  6  1  0
  5  7  1  0
  7  8  2  0
  5  9  1  0
  9  3  1  0
  1 10  1  0
  3 11  1  0
  4 12  1  0
  4 13  1  0
  6 14  1  0
  6 15  1  0
  6 16  1  0
  7 17  1  0
  9 18  1  0
  9 19  1  0
M  END
