
     RDKit          3D

 21 20  0  0  0  0  0  0  0  0999 V2000
   -1.7825    2.4421   -0.5642 C   0  0  0  0  0  0  0  0  0  0  0  0
   -1.5174    1.2903   -0.1547 C   0  0  0  0  0  0  0  0  0  0  0  0
   -1.2322   -0.0488    0.3077 C   0  0  0  0  0  0  0  0  0  0  0  0
   -2.4939   -0.8736    0.0316 C   0  0  0  0  0  0  0  0  0  0  0  0
    0.0098   -0.6259   -0.2113 C   0  0  0  0  0  0  0  0  0  0  0  0
    1.1166    0.3922    0.1291 C   0  0  0  0  0  0  0  0  0  0  0  0
    1.0344    0.6045    1.5403 O   0  0  0  0  0  0  0  0  0  0  0  0
    2.4990   -0.1334   -0.1186 C   0  0  0  0  0  0  0  0  0  0  0  0
    2.7414   -0.4892   -1.4475 O   0  0  0  0  0  0  0  0  0  0  0  0
   -2.0020    3.4494   -0.9374 H   0  0  0  0  0  0  0  0  0  0  0  0
   -1.1792    0.0095    1.4677 H   0  0  0  0  0  0  0  0  0  0  0  0
   -2.3183   -1.9115    0.0593 H   0  0  0  0  0  0  0  0  0  0  0  0
   -3.2367   -0.5733    0.8431 H   0  0  0  0  0  0  0  0  0  0  0  0
   -3.0123   -0.4956   -0.9007 H   0  0  0  0  0  0  0  0  0  0  0  0
    0.0050   -0.8564   -1.2632 H   0  0  0  0  0  0  0  0  0  0  0  0
    0.2292   -1.5707    0.4215 H   0  0  0  0  0  0  0  0  0  0  0  0
    0.8736    1.3351   -0.3651 H   0  0  0  0  0  0  0  0  0  0  0  0
    1.1971   -0.3389    1.9195 H   0  0  0  0  0  0  0  0  0  0  0  0
    2.8020   -0.8793    0.6285 H   0  0  0  0  0  0  0  0  0  0  0  0
    3.2085    0.7540    0.0291 H   0  0  0  0  0  0  0  0  0  0  0  0
    3.0578   -1.4806   -1.4147 H   0  0  0  0  0  0  0  0  0  0  0  0
  1  2  3  0
  2  3  1  0
  3  4  1  0
  3  5  1  0
  5  6  1  0
  6  7  1  0
  6  8  1  0
  8  9  1  0
  1 10  1  0
  3 11  1  0
  4 12  1  0
  4 13  1  0
  4 14  1  0
  5 15  1  0
  5 16  1  0
  6 17  1  0
  7 18  1  0
  8 19  1  0
  8 20  1  0
  9 21  1  0
M  END
