
     RDKit          3D

 16 15  0  0  0  0  0  0  0  0999 V2000
    3.2672   -0.2724   -1.6499 C   0  0  0  0  0  0  0  0  0  0  0  0
    2.2708   -1.2480   -1.3719 C   0  0  0  0  0  0  0  0  0  0  0  0
    1.1137   -2.3641   -1.0660 C   0  0  0  0  0  0  0  0  0  0  0  0
    0.3191   -1.1897   -0.5295 C   0  0  0  0  0  0  0  0  0  0  0  0
   -0.4409   -0.0381   -0.0171 C   0  0  0  0  0  0  0  0  0  0  0  0
   -1.0534    0.9051    0.3803 C   0  0  0  0  0  0  0  0  0  0  0  0
   -2.0144    0.7392    1.6109 C   0  0  0  0  0  0  0  0  0  0  0  0
   -0.3171    2.1467    0.6097 O   0  0  0  0  0  0  0  0  0  0  0  0
    3.9505    0.4121   -1.8447 H   0  0  0  0  0  0  0  0  0  0  0  0
    0.8012   -2.5975   -2.0150 H   0  0  0  0  0  0  0  0  0  0  0  0
    1.5282   -2.8229   -0.2384 H   0  0  0  0  0  0  0  0  0  0  0  0
   -1.8957    1.3723   -0.3793 H   0  0  0  0  0  0  0  0  0  0  0  0
   -1.7846    1.5639    2.3325 H   0  0  0  0  0  0  0  0  0  0  0  0
   -1.6568   -0.1786    2.1166 H   0  0  0  0  0  0  0  0  0  0  0  0
   -3.0285    0.7964    1.2771 H   0  0  0  0  0  0  0  0  0  0  0  0
   -1.0592    2.7756    0.9712 H   0  0  0  0  0  0  0  0  0  0  0  0
  1  2  3  0
  2  3  1  0
  3  4  1  0
  4  5  3  0
  5  6  1  0
  6  7  1  0
  6  8  1  0
  1  9  1  0
  3 10  1  0
  3 11  1  0
  6 12  1  0
  7 13  1  0
  7 14  1  0
  7 15  1  0
  8 16  1  0
M  END
