
     RDKit          3D

 21 22  0  0  0  0  0  0  0  0999 V2000
    2.4309   -0.9549    2.1737 C   0  0  0  0  0  0  0  0  0  0  0  0
    2.1481   -0.6742    0.9220 C   0  0  0  0  0  0  0  0  0  0  0  0
    1.8128   -0.3643   -0.4622 C   0  0  0  0  0  0  0  0  0  0  0  0
    1.3939    1.0020   -0.7621 C   0  0  0  0  0  0  0  0  0  0  0  0
    0.4246   -0.1971   -0.8859 C   0  0  0  0  0  0  0  0  0  0  0  0
   -0.7575   -0.0900    0.0165 C   0  0  0  0  0  0  0  0  0  0  0  0
   -1.0909   -1.1858    0.9839 C   0  0  0  0  0  0  0  0  0  0  0  0
   -1.2786    1.2863    0.2829 C   0  0  0  0  0  0  0  0  0  0  0  0
   -2.0257    0.4618   -0.7152 C   0  0  0  0  0  0  0  0  0  0  0  0
    2.6306   -1.1542    3.0088 H   0  0  0  0  0  0  0  0  0  0  0  0
    2.5280   -0.8272   -1.1958 H   0  0  0  0  0  0  0  0  0  0  0  0
    1.2037    1.7514    0.0405 H   0  0  0  0  0  0  0  0  0  0  0  0
    1.6218    1.5249   -1.7193 H   0  0  0  0  0  0  0  0  0  0  0  0
    0.1798   -0.4574   -1.9524 H   0  0  0  0  0  0  0  0  0  0  0  0
   -2.1022   -0.9973    1.3898 H   0  0  0  0  0  0  0  0  0  0  0  0
   -1.1431   -2.1695    0.4516 H   0  0  0  0  0  0  0  0  0  0  0  0
   -0.4052   -1.2490    1.8687 H   0  0  0  0  0  0  0  0  0  0  0  0
   -0.7511    2.1671   -0.1585 H   0  0  0  0  0  0  0  0  0  0  0  0
   -1.8763    1.5147    1.1996 H   0  0  0  0  0  0  0  0  0  0  0  0
   -3.0046    0.0148   -0.4280 H   0  0  0  0  0  0  0  0  0  0  0  0
   -1.9391    0.5979   -1.8114 H   0  0  0  0  0  0  0  0  0  0  0  0
  1  2  3  0
  2  3  1  0
  3  4  1  0
  4  5  1  0
  5  6  1  0
  6  7  1  0
  6  8  1  0
  8  9  1  0
  5  3  1  0
  9  6  1  0
  1 10  1  0
  3 11  1  0
  4 12  1  0
  4 13  1  0
  5 14  1  0
  7 15  1  0
  7 16  1  0
  7 17  1  0
  8 18  1  0
  8 19  1  0
  9 20  1  0
  9 21  1  0
M  END
