
     RDKit          3D

 18 18  0  0  0  0  0  0  0  0999 V2000
    3.2157    0.2840    0.4433 C   0  0  0  0  0  0  0  0  0  0  0  0
    2.1852    0.1990   -0.1789 C   0  0  0  0  0  0  0  0  0  0  0  0
    0.9367    0.0710   -0.9407 C   0  0  0  0  0  0  0  0  0  0  0  0
    0.3340   -1.3012   -0.6386 C   0  0  0  0  0  0  0  0  0  0  0  0
   -0.3026   -1.0639    0.5825 O   0  0  0  0  0  0  0  0  0  0  0  0
   -0.9517    0.1515    0.4538 C   0  0  0  0  0  0  0  0  0  0  0  0
   -2.2724   -0.0296   -0.2471 C   0  0  0  0  0  0  0  0  0  0  0  0
   -0.0522    1.0574   -0.3564 C   0  0  0  0  0  0  0  0  0  0  0  0
    4.1188    0.3635    0.9950 H   0  0  0  0  0  0  0  0  0  0  0  0
    1.1117    0.2216   -2.0152 H   0  0  0  0  0  0  0  0  0  0  0  0
   -0.4239   -1.5558   -1.4083 H   0  0  0  0  0  0  0  0  0  0  0  0
    1.1208   -2.0617   -0.5342 H   0  0  0  0  0  0  0  0  0  0  0  0
   -1.0888    0.5573    1.4774 H   0  0  0  0  0  0  0  0  0  0  0  0
   -2.9273    0.8174    0.0601 H   0  0  0  0  0  0  0  0  0  0  0  0
   -2.1016   -0.0157   -1.3399 H   0  0  0  0  0  0  0  0  0  0  0  0
   -2.7077   -1.0159    0.0262 H   0  0  0  0  0  0  0  0  0  0  0  0
   -0.6430    1.4959   -1.1841 H   0  0  0  0  0  0  0  0  0  0  0  0
    0.4484    1.8251    0.2743 H   0  0  0  0  0  0  0  0  0  0  0  0
  1  2  3  0
  2  3  1  0
  3  4  1  0
  4  5  1  0
  5  6  1  0
  6  7  1  0
  6  8  1  0
  8  3  1  0
  1  9  1  0
  3 10  1  0
  4 11  1  0
  4 12  1  0
  6 13  1  0
  7 14  1  0
  7 15  1  0
  7 16  1  0
  8 17  1  0
  8 18  1  0
M  END
