
     RDKit          3D

 17 17  0  0  0  0  0  0  0  0999 V2000
    0.0742    1.9992   -2.6312 C   0  0  0  0  0  0  0  0  0  0  0  0
    0.4082    1.2625   -1.7613 C   0  0  0  0  0  0  0  0  0  0  0  0
    0.8531    0.3443   -0.6599 C   0  0  0  0  0  0  0  0  0  0  0  0
   -0.0999    0.3768    0.4962 C   0  0  0  0  0  0  0  0  0  0  0  0
    0.2722   -0.5117    1.6528 C   0  0  0  0  0  0  0  0  0  0  0  0
    0.3580   -1.9255    1.2743 C   0  0  0  0  0  0  0  0  0  0  0  0
    0.4450   -3.0573    0.9612 C   0  0  0  0  0  0  0  0  0  0  0  0
   -1.4649    0.7835    0.2865 C   0  0  0  0  0  0  0  0  0  0  0  0
   -0.5869    1.6530    0.8861 O   0  0  0  0  0  0  0  0  0  0  0  0
   -0.2040    2.6530   -3.4068 H   0  0  0  0  0  0  0  0  0  0  0  0
    1.8810    0.5951   -0.3385 H   0  0  0  0  0  0  0  0  0  0  0  0
    0.8899   -0.6737   -1.1302 H   0  0  0  0  0  0  0  0  0  0  0  0
   -0.5035   -0.4782    2.4673 H   0  0  0  0  0  0  0  0  0  0  0  0
    1.2704   -0.2156    2.0615 H   0  0  0  0  0  0  0  0  0  0  0  0
    0.5158   -4.1079    0.6782 H   0  0  0  0  0  0  0  0  0  0  0  0
   -1.8551    0.9954   -0.7273 H   0  0  0  0  0  0  0  0  0  0  0  0
   -2.2533    0.3068    0.9306 H   0  0  0  0  0  0  0  0  0  0  0  0
  1  2  3  0
  2  3  1  0
  3  4  1  0
  4  5  1  0
  5  6  1  0
  6  7  3  0
  4  8  1  0
  8  9  1  0
  9  4  1  0
  1 10  1  0
  3 11  1  0
  3 12  1  0
  5 13  1  0
  5 14  1  0
  7 15  1  0
  8 16  1  0
  8 17  1  0
M  END
