
     RDKit          3D

 19 18  0  0  0  0  0  0  0  0999 V2000
    1.9436    2.2570    0.2344 C   0  0  0  0  0  0  0  0  0  0  0  0
    1.5078    1.1366    0.0342 C   0  0  0  0  0  0  0  0  0  0  0  0
    0.9700   -0.2078   -0.1854 C   0  0  0  0  0  0  0  0  0  0  0  0
   -0.4039   -0.3392    0.4180 C   0  0  0  0  0  0  0  0  0  0  0  0
   -1.3889    0.6303   -0.1656 C   0  0  0  0  0  0  0  0  0  0  0  0
   -2.7275    0.4079    0.5123 C   0  0  0  0  0  0  0  0  0  0  0  0
    1.8206   -1.1661    0.4173 O   0  0  0  0  0  0  0  0  0  0  0  0
    2.4577   -2.1643   -0.2895 C   0  0  0  0  0  0  0  0  0  0  0  0
    2.2468   -2.1943   -1.5450 O   0  0  0  0  0  0  0  0  0  0  0  0
    2.3284    3.2319    0.3991 H   0  0  0  0  0  0  0  0  0  0  0  0
    0.9489   -0.4425   -1.2676 H   0  0  0  0  0  0  0  0  0  0  0  0
   -0.7558   -1.3837    0.2878 H   0  0  0  0  0  0  0  0  0  0  0  0
   -0.3428   -0.1643    1.5112 H   0  0  0  0  0  0  0  0  0  0  0  0
   -1.0698    1.6721    0.0408 H   0  0  0  0  0  0  0  0  0  0  0  0
   -1.4768    0.5291   -1.2638 H   0  0  0  0  0  0  0  0  0  0  0  0
   -3.2155   -0.4716    0.0507 H   0  0  0  0  0  0  0  0  0  0  0  0
   -2.5513    0.2942    1.5997 H   0  0  0  0  0  0  0  0  0  0  0  0
   -3.4041    1.2766    0.3336 H   0  0  0  0  0  0  0  0  0  0  0  0
    3.1126   -2.9020    0.1751 H   0  0  0  0  0  0  0  0  0  0  0  0
  1  2  3  0
  2  3  1  0
  3  4  1  0
  4  5  1  0
  5  6  1  0
  3  7  1  0
  7  8  1  0
  8  9  2  0
  1 10  1  0
  3 11  1  0
  4 12  1  0
  4 13  1  0
  5 14  1  0
  5 15  1  0
  6 16  1  0
  6 17  1  0
  6 18  1  0
  8 19  1  0
M  END
