
     RDKit          3D

 14 13  0  0  0  0  0  0  0  0999 V2000
   -2.3589   -1.3774   -0.0720 C   0  0  0  0  0  0  0  0  0  0  0  0
   -1.2771   -1.0424   -0.5086 C   0  0  0  0  0  0  0  0  0  0  0  0
    0.0305   -0.6305   -1.0579 C   0  0  0  0  0  0  0  0  0  0  0  0
    0.7950   -1.7630   -1.3578 O   0  0  0  0  0  0  0  0  0  0  0  0
    0.8035    0.1777   -0.0193 C   0  0  0  0  0  0  0  0  0  0  0  0
    0.0965    1.3486    0.3402 O   0  0  0  0  0  0  0  0  0  0  0  0
    0.5484    2.2715    1.2553 C   0  0  0  0  0  0  0  0  0  0  0  0
    1.6702    2.0711    1.8201 O   0  0  0  0  0  0  0  0  0  0  0  0
   -3.3125   -1.6545    0.3040 H   0  0  0  0  0  0  0  0  0  0  0  0
   -0.1255   -0.0730   -1.9829 H   0  0  0  0  0  0  0  0  0  0  0  0
    0.4527   -2.4741   -0.7255 H   0  0  0  0  0  0  0  0  0  0  0  0
    0.8693   -0.4736    0.8948 H   0  0  0  0  0  0  0  0  0  0  0  0
    1.7887    0.4484   -0.4306 H   0  0  0  0  0  0  0  0  0  0  0  0
    0.0193    3.1711    1.5406 H   0  0  0  0  0  0  0  0  0  0  0  0
  1  2  3  0
  2  3  1  0
  3  4  1  0
  3  5  1  0
  5  6  1  0
  6  7  1  0
  7  8  2  0
  1  9  1  0
  3 10  1  0
  4 11  1  0
  5 12  1  0
  5 13  1  0
  7 14  1  0
M  END
