
     RDKit          3D

 14 13  0  0  0  0  0  0  0  0999 V2000
    3.4434   -0.1810   -2.8849 C   0  0  0  0  0  0  0  0  0  0  0  0
    3.1190   -0.1239   -2.1462 C   0  0  0  0  0  0  0  0  0  0  0  0
    2.6232   -0.0465   -1.0677 C   0  0  0  0  0  0  0  0  0  0  0  0
    1.9720    0.0723    0.3089 C   0  0  0  0  0  0  0  0  0  0  0  0
    1.1886    0.1996    1.9871 C   0  0  0  0  0  0  0  0  0  0  0  0
   -0.8839    0.2495    1.0958 C   0  0  0  0  0  0  0  0  0  0  0  0
   -2.5845    0.2910    0.3378 C   0  0  0  0  0  0  0  0  0  0  0  0
   -3.2762    0.2979    0.0310 C   0  0  0  0  0  0  0  0  0  0  0  0
    3.8301   -0.2397   -3.7560 H   0  0  0  0  0  0  0  0  0  0  0  0
    0.8727    1.1508    1.6747 H   0  0  0  0  0  0  0  0  0  0  0  0
    0.7375   -0.7933    1.8611 H   0  0  0  0  0  0  0  0  0  0  0  0
   -3.1050   -1.3321    0.6756 H   0  0  0  0  0  0  0  0  0  0  0  0
   -3.5179   -0.0171    1.6927 H   0  0  0  0  0  0  0  0  0  0  0  0
   -4.4189   -0.1678    0.1902 H   0  0  0  0  0  0  0  0  0  0  0  0
  1  2  3  0
  2  3  1  0
  3  4  3  0
  4  5  1  0
  5  6  1  0
  6  7  3  0
  7  8  1  0
  1  9  1  0
  5 10  1  0
  5 11  1  0
  8 12  1  0
  8 13  1  0
  8 14  1  0
M  END
