
     RDKit          3D

 17 16  0  0  0  0  0  0  0  0999 V2000
   -1.7590    3.2360    0.7875 C   0  0  0  0  0  0  0  0  0  0  0  0
   -1.7989    2.0691    0.4374 C   0  0  0  0  0  0  0  0  0  0  0  0
   -1.8498    0.6680    0.0082 C   0  0  0  0  0  0  0  0  0  0  0  0
   -0.5364    0.2450   -0.2488 O   0  0  0  0  0  0  0  0  0  0  0  0
   -0.3126   -1.0480   -0.6710 C   0  0  0  0  0  0  0  0  0  0  0  0
   -1.3591   -1.7762   -0.7963 O   0  0  0  0  0  0  0  0  0  0  0  0
    1.0275   -1.6063   -0.9752 C   0  0  0  0  0  0  0  0  0  0  0  0
    2.0488   -0.7276   -0.7170 O   0  0  0  0  0  0  0  0  0  0  0  0
    2.1396   -0.4165    0.6127 C   0  0  0  0  0  0  0  0  0  0  0  0
   -1.7249    4.2498    1.0954 H   0  0  0  0  0  0  0  0  0  0  0  0
   -2.4009    0.6271   -0.9644 H   0  0  0  0  0  0  0  0  0  0  0  0
   -2.3679    0.0421    0.7693 H   0  0  0  0  0  0  0  0  0  0  0  0
    1.1121   -1.8932   -2.0476 H   0  0  0  0  0  0  0  0  0  0  0  0
    1.1599   -2.5530   -0.3675 H   0  0  0  0  0  0  0  0  0  0  0  0
    2.3256   -1.3811    1.1793 H   0  0  0  0  0  0  0  0  0  0  0  0
    1.2557    0.0393    1.0778 H   0  0  0  0  0  0  0  0  0  0  0  0
    3.0403    0.2254    0.8202 H   0  0  0  0  0  0  0  0  0  0  0  0
  1  2  3  0
  2  3  1  0
  3  4  1  0
  4  5  1  0
  5  6  2  0
  5  7  1  0
  7  8  1  0
  8  9  1  0
  1 10  1  0
  3 11  1  0
  3 12  1  0
  7 13  1  0
  7 14  1  0
  9 15  1  0
  9 16  1  0
  9 17  1  0
M  END
