
     RDKit          3D

 19 20  0  0  0  0  0  0  0  0999 V2000
    3.5341   -0.0981    0.6003 C   0  0  0  0  0  0  0  0  0  0  0  0
    2.5090   -0.5450    0.1251 C   0  0  0  0  0  0  0  0  0  0  0  0
    1.2684   -1.0666   -0.4544 C   0  0  0  0  0  0  0  0  0  0  0  0
    0.3077    0.1347   -0.5418 C   0  0  0  0  0  0  0  0  0  0  0  0
    0.8937    1.1279   -1.3697 O   0  0  0  0  0  0  0  0  0  0  0  0
   -1.0885   -0.0498   -0.6808 C   0  0  0  0  0  0  0  0  0  0  0  0
   -2.2224    0.7278   -0.0058 C   0  0  0  0  0  0  0  0  0  0  0  0
   -1.6977   -0.1192    1.1794 C   0  0  0  0  0  0  0  0  0  0  0  0
   -0.3827    0.4641    0.6494 C   0  0  0  0  0  0  0  0  0  0  0  0
    4.4255    0.3071    1.0282 H   0  0  0  0  0  0  0  0  0  0  0  0
    0.8314   -1.8825    0.1470 H   0  0  0  0  0  0  0  0  0  0  0  0
    1.4999   -1.4465   -1.4796 H   0  0  0  0  0  0  0  0  0  0  0  0
    0.9872    0.7054   -2.2596 H   0  0  0  0  0  0  0  0  0  0  0  0
   -1.4004   -1.1434   -0.6280 H   0  0  0  0  0  0  0  0  0  0  0  0
   -3.2038    0.4378   -0.3658 H   0  0  0  0  0  0  0  0  0  0  0  0
   -1.9908    1.7897    0.1017 H   0  0  0  0  0  0  0  0  0  0  0  0
   -1.9655    0.2616    2.1580 H   0  0  0  0  0  0  0  0  0  0  0  0
   -1.8287   -1.1936    0.9957 H   0  0  0  0  0  0  0  0  0  0  0  0
   -0.4765    1.5887    0.8007 H   0  0  0  0  0  0  0  0  0  0  0  0
  1  2  3  0
  2  3  1  0
  3  4  1  0
  4  5  1  0
  4  6  1  0
  6  7  1  0
  7  8  1  0
  8  9  1  0
  9  4  1  0
  9  6  1  0
  1 10  1  0
  3 11  1  0
  3 12  1  0
  5 13  1  0
  6 14  1  0
  7 15  1  0
  7 16  1  0
  8 17  1  0
  8 18  1  0
  9 19  1  0
M  END
