
     RDKit          3D

 21 21  0  0  0  0  0  0  0  0999 V2000
   -0.2092    3.0810    1.0281 C   0  0  0  0  0  0  0  0  0  0  0  0
   -0.0440    2.0081    0.5074 C   0  0  0  0  0  0  0  0  0  0  0  0
    0.1439    0.6730   -0.1446 C   0  0  0  0  0  0  0  0  0  0  0  0
    1.5212    0.5019   -0.6781 C   0  0  0  0  0  0  0  0  0  0  0  0
    1.8258   -0.7806   -1.3610 C   0  0  0  0  0  0  0  0  0  0  0  0
   -0.9391    0.3246   -1.0402 O   0  0  0  0  0  0  0  0  0  0  0  0
   -0.7882   -0.3429    0.2558 C   0  0  0  0  0  0  0  0  0  0  0  0
   -1.8932    0.0870    1.2502 C   0  0  0  0  0  0  0  0  0  0  0  0
   -0.6399   -1.8189    0.1148 C   0  0  0  0  0  0  0  0  0  0  0  0
   -0.3531    4.0099    1.4889 H   0  0  0  0  0  0  0  0  0  0  0  0
    1.7022    1.3202   -1.4379 H   0  0  0  0  0  0  0  0  0  0  0  0
    2.3052    0.6429    0.1207 H   0  0  0  0  0  0  0  0  0  0  0  0
    1.1249   -1.0060   -2.2076 H   0  0  0  0  0  0  0  0  0  0  0  0
    2.8550   -0.7562   -1.8425 H   0  0  0  0  0  0  0  0  0  0  0  0
    1.8669   -1.6771   -0.7177 H   0  0  0  0  0  0  0  0  0  0  0  0
   -2.8544    0.0802    0.7035 H   0  0  0  0  0  0  0  0  0  0  0  0
   -1.7119    1.0981    1.6317 H   0  0  0  0  0  0  0  0  0  0  0  0
   -1.9789   -0.6913    2.0355 H   0  0  0  0  0  0  0  0  0  0  0  0
    0.1460   -2.2438    0.8056 H   0  0  0  0  0  0  0  0  0  0  0  0
   -1.6217   -2.3202    0.3973 H   0  0  0  0  0  0  0  0  0  0  0  0
   -0.4573   -2.1898   -0.9099 H   0  0  0  0  0  0  0  0  0  0  0  0
  1  2  3  0
  2  3  1  0
  3  4  1  0
  4  5  1  0
  3  6  1  0
  6  7  1  0
  7  8  1  0
  7  9  1  0
  7  3  1  0
  1 10  1  0
  4 11  1  0
  4 12  1  0
  5 13  1  0
  5 14  1  0
  5 15  1  0
  8 16  1  0
  8 17  1  0
  8 18  1  0
  9 19  1  0
  9 20  1  0
  9 21  1  0
M  END
