
     RDKit          3D

 17 16  0  0  0  0  0  0  0  0999 V2000
    2.9447   -0.1089    0.7008 C   0  0  0  0  0  0  0  0  0  0  0  0
    1.9967    0.3702    0.0908 C   0  0  0  0  0  0  0  0  0  0  0  0
    0.8777    0.9605   -0.6216 C   0  0  0  0  0  0  0  0  0  0  0  0
    0.6209    2.2205   -0.1385 O   0  0  0  0  0  0  0  0  0  0  0  0
   -0.3134    0.0464   -0.6190 C   0  0  0  0  0  0  0  0  0  0  0  0
   -0.8126   -0.2818    0.7528 C   0  0  0  0  0  0  0  0  0  0  0  0
   -2.0173   -1.2137    0.5704 C   0  0  0  0  0  0  0  0  0  0  0  0
    3.7723   -0.5277    1.2123 H   0  0  0  0  0  0  0  0  0  0  0  0
    1.1853    1.0750   -1.6981 H   0  0  0  0  0  0  0  0  0  0  0  0
    1.0114    2.4008    0.7561 H   0  0  0  0  0  0  0  0  0  0  0  0
   -1.1326    0.5084   -1.1828 H   0  0  0  0  0  0  0  0  0  0  0  0
    0.0078   -0.9090   -1.0932 H   0  0  0  0  0  0  0  0  0  0  0  0
   -0.0777   -0.8447    1.3648 H   0  0  0  0  0  0  0  0  0  0  0  0
   -1.1887    0.5989    1.3059 H   0  0  0  0  0  0  0  0  0  0  0  0
   -2.5563   -1.3804    1.5044 H   0  0  0  0  0  0  0  0  0  0  0  0
   -2.6889   -0.7251   -0.1683 H   0  0  0  0  0  0  0  0  0  0  0  0
   -1.6293   -2.1893    0.1811 H   0  0  0  0  0  0  0  0  0  0  0  0
  1  2  3  0
  2  3  1  0
  3  4  1  0
  3  5  1  0
  5  6  1  0
  6  7  1  0
  1  8  1  0
  3  9  1  0
  4 10  1  0
  5 11  1  0
  5 12  1  0
  6 13  1  0
  6 14  1  0
  7 15  1  0
  7 16  1  0
  7 17  1  0
M  END
