
     RDKit          3D

 17 16  0  0  0  0  0  0  0  0999 V2000
    0.0755    1.9690   -2.0451 C   0  0  0  0  0  0  0  0  0  0  0  0
   -0.2094    1.1344   -1.0535 C   0  0  0  0  0  0  0  0  0  0  0  0
   -0.4193    0.5473   -0.3608 C   0  0  0  0  0  0  0  0  0  0  0  0
    1.1014    0.3125    0.3668 C   0  0  0  0  0  0  0  0  0  0  0  0
    1.3533   -0.5232    1.4150 C   0  0  0  0  0  0  0  0  0  0  0  0
   -0.8900   -0.9493   -0.3871 C   0  0  0  0  0  0  0  0  0  0  0  0
   -0.0506   -1.7849   -0.5589 O   0  0  0  0  0  0  0  0  0  0  0  0
   -2.2458   -1.2441   -0.2246 C   0  0  0  0  0  0  0  0  0  0  0  0
   -3.0864   -0.1377   -0.1145 O   0  0  0  0  0  0  0  0  0  0  0  0
    0.3746    2.8666   -3.0821 H   0  0  0  0  0  0  0  0  0  0  0  0
   -0.8759    0.7556    0.8243 H   0  0  0  0  0  0  0  0  0  0  0  0
    1.7489    0.1372   -0.5626 H   0  0  0  0  0  0  0  0  0  0  0  0
    1.2462    1.4214    0.6088 H   0  0  0  0  0  0  0  0  0  0  0  0
    2.1352   -1.3378    1.0824 H   0  0  0  0  0  0  0  0  0  0  0  0
    2.0543   -0.0147    2.2388 H   0  0  0  0  0  0  0  0  0  0  0  0
    0.6462   -1.1099    1.9997 H   0  0  0  0  0  0  0  0  0  0  0  0
   -2.9583   -2.0424   -0.1464 H   0  0  0  0  0  0  0  0  0  0  0  0
  1  2  3  0
  2  3  1  0
  3  4  1  0
  4  5  1  0
  3  6  1  0
  6  7  2  0
  6  8  1  0
  8  9  2  0
  1 10  1  0
  3 11  1  0
  4 12  1  0
  4 13  1  0
  5 14  1  0
  5 15  1  0
  5 16  1  0
  8 17  1  0
M  END
