
     RDKit          3D

 19 19  0  0  0  0  0  0  0  0999 V2000
    2.8630    0.3350   -1.8164 C   0  0  0  0  0  0  0  0  0  0  0  0
    1.9983    0.8702   -1.0120 C   0  0  0  0  0  0  0  0  0  0  0  0
    1.0258    1.4446   -0.1302 C   0  0  0  0  0  0  0  0  0  0  0  0
   -0.0742    0.6401    0.3632 C   0  0  0  0  0  0  0  0  0  0  0  0
   -1.0689    0.0912   -0.6370 C   0  0  0  0  0  0  0  0  0  0  0  0
   -1.8090   -0.9152    0.2790 C   0  0  0  0  0  0  0  0  0  0  0  0
   -0.8337   -1.2811    1.3763 C   0  0  0  0  0  0  0  0  0  0  0  0
    0.4420   -0.7383    0.8099 C   0  0  0  0  0  0  0  0  0  0  0  0
    1.5418   -1.1558    0.6985 O   0  0  0  0  0  0  0  0  0  0  0  0
    3.4973   -0.0409   -2.4083 H   0  0  0  0  0  0  0  0  0  0  0  0
    0.5302    2.2728   -0.7837 H   0  0  0  0  0  0  0  0  0  0  0  0
    1.5226    2.0654    0.6811 H   0  0  0  0  0  0  0  0  0  0  0  0
   -0.6288    1.0393    1.2205 H   0  0  0  0  0  0  0  0  0  0  0  0
   -1.7499    0.8735   -1.0035 H   0  0  0  0  0  0  0  0  0  0  0  0
   -0.6448   -0.4487   -1.4688 H   0  0  0  0  0  0  0  0  0  0  0  0
   -2.1278   -1.7854   -0.3030 H   0  0  0  0  0  0  0  0  0  0  0  0
   -2.6672   -0.3552    0.7132 H   0  0  0  0  0  0  0  0  0  0  0  0
   -0.7850   -2.3214    1.6494 H   0  0  0  0  0  0  0  0  0  0  0  0
   -1.0317   -0.5901    2.2555 H   0  0  0  0  0  0  0  0  0  0  0  0
  1  2  3  0
  2  3  1  0
  3  4  1  0
  4  5  1  0
  5  6  1  0
  6  7  1  0
  7  8  1  0
  8  9  2  0
  8  4  1  0
  1 10  1  0
  3 11  1  0
  3 12  1  0
  4 13  1  0
  5 14  1  0
  5 15  1  0
  6 16  1  0
  6 17  1  0
  7 18  1  0
  7 19  1  0
M  END
