
     RDKit          3D

 21 20  0  0  0  0  0  0  0  0999 V2000
    2.3812    1.8785    0.2136 C   0  0  0  0  0  0  0  0  0  0  0  0
    1.7014    0.9755   -0.1850 C   0  0  0  0  0  0  0  0  0  0  0  0
    0.8852   -0.1132   -0.6907 C   0  0  0  0  0  0  0  0  0  0  0  0
    1.4140   -1.3947   -0.2188 C   0  0  0  0  0  0  0  0  0  0  0  0
    1.8526   -2.4448    0.1904 C   0  0  0  0  0  0  0  0  0  0  0  0
   -0.5326    0.0734   -0.1934 C   0  0  0  0  0  0  0  0  0  0  0  0
   -0.5938    0.0705    1.3166 C   0  0  0  0  0  0  0  0  0  0  0  0
   -1.4420   -1.0356   -0.6787 C   0  0  0  0  0  0  0  0  0  0  0  0
   -1.0503    1.3905   -0.7226 C   0  0  0  0  0  0  0  0  0  0  0  0
    3.0058    2.6848    0.5624 H   0  0  0  0  0  0  0  0  0  0  0  0
    0.8202   -0.1057   -1.8105 H   0  0  0  0  0  0  0  0  0  0  0  0
    2.2414   -3.3713    0.5714 H   0  0  0  0  0  0  0  0  0  0  0  0
   -1.6587   -0.1476    1.6056 H   0  0  0  0  0  0  0  0  0  0  0  0
   -0.2677    1.0717    1.7001 H   0  0  0  0  0  0  0  0  0  0  0  0
    0.0138   -0.7540    1.7439 H   0  0  0  0  0  0  0  0  0  0  0  0
   -1.6442   -1.7629    0.1356 H   0  0  0  0  0  0  0  0  0  0  0  0
   -2.4240   -0.6356   -1.0136 H   0  0  0  0  0  0  0  0  0  0  0  0
   -1.0174   -1.5700   -1.5495 H   0  0  0  0  0  0  0  0  0  0  0  0
   -1.8809    1.2159   -1.4574 H   0  0  0  0  0  0  0  0  0  0  0  0
   -0.2825    1.9638   -1.2750 H   0  0  0  0  0  0  0  0  0  0  0  0
   -1.5217    2.0108    0.0919 H   0  0  0  0  0  0  0  0  0  0  0  0
  1  2  3  0
  2  3  1  0
  3  4  1  0
  4  5  3  0
  3  6  1  0
  6  7  1  0
  6  8  1  0
  6  9  1  0
  1 10  1  0
  3 11  1  0
  5 12  1  0
  7 13  1  0
  7 14  1  0
  7 15  1  0
  8 16  1  0
  8 17  1  0
  8 18  1  0
  9 19  1  0
  9 20  1  0
  9 21  1  0
M  END
