
     RDKit          3D

 14 15  0  0  0  0  0  0  0  0999 V2000
    3.2341   -0.3975   -0.0524 C   0  0  0  0  0  0  0  0  0  0  0  0
    2.0528   -0.1892    0.0624 C   0  0  0  0  0  0  0  0  0  0  0  0
    0.6515    0.0782    0.2096 C   0  0  0  0  0  0  0  0  0  0  0  0
   -0.0238    1.2173   -0.0582 C   0  0  0  0  0  0  0  0  0  0  0  0
   -1.4119    0.7973    0.3253 C   0  0  0  0  0  0  0  0  0  0  0  0
   -1.5201   -0.5435   -0.3317 C   0  0  0  0  0  0  0  0  0  0  0  0
   -0.4473   -0.7925    0.6871 C   0  0  0  0  0  0  0  0  0  0  0  0
   -1.1554    0.1124    1.5127 O   0  0  0  0  0  0  0  0  0  0  0  0
    4.2928   -0.5736   -0.1401 H   0  0  0  0  0  0  0  0  0  0  0  0
    0.3375    2.1544   -0.4379 H   0  0  0  0  0  0  0  0  0  0  0  0
   -2.1933    1.5014    0.2742 H   0  0  0  0  0  0  0  0  0  0  0  0
   -2.4723   -1.0550   -0.2001 H   0  0  0  0  0  0  0  0  0  0  0  0
   -1.0941   -0.5491   -1.3740 H   0  0  0  0  0  0  0  0  0  0  0  0
   -0.2505   -1.7604    1.0506 H   0  0  0  0  0  0  0  0  0  0  0  0
  1  2  3  0
  2  3  1  0
  3  4  2  0
  4  5  1  0
  5  6  1  0
  6  7  1  0
  7  8  1  0
  7  3  1  0
  8  5  1  0
  1  9  1  0
  4 10  1  0
  5 11  1  0
  6 12  1  0
  6 13  1  0
  7 14  1  0
M  END
