
     RDKit          3D

 21 21  0  0  0  0  0  0  0  0999 V2000
    4.0603    0.1428    0.6344 C   0  0  0  0  0  0  0  0  0  0  0  0
    2.9376   -0.1711    0.7518 C   0  0  0  0  0  0  0  0  0  0  0  0
    1.5597   -0.5658    0.8998 C   0  0  0  0  0  0  0  0  0  0  0  0
    0.7584   -0.4686   -0.3965 C   0  0  0  0  0  0  0  0  0  0  0  0
   -0.6325   -0.9133   -0.0915 C   0  0  0  0  0  0  0  0  0  0  0  0
   -1.5564   -0.8642   -1.3228 C   0  0  0  0  0  0  0  0  0  0  0  0
   -1.8128   -0.0599   -0.0760 C   0  0  0  0  0  0  0  0  0  0  0  0
   -1.7462    1.4295   -0.2236 C   0  0  0  0  0  0  0  0  0  0  0  0
   -1.0082    2.0584    0.7556 O   0  0  0  0  0  0  0  0  0  0  0  0
    5.1062    0.4517    0.5351 H   0  0  0  0  0  0  0  0  0  0  0  0
    1.4916   -1.6438    1.2292 H   0  0  0  0  0  0  0  0  0  0  0  0
    1.0745    0.0169    1.7124 H   0  0  0  0  0  0  0  0  0  0  0  0
    1.2774   -1.1154   -1.1636 H   0  0  0  0  0  0  0  0  0  0  0  0
    0.8210    0.5912   -0.7155 H   0  0  0  0  0  0  0  0  0  0  0  0
   -0.6692   -1.8697    0.5089 H   0  0  0  0  0  0  0  0  0  0  0  0
   -2.1530   -1.7761   -1.5332 H   0  0  0  0  0  0  0  0  0  0  0  0
   -1.2036   -0.3116   -2.2194 H   0  0  0  0  0  0  0  0  0  0  0  0
   -2.6869   -0.4434    0.5246 H   0  0  0  0  0  0  0  0  0  0  0  0
   -1.3732    1.7179   -1.2493 H   0  0  0  0  0  0  0  0  0  0  0  0
   -2.7994    1.8240   -0.1935 H   0  0  0  0  0  0  0  0  0  0  0  0
   -1.4454    1.9706    1.6332 H   0  0  0  0  0  0  0  0  0  0  0  0
  1  2  3  0
  2  3  1  0
  3  4  1  0
  4  5  1  0
  5  6  1  0
  6  7  1  0
  7  8  1  0
  8  9  1  0
  7  5  1  0
  1 10  1  0
  3 11  1  0
  3 12  1  0
  4 13  1  0
  4 14  1  0
  5 15  1  0
  6 16  1  0
  6 17  1  0
  7 18  1  0
  8 19  1  0
  8 20  1  0
  9 21  1  0
M  END
