
     RDKit          3D

 19 18  0  0  0  0  0  0  0  0999 V2000
   -0.4403   -0.4085    2.7260 C   0  0  0  0  0  0  0  0  0  0  0  0
   -0.5431   -0.1741    1.6062 C   0  0  0  0  0  0  0  0  0  0  0  0
   -0.6790    0.1247    0.0819 C   0  0  0  0  0  0  0  0  0  0  0  0
   -0.6238   -1.4573   -0.3957 C   0  0  0  0  0  0  0  0  0  0  0  0
    0.9410    0.4447   -0.1380 C   0  0  0  0  0  0  0  0  0  0  0  0
    2.0009    0.6571   -0.2629 C   0  0  0  0  0  0  0  0  0  0  0  0
    3.5537    0.9520   -0.4622 C   0  0  0  0  0  0  0  0  0  0  0  0
   -1.4219    0.7033   -0.6047 O   0  0  0  0  0  0  0  0  0  0  0  0
   -2.7383    0.4039   -0.8913 C   0  0  0  0  0  0  0  0  0  0  0  0
   -0.3270   -0.6486    3.8059 H   0  0  0  0  0  0  0  0  0  0  0  0
   -0.7959   -1.3401   -1.5114 H   0  0  0  0  0  0  0  0  0  0  0  0
    0.3978   -1.7537   -0.1606 H   0  0  0  0  0  0  0  0  0  0  0  0
   -1.3838   -1.9470    0.1274 H   0  0  0  0  0  0  0  0  0  0  0  0
    3.6396    1.9532   -0.7601 H   0  0  0  0  0  0  0  0  0  0  0  0
    3.9850    0.0728   -0.7484 H   0  0  0  0  0  0  0  0  0  0  0  0
    3.8104    0.9982    0.7445 H   0  0  0  0  0  0  0  0  0  0  0  0
   -2.9646    1.2396   -1.6888 H   0  0  0  0  0  0  0  0  0  0  0  0
   -3.4781    0.7209   -0.1068 H   0  0  0  0  0  0  0  0  0  0  0  0
   -2.9325   -0.5409   -1.3612 H   0  0  0  0  0  0  0  0  0  0  0  0
  1  2  3  0
  2  3  1  0
  3  4  1  0
  3  5  1  0
  5  6  3  0
  6  7  1  0
  3  8  1  0
  8  9  1  0
  1 10  1  0
  4 11  1  0
  4 12  1  0
  4 13  1  0
  7 14  1  0
  7 15  1  0
  7 16  1  0
  9 17  1  0
  9 18  1  0
  9 19  1  0
M  END
