
     RDKit          3D

 19 20  0  0  0  0  0  0  0  0999 V2000
   -3.2611   -0.4596   -1.7391 C   0  0  0  0  0  0  0  0  0  0  0  0
   -2.3996   -0.6419   -0.9132 C   0  0  0  0  0  0  0  0  0  0  0  0
   -1.3826   -0.8426    0.0873 C   0  0  0  0  0  0  0  0  0  0  0  0
   -0.7698    0.4575    0.5843 C   0  0  0  0  0  0  0  0  0  0  0  0
    0.2991    0.2423    1.6363 C   0  0  0  0  0  0  0  0  0  0  0  0
    0.6060    0.7798    0.3212 C   0  0  0  0  0  0  0  0  0  0  0  0
    1.4968    0.1371   -0.6762 C   0  0  0  0  0  0  0  0  0  0  0  0
    2.3467    1.3222   -0.2617 C   0  0  0  0  0  0  0  0  0  0  0  0
    1.1433    1.9944    0.0573 O   0  0  0  0  0  0  0  0  0  0  0  0
   -4.0405   -0.3092   -2.4668 H   0  0  0  0  0  0  0  0  0  0  0  0
   -0.5643   -1.4565   -0.3027 H   0  0  0  0  0  0  0  0  0  0  0  0
   -1.8514   -1.3970    0.9354 H   0  0  0  0  0  0  0  0  0  0  0  0
   -1.5212    1.2059    0.8751 H   0  0  0  0  0  0  0  0  0  0  0  0
    0.6408   -0.7917    1.8573 H   0  0  0  0  0  0  0  0  0  0  0  0
    0.3589    0.9600    2.4950 H   0  0  0  0  0  0  0  0  0  0  0  0
    1.8908   -0.8291   -0.3478 H   0  0  0  0  0  0  0  0  0  0  0  0
    1.2007    0.2133   -1.7410 H   0  0  0  0  0  0  0  0  0  0  0  0
    2.9196    1.7957   -1.0724 H   0  0  0  0  0  0  0  0  0  0  0  0
    2.8877    1.1194    0.6717 H   0  0  0  0  0  0  0  0  0  0  0  0
  1  2  3  0
  2  3  1  0
  3  4  1  0
  4  5  1  0
  5  6  1  0
  6  7  1  0
  7  8  1  0
  8  9  1  0
  6  4  1  0
  9  6  1  0
  1 10  1  0
  3 11  1  0
  3 12  1  0
  4 13  1  0
  5 14  1  0
  5 15  1  0
  7 16  1  0
  7 17  1  0
  8 18  1  0
  8 19  1  0
M  END
