
     RDKit          3D

 17 18  0  0  0  0  0  0  0  0999 V2000
    2.5979    0.3256   -0.2640 C   0  0  0  0  0  0  0  0  0  0  0  0
    1.4377   -0.7532   -0.1182 C   0  0  0  0  0  0  0  0  0  0  0  0
    0.2433   -1.8561    0.0177 C   0  0  0  0  0  0  0  0  0  0  0  0
   -0.4069   -1.4448   -1.2036 O   0  0  0  0  0  0  0  0  0  0  0  0
   -1.1553   -0.3853   -0.6911 C   0  0  0  0  0  0  0  0  0  0  0  0
   -0.7023    0.9741   -0.8901 C   0  0  0  0  0  0  0  0  0  0  0  0
   -0.2308    1.4454    0.4976 C   0  0  0  0  0  0  0  0  0  0  0  0
   -0.2782    0.3673    1.3249 C   0  0  0  0  0  0  0  0  0  0  0  0
   -0.7495   -0.8016    0.6753 C   0  0  0  0  0  0  0  0  0  0  0  0
    3.4337    1.1034   -0.3825 H   0  0  0  0  0  0  0  0  0  0  0  0
    0.5924   -2.6521    0.4235 H   0  0  0  0  0  0  0  0  0  0  0  0
   -2.2596   -0.5157   -0.8831 H   0  0  0  0  0  0  0  0  0  0  0  0
    0.2759    0.9724   -1.4743 H   0  0  0  0  0  0  0  0  0  0  0  0
   -1.4689    1.6451   -1.2927 H   0  0  0  0  0  0  0  0  0  0  0  0
   -0.0490    2.4493    0.6594 H   0  0  0  0  0  0  0  0  0  0  0  0
    0.1944    0.5630    2.3385 H   0  0  0  0  0  0  0  0  0  0  0  0
   -1.4751   -1.4370    1.2628 H   0  0  0  0  0  0  0  0  0  0  0  0
  1  2  3  0
  2  3  1  0
  3  4  1  0
  4  5  1  0
  5  6  1  0
  6  7  1  0
  7  8  2  0
  8  9  1  0
  9  3  1  0
  9  5  1  0
  1 10  1  0
  3 11  1  0
  5 12  1  0
  6 13  1  0
  6 14  1  0
  7 15  1  0
  8 16  1  0
  9 17  1  0
M  END
