
     RDKit          3D

 15 14  0  0  0  0  0  0  0  0999 V2000
   -1.3997    2.6390   -0.1282 C   0  0  0  0  0  0  0  0  0  0  0  0
   -1.0634    1.5058    0.0021 C   0  0  0  0  0  0  0  0  0  0  0  0
   -0.6417    0.1035    0.1383 C   0  0  0  0  0  0  0  0  0  0  0  0
    0.4049    0.0675    1.0554 O   0  0  0  0  0  0  0  0  0  0  0  0
    0.3700   -0.6842    2.2117 C   0  0  0  0  0  0  0  0  0  0  0  0
   -0.6676   -1.3663    2.4305 O   0  0  0  0  0  0  0  0  0  0  0  0
   -0.1540   -0.4098   -1.1803 C   0  0  0  0  0  0  0  0  0  0  0  0
    1.2703   -0.8755   -1.3279 C   0  0  0  0  0  0  0  0  0  0  0  0
   -0.8886   -0.4668   -2.1665 O   0  0  0  0  0  0  0  0  0  0  0  0
   -1.7096    3.6741   -0.2554 H   0  0  0  0  0  0  0  0  0  0  0  0
   -1.4779   -0.5294    0.4606 H   0  0  0  0  0  0  0  0  0  0  0  0
    1.2251   -0.6776    2.9067 H   0  0  0  0  0  0  0  0  0  0  0  0
    1.6012   -1.1549   -0.3124 H   0  0  0  0  0  0  0  0  0  0  0  0
    1.8900   -0.0791   -1.8028 H   0  0  0  0  0  0  0  0  0  0  0  0
    1.2411   -1.7463   -2.0352 H   0  0  0  0  0  0  0  0  0  0  0  0
  1  2  3  0
  2  3  1  0
  3  4  1  0
  4  5  1  0
  5  6  2  0
  3  7  1  0
  7  8  1  0
  7  9  2  0
  1 10  1  0
  3 11  1  0
  5 12  1  0
  8 13  1  0
  8 14  1  0
  8 15  1  0
M  END
