
     RDKit          3D

 17 18  0  0  0  0  0  0  0  0999 V2000
    3.3130    2.0154   -0.2930 C   0  0  0  0  0  0  0  0  0  0  0  0
    2.1599    1.3387   -0.1958 C   0  0  0  0  0  0  0  0  0  0  0  0
    0.9091    0.6225   -0.0713 C   0  0  0  0  0  0  0  0  0  0  0  0
    0.7036   -0.6270   -0.1430 C   0  0  0  0  0  0  0  0  0  0  0  0
   -0.7648   -0.8403    0.0509 C   0  0  0  0  0  0  0  0  0  0  0  0
   -1.2917   -2.2650    0.0385 C   0  0  0  0  0  0  0  0  0  0  0  0
   -1.6035   -0.1247   -0.9405 O   0  0  0  0  0  0  0  0  0  0  0  0
   -1.3294    0.3518    0.4139 C   0  0  0  0  0  0  0  0  0  0  0  0
   -0.3175    1.4704    0.2517 C   0  0  0  0  0  0  0  0  0  0  0  0
    4.1779    2.5171   -0.3487 H   0  0  0  0  0  0  0  0  0  0  0  0
    1.4010   -1.4355   -0.3053 H   0  0  0  0  0  0  0  0  0  0  0  0
   -1.4977   -2.5651   -1.0386 H   0  0  0  0  0  0  0  0  0  0  0  0
   -0.6024   -2.9157    0.5700 H   0  0  0  0  0  0  0  0  0  0  0  0
   -2.3305   -2.2704    0.4852 H   0  0  0  0  0  0  0  0  0  0  0  0
   -2.2715    0.6121    0.9701 H   0  0  0  0  0  0  0  0  0  0  0  0
   -0.1060    2.0259    1.1663 H   0  0  0  0  0  0  0  0  0  0  0  0
   -0.5495    2.0898   -0.6104 H   0  0  0  0  0  0  0  0  0  0  0  0
  1  2  3  0
  2  3  1  0
  3  4  2  0
  4  5  1  0
  5  6  1  0
  5  7  1  0
  7  8  1  0
  8  9  1  0
  9  3  1  0
  8  5  1  0
  1 10  1  0
  4 11  1  0
  6 12  1  0
  6 13  1  0
  6 14  1  0
  8 15  1  0
  9 16  1  0
  9 17  1  0
M  END
