
     RDKit          3D

 19 20  0  0  0  0  0  0  0  0999 V2000
    1.7172    1.9218   -0.6131 C   0  0  0  0  0  0  0  0  0  0  0  0
    1.4686    0.6949   -0.4953 C   0  0  0  0  0  0  0  0  0  0  0  0
    1.1585   -0.7086   -0.3580 C   0  0  0  0  0  0  0  0  0  0  0  0
    0.0430   -1.1889   -1.2751 C   0  0  0  0  0  0  0  0  0  0  0  0
   -0.9346   -0.9017   -0.1741 C   0  0  0  0  0  0  0  0  0  0  0  0
   -1.3947    0.5315   -0.1536 C   0  0  0  0  0  0  0  0  0  0  0  0
   -0.8519    1.0443    1.0915 C   0  0  0  0  0  0  0  0  0  0  0  0
    0.0219    0.2443    1.6573 C   0  0  0  0  0  0  0  0  0  0  0  0
    0.1931   -0.9831    0.8130 C   0  0  0  0  0  0  0  0  0  0  0  0
    1.9134    2.9581   -0.7252 H   0  0  0  0  0  0  0  0  0  0  0  0
    2.0585   -1.3641   -0.3230 H   0  0  0  0  0  0  0  0  0  0  0  0
   -0.0561   -0.4919   -2.1371 H   0  0  0  0  0  0  0  0  0  0  0  0
    0.1248   -2.2391   -1.5959 H   0  0  0  0  0  0  0  0  0  0  0  0
   -1.7406   -1.6527   -0.0290 H   0  0  0  0  0  0  0  0  0  0  0  0
   -2.5036    0.5964   -0.0915 H   0  0  0  0  0  0  0  0  0  0  0  0
   -0.9971    1.0330   -1.0574 H   0  0  0  0  0  0  0  0  0  0  0  0
   -1.1253    2.0148    1.5541 H   0  0  0  0  0  0  0  0  0  0  0  0
    0.5527    0.3973    2.5623 H   0  0  0  0  0  0  0  0  0  0  0  0
    0.3523   -1.9063    1.3500 H   0  0  0  0  0  0  0  0  0  0  0  0
  1  2  3  0
  2  3  1  0
  3  4  1  0
  4  5  1  0
  5  6  1  0
  6  7  1  0
  7  8  2  0
  8  9  1  0
  9  3  1  0
  9  5  1  0
  1 10  1  0
  3 11  1  0
  4 12  1  0
  4 13  1  0
  5 14  1  0
  6 15  1  0
  6 16  1  0
  7 17  1  0
  8 18  1  0
  9 19  1  0
M  END
