
     RDKit          3D

 18 17  0  0  0  0  0  0  0  0999 V2000
    3.2628    0.3268    1.9120 C   0  0  0  0  0  0  0  0  0  0  0  0
    2.5547   -0.8378    1.3162 C   0  0  0  0  0  0  0  0  0  0  0  0
    1.9207   -1.8453    0.8058 C   0  0  0  0  0  0  0  0  0  0  0  0
    0.7882   -1.2142    0.2090 C   0  0  0  0  0  0  0  0  0  0  0  0
   -0.3525   -0.5627   -0.3769 C   0  0  0  0  0  0  0  0  0  0  0  0
   -1.3881    0.0208   -0.8854 C   0  0  0  0  0  0  0  0  0  0  0  0
   -1.0672    1.2091   -1.8375 C   0  0  0  0  0  0  0  0  0  0  0  0
   -2.0990    0.7272    0.4438 C   0  0  0  0  0  0  0  0  0  0  0  0
    3.7455    1.0930    2.3056 H   0  0  0  0  0  0  0  0  0  0  0  0
    2.4357   -2.4233   -0.0987 H   0  0  0  0  0  0  0  0  0  0  0  0
    1.5730   -2.6300    1.5397 H   0  0  0  0  0  0  0  0  0  0  0  0
   -2.1691   -0.6184   -1.3077 H   0  0  0  0  0  0  0  0  0  0  0  0
   -0.6767    0.6649   -2.7496 H   0  0  0  0  0  0  0  0  0  0  0  0
   -0.1242    1.6750   -1.3984 H   0  0  0  0  0  0  0  0  0  0  0  0
   -1.8435    1.9052   -1.9576 H   0  0  0  0  0  0  0  0  0  0  0  0
   -3.0822    0.2883    0.5180 H   0  0  0  0  0  0  0  0  0  0  0  0
   -2.0683    1.7711    0.2573 H   0  0  0  0  0  0  0  0  0  0  0  0
   -1.4099    0.4504    1.3045 H   0  0  0  0  0  0  0  0  0  0  0  0
  1  2  3  0
  2  3  1  0
  3  4  1  0
  4  5  3  0
  5  6  1  0
  6  7  1  0
  6  8  1  0
  1  9  1  0
  3 10  1  0
  3 11  1  0
  6 12  1  0
  7 13  1  0
  7 14  1  0
  7 15  1  0
  8 16  1  0
  8 17  1  0
  8 18  1  0
M  END
