
     RDKit          3D

 19 18  0  0  0  0  0  0  0  0999 V2000
    4.4000    0.4642   -1.9975 C   0  0  0  0  0  0  0  0  0  0  0  0
    3.4091    0.5135   -1.3122 C   0  0  0  0  0  0  0  0  0  0  0  0
    2.2227    0.5642   -0.5200 C   0  0  0  0  0  0  0  0  0  0  0  0
    1.2110    0.6192    0.1349 C   0  0  0  0  0  0  0  0  0  0  0  0
   -0.0138    0.6817    0.9577 C   0  0  0  0  0  0  0  0  0  0  0  0
   -0.9305   -0.4572    0.5507 C   0  0  0  0  0  0  0  0  0  0  0  0
   -2.1634   -0.3672    1.4023 C   0  0  0  0  0  0  0  0  0  0  0  0
   -1.2831   -0.2926   -0.9196 C   0  0  0  0  0  0  0  0  0  0  0  0
   -0.1597   -0.3183   -1.7140 O   0  0  0  0  0  0  0  0  0  0  0  0
    5.2774    0.4374   -2.6133 H   0  0  0  0  0  0  0  0  0  0  0  0
    0.2178    0.5801    2.0390 H   0  0  0  0  0  0  0  0  0  0  0  0
   -0.4993    1.6668    0.8313 H   0  0  0  0  0  0  0  0  0  0  0  0
   -0.3896   -1.4054    0.7329 H   0  0  0  0  0  0  0  0  0  0  0  0
   -3.0204   -0.7475    0.7874 H   0  0  0  0  0  0  0  0  0  0  0  0
   -2.0585   -0.9925    2.3084 H   0  0  0  0  0  0  0  0  0  0  0  0
   -2.3573    0.7063    1.6710 H   0  0  0  0  0  0  0  0  0  0  0  0
   -1.7971    0.6853   -1.0281 H   0  0  0  0  0  0  0  0  0  0  0  0
   -2.0028   -1.1121   -1.1534 H   0  0  0  0  0  0  0  0  0  0  0  0
   -0.0625   -1.2260   -2.0933 H   0  0  0  0  0  0  0  0  0  0  0  0
  1  2  3  0
  2  3  1  0
  3  4  3  0
  4  5  1  0
  5  6  1  0
  6  7  1  0
  6  8  1  0
  8  9  1  0
  1 10  1  0
  5 11  1  0
  5 12  1  0
  6 13  1  0
  7 14  1  0
  7 15  1  0
  7 16  1  0
  8 17  1  0
  8 18  1  0
  9 19  1  0
M  END
