
     RDKit          3D

 19 20  0  0  0  0  0  0  0  0999 V2000
   -2.2369    1.9961    0.2278 C   0  0  0  0  0  0  0  0  0  0  0  0
   -1.6536    0.9484    0.1645 C   0  0  0  0  0  0  0  0  0  0  0  0
   -0.9396   -0.3172    0.0876 C   0  0  0  0  0  0  0  0  0  0  0  0
   -1.7848   -1.5515    0.0111 C   0  0  0  0  0  0  0  0  0  0  0  0
    0.1335   -0.3365   -0.9866 C   0  0  0  0  0  0  0  0  0  0  0  0
    0.9673   -0.0392    0.1982 C   0  0  0  0  0  0  0  0  0  0  0  0
    1.7557    1.1687    0.3262 C   0  0  0  0  0  0  0  0  0  0  0  0
    2.3949   -0.2153    0.3157 C   0  0  0  0  0  0  0  0  0  0  0  0
    0.0345   -0.4868    1.0970 O   0  0  0  0  0  0  0  0  0  0  0  0
   -2.7432    2.9238    0.2996 H   0  0  0  0  0  0  0  0  0  0  0  0
   -2.5402   -1.5199   -0.7908 H   0  0  0  0  0  0  0  0  0  0  0  0
   -2.2415   -1.7119    1.0198 H   0  0  0  0  0  0  0  0  0  0  0  0
   -1.1038   -2.4124   -0.1444 H   0  0  0  0  0  0  0  0  0  0  0  0
    0.0030    0.4670   -1.7142 H   0  0  0  0  0  0  0  0  0  0  0  0
    0.3374   -1.3416   -1.4193 H   0  0  0  0  0  0  0  0  0  0  0  0
    1.9689    1.7406   -0.6093 H   0  0  0  0  0  0  0  0  0  0  0  0
    1.8029    1.7619    1.2654 H   0  0  0  0  0  0  0  0  0  0  0  0
    2.7835   -0.5817    1.3107 H   0  0  0  0  0  0  0  0  0  0  0  0
    3.0620   -0.4924   -0.5075 H   0  0  0  0  0  0  0  0  0  0  0  0
  1  2  3  0
  2  3  1  0
  3  4  1  0
  3  5  1  0
  5  6  1  0
  6  7  1  0
  7  8  1  0
  6  9  1  0
  9  3  1  0
  8  6  1  0
  1 10  1  0
  4 11  1  0
  4 12  1  0
  4 13  1  0
  5 14  1  0
  5 15  1  0
  7 16  1  0
  7 17  1  0
  8 18  1  0
  8 19  1  0
M  END
