
     RDKit          3D

 17 16  0  0  0  0  0  0  0  0999 V2000
    3.7323   -0.0695   -1.9527 C   0  0  0  0  0  0  0  0  0  0  0  0
    2.5751    0.2479   -1.3187 C   0  0  0  0  0  0  0  0  0  0  0  0
    1.4291    0.5693   -0.6677 C   0  0  0  0  0  0  0  0  0  0  0  0
    0.4068    0.9088   -1.5867 O   0  0  0  0  0  0  0  0  0  0  0  0
    0.8105   -0.7719    0.0261 C   0  0  0  0  0  0  0  0  0  0  0  0
   -0.3734   -0.3845    0.5217 C   0  0  0  0  0  0  0  0  0  0  0  0
   -1.5561   -0.0068    1.0187 C   0  0  0  0  0  0  0  0  0  0  0  0
   -2.8539    0.3915    1.5720 C   0  0  0  0  0  0  0  0  0  0  0  0
   -3.4095   -0.6689    2.3305 O   0  0  0  0  0  0  0  0  0  0  0  0
    4.6819   -0.3392   -2.4713 H   0  0  0  0  0  0  0  0  0  0  0  0
    1.4843    1.2480    0.1632 H   0  0  0  0  0  0  0  0  0  0  0  0
   -0.4911    0.5351   -1.2835 H   0  0  0  0  0  0  0  0  0  0  0  0
    1.6403   -1.1079    0.6056 H   0  0  0  0  0  0  0  0  0  0  0  0
    0.6939   -1.3781   -0.9661 H   0  0  0  0  0  0  0  0  0  0  0  0
   -2.6547    1.2698    2.2706 H   0  0  0  0  0  0  0  0  0  0  0  0
   -3.4711    0.6602    0.7072 H   0  0  0  0  0  0  0  0  0  0  0  0
   -2.6443   -1.1037    2.8386 H   0  0  0  0  0  0  0  0  0  0  0  0
  1  2  3  0
  2  3  1  0
  3  4  1  0
  3  5  1  0
  5  6  1  0
  6  7  3  0
  7  8  1  0
  8  9  1  0
  1 10  1  0
  3 11  1  0
  4 12  1  0
  5 13  1  0
  5 14  1  0
  8 15  1  0
  8 16  1  0
  9 17  1  0
M  END
