
     RDKit          3D

 21 21  0  0  0  0  0  0  0  0999 V2000
   -3.0591    1.3684    0.8091 C   0  0  0  0  0  0  0  0  0  0  0  0
   -1.9935    1.1579    0.0952 C   0  0  0  0  0  0  0  0  0  0  0  0
   -0.5933    0.9013   -0.8135 C   0  0  0  0  0  0  0  0  0  0  0  0
   -0.9642    0.7624   -2.2064 C   0  0  0  0  0  0  0  0  0  0  0  0
    0.5610    1.4003   -0.0592 C   0  0  0  0  0  0  0  0  0  0  0  0
    0.2857   -0.0653   -0.1965 C   0  0  0  0  0  0  0  0  0  0  0  0
    0.2262   -0.8835    1.0298 C   0  0  0  0  0  0  0  0  0  0  0  0
    1.7167   -1.4902    1.0196 C   0  0  0  0  0  0  0  0  0  0  0  0
    1.7805   -2.2017   -0.1454 O   0  0  0  0  0  0  0  0  0  0  0  0
   -3.8541    1.5289    1.3624 H   0  0  0  0  0  0  0  0  0  0  0  0
   -2.0175    0.3921   -2.4122 H   0  0  0  0  0  0  0  0  0  0  0  0
   -0.2714    0.0286   -2.6936 H   0  0  0  0  0  0  0  0  0  0  0  0
   -0.8361    1.7530   -2.7527 H   0  0  0  0  0  0  0  0  0  0  0  0
    1.5345    1.7104   -0.3719 H   0  0  0  0  0  0  0  0  0  0  0  0
    0.2999    1.8581    0.9560 H   0  0  0  0  0  0  0  0  0  0  0  0
    0.9792   -0.5608   -1.0037 H   0  0  0  0  0  0  0  0  0  0  0  0
    0.1059   -0.3328    1.9904 H   0  0  0  0  0  0  0  0  0  0  0  0
   -0.3475   -1.8122    0.9458 H   0  0  0  0  0  0  0  0  0  0  0  0
    1.9656   -1.9204    1.9602 H   0  0  0  0  0  0  0  0  0  0  0  0
    2.3009   -0.5158    0.8234 H   0  0  0  0  0  0  0  0  0  0  0  0
    2.1807   -3.0788   -0.1482 H   0  0  0  0  0  0  0  0  0  0  0  0
  1  2  3  0
  2  3  1  0
  3  4  1  0
  3  5  1  0
  5  6  1  0
  6  7  1  0
  7  8  1  0
  8  9  1  0
  6  3  1  0
  1 10  1  0
  4 11  1  0
  4 12  1  0
  4 13  1  0
  5 14  1  0
  5 15  1  0
  6 16  1  0
  7 17  1  0
  7 18  1  0
  8 19  1  0
  8 20  1  0
  9 21  1  0
M  END
