
     RDKit          3D

 13 13  0  0  0  0  0  0  0  0999 V2000
    1.9794   -1.6999    1.2599 C   0  0  0  0  0  0  0  0  0  0  0  0
    1.1245   -0.5909    0.8505 C   0  0  0  0  0  0  0  0  0  0  0  0
    0.3844    0.3655    0.5185 C   0  0  0  0  0  0  0  0  0  0  0  0
   -1.1021    0.1731    0.0277 C   0  0  0  0  0  0  0  0  0  0  0  0
   -2.0025    0.9660    0.6852 O   0  0  0  0  0  0  0  0  0  0  0  0
   -0.0732    0.6112   -0.9100 C   0  0  0  0  0  0  0  0  0  0  0  0
    0.4150   -0.3083   -1.8456 O   0  0  0  0  0  0  0  0  0  0  0  0
    2.5713   -2.4456    1.5495 H   0  0  0  0  0  0  0  0  0  0  0  0
    0.5133    1.4487    1.0061 H   0  0  0  0  0  0  0  0  0  0  0  0
   -1.4251   -0.8933   -0.0767 H   0  0  0  0  0  0  0  0  0  0  0  0
   -2.9258    0.5966    0.7350 H   0  0  0  0  0  0  0  0  0  0  0  0
   -0.0194    1.6390   -1.2854 H   0  0  0  0  0  0  0  0  0  0  0  0
    0.5601    0.1378   -2.7211 H   0  0  0  0  0  0  0  0  0  0  0  0
  1  2  3  0
  2  3  1  0
  3  4  1  0
  4  5  1  0
  4  6  1  0
  6  7  1  0
  6  3  1  0
  1  8  1  0
  3  9  1  0
  4 10  1  0
  5 11  1  0
  6 12  1  0
  7 13  1  0
M  END
