
     RDKit          3D

 17 16  0  0  0  0  0  0  0  0999 V2000
   -3.8334    1.1338    1.0094 C   0  0  0  0  0  0  0  0  0  0  0  0
   -3.0768    0.2189    0.7328 C   0  0  0  0  0  0  0  0  0  0  0  0
   -2.1503   -0.8642    0.4079 C   0  0  0  0  0  0  0  0  0  0  0  0
   -0.8211   -0.3353   -0.0163 C   0  0  0  0  0  0  0  0  0  0  0  0
   -0.6897    0.8792   -0.0348 O   0  0  0  0  0  0  0  0  0  0  0  0
    0.2936   -1.2393   -0.3992 C   0  0  0  0  0  0  0  0  0  0  0  0
    1.4509   -0.4188   -0.7614 C   0  0  0  0  0  0  0  0  0  0  0  0
    2.3978    0.2719   -1.0753 C   0  0  0  0  0  0  0  0  0  0  0  0
    3.5346    1.1282   -1.4533 C   0  0  0  0  0  0  0  0  0  0  0  0
   -4.4797    1.9369    1.2597 H   0  0  0  0  0  0  0  0  0  0  0  0
   -2.0500   -1.5222    1.2833 H   0  0  0  0  0  0  0  0  0  0  0  0
   -2.5456   -1.4290   -0.4755 H   0  0  0  0  0  0  0  0  0  0  0  0
   -0.0665   -1.8299   -1.2838 H   0  0  0  0  0  0  0  0  0  0  0  0
    0.5966   -1.9072    0.4417 H   0  0  0  0  0  0  0  0  0  0  0  0
    4.4441    0.5973   -1.1084 H   0  0  0  0  0  0  0  0  0  0  0  0
    3.5643    1.2676   -2.5589 H   0  0  0  0  0  0  0  0  0  0  0  0
    3.4310    2.1122   -0.9689 H   0  0  0  0  0  0  0  0  0  0  0  0
  1  2  3  0
  2  3  1  0
  3  4  1  0
  4  5  2  0
  4  6  1  0
  6  7  1  0
  7  8  3  0
  8  9  1  0
  1 10  1  0
  3 11  1  0
  3 12  1  0
  6 13  1  0
  6 14  1  0
  9 15  1  0
  9 16  1  0
  9 17  1  0
M  END
