
     RDKit          3D

 19 19  0  0  0  0  0  0  0  0999 V2000
    2.2784    1.0889   -0.8174 C   0  0  0  0  0  0  0  0  0  0  0  0
    1.2956    0.3343   -0.6734 C   0  0  0  0  0  0  0  0  0  0  0  0
    0.1691   -0.5607   -0.4977 C   0  0  0  0  0  0  0  0  0  0  0  0
   -0.6378   -0.5723   -1.7829 C   0  0  0  0  0  0  0  0  0  0  0  0
    0.7083   -1.9029   -0.1874 C   0  0  0  0  0  0  0  0  0  0  0  0
    0.9268   -2.1989    0.9578 O   0  0  0  0  0  0  0  0  0  0  0  0
   -0.6845   -0.1465    0.6817 C   0  0  0  0  0  0  0  0  0  0  0  0
   -1.3317    1.1827    0.7101 C   0  0  0  0  0  0  0  0  0  0  0  0
   -0.0810    0.9954    1.5122 C   0  0  0  0  0  0  0  0  0  0  0  0
    3.0734    1.7205   -0.9413 H   0  0  0  0  0  0  0  0  0  0  0  0
   -0.1905    0.0413   -2.5871 H   0  0  0  0  0  0  0  0  0  0  0  0
   -0.6704   -1.6549   -2.1291 H   0  0  0  0  0  0  0  0  0  0  0  0
   -1.6620   -0.2421   -1.5233 H   0  0  0  0  0  0  0  0  0  0  0  0
    0.9135   -2.6295   -0.9498 H   0  0  0  0  0  0  0  0  0  0  0  0
   -1.1219   -0.9833    1.2504 H   0  0  0  0  0  0  0  0  0  0  0  0
   -2.2593    1.2468    1.3164 H   0  0  0  0  0  0  0  0  0  0  0  0
   -1.3566    1.8609   -0.1500 H   0  0  0  0  0  0  0  0  0  0  0  0
   -0.1683    0.8846    2.6268 H   0  0  0  0  0  0  0  0  0  0  0  0
    0.7989    1.5355    1.1461 H   0  0  0  0  0  0  0  0  0  0  0  0
  1  2  3  0
  2  3  1  0
  3  4  1  0
  3  5  1  0
  5  6  2  0
  3  7  1  0
  7  8  1  0
  8  9  1  0
  9  7  1  0
  1 10  1  0
  4 11  1  0
  4 12  1  0
  4 13  1  0
  5 14  1  0
  7 15  1  0
  8 16  1  0
  8 17  1  0
  9 18  1  0
  9 19  1  0
M  END
