
     RDKit          3D

 19 19  0  0  0  0  0  0  0  0999 V2000
    3.3280    0.0806    1.0396 C   0  0  0  0  0  0  0  0  0  0  0  0
    2.1620    0.0519    0.7262 C   0  0  0  0  0  0  0  0  0  0  0  0
    0.7408    0.0118    0.3684 C   0  0  0  0  0  0  0  0  0  0  0  0
    0.1500    1.3839    0.1931 C   0  0  0  0  0  0  0  0  0  0  0  0
   -1.3286    1.2630    0.3534 C   0  0  0  0  0  0  0  0  0  0  0  0
   -2.1668    0.2737    0.1181 C   0  0  0  0  0  0  0  0  0  0  0  0
   -1.8566   -1.0538   -0.3948 C   0  0  0  0  0  0  0  0  0  0  0  0
   -0.6972   -1.5083   -0.8302 C   0  0  0  0  0  0  0  0  0  0  0  0
    0.5821   -0.7782   -0.9058 C   0  0  0  0  0  0  0  0  0  0  0  0
    4.3683    0.0915    1.3071 H   0  0  0  0  0  0  0  0  0  0  0  0
    0.1413   -0.4897    1.1826 H   0  0  0  0  0  0  0  0  0  0  0  0
    0.4123    1.8398   -0.7954 H   0  0  0  0  0  0  0  0  0  0  0  0
    0.5431    2.0268    1.0066 H   0  0  0  0  0  0  0  0  0  0  0  0
   -1.7853    2.1551    0.7322 H   0  0  0  0  0  0  0  0  0  0  0  0
   -3.2110    0.4172    0.3124 H   0  0  0  0  0  0  0  0  0  0  0  0
   -2.7075   -1.7460   -0.4125 H   0  0  0  0  0  0  0  0  0  0  0  0
   -0.6679   -2.5288   -1.1730 H   0  0  0  0  0  0  0  0  0  0  0  0
    0.5480   -0.0560   -1.7456 H   0  0  0  0  0  0  0  0  0  0  0  0
    1.4450   -1.4344   -1.0823 H   0  0  0  0  0  0  0  0  0  0  0  0
  1  2  3  0
  2  3  1  0
  3  4  1  0
  4  5  1  0
  5  6  2  0
  6  7  1  0
  7  8  2  0
  8  9  1  0
  9  3  1  0
  1 10  1  0
  3 11  1  0
  4 12  1  0
  4 13  1  0
  5 14  1  0
  6 15  1  0
  7 16  1  0
  8 17  1  0
  9 18  1  0
  9 19  1  0
M  END
