
     RDKit          3D

 15 16  0  0  0  0  0  0  0  0999 V2000
    2.0370    1.4292   -1.5569 C   0  0  0  0  0  0  0  0  0  0  0  0
    1.0546    0.8432   -1.1670 C   0  0  0  0  0  0  0  0  0  0  0  0
   -0.1251    0.1235   -0.7023 C   0  0  0  0  0  0  0  0  0  0  0  0
   -0.0534   -1.3880   -0.5898 C   0  0  0  0  0  0  0  0  0  0  0  0
   -0.8754   -1.2465    0.6909 C   0  0  0  0  0  0  0  0  0  0  0  0
   -0.6745    0.2675    0.5227 C   0  0  0  0  0  0  0  0  0  0  0  0
   -0.3743    1.0834    1.6837 C   0  0  0  0  0  0  0  0  0  0  0  0
   -0.6913    2.2530    1.7242 O   0  0  0  0  0  0  0  0  0  0  0  0
   -1.3269    0.7655   -0.5838 O   0  0  0  0  0  0  0  0  0  0  0  0
    2.8902    1.9596   -1.9004 H   0  0  0  0  0  0  0  0  0  0  0  0
   -0.5931   -1.8688   -1.4259 H   0  0  0  0  0  0  0  0  0  0  0  0
    0.9689   -1.7228   -0.3948 H   0  0  0  0  0  0  0  0  0  0  0  0
   -1.9416   -1.4984    0.5054 H   0  0  0  0  0  0  0  0  0  0  0  0
   -0.4318   -1.6729    1.5847 H   0  0  0  0  0  0  0  0  0  0  0  0
    0.1368    0.6726    2.5378 H   0  0  0  0  0  0  0  0  0  0  0  0
  1  2  3  0
  2  3  1  0
  3  4  1  0
  4  5  1  0
  5  6  1  0
  6  7  1  0
  7  8  2  0
  6  9  1  0
  6  3  1  0
  9  3  1  0
  1 10  1  0
  4 11  1  0
  4 12  1  0
  5 13  1  0
  5 14  1  0
  7 15  1  0
M  END
