
     RDKit          3D

 14 13  0  0  0  0  0  0  0  0999 V2000
   -1.1767   -1.9797    1.5224 C   0  0  0  0  0  0  0  0  0  0  0  0
   -0.8496   -1.4781    1.0181 C   0  0  0  0  0  0  0  0  0  0  0  0
   -0.1948   -0.5140    0.0272 C   0  0  0  0  0  0  0  0  0  0  0  0
   -1.4050   -0.4795   -1.0863 C   0  0  0  0  0  0  0  0  0  0  0  0
    0.5408    0.0613   -0.0452 C   0  0  0  0  0  0  0  0  0  0  0  0
    1.8131    1.0928   -0.1704 C   0  0  0  0  0  0  0  0  0  0  0  0
    2.6938    1.7874   -0.2550 C   0  0  0  0  0  0  0  0  0  0  0  0
    2.5032    3.2867   -0.0646 O   0  0  0  0  0  0  0  0  0  0  0  0
   -1.8598   -3.0505    2.5772 H   0  0  0  0  0  0  0  0  0  0  0  0
   -1.0584    0.4727    0.7638 H   0  0  0  0  0  0  0  0  0  0  0  0
   -1.1686    0.5719   -1.6339 H   0  0  0  0  0  0  0  0  0  0  0  0
   -2.3391   -0.3201   -0.5202 H   0  0  0  0  0  0  0  0  0  0  0  0
   -1.2114   -1.3005   -1.6899 H   0  0  0  0  0  0  0  0  0  0  0  0
    3.7126    1.8496   -0.4432 H   0  0  0  0  0  0  0  0  0  0  0  0
  1  2  3  0
  2  3  1  0
  3  4  1  0
  3  5  1  0
  5  6  3  0
  6  7  1  0
  7  8  2  0
  1  9  1  0
  3 10  1  0
  4 11  1  0
  4 12  1  0
  4 13  1  0
  7 14  1  0
M  END
