
     RDKit          3D

 13 14  0  0  0  0  0  0  0  0999 V2000
    0.6008    2.5497   -0.9673 C   0  0  0  0  0  0  0  0  0  0  0  0
    0.4409    1.3513   -0.6951 C   0  0  0  0  0  0  0  0  0  0  0  0
    0.2459   -0.0424   -0.3551 C   0  0  0  0  0  0  0  0  0  0  0  0
   -0.2694   -0.8413   -1.3863 O   0  0  0  0  0  0  0  0  0  0  0  0
   -1.3903   -1.1271   -0.6262 C   0  0  0  0  0  0  0  0  0  0  0  0
   -2.4277   -1.7783   -0.8741 O   0  0  0  0  0  0  0  0  0  0  0  0
   -0.9253   -0.3941    0.5703 C   0  0  0  0  0  0  0  0  0  0  0  0
    0.4768   -0.5538    1.0044 C   0  0  0  0  0  0  0  0  0  0  0  0
    1.1052   -1.7718    1.1165 O   0  0  0  0  0  0  0  0  0  0  0  0
    0.7553    3.5697   -1.1969 H   0  0  0  0  0  0  0  0  0  0  0  0
   -1.4890    0.4865    0.9331 H   0  0  0  0  0  0  0  0  0  0  0  0
    0.8469    0.2037    1.7343 H   0  0  0  0  0  0  0  0  0  0  0  0
    2.0299   -1.6523    0.7424 H   0  0  0  0  0  0  0  0  0  0  0  0
  1  2  3  0
  2  3  1  0
  3  4  1  0
  4  5  1  0
  5  6  2  0
  5  7  1  0
  7  8  1  0
  8  9  1  0
  7  3  1  0
  8  3  1  0
  1 10  1  0
  7 11  1  0
  8 12  1  0
  9 13  1  0
M  END
