
     RDKit          3D

 17 16  0  0  0  0  0  0  0  0999 V2000
    2.8087    0.1231   -1.1418 C   0  0  0  0  0  0  0  0  0  0  0  0
    1.7229    0.7091   -1.1609 C   0  0  0  0  0  0  0  0  0  0  0  0
    0.4562    1.3882   -1.2076 C   0  0  0  0  0  0  0  0  0  0  0  0
    0.4391    2.5791   -1.5358 O   0  0  0  0  0  0  0  0  0  0  0  0
   -0.7469    0.5897   -0.8510 C   0  0  0  0  0  0  0  0  0  0  0  0
   -0.8505   -0.6092   -1.8015 C   0  0  0  0  0  0  0  0  0  0  0  0
   -0.6717    0.1896    0.5159 C   0  0  0  0  0  0  0  0  0  0  0  0
   -0.5960   -0.1444    1.7280 C   0  0  0  0  0  0  0  0  0  0  0  0
   -0.5244   -0.5492    3.1259 C   0  0  0  0  0  0  0  0  0  0  0  0
    3.7207   -0.3578   -1.1409 H   0  0  0  0  0  0  0  0  0  0  0  0
   -1.6630    1.2176   -1.0287 H   0  0  0  0  0  0  0  0  0  0  0  0
   -0.9957   -0.2247   -2.8258 H   0  0  0  0  0  0  0  0  0  0  0  0
    0.0679   -1.2441   -1.7003 H   0  0  0  0  0  0  0  0  0  0  0  0
   -1.7225   -1.2249   -1.4950 H   0  0  0  0  0  0  0  0  0  0  0  0
    0.1849    0.1348    3.6779 H   0  0  0  0  0  0  0  0  0  0  0  0
   -0.0929   -1.5687    3.2433 H   0  0  0  0  0  0  0  0  0  0  0  0
   -1.5370   -0.5075    3.5983 H   0  0  0  0  0  0  0  0  0  0  0  0
  1  2  3  0
  2  3  1  0
  3  4  2  0
  3  5  1  0
  5  6  1  0
  5  7  1  0
  7  8  3  0
  8  9  1  0
  1 10  1  0
  5 11  1  0
  6 12  1  0
  6 13  1  0
  6 14  1  0
  9 15  1  0
  9 16  1  0
  9 17  1  0
M  END
