
     RDKit          3D

 21 21  0  0  0  0  0  0  0  0999 V2000
    3.8288    1.6175    0.0988 C   0  0  0  0  0  0  0  0  0  0  0  0
    2.9015    0.8565   -0.0460 C   0  0  0  0  0  0  0  0  0  0  0  0
    1.7829   -0.0800   -0.2415 C   0  0  0  0  0  0  0  0  0  0  0  0
    0.7612    0.2262    0.8183 C   0  0  0  0  0  0  0  0  0  0  0  0
   -0.4517   -0.6549    0.7494 C   0  0  0  0  0  0  0  0  0  0  0  0
   -0.0604   -1.9987    0.9113 O   0  0  0  0  0  0  0  0  0  0  0  0
   -1.2582   -0.4914   -0.4828 C   0  0  0  0  0  0  0  0  0  0  0  0
   -1.8914    0.7417   -0.9137 C   0  0  0  0  0  0  0  0  0  0  0  0
   -2.7626   -0.2725   -0.2698 C   0  0  0  0  0  0  0  0  0  0  0  0
    4.6468    2.2959    0.2343 H   0  0  0  0  0  0  0  0  0  0  0  0
    1.3941    0.1253   -1.2654 H   0  0  0  0  0  0  0  0  0  0  0  0
    2.2051   -1.1014   -0.1555 H   0  0  0  0  0  0  0  0  0  0  0  0
    1.2480    0.0362    1.8016 H   0  0  0  0  0  0  0  0  0  0  0  0
    0.5086    1.2820    0.7727 H   0  0  0  0  0  0  0  0  0  0  0  0
   -1.0735   -0.4223    1.6380 H   0  0  0  0  0  0  0  0  0  0  0  0
   -0.3790   -2.5693    0.1884 H   0  0  0  0  0  0  0  0  0  0  0  0
   -1.0207   -1.2565   -1.2798 H   0  0  0  0  0  0  0  0  0  0  0  0
   -1.7305    1.7265   -0.4092 H   0  0  0  0  0  0  0  0  0  0  0  0
   -2.0686    0.8772   -2.0082 H   0  0  0  0  0  0  0  0  0  0  0  0
   -3.1248   -0.0384    0.7375 H   0  0  0  0  0  0  0  0  0  0  0  0
   -3.4558   -0.8999   -0.8784 H   0  0  0  0  0  0  0  0  0  0  0  0
  1  2  3  0
  2  3  1  0
  3  4  1  0
  4  5  1  0
  5  6  1  0
  5  7  1  0
  7  8  1  0
  8  9  1  0
  9  7  1  0
  1 10  1  0
  3 11  1  0
  3 12  1  0
  4 13  1  0
  4 14  1  0
  5 15  1  0
  6 16  1  0
  7 17  1  0
  8 18  1  0
  8 19  1  0
  9 20  1  0
  9 21  1  0
M  END
