
     RDKit          3D

 19 19  0  0  0  0  0  0  0  0999 V2000
    3.0844    1.3253   -0.9928 C   0  0  0  0  0  0  0  0  0  0  0  0
    2.2034    0.3562   -0.8419 C   0  0  0  0  0  0  0  0  0  0  0  0
    1.2930   -0.6207   -0.7050 C   0  0  0  0  0  0  0  0  0  0  0  0
    0.8389   -1.2827    0.5412 C   0  0  0  0  0  0  0  0  0  0  0  0
   -0.0830   -0.3161   -0.2657 C   0  0  0  0  0  0  0  0  0  0  0  0
   -1.2595   -1.0833   -0.8144 C   0  0  0  0  0  0  0  0  0  0  0  0
   -1.5113   -1.2444   -1.9616 O   0  0  0  0  0  0  0  0  0  0  0  0
   -0.4736    0.8839    0.6098 C   0  0  0  0  0  0  0  0  0  0  0  0
   -1.9820    0.8959    0.8198 C   0  0  0  0  0  0  0  0  0  0  0  0
    3.7829    2.1068   -1.0978 H   0  0  0  0  0  0  0  0  0  0  0  0
    1.3182   -1.4182   -1.5960 H   0  0  0  0  0  0  0  0  0  0  0  0
    1.0612   -0.9062    1.5387 H   0  0  0  0  0  0  0  0  0  0  0  0
    0.5734   -2.3463    0.5014 H   0  0  0  0  0  0  0  0  0  0  0  0
   -1.8864   -1.5113    0.0152 H   0  0  0  0  0  0  0  0  0  0  0  0
   -0.0753    1.7672    0.1111 H   0  0  0  0  0  0  0  0  0  0  0  0
   -0.0214    0.8041    1.6080 H   0  0  0  0  0  0  0  0  0  0  0  0
   -2.2852    1.8397    1.2119 H   0  0  0  0  0  0  0  0  0  0  0  0
   -2.4187    0.7287   -0.1925 H   0  0  0  0  0  0  0  0  0  0  0  0
   -2.1589    0.0214    1.5105 H   0  0  0  0  0  0  0  0  0  0  0  0
  1  2  3  0
  2  3  1  0
  3  4  1  0
  4  5  1  0
  5  6  1  0
  6  7  2  0
  5  8  1  0
  8  9  1  0
  5  3  1  0
  1 10  1  0
  3 11  1  0
  4 12  1  0
  4 13  1  0
  6 14  1  0
  8 15  1  0
  8 16  1  0
  9 17  1  0
  9 18  1  0
  9 19  1  0
M  END
