
     RDKit          3D

 17 17  0  0  0  0  0  0  0  0999 V2000
    3.1689    0.2723   -0.9966 C   0  0  0  0  0  0  0  0  0  0  0  0
    1.9952   -0.0049   -0.9990 C   0  0  0  0  0  0  0  0  0  0  0  0
    0.5936   -0.3114   -1.0017 C   0  0  0  0  0  0  0  0  0  0  0  0
    0.1048   -0.6449   -2.1131 O   0  0  0  0  0  0  0  0  0  0  0  0
   -0.2690   -0.2529    0.2079 C   0  0  0  0  0  0  0  0  0  0  0  0
    0.4140    0.1533    1.4702 C   0  0  0  0  0  0  0  0  0  0  0  0
   -1.4714   -1.1143    0.2005 C   0  0  0  0  0  0  0  0  0  0  0  0
   -1.6735    0.3257    0.0369 C   0  0  0  0  0  0  0  0  0  0  0  0
   -1.8887    0.9100   -1.1926 O   0  0  0  0  0  0  0  0  0  0  0  0
    4.2024    0.4984   -0.9967 H   0  0  0  0  0  0  0  0  0  0  0  0
    0.0765    1.1817    1.7592 H   0  0  0  0  0  0  0  0  0  0  0  0
    1.5039    0.2221    1.2945 H   0  0  0  0  0  0  0  0  0  0  0  0
    0.2143   -0.5509    2.3254 H   0  0  0  0  0  0  0  0  0  0  0  0
   -1.8731   -1.5710    1.1238 H   0  0  0  0  0  0  0  0  0  0  0  0
   -1.6382   -1.7497   -0.6943 H   0  0  0  0  0  0  0  0  0  0  0  0
   -2.1006    0.8958    0.9025 H   0  0  0  0  0  0  0  0  0  0  0  0
   -1.3593    1.7407   -1.3268 H   0  0  0  0  0  0  0  0  0  0  0  0
  1  2  3  0
  2  3  1  0
  3  4  2  0
  3  5  1  0
  5  6  1  0
  5  7  1  0
  7  8  1  0
  8  9  1  0
  8  5  1  0
  1 10  1  0
  6 11  1  0
  6 12  1  0
  6 13  1  0
  7 14  1  0
  7 15  1  0
  8 16  1  0
  9 17  1  0
M  END
