
     RDKit          3D

 23 22  0  0  0  0  0  0  0  0999 V2000
    0.2189    1.5488    1.9629 C   0  0  0  0  0  0  0  0  0  0  0  0
    0.1118    0.7540    1.0615 C   0  0  0  0  0  0  0  0  0  0  0  0
   -0.0281   -0.2321   -0.0355 C   0  0  0  0  0  0  0  0  0  0  0  0
    1.1602   -0.0734   -0.9481 C   0  0  0  0  0  0  0  0  0  0  0  0
    1.2206    1.3335   -1.5337 C   0  0  0  0  0  0  0  0  0  0  0  0
   -1.3338    0.0730   -0.7859 C   0  0  0  0  0  0  0  0  0  0  0  0
   -2.4433   -0.0608    0.2362 C   0  0  0  0  0  0  0  0  0  0  0  0
   -0.1298   -1.5197    0.4067 O   0  0  0  0  0  0  0  0  0  0  0  0
    0.9533   -1.9640    1.1415 C   0  0  0  0  0  0  0  0  0  0  0  0
    0.3050    2.2383    2.7596 H   0  0  0  0  0  0  0  0  0  0  0  0
    2.0680   -0.1424   -0.2999 H   0  0  0  0  0  0  0  0  0  0  0  0
    1.2220   -0.8368   -1.7227 H   0  0  0  0  0  0  0  0  0  0  0  0
    0.4018    1.5377   -2.2239 H   0  0  0  0  0  0  0  0  0  0  0  0
    2.1680    1.3584   -2.1358 H   0  0  0  0  0  0  0  0  0  0  0  0
    1.2943    2.0676   -0.7292 H   0  0  0  0  0  0  0  0  0  0  0  0
   -1.4694   -0.5759   -1.6452 H   0  0  0  0  0  0  0  0  0  0  0  0
   -1.3129    1.1517   -1.0875 H   0  0  0  0  0  0  0  0  0  0  0  0
   -2.0585   -0.0429    1.2677 H   0  0  0  0  0  0  0  0  0  0  0  0
   -3.1845    0.7637    0.1175 H   0  0  0  0  0  0  0  0  0  0  0  0
   -2.9076   -1.0570    0.0690 H   0  0  0  0  0  0  0  0  0  0  0  0
    0.8176   -3.0190    1.4806 H   0  0  0  0  0  0  0  0  0  0  0  0
    1.0156   -1.3414    2.0569 H   0  0  0  0  0  0  0  0  0  0  0  0
    1.9108   -1.9611    0.5875 H   0  0  0  0  0  0  0  0  0  0  0  0
  1  2  3  0
  2  3  1  0
  3  4  1  0
  4  5  1  0
  3  6  1  0
  6  7  1  0
  3  8  1  0
  8  9  1  0
  1 10  1  0
  4 11  1  0
  4 12  1  0
  5 13  1  0
  5 14  1  0
  5 15  1  0
  6 16  1  0
  6 17  1  0
  7 18  1  0
  7 19  1  0
  7 20  1  0
  9 21  1  0
  9 22  1  0
  9 23  1  0
M  END
