
     RDKit          3D

 19 19  0  0  0  0  0  0  0  0999 V2000
    2.3136    1.2210    1.7158 C   0  0  0  0  0  0  0  0  0  0  0  0
    1.8512    0.1244    1.4209 C   0  0  0  0  0  0  0  0  0  0  0  0
    1.2971   -1.1778    1.0636 C   0  0  0  0  0  0  0  0  0  0  0  0
   -0.2039   -1.1748    0.9558 C   0  0  0  0  0  0  0  0  0  0  0  0
   -0.6169   -0.2415   -0.0982 C   0  0  0  0  0  0  0  0  0  0  0  0
   -1.3195   -0.6371   -1.1697 C   0  0  0  0  0  0  0  0  0  0  0  0
   -1.5575    0.5464   -2.0087 C   0  0  0  0  0  0  0  0  0  0  0  0
   -1.3296    1.6509   -1.1784 O   0  0  0  0  0  0  0  0  0  0  0  0
   -0.3889    1.2080   -0.2406 C   0  0  0  0  0  0  0  0  0  0  0  0
    2.7000    2.1715    1.9790 H   0  0  0  0  0  0  0  0  0  0  0  0
    1.6040   -1.9216    1.8558 H   0  0  0  0  0  0  0  0  0  0  0  0
    1.7757   -1.4919    0.0900 H   0  0  0  0  0  0  0  0  0  0  0  0
   -0.5813   -0.8303    1.9465 H   0  0  0  0  0  0  0  0  0  0  0  0
   -0.5716   -2.2008    0.7844 H   0  0  0  0  0  0  0  0  0  0  0  0
   -1.6502   -1.6360   -1.3802 H   0  0  0  0  0  0  0  0  0  0  0  0
   -0.8119    0.5223   -2.8329 H   0  0  0  0  0  0  0  0  0  0  0  0
   -2.6030    0.6290   -2.3484 H   0  0  0  0  0  0  0  0  0  0  0  0
   -0.5582    1.7848    0.6844 H   0  0  0  0  0  0  0  0  0  0  0  0
    0.6509    1.4537   -0.5996 H   0  0  0  0  0  0  0  0  0  0  0  0
  1  2  3  0
  2  3  1  0
  3  4  1  0
  4  5  1  0
  5  6  2  0
  6  7  1  0
  7  8  1  0
  8  9  1  0
  9  5  1  0
  1 10  1  0
  3 11  1  0
  3 12  1  0
  4 13  1  0
  4 14  1  0
  6 15  1  0
  7 16  1  0
  7 17  1  0
  9 18  1  0
  9 19  1  0
M  END
