
     RDKit          3D

 17 17  0  0  0  0  0  0  0  0999 V2000
    3.0015   -0.4887    1.0824 C   0  0  0  0  0  0  0  0  0  0  0  0
    2.0372   -0.0356    0.3992 C   0  0  0  0  0  0  0  0  0  0  0  0
    0.9795    0.4350   -0.3423 C   0  0  0  0  0  0  0  0  0  0  0  0
   -0.3135   -0.1121    0.2531 C   0  0  0  0  0  0  0  0  0  0  0  0
   -0.3395   -1.6124    0.3796 C   0  0  0  0  0  0  0  0  0  0  0  0
   -1.0234    0.6039    1.1835 O   0  0  0  0  0  0  0  0  0  0  0  0
   -1.6415    0.4787   -0.1405 C   0  0  0  0  0  0  0  0  0  0  0  0
   -1.6399    1.6723   -0.9391 C   0  0  0  0  0  0  0  0  0  0  0  0
   -1.0513    2.7182   -0.7877 O   0  0  0  0  0  0  0  0  0  0  0  0
    3.8228   -0.8802    1.6854 H   0  0  0  0  0  0  0  0  0  0  0  0
    0.9395    1.5786   -0.3104 H   0  0  0  0  0  0  0  0  0  0  0  0
    1.0144    0.2097   -1.4559 H   0  0  0  0  0  0  0  0  0  0  0  0
   -0.5399   -1.9097    1.4532 H   0  0  0  0  0  0  0  0  0  0  0  0
    0.6023   -2.0533    0.0279 H   0  0  0  0  0  0  0  0  0  0  0  0
   -1.1775   -2.0085   -0.2757 H   0  0  0  0  0  0  0  0  0  0  0  0
   -2.4006   -0.2883   -0.3051 H   0  0  0  0  0  0  0  0  0  0  0  0
   -2.2699    1.6923   -1.8941 H   0  0  0  0  0  0  0  0  0  0  0  0
  1  2  3  0
  2  3  1  0
  3  4  1  0
  4  5  1  0
  4  6  1  0
  6  7  1  0
  7  8  1  0
  8  9  2  0
  7  4  1  0
  1 10  1  0
  3 11  1  0
  3 12  1  0
  5 13  1  0
  5 14  1  0
  5 15  1  0
  7 16  1  0
  8 17  1  0
M  END
