
     RDKit          3D

 19 20  0  0  0  0  0  0  0  0999 V2000
    2.5946    1.1677    1.1722 C   0  0  0  0  0  0  0  0  0  0  0  0
    1.8144    0.9189    0.2863 C   0  0  0  0  0  0  0  0  0  0  0  0
    0.8955    0.6304   -0.7923 C   0  0  0  0  0  0  0  0  0  0  0  0
    0.7930   -0.8825   -1.0878 C   0  0  0  0  0  0  0  0  0  0  0  0
   -0.6165   -0.7932   -0.6001 C   0  0  0  0  0  0  0  0  0  0  0  0
   -1.1952   -1.8887    0.2547 C   0  0  0  0  0  0  0  0  0  0  0  0
   -1.4635    0.0115   -1.3074 O   0  0  0  0  0  0  0  0  0  0  0  0
   -0.5665    0.5521   -0.3952 C   0  0  0  0  0  0  0  0  0  0  0  0
   -1.1221    1.4618    0.6397 C   0  0  0  0  0  0  0  0  0  0  0  0
    3.3001    1.3810    1.9924 H   0  0  0  0  0  0  0  0  0  0  0  0
    1.0550    1.2596   -1.6899 H   0  0  0  0  0  0  0  0  0  0  0  0
    1.4572   -1.4712   -0.4542 H   0  0  0  0  0  0  0  0  0  0  0  0
    0.9092   -1.0538   -2.1950 H   0  0  0  0  0  0  0  0  0  0  0  0
   -2.0879   -2.3087   -0.2913 H   0  0  0  0  0  0  0  0  0  0  0  0
   -1.5430   -1.4908    1.2481 H   0  0  0  0  0  0  0  0  0  0  0  0
   -0.4516   -2.6610    0.4889 H   0  0  0  0  0  0  0  0  0  0  0  0
   -0.3469    2.1751    0.9840 H   0  0  0  0  0  0  0  0  0  0  0  0
   -1.9451    2.0896    0.1928 H   0  0  0  0  0  0  0  0  0  0  0  0
   -1.4806    0.9025    1.5540 H   0  0  0  0  0  0  0  0  0  0  0  0
  1  2  3  0
  2  3  1  0
  3  4  1  0
  4  5  1  0
  5  6  1  0
  5  7  1  0
  7  8  1  0
  8  9  1  0
  8  3  1  0
  8  5  1  0
  1 10  1  0
  3 11  1  0
  4 12  1  0
  4 13  1  0
  6 14  1  0
  6 15  1  0
  6 16  1  0
  9 17  1  0
  9 18  1  0
  9 19  1  0
M  END
