
     RDKit          3D

 17 16  0  0  0  0  0  0  0  0999 V2000
    5.8179   -0.1294   -0.6798 C   0  0  0  0  0  0  0  0  0  0  0  0
    4.6527   -0.2108   -0.3402 C   0  0  0  0  0  0  0  0  0  0  0  0
    3.3018   -0.2878    0.0685 C   0  0  0  0  0  0  0  0  0  0  0  0
    2.1410   -0.3332    0.4182 C   0  0  0  0  0  0  0  0  0  0  0  0
    0.7820   -0.3673    0.8295 C   0  0  0  0  0  0  0  0  0  0  0  0
   -0.3678   -0.3960    1.1969 C   0  0  0  0  0  0  0  0  0  0  0  0
   -1.7717   -0.4423    1.6674 C   0  0  0  0  0  0  0  0  0  0  0  0
   -2.6237   -0.3005    0.4100 C   0  0  0  0  0  0  0  0  0  0  0  0
   -2.2783    1.0257   -0.2341 C   0  0  0  0  0  0  0  0  0  0  0  0
    6.8339   -0.0437   -0.9648 H   0  0  0  0  0  0  0  0  0  0  0  0
   -1.9018   -1.4079    2.1622 H   0  0  0  0  0  0  0  0  0  0  0  0
   -1.9826    0.3691    2.3932 H   0  0  0  0  0  0  0  0  0  0  0  0
   -3.6775   -0.3998    0.6754 H   0  0  0  0  0  0  0  0  0  0  0  0
   -2.3581   -1.1343   -0.2538 H   0  0  0  0  0  0  0  0  0  0  0  0
   -2.9589    1.8153    0.1414 H   0  0  0  0  0  0  0  0  0  0  0  0
   -2.3750    0.9039   -1.3304 H   0  0  0  0  0  0  0  0  0  0  0  0
   -1.2341    1.3391   -0.0054 H   0  0  0  0  0  0  0  0  0  0  0  0
  1  2  3  0
  2  3  1  0
  3  4  3  0
  4  5  1  0
  5  6  3  0
  6  7  1  0
  7  8  1  0
  8  9  1  0
  1 10  1  0
  7 11  1  0
  7 12  1  0
  8 13  1  0
  8 14  1  0
  9 15  1  0
  9 16  1  0
  9 17  1  0
M  END
