
     RDKit          3D

 21 21  0  0  0  0  0  0  0  0999 V2000
    2.8585   -1.0489   -0.3677 C   0  0  0  0  0  0  0  0  0  0  0  0
    1.8586   -0.3876   -0.4885 C   0  0  0  0  0  0  0  0  0  0  0  0
    0.6717    0.4228   -0.6243 C   0  0  0  0  0  0  0  0  0  0  0  0
    0.7702    1.6336    0.3153 C   0  0  0  0  0  0  0  0  0  0  0  0
   -0.6609    1.9856    0.4452 C   0  0  0  0  0  0  0  0  0  0  0  0
   -1.4326    0.9380    0.1958 C   0  0  0  0  0  0  0  0  0  0  0  0
   -0.5680   -0.2273   -0.1277 C   0  0  0  0  0  0  0  0  0  0  0  0
   -1.2098   -1.1617   -1.1153 C   0  0  0  0  0  0  0  0  0  0  0  0
   -0.3649   -0.9968    1.1567 C   0  0  0  0  0  0  0  0  0  0  0  0
    3.7492   -1.6180   -0.2551 H   0  0  0  0  0  0  0  0  0  0  0  0
    0.5089    0.8108   -1.6366 H   0  0  0  0  0  0  0  0  0  0  0  0
    1.2067    1.3006    1.2852 H   0  0  0  0  0  0  0  0  0  0  0  0
    1.3745    2.3976   -0.1809 H   0  0  0  0  0  0  0  0  0  0  0  0
   -1.0408    2.9545    0.7057 H   0  0  0  0  0  0  0  0  0  0  0  0
   -2.5363    0.8989    0.2152 H   0  0  0  0  0  0  0  0  0  0  0  0
   -1.3237   -0.7246   -2.1142 H   0  0  0  0  0  0  0  0  0  0  0  0
   -2.1924   -1.4622   -0.6744 H   0  0  0  0  0  0  0  0  0  0  0  0
   -0.5955   -2.0952   -1.1300 H   0  0  0  0  0  0  0  0  0  0  0  0
    0.2536   -1.8978    0.9587 H   0  0  0  0  0  0  0  0  0  0  0  0
    0.0652   -0.3790    1.9657 H   0  0  0  0  0  0  0  0  0  0  0  0
   -1.3920   -1.3430    1.4712 H   0  0  0  0  0  0  0  0  0  0  0  0
  1  2  3  0
  2  3  1  0
  3  4  1  0
  4  5  1  0
  5  6  2  0
  6  7  1  0
  7  8  1  0
  7  9  1  0
  7  3  1  0
  1 10  1  0
  3 11  1  0
  4 12  1  0
  4 13  1  0
  5 14  1  0
  6 15  1  0
  8 16  1  0
  8 17  1  0
  8 18  1  0
  9 19  1  0
  9 20  1  0
  9 21  1  0
M  END
