
     RDKit          3D

 17 19  0  0  0  0  0  0  0  0999 V2000
    0.5814    3.3490    0.3839 C   0  0  0  0  0  0  0  0  0  0  0  0
    0.4143    2.1712    0.3018 C   0  0  0  0  0  0  0  0  0  0  0  0
    0.2307    0.7528    0.2210 C   0  0  0  0  0  0  0  0  0  0  0  0
   -0.1940    0.0021    1.3030 O   0  0  0  0  0  0  0  0  0  0  0  0
   -0.4160   -1.2356    0.7679 C   0  0  0  0  0  0  0  0  0  0  0  0
   -1.3694   -0.8849   -0.3860 C   0  0  0  0  0  0  0  0  0  0  0  0
   -0.4905    0.1938   -1.0132 C   0  0  0  0  0  0  0  0  0  0  0  0
    0.9015   -0.1175   -0.7491 C   0  0  0  0  0  0  0  0  0  0  0  0
    0.8433   -1.4795   -0.0343 C   0  0  0  0  0  0  0  0  0  0  0  0
    0.7493    4.4088    0.4563 H   0  0  0  0  0  0  0  0  0  0  0  0
   -0.7444   -2.0227    1.3944 H   0  0  0  0  0  0  0  0  0  0  0  0
   -2.3220   -0.5083   -0.0265 H   0  0  0  0  0  0  0  0  0  0  0  0
   -1.4111   -1.7828   -1.0144 H   0  0  0  0  0  0  0  0  0  0  0  0
   -0.8911    0.8896   -1.7264 H   0  0  0  0  0  0  0  0  0  0  0  0
    1.7500    0.1345   -1.3582 H   0  0  0  0  0  0  0  0  0  0  0  0
    0.6438   -2.2144   -0.8166 H   0  0  0  0  0  0  0  0  0  0  0  0
    1.7242   -1.6561    0.5767 H   0  0  0  0  0  0  0  0  0  0  0  0
  1  2  3  0
  2  3  1  0
  3  4  1  0
  4  5  1  0
  5  6  1  0
  6  7  1  0
  7  8  1  0
  8  9  1  0
  7  3  1  0
  8  3  1  0
  9  5  1  0
  1 10  1  0
  5 11  1  0
  6 12  1  0
  6 13  1  0
  7 14  1  0
  8 15  1  0
  9 16  1  0
  9 17  1  0
M  END
