
     RDKit          3D

 13 13  0  0  0  0  0  0  0  0999 V2000
    2.3654    1.1922    0.0191 C   0  0  0  0  0  0  0  0  0  0  0  0
    1.4317    0.3367    0.1485 C   0  0  0  0  0  0  0  0  0  0  0  0
    0.3563   -0.6165    0.2866 C   0  0  0  0  0  0  0  0  0  0  0  0
   -0.3403   -0.8565   -1.0416 C   0  0  0  0  0  0  0  0  0  0  0  0
   -1.2205    0.2667   -1.1848 O   0  0  0  0  0  0  0  0  0  0  0  0
   -1.6093    0.6814    0.1080 C   0  0  0  0  0  0  0  0  0  0  0  0
   -2.5146    1.4953    0.4076 O   0  0  0  0  0  0  0  0  0  0  0  0
   -0.7755   -0.0037    1.0754 C   0  0  0  0  0  0  0  0  0  0  0  0
   -0.9286   -0.0927    2.3198 O   0  0  0  0  0  0  0  0  0  0  0  0
    3.1274    1.8661   -0.0840 H   0  0  0  0  0  0  0  0  0  0  0  0
    0.7068   -1.5579    0.7392 H   0  0  0  0  0  0  0  0  0  0  0  0
   -0.9525   -1.7627   -0.9142 H   0  0  0  0  0  0  0  0  0  0  0  0
    0.3535   -0.9482   -1.8797 H   0  0  0  0  0  0  0  0  0  0  0  0
  1  2  3  0
  2  3  1  0
  3  4  1  0
  4  5  1  0
  5  6  1  0
  6  7  2  0
  6  8  1  0
  8  9  2  0
  8  3  1  0
  1 10  1  0
  3 11  1  0
  4 12  1  0
  4 13  1  0
M  END
