
     RDKit          3D

 15 16  0  0  0  0  0  0  0  0999 V2000
   -2.9898    1.7526    0.3279 C   0  0  0  0  0  0  0  0  0  0  0  0
   -2.0749    1.0117    0.5889 C   0  0  0  0  0  0  0  0  0  0  0  0
   -0.9322    0.1181    0.9163 C   0  0  0  0  0  0  0  0  0  0  0  0
   -0.6108   -0.8938   -0.0220 C   0  0  0  0  0  0  0  0  0  0  0  0
    0.0754   -0.7912   -1.2305 O   0  0  0  0  0  0  0  0  0  0  0  0
    1.1961   -0.8165   -0.3545 C   0  0  0  0  0  0  0  0  0  0  0  0
    2.4302   -0.2989   -0.9738 C   0  0  0  0  0  0  0  0  0  0  0  0
    3.4626   -0.2538   -0.3651 O   0  0  0  0  0  0  0  0  0  0  0  0
    0.3771    0.2901    0.3318 C   0  0  0  0  0  0  0  0  0  0  0  0
   -3.8003    2.4095    0.1157 H   0  0  0  0  0  0  0  0  0  0  0  0
   -0.9392   -0.1049    2.0243 H   0  0  0  0  0  0  0  0  0  0  0  0
   -0.3152   -1.8896    0.4381 H   0  0  0  0  0  0  0  0  0  0  0  0
    1.3310   -1.7281    0.2201 H   0  0  0  0  0  0  0  0  0  0  0  0
    2.4223    0.0523   -1.9995 H   0  0  0  0  0  0  0  0  0  0  0  0
    0.3678    1.1426   -0.4194 H   0  0  0  0  0  0  0  0  0  0  0  0
  1  2  3  0
  2  3  1  0
  3  4  1  0
  4  5  1  0
  5  6  1  0
  6  7  1  0
  7  8  2  0
  6  9  1  0
  9  3  1  0
  9  4  1  0
  1 10  1  0
  3 11  1  0
  4 12  1  0
  6 13  1  0
  7 14  1  0
  9 15  1  0
M  END
