
     RDKit          3D

 19 19  0  0  0  0  0  0  0  0999 V2000
    2.3680    2.4701   -0.9654 C   0  0  0  0  0  0  0  0  0  0  0  0
    1.5926    1.3284   -0.5662 C   0  0  0  0  0  0  0  0  0  0  0  0
    0.9679    0.4389   -0.2503 C   0  0  0  0  0  0  0  0  0  0  0  0
    0.9784   -0.9375   -0.5556 C   0  0  0  0  0  0  0  0  0  0  0  0
   -0.0384   -1.8181    0.0615 C   0  0  0  0  0  0  0  0  0  0  0  0
   -1.4345   -1.2924   -0.2980 C   0  0  0  0  0  0  0  0  0  0  0  0
   -1.4867    0.1625    0.1383 C   0  0  0  0  0  0  0  0  0  0  0  0
   -0.2011    0.5413    0.8365 C   0  0  0  0  0  0  0  0  0  0  0  0
   -0.2208    1.8072    1.3241 O   0  0  0  0  0  0  0  0  0  0  0  0
    2.9206    3.2948   -1.2676 H   0  0  0  0  0  0  0  0  0  0  0  0
    1.7414   -1.2548   -1.2112 H   0  0  0  0  0  0  0  0  0  0  0  0
    0.0035   -2.8231   -0.5105 H   0  0  0  0  0  0  0  0  0  0  0  0
    0.0785   -2.0250    1.1191 H   0  0  0  0  0  0  0  0  0  0  0  0
   -2.1577   -1.9066    0.2340 H   0  0  0  0  0  0  0  0  0  0  0  0
   -1.4516   -1.4069   -1.4238 H   0  0  0  0  0  0  0  0  0  0  0  0
   -1.5639    0.7826   -0.8052 H   0  0  0  0  0  0  0  0  0  0  0  0
   -2.3589    0.3167    0.7702 H   0  0  0  0  0  0  0  0  0  0  0  0
    0.0727   -0.1469    1.6218 H   0  0  0  0  0  0  0  0  0  0  0  0
    0.1899    2.4687    0.7000 H   0  0  0  0  0  0  0  0  0  0  0  0
  1  2  3  0
  2  3  1  0
  3  4  2  0
  4  5  1  0
  5  6  1  0
  6  7  1  0
  7  8  1  0
  8  9  1  0
  8  3  1  0
  1 10  1  0
  4 11  1  0
  5 12  1  0
  5 13  1  0
  6 14  1  0
  6 15  1  0
  7 16  1  0
  7 17  1  0
  8 18  1  0
  9 19  1  0
M  END
