
     RDKit          3D

 15 14  0  0  0  0  0  0  0  0999 V2000
    1.5370    1.7403    2.0341 C   0  0  0  0  0  0  0  0  0  0  0  0
    1.0099    0.7819    1.5692 C   0  0  0  0  0  0  0  0  0  0  0  0
    0.3687   -0.4352    0.9820 C   0  0  0  0  0  0  0  0  0  0  0  0
    0.0354   -0.1739   -0.4355 C   0  0  0  0  0  0  0  0  0  0  0  0
    1.1893    0.1385   -1.0920 O   0  0  0  0  0  0  0  0  0  0  0  0
   -0.4879   -1.4698   -1.0199 C   0  0  0  0  0  0  0  0  0  0  0  0
   -0.8782   -2.4411   -1.4409 C   0  0  0  0  0  0  0  0  0  0  0  0
   -1.0329    0.8550   -0.5416 C   0  0  0  0  0  0  0  0  0  0  0  0
   -1.8204    1.6324   -0.6068 C   0  0  0  0  0  0  0  0  0  0  0  0
    2.0013    2.6222    2.4614 H   0  0  0  0  0  0  0  0  0  0  0  0
   -0.4646   -0.7237    1.6095 H   0  0  0  0  0  0  0  0  0  0  0  0
    1.1227   -1.2727    1.0518 H   0  0  0  0  0  0  0  0  0  0  0  0
    1.2720   -0.2677   -2.0141 H   0  0  0  0  0  0  0  0  0  0  0  0
   -1.2525   -3.4075   -1.8647 H   0  0  0  0  0  0  0  0  0  0  0  0
   -2.5998    2.4213   -0.6692 H   0  0  0  0  0  0  0  0  0  0  0  0
  1  2  3  0
  2  3  1  0
  3  4  1  0
  4  5  1  0
  4  6  1  0
  6  7  3  0
  4  8  1  0
  8  9  3  0
  1 10  1  0
  3 11  1  0
  3 12  1  0
  5 13  1  0
  7 14  1  0
  9 15  1  0
M  END
