
     RDKit          3D

 23 23  0  0  0  0  0  0  0  0999 V2000
    1.6526   -2.7676    0.8262 C   0  0  0  0  0  0  0  0  0  0  0  0
    1.2747   -1.6315    0.6756 C   0  0  0  0  0  0  0  0  0  0  0  0
    0.8287   -0.2459    0.5140 C   0  0  0  0  0  0  0  0  0  0  0  0
    1.6645    0.4474   -0.5255 C   0  0  0  0  0  0  0  0  0  0  0  0
    0.5040    0.3195   -1.4891 C   0  0  0  0  0  0  0  0  0  0  0  0
   -0.3846   -0.1176   -0.3572 C   0  0  0  0  0  0  0  0  0  0  0  0
   -1.0311   -1.4860   -0.5784 C   0  0  0  0  0  0  0  0  0  0  0  0
   -1.4279    0.8603    0.0807 C   0  0  0  0  0  0  0  0  0  0  0  0
   -0.9648    2.2671    0.1892 C   0  0  0  0  0  0  0  0  0  0  0  0
    1.9633   -3.7505    0.9605 H   0  0  0  0  0  0  0  0  0  0  0  0
    0.7672    0.2705    1.4954 H   0  0  0  0  0  0  0  0  0  0  0  0
    1.9767    1.4801   -0.2903 H   0  0  0  0  0  0  0  0  0  0  0  0
    2.5834   -0.1254   -0.8322 H   0  0  0  0  0  0  0  0  0  0  0  0
    0.2170    1.2382   -2.0125 H   0  0  0  0  0  0  0  0  0  0  0  0
    0.7014   -0.5582   -2.1646 H   0  0  0  0  0  0  0  0  0  0  0  0
   -0.4259   -2.1353   -1.2199 H   0  0  0  0  0  0  0  0  0  0  0  0
   -2.0163   -1.3583   -1.1146 H   0  0  0  0  0  0  0  0  0  0  0  0
   -1.2643   -1.9229    0.4078 H   0  0  0  0  0  0  0  0  0  0  0  0
   -2.2789    0.7915   -0.6095 H   0  0  0  0  0  0  0  0  0  0  0  0
   -1.8075    0.5043    1.0780 H   0  0  0  0  0  0  0  0  0  0  0  0
   -0.1587    2.5542   -0.5000 H   0  0  0  0  0  0  0  0  0  0  0  0
   -1.8291    2.9589    0.1370 H   0  0  0  0  0  0  0  0  0  0  0  0
   -0.5445    2.4071    1.2270 H   0  0  0  0  0  0  0  0  0  0  0  0
  1  2  3  0
  2  3  1  0
  3  4  1  0
  4  5  1  0
  5  6  1  0
  6  7  1  0
  6  8  1  0
  8  9  1  0
  6  3  1  0
  1 10  1  0
  3 11  1  0
  4 12  1  0
  4 13  1  0
  5 14  1  0
  5 15  1  0
  7 16  1  0
  7 17  1  0
  7 18  1  0
  8 19  1  0
  8 20  1  0
  9 21  1  0
  9 22  1  0
  9 23  1  0
M  END
