
     RDKit          3D

 19 19  0  0  0  0  0  0  0  0999 V2000
   -3.0797   -0.6302    1.8704 C   0  0  0  0  0  0  0  0  0  0  0  0
   -2.4103   -0.1451    0.9856 C   0  0  0  0  0  0  0  0  0  0  0  0
   -1.6209    0.4408   -0.1001 C   0  0  0  0  0  0  0  0  0  0  0  0
   -0.4161   -0.4657   -0.3447 C   0  0  0  0  0  0  0  0  0  0  0  0
    0.3535   -0.5131    0.9206 C   0  0  0  0  0  0  0  0  0  0  0  0
    1.6461   -0.3594    0.6831 C   0  0  0  0  0  0  0  0  0  0  0  0
    1.9269   -0.1879   -0.7626 C   0  0  0  0  0  0  0  0  0  0  0  0
    2.3807   -1.3828   -1.3408 O   0  0  0  0  0  0  0  0  0  0  0  0
    0.5339    0.1467   -1.3164 C   0  0  0  0  0  0  0  0  0  0  0  0
   -3.6673   -1.0486    2.6641 H   0  0  0  0  0  0  0  0  0  0  0  0
   -1.2059    1.4236    0.2244 H   0  0  0  0  0  0  0  0  0  0  0  0
   -2.2314    0.5227   -1.0229 H   0  0  0  0  0  0  0  0  0  0  0  0
   -0.7571   -1.4900   -0.6485 H   0  0  0  0  0  0  0  0  0  0  0  0
   -0.0628   -0.6560    1.9418 H   0  0  0  0  0  0  0  0  0  0  0  0
    2.4069   -0.3607    1.4699 H   0  0  0  0  0  0  0  0  0  0  0  0
    2.6469    0.6295   -0.9682 H   0  0  0  0  0  0  0  0  0  0  0  0
    2.6695   -1.9494   -0.5748 H   0  0  0  0  0  0  0  0  0  0  0  0
    0.4540   -0.2700   -2.3243 H   0  0  0  0  0  0  0  0  0  0  0  0
    0.4330    1.2455   -1.3564 H   0  0  0  0  0  0  0  0  0  0  0  0
  1  2  3  0
  2  3  1  0
  3  4  1  0
  4  5  1  0
  5  6  2  0
  6  7  1  0
  7  8  1  0
  7  9  1  0
  9  4  1  0
  1 10  1  0
  3 11  1  0
  3 12  1  0
  4 13  1  0
  5 14  1  0
  6 15  1  0
  7 16  1  0
  8 17  1  0
  9 18  1  0
  9 19  1  0
M  END
