
     RDKit          3D

 19 19  0  0  0  0  0  0  0  0999 V2000
    2.3304   -1.5353   -0.2413 C   0  0  0  0  0  0  0  0  0  0  0  0
    1.1443   -1.3112   -0.2289 C   0  0  0  0  0  0  0  0  0  0  0  0
   -0.2749   -1.0423   -0.1900 C   0  0  0  0  0  0  0  0  0  0  0  0
   -1.0596   -1.7999   -1.0628 O   0  0  0  0  0  0  0  0  0  0  0  0
   -0.8582   -0.9129    1.2137 C   0  0  0  0  0  0  0  0  0  0  0  0
   -1.7491    0.1795    0.6029 C   0  0  0  0  0  0  0  0  0  0  0  0
   -0.5523    0.4653   -0.2907 C   0  0  0  0  0  0  0  0  0  0  0  0
    0.4420    1.1285    0.4337 O   0  0  0  0  0  0  0  0  0  0  0  0
    0.9878    2.1786   -0.2897 C   0  0  0  0  0  0  0  0  0  0  0  0
    3.3857   -1.7501   -0.2415 H   0  0  0  0  0  0  0  0  0  0  0  0
   -0.4727   -2.2070   -1.7346 H   0  0  0  0  0  0  0  0  0  0  0  0
   -1.3925   -1.7888    1.5804 H   0  0  0  0  0  0  0  0  0  0  0  0
   -0.0830   -0.4774    1.8719 H   0  0  0  0  0  0  0  0  0  0  0  0
   -2.5749   -0.2692    0.0364 H   0  0  0  0  0  0  0  0  0  0  0  0
   -1.9846    0.9999    1.2723 H   0  0  0  0  0  0  0  0  0  0  0  0
   -0.7670    0.8339   -1.2837 H   0  0  0  0  0  0  0  0  0  0  0  0
    0.2095    2.9081   -0.5429 H   0  0  0  0  0  0  0  0  0  0  0  0
    1.4690    1.7853   -1.2265 H   0  0  0  0  0  0  0  0  0  0  0  0
    1.8000    2.6152    0.3212 H   0  0  0  0  0  0  0  0  0  0  0  0
  1  2  3  0
  2  3  1  0
  3  4  1  0
  3  5  1  0
  5  6  1  0
  6  7  1  0
  7  8  1  0
  8  9  1  0
  7  3  1  0
  1 10  1  0
  4 11  1  0
  5 12  1  0
  5 13  1  0
  6 14  1  0
  6 15  1  0
  7 16  1  0
  9 17  1  0
  9 18  1  0
  9 19  1  0
M  END
