
     RDKit          3D

 15 17  0  0  0  0  0  0  0  0999 V2000
    3.0888   -1.0413   -0.0970 C   0  0  0  0  0  0  0  0  0  0  0  0
    1.9494   -0.6698    0.0311 C   0  0  0  0  0  0  0  0  0  0  0  0
    0.6270   -0.2232    0.2000 C   0  0  0  0  0  0  0  0  0  0  0  0
   -0.1073    0.1081   -1.1088 C   0  0  0  0  0  0  0  0  0  0  0  0
   -1.4307    0.5151   -0.4397 C   0  0  0  0  0  0  0  0  0  0  0  0
   -0.9633    1.0741    0.8367 C   0  0  0  0  0  0  0  0  0  0  0  0
    0.4350    0.9408    0.9062 O   0  0  0  0  0  0  0  0  0  0  0  0
   -1.4547   -0.3270    0.7542 C   0  0  0  0  0  0  0  0  0  0  0  0
   -0.2651   -1.0927    0.7806 O   0  0  0  0  0  0  0  0  0  0  0  0
    4.1066   -1.3743   -0.2304 H   0  0  0  0  0  0  0  0  0  0  0  0
   -0.2609   -0.8144   -1.6868 H   0  0  0  0  0  0  0  0  0  0  0  0
    0.3558    0.9341   -1.6482 H   0  0  0  0  0  0  0  0  0  0  0  0
   -2.2610    0.8481   -1.0225 H   0  0  0  0  0  0  0  0  0  0  0  0
   -1.4849    1.7963    1.4432 H   0  0  0  0  0  0  0  0  0  0  0  0
   -2.3348   -0.6740    1.2815 H   0  0  0  0  0  0  0  0  0  0  0  0
  1  2  3  0
  2  3  1  0
  3  4  1  0
  4  5  1  0
  5  6  1  0
  6  7  1  0
  6  8  1  0
  8  9  1  0
  7  3  1  0
  9  3  1  0
  8  5  1  0
  1 10  1  0
  4 11  1  0
  4 12  1  0
  5 13  1  0
  6 14  1  0
  8 15  1  0
M  END
