
     RDKit          3D

 17 19  0  0  0  0  0  0  0  0999 V2000
    0.3508    3.2211    1.6307 C   0  0  0  0  0  0  0  0  0  0  0  0
    0.6943    2.1228    1.0588 C   0  0  0  0  0  0  0  0  0  0  0  0
    1.0667    0.8761    0.4334 C   0  0  0  0  0  0  0  0  0  0  0  0
    0.5005    0.3160   -0.7443 C   0  0  0  0  0  0  0  0  0  0  0  0
    0.0486   -1.0394   -1.1606 C   0  0  0  0  0  0  0  0  0  0  0  0
   -1.1021   -1.8738   -0.7170 C   0  0  0  0  0  0  0  0  0  0  0  0
   -1.0847   -0.5328   -0.2452 C   0  0  0  0  0  0  0  0  0  0  0  0
    0.0897   -0.1900    0.6659 C   0  0  0  0  0  0  0  0  0  0  0  0
    0.7006   -1.2831    1.2352 O   0  0  0  0  0  0  0  0  0  0  0  0
    0.0878    4.1090    2.0819 H   0  0  0  0  0  0  0  0  0  0  0  0
    2.1861    0.7162    0.5571 H   0  0  0  0  0  0  0  0  0  0  0  0
   -0.2180    1.0916   -1.1890 H   0  0  0  0  0  0  0  0  0  0  0  0
   -0.0267   -1.0363   -2.2889 H   0  0  0  0  0  0  0  0  0  0  0  0
   -1.9364   -2.2062   -1.3370 H   0  0  0  0  0  0  0  0  0  0  0  0
   -0.8071   -2.6644    0.0409 H   0  0  0  0  0  0  0  0  0  0  0  0
   -1.6225    0.3332   -0.6749 H   0  0  0  0  0  0  0  0  0  0  0  0
    1.0725   -1.9601    0.6529 H   0  0  0  0  0  0  0  0  0  0  0  0
  1  2  3  0
  2  3  1  0
  3  4  1  0
  4  5  1  0
  5  6  1  0
  6  7  1  0
  7  8  1  0
  8  9  1  0
  8  3  1  0
  8  4  1  0
  7  5  1  0
  1 10  1  0
  3 11  1  0
  4 12  1  0
  5 13  1  0
  6 14  1  0
  6 15  1  0
  7 16  1  0
  9 17  1  0
M  END
