
     RDKit          3D

 13 13  0  0  0  0  0  0  0  0999 V2000
    2.4650   -0.2690    0.2215 C   0  0  0  0  0  0  0  0  0  0  0  0
    1.3142    0.0131   -0.0040 C   0  0  0  0  0  0  0  0  0  0  0  0
   -0.0846    0.3312   -0.2732 C   0  0  0  0  0  0  0  0  0  0  0  0
   -0.2928    1.1781   -1.3321 O   0  0  0  0  0  0  0  0  0  0  0  0
   -0.9479    0.5198    0.9377 C   0  0  0  0  0  0  0  0  0  0  0  0
   -0.9543   -0.8764    1.0940 O   0  0  0  0  0  0  0  0  0  0  0  0
   -0.9132   -0.9620   -0.3097 C   0  0  0  0  0  0  0  0  0  0  0  0
    3.4960   -0.5240    0.4049 H   0  0  0  0  0  0  0  0  0  0  0  0
    0.5923    1.3825   -1.7326 H   0  0  0  0  0  0  0  0  0  0  0  0
   -0.5310    1.0868    1.7691 H   0  0  0  0  0  0  0  0  0  0  0  0
   -1.9642    0.8373    0.6314 H   0  0  0  0  0  0  0  0  0  0  0  0
   -0.3002   -1.8473   -0.5992 H   0  0  0  0  0  0  0  0  0  0  0  0
   -1.8793   -0.8701   -0.8078 H   0  0  0  0  0  0  0  0  0  0  0  0
  1  2  3  0
  2  3  1  0
  3  4  1  0
  3  5  1  0
  5  6  1  0
  6  7  1  0
  7  3  1  0
  1  8  1  0
  4  9  1  0
  5 10  1  0
  5 11  1  0
  7 12  1  0
  7 13  1  0
M  END
