
     RDKit          3D

 19 20  0  0  0  0  0  0  0  0999 V2000
    1.0182   -2.0557   -1.9527 C   0  0  0  0  0  0  0  0  0  0  0  0
    0.8480   -1.0377   -1.2372 C   0  0  0  0  0  0  0  0  0  0  0  0
    0.6373    0.0788   -0.4556 C   0  0  0  0  0  0  0  0  0  0  0  0
    1.5099    0.2367    0.7711 C   0  0  0  0  0  0  0  0  0  0  0  0
    0.5455    0.2214    1.8738 C   0  0  0  0  0  0  0  0  0  0  0  0
   -0.2352    1.0876    2.4501 O   0  0  0  0  0  0  0  0  0  0  0  0
   -0.5414    1.0954    1.1644 C   0  0  0  0  0  0  0  0  0  0  0  0
   -0.8021    0.0518    0.1581 C   0  0  0  0  0  0  0  0  0  0  0  0
   -1.8601    0.2604   -0.8447 C   0  0  0  0  0  0  0  0  0  0  0  0
    1.1494   -2.9549   -2.5795 H   0  0  0  0  0  0  0  0  0  0  0  0
    0.6804    1.0504   -1.0371 H   0  0  0  0  0  0  0  0  0  0  0  0
    2.2188   -0.6185    0.8753 H   0  0  0  0  0  0  0  0  0  0  0  0
    2.0408    1.2342    0.7272 H   0  0  0  0  0  0  0  0  0  0  0  0
    0.2268   -0.8455    2.1094 H   0  0  0  0  0  0  0  0  0  0  0  0
   -0.1251    2.0316    0.6699 H   0  0  0  0  0  0  0  0  0  0  0  0
   -0.9157   -0.9394    0.6595 H   0  0  0  0  0  0  0  0  0  0  0  0
   -2.3703   -0.6768   -1.1506 H   0  0  0  0  0  0  0  0  0  0  0  0
   -2.5905    1.0145   -0.4386 H   0  0  0  0  0  0  0  0  0  0  0  0
   -1.4348    0.7655   -1.7628 H   0  0  0  0  0  0  0  0  0  0  0  0
  1  2  3  0
  2  3  1  0
  3  4  1  0
  4  5  1  0
  5  6  1  0
  6  7  1  0
  7  8  1  0
  8  9  1  0
  8  3  1  0
  7  5  1  0
  1 10  1  0
  3 11  1  0
  4 12  1  0
  4 13  1  0
  5 14  1  0
  7 15  1  0
  8 16  1  0
  9 17  1  0
  9 18  1  0
  9 19  1  0
M  END
