
     RDKit          3D

 15 14  0  0  0  0  0  0  0  0999 V2000
    4.4913    1.8158   -0.4243 C   0  0  0  0  0  0  0  0  0  0  0  0
    3.4102    1.0674   -0.4103 C   0  0  0  0  0  0  0  0  0  0  0  0
    2.2396    0.2628   -0.4010 C   0  0  0  0  0  0  0  0  0  0  0  0
    1.1730   -0.4978   -0.3949 C   0  0  0  0  0  0  0  0  0  0  0  0
    0.1534   -1.2056   -0.3833 C   0  0  0  0  0  0  0  0  0  0  0  0
   -1.0156   -1.0198    0.2448 O   0  0  0  0  0  0  0  0  0  0  0  0
   -1.8338    0.0665    0.0573 C   0  0  0  0  0  0  0  0  0  0  0  0
   -3.1192   -0.2803    0.8034 C   0  0  0  0  0  0  0  0  0  0  0  0
   -3.5088    0.7595    1.4616 O   0  0  0  0  0  0  0  0  0  0  0  0
    5.2096    2.3183   -0.4292 H   0  0  0  0  0  0  0  0  0  0  0  0
   -0.2627   -0.9765   -1.6908 H   0  0  0  0  0  0  0  0  0  0  0  0
    0.3015   -2.3566   -0.6239 H   0  0  0  0  0  0  0  0  0  0  0  0
   -2.1095    0.1198   -1.0550 H   0  0  0  0  0  0  0  0  0  0  0  0
   -1.4473    1.0091    0.4188 H   0  0  0  0  0  0  0  0  0  0  0  0
   -3.6816   -1.0827    0.8688 H   0  0  0  0  0  0  0  0  0  0  0  0
  1  2  3  0
  2  3  1  0
  3  4  3  0
  4  5  1  0
  5  6  1  0
  6  7  1  0
  7  8  1  0
  8  9  2  0
  1 10  1  0
  5 11  1  0
  5 12  1  0
  7 13  1  0
  7 14  1  0
  8 15  1  0
M  END
