
     RDKit          3D

 17 19  0  0  0  0  0  0  0  0999 V2000
    2.5284    1.5379   -0.5508 C   0  0  0  0  0  0  0  0  0  0  0  0
    2.0423    0.4721   -0.2446 C   0  0  0  0  0  0  0  0  0  0  0  0
    1.4266   -0.8170    0.1343 C   0  0  0  0  0  0  0  0  0  0  0  0
    0.2656   -1.2696   -0.6498 C   0  0  0  0  0  0  0  0  0  0  0  0
   -0.8352   -0.3435   -1.0566 C   0  0  0  0  0  0  0  0  0  0  0  0
   -1.0207    0.0235    0.3901 C   0  0  0  0  0  0  0  0  0  0  0  0
   -1.5484    1.2048    0.8198 C   0  0  0  0  0  0  0  0  0  0  0  0
   -2.2261   -0.1107    1.0157 O   0  0  0  0  0  0  0  0  0  0  0  0
    0.1470   -0.7615    0.8254 C   0  0  0  0  0  0  0  0  0  0  0  0
    2.9376    2.4765   -0.8251 H   0  0  0  0  0  0  0  0  0  0  0  0
    2.1395   -1.6010    0.4412 H   0  0  0  0  0  0  0  0  0  0  0  0
    0.0803   -2.3582   -0.7726 H   0  0  0  0  0  0  0  0  0  0  0  0
   -1.7400   -0.9018   -1.4088 H   0  0  0  0  0  0  0  0  0  0  0  0
   -0.5515    0.5051   -1.7082 H   0  0  0  0  0  0  0  0  0  0  0  0
   -1.3597    1.6728    1.8219 H   0  0  0  0  0  0  0  0  0  0  0  0
   -2.2145    1.8288    0.1889 H   0  0  0  0  0  0  0  0  0  0  0  0
   -0.0712   -1.5584    1.5788 H   0  0  0  0  0  0  0  0  0  0  0  0
  1  2  3  0
  2  3  1  0
  3  4  1  0
  4  5  1  0
  5  6  1  0
  6  7  1  0
  7  8  1  0
  6  9  1  0
  9  3  1  0
  9  4  1  0
  8  6  1  0
  1 10  1  0
  3 11  1  0
  4 12  1  0
  5 13  1  0
  5 14  1  0
  7 15  1  0
  7 16  1  0
  9 17  1  0
M  END
