
     RDKit          3D

 19 19  0  0  0  0  0  0  0  0999 V2000
    3.8628    0.6579    0.2349 C   0  0  0  0  0  0  0  0  0  0  0  0
    2.9946   -0.1463   -0.0070 C   0  0  0  0  0  0  0  0  0  0  0  0
    1.9358   -1.1095   -0.3143 C   0  0  0  0  0  0  0  0  0  0  0  0
    0.6282   -0.3052   -0.3441 C   0  0  0  0  0  0  0  0  0  0  0  0
    0.3838    0.2985    0.8550 O   0  0  0  0  0  0  0  0  0  0  0  0
   -0.7603    1.0583    0.8168 C   0  0  0  0  0  0  0  0  0  0  0  0
   -2.0370    0.3505    0.5115 C   0  0  0  0  0  0  0  0  0  0  0  0
   -2.9257    0.9051   -0.5880 C   0  0  0  0  0  0  0  0  0  0  0  0
   -2.2808   -0.3160   -0.6629 O   0  0  0  0  0  0  0  0  0  0  0  0
    4.6232    1.3876    0.4526 H   0  0  0  0  0  0  0  0  0  0  0  0
    2.0911   -1.5291   -1.3100 H   0  0  0  0  0  0  0  0  0  0  0  0
    1.8077   -1.8589    0.4897 H   0  0  0  0  0  0  0  0  0  0  0  0
   -0.1831   -1.0782   -0.5110 H   0  0  0  0  0  0  0  0  0  0  0  0
    0.6115    0.3613   -1.2285 H   0  0  0  0  0  0  0  0  0  0  0  0
   -0.9325    1.5706    1.8191 H   0  0  0  0  0  0  0  0  0  0  0  0
   -0.6473    1.9017    0.0587 H   0  0  0  0  0  0  0  0  0  0  0  0
   -2.6477   -0.0358    1.3773 H   0  0  0  0  0  0  0  0  0  0  0  0
   -2.5037    1.7097   -1.2231 H   0  0  0  0  0  0  0  0  0  0  0  0
   -4.0207    0.9573   -0.4268 H   0  0  0  0  0  0  0  0  0  0  0  0
  1  2  3  0
  2  3  1  0
  3  4  1  0
  4  5  1  0
  5  6  1  0
  6  7  1  0
  7  8  1  0
  8  9  1  0
  9  7  1  0
  1 10  1  0
  3 11  1  0
  3 12  1  0
  4 13  1  0
  4 14  1  0
  6 15  1  0
  6 16  1  0
  7 17  1  0
  8 18  1  0
  8 19  1  0
M  END
