
     RDKit          3D

 21 21  0  0  0  0  0  0  0  0999 V2000
    3.7984   -0.1622    0.2042 C   0  0  0  0  0  0  0  0  0  0  0  0
    2.6121    0.0192    0.2909 C   0  0  0  0  0  0  0  0  0  0  0  0
    1.1737    0.2138    0.3970 C   0  0  0  0  0  0  0  0  0  0  0  0
    0.4888   -0.9059    1.0664 C   0  0  0  0  0  0  0  0  0  0  0  0
   -0.7193   -1.0200    0.5494 C   0  0  0  0  0  0  0  0  0  0  0  0
   -0.9252    0.0305   -0.5173 C   0  0  0  0  0  0  0  0  0  0  0  0
   -1.7617   -0.5871   -1.5914 C   0  0  0  0  0  0  0  0  0  0  0  0
   -1.4463    1.3120    0.0319 C   0  0  0  0  0  0  0  0  0  0  0  0
    0.5316    0.2258   -0.9687 C   0  0  0  0  0  0  0  0  0  0  0  0
    4.8407   -0.3245    0.1151 H   0  0  0  0  0  0  0  0  0  0  0  0
    0.9083    1.1530    0.9232 H   0  0  0  0  0  0  0  0  0  0  0  0
    0.9584   -1.5094    1.8587 H   0  0  0  0  0  0  0  0  0  0  0  0
   -1.4287   -1.7735    0.8736 H   0  0  0  0  0  0  0  0  0  0  0  0
   -1.6136   -0.0793   -2.5801 H   0  0  0  0  0  0  0  0  0  0  0  0
   -2.8194   -0.5217   -1.2647 H   0  0  0  0  0  0  0  0  0  0  0  0
   -1.5072   -1.6678   -1.6838 H   0  0  0  0  0  0  0  0  0  0  0  0
   -1.6941    1.2678    1.1120 H   0  0  0  0  0  0  0  0  0  0  0  0
   -0.6600    2.1205   -0.0489 H   0  0  0  0  0  0  0  0  0  0  0  0
   -2.2822    1.6612   -0.5956 H   0  0  0  0  0  0  0  0  0  0  0  0
    0.8598   -0.6355   -1.5727 H   0  0  0  0  0  0  0  0  0  0  0  0
    0.6860    1.1833   -1.4620 H   0  0  0  0  0  0  0  0  0  0  0  0
  1  2  3  0
  2  3  1  0
  3  4  1  0
  4  5  2  0
  5  6  1  0
  6  7  1  0
  6  8  1  0
  6  9  1  0
  9  3  1  0
  1 10  1  0
  3 11  1  0
  4 12  1  0
  5 13  1  0
  7 14  1  0
  7 15  1  0
  7 16  1  0
  8 17  1  0
  8 18  1  0
  8 19  1  0
  9 20  1  0
  9 21  1  0
M  END
