
     RDKit          3D

 13 12  0  0  0  0  0  0  0  0999 V2000
    2.8048   -0.0602    0.0639 C   0  0  0  0  0  0  0  0  0  0  0  0
    1.6831   -0.3828   -0.2878 C   0  0  0  0  0  0  0  0  0  0  0  0
    0.3749   -0.7725   -0.7074 C   0  0  0  0  0  0  0  0  0  0  0  0
    0.2283   -1.9223   -1.1751 O   0  0  0  0  0  0  0  0  0  0  0  0
   -0.7813    0.1440   -0.5986 C   0  0  0  0  0  0  0  0  0  0  0  0
   -0.9139    0.6630    0.8139 C   0  0  0  0  0  0  0  0  0  0  0  0
   -1.9504   -0.4162   -1.0539 O   0  0  0  0  0  0  0  0  0  0  0  0
    3.7830    0.2108    0.3622 H   0  0  0  0  0  0  0  0  0  0  0  0
   -0.5411    1.0479   -1.2323 H   0  0  0  0  0  0  0  0  0  0  0  0
    0.0781    0.8428    1.2323 H   0  0  0  0  0  0  0  0  0  0  0  0
   -1.5219    1.5997    0.7572 H   0  0  0  0  0  0  0  0  0  0  0  0
   -1.4661   -0.0376    1.4743 H   0  0  0  0  0  0  0  0  0  0  0  0
   -1.7776   -0.9167   -1.8873 H   0  0  0  0  0  0  0  0  0  0  0  0
  1  2  3  0
  2  3  1  0
  3  4  2  0
  3  5  1  0
  5  6  1  0
  5  7  1  0
  1  8  1  0
  5  9  1  0
  6 10  1  0
  6 11  1  0
  6 12  1  0
  7 13  1  0
M  END
