
     RDKit          3D

 23 22  0  0  0  0  0  0  0  0999 V2000
   -2.3669    1.6236   -2.6368 C   0  0  0  0  0  0  0  0  0  0  0  0
   -1.7065    0.6715   -2.0020 C   0  0  0  0  0  0  0  0  0  0  0  0
   -1.0223   -0.3342   -1.3602 C   0  0  0  0  0  0  0  0  0  0  0  0
   -2.0009   -1.0671   -0.3914 C   0  0  0  0  0  0  0  0  0  0  0  0
   -0.0140    0.1272   -0.4892 O   0  0  0  0  0  0  0  0  0  0  0  0
    1.1860   -0.5112   -0.6037 C   0  0  0  0  0  0  0  0  0  0  0  0
    2.1548    0.0931    0.3842 C   0  0  0  0  0  0  0  0  0  0  0  0
    1.6408   -0.0200    1.7956 C   0  0  0  0  0  0  0  0  0  0  0  0
    0.3510    0.7594    1.9337 C   0  0  0  0  0  0  0  0  0  0  0  0
   -2.9076    2.3815   -3.1588 H   0  0  0  0  0  0  0  0  0  0  0  0
   -0.6410   -1.1450   -2.0376 H   0  0  0  0  0  0  0  0  0  0  0  0
   -1.4505   -1.6976    0.3116 H   0  0  0  0  0  0  0  0  0  0  0  0
   -2.4065   -0.1965    0.2125 H   0  0  0  0  0  0  0  0  0  0  0  0
   -2.8123   -1.5582   -0.9547 H   0  0  0  0  0  0  0  0  0  0  0  0
    1.1071   -1.6231   -0.3849 H   0  0  0  0  0  0  0  0  0  0  0  0
    1.6668   -0.4503   -1.6070 H   0  0  0  0  0  0  0  0  0  0  0  0
    3.1314   -0.4176    0.3432 H   0  0  0  0  0  0  0  0  0  0  0  0
    2.3147    1.1749    0.1146 H   0  0  0  0  0  0  0  0  0  0  0  0
    1.3836   -1.0916    2.0052 H   0  0  0  0  0  0  0  0  0  0  0  0
    2.3691    0.3598    2.5366 H   0  0  0  0  0  0  0  0  0  0  0  0
   -0.5168    0.0986    1.7762 H   0  0  0  0  0  0  0  0  0  0  0  0
    0.2302    1.1727    2.9621 H   0  0  0  0  0  0  0  0  0  0  0  0
    0.3097    1.6499    1.2510 H   0  0  0  0  0  0  0  0  0  0  0  0
  1  2  3  0
  2  3  1  0
  3  4  1  0
  3  5  1  0
  5  6  1  0
  6  7  1  0
  7  8  1  0
  8  9  1  0
  1 10  1  0
  3 11  1  0
  4 12  1  0
  4 13  1  0
  4 14  1  0
  6 15  1  0
  6 16  1  0
  7 17  1  0
  7 18  1  0
  8 19  1  0
  8 20  1  0
  9 21  1  0
  9 22  1  0
  9 23  1  0
M  END
