
     RDKit          3D

 18 18  0  0  0  0  0  0  0  0999 V2000
    0.5431    2.2276   -0.9537 C   0  0  0  0  0  0  0  0  0  0  0  0
    0.3544    1.3002   -0.2065 C   0  0  0  0  0  0  0  0  0  0  0  0
    0.1214    0.1810    0.7265 C   0  0  0  0  0  0  0  0  0  0  0  0
    1.1931   -0.1629    1.5316 O   0  0  0  0  0  0  0  0  0  0  0  0
    2.3009   -0.5466    0.7999 C   0  0  0  0  0  0  0  0  0  0  0  0
   -1.2213    0.1643    1.3694 C   0  0  0  0  0  0  0  0  0  0  0  0
   -0.8960   -0.8128    0.3096 C   0  0  0  0  0  0  0  0  0  0  0  0
   -1.6132   -0.6177   -1.0199 C   0  0  0  0  0  0  0  0  0  0  0  0
    0.7296    3.0501   -1.6205 H   0  0  0  0  0  0  0  0  0  0  0  0
    2.0718   -1.4432    0.1529 H   0  0  0  0  0  0  0  0  0  0  0  0
    2.7182    0.2466    0.1648 H   0  0  0  0  0  0  0  0  0  0  0  0
    3.0570   -0.9224    1.5378 H   0  0  0  0  0  0  0  0  0  0  0  0
   -1.3256   -0.1547    2.4415 H   0  0  0  0  0  0  0  0  0  0  0  0
   -1.9216    1.0034    1.1391 H   0  0  0  0  0  0  0  0  0  0  0  0
   -0.6892   -1.8630    0.6382 H   0  0  0  0  0  0  0  0  0  0  0  0
   -1.0679    0.1017   -1.6702 H   0  0  0  0  0  0  0  0  0  0  0  0
   -2.6081   -0.1541   -0.8322 H   0  0  0  0  0  0  0  0  0  0  0  0
   -1.7466   -1.5977   -1.4966 H   0  0  0  0  0  0  0  0  0  0  0  0
  1  2  3  0
  2  3  1  0
  3  4  1  0
  4  5  1  0
  3  6  1  0
  6  7  1  0
  7  8  1  0
  7  3  1  0
  1  9  1  0
  5 10  1  0
  5 11  1  0
  5 12  1  0
  6 13  1  0
  6 14  1  0
  7 15  1  0
  8 16  1  0
  8 17  1  0
  8 18  1  0
M  END
