
     RDKit          3D

 18 17  0  0  0  0  0  0  0  0999 V2000
    2.1655    1.3454    0.6276 C   0  0  0  0  0  0  0  0  0  0  0  0
    1.1123    0.7572    0.5931 C   0  0  0  0  0  0  0  0  0  0  0  0
   -0.1831    0.0630    0.5512 C   0  0  0  0  0  0  0  0  0  0  0  0
   -1.1765    0.9760   -0.1379 C   0  0  0  0  0  0  0  0  0  0  0  0
   -0.6855   -0.2213    1.9100 C   0  0  0  0  0  0  0  0  0  0  0  0
   -1.4467   -1.1350    2.0985 O   0  0  0  0  0  0  0  0  0  0  0  0
   -0.0336   -1.2031   -0.2678 C   0  0  0  0  0  0  0  0  0  0  0  0
    0.4019   -0.7785   -1.6550 C   0  0  0  0  0  0  0  0  0  0  0  0
    3.0964    1.8869    0.6583 H   0  0  0  0  0  0  0  0  0  0  0  0
   -2.1751    0.8037    0.3201 H   0  0  0  0  0  0  0  0  0  0  0  0
   -1.2192    0.7205   -1.2163 H   0  0  0  0  0  0  0  0  0  0  0  0
   -0.8447    2.0236    0.0206 H   0  0  0  0  0  0  0  0  0  0  0  0
   -0.3658    0.3940    2.7278 H   0  0  0  0  0  0  0  0  0  0  0  0
   -0.9878   -1.7460   -0.2986 H   0  0  0  0  0  0  0  0  0  0  0  0
    0.7968   -1.8088    0.1502 H   0  0  0  0  0  0  0  0  0  0  0  0
    1.2694   -1.3961   -2.0154 H   0  0  0  0  0  0  0  0  0  0  0  0
   -0.4340   -0.9436   -2.3689 H   0  0  0  0  0  0  0  0  0  0  0  0
    0.7098    0.2621   -1.6976 H   0  0  0  0  0  0  0  0  0  0  0  0
  1  2  3  0
  2  3  1  0
  3  4  1  0
  3  5  1  0
  5  6  2  0
  3  7  1  0
  7  8  1  0
  1  9  1  0
  4 10  1  0
  4 11  1  0
  4 12  1  0
  5 13  1  0
  7 14  1  0
  7 15  1  0
  8 16  1  0
  8 17  1  0
  8 18  1  0
M  END
