
     RDKit          3D

 21 22  0  0  0  0  0  0  0  0999 V2000
    3.6540   -0.1969   -0.4137 C   0  0  0  0  0  0  0  0  0  0  0  0
    2.4801   -0.2801   -0.1436 C   0  0  0  0  0  0  0  0  0  0  0  0
    1.0475   -0.3931    0.2101 C   0  0  0  0  0  0  0  0  0  0  0  0
    0.2082   -1.3558   -0.5651 C   0  0  0  0  0  0  0  0  0  0  0  0
   -0.9740   -0.5965   -1.0775 C   0  0  0  0  0  0  0  0  0  0  0  0
   -0.9732    0.7583   -0.4137 C   0  0  0  0  0  0  0  0  0  0  0  0
   -2.2309    0.9934    0.3655 C   0  0  0  0  0  0  0  0  0  0  0  0
    0.2702    0.8605    0.4003 C   0  0  0  0  0  0  0  0  0  0  0  0
    0.5784   -0.0007    1.5401 C   0  0  0  0  0  0  0  0  0  0  0  0
    4.6919   -0.1395   -0.6618 H   0  0  0  0  0  0  0  0  0  0  0  0
   -0.0795   -2.1855    0.1337 H   0  0  0  0  0  0  0  0  0  0  0  0
    0.7816   -1.8750   -1.3837 H   0  0  0  0  0  0  0  0  0  0  0  0
   -1.9122   -1.1348   -0.8293 H   0  0  0  0  0  0  0  0  0  0  0  0
   -0.8812   -0.5201   -2.1960 H   0  0  0  0  0  0  0  0  0  0  0  0
   -0.9186    1.5144   -1.2253 H   0  0  0  0  0  0  0  0  0  0  0  0
   -2.6779   -0.0247    0.5637 H   0  0  0  0  0  0  0  0  0  0  0  0
   -2.9634    1.5255   -0.2764 H   0  0  0  0  0  0  0  0  0  0  0  0
   -2.0558    1.5079    1.3346 H   0  0  0  0  0  0  0  0  0  0  0  0
    0.8634    1.8103    0.3104 H   0  0  0  0  0  0  0  0  0  0  0  0
    1.2839    0.3965    2.3121 H   0  0  0  0  0  0  0  0  0  0  0  0
   -0.1925   -0.6642    2.0158 H   0  0  0  0  0  0  0  0  0  0  0  0
  1  2  3  0
  2  3  1  0
  3  4  1  0
  4  5  1  0
  5  6  1  0
  6  7  1  0
  6  8  1  0
  8  9  1  0
  8  3  1  0
  9  3  1  0
  1 10  1  0
  4 11  1  0
  4 12  1  0
  5 13  1  0
  5 14  1  0
  6 15  1  0
  7 16  1  0
  7 17  1  0
  7 18  1  0
  8 19  1  0
  9 20  1  0
  9 21  1  0
M  END
