
     RDKit          3D

 19 18  0  0  0  0  0  0  0  0999 V2000
   -2.6886    1.4131    1.6325 C   0  0  0  0  0  0  0  0  0  0  0  0
   -1.8252    0.9939    0.7571 C   0  0  0  0  0  0  0  0  0  0  0  0
   -0.9009    0.5208   -0.1750 C   0  0  0  0  0  0  0  0  0  0  0  0
   -1.2828   -0.6837   -0.7619 O   0  0  0  0  0  0  0  0  0  0  0  0
   -1.4398   -0.4894   -2.1540 C   0  0  0  0  0  0  0  0  0  0  0  0
    0.4832    0.4364    0.3863 C   0  0  0  0  0  0  0  0  0  0  0  0
    0.9019    1.4392    0.9387 O   0  0  0  0  0  0  0  0  0  0  0  0
    1.3414   -0.7512    0.3135 C   0  0  0  0  0  0  0  0  0  0  0  0
    2.6557   -0.5178    1.0610 C   0  0  0  0  0  0  0  0  0  0  0  0
   -3.3972    1.7393    2.3321 H   0  0  0  0  0  0  0  0  0  0  0  0
   -0.7997    1.3117   -0.9976 H   0  0  0  0  0  0  0  0  0  0  0  0
   -0.4833   -0.1331   -2.5726 H   0  0  0  0  0  0  0  0  0  0  0  0
   -2.2443    0.2187   -2.3682 H   0  0  0  0  0  0  0  0  0  0  0  0
   -1.7337   -1.4663   -2.6214 H   0  0  0  0  0  0  0  0  0  0  0  0
    0.8478   -1.6095    0.8030 H   0  0  0  0  0  0  0  0  0  0  0  0
    1.5901   -1.0243   -0.7352 H   0  0  0  0  0  0  0  0  0  0  0  0
    3.1599   -1.4843    1.2859 H   0  0  0  0  0  0  0  0  0  0  0  0
    2.4820   -0.0068    2.0230 H   0  0  0  0  0  0  0  0  0  0  0  0
    3.3336    0.0932    0.4305 H   0  0  0  0  0  0  0  0  0  0  0  0
  1  2  3  0
  2  3  1  0
  3  4  1  0
  4  5  1  0
  3  6  1  0
  6  7  2  0
  6  8  1  0
  8  9  1  0
  1 10  1  0
  3 11  1  0
  5 12  1  0
  5 13  1  0
  5 14  1  0
  8 15  1  0
  8 16  1  0
  9 17  1  0
  9 18  1  0
  9 19  1  0
M  END
