
     RDKit          3D

 14 14  0  0  0  0  0  0  0  0999 V2000
    3.0850    0.7723   -0.6146 C   0  0  0  0  0  0  0  0  0  0  0  0
    1.9301    0.5778   -0.4533 C   0  0  0  0  0  0  0  0  0  0  0  0
    0.5179    0.3388   -0.2801 C   0  0  0  0  0  0  0  0  0  0  0  0
    0.2062   -1.0722    0.2239 C   0  0  0  0  0  0  0  0  0  0  0  0
   -1.0133   -0.7650   -0.5758 C   0  0  0  0  0  0  0  0  0  0  0  0
   -1.9533    0.1763    0.0839 C   0  0  0  0  0  0  0  0  0  0  0  0
   -2.6961    0.9406    0.6291 C   0  0  0  0  0  0  0  0  0  0  0  0
   -0.1619   -0.0381   -1.4477 O   0  0  0  0  0  0  0  0  0  0  0  0
    4.1327    0.9304   -0.7655 H   0  0  0  0  0  0  0  0  0  0  0  0
   -0.0362    1.0567    0.3664 H   0  0  0  0  0  0  0  0  0  0  0  0
    0.8000   -1.8718   -0.2460 H   0  0  0  0  0  0  0  0  0  0  0  0
    0.0390   -1.1320    1.3123 H   0  0  0  0  0  0  0  0  0  0  0  0
   -1.4909   -1.5605   -1.1390 H   0  0  0  0  0  0  0  0  0  0  0  0
   -3.3591    1.6468    1.1188 H   0  0  0  0  0  0  0  0  0  0  0  0
  1  2  3  0
  2  3  1  0
  3  4  1  0
  4  5  1  0
  5  6  1  0
  6  7  3  0
  5  8  1  0
  8  3  1  0
  1  9  1  0
  3 10  1  0
  4 11  1  0
  4 12  1  0
  5 13  1  0
  7 14  1  0
M  END
