
     RDKit          3D

 19 18  0  0  0  0  0  0  0  0999 V2000
   -0.1062    2.7945   -1.2843 C   0  0  0  0  0  0  0  0  0  0  0  0
   -0.1607    1.6374   -0.7583 C   0  0  0  0  0  0  0  0  0  0  0  0
   -0.2016    0.3973   -0.2124 C   0  0  0  0  0  0  0  0  0  0  0  0
   -1.1901   -0.5856   -0.8866 C   0  0  0  0  0  0  0  0  0  0  0  0
   -2.5426    0.0274   -0.6952 C   0  0  0  0  0  0  0  0  0  0  0  0
    1.0660   -0.2233   -0.0254 O   0  0  0  0  0  0  0  0  0  0  0  0
    1.5290   -0.6274    1.2132 C   0  0  0  0  0  0  0  0  0  0  0  0
    2.8180   -1.2987    1.3808 C   0  0  0  0  0  0  0  0  0  0  0  0
    0.7468   -0.3717    2.1773 O   0  0  0  0  0  0  0  0  0  0  0  0
   -0.0665    3.8076   -1.7371 H   0  0  0  0  0  0  0  0  0  0  0  0
   -0.6702    0.4088    0.8765 H   0  0  0  0  0  0  0  0  0  0  0  0
   -1.0220   -1.5993   -0.5120 H   0  0  0  0  0  0  0  0  0  0  0  0
   -0.9857   -0.5647   -1.9899 H   0  0  0  0  0  0  0  0  0  0  0  0
   -2.7773    0.6719   -1.5718 H   0  0  0  0  0  0  0  0  0  0  0  0
   -3.3636   -0.6967   -0.5656 H   0  0  0  0  0  0  0  0  0  0  0  0
   -2.5480    0.6301    0.2710 H   0  0  0  0  0  0  0  0  0  0  0  0
    3.3389   -1.4554    0.4230 H   0  0  0  0  0  0  0  0  0  0  0  0
    3.4558   -0.6490    2.0050 H   0  0  0  0  0  0  0  0  0  0  0  0
    2.6801   -2.3031    1.8918 H   0  0  0  0  0  0  0  0  0  0  0  0
  1  2  3  0
  2  3  1  0
  3  4  1  0
  4  5  1  0
  3  6  1  0
  6  7  1  0
  7  8  1  0
  7  9  2  0
  1 10  1  0
  3 11  1  0
  4 12  1  0
  4 13  1  0
  5 14  1  0
  5 15  1  0
  5 16  1  0
  8 17  1  0
  8 18  1  0
  8 19  1  0
M  END
