
     RDKit          3D

 21 21  0  0  0  0  0  0  0  0999 V2000
    2.2711    1.7246   -0.5119 C   0  0  0  0  0  0  0  0  0  0  0  0
    1.5027    1.2521    0.2480 C   0  0  0  0  0  0  0  0  0  0  0  0
    0.5849    0.6922    1.1859 C   0  0  0  0  0  0  0  0  0  0  0  0
    0.8108    1.2398    2.5085 O   0  0  0  0  0  0  0  0  0  0  0  0
   -0.8797    0.8691    0.9281 C   0  0  0  0  0  0  0  0  0  0  0  0
   -0.9874   -0.5891    0.6842 C   0  0  0  0  0  0  0  0  0  0  0  0
   -1.2590   -1.0841   -0.7023 C   0  0  0  0  0  0  0  0  0  0  0  0
   -0.2368   -0.7195   -1.7307 C   0  0  0  0  0  0  0  0  0  0  0  0
    0.3854   -0.7831    1.2373 C   0  0  0  0  0  0  0  0  0  0  0  0
    2.9942    2.1520   -1.2361 H   0  0  0  0  0  0  0  0  0  0  0  0
    1.1899    0.5249    3.0542 H   0  0  0  0  0  0  0  0  0  0  0  0
   -1.5033    1.2357    1.7857 H   0  0  0  0  0  0  0  0  0  0  0  0
   -1.0337    1.5217    0.0082 H   0  0  0  0  0  0  0  0  0  0  0  0
   -1.7027   -1.0358    1.4463 H   0  0  0  0  0  0  0  0  0  0  0  0
   -2.2145   -0.5816   -1.0471 H   0  0  0  0  0  0  0  0  0  0  0  0
   -1.4906   -2.1555   -0.7300 H   0  0  0  0  0  0  0  0  0  0  0  0
   -0.5143   -1.0841   -2.7456 H   0  0  0  0  0  0  0  0  0  0  0  0
   -0.1979    0.3788   -1.8089 H   0  0  0  0  0  0  0  0  0  0  0  0
    0.7435   -1.0843   -1.4129 H   0  0  0  0  0  0  0  0  0  0  0  0
    1.0950   -1.2976    0.5474 H   0  0  0  0  0  0  0  0  0  0  0  0
    0.4426   -1.1762    2.2886 H   0  0  0  0  0  0  0  0  0  0  0  0
  1  2  3  0
  2  3  1  0
  3  4  1  0
  3  5  1  0
  5  6  1  0
  6  7  1  0
  7  8  1  0
  6  9  1  0
  9  3  1  0
  1 10  1  0
  4 11  1  0
  5 12  1  0
  5 13  1  0
  6 14  1  0
  7 15  1  0
  7 16  1  0
  8 17  1  0
  8 18  1  0
  8 19  1  0
  9 20  1  0
  9 21  1  0
M  END
