
     RDKit          3D

 21 21  0  0  0  0  0  0  0  0999 V2000
    3.4832   -0.7226   -0.7209 C   0  0  0  0  0  0  0  0  0  0  0  0
    2.4306   -0.1391   -0.7969 C   0  0  0  0  0  0  0  0  0  0  0  0
    1.1310    0.5671   -0.8678 C   0  0  0  0  0  0  0  0  0  0  0  0
    0.7160    1.0277    0.5118 C   0  0  0  0  0  0  0  0  0  0  0  0
   -0.2660    0.1216    1.1727 C   0  0  0  0  0  0  0  0  0  0  0  0
   -1.2863   -0.4607    0.2397 C   0  0  0  0  0  0  0  0  0  0  0  0
   -2.6688   -0.2254    0.8016 C   0  0  0  0  0  0  0  0  0  0  0  0
   -1.1710    0.1004   -1.0495 O   0  0  0  0  0  0  0  0  0  0  0  0
    0.0981   -0.3069   -1.5104 C   0  0  0  0  0  0  0  0  0  0  0  0
    4.4050   -1.2449   -0.6382 H   0  0  0  0  0  0  0  0  0  0  0  0
    1.2963    1.4459   -1.5433 H   0  0  0  0  0  0  0  0  0  0  0  0
    1.6417    1.0344    1.1370 H   0  0  0  0  0  0  0  0  0  0  0  0
    0.3891    2.0754    0.4392 H   0  0  0  0  0  0  0  0  0  0  0  0
    0.2821   -0.7257    1.6431 H   0  0  0  0  0  0  0  0  0  0  0  0
   -0.7633    0.6844    1.9845 H   0  0  0  0  0  0  0  0  0  0  0  0
   -1.1658   -1.5557    0.0943 H   0  0  0  0  0  0  0  0  0  0  0  0
   -3.4583   -0.2588    0.0300 H   0  0  0  0  0  0  0  0  0  0  0  0
   -2.7126    0.7648    1.3207 H   0  0  0  0  0  0  0  0  0  0  0  0
   -2.8771   -1.0201    1.5473 H   0  0  0  0  0  0  0  0  0  0  0  0
    0.3103   -1.3539   -1.1986 H   0  0  0  0  0  0  0  0  0  0  0  0
    0.1857   -0.2098   -2.5963 H   0  0  0  0  0  0  0  0  0  0  0  0
  1  2  3  0
  2  3  1  0
  3  4  1  0
  4  5  1  0
  5  6  1  0
  6  7  1  0
  6  8  1  0
  8  9  1  0
  9  3  1  0
  1 10  1  0
  3 11  1  0
  4 12  1  0
  4 13  1  0
  5 14  1  0
  5 15  1  0
  6 16  1  0
  7 17  1  0
  7 18  1  0
  7 19  1  0
  9 20  1  0
  9 21  1  0
M  END
