
     RDKit          3D

 21 21  0  0  0  0  0  0  0  0999 V2000
    2.2967    1.6430    1.0363 C   0  0  0  0  0  0  0  0  0  0  0  0
    1.9510    0.4537    1.1518 C   0  0  0  0  0  0  0  0  0  0  0  0
    1.5640   -0.9441    1.2696 C   0  0  0  0  0  0  0  0  0  0  0  0
    0.1562   -1.0810    0.8088 C   0  0  0  0  0  0  0  0  0  0  0  0
   -0.0807   -0.6520   -0.6175 C   0  0  0  0  0  0  0  0  0  0  0  0
   -1.5527   -0.8643   -0.9819 C   0  0  0  0  0  0  0  0  0  0  0  0
   -1.5470    0.4882   -1.6702 C   0  0  0  0  0  0  0  0  0  0  0  0
   -0.3409    0.8332   -0.8156 C   0  0  0  0  0  0  0  0  0  0  0  0
   -0.8107    1.4480    0.3478 O   0  0  0  0  0  0  0  0  0  0  0  0
    2.5978    2.6404    0.9512 H   0  0  0  0  0  0  0  0  0  0  0  0
    1.6763   -1.3050    2.3246 H   0  0  0  0  0  0  0  0  0  0  0  0
    2.2396   -1.5460    0.6058 H   0  0  0  0  0  0  0  0  0  0  0  0
   -0.5772   -0.6159    1.5057 H   0  0  0  0  0  0  0  0  0  0  0  0
   -0.1058   -2.1845    0.8515 H   0  0  0  0  0  0  0  0  0  0  0  0
    0.5938   -1.1098   -1.3499 H   0  0  0  0  0  0  0  0  0  0  0  0
   -1.7546   -1.6535   -1.7190 H   0  0  0  0  0  0  0  0  0  0  0  0
   -2.2066   -0.8885   -0.0915 H   0  0  0  0  0  0  0  0  0  0  0  0
   -1.3870    0.5147   -2.7412 H   0  0  0  0  0  0  0  0  0  0  0  0
   -2.4719    1.0667   -1.3714 H   0  0  0  0  0  0  0  0  0  0  0  0
    0.4731    1.3304   -1.3536 H   0  0  0  0  0  0  0  0  0  0  0  0
   -0.7133    2.4262    0.1982 H   0  0  0  0  0  0  0  0  0  0  0  0
  1  2  3  0
  2  3  1  0
  3  4  1  0
  4  5  1  0
  5  6  1  0
  6  7  1  0
  7  8  1  0
  8  9  1  0
  8  5  1  0
  1 10  1  0
  3 11  1  0
  3 12  1  0
  4 13  1  0
  4 14  1  0
  5 15  1  0
  6 16  1  0
  6 17  1  0
  7 18  1  0
  7 19  1  0
  8 20  1  0
  9 21  1  0
M  END
