
     RDKit          3D

 17 17  0  0  0  0  0  0  0  0999 V2000
    4.7979    1.0399   -0.7389 C   0  0  0  0  0  0  0  0  0  0  0  0
    3.5984    0.9421   -0.6461 C   0  0  0  0  0  0  0  0  0  0  0  0
    2.1910    0.8047   -0.5274 C   0  0  0  0  0  0  0  0  0  0  0  0
    0.9921    0.7052   -0.4382 C   0  0  0  0  0  0  0  0  0  0  0  0
   -0.4766    0.5810   -0.3542 C   0  0  0  0  0  0  0  0  0  0  0  0
   -0.7819    0.0722    1.0376 C   0  0  0  0  0  0  0  0  0  0  0  0
   -1.7857   -1.0006    0.7800 C   0  0  0  0  0  0  0  0  0  0  0  0
   -2.0503   -0.9427   -0.7072 C   0  0  0  0  0  0  0  0  0  0  0  0
   -0.8947   -0.4186   -1.2307 O   0  0  0  0  0  0  0  0  0  0  0  0
    5.8663    1.1165   -0.8365 H   0  0  0  0  0  0  0  0  0  0  0  0
   -0.9876    1.5311   -0.5686 H   0  0  0  0  0  0  0  0  0  0  0  0
    0.1293   -0.2763    1.5700 H   0  0  0  0  0  0  0  0  0  0  0  0
   -1.2562    0.8898    1.6532 H   0  0  0  0  0  0  0  0  0  0  0  0
   -1.4544   -2.0123    1.0872 H   0  0  0  0  0  0  0  0  0  0  0  0
   -2.7597   -0.8049    1.2829 H   0  0  0  0  0  0  0  0  0  0  0  0
   -2.2392   -1.9723   -1.0891 H   0  0  0  0  0  0  0  0  0  0  0  0
   -2.8888   -0.2548   -0.9379 H   0  0  0  0  0  0  0  0  0  0  0  0
  1  2  3  0
  2  3  1  0
  3  4  3  0
  4  5  1  0
  5  6  1  0
  6  7  1  0
  7  8  1  0
  8  9  1  0
  9  5  1  0
  1 10  1  0
  5 11  1  0
  6 12  1  0
  6 13  1  0
  7 14  1  0
  7 15  1  0
  8 16  1  0
  8 17  1  0
M  END
