
     RDKit          3D

 20 20  0  0  0  0  0  0  0  0999 V2000
    2.7204    1.9297   -0.1769 C   0  0  0  0  0  0  0  0  0  0  0  0
    1.9128    1.1070   -0.5608 C   0  0  0  0  0  0  0  0  0  0  0  0
    0.9228    0.1277   -1.0084 C   0  0  0  0  0  0  0  0  0  0  0  0
    0.0038   -0.2901    0.1278 C   0  0  0  0  0  0  0  0  0  0  0  0
   -1.0365   -1.3069   -0.3034 C   0  0  0  0  0  0  0  0  0  0  0  0
   -1.8650   -0.6636   -1.3994 C   0  0  0  0  0  0  0  0  0  0  0  0
    0.5741   -0.3376    1.4836 C   0  0  0  0  0  0  0  0  0  0  0  0
   -0.4486    0.7424    1.0631 C   0  0  0  0  0  0  0  0  0  0  0  0
    3.4274    2.6538    0.1631 H   0  0  0  0  0  0  0  0  0  0  0  0
    1.5187   -0.7739   -1.3318 H   0  0  0  0  0  0  0  0  0  0  0  0
    0.3933    0.4859   -1.8888 H   0  0  0  0  0  0  0  0  0  0  0  0
   -1.6646   -1.5448    0.5517 H   0  0  0  0  0  0  0  0  0  0  0  0
   -0.5155   -2.1966   -0.6920 H   0  0  0  0  0  0  0  0  0  0  0  0
   -1.9253    0.4361   -1.1756 H   0  0  0  0  0  0  0  0  0  0  0  0
   -1.4170   -0.7528   -2.3889 H   0  0  0  0  0  0  0  0  0  0  0  0
   -2.9247   -1.0125   -1.3822 H   0  0  0  0  0  0  0  0  0  0  0  0
    0.1934   -1.1159    2.2025 H   0  0  0  0  0  0  0  0  0  0  0  0
    1.6096    0.0388    1.6154 H   0  0  0  0  0  0  0  0  0  0  0  0
   -0.0681    1.7762    0.9575 H   0  0  0  0  0  0  0  0  0  0  0  0
   -1.4110    0.6970    1.6077 H   0  0  0  0  0  0  0  0  0  0  0  0
  1  2  3  0
  2  3  1  0
  3  4  1  0
  4  5  1  0
  5  6  1  0
  4  7  1  0
  7  8  1  0
  8  4  1  0
  1  9  1  0
  3 10  1  0
  3 11  1  0
  5 12  1  0
  5 13  1  0
  6 14  1  0
  6 15  1  0
  6 16  1  0
  7 17  1  0
  7 18  1  0
  8 19  1  0
  8 20  1  0
M  END
