
     RDKit          3D

 12 11  0  0  0  0  0  0  0  0999 V2000
   -2.6745    0.6499    0.3167 C   0  0  0  0  0  0  0  0  0  0  0  0
   -1.6351   -0.1463    0.0771 C   0  0  0  0  0  0  0  0  0  0  0  0
   -0.1212   -1.3262   -0.2942 C   0  0  0  0  0  0  0  0  0  0  0  0
    0.5315   -0.1229    0.1921 C   0  0  0  0  0  0  0  0  0  0  0  0
    1.4735    0.3765   -0.2849 C   0  0  0  0  0  0  0  0  0  0  0  0
    2.7076    1.0115   -0.8967 C   0  0  0  0  0  0  0  0  0  0  0  0
   -3.4938    1.2613    0.4919 H   0  0  0  0  0  0  0  0  0  0  0  0
   -0.7433   -1.3235   -1.2715 H   0  0  0  0  0  0  0  0  0  0  0  0
   -0.6583   -1.9421    0.5526 H   0  0  0  0  0  0  0  0  0  0  0  0
   -0.2171    0.6444    0.8200 H   0  0  0  0  0  0  0  0  0  0  0  0
    0.9860   -0.6590    1.3230 H   0  0  0  0  0  0  0  0  0  0  0  0
    3.8446    1.5763   -1.4480 H   0  0  0  0  0  0  0  0  0  0  0  0
  1  2  3  0
  2  3  1  0
  3  4  1  0
  4  5  1  0
  5  6  3  0
  1  7  1  0
  3  8  1  0
  3  9  1  0
  4 10  1  0
  4 11  1  0
  6 12  1  0
M  END
