
     RDKit          3D

 19 21  0  0  0  0  0  0  0  0999 V2000
    2.2926   -2.0664    0.5004 C   0  0  0  0  0  0  0  0  0  0  0  0
    1.6335   -1.2269   -0.0048 C   0  0  0  0  0  0  0  0  0  0  0  0
    0.8169   -0.2150   -0.6403 C   0  0  0  0  0  0  0  0  0  0  0  0
    0.9864    1.1721   -0.0181 C   0  0  0  0  0  0  0  0  0  0  0  0
    0.3461    2.2477   -0.7958 C   0  0  0  0  0  0  0  0  0  0  0  0
   -0.5687    1.3447   -0.0741 C   0  0  0  0  0  0  0  0  0  0  0  0
   -0.5956   -0.1277   -0.2798 C   0  0  0  0  0  0  0  0  0  0  0  0
   -1.7059   -0.8950   -0.7781 C   0  0  0  0  0  0  0  0  0  0  0  0
   -1.3056   -0.9814    0.6628 C   0  0  0  0  0  0  0  0  0  0  0  0
    2.8807   -2.8452    0.9578 H   0  0  0  0  0  0  0  0  0  0  0  0
    0.9729   -0.1780   -1.7446 H   0  0  0  0  0  0  0  0  0  0  0  0
    1.3946    1.2784    0.9757 H   0  0  0  0  0  0  0  0  0  0  0  0
    0.3981    3.2828   -0.4322 H   0  0  0  0  0  0  0  0  0  0  0  0
    0.4937    2.1788   -1.9035 H   0  0  0  0  0  0  0  0  0  0  0  0
   -1.0510    1.7074    0.8353 H   0  0  0  0  0  0  0  0  0  0  0  0
   -2.6753   -0.4196   -1.0500 H   0  0  0  0  0  0  0  0  0  0  0  0
   -1.5210   -1.8375   -1.3436 H   0  0  0  0  0  0  0  0  0  0  0  0
   -0.7608   -1.8627    1.0479 H   0  0  0  0  0  0  0  0  0  0  0  0
   -2.0318   -0.5564    1.4013 H   0  0  0  0  0  0  0  0  0  0  0  0
  1  2  3  0
  2  3  1  0
  3  4  1  0
  4  5  1  0
  5  6  1  0
  6  7  1  0
  7  8  1  0
  8  9  1  0
  7  3  1  0
  6  4  1  0
  9  7  1  0
  1 10  1  0
  3 11  1  0
  4 12  1  0
  5 13  1  0
  5 14  1  0
  6 15  1  0
  8 16  1  0
  8 17  1  0
  9 18  1  0
  9 19  1  0
M  END
