
     RDKit          3D

 19 19  0  0  0  0  0  0  0  0999 V2000
    2.9537    1.3942    1.3421 C   0  0  0  0  0  0  0  0  0  0  0  0
    1.9315    1.0117    0.7588 C   0  0  0  0  0  0  0  0  0  0  0  0
    0.7619    0.5546    0.0678 C   0  0  0  0  0  0  0  0  0  0  0  0
    0.0162    1.0308   -0.8926 C   0  0  0  0  0  0  0  0  0  0  0  0
   -1.1181    0.0617   -1.1879 C   0  0  0  0  0  0  0  0  0  0  0  0
   -1.4462    0.1929   -2.5090 O   0  0  0  0  0  0  0  0  0  0  0  0
   -0.4298   -1.2613   -0.8725 C   0  0  0  0  0  0  0  0  0  0  0  0
    0.2121   -0.8192    0.4501 C   0  0  0  0  0  0  0  0  0  0  0  0
   -0.7908   -0.5963    1.5452 C   0  0  0  0  0  0  0  0  0  0  0  0
    3.8694    1.7186    1.8715 H   0  0  0  0  0  0  0  0  0  0  0  0
    0.2326    1.9718   -1.3680 H   0  0  0  0  0  0  0  0  0  0  0  0
   -1.9474    0.2829   -0.4717 H   0  0  0  0  0  0  0  0  0  0  0  0
   -1.5028    1.1461   -2.7371 H   0  0  0  0  0  0  0  0  0  0  0  0
    0.3254   -1.4357   -1.6598 H   0  0  0  0  0  0  0  0  0  0  0  0
   -1.1389   -2.0566   -0.7270 H   0  0  0  0  0  0  0  0  0  0  0  0
    1.0112   -1.4857    0.7240 H   0  0  0  0  0  0  0  0  0  0  0  0
   -0.5411    0.3753    2.0531 H   0  0  0  0  0  0  0  0  0  0  0  0
   -0.5665   -1.3910    2.3262 H   0  0  0  0  0  0  0  0  0  0  0  0
   -1.8322   -0.6948    1.2868 H   0  0  0  0  0  0  0  0  0  0  0  0
  1  2  3  0
  2  3  1  0
  3  4  2  0
  4  5  1  0
  5  6  1  0
  5  7  1  0
  7  8  1  0
  8  9  1  0
  8  3  1  0
  1 10  1  0
  4 11  1  0
  5 12  1  0
  6 13  1  0
  7 14  1  0
  7 15  1  0
  8 16  1  0
  9 17  1  0
  9 18  1  0
  9 19  1  0
M  END
