
     RDKit          3D

 15 15  0  0  0  0  0  0  0  0999 V2000
    2.7532   -0.9247   -0.1672 C   0  0  0  0  0  0  0  0  0  0  0  0
    1.6740   -0.4743   -0.5302 C   0  0  0  0  0  0  0  0  0  0  0  0
    0.3716    0.0489   -0.9481 C   0  0  0  0  0  0  0  0  0  0  0  0
   -0.1859   -0.8209   -1.8754 O   0  0  0  0  0  0  0  0  0  0  0  0
   -0.5458    0.2047    0.2601 C   0  0  0  0  0  0  0  0  0  0  0  0
   -1.7482    1.0113    0.0485 C   0  0  0  0  0  0  0  0  0  0  0  0
   -2.7395    1.6633   -0.1404 C   0  0  0  0  0  0  0  0  0  0  0  0
   -0.0419    0.0415    1.5801 C   0  0  0  0  0  0  0  0  0  0  0  0
   -0.7931   -1.0720    0.9512 O   0  0  0  0  0  0  0  0  0  0  0  0
    3.6954   -1.3020    0.1361 H   0  0  0  0  0  0  0  0  0  0  0  0
    0.5171    1.0241   -1.4278 H   0  0  0  0  0  0  0  0  0  0  0  0
    0.2993   -1.7022   -1.8413 H   0  0  0  0  0  0  0  0  0  0  0  0
   -3.6061    2.2242   -0.3214 H   0  0  0  0  0  0  0  0  0  0  0  0
    0.9546   -0.3430    1.8300 H   0  0  0  0  0  0  0  0  0  0  0  0
   -0.6044    0.4211    2.4458 H   0  0  0  0  0  0  0  0  0  0  0  0
  1  2  3  0
  2  3  1  0
  3  4  1  0
  3  5  1  0
  5  6  1  0
  6  7  3  0
  5  8  1  0
  8  9  1  0
  9  5  1  0
  1 10  1  0
  3 11  1  0
  4 12  1  0
  7 13  1  0
  8 14  1  0
  8 15  1  0
M  END
