
     RDKit          3D

 17 18  0  0  0  0  0  0  0  0999 V2000
    2.6408   -1.2682    0.5042 C   0  0  0  0  0  0  0  0  0  0  0  0
    1.5244   -0.9675    0.3009 C   0  0  0  0  0  0  0  0  0  0  0  0
    0.2129   -0.6385    0.0693 C   0  0  0  0  0  0  0  0  0  0  0  0
   -0.8492   -0.9451    1.1022 C   0  0  0  0  0  0  0  0  0  0  0  0
   -1.6451   -0.8860   -0.1640 C   0  0  0  0  0  0  0  0  0  0  0  0
   -1.5144    0.5550   -0.5521 C   0  0  0  0  0  0  0  0  0  0  0  0
   -0.1714    0.7129   -0.4080 C   0  0  0  0  0  0  0  0  0  0  0  0
    0.6544    1.9258   -0.6499 C   0  0  0  0  0  0  0  0  0  0  0  0
   -0.5464   -1.4524   -0.8043 O   0  0  0  0  0  0  0  0  0  0  0  0
    3.7314   -1.5541    0.7214 H   0  0  0  0  0  0  0  0  0  0  0  0
   -0.7498   -1.9442    1.5673 H   0  0  0  0  0  0  0  0  0  0  0  0
   -1.0312   -0.0907    1.7803 H   0  0  0  0  0  0  0  0  0  0  0  0
   -2.6054   -1.3621   -0.2469 H   0  0  0  0  0  0  0  0  0  0  0  0
   -2.2619    1.2687   -0.8599 H   0  0  0  0  0  0  0  0  0  0  0  0
    0.0161    2.8312   -0.7486 H   0  0  0  0  0  0  0  0  0  0  0  0
    1.0982    1.7787   -1.6646 H   0  0  0  0  0  0  0  0  0  0  0  0
    1.4966    2.0366    0.0529 H   0  0  0  0  0  0  0  0  0  0  0  0
  1  2  3  0
  2  3  1  0
  3  4  1  0
  4  5  1  0
  5  6  1  0
  6  7  2  0
  7  8  1  0
  5  9  1  0
  7  3  1  0
  9  3  1  0
  1 10  1  0
  4 11  1  0
  4 12  1  0
  5 13  1  0
  6 14  1  0
  8 15  1  0
  8 16  1  0
  8 17  1  0
M  END
