
     RDKit          3D

 13 13  0  0  0  0  0  0  0  0999 V2000
    5.0076   -0.9738   -1.1957 C   0  0  0  0  0  0  0  0  0  0  0  0
    3.8996   -0.7987   -0.8985 C   0  0  0  0  0  0  0  0  0  0  0  0
    2.5032   -0.5644   -0.5460 C   0  0  0  0  0  0  0  0  0  0  0  0
    1.3169   -0.3674   -0.2497 C   0  0  0  0  0  0  0  0  0  0  0  0
    0.2436   -0.1826    0.0051 C   0  0  0  0  0  0  0  0  0  0  0  0
   -1.0436    0.0192    0.3106 C   0  0  0  0  0  0  0  0  0  0  0  0
   -2.4592    0.2443    0.6707 C   0  0  0  0  0  0  0  0  0  0  0  0
   -3.0233    1.1594    1.5435 C   0  0  0  0  0  0  0  0  0  0  0  0
   -2.6527   -0.1618    2.0886 O   0  0  0  0  0  0  0  0  0  0  0  0
    6.0727   -1.1520   -1.4647 H   0  0  0  0  0  0  0  0  0  0  0  0
   -3.1615   -0.4659    0.1230 H   0  0  0  0  0  0  0  0  0  0  0  0
   -2.5321    1.9535    2.0747 H   0  0  0  0  0  0  0  0  0  0  0  0
   -4.1713    1.2901    1.4929 H   0  0  0  0  0  0  0  0  0  0  0  0
  1  2  3  0
  2  3  1  0
  3  4  3  0
  4  5  1  0
  5  6  3  0
  6  7  1  0
  7  8  1  0
  8  9  1  0
  9  7  1  0
  1 10  1  0
  7 11  1  0
  8 12  1  0
  8 13  1  0
M  END
