
     RDKit          3D

 19 20  0  0  0  0  0  0  0  0999 V2000
    3.2586   -0.2215    0.0661 C   0  0  0  0  0  0  0  0  0  0  0  0
    1.8537   -0.5455    0.1467 C   0  0  0  0  0  0  0  0  0  0  0  0
    0.5331   -0.8691    0.2371 C   0  0  0  0  0  0  0  0  0  0  0  0
    0.1108    0.0099    1.6395 C   0  0  0  0  0  0  0  0  0  0  0  0
   -1.0688    0.2528    1.3879 C   0  0  0  0  0  0  0  0  0  0  0  0
   -1.6828   -0.1798    0.2140 C   0  0  0  0  0  0  0  0  0  0  0  0
   -1.6363   -0.5092   -1.1732 C   0  0  0  0  0  0  0  0  0  0  0  0
   -0.3690   -0.1874   -0.6020 C   0  0  0  0  0  0  0  0  0  0  0  0
    0.1157    1.2514   -0.9530 C   0  0  0  0  0  0  0  0  0  0  0  0
    4.2712    0.0271   -0.0034 H   0  0  0  0  0  0  0  0  0  0  0  0
    0.3595   -1.8938    0.6100 H   0  0  0  0  0  0  0  0  0  0  0  0
    0.9734    0.0244    2.3231 H   0  0  0  0  0  0  0  0  0  0  0  0
   -1.6512    0.9295    2.1678 H   0  0  0  0  0  0  0  0  0  0  0  0
   -1.9755   -1.3326    0.6700 H   0  0  0  0  0  0  0  0  0  0  0  0
   -1.9926    0.0995   -1.9787 H   0  0  0  0  0  0  0  0  0  0  0  0
   -1.7142   -1.6004   -1.5105 H   0  0  0  0  0  0  0  0  0  0  0  0
    1.1955    1.2280   -1.0370 H   0  0  0  0  0  0  0  0  0  0  0  0
   -0.2259    2.0042   -0.2403 H   0  0  0  0  0  0  0  0  0  0  0  0
   -0.3553    1.5125   -1.9639 H   0  0  0  0  0  0  0  0  0  0  0  0
  1  2  3  0
  2  3  1  0
  3  4  1  0
  4  5  2  0
  5  6  1  0
  6  7  1  0
  7  8  1  0
  8  9  1  0
  8  3  1  0
  8  6  1  0
  1 10  1  0
  3 11  1  0
  4 12  1  0
  5 13  1  0
  6 14  1  0
  7 15  1  0
  7 16  1  0
  9 17  1  0
  9 18  1  0
  9 19  1  0
M  END
