
     RDKit          3D

 19 20  0  0  0  0  0  0  0  0999 V2000
    3.8398   -0.0973   -1.3606 C   0  0  0  0  0  0  0  0  0  0  0  0
    2.6222   -0.1683   -1.3111 C   0  0  0  0  0  0  0  0  0  0  0  0
    1.1591   -0.2462   -1.2691 C   0  0  0  0  0  0  0  0  0  0  0  0
    0.6131    0.4413   -0.0130 C   0  0  0  0  0  0  0  0  0  0  0  0
   -0.8975    0.3057   -0.0653 C   0  0  0  0  0  0  0  0  0  0  0  0
   -1.6358    0.9186    1.0848 C   0  0  0  0  0  0  0  0  0  0  0  0
   -2.3497   -0.3592    1.3694 C   0  0  0  0  0  0  0  0  0  0  0  0
   -2.7641   -1.1925    0.3380 O   0  0  0  0  0  0  0  0  0  0  0  0
   -1.4029   -1.0494    0.3871 C   0  0  0  0  0  0  0  0  0  0  0  0
    4.8985   -0.0197   -1.4133 H   0  0  0  0  0  0  0  0  0  0  0  0
    0.7716    0.2767   -2.1664 H   0  0  0  0  0  0  0  0  0  0  0  0
    0.8580   -1.3174   -1.2673 H   0  0  0  0  0  0  0  0  0  0  0  0
    0.8669    1.5202   -0.0811 H   0  0  0  0  0  0  0  0  0  0  0  0
    1.0508    0.0261    0.8942 H   0  0  0  0  0  0  0  0  0  0  0  0
   -1.2697    0.5421   -1.0747 H   0  0  0  0  0  0  0  0  0  0  0  0
   -0.9283    1.1550    1.9183 H   0  0  0  0  0  0  0  0  0  0  0  0
   -2.2603    1.7897    0.8094 H   0  0  0  0  0  0  0  0  0  0  0  0
   -2.4320   -0.7576    2.3877 H   0  0  0  0  0  0  0  0  0  0  0  0
   -0.7397   -1.7675    0.8571 H   0  0  0  0  0  0  0  0  0  0  0  0
  1  2  3  0
  2  3  1  0
  3  4  1  0
  4  5  1  0
  5  6  1  0
  6  7  1  0
  7  8  1  0
  8  9  1  0
  9  5  1  0
  9  7  1  0
  1 10  1  0
  3 11  1  0
  3 12  1  0
  4 13  1  0
  4 14  1  0
  5 15  1  0
  6 16  1  0
  6 17  1  0
  7 18  1  0
  9 19  1  0
M  END
