
     RDKit          3D

 19 19  0  0  0  0  0  0  0  0999 V2000
    4.0936    1.4119    1.7455 C   0  0  0  0  0  0  0  0  0  0  0  0
    3.5403    0.3294    1.6223 C   0  0  0  0  0  0  0  0  0  0  0  0
    2.8631   -0.9633    1.4954 C   0  0  0  0  0  0  0  0  0  0  0  0
    1.4520   -0.6994    1.2092 C   0  0  0  0  0  0  0  0  0  0  0  0
    0.2761   -0.4728    0.9624 C   0  0  0  0  0  0  0  0  0  0  0  0
   -1.1356   -0.2103    0.6871 C   0  0  0  0  0  0  0  0  0  0  0  0
   -1.8052   -1.1733   -0.3332 C   0  0  0  0  0  0  0  0  0  0  0  0
   -1.5326    0.2983   -0.6376 C   0  0  0  0  0  0  0  0  0  0  0  0
   -2.7915    1.1074   -0.8268 C   0  0  0  0  0  0  0  0  0  0  0  0
    4.5620    2.3558    1.8586 H   0  0  0  0  0  0  0  0  0  0  0  0
    3.3316   -1.5883    0.7044 H   0  0  0  0  0  0  0  0  0  0  0  0
    2.9159   -1.5119    2.4615 H   0  0  0  0  0  0  0  0  0  0  0  0
   -1.7319    0.0325    1.5937 H   0  0  0  0  0  0  0  0  0  0  0  0
   -1.1333   -1.8655   -0.8619 H   0  0  0  0  0  0  0  0  0  0  0  0
   -2.8208   -1.4948   -0.1211 H   0  0  0  0  0  0  0  0  0  0  0  0
   -0.7134    0.5466   -1.3391 H   0  0  0  0  0  0  0  0  0  0  0  0
   -3.0620    1.0357   -1.9033 H   0  0  0  0  0  0  0  0  0  0  0  0
   -2.6655    2.1656   -0.5497 H   0  0  0  0  0  0  0  0  0  0  0  0
   -3.6428    0.6964   -0.2460 H   0  0  0  0  0  0  0  0  0  0  0  0
  1  2  3  0
  2  3  1  0
  3  4  1  0
  4  5  3  0
  5  6  1  0
  6  7  1  0
  7  8  1  0
  8  9  1  0
  8  6  1  0
  1 10  1  0
  3 11  1  0
  3 12  1  0
  6 13  1  0
  7 14  1  0
  7 15  1  0
  8 16  1  0
  9 17  1  0
  9 18  1  0
  9 19  1  0
M  END
