
     RDKit          3D

 17 19  0  0  0  0  0  0  0  0999 V2000
    2.2628    1.5418    0.2175 C   0  0  0  0  0  0  0  0  0  0  0  0
    1.1861    1.0271    0.2575 C   0  0  0  0  0  0  0  0  0  0  0  0
   -0.0422    0.4316    0.3236 C   0  0  0  0  0  0  0  0  0  0  0  0
   -0.0785   -1.2300    0.2601 C   0  0  0  0  0  0  0  0  0  0  0  0
   -0.0627   -1.3090   -1.0508 C   0  0  0  0  0  0  0  0  0  0  0  0
   -0.1020    0.0678   -1.5933 C   0  0  0  0  0  0  0  0  0  0  0  0
   -1.1972    0.5602   -0.5474 C   0  0  0  0  0  0  0  0  0  0  0  0
   -1.1540    0.2980    0.9580 C   0  0  0  0  0  0  0  0  0  0  0  0
   -0.1778   -0.7996    1.6719 C   0  0  0  0  0  0  0  0  0  0  0  0
    3.2330    1.9952    0.1978 H   0  0  0  0  0  0  0  0  0  0  0  0
   -0.0269   -2.2418   -1.6292 H   0  0  0  0  0  0  0  0  0  0  0  0
    0.7798    0.6583   -1.5986 H   0  0  0  0  0  0  0  0  0  0  0  0
   -0.5796    0.1580   -2.5706 H   0  0  0  0  0  0  0  0  0  0  0  0
   -2.0015   -0.1482   -0.7844 H   0  0  0  0  0  0  0  0  0  0  0  0
   -1.9721    0.6360    1.5128 H   0  0  0  0  0  0  0  0  0  0  0  0
    0.6960   -0.2522    2.0134 H   0  0  0  0  0  0  0  0  0  0  0  0
   -0.7632   -1.3932    2.3615 H   0  0  0  0  0  0  0  0  0  0  0  0
  1  2  3  0
  2  3  1  0
  3  4  1  0
  4  5  2  0
  5  6  1  0
  6  7  1  0
  7  8  1  0
  8  9  1  0
  7  3  1  0
  8  3  1  0
  9  4  1  0
  1 10  1  0
  5 11  1  0
  6 12  1  0
  6 13  1  0
  7 14  1  0
  8 15  1  0
  9 16  1  0
  9 17  1  0
M  END
