
     RDKit          3D

 16 16  0  0  0  0  0  0  0  0999 V2000
    2.2532   -1.5870    1.2217 C   0  0  0  0  0  0  0  0  0  0  0  0
    1.0868   -1.4972    0.7796 C   0  0  0  0  0  0  0  0  0  0  0  0
   -0.6022   -1.3601    0.1297 C   0  0  0  0  0  0  0  0  0  0  0  0
   -0.6857   -2.6050    0.1307 O   0  0  0  0  0  0  0  0  0  0  0  0
   -0.4288   -0.0133    0.1566 C   0  0  0  0  0  0  0  0  0  0  0  0
   -1.6242    0.7992    0.7727 C   0  0  0  0  0  0  0  0  0  0  0  0
    0.8245    0.7782   -0.2005 C   0  0  0  0  0  0  0  0  0  0  0  0
   -0.2066    0.6517   -1.2782 C   0  0  0  0  0  0  0  0  0  0  0  0
    3.2872   -1.6486    1.6119 H   0  0  0  0  0  0  0  0  0  0  0  0
   -1.2638    1.8327    0.7518 H   0  0  0  0  0  0  0  0  0  0  0  0
   -2.4804    0.7874    0.0486 H   0  0  0  0  0  0  0  0  0  0  0  0
   -1.9036    0.3844    1.7390 H   0  0  0  0  0  0  0  0  0  0  0  0
    0.9641    1.8037    0.1615 H   0  0  0  0  0  0  0  0  0  0  0  0
    1.7579    0.2024   -0.5250 H   0  0  0  0  0  0  0  0  0  0  0  0
   -0.8767    1.5354   -1.4785 H   0  0  0  0  0  0  0  0  0  0  0  0
   -0.1017   -0.0639   -2.0893 H   0  0  0  0  0  0  0  0  0  0  0  0
  1  2  3  0
  2  3  1  0
  3  4  2  0
  3  5  1  0
  5  6  1  0
  5  7  1  0
  7  8  1  0
  8  5  1  0
  1  9  1  0
  6 10  1  0
  6 11  1  0
  6 12  1  0
  7 13  1  0
  7 14  1  0
  8 15  1  0
  8 16  1  0
M  END
