
     RDKit          3D

 19 19  0  0  0  0  0  0  0  0999 V2000
   -1.7888    2.1927    0.6309 C   0  0  0  0  0  0  0  0  0  0  0  0
   -1.2211    1.2956    0.3657 C   0  0  0  0  0  0  0  0  0  0  0  0
   -0.4122    0.0594   -0.0186 C   0  0  0  0  0  0  0  0  0  0  0  0
    0.7159   -0.0040    0.9120 C   0  0  0  0  0  0  0  0  0  0  0  0
    1.7962   -0.9266    1.0024 C   0  0  0  0  0  0  0  0  0  0  0  0
   -1.1158   -0.8453   -0.8812 C   0  0  0  0  0  0  0  0  0  0  0  0
   -0.8777   -2.2345   -0.8229 O   0  0  0  0  0  0  0  0  0  0  0  0
   -0.0686    0.0211   -1.4858 C   0  0  0  0  0  0  0  0  0  0  0  0
   -0.2140    1.1842   -2.1735 O   0  0  0  0  0  0  0  0  0  0  0  0
   -2.4989    3.3469    0.9648 H   0  0  0  0  0  0  0  0  0  0  0  0
    0.2992    0.1244    2.0142 H   0  0  0  0  0  0  0  0  0  0  0  0
    1.1977    1.0878    0.8315 H   0  0  0  0  0  0  0  0  0  0  0  0
    1.8295   -1.8038    0.2915 H   0  0  0  0  0  0  0  0  0  0  0  0
    1.9800   -1.3175    2.0614 H   0  0  0  0  0  0  0  0  0  0  0  0
    2.7899   -0.4126    0.7737 H   0  0  0  0  0  0  0  0  0  0  0  0
   -2.1952   -0.6585   -1.1205 H   0  0  0  0  0  0  0  0  0  0  0  0
   -0.3844   -2.4738   -0.0248 H   0  0  0  0  0  0  0  0  0  0  0  0
    0.9314   -0.4808   -1.7130 H   0  0  0  0  0  0  0  0  0  0  0  0
   -0.7634    1.8455   -1.6076 H   0  0  0  0  0  0  0  0  0  0  0  0
  1  2  3  0
  2  3  1  0
  3  4  1  0
  4  5  1  0
  3  6  1  0
  6  7  1  0
  6  8  1  0
  8  9  1  0
  8  3  1  0
  1 10  1  0
  4 11  1  0
  4 12  1  0
  5 13  1  0
  5 14  1  0
  5 15  1  0
  6 16  1  0
  7 17  1  0
  8 18  1  0
  9 19  1  0
M  END
