
     RDKit          3D

 21 20  0  0  0  0  0  0  0  0999 V2000
   -2.7591   -2.5589   -0.1708 C   0  0  0  0  0  0  0  0  0  0  0  0
   -2.1219   -1.5609    0.0612 C   0  0  0  0  0  0  0  0  0  0  0  0
   -1.3425   -0.3342    0.3526 C   0  0  0  0  0  0  0  0  0  0  0  0
    0.1118   -0.7235    0.2368 C   0  0  0  0  0  0  0  0  0  0  0  0
    0.9681    0.3475    0.3968 O   0  0  0  0  0  0  0  0  0  0  0  0
    2.2731   -0.1522    0.2666 C   0  0  0  0  0  0  0  0  0  0  0  0
    3.3114    0.9142    0.4199 C   0  0  0  0  0  0  0  0  0  0  0  0
   -1.7211    0.5987   -0.5912 O   0  0  0  0  0  0  0  0  0  0  0  0
   -2.3378    1.6700    0.0522 C   0  0  0  0  0  0  0  0  0  0  0  0
   -3.3217   -3.4367   -0.3860 H   0  0  0  0  0  0  0  0  0  0  0  0
   -1.6206    0.0033    1.3505 H   0  0  0  0  0  0  0  0  0  0  0  0
    0.2908   -1.5549    0.9332 H   0  0  0  0  0  0  0  0  0  0  0  0
    0.2605   -1.1226   -0.7946 H   0  0  0  0  0  0  0  0  0  0  0  0
    2.4199   -0.8832    1.1114 H   0  0  0  0  0  0  0  0  0  0  0  0
    2.3482   -0.6797   -0.6924 H   0  0  0  0  0  0  0  0  0  0  0  0
    3.7854    0.8850    1.4233 H   0  0  0  0  0  0  0  0  0  0  0  0
    2.9087    1.9358    0.2426 H   0  0  0  0  0  0  0  0  0  0  0  0
    4.1278    0.6857   -0.3190 H   0  0  0  0  0  0  0  0  0  0  0  0
   -1.6445    2.1581    0.7850 H   0  0  0  0  0  0  0  0  0  0  0  0
   -3.2879    1.3607    0.5594 H   0  0  0  0  0  0  0  0  0  0  0  0
   -2.6485    2.4478   -0.6887 H   0  0  0  0  0  0  0  0  0  0  0  0
  1  2  3  0
  2  3  1  0
  3  4  1  0
  4  5  1  0
  5  6  1  0
  6  7  1  0
  3  8  1  0
  8  9  1  0
  1 10  1  0
  3 11  1  0
  4 12  1  0
  4 13  1  0
  6 14  1  0
  6 15  1  0
  7 16  1  0
  7 17  1  0
  7 18  1  0
  9 19  1  0
  9 20  1  0
  9 21  1  0
M  END
