
     RDKit          3D

 19 20  0  0  0  0  0  0  0  0999 V2000
    2.3454   -0.8089    0.2580 C   0  0  0  0  0  0  0  0  0  0  0  0
    1.4618   -0.2741   -0.2926 C   0  0  0  0  0  0  0  0  0  0  0  0
    0.4124    0.3842   -0.9432 C   0  0  0  0  0  0  0  0  0  0  0  0
    0.8781    0.9831   -2.3002 C   0  0  0  0  0  0  0  0  0  0  0  0
    0.0509    1.5940   -0.1318 O   0  0  0  0  0  0  0  0  0  0  0  0
   -0.9608    0.6210   -0.6134 C   0  0  0  0  0  0  0  0  0  0  0  0
   -1.5866   -0.0924    0.5622 C   0  0  0  0  0  0  0  0  0  0  0  0
   -0.7673   -0.1424    1.8264 C   0  0  0  0  0  0  0  0  0  0  0  0
   -0.9900   -1.3856    1.0188 C   0  0  0  0  0  0  0  0  0  0  0  0
    3.2594   -1.3857    0.8266 H   0  0  0  0  0  0  0  0  0  0  0  0
    1.9298    1.3282   -2.0983 H   0  0  0  0  0  0  0  0  0  0  0  0
    0.2269    1.7314   -2.6990 H   0  0  0  0  0  0  0  0  0  0  0  0
    1.0433    0.0934   -2.9728 H   0  0  0  0  0  0  0  0  0  0  0  0
   -1.6615    1.1004   -1.3133 H   0  0  0  0  0  0  0  0  0  0  0  0
   -2.6460    0.1613    0.7358 H   0  0  0  0  0  0  0  0  0  0  0  0
   -1.2780   -0.1491    2.7856 H   0  0  0  0  0  0  0  0  0  0  0  0
    0.2430    0.2871    1.8194 H   0  0  0  0  0  0  0  0  0  0  0  0
   -0.2060   -1.9082    0.5037 H   0  0  0  0  0  0  0  0  0  0  0  0
   -1.7548   -2.1379    1.4334 H   0  0  0  0  0  0  0  0  0  0  0  0
  1  2  3  0
  2  3  1  0
  3  4  1  0
  3  5  1  0
  5  6  1  0
  6  7  1  0
  7  8  1  0
  8  9  1  0
  6  3  1  0
  9  7  1  0
  1 10  1  0
  4 11  1  0
  4 12  1  0
  4 13  1  0
  6 14  1  0
  7 15  1  0
  8 16  1  0
  8 17  1  0
  9 18  1  0
  9 19  1  0
M  END
