
     RDKit          3D

 19 18  0  0  0  0  0  0  0  0999 V2000
   -1.8229   -2.3070    2.1960 C   0  0  0  0  0  0  0  0  0  0  0  0
   -1.9833   -1.7328    1.3758 C   0  0  0  0  0  0  0  0  0  0  0  0
   -2.2060   -0.9096    0.2082 C   0  0  0  0  0  0  0  0  0  0  0  0
   -0.7862   -0.3228   -0.0541 C   0  0  0  0  0  0  0  0  0  0  0  0
   -0.6401    0.5447   -1.1994 C   0  0  0  0  0  0  0  0  0  0  0  0
    0.8049    1.0144   -1.3257 C   0  0  0  0  0  0  0  0  0  0  0  0
    1.0818    1.7005   -2.3367 O   0  0  0  0  0  0  0  0  0  0  0  0
    1.7964    0.7417   -0.4167 O   0  0  0  0  0  0  0  0  0  0  0  0
    3.1045    1.2785   -0.7403 C   0  0  0  0  0  0  0  0  0  0  0  0
   -1.5899   -3.0585    3.2881 H   0  0  0  0  0  0  0  0  0  0  0  0
   -2.4407   -1.5557   -0.6864 H   0  0  0  0  0  0  0  0  0  0  0  0
   -2.9541   -0.1141    0.3213 H   0  0  0  0  0  0  0  0  0  0  0  0
   -0.1049   -1.2514   -0.1218 H   0  0  0  0  0  0  0  0  0  0  0  0
   -0.4670    0.1597    0.9244 H   0  0  0  0  0  0  0  0  0  0  0  0
   -0.9605    0.1131   -2.1500 H   0  0  0  0  0  0  0  0  0  0  0  0
   -1.2130    1.5098   -1.0439 H   0  0  0  0  0  0  0  0  0  0  0  0
    3.2044    2.3409   -0.4686 H   0  0  0  0  0  0  0  0  0  0  0  0
    3.2572    1.1410   -1.8453 H   0  0  0  0  0  0  0  0  0  0  0  0
    3.9191    0.7077   -0.2599 H   0  0  0  0  0  0  0  0  0  0  0  0
  1  2  3  0
  2  3  1  0
  3  4  1  0
  4  5  1  0
  5  6  1  0
  6  7  2  0
  6  8  1  0
  8  9  1  0
  1 10  1  0
  3 11  1  0
  3 12  1  0
  4 13  1  0
  4 14  1  0
  5 15  1  0
  5 16  1  0
  9 17  1  0
  9 18  1  0
  9 19  1  0
M  END
