
     RDKit          3D

 19 18  0  0  0  0  0  0  0  0999 V2000
    1.2936    0.0365    2.2759 C   0  0  0  0  0  0  0  0  0  0  0  0
    0.4450   -0.0550    1.1872 C   0  0  0  0  0  0  0  0  0  0  0  0
   -0.3629   -0.1622    0.1402 C   0  0  0  0  0  0  0  0  0  0  0  0
   -1.5725    0.6341    0.1463 C   0  0  0  0  0  0  0  0  0  0  0  0
   -0.4467   -1.6180   -0.3109 C   0  0  0  0  0  0  0  0  0  0  0  0
   -0.9226   -2.5082    0.5633 O   0  0  0  0  0  0  0  0  0  0  0  0
    0.5096    0.4318   -1.0742 C   0  0  0  0  0  0  0  0  0  0  0  0
    0.9511    1.8098   -0.8667 C   0  0  0  0  0  0  0  0  0  0  0  0
    1.7777    2.1895   -1.7709 O   0  0  0  0  0  0  0  0  0  0  0  0
    2.0085    0.1342    3.1924 H   0  0  0  0  0  0  0  0  0  0  0  0
   -2.1161    0.5238   -0.8589 H   0  0  0  0  0  0  0  0  0  0  0  0
   -1.2160    1.7666   -0.0096 H   0  0  0  0  0  0  0  0  0  0  0  0
   -2.2556    0.6940    0.9765 H   0  0  0  0  0  0  0  0  0  0  0  0
    0.7389   -1.8527   -0.3898 H   0  0  0  0  0  0  0  0  0  0  0  0
   -0.6683   -1.6182   -1.3711 H   0  0  0  0  0  0  0  0  0  0  0  0
   -0.2250   -2.7799    1.2292 H   0  0  0  0  0  0  0  0  0  0  0  0
    0.0238    0.1999   -2.0018 H   0  0  0  0  0  0  0  0  0  0  0  0
    1.3966   -0.2470   -0.9788 H   0  0  0  0  0  0  0  0  0  0  0  0
    0.6410    2.4209   -0.0780 H   0  0  0  0  0  0  0  0  0  0  0  0
  1  2  3  0
  2  3  1  0
  3  4  1  0
  3  5  1  0
  5  6  1  0
  3  7  1  0
  7  8  1  0
  8  9  2  0
  1 10  1  0
  4 11  1  0
  4 12  1  0
  4 13  1  0
  5 14  1  0
  5 15  1  0
  6 16  1  0
  7 17  1  0
  7 18  1  0
  8 19  1  0
M  END
