
     RDKit          3D

 21 21  0  0  0  0  0  0  0  0999 V2000
   -2.8141   -1.4976    0.4209 C   0  0  0  0  0  0  0  0  0  0  0  0
   -1.6427   -1.1628    0.5451 C   0  0  0  0  0  0  0  0  0  0  0  0
   -0.2488   -0.7510    0.7155 C   0  0  0  0  0  0  0  0  0  0  0  0
    0.5659   -1.2969   -0.4527 C   0  0  0  0  0  0  0  0  0  0  0  0
    1.6319   -0.2487   -0.6838 C   0  0  0  0  0  0  0  0  0  0  0  0
    2.7790   -0.6732   -0.0039 O   0  0  0  0  0  0  0  0  0  0  0  0
    1.0968    1.0503   -0.1444 C   0  0  0  0  0  0  0  0  0  0  0  0
   -0.1691    0.7350    0.6102 C   0  0  0  0  0  0  0  0  0  0  0  0
   -1.3837    1.3667   -0.0161 C   0  0  0  0  0  0  0  0  0  0  0  0
   -3.8267   -1.7832    0.2957 H   0  0  0  0  0  0  0  0  0  0  0  0
    0.1747   -1.1037    1.6795 H   0  0  0  0  0  0  0  0  0  0  0  0
    0.9767   -2.2715   -0.1633 H   0  0  0  0  0  0  0  0  0  0  0  0
   -0.0888   -1.3797   -1.3284 H   0  0  0  0  0  0  0  0  0  0  0  0
    1.8078   -0.1709   -1.7806 H   0  0  0  0  0  0  0  0  0  0  0  0
    3.3714    0.0705    0.2052 H   0  0  0  0  0  0  0  0  0  0  0  0
    0.9535    1.8208   -0.9306 H   0  0  0  0  0  0  0  0  0  0  0  0
    1.8881    1.4635    0.5317 H   0  0  0  0  0  0  0  0  0  0  0  0
   -0.0642    1.1917    1.6276 H   0  0  0  0  0  0  0  0  0  0  0  0
   -1.1042    2.4370   -0.2298 H   0  0  0  0  0  0  0  0  0  0  0  0
   -2.2135    1.3464    0.7233 H   0  0  0  0  0  0  0  0  0  0  0  0
   -1.6901    0.8573   -0.9509 H   0  0  0  0  0  0  0  0  0  0  0  0
  1  2  3  0
  2  3  1  0
  3  4  1  0
  4  5  1  0
  5  6  1  0
  5  7  1  0
  7  8  1  0
  8  9  1  0
  8  3  1  0
  1 10  1  0
  3 11  1  0
  4 12  1  0
  4 13  1  0
  5 14  1  0
  6 15  1  0
  7 16  1  0
  7 17  1  0
  8 18  1  0
  9 19  1  0
  9 20  1  0
  9 21  1  0
M  END
