
     RDKit          3D

 21 22  0  0  0  0  0  0  0  0999 V2000
   -0.2721    2.8851    0.9471 C   0  0  0  0  0  0  0  0  0  0  0  0
   -0.3376    1.7357    0.6392 C   0  0  0  0  0  0  0  0  0  0  0  0
   -0.4307    0.3192    0.2384 C   0  0  0  0  0  0  0  0  0  0  0  0
   -1.8077   -0.2610    0.2439 C   0  0  0  0  0  0  0  0  0  0  0  0
   -1.8596   -1.6982   -0.1678 C   0  0  0  0  0  0  0  0  0  0  0  0
    0.7092   -0.5540    0.5389 C   0  0  0  0  0  0  0  0  0  0  0  0
    2.1315   -0.1192    0.3489 C   0  0  0  0  0  0  0  0  0  0  0  0
    1.7901    0.6277   -0.9251 C   0  0  0  0  0  0  0  0  0  0  0  0
    0.4368   -0.0581   -0.8905 C   0  0  0  0  0  0  0  0  0  0  0  0
   -0.2068    3.9184    1.2395 H   0  0  0  0  0  0  0  0  0  0  0  0
   -2.2799   -0.0653    1.2048 H   0  0  0  0  0  0  0  0  0  0  0  0
   -2.4022    0.3164   -0.5244 H   0  0  0  0  0  0  0  0  0  0  0  0
   -1.4711   -1.8716   -1.1727 H   0  0  0  0  0  0  0  0  0  0  0  0
   -2.9387   -2.0123   -0.0827 H   0  0  0  0  0  0  0  0  0  0  0  0
   -1.3188   -2.3706    0.5268 H   0  0  0  0  0  0  0  0  0  0  0  0
    0.5524   -1.6052    0.7749 H   0  0  0  0  0  0  0  0  0  0  0  0
    2.8463   -0.9406    0.1004 H   0  0  0  0  0  0  0  0  0  0  0  0
    2.5654    0.4922    1.1578 H   0  0  0  0  0  0  0  0  0  0  0  0
    2.3543    0.3267   -1.8182 H   0  0  0  0  0  0  0  0  0  0  0  0
    1.7628    1.7133   -0.7165 H   0  0  0  0  0  0  0  0  0  0  0  0
    0.1765   -0.7787   -1.6625 H   0  0  0  0  0  0  0  0  0  0  0  0
  1  2  3  0
  2  3  1  0
  3  4  1  0
  4  5  1  0
  3  6  1  0
  6  7  1  0
  7  8  1  0
  8  9  1  0
  9  3  1  0
  9  6  1  0
  1 10  1  0
  4 11  1  0
  4 12  1  0
  5 13  1  0
  5 14  1  0
  5 15  1  0
  6 16  1  0
  7 17  1  0
  7 18  1  0
  8 19  1  0
  8 20  1  0
  9 21  1  0
M  END
