
     RDKit          3D

 15 15  0  0  0  0  0  0  0  0999 V2000
    3.2641    0.0665    1.3111 C   0  0  0  0  0  0  0  0  0  0  0  0
    2.1191    0.0500    0.9302 C   0  0  0  0  0  0  0  0  0  0  0  0
    0.7591    0.0214    0.4571 C   0  0  0  0  0  0  0  0  0  0  0  0
    0.4063   -0.5410   -0.6863 C   0  0  0  0  0  0  0  0  0  0  0  0
   -1.0545   -0.4145   -0.9060 C   0  0  0  0  0  0  0  0  0  0  0  0
   -1.3620    0.6498   -1.7368 O   0  0  0  0  0  0  0  0  0  0  0  0
   -1.5574   -0.2176    0.4799 C   0  0  0  0  0  0  0  0  0  0  0  0
   -2.5886   -0.6194    0.9318 O   0  0  0  0  0  0  0  0  0  0  0  0
   -0.4608    0.5921    1.1346 C   0  0  0  0  0  0  0  0  0  0  0  0
    4.2824    0.0922    1.6586 H   0  0  0  0  0  0  0  0  0  0  0  0
    1.0478   -1.0473   -1.4191 H   0  0  0  0  0  0  0  0  0  0  0  0
   -1.4228   -1.3837   -1.2862 H   0  0  0  0  0  0  0  0  0  0  0  0
   -2.3447    0.7719   -1.7352 H   0  0  0  0  0  0  0  0  0  0  0  0
   -0.4934    0.3285    2.1948 H   0  0  0  0  0  0  0  0  0  0  0  0
   -0.5945    1.6509    0.9254 H   0  0  0  0  0  0  0  0  0  0  0  0
  1  2  3  0
  2  3  1  0
  3  4  2  0
  4  5  1  0
  5  6  1  0
  5  7  1  0
  7  8  2  0
  7  9  1  0
  9  3  1  0
  1 10  1  0
  4 11  1  0
  5 12  1  0
  6 13  1  0
  9 14  1  0
  9 15  1  0
M  END
