
     RDKit          3D

 16 15  0  0  0  0  0  0  0  0999 V2000
    3.0456    0.5559   -0.5866 C   0  0  0  0  0  0  0  0  0  0  0  0
    2.1923   -0.2350   -0.9057 C   0  0  0  0  0  0  0  0  0  0  0  0
    1.1627   -1.2207   -1.2860 C   0  0  0  0  0  0  0  0  0  0  0  0
    0.1239   -1.2135   -0.1930 C   0  0  0  0  0  0  0  0  0  0  0  0
   -0.4601    0.0831   -0.0616 O   0  0  0  0  0  0  0  0  0  0  0  0
   -1.4293    0.3180    0.8734 C   0  0  0  0  0  0  0  0  0  0  0  0
   -2.0801    1.6462    1.0633 C   0  0  0  0  0  0  0  0  0  0  0  0
   -1.7875   -0.6435    1.6111 O   0  0  0  0  0  0  0  0  0  0  0  0
    3.7922    1.2716   -0.2955 H   0  0  0  0  0  0  0  0  0  0  0  0
    0.6932   -0.9284   -2.2351 H   0  0  0  0  0  0  0  0  0  0  0  0
    1.6326   -2.2165   -1.3097 H   0  0  0  0  0  0  0  0  0  0  0  0
   -0.7021   -1.8833   -0.5195 H   0  0  0  0  0  0  0  0  0  0  0  0
    0.5240   -1.5209    0.7768 H   0  0  0  0  0  0  0  0  0  0  0  0
   -3.0454    1.5549    1.5891 H   0  0  0  0  0  0  0  0  0  0  0  0
   -2.2526    2.1623    0.0971 H   0  0  0  0  0  0  0  0  0  0  0  0
   -1.4093    2.2696    1.6697 H   0  0  0  0  0  0  0  0  0  0  0  0
  1  2  3  0
  2  3  1  0
  3  4  1  0
  4  5  1  0
  5  6  1  0
  6  7  1  0
  6  8  2  0
  1  9  1  0
  3 10  1  0
  3 11  1  0
  4 12  1  0
  4 13  1  0
  7 14  1  0
  7 15  1  0
  7 16  1  0
M  END
