
     RDKit          3D

 21 20  0  0  0  0  0  0  0  0999 V2000
   -0.6795   -1.8215    1.6277 C   0  0  0  0  0  0  0  0  0  0  0  0
   -0.8577   -1.2318    0.5749 C   0  0  0  0  0  0  0  0  0  0  0  0
   -1.0623   -0.5485   -0.6945 C   0  0  0  0  0  0  0  0  0  0  0  0
   -1.3070    0.9182   -0.4500 C   0  0  0  0  0  0  0  0  0  0  0  0
   -2.5521    1.0211    0.4202 C   0  0  0  0  0  0  0  0  0  0  0  0
    0.0774   -0.8194   -1.6146 C   0  0  0  0  0  0  0  0  0  0  0  0
    1.3277   -0.3552   -1.0424 C   0  0  0  0  0  0  0  0  0  0  0  0
    2.3572    0.0463   -0.5798 C   0  0  0  0  0  0  0  0  0  0  0  0
    3.6320    0.5397   -0.0039 C   0  0  0  0  0  0  0  0  0  0  0  0
   -0.5128   -2.3438    2.5344 H   0  0  0  0  0  0  0  0  0  0  0  0
   -1.9902   -0.9880   -1.1575 H   0  0  0  0  0  0  0  0  0  0  0  0
   -1.3637    1.5126   -1.3596 H   0  0  0  0  0  0  0  0  0  0  0  0
   -0.4549    1.2842    0.1919 H   0  0  0  0  0  0  0  0  0  0  0  0
   -3.4254    0.9237   -0.2553 H   0  0  0  0  0  0  0  0  0  0  0  0
   -2.5365    1.9648    0.9836 H   0  0  0  0  0  0  0  0  0  0  0  0
   -2.5432    0.1517    1.0900 H   0  0  0  0  0  0  0  0  0  0  0  0
    0.0993   -1.9023   -1.8281 H   0  0  0  0  0  0  0  0  0  0  0  0
   -0.0666   -0.2632   -2.5782 H   0  0  0  0  0  0  0  0  0  0  0  0
    3.6471    1.6410    0.0160 H   0  0  0  0  0  0  0  0  0  0  0  0
    4.4893    0.1960   -0.6447 H   0  0  0  0  0  0  0  0  0  0  0  0
    3.7218    0.0742    0.9844 H   0  0  0  0  0  0  0  0  0  0  0  0
  1  2  3  0
  2  3  1  0
  3  4  1  0
  4  5  1  0
  3  6  1  0
  6  7  1  0
  7  8  3  0
  8  9  1  0
  1 10  1  0
  3 11  1  0
  4 12  1  0
  4 13  1  0
  5 14  1  0
  5 15  1  0
  5 16  1  0
  6 17  1  0
  6 18  1  0
  9 19  1  0
  9 20  1  0
  9 21  1  0
M  END
