
     RDKit          3D

 21 22  0  0  0  0  0  0  0  0999 V2000
    3.2004   -0.9374   -0.0011 C   0  0  0  0  0  0  0  0  0  0  0  0
    2.0142   -0.8131   -0.1855 C   0  0  0  0  0  0  0  0  0  0  0  0
    0.5704   -0.6734   -0.4072 C   0  0  0  0  0  0  0  0  0  0  0  0
   -0.2085   -1.0495    0.8204 C   0  0  0  0  0  0  0  0  0  0  0  0
    0.3870    0.1914    1.4380 C   0  0  0  0  0  0  0  0  0  0  0  0
   -0.0276    0.6243    0.0473 C   0  0  0  0  0  0  0  0  0  0  0  0
    0.1085    1.8649   -0.5055 C   0  0  0  0  0  0  0  0  0  0  0  0
   -1.2928   -0.1453    0.3061 C   0  0  0  0  0  0  0  0  0  0  0  0
   -2.0309   -0.6320   -0.9025 C   0  0  0  0  0  0  0  0  0  0  0  0
    4.2550   -1.0624    0.1728 H   0  0  0  0  0  0  0  0  0  0  0  0
    0.2280   -1.0750   -1.3612 H   0  0  0  0  0  0  0  0  0  0  0  0
   -0.3040   -1.9486    1.2403 H   0  0  0  0  0  0  0  0  0  0  0  0
   -0.2105    0.6392    2.2574 H   0  0  0  0  0  0  0  0  0  0  0  0
    1.4793    0.1697    1.6078 H   0  0  0  0  0  0  0  0  0  0  0  0
    0.3957    1.8508   -1.5991 H   0  0  0  0  0  0  0  0  0  0  0  0
   -0.7914    2.5133   -0.4692 H   0  0  0  0  0  0  0  0  0  0  0  0
    0.9235    2.4928   -0.0383 H   0  0  0  0  0  0  0  0  0  0  0  0
   -1.9161    0.2242    1.1448 H   0  0  0  0  0  0  0  0  0  0  0  0
   -3.0854   -0.2967   -0.8108 H   0  0  0  0  0  0  0  0  0  0  0  0
   -2.0429   -1.7365   -0.9016 H   0  0  0  0  0  0  0  0  0  0  0  0
   -1.6519   -0.2007   -1.8528 H   0  0  0  0  0  0  0  0  0  0  0  0
  1  2  3  0
  2  3  1  0
  3  4  1  0
  4  5  1  0
  5  6  1  0
  6  7  1  0
  6  8  1  0
  8  9  1  0
  6  3  1  0
  8  4  1  0
  1 10  1  0
  3 11  1  0
  4 12  1  0
  5 13  1  0
  5 14  1  0
  7 15  1  0
  7 16  1  0
  7 17  1  0
  8 18  1  0
  9 19  1  0
  9 20  1  0
  9 21  1  0
M  END
