
     RDKit          3D

 19 18  0  0  0  0  0  0  0  0999 V2000
   -2.8405    3.4668   -0.5198 C   0  0  0  0  0  0  0  0  0  0  0  0
   -1.9153    2.7017   -0.2580 C   0  0  0  0  0  0  0  0  0  0  0  0
   -0.8866    1.8492    0.0089 C   0  0  0  0  0  0  0  0  0  0  0  0
   -1.0938    0.3561   -0.1974 C   0  0  0  0  0  0  0  0  0  0  0  0
    0.2371   -0.3310    0.2103 C   0  0  0  0  0  0  0  0  0  0  0  0
    0.1463   -1.6558   -0.0263 O   0  0  0  0  0  0  0  0  0  0  0  0
    1.2317   -2.4048    0.3259 C   0  0  0  0  0  0  0  0  0  0  0  0
    2.4500   -2.1125   -0.3021 C   0  0  0  0  0  0  0  0  0  0  0  0
    3.4277   -2.9020    0.2988 O   0  0  0  0  0  0  0  0  0  0  0  0
   -3.6884    4.1928   -0.7579 H   0  0  0  0  0  0  0  0  0  0  0  0
   -0.4096    2.0377    1.0140 H   0  0  0  0  0  0  0  0  0  0  0  0
    0.0360    2.0324   -0.7107 H   0  0  0  0  0  0  0  0  0  0  0  0
   -1.2449    0.1222   -1.2544 H   0  0  0  0  0  0  0  0  0  0  0  0
   -1.8837    0.0233    0.4908 H   0  0  0  0  0  0  0  0  0  0  0  0
    0.2721   -0.0960    1.3256 H   0  0  0  0  0  0  0  0  0  0  0  0
    1.0372    0.2478   -0.2170 H   0  0  0  0  0  0  0  0  0  0  0  0
    0.8676   -3.4973    0.0998 H   0  0  0  0  0  0  0  0  0  0  0  0
    1.2838   -2.4469    1.4702 H   0  0  0  0  0  0  0  0  0  0  0  0
    2.9734   -1.5837   -1.0006 H   0  0  0  0  0  0  0  0  0  0  0  0
  1  2  3  0
  2  3  1  0
  3  4  1  0
  4  5  1  0
  5  6  1  0
  6  7  1  0
  7  8  1  0
  8  9  2  0
  1 10  1  0
  3 11  1  0
  3 12  1  0
  4 13  1  0
  4 14  1  0
  5 15  1  0
  5 16  1  0
  7 17  1  0
  7 18  1  0
  8 19  1  0
M  END
