
     RDKit          3D

 15 14  0  0  0  0  0  0  0  0999 V2000
    4.4097   -0.5622    1.1986 C   0  0  0  0  0  0  0  0  0  0  0  0
    3.2477   -0.3117    0.9319 C   0  0  0  0  0  0  0  0  0  0  0  0
    1.8967   -0.0331    0.6141 C   0  0  0  0  0  0  0  0  0  0  0  0
    0.7409    0.1889    0.3435 C   0  0  0  0  0  0  0  0  0  0  0  0
   -0.6714    0.4374    0.0005 C   0  0  0  0  0  0  0  0  0  0  0  0
   -0.7128    1.6242   -0.9009 C   0  0  0  0  0  0  0  0  0  0  0  0
   -1.2054    1.5986   -2.0101 O   0  0  0  0  0  0  0  0  0  0  0  0
   -1.2537   -0.6646   -0.5823 O   0  0  0  0  0  0  0  0  0  0  0  0
   -2.3686   -1.1160    0.1488 C   0  0  0  0  0  0  0  0  0  0  0  0
    5.4179   -0.7791    1.4393 H   0  0  0  0  0  0  0  0  0  0  0  0
   -1.2449    0.7047    0.9328 H   0  0  0  0  0  0  0  0  0  0  0  0
   -0.2853    2.5397   -0.5455 H   0  0  0  0  0  0  0  0  0  0  0  0
   -3.1236   -0.2828    0.1897 H   0  0  0  0  0  0  0  0  0  0  0  0
   -2.8480   -1.9474   -0.3958 H   0  0  0  0  0  0  0  0  0  0  0  0
   -1.9989   -1.3967    1.1525 H   0  0  0  0  0  0  0  0  0  0  0  0
  1  2  3  0
  2  3  1  0
  3  4  3  0
  4  5  1  0
  5  6  1  0
  6  7  2  0
  5  8  1  0
  8  9  1  0
  1 10  1  0
  5 11  1  0
  6 12  1  0
  9 13  1  0
  9 14  1  0
  9 15  1  0
M  END
