
     RDKit          3D

 18 17  0  0  0  0  0  0  0  0999 V2000
    0.4805    1.6596   -2.0052 C   0  0  0  0  0  0  0  0  0  0  0  0
    0.0840    0.8610   -1.1768 C   0  0  0  0  0  0  0  0  0  0  0  0
   -0.3900   -0.1190   -0.1828 C   0  0  0  0  0  0  0  0  0  0  0  0
   -1.0717    0.6454    0.9310 C   0  0  0  0  0  0  0  0  0  0  0  0
   -1.3113   -1.0559   -0.8889 C   0  0  0  0  0  0  0  0  0  0  0  0
    0.7391   -0.8525    0.4003 C   0  0  0  0  0  0  0  0  0  0  0  0
    1.8444   -0.1469    1.1476 C   0  0  0  0  0  0  0  0  0  0  0  0
    0.7875   -2.0662    0.2788 O   0  0  0  0  0  0  0  0  0  0  0  0
    0.8111    2.3505   -2.7368 H   0  0  0  0  0  0  0  0  0  0  0  0
   -1.8995    1.2439    0.5370 H   0  0  0  0  0  0  0  0  0  0  0  0
   -1.3442   -0.0112    1.7802 H   0  0  0  0  0  0  0  0  0  0  0  0
   -0.2899    1.3444    1.3456 H   0  0  0  0  0  0  0  0  0  0  0  0
   -0.8505   -1.3269   -1.8759 H   0  0  0  0  0  0  0  0  0  0  0  0
   -1.4799   -2.0057   -0.3337 H   0  0  0  0  0  0  0  0  0  0  0  0
   -2.3124   -0.5897   -1.1096 H   0  0  0  0  0  0  0  0  0  0  0  0
    1.4560    0.0175    2.1674 H   0  0  0  0  0  0  0  0  0  0  0  0
    2.0163    0.8228    0.6411 H   0  0  0  0  0  0  0  0  0  0  0  0
    2.7303   -0.7712    1.0808 H   0  0  0  0  0  0  0  0  0  0  0  0
  1  2  3  0
  2  3  1  0
  3  4  1  0
  3  5  1  0
  3  6  1  0
  6  7  1  0
  6  8  2  0
  1  9  1  0
  4 10  1  0
  4 11  1  0
  4 12  1  0
  5 13  1  0
  5 14  1  0
  5 15  1  0
  7 16  1  0
  7 17  1  0
  7 18  1  0
M  END
