
     RDKit          3D

 17 16  0  0  0  0  0  0  0  0999 V2000
    1.5138    2.7735    0.0165 C   0  0  0  0  0  0  0  0  0  0  0  0
    1.3314    1.8014    0.4480 C   0  0  0  0  0  0  0  0  0  0  0  0
    1.0578    0.3157    1.0919 C   0  0  0  0  0  0  0  0  0  0  0  0
    0.8662   -0.7395    0.2454 C   0  0  0  0  0  0  0  0  0  0  0  0
   -0.2869   -1.4058   -0.1313 C   0  0  0  0  0  0  0  0  0  0  0  0
   -1.7014   -1.4947   -0.7227 C   0  0  0  0  0  0  0  0  0  0  0  0
   -2.1083   -2.3958   -0.9985 O   0  0  0  0  0  0  0  0  0  0  0  0
   -2.1806    0.0399   -0.7686 C   0  0  0  0  0  0  0  0  0  0  0  0
   -2.4935    1.0545   -0.7814 C   0  0  0  0  0  0  0  0  0  0  0  0
    1.6809    3.5961   -0.3593 H   0  0  0  0  0  0  0  0  0  0  0  0
    1.8797    0.3720    1.9078 H   0  0  0  0  0  0  0  0  0  0  0  0
    0.1891    0.6650    1.7960 H   0  0  0  0  0  0  0  0  0  0  0  0
    1.6029   -1.5995    0.8417 H   0  0  0  0  0  0  0  0  0  0  0  0
    1.7065   -0.6346   -0.6875 H   0  0  0  0  0  0  0  0  0  0  0  0
   -0.4637   -2.1657    0.8390 H   0  0  0  0  0  0  0  0  0  0  0  0
    0.2235   -2.3416   -0.7966 H   0  0  0  0  0  0  0  0  0  0  0  0
   -2.8174    2.1592   -0.8072 H   0  0  0  0  0  0  0  0  0  0  0  0
  1  2  3  0
  2  3  1  0
  3  4  1  0
  4  5  1  0
  5  6  1  0
  6  7  2  0
  6  8  1  0
  8  9  3  0
  1 10  1  0
  3 11  1  0
  3 12  1  0
  4 13  1  0
  4 14  1  0
  5 15  1  0
  5 16  1  0
  9 17  1  0
M  END
