
     RDKit          3D

 17 18  0  0  0  0  0  0  0  0999 V2000
    2.5183   -0.7962    0.6515 C   0  0  0  0  0  0  0  0  0  0  0  0
    1.6813   -0.5711   -0.0858 C   0  0  0  0  0  0  0  0  0  0  0  0
    0.5933   -0.2748   -1.0121 C   0  0  0  0  0  0  0  0  0  0  0  0
    0.0018    1.0071   -1.2743 C   0  0  0  0  0  0  0  0  0  0  0  0
   -0.6921    0.1852   -0.2656 C   0  0  0  0  0  0  0  0  0  0  0  0
   -0.5341    0.6632    1.1734 C   0  0  0  0  0  0  0  0  0  0  0  0
   -1.8069    1.0220    1.6352 O   0  0  0  0  0  0  0  0  0  0  0  0
   -0.8122   -1.3249   -0.3351 C   0  0  0  0  0  0  0  0  0  0  0  0
   -0.1195   -1.3742   -1.5454 O   0  0  0  0  0  0  0  0  0  0  0  0
    3.3499   -1.0403    1.3878 H   0  0  0  0  0  0  0  0  0  0  0  0
    0.5156    1.9353   -0.9412 H   0  0  0  0  0  0  0  0  0  0  0  0
   -0.4322    1.1623   -2.3060 H   0  0  0  0  0  0  0  0  0  0  0  0
   -0.0422   -0.0774    1.8271 H   0  0  0  0  0  0  0  0  0  0  0  0
    0.0711    1.6030    1.1798 H   0  0  0  0  0  0  0  0  0  0  0  0
   -2.2855    1.4388    0.8714 H   0  0  0  0  0  0  0  0  0  0  0  0
   -1.8235   -1.7257   -0.3032 H   0  0  0  0  0  0  0  0  0  0  0  0
   -0.1832   -1.8324    0.4405 H   0  0  0  0  0  0  0  0  0  0  0  0
  1  2  3  0
  2  3  1  0
  3  4  1  0
  4  5  1  0
  5  6  1  0
  6  7  1  0
  5  8  1  0
  8  9  1  0
  5  3  1  0
  9  3  1  0
  1 10  1  0
  4 11  1  0
  4 12  1  0
  6 13  1  0
  6 14  1  0
  7 15  1  0
  8 16  1  0
  8 17  1  0
M  END
