
     RDKit          3D

 19 20  0  0  0  0  0  0  0  0999 V2000
    2.8574   -0.9550   -0.6672 C   0  0  0  0  0  0  0  0  0  0  0  0
    1.8594   -0.5824   -0.1079 C   0  0  0  0  0  0  0  0  0  0  0  0
    0.6493   -0.1307    0.5590 C   0  0  0  0  0  0  0  0  0  0  0  0
    0.7061    1.3632    0.7954 C   0  0  0  0  0  0  0  0  0  0  0  0
   -0.0577    1.9746   -0.3174 C   0  0  0  0  0  0  0  0  0  0  0  0
   -0.7892    1.0557   -0.9272 C   0  0  0  0  0  0  0  0  0  0  0  0
   -0.5832   -0.2530   -0.2808 C   0  0  0  0  0  0  0  0  0  0  0  0
   -1.7460   -0.9373    0.4188 C   0  0  0  0  0  0  0  0  0  0  0  0
   -1.1010   -1.4786   -0.8363 C   0  0  0  0  0  0  0  0  0  0  0  0
    3.7431   -1.2984   -1.1503 H   0  0  0  0  0  0  0  0  0  0  0  0
    0.5222   -0.5963    1.5733 H   0  0  0  0  0  0  0  0  0  0  0  0
    1.7521    1.7424    0.7505 H   0  0  0  0  0  0  0  0  0  0  0  0
    0.2112    1.6479    1.7531 H   0  0  0  0  0  0  0  0  0  0  0  0
   -0.0233    3.0204   -0.5926 H   0  0  0  0  0  0  0  0  0  0  0  0
   -1.4377    1.2246   -1.7655 H   0  0  0  0  0  0  0  0  0  0  0  0
   -2.6863   -0.3800    0.3604 H   0  0  0  0  0  0  0  0  0  0  0  0
   -1.5297   -1.5573    1.3243 H   0  0  0  0  0  0  0  0  0  0  0  0
   -1.7612   -1.3970   -1.7342 H   0  0  0  0  0  0  0  0  0  0  0  0
   -0.5854   -2.4630   -0.7967 H   0  0  0  0  0  0  0  0  0  0  0  0
  1  2  3  0
  2  3  1  0
  3  4  1  0
  4  5  1  0
  5  6  2  0
  6  7  1  0
  7  8  1  0
  8  9  1  0
  7  3  1  0
  9  7  1  0
  1 10  1  0
  3 11  1  0
  4 12  1  0
  4 13  1  0
  5 14  1  0
  6 15  1  0
  8 16  1  0
  8 17  1  0
  9 18  1  0
  9 19  1  0
M  END
