
     RDKit          3D

 22 21  0  0  0  0  0  0  0  0999 V2000
    3.0228    1.0028   -0.3809 C   0  0  0  0  0  0  0  0  0  0  0  0
    2.2510    0.1305   -0.0653 C   0  0  0  0  0  0  0  0  0  0  0  0
    1.3090   -0.9287    0.3378 C   0  0  0  0  0  0  0  0  0  0  0  0
   -0.1004   -0.4359   -0.0096 C   0  0  0  0  0  0  0  0  0  0  0  0
   -1.0493   -1.5344    0.4110 C   0  0  0  0  0  0  0  0  0  0  0  0
   -0.1470   -0.2875   -1.4952 C   0  0  0  0  0  0  0  0  0  0  0  0
   -0.3057    0.8257    0.7572 C   0  0  0  0  0  0  0  0  0  0  0  0
   -1.6371    1.4768    0.5566 C   0  0  0  0  0  0  0  0  0  0  0  0
    3.7226    1.7694   -0.6674 H   0  0  0  0  0  0  0  0  0  0  0  0
    1.5209   -1.8876   -0.1544 H   0  0  0  0  0  0  0  0  0  0  0  0
    1.3291   -0.9930    1.4469 H   0  0  0  0  0  0  0  0  0  0  0  0
   -1.2169   -1.5129    1.5051 H   0  0  0  0  0  0  0  0  0  0  0  0
   -2.0099   -1.4903   -0.1387 H   0  0  0  0  0  0  0  0  0  0  0  0
   -0.5780   -2.4997    0.1511 H   0  0  0  0  0  0  0  0  0  0  0  0
    0.6386    0.3921   -1.8871 H   0  0  0  0  0  0  0  0  0  0  0  0
   -1.1072    0.0716   -1.8889 H   0  0  0  0  0  0  0  0  0  0  0  0
    0.0307   -1.2903   -1.9369 H   0  0  0  0  0  0  0  0  0  0  0  0
   -0.2189    0.5807    1.8371 H   0  0  0  0  0  0  0  0  0  0  0  0
    0.4971    1.5375    0.4859 H   0  0  0  0  0  0  0  0  0  0  0  0
   -2.0601    1.3224   -0.4540 H   0  0  0  0  0  0  0  0  0  0  0  0
   -2.3940    1.1763    1.3029 H   0  0  0  0  0  0  0  0  0  0  0  0
   -1.4971    2.5743    0.6691 H   0  0  0  0  0  0  0  0  0  0  0  0
  1  2  3  0
  2  3  1  0
  3  4  1  0
  4  5  1  0
  4  6  1  0
  4  7  1  0
  7  8  1  0
  1  9  1  0
  3 10  1  0
  3 11  1  0
  5 12  1  0
  5 13  1  0
  5 14  1  0
  6 15  1  0
  6 16  1  0
  6 17  1  0
  7 18  1  0
  7 19  1  0
  8 20  1  0
  8 21  1  0
  8 22  1  0
M  END
