
     RDKit          3D

 19 18  0  0  0  0  0  0  0  0999 V2000
   -1.9460    2.2084   -0.8528 C   0  0  0  0  0  0  0  0  0  0  0  0
   -1.7353    1.0351   -0.8429 C   0  0  0  0  0  0  0  0  0  0  0  0
   -1.5060   -0.3836   -0.8320 C   0  0  0  0  0  0  0  0  0  0  0  0
   -0.6145   -0.9148    0.2319 C   0  0  0  0  0  0  0  0  0  0  0  0
   -0.6037   -2.3262   -0.0123 O   0  0  0  0  0  0  0  0  0  0  0  0
    0.8418   -0.5392    0.1009 C   0  0  0  0  0  0  0  0  0  0  0  0
    1.2291   -0.8802   -1.2028 O   0  0  0  0  0  0  0  0  0  0  0  0
    1.1718    0.8840    0.3752 C   0  0  0  0  0  0  0  0  0  0  0  0
    2.5808    0.9996    0.2438 O   0  0  0  0  0  0  0  0  0  0  0  0
   -2.1498    3.2417   -0.8578 H   0  0  0  0  0  0  0  0  0  0  0  0
   -1.0716   -0.6940   -1.8250 H   0  0  0  0  0  0  0  0  0  0  0  0
   -2.4671   -0.9749   -0.7627 H   0  0  0  0  0  0  0  0  0  0  0  0
   -1.0011   -0.7442    1.2477 H   0  0  0  0  0  0  0  0  0  0  0  0
   -0.5201   -2.8136    0.8371 H   0  0  0  0  0  0  0  0  0  0  0  0
    1.3782   -1.2387    0.8174 H   0  0  0  0  0  0  0  0  0  0  0  0
    1.9344   -1.5575   -1.2061 H   0  0  0  0  0  0  0  0  0  0  0  0
    0.7818    1.5026   -0.4639 H   0  0  0  0  0  0  0  0  0  0  0  0
    0.8731    1.2400    1.3572 H   0  0  0  0  0  0  0  0  0  0  0  0
    2.8242    1.9554    0.2793 H   0  0  0  0  0  0  0  0  0  0  0  0
  1  2  3  0
  2  3  1  0
  3  4  1  0
  4  5  1  0
  4  6  1  0
  6  7  1  0
  6  8  1  0
  8  9  1  0
  1 10  1  0
  3 11  1  0
  3 12  1  0
  4 13  1  0
  5 14  1  0
  6 15  1  0
  7 16  1  0
  8 17  1  0
  8 18  1  0
  9 19  1  0
M  END
