
     RDKit          3D

 21 21  0  0  0  0  0  0  0  0999 V2000
   -0.4720    2.5402   -1.1363 C   0  0  0  0  0  0  0  0  0  0  0  0
   -0.2562    1.2056   -0.9121 C   0  0  0  0  0  0  0  0  0  0  0  0
   -0.0742    0.1340   -0.7141 C   0  0  0  0  0  0  0  0  0  0  0  0
   -0.3971   -0.8623   -1.8885 C   0  0  0  0  0  0  0  0  0  0  0  0
   -1.1383   -0.4590    0.3609 C   0  0  0  0  0  0  0  0  0  0  0  0
   -1.1198    0.2912    1.6203 C   0  0  0  0  0  0  0  0  0  0  0  0
    1.2415   -0.3771   -0.0147 C   0  0  0  0  0  0  0  0  0  0  0  0
    2.4125   -0.8071    0.5660 C   0  0  0  0  0  0  0  0  0  0  0  0
    2.1546    0.6947    0.4719 O   0  0  0  0  0  0  0  0  0  0  0  0
   -0.6787    3.7871   -1.3633 H   0  0  0  0  0  0  0  0  0  0  0  0
   -1.4373   -1.1089   -1.7295 H   0  0  0  0  0  0  0  0  0  0  0  0
   -0.2397   -0.3701   -2.8693 H   0  0  0  0  0  0  0  0  0  0  0  0
    0.2684   -1.7794   -1.8038 H   0  0  0  0  0  0  0  0  0  0  0  0
   -2.1168   -0.4848   -0.1041 H   0  0  0  0  0  0  0  0  0  0  0  0
   -0.8942   -1.5543    0.5982 H   0  0  0  0  0  0  0  0  0  0  0  0
   -1.8646    1.1817    1.5529 H   0  0  0  0  0  0  0  0  0  0  0  0
   -0.2307    0.7640    2.0318 H   0  0  0  0  0  0  0  0  0  0  0  0
   -1.6107   -0.3269    2.4767 H   0  0  0  0  0  0  0  0  0  0  0  0
    0.5520   -0.5032    1.2072 H   0  0  0  0  0  0  0  0  0  0  0  0
    2.5174   -1.0330    1.6384 H   0  0  0  0  0  0  0  0  0  0  0  0
    3.3841   -0.9323    0.0114 H   0  0  0  0  0  0  0  0  0  0  0  0
  1  2  3  0
  2  3  1  0
  3  4  1  0
  3  5  1  0
  5  6  1  0
  3  7  1  0
  7  8  1  0
  8  9  1  0
  9  7  1  0
  1 10  1  0
  4 11  1  0
  4 12  1  0
  4 13  1  0
  5 14  1  0
  5 15  1  0
  6 16  1  0
  6 17  1  0
  6 18  1  0
  7 19  1  0
  8 20  1  0
  8 21  1  0
M  END
