
     RDKit          3D

 19 18  0  0  0  0  0  0  0  0999 V2000
    3.6432    0.8741   -2.2410 C   0  0  0  0  0  0  0  0  0  0  0  0
    2.4503    0.0044   -1.9033 C   0  0  0  0  0  0  0  0  0  0  0  0
    1.5495   -0.6684   -1.6307 C   0  0  0  0  0  0  0  0  0  0  0  0
    0.7920   -0.1186   -0.5365 O   0  0  0  0  0  0  0  0  0  0  0  0
   -0.4276   -0.7717   -0.0894 C   0  0  0  0  0  0  0  0  0  0  0  0
   -0.8807   -1.7703   -0.6267 O   0  0  0  0  0  0  0  0  0  0  0  0
   -1.0146   -0.0482    1.1056 C   0  0  0  0  0  0  0  0  0  0  0  0
   -2.3164   -0.5279    1.4821 C   0  0  0  0  0  0  0  0  0  0  0  0
   -0.7463    1.3944    0.8211 C   0  0  0  0  0  0  0  0  0  0  0  0
    4.5433    1.5399   -2.5112 H   0  0  0  0  0  0  0  0  0  0  0  0
    1.7263   -1.7447   -1.1040 H   0  0  0  0  0  0  0  0  0  0  0  0
    0.7929   -0.8999   -2.4925 H   0  0  0  0  0  0  0  0  0  0  0  0
   -0.2739   -0.3809    1.9437 H   0  0  0  0  0  0  0  0  0  0  0  0
   -2.6736   -0.2827    2.4846 H   0  0  0  0  0  0  0  0  0  0  0  0
   -2.2491   -1.6847    1.4655 H   0  0  0  0  0  0  0  0  0  0  0  0
   -3.1296   -0.1934    0.7349 H   0  0  0  0  0  0  0  0  0  0  0  0
   -1.2831    2.2379    1.2884 H   0  0  0  0  0  0  0  0  0  0  0  0
    0.3978    1.5421    0.9878 H   0  0  0  0  0  0  0  0  0  0  0  0
   -0.9003    1.4988   -0.2968 H   0  0  0  0  0  0  0  0  0  0  0  0
  1  2  3  0
  2  3  1  0
  3  4  1  0
  4  5  1  0
  5  6  2  0
  5  7  1  0
  7  8  1  0
  7  9  1  0
  1 10  1  0
  3 11  1  0
  3 12  1  0
  7 13  1  0
  8 14  1  0
  8 15  1  0
  8 16  1  0
  9 17  1  0
  9 18  1  0
  9 19  1  0
M  END
