
     RDKit          3D

 17 18  0  0  0  0  0  0  0  0999 V2000
    3.1433    0.8360    0.9984 C   0  0  0  0  0  0  0  0  0  0  0  0
    2.2182    0.0978    0.7562 C   0  0  0  0  0  0  0  0  0  0  0  0
    1.1113   -0.8010    0.4593 C   0  0  0  0  0  0  0  0  0  0  0  0
    1.3813   -2.0329    0.6860 O   0  0  0  0  0  0  0  0  0  0  0  0
   -0.0634   -0.3613   -0.0039 C   0  0  0  0  0  0  0  0  0  0  0  0
   -1.0321    0.5963    0.6260 C   0  0  0  0  0  0  0  0  0  0  0  0
   -1.6504    0.2890   -0.7198 C   0  0  0  0  0  0  0  0  0  0  0  0
   -1.2497   -1.1375   -0.4484 C   0  0  0  0  0  0  0  0  0  0  0  0
   -0.2707    0.4787   -1.2688 C   0  0  0  0  0  0  0  0  0  0  0  0
    3.9449    1.4946    1.2212 H   0  0  0  0  0  0  0  0  0  0  0  0
   -1.5835    0.2425    1.4998 H   0  0  0  0  0  0  0  0  0  0  0  0
   -0.6125    1.6061    0.6553 H   0  0  0  0  0  0  0  0  0  0  0  0
   -2.5199    0.6251   -1.0743 H   0  0  0  0  0  0  0  0  0  0  0  0
   -1.0194   -1.7404   -1.3598 H   0  0  0  0  0  0  0  0  0  0  0  0
   -1.8380   -1.6692    0.3004 H   0  0  0  0  0  0  0  0  0  0  0  0
   -0.0166   -0.0461   -2.1867 H   0  0  0  0  0  0  0  0  0  0  0  0
    0.0574    1.5222   -1.1531 H   0  0  0  0  0  0  0  0  0  0  0  0
  1  2  3  0
  2  3  1  0
  3  4  2  0
  3  5  1  0
  5  6  1  0
  6  7  1  0
  7  8  1  0
  7  9  1  0
  8  5  1  0
  9  5  1  0
  1 10  1  0
  6 11  1  0
  6 12  1  0
  7 13  1  0
  8 14  1  0
  8 15  1  0
  9 16  1  0
  9 17  1  0
M  END
