
     RDKit          3D

 21 21  0  0  0  0  0  0  0  0999 V2000
   -0.4123    2.9881   -0.4818 C   0  0  0  0  0  0  0  0  0  0  0  0
   -0.4665    1.6254   -0.6805 C   0  0  0  0  0  0  0  0  0  0  0  0
   -0.4952    0.3294   -0.8739 C   0  0  0  0  0  0  0  0  0  0  0  0
   -1.4580   -0.1265   -1.9562 C   0  0  0  0  0  0  0  0  0  0  0  0
   -0.6427   -0.5935    0.3730 C   0  0  0  0  0  0  0  0  0  0  0  0
   -1.8005   -0.1993    1.0853 O   0  0  0  0  0  0  0  0  0  0  0  0
    0.5879   -0.3878    1.1544 C   0  0  0  0  0  0  0  0  0  0  0  0
    1.8672   -0.6250    0.3601 C   0  0  0  0  0  0  0  0  0  0  0  0
    1.6423   -1.2728    1.6372 C   0  0  0  0  0  0  0  0  0  0  0  0
   -0.3779    4.1133   -0.3334 H   0  0  0  0  0  0  0  0  0  0  0  0
    0.5885   -0.0516   -1.1608 H   0  0  0  0  0  0  0  0  0  0  0  0
   -1.1487   -1.1116   -2.3095 H   0  0  0  0  0  0  0  0  0  0  0  0
   -2.4508   -0.0987   -1.4081 H   0  0  0  0  0  0  0  0  0  0  0  0
   -1.4993    0.5899   -2.8361 H   0  0  0  0  0  0  0  0  0  0  0  0
   -0.7928   -1.5849   -0.0176 H   0  0  0  0  0  0  0  0  0  0  0  0
   -1.5300    0.1245    1.9933 H   0  0  0  0  0  0  0  0  0  0  0  0
    0.5478    0.6541    1.6576 H   0  0  0  0  0  0  0  0  0  0  0  0
    2.3859    0.3043    0.0992 H   0  0  0  0  0  0  0  0  0  0  0  0
    1.8395   -1.3528   -0.5261 H   0  0  0  0  0  0  0  0  0  0  0  0
    1.4395   -2.3759    1.6663 H   0  0  0  0  0  0  0  0  0  0  0  0
    2.1760   -0.9485    2.5576 H   0  0  0  0  0  0  0  0  0  0  0  0
  1  2  3  0
  2  3  1  0
  3  4  1  0
  3  5  1  0
  5  6  1  0
  5  7  1  0
  7  8  1  0
  8  9  1  0
  9  7  1  0
  1 10  1  0
  3 11  1  0
  4 12  1  0
  4 13  1  0
  4 14  1  0
  5 15  1  0
  6 16  1  0
  7 17  1  0
  8 18  1  0
  8 19  1  0
  9 20  1  0
  9 21  1  0
M  END
