
     RDKit          3D

 17 17  0  0  0  0  0  0  0  0999 V2000
    2.5074   -0.1018    0.7530 C   0  0  0  0  0  0  0  0  0  0  0  0
    1.4154    0.0911    0.2799 C   0  0  0  0  0  0  0  0  0  0  0  0
    0.0975    0.3450   -0.2956 C   0  0  0  0  0  0  0  0  0  0  0  0
   -0.0707    1.7515   -0.7629 C   0  0  0  0  0  0  0  0  0  0  0  0
   -0.4434   -0.7300   -1.1874 C   0  0  0  0  0  0  0  0  0  0  0  0
   -1.7039   -0.5185   -0.5820 O   0  0  0  0  0  0  0  0  0  0  0  0
   -1.0143   -0.1885    0.5759 C   0  0  0  0  0  0  0  0  0  0  0  0
   -0.6944   -1.3652    1.3840 C   0  0  0  0  0  0  0  0  0  0  0  0
   -1.0380   -2.4657    0.9981 O   0  0  0  0  0  0  0  0  0  0  0  0
    3.4630   -0.2878    1.1726 H   0  0  0  0  0  0  0  0  0  0  0  0
    0.6073    2.4027   -0.1502 H   0  0  0  0  0  0  0  0  0  0  0  0
    0.2585    1.9091   -1.8206 H   0  0  0  0  0  0  0  0  0  0  0  0
   -1.0959    2.1198   -0.5814 H   0  0  0  0  0  0  0  0  0  0  0  0
   -0.0525   -1.7266   -0.9918 H   0  0  0  0  0  0  0  0  0  0  0  0
   -0.5217   -0.5075   -2.2570 H   0  0  0  0  0  0  0  0  0  0  0  0
   -1.5564    0.5940    1.1375 H   0  0  0  0  0  0  0  0  0  0  0  0
   -0.1580   -1.3216    2.3279 H   0  0  0  0  0  0  0  0  0  0  0  0
  1  2  3  0
  2  3  1  0
  3  4  1  0
  3  5  1  0
  5  6  1  0
  6  7  1  0
  7  8  1  0
  8  9  2  0
  7  3  1  0
  1 10  1  0
  4 11  1  0
  4 12  1  0
  4 13  1  0
  5 14  1  0
  5 15  1  0
  7 16  1  0
  8 17  1  0
M  END
