
     RDKit          3D

 19 20  0  0  0  0  0  0  0  0999 V2000
    3.9238   -0.1118    0.0733 C   0  0  0  0  0  0  0  0  0  0  0  0
    2.7655   -0.0708    0.0194 C   0  0  0  0  0  0  0  0  0  0  0  0
    1.2894    0.0041   -0.0622 C   0  0  0  0  0  0  0  0  0  0  0  0
    0.7427    1.2398   -0.1177 C   0  0  0  0  0  0  0  0  0  0  0  0
   -0.7244    1.1806   -0.1939 C   0  0  0  0  0  0  0  0  0  0  0  0
   -1.4456    0.4381   -1.2315 C   0  0  0  0  0  0  0  0  0  0  0  0
   -1.0151   -0.2798    0.0001 C   0  0  0  0  0  0  0  0  0  0  0  0
   -1.8986   -0.6126    1.1475 C   0  0  0  0  0  0  0  0  0  0  0  0
    0.3020   -1.0333   -0.1683 C   0  0  0  0  0  0  0  0  0  0  0  0
    5.0530   -0.1673    0.1136 H   0  0  0  0  0  0  0  0  0  0  0  0
    1.3640    2.1432   -0.1063 H   0  0  0  0  0  0  0  0  0  0  0  0
   -1.2750    1.8856    0.4777 H   0  0  0  0  0  0  0  0  0  0  0  0
   -2.5302    0.6476   -1.3524 H   0  0  0  0  0  0  0  0  0  0  0  0
   -0.9188    0.1973   -2.1979 H   0  0  0  0  0  0  0  0  0  0  0  0
   -1.5371   -0.1468    2.1196 H   0  0  0  0  0  0  0  0  0  0  0  0
   -2.9420   -0.2937    0.9117 H   0  0  0  0  0  0  0  0  0  0  0  0
   -1.8534   -1.7000    1.3560 H   0  0  0  0  0  0  0  0  0  0  0  0
    0.3596   -1.9066    0.4631 H   0  0  0  0  0  0  0  0  0  0  0  0
    0.3401   -1.4133   -1.2518 H   0  0  0  0  0  0  0  0  0  0  0  0
  1  2  3  0
  2  3  1  0
  3  4  2  0
  4  5  1  0
  5  6  1  0
  6  7  1  0
  7  8  1  0
  7  9  1  0
  9  3  1  0
  7  5  1  0
  1 10  1  0
  4 11  1  0
  5 12  1  0
  6 13  1  0
  6 14  1  0
  8 15  1  0
  8 16  1  0
  8 17  1  0
  9 18  1  0
  9 19  1  0
M  END
