
     RDKit          3D

 19 19  0  0  0  0  0  0  0  0999 V2000
   -3.7710   -0.3419   -0.8885 C   0  0  0  0  0  0  0  0  0  0  0  0
   -2.6020   -0.2803   -0.5330 C   0  0  0  0  0  0  0  0  0  0  0  0
   -1.2043   -0.2224   -0.0974 C   0  0  0  0  0  0  0  0  0  0  0  0
   -0.5490    1.1241   -0.3241 C   0  0  0  0  0  0  0  0  0  0  0  0
    0.8307    1.0364    0.1533 C   0  0  0  0  0  0  0  0  0  0  0  0
    1.9643    0.9741    0.5646 C   0  0  0  0  0  0  0  0  0  0  0  0
    3.3357    0.8894    1.0848 C   0  0  0  0  0  0  0  0  0  0  0  0
   -0.3218   -1.4041   -0.4602 C   0  0  0  0  0  0  0  0  0  0  0  0
   -0.7530   -1.1272    0.9626 C   0  0  0  0  0  0  0  0  0  0  0  0
   -4.7822   -0.3777   -1.2018 H   0  0  0  0  0  0  0  0  0  0  0  0
   -0.6061    1.3294   -1.4140 H   0  0  0  0  0  0  0  0  0  0  0  0
   -1.0936    1.8904    0.2820 H   0  0  0  0  0  0  0  0  0  0  0  0
    4.0544    1.2685    0.3109 H   0  0  0  0  0  0  0  0  0  0  0  0
    3.5212   -0.1897    1.3163 H   0  0  0  0  0  0  0  0  0  0  0  0
    3.4589    1.5303    1.9659 H   0  0  0  0  0  0  0  0  0  0  0  0
   -0.7919   -2.2831   -0.9401 H   0  0  0  0  0  0  0  0  0  0  0  0
    0.7435   -1.2014   -0.7414 H   0  0  0  0  0  0  0  0  0  0  0  0
   -1.4864   -1.8144    1.4456 H   0  0  0  0  0  0  0  0  0  0  0  0
    0.0527   -0.8005    1.6708 H   0  0  0  0  0  0  0  0  0  0  0  0
  1  2  3  0
  2  3  1  0
  3  4  1  0
  4  5  1  0
  5  6  3  0
  6  7  1  0
  3  8  1  0
  8  9  1  0
  9  3  1  0
  1 10  1  0
  4 11  1  0
  4 12  1  0
  7 13  1  0
  7 14  1  0
  7 15  1  0
  8 16  1  0
  8 17  1  0
  9 18  1  0
  9 19  1  0
M  END
