
     RDKit          3D

 21 21  0  0  0  0  0  0  0  0999 V2000
    3.2901    1.9318   -0.6051 C   0  0  0  0  0  0  0  0  0  0  0  0
    2.6128    0.7556   -0.3112 C   0  0  0  0  0  0  0  0  0  0  0  0
    1.8244   -0.6241    0.0619 C   0  0  0  0  0  0  0  0  0  0  0  0
    1.8141   -0.6764    1.5674 C   0  0  0  0  0  0  0  0  0  0  0  0
    0.4527   -0.1092   -0.4397 C   0  0  0  0  0  0  0  0  0  0  0  0
   -0.6546   -0.9299   -0.2270 O   0  0  0  0  0  0  0  0  0  0  0  0
   -1.7276   -0.1954   -0.7736 C   0  0  0  0  0  0  0  0  0  0  0  0
   -3.1193   -0.6226   -0.8024 C   0  0  0  0  0  0  0  0  0  0  0  0
   -2.7272    0.2352    0.3404 C   0  0  0  0  0  0  0  0  0  0  0  0
    3.7338    2.6989   -0.7888 H   0  0  0  0  0  0  0  0  0  0  0  0
    2.2235   -1.3370   -0.4064 H   0  0  0  0  0  0  0  0  0  0  0  0
    2.6192    0.0056    1.9357 H   0  0  0  0  0  0  0  0  0  0  0  0
    2.1861   -1.7187    1.8835 H   0  0  0  0  0  0  0  0  0  0  0  0
    0.8835   -0.4448    2.0734 H   0  0  0  0  0  0  0  0  0  0  0  0
    0.1618    0.8786   -0.0612 H   0  0  0  0  0  0  0  0  0  0  0  0
    0.4848    0.0506   -1.5812 H   0  0  0  0  0  0  0  0  0  0  0  0
   -1.3417    0.6633   -1.3716 H   0  0  0  0  0  0  0  0  0  0  0  0
   -3.4796   -1.6440   -0.5682 H   0  0  0  0  0  0  0  0  0  0  0  0
   -3.7230   -0.1017   -1.5957 H   0  0  0  0  0  0  0  0  0  0  0  0
   -2.4895   -0.1289    1.3608 H   0  0  0  0  0  0  0  0  0  0  0  0
   -3.0243    1.3129    0.3091 H   0  0  0  0  0  0  0  0  0  0  0  0
  1  2  3  0
  2  3  1  0
  3  4  1  0
  3  5  1  0
  5  6  1  0
  6  7  1  0
  7  8  1  0
  8  9  1  0
  9  7  1  0
  1 10  1  0
  3 11  1  0
  4 12  1  0
  4 13  1  0
  4 14  1  0
  5 15  1  0
  5 16  1  0
  7 17  1  0
  8 18  1  0
  8 19  1  0
  9 20  1  0
  9 21  1  0
M  END
