
     RDKit          3D

 19 19  0  0  0  0  0  0  0  0999 V2000
    2.1032    1.9927    2.2452 C   0  0  0  0  0  0  0  0  0  0  0  0
    1.6753    1.5073    1.2190 C   0  0  0  0  0  0  0  0  0  0  0  0
    1.1345    0.9180   -0.0119 C   0  0  0  0  0  0  0  0  0  0  0  0
    1.6882   -0.3490   -0.5330 C   0  0  0  0  0  0  0  0  0  0  0  0
    0.3874   -0.4155    0.1319 C   0  0  0  0  0  0  0  0  0  0  0  0
   -0.9192   -0.4284   -0.6068 C   0  0  0  0  0  0  0  0  0  0  0  0
   -1.6692   -1.7077   -0.4878 C   0  0  0  0  0  0  0  0  0  0  0  0
   -1.7520    0.6947   -0.0564 C   0  0  0  0  0  0  0  0  0  0  0  0
   -1.2118    1.6686    0.4614 O   0  0  0  0  0  0  0  0  0  0  0  0
    2.4631    2.4244    3.1558 H   0  0  0  0  0  0  0  0  0  0  0  0
    0.7893    1.6442   -0.7470 H   0  0  0  0  0  0  0  0  0  0  0  0
    1.6854   -0.5182   -1.6376 H   0  0  0  0  0  0  0  0  0  0  0  0
    2.5582   -0.8134   -0.0285 H   0  0  0  0  0  0  0  0  0  0  0  0
    0.3666   -0.8500    1.1523 H   0  0  0  0  0  0  0  0  0  0  0  0
   -0.7842   -0.2046   -1.6858 H   0  0  0  0  0  0  0  0  0  0  0  0
   -2.3570   -1.6521    0.3865 H   0  0  0  0  0  0  0  0  0  0  0  0
   -1.0143   -2.5855   -0.3537 H   0  0  0  0  0  0  0  0  0  0  0  0
   -2.3142   -1.9254   -1.3681 H   0  0  0  0  0  0  0  0  0  0  0  0
   -2.8293    0.5999   -0.1397 H   0  0  0  0  0  0  0  0  0  0  0  0
  1  2  3  0
  2  3  1  0
  3  4  1  0
  4  5  1  0
  5  6  1  0
  6  7  1  0
  6  8  1  0
  8  9  2  0
  5  3  1  0
  1 10  1  0
  3 11  1  0
  4 12  1  0
  4 13  1  0
  5 14  1  0
  6 15  1  0
  7 16  1  0
  7 17  1  0
  7 18  1  0
  8 19  1  0
M  END
