
     RDKit          3D

 19 20  0  0  0  0  0  0  0  0999 V2000
    3.3140    0.5367    0.8268 C   0  0  0  0  0  0  0  0  0  0  0  0
    1.7484   -0.4798    0.1513 C   0  0  0  0  0  0  0  0  0  0  0  0
    0.8088   -1.1046   -0.2431 C   0  0  0  0  0  0  0  0  0  0  0  0
    0.1011   -0.1912   -1.2916 C   0  0  0  0  0  0  0  0  0  0  0  0
   -1.1760    0.2625   -0.8119 C   0  0  0  0  0  0  0  0  0  0  0  0
   -2.3852   -0.1707   -0.2682 C   0  0  0  0  0  0  0  0  0  0  0  0
   -1.2485   -0.4677    0.5481 C   0  0  0  0  0  0  0  0  0  0  0  0
   -0.0609    0.1622    1.0121 C   0  0  0  0  0  0  0  0  0  0  0  0
    0.4344    1.2844    0.3287 O   0  0  0  0  0  0  0  0  0  0  0  0
    4.1364    1.0601    1.1630 H   0  0  0  0  0  0  0  0  0  0  0  0
    0.3678   -1.8247    0.3485 H   0  0  0  0  0  0  0  0  0  0  0  0
    0.7860    0.6954   -1.5978 H   0  0  0  0  0  0  0  0  0  0  0  0
    0.0465   -0.8703   -2.2028 H   0  0  0  0  0  0  0  0  0  0  0  0
   -1.1074    1.4430   -0.7125 H   0  0  0  0  0  0  0  0  0  0  0  0
   -3.1329    0.5370    0.1954 H   0  0  0  0  0  0  0  0  0  0  0  0
   -2.9554   -0.9841   -0.8021 H   0  0  0  0  0  0  0  0  0  0  0  0
   -1.1426   -1.5850    0.6207 H   0  0  0  0  0  0  0  0  0  0  0  0
    0.6781   -0.1498    1.6646 H   0  0  0  0  0  0  0  0  0  0  0  0
    0.7873    1.8466    1.0708 H   0  0  0  0  0  0  0  0  0  0  0  0
  1  2  3  0
  2  3  1  0
  3  4  1  0
  4  5  1  0
  5  6  1  0
  6  7  1  0
  7  8  1  0
  8  9  1  0
  8  3  1  0
  7  5  1  0
  1 10  1  0
  3 11  1  0
  4 12  1  0
  4 13  1  0
  5 14  1  0
  6 15  1  0
  6 16  1  0
  7 17  1  0
  8 18  1  0
  9 19  1  0
M  END
