
     RDKit          3D

 17 18  0  0  0  0  0  0  0  0999 V2000
   -1.0866    2.6454   -0.3380 C   0  0  0  0  0  0  0  0  0  0  0  0
   -0.4855    1.5902   -0.4726 C   0  0  0  0  0  0  0  0  0  0  0  0
    0.2538    0.3397   -0.6233 C   0  0  0  0  0  0  0  0  0  0  0  0
    1.4570    0.3481   -1.3211 O   0  0  0  0  0  0  0  0  0  0  0  0
    2.4154   -0.0455   -0.3893 C   0  0  0  0  0  0  0  0  0  0  0  0
    1.7846   -0.8560    0.5246 O   0  0  0  0  0  0  0  0  0  0  0  0
    0.4578   -0.4526    0.5995 C   0  0  0  0  0  0  0  0  0  0  0  0
   -0.4449   -0.9469   -0.5157 C   0  0  0  0  0  0  0  0  0  0  0  0
   -1.8988   -1.0595   -0.1624 C   0  0  0  0  0  0  0  0  0  0  0  0
   -1.6083    3.5570   -0.2032 H   0  0  0  0  0  0  0  0  0  0  0  0
    2.8415    0.8185    0.1511 H   0  0  0  0  0  0  0  0  0  0  0  0
    3.1890   -0.6165   -0.9630 H   0  0  0  0  0  0  0  0  0  0  0  0
    0.0146   -0.1984    1.5731 H   0  0  0  0  0  0  0  0  0  0  0  0
   -0.0796   -1.7728   -1.1627 H   0  0  0  0  0  0  0  0  0  0  0  0
   -2.1318   -2.1450   -0.0069 H   0  0  0  0  0  0  0  0  0  0  0  0
   -2.5772   -0.6683   -0.9563 H   0  0  0  0  0  0  0  0  0  0  0  0
   -2.1011   -0.5375    0.7892 H   0  0  0  0  0  0  0  0  0  0  0  0
  1  2  3  0
  2  3  1  0
  3  4  1  0
  4  5  1  0
  5  6  1  0
  6  7  1  0
  7  8  1  0
  8  9  1  0
  7  3  1  0
  8  3  1  0
  1 10  1  0
  5 11  1  0
  5 12  1  0
  7 13  1  0
  8 14  1  0
  9 15  1  0
  9 16  1  0
  9 17  1  0
M  END
