
     RDKit          3D

 19 19  0  0  0  0  0  0  0  0999 V2000
    1.0369   -1.8652    2.6087 C   0  0  0  0  0  0  0  0  0  0  0  0
    0.5869   -1.8991    1.3516 C   0  0  0  0  0  0  0  0  0  0  0  0
    0.1091   -1.9485    0.0728 C   0  0  0  0  0  0  0  0  0  0  0  0
    0.5776   -0.7462   -0.7473 C   0  0  0  0  0  0  0  0  0  0  0  0
    0.0299    0.4937   -0.0558 C   0  0  0  0  0  0  0  0  0  0  0  0
    0.4630    1.7452   -0.8158 C   0  0  0  0  0  0  0  0  0  0  0  0
   -0.6490    2.5658   -0.6658 O   0  0  0  0  0  0  0  0  0  0  0  0
   -1.6646    1.6434   -0.9514 C   0  0  0  0  0  0  0  0  0  0  0  0
   -1.3595    0.5577   -0.1107 O   0  0  0  0  0  0  0  0  0  0  0  0
    1.3982   -1.8283    3.5753 H   0  0  0  0  0  0  0  0  0  0  0  0
    0.4283   -2.8849   -0.5182 H   0  0  0  0  0  0  0  0  0  0  0  0
   -1.0194   -1.9709    0.0735 H   0  0  0  0  0  0  0  0  0  0  0  0
    1.6735   -0.6842   -0.7903 H   0  0  0  0  0  0  0  0  0  0  0  0
    0.1506   -0.8405   -1.7628 H   0  0  0  0  0  0  0  0  0  0  0  0
    0.4141    0.5914    0.9698 H   0  0  0  0  0  0  0  0  0  0  0  0
    1.3802    2.2066   -0.3972 H   0  0  0  0  0  0  0  0  0  0  0  0
    0.5708    1.5422   -1.9135 H   0  0  0  0  0  0  0  0  0  0  0  0
   -2.6713    2.0302   -0.8040 H   0  0  0  0  0  0  0  0  0  0  0  0
   -1.4554    1.2915   -1.9914 H   0  0  0  0  0  0  0  0  0  0  0  0
  1  2  3  0
  2  3  1  0
  3  4  1  0
  4  5  1  0
  5  6  1  0
  6  7  1  0
  7  8  1  0
  8  9  1  0
  9  5  1  0
  1 10  1  0
  3 11  1  0
  3 12  1  0
  4 13  1  0
  4 14  1  0
  5 15  1  0
  6 16  1  0
  6 17  1  0
  8 18  1  0
  8 19  1  0
M  END
