
     RDKit          3D

 17 17  0  0  0  0  0  0  0  0999 V2000
    1.4505   -2.7591    0.5358 C   0  0  0  0  0  0  0  0  0  0  0  0
    0.9504   -1.5876    0.8298 C   0  0  0  0  0  0  0  0  0  0  0  0
    0.4155   -0.2812    1.1703 C   0  0  0  0  0  0  0  0  0  0  0  0
   -0.7467   -0.1311    0.1701 C   0  0  0  0  0  0  0  0  0  0  0  0
   -0.0317   -0.2088   -1.2513 C   0  0  0  0  0  0  0  0  0  0  0  0
    0.5517    1.0494   -1.3240 O   0  0  0  0  0  0  0  0  0  0  0  0
   -0.2151    1.9568   -0.6084 C   0  0  0  0  0  0  0  0  0  0  0  0
   -1.3488    1.0781    0.0293 C   0  0  0  0  0  0  0  0  0  0  0  0
   -2.3866    1.7162    0.1942 O   0  0  0  0  0  0  0  0  0  0  0  0
    1.8760   -3.7663    0.3010 H   0  0  0  0  0  0  0  0  0  0  0  0
    1.2112    0.4924    0.8753 H   0  0  0  0  0  0  0  0  0  0  0  0
    0.1182   -0.2070    2.1906 H   0  0  0  0  0  0  0  0  0  0  0  0
   -1.3605   -1.0523    0.1217 H   0  0  0  0  0  0  0  0  0  0  0  0
    0.7530   -0.9559   -1.1207 H   0  0  0  0  0  0  0  0  0  0  0  0
   -0.8177   -0.4061   -1.9765 H   0  0  0  0  0  0  0  0  0  0  0  0
    0.3244    2.4478    0.1932 H   0  0  0  0  0  0  0  0  0  0  0  0
   -0.7440    2.6144   -1.3053 H   0  0  0  0  0  0  0  0  0  0  0  0
  1  2  3  0
  2  3  1  0
  3  4  1  0
  4  5  1  0
  5  6  1  0
  6  7  1  0
  7  8  1  0
  8  9  2  0
  8  4  1  0
  1 10  1  0
  3 11  1  0
  3 12  1  0
  4 13  1  0
  5 14  1  0
  5 15  1  0
  7 16  1  0
  7 17  1  0
M  END
