
     RDKit          3D

 18 19  0  0  0  0  0  0  0  0999 V2000
    3.0091    0.5962   -1.5907 C   0  0  0  0  0  0  0  0  0  0  0  0
    2.1088   -0.0831   -1.1647 C   0  0  0  0  0  0  0  0  0  0  0  0
    1.0010   -0.9093   -0.6164 C   0  0  0  0  0  0  0  0  0  0  0  0
    0.3136   -0.0902    0.4051 C   0  0  0  0  0  0  0  0  0  0  0  0
   -0.8448   -0.6288    1.1496 C   0  0  0  0  0  0  0  0  0  0  0  0
   -1.6566   -0.4271   -0.0880 C   0  0  0  0  0  0  0  0  0  0  0  0
   -0.8203    0.7949   -0.0369 C   0  0  0  0  0  0  0  0  0  0  0  0
   -1.1724    0.8268    1.4317 C   0  0  0  0  0  0  0  0  0  0  0  0
    3.8046    1.2012   -1.9493 H   0  0  0  0  0  0  0  0  0  0  0  0
    1.4103   -1.8531   -0.1939 H   0  0  0  0  0  0  0  0  0  0  0  0
    0.3847   -1.1652   -1.4885 H   0  0  0  0  0  0  0  0  0  0  0  0
    1.0019    0.5409    1.0453 H   0  0  0  0  0  0  0  0  0  0  0  0
   -0.8923   -1.3732    1.8137 H   0  0  0  0  0  0  0  0  0  0  0  0
   -1.5398   -1.1084   -0.9246 H   0  0  0  0  0  0  0  0  0  0  0  0
   -2.7354   -0.2057    0.1426 H   0  0  0  0  0  0  0  0  0  0  0  0
   -0.7768    1.5734   -0.6575 H   0  0  0  0  0  0  0  0  0  0  0  0
   -2.2132    1.0366    1.6803 H   0  0  0  0  0  0  0  0  0  0  0  0
   -0.3825    1.2743    2.0333 H   0  0  0  0  0  0  0  0  0  0  0  0
  1  2  3  0
  2  3  1  0
  3  4  1  0
  4  5  1  0
  5  6  1  0
  6  7  1  0
  7  8  1  0
  7  4  1  0
  8  5  1  0
  1  9  1  0
  3 10  1  0
  3 11  1  0
  4 12  1  0
  5 13  1  0
  6 14  1  0
  6 15  1  0
  7 16  1  0
  8 17  1  0
  8 18  1  0
M  END
