
     RDKit          3D

 21 21  0  0  0  0  0  0  0  0999 V2000
    1.7088   -0.9886    1.8956 C   0  0  0  0  0  0  0  0  0  0  0  0
    1.9353   -0.6377    0.5839 C   0  0  0  0  0  0  0  0  0  0  0  0
    2.1382   -0.2850   -0.6599 C   0  0  0  0  0  0  0  0  0  0  0  0
    0.5845    0.1200   -1.1309 C   0  0  0  0  0  0  0  0  0  0  0  0
    0.0561    1.1474   -0.2084 C   0  0  0  0  0  0  0  0  0  0  0  0
   -1.3280    0.2729   -0.1648 C   0  0  0  0  0  0  0  0  0  0  0  0
   -1.8280    0.3054    1.2668 C   0  0  0  0  0  0  0  0  0  0  0  0
   -2.0722    0.7981   -1.2013 O   0  0  0  0  0  0  0  0  0  0  0  0
   -0.3975   -0.8449   -0.5934 C   0  0  0  0  0  0  0  0  0  0  0  0
    1.5329   -1.2956    2.9803 H   0  0  0  0  0  0  0  0  0  0  0  0
    2.1460   -1.2479   -1.3797 H   0  0  0  0  0  0  0  0  0  0  0  0
    2.7431    0.4629   -1.0223 H   0  0  0  0  0  0  0  0  0  0  0  0
    0.4836    0.3435   -2.1342 H   0  0  0  0  0  0  0  0  0  0  0  0
   -0.1874    2.1503   -0.5046 H   0  0  0  0  0  0  0  0  0  0  0  0
    0.4411    1.0420    0.8651 H   0  0  0  0  0  0  0  0  0  0  0  0
   -0.9002    0.5575    1.8728 H   0  0  0  0  0  0  0  0  0  0  0  0
   -2.1964   -0.6789    1.5315 H   0  0  0  0  0  0  0  0  0  0  0  0
   -2.5751    1.1378    1.2418 H   0  0  0  0  0  0  0  0  0  0  0  0
   -1.5191    0.6444   -2.0523 H   0  0  0  0  0  0  0  0  0  0  0  0
   -0.8086   -1.5145   -1.4174 H   0  0  0  0  0  0  0  0  0  0  0  0
    0.0429   -1.4890    0.2315 H   0  0  0  0  0  0  0  0  0  0  0  0
  1  2  3  0
  2  3  1  0
  3  4  1  0
  4  5  1  0
  5  6  1  0
  6  7  1  0
  6  8  1  0
  6  9  1  0
  9  4  1  0
  1 10  1  0
  3 11  1  0
  3 12  1  0
  4 13  1  0
  5 14  1  0
  5 15  1  0
  7 16  1  0
  7 17  1  0
  7 18  1  0
  8 19  1  0
  9 20  1  0
  9 21  1  0
M  END
