
     RDKit          3D

 21 22  0  0  0  0  0  0  0  0999 V2000
   -2.2907    2.7163   -0.6456 C   0  0  0  0  0  0  0  0  0  0  0  0
   -1.7800    1.6467   -0.3480 C   0  0  0  0  0  0  0  0  0  0  0  0
   -1.1952    0.3663    0.0136 C   0  0  0  0  0  0  0  0  0  0  0  0
   -1.3692   -0.6671   -1.1044 C   0  0  0  0  0  0  0  0  0  0  0  0
   -0.3700   -1.7291   -0.6406 C   0  0  0  0  0  0  0  0  0  0  0  0
    0.8440   -0.8867   -0.3542 C   0  0  0  0  0  0  0  0  0  0  0  0
    1.0330   -0.3648    1.0247 C   0  0  0  0  0  0  0  0  0  0  0  0
    2.3962    0.1654    1.4039 C   0  0  0  0  0  0  0  0  0  0  0  0
    0.2986    0.4980    0.0514 C   0  0  0  0  0  0  0  0  0  0  0  0
   -2.7375    3.6393   -0.9214 H   0  0  0  0  0  0  0  0  0  0  0  0
   -1.6092   -0.0283    0.9678 H   0  0  0  0  0  0  0  0  0  0  0  0
   -0.9756   -0.2132   -2.0121 H   0  0  0  0  0  0  0  0  0  0  0  0
   -2.3874   -1.0501   -1.1538 H   0  0  0  0  0  0  0  0  0  0  0  0
   -0.2100   -2.5023   -1.3995 H   0  0  0  0  0  0  0  0  0  0  0  0
   -0.7543   -2.1987    0.2979 H   0  0  0  0  0  0  0  0  0  0  0  0
    1.7057   -0.9206   -1.0216 H   0  0  0  0  0  0  0  0  0  0  0  0
    0.4924   -0.8251    1.8690 H   0  0  0  0  0  0  0  0  0  0  0  0
    2.9492    0.3524    0.4650 H   0  0  0  0  0  0  0  0  0  0  0  0
    2.9391   -0.5012    2.0899 H   0  0  0  0  0  0  0  0  0  0  0  0
    2.2196    1.1701    1.8740 H   0  0  0  0  0  0  0  0  0  0  0  0
    0.8012    1.3325   -0.4560 H   0  0  0  0  0  0  0  0  0  0  0  0
  1  2  3  0
  2  3  1  0
  3  4  1  0
  4  5  1  0
  5  6  1  0
  6  7  1  0
  7  8  1  0
  7  9  1  0
  9  3  1  0
  9  6  1  0
  1 10  1  0
  3 11  1  0
  4 12  1  0
  4 13  1  0
  5 14  1  0
  5 15  1  0
  6 16  1  0
  7 17  1  0
  8 18  1  0
  8 19  1  0
  8 20  1  0
  9 21  1  0
M  END
