
     RDKit          3D

 19 19  0  0  0  0  0  0  0  0999 V2000
    3.6314    1.3556    0.2931 C   0  0  0  0  0  0  0  0  0  0  0  0
    2.5240    0.8559    0.1596 C   0  0  0  0  0  0  0  0  0  0  0  0
    1.2137    0.2596    0.0262 C   0  0  0  0  0  0  0  0  0  0  0  0
    0.2338    0.4601    0.8765 C   0  0  0  0  0  0  0  0  0  0  0  0
   -0.9407   -0.3104    0.4126 C   0  0  0  0  0  0  0  0  0  0  0  0
   -2.2332    0.3881    0.7677 C   0  0  0  0  0  0  0  0  0  0  0  0
   -0.7274   -0.4342   -1.0557 C   0  0  0  0  0  0  0  0  0  0  0  0
   -1.4049   -1.4856   -1.6387 O   0  0  0  0  0  0  0  0  0  0  0  0
    0.7925   -0.6512   -1.0945 C   0  0  0  0  0  0  0  0  0  0  0  0
    4.5890    1.7933    0.4249 H   0  0  0  0  0  0  0  0  0  0  0  0
    0.3106    1.0956    1.7654 H   0  0  0  0  0  0  0  0  0  0  0  0
   -0.9070   -1.3160    0.9126 H   0  0  0  0  0  0  0  0  0  0  0  0
   -2.1272    0.8241    1.7893 H   0  0  0  0  0  0  0  0  0  0  0  0
   -2.4834    1.1725    0.0399 H   0  0  0  0  0  0  0  0  0  0  0  0
   -3.0606   -0.3530    0.7356 H   0  0  0  0  0  0  0  0  0  0  0  0
   -0.9459    0.5366   -1.5408 H   0  0  0  0  0  0  0  0  0  0  0  0
   -0.7449   -2.1920   -1.8328 H   0  0  0  0  0  0  0  0  0  0  0  0
    1.0433   -1.6775   -0.7819 H   0  0  0  0  0  0  0  0  0  0  0  0
    1.2370   -0.3216   -2.0313 H   0  0  0  0  0  0  0  0  0  0  0  0
  1  2  3  0
  2  3  1  0
  3  4  2  0
  4  5  1  0
  5  6  1  0
  5  7  1  0
  7  8  1  0
  7  9  1  0
  9  3  1  0
  1 10  1  0
  4 11  1  0
  5 12  1  0
  6 13  1  0
  6 14  1  0
  6 15  1  0
  7 16  1  0
  8 17  1  0
  9 18  1  0
  9 19  1  0
M  END
