
     RDKit          3D

 17 18  0  0  0  0  0  0  0  0999 V2000
    2.4639    0.7510   -0.3476 C   0  0  0  0  0  0  0  0  0  0  0  0
    1.4382    0.1647   -0.0182 C   0  0  0  0  0  0  0  0  0  0  0  0
    0.2034   -0.5637    0.3992 C   0  0  0  0  0  0  0  0  0  0  0  0
   -0.3010    0.0456    1.6594 C   0  0  0  0  0  0  0  0  0  0  0  0
   -0.7697    1.3901    1.0617 C   0  0  0  0  0  0  0  0  0  0  0  0
   -0.7813    1.1767   -0.3450 O   0  0  0  0  0  0  0  0  0  0  0  0
   -1.1004   -0.1436   -0.4003 C   0  0  0  0  0  0  0  0  0  0  0  0
   -0.3886   -1.3395   -0.6062 C   0  0  0  0  0  0  0  0  0  0  0  0
    0.2715   -1.4854   -1.8505 O   0  0  0  0  0  0  0  0  0  0  0  0
    3.3387    1.2442   -0.6279 H   0  0  0  0  0  0  0  0  0  0  0  0
   -1.1814   -0.4812    2.0775 H   0  0  0  0  0  0  0  0  0  0  0  0
    0.4980    0.2110    2.4059 H   0  0  0  0  0  0  0  0  0  0  0  0
   -0.0063    2.1643    1.2910 H   0  0  0  0  0  0  0  0  0  0  0  0
   -1.7622    1.6193    1.4411 H   0  0  0  0  0  0  0  0  0  0  0  0
   -2.0824   -0.2783    0.1542 H   0  0  0  0  0  0  0  0  0  0  0  0
   -0.8343   -2.3246   -0.3287 H   0  0  0  0  0  0  0  0  0  0  0  0
    0.9939   -2.1505   -1.6677 H   0  0  0  0  0  0  0  0  0  0  0  0
  1  2  3  0
  2  3  1  0
  3  4  1  0
  4  5  1  0
  5  6  1  0
  6  7  1  0
  7  8  1  0
  8  9  1  0
  7  3  1  0
  8  3  1  0
  1 10  1  0
  4 11  1  0
  4 12  1  0
  5 13  1  0
  5 14  1  0
  7 15  1  0
  8 16  1  0
  9 17  1  0
M  END
