
     RDKit          3D

 19 19  0  0  0  0  0  0  0  0999 V2000
   -2.0743    1.3839   -0.0994 C   0  0  0  0  0  0  0  0  0  0  0  0
   -1.1897    0.5822   -0.1150 C   0  0  0  0  0  0  0  0  0  0  0  0
   -0.0832   -0.4048   -0.1574 C   0  0  0  0  0  0  0  0  0  0  0  0
   -0.4280   -1.7061   -0.5206 O   0  0  0  0  0  0  0  0  0  0  0  0
   -0.9780   -1.6652   -1.7953 C   0  0  0  0  0  0  0  0  0  0  0  0
    1.2147    0.0949   -0.6242 C   0  0  0  0  0  0  0  0  0  0  0  0
    0.9905   -0.2687    0.8483 C   0  0  0  0  0  0  0  0  0  0  0  0
    1.0160    0.8914    1.8101 C   0  0  0  0  0  0  0  0  0  0  0  0
   -0.1197    0.9381    2.6087 O   0  0  0  0  0  0  0  0  0  0  0  0
   -2.8767    2.1067   -0.0668 H   0  0  0  0  0  0  0  0  0  0  0  0
   -1.8761   -1.0223   -1.7851 H   0  0  0  0  0  0  0  0  0  0  0  0
   -0.2505   -1.2448   -2.5411 H   0  0  0  0  0  0  0  0  0  0  0  0
   -1.2383   -2.7169   -2.0758 H   0  0  0  0  0  0  0  0  0  0  0  0
    1.8820   -0.5931   -1.2096 H   0  0  0  0  0  0  0  0  0  0  0  0
    1.3894    1.1713   -0.8714 H   0  0  0  0  0  0  0  0  0  0  0  0
    1.4661   -1.1810    1.2096 H   0  0  0  0  0  0  0  0  0  0  0  0
    1.0624    1.8484    1.2338 H   0  0  0  0  0  0  0  0  0  0  0  0
    1.9113    0.7730    2.4520 H   0  0  0  0  0  0  0  0  0  0  0  0
    0.1822    1.0130    3.5449 H   0  0  0  0  0  0  0  0  0  0  0  0
  1  2  3  0
  2  3  1  0
  3  4  1  0
  4  5  1  0
  3  6  1  0
  6  7  1  0
  7  8  1  0
  8  9  1  0
  7  3  1  0
  1 10  1  0
  5 11  1  0
  5 12  1  0
  5 13  1  0
  6 14  1  0
  6 15  1  0
  7 16  1  0
  8 17  1  0
  8 18  1  0
  9 19  1  0
M  END
