
     RDKit          3D

 21 21  0  0  0  0  0  0  0  0999 V2000
    1.0095   -2.6270    1.4970 C   0  0  0  0  0  0  0  0  0  0  0  0
    0.4914   -1.8466    0.6276 C   0  0  0  0  0  0  0  0  0  0  0  0
   -0.0503   -1.0537   -0.2798 C   0  0  0  0  0  0  0  0  0  0  0  0
   -1.4290   -0.8317   -0.7316 C   0  0  0  0  0  0  0  0  0  0  0  0
   -0.9923    0.6711   -0.9438 C   0  0  0  0  0  0  0  0  0  0  0  0
   -0.2247    0.9975   -2.1602 C   0  0  0  0  0  0  0  0  0  0  0  0
   -0.1555    0.4781    0.2518 C   0  0  0  0  0  0  0  0  0  0  0  0
    1.1193    0.8492    0.4255 O   0  0  0  0  0  0  0  0  0  0  0  0
    1.2652    1.1275    1.8074 C   0  0  0  0  0  0  0  0  0  0  0  0
    1.5019   -3.3445    2.2888 H   0  0  0  0  0  0  0  0  0  0  0  0
    0.6251   -0.9888   -1.2583 H   0  0  0  0  0  0  0  0  0  0  0  0
   -1.7596   -1.2126   -1.7158 H   0  0  0  0  0  0  0  0  0  0  0  0
   -2.2641   -0.8147   -0.0311 H   0  0  0  0  0  0  0  0  0  0  0  0
   -1.8645    1.3213   -0.8406 H   0  0  0  0  0  0  0  0  0  0  0  0
   -0.6822    0.7303   -3.1470 H   0  0  0  0  0  0  0  0  0  0  0  0
   -0.0722    2.1163   -2.1839 H   0  0  0  0  0  0  0  0  0  0  0  0
    0.7534    0.5277   -2.1575 H   0  0  0  0  0  0  0  0  0  0  0  0
   -0.8308    0.4150    1.1696 H   0  0  0  0  0  0  0  0  0  0  0  0
    0.7015    2.0748    1.9809 H   0  0  0  0  0  0  0  0  0  0  0  0
    0.5847    0.3241    2.3162 H   0  0  0  0  0  0  0  0  0  0  0  0
    2.2730    1.0868    2.1304 H   0  0  0  0  0  0  0  0  0  0  0  0
  1  2  3  0
  2  3  1  0
  3  4  1  0
  4  5  1  0
  5  6  1  0
  5  7  1  0
  7  8  1  0
  8  9  1  0
  7  3  1  0
  1 10  1  0
  3 11  1  0
  4 12  1  0
  4 13  1  0
  5 14  1  0
  6 15  1  0
  6 16  1  0
  6 17  1  0
  7 18  1  0
  9 19  1  0
  9 20  1  0
  9 21  1  0
M  END
