
     RDKit          3D

 17 19  0  0  0  0  0  0  0  0999 V2000
    2.7598    1.4359   -1.1983 C   0  0  0  0  0  0  0  0  0  0  0  0
    1.7983    0.8911   -0.7410 C   0  0  0  0  0  0  0  0  0  0  0  0
    0.6540    0.2231   -0.2064 C   0  0  0  0  0  0  0  0  0  0  0  0
    0.7795   -0.4874    1.1486 C   0  0  0  0  0  0  0  0  0  0  0  0
   -0.4856   -0.7505    1.5897 O   0  0  0  0  0  0  0  0  0  0  0  0
   -1.4139   -0.1985    0.7488 C   0  0  0  0  0  0  0  0  0  0  0  0
   -1.5474   -1.0755   -0.5045 C   0  0  0  0  0  0  0  0  0  0  0  0
   -0.3909   -0.3434   -1.1058 C   0  0  0  0  0  0  0  0  0  0  0  0
   -0.6749    0.7820   -0.1045 C   0  0  0  0  0  0  0  0  0  0  0  0
    3.6217    1.9167   -1.6252 H   0  0  0  0  0  0  0  0  0  0  0  0
    1.4006   -1.4024    1.0101 H   0  0  0  0  0  0  0  0  0  0  0  0
    1.2564    0.2481    1.8324 H   0  0  0  0  0  0  0  0  0  0  0  0
   -2.3641    0.1194    1.1809 H   0  0  0  0  0  0  0  0  0  0  0  0
   -2.5437   -0.8165   -0.9695 H   0  0  0  0  0  0  0  0  0  0  0  0
   -1.4283   -2.1468   -0.3279 H   0  0  0  0  0  0  0  0  0  0  0  0
   -0.3478   -0.0840   -2.1635 H   0  0  0  0  0  0  0  0  0  0  0  0
   -1.0736    1.6885   -0.4862 H   0  0  0  0  0  0  0  0  0  0  0  0
  1  2  3  0
  2  3  1  0
  3  4  1  0
  4  5  1  0
  5  6  1  0
  6  7  1  0
  7  8  1  0
  8  9  1  0
  8  3  1  0
  9  3  1  0
  9  6  1  0
  1 10  1  0
  4 11  1  0
  4 12  1  0
  6 13  1  0
  7 14  1  0
  7 15  1  0
  8 16  1  0
  9 17  1  0
M  END
