
     RDKit          3D

 17 17  0  0  0  0  0  0  0  0999 V2000
    2.3065   -0.7320    2.5297 C   0  0  0  0  0  0  0  0  0  0  0  0
    1.3591   -0.4943    1.6553 C   0  0  0  0  0  0  0  0  0  0  0  0
    0.4052   -0.2626    0.8052 C   0  0  0  0  0  0  0  0  0  0  0  0
   -0.4818    0.7642    0.9576 C   0  0  0  0  0  0  0  0  0  0  0  0
   -1.5302    0.9435   -0.0724 C   0  0  0  0  0  0  0  0  0  0  0  0
   -0.8432    0.8924   -1.4283 C   0  0  0  0  0  0  0  0  0  0  0  0
   -1.1116    1.7192   -2.2457 O   0  0  0  0  0  0  0  0  0  0  0  0
    0.1166   -0.1859   -1.6361 C   0  0  0  0  0  0  0  0  0  0  0  0
    0.1913   -1.1144   -0.4474 C   0  0  0  0  0  0  0  0  0  0  0  0
    3.0784   -0.9381    3.2260 H   0  0  0  0  0  0  0  0  0  0  0  0
   -0.4416    1.4325    1.7849 H   0  0  0  0  0  0  0  0  0  0  0  0
   -2.0404    1.8854    0.1095 H   0  0  0  0  0  0  0  0  0  0  0  0
   -2.1631    0.0315   -0.0692 H   0  0  0  0  0  0  0  0  0  0  0  0
   -0.1520   -0.7689   -2.5261 H   0  0  0  0  0  0  0  0  0  0  0  0
    1.1125    0.2873   -1.8253 H   0  0  0  0  0  0  0  0  0  0  0  0
   -0.7892   -1.6008   -0.3001 H   0  0  0  0  0  0  0  0  0  0  0  0
    0.9835   -1.8589   -0.5175 H   0  0  0  0  0  0  0  0  0  0  0  0
  1  2  3  0
  2  3  1  0
  3  4  2  0
  4  5  1  0
  5  6  1  0
  6  7  2  0
  6  8  1  0
  8  9  1  0
  9  3  1  0
  1 10  1  0
  4 11  1  0
  5 12  1  0
  5 13  1  0
  8 14  1  0
  8 15  1  0
  9 16  1  0
  9 17  1  0
M  END
