
     RDKit          3D

 17 17  0  0  0  0  0  0  0  0999 V2000
   -1.3403   -2.2000    0.7017 C   0  0  0  0  0  0  0  0  0  0  0  0
   -0.8185   -1.1178    0.8105 C   0  0  0  0  0  0  0  0  0  0  0  0
   -0.1951    0.1956    0.9492 C   0  0  0  0  0  0  0  0  0  0  0  0
   -1.2278    1.2528    1.0650 C   0  0  0  0  0  0  0  0  0  0  0  0
   -2.0578    2.1075    1.1377 C   0  0  0  0  0  0  0  0  0  0  0  0
    0.6659    0.4291   -0.2750 C   0  0  0  0  0  0  0  0  0  0  0  0
    1.3201    1.6576   -0.2637 O   0  0  0  0  0  0  0  0  0  0  0  0
    1.4177   -0.7996   -0.7354 C   0  0  0  0  0  0  0  0  0  0  0  0
    0.3304   -0.1821   -1.5738 C   0  0  0  0  0  0  0  0  0  0  0  0
   -1.7960   -3.1705    0.5931 H   0  0  0  0  0  0  0  0  0  0  0  0
    0.4527    0.2786    1.8397 H   0  0  0  0  0  0  0  0  0  0  0  0
   -2.7951    2.8856    1.2144 H   0  0  0  0  0  0  0  0  0  0  0  0
    2.2546    1.5812    0.0726 H   0  0  0  0  0  0  0  0  0  0  0  0
    2.4771   -0.6721   -1.0368 H   0  0  0  0  0  0  0  0  0  0  0  0
    1.1966   -1.7805   -0.2991 H   0  0  0  0  0  0  0  0  0  0  0  0
   -0.5965   -0.7974   -1.7163 H   0  0  0  0  0  0  0  0  0  0  0  0
    0.7122    0.3320   -2.4837 H   0  0  0  0  0  0  0  0  0  0  0  0
  1  2  3  0
  2  3  1  0
  3  4  1  0
  4  5  3  0
  3  6  1  0
  6  7  1  0
  6  8  1  0
  8  9  1  0
  9  6  1  0
  1 10  1  0
  3 11  1  0
  5 12  1  0
  7 13  1  0
  8 14  1  0
  8 15  1  0
  9 16  1  0
  9 17  1  0
M  END
