
     RDKit          3D

 18 17  0  0  0  0  0  0  0  0999 V2000
    0.8471    2.6234    0.4784 C   0  0  0  0  0  0  0  0  0  0  0  0
    0.7830    1.4503    0.1387 C   0  0  0  0  0  0  0  0  0  0  0  0
    0.6849    0.0556   -0.2524 C   0  0  0  0  0  0  0  0  0  0  0  0
    1.1736   -0.8302    0.8483 C   0  0  0  0  0  0  0  0  0  0  0  0
    1.5231   -0.1284   -1.3552 O   0  0  0  0  0  0  0  0  0  0  0  0
   -0.7164   -0.2619   -0.6952 C   0  0  0  0  0  0  0  0  0  0  0  0
   -1.7425   -0.0114    0.3764 C   0  0  0  0  0  0  0  0  0  0  0  0
   -0.8551   -1.5506   -1.1476 O   0  0  0  0  0  0  0  0  0  0  0  0
    0.9190    3.6413    0.7642 H   0  0  0  0  0  0  0  0  0  0  0  0
    0.5154   -0.8121    1.7431 H   0  0  0  0  0  0  0  0  0  0  0  0
    2.1589   -0.4215    1.1865 H   0  0  0  0  0  0  0  0  0  0  0  0
    1.3835   -1.8614    0.4932 H   0  0  0  0  0  0  0  0  0  0  0  0
    2.1927   -0.8262   -1.2177 H   0  0  0  0  0  0  0  0  0  0  0  0
   -0.9557    0.4184   -1.5414 H   0  0  0  0  0  0  0  0  0  0  0  0
   -2.7407   -0.0087   -0.1373 H   0  0  0  0  0  0  0  0  0  0  0  0
   -1.6406    0.9649    0.8713 H   0  0  0  0  0  0  0  0  0  0  0  0
   -1.8057   -0.8584    1.1078 H   0  0  0  0  0  0  0  0  0  0  0  0
   -1.7246   -1.5830   -1.6610 H   0  0  0  0  0  0  0  0  0  0  0  0
  1  2  3  0
  2  3  1  0
  3  4  1  0
  3  5  1  0
  3  6  1  0
  6  7  1  0
  6  8  1  0
  1  9  1  0
  4 10  1  0
  4 11  1  0
  4 12  1  0
  5 13  1  0
  6 14  1  0
  7 15  1  0
  7 16  1  0
  7 17  1  0
  8 18  1  0
M  END
