
     RDKit          3D

 19 19  0  0  0  0  0  0  0  0999 V2000
   -2.9825    1.2869    0.1522 C   0  0  0  0  0  0  0  0  0  0  0  0
   -2.1396    0.6102   -0.3647 C   0  0  0  0  0  0  0  0  0  0  0  0
   -1.1152   -0.2415   -1.0155 C   0  0  0  0  0  0  0  0  0  0  0  0
   -0.4689   -1.1843   -0.0480 C   0  0  0  0  0  0  0  0  0  0  0  0
    0.6418   -0.2176    0.1657 C   0  0  0  0  0  0  0  0  0  0  0  0
    0.5669    0.6566    1.4016 C   0  0  0  0  0  0  0  0  0  0  0  0
    1.9821   -0.7751    0.0473 C   0  0  0  0  0  0  0  0  0  0  0  0
    3.1224   -1.2346   -0.0511 C   0  0  0  0  0  0  0  0  0  0  0  0
    0.2348    0.4785   -1.1115 C   0  0  0  0  0  0  0  0  0  0  0  0
   -3.7457    1.8902    0.6335 H   0  0  0  0  0  0  0  0  0  0  0  0
   -1.4477   -0.6531   -1.9701 H   0  0  0  0  0  0  0  0  0  0  0  0
   -1.1338   -1.3925    0.8350 H   0  0  0  0  0  0  0  0  0  0  0  0
   -0.0993   -2.1401   -0.4996 H   0  0  0  0  0  0  0  0  0  0  0  0
    1.2284    1.5409    1.1821 H   0  0  0  0  0  0  0  0  0  0  0  0
   -0.4516    1.0631    1.4788 H   0  0  0  0  0  0  0  0  0  0  0  0
    0.8155    0.1314    2.3207 H   0  0  0  0  0  0  0  0  0  0  0  0
    4.1021   -1.6150   -0.1225 H   0  0  0  0  0  0  0  0  0  0  0  0
    0.0838    1.5759   -1.0191 H   0  0  0  0  0  0  0  0  0  0  0  0
    0.8063    0.2202   -2.0147 H   0  0  0  0  0  0  0  0  0  0  0  0
  1  2  3  0
  2  3  1  0
  3  4  1  0
  4  5  1  0
  5  6  1  0
  5  7  1  0
  7  8  3  0
  5  9  1  0
  9  3  1  0
  1 10  1  0
  3 11  1  0
  4 12  1  0
  4 13  1  0
  6 14  1  0
  6 15  1  0
  6 16  1  0
  8 17  1  0
  9 18  1  0
  9 19  1  0
M  END
