
     RDKit          3D

 19 19  0  0  0  0  0  0  0  0999 V2000
    2.0373    1.4722    0.1867 C   0  0  0  0  0  0  0  0  0  0  0  0
    1.4890    0.4838   -0.0358 C   0  0  0  0  0  0  0  0  0  0  0  0
    0.7871   -0.8300   -0.3351 C   0  0  0  0  0  0  0  0  0  0  0  0
    0.5490   -0.9514   -1.8088 C   0  0  0  0  0  0  0  0  0  0  0  0
   -0.2351    0.0929   -2.3067 O   0  0  0  0  0  0  0  0  0  0  0  0
   -0.4360   -0.8478    0.5129 C   0  0  0  0  0  0  0  0  0  0  0  0
   -1.4329    0.2363    0.2998 C   0  0  0  0  0  0  0  0  0  0  0  0
   -1.1417    0.6396    1.7392 C   0  0  0  0  0  0  0  0  0  0  0  0
   -0.1071   -0.2874    1.7796 O   0  0  0  0  0  0  0  0  0  0  0  0
    2.5615    2.3985    0.4128 H   0  0  0  0  0  0  0  0  0  0  0  0
    1.4520   -1.6604   -0.0238 H   0  0  0  0  0  0  0  0  0  0  0  0
    1.5046   -0.9240   -2.3849 H   0  0  0  0  0  0  0  0  0  0  0  0
   -0.0219   -1.8907   -2.0574 H   0  0  0  0  0  0  0  0  0  0  0  0
    0.2737    0.9445   -2.3793 H   0  0  0  0  0  0  0  0  0  0  0  0
   -0.8667   -1.8681    0.7471 H   0  0  0  0  0  0  0  0  0  0  0  0
   -2.4925   -0.0860    0.2071 H   0  0  0  0  0  0  0  0  0  0  0  0
   -1.1720    1.0260   -0.4329 H   0  0  0  0  0  0  0  0  0  0  0  0
   -0.8232    1.6999    1.7775 H   0  0  0  0  0  0  0  0  0  0  0  0
   -1.9248    0.3519    2.4617 H   0  0  0  0  0  0  0  0  0  0  0  0
  1  2  3  0
  2  3  1  0
  3  4  1  0
  4  5  1  0
  3  6  1  0
  6  7  1  0
  7  8  1  0
  8  9  1  0
  9  6  1  0
  1 10  1  0
  3 11  1  0
  4 12  1  0
  4 13  1  0
  5 14  1  0
  6 15  1  0
  7 16  1  0
  7 17  1  0
  8 18  1  0
  8 19  1  0
M  END
