
     RDKit          3D

 19 19  0  0  0  0  0  0  0  0999 V2000
    3.4120   -0.6846    0.3251 C   0  0  0  0  0  0  0  0  0  0  0  0
    2.5869    0.1357    0.0061 C   0  0  0  0  0  0  0  0  0  0  0  0
    1.5859    1.1378   -0.3563 C   0  0  0  0  0  0  0  0  0  0  0  0
    0.2323    0.5676   -0.1879 C   0  0  0  0  0  0  0  0  0  0  0  0
    0.0891   -0.6833    0.2371 C   0  0  0  0  0  0  0  0  0  0  0  0
   -1.3498   -1.1300    0.3616 C   0  0  0  0  0  0  0  0  0  0  0  0
   -2.0268   -0.7286   -0.9203 C   0  0  0  0  0  0  0  0  0  0  0  0
   -1.9245    0.6030   -1.2220 O   0  0  0  0  0  0  0  0  0  0  0  0
   -1.0253    1.3122   -0.4672 C   0  0  0  0  0  0  0  0  0  0  0  0
    4.1487   -1.4108    0.6274 H   0  0  0  0  0  0  0  0  0  0  0  0
    1.7288    1.4729   -1.4214 H   0  0  0  0  0  0  0  0  0  0  0  0
    1.6758    2.0571    0.2823 H   0  0  0  0  0  0  0  0  0  0  0  0
    0.9155   -1.3394    0.4777 H   0  0  0  0  0  0  0  0  0  0  0  0
   -1.8263   -0.6444    1.2315 H   0  0  0  0  0  0  0  0  0  0  0  0
   -1.4084   -2.2099    0.4838 H   0  0  0  0  0  0  0  0  0  0  0  0
   -3.0775   -1.1053   -0.8708 H   0  0  0  0  0  0  0  0  0  0  0  0
   -1.5117   -1.2921   -1.7521 H   0  0  0  0  0  0  0  0  0  0  0  0
   -0.7450    2.2254   -1.0502 H   0  0  0  0  0  0  0  0  0  0  0  0
   -1.4797    1.7165    0.4803 H   0  0  0  0  0  0  0  0  0  0  0  0
  1  2  3  0
  2  3  1  0
  3  4  1  0
  4  5  2  0
  5  6  1  0
  6  7  1  0
  7  8  1  0
  8  9  1  0
  9  4  1  0
  1 10  1  0
  3 11  1  0
  3 12  1  0
  5 13  1  0
  6 14  1  0
  6 15  1  0
  7 16  1  0
  7 17  1  0
  9 18  1  0
  9 19  1  0
M  END
