
     RDKit          3D

 17 16  0  0  0  0  0  0  0  0999 V2000
   -2.8587    3.8819   -0.0808 C   0  0  0  0  0  0  0  0  0  0  0  0
   -2.3213    2.6779   -0.2510 C   0  0  0  0  0  0  0  0  0  0  0  0
   -1.7048    1.3374   -0.4620 C   0  0  0  0  0  0  0  0  0  0  0  0
   -1.2596    0.4006   -0.6000 C   0  0  0  0  0  0  0  0  0  0  0  0
   -0.6691   -0.8872   -0.8049 C   0  0  0  0  0  0  0  0  0  0  0  0
   -1.1468   -2.1371   -0.4638 C   0  0  0  0  0  0  0  0  0  0  0  0
    0.7993   -0.6351   -0.3491 C   0  0  0  0  0  0  0  0  0  0  0  0
    2.0259   -0.4092    0.0345 C   0  0  0  0  0  0  0  0  0  0  0  0
    3.2285   -0.1682    0.4102 C   0  0  0  0  0  0  0  0  0  0  0  0
   -3.2447    4.7723    0.0565 H   0  0  0  0  0  0  0  0  0  0  0  0
   -0.5246   -0.8878   -1.9792 H   0  0  0  0  0  0  0  0  0  0  0  0
   -1.4578   -2.7287   -1.3758 H   0  0  0  0  0  0  0  0  0  0  0  0
   -1.9640   -2.2884    0.2624 H   0  0  0  0  0  0  0  0  0  0  0  0
   -0.1971   -2.7643   -0.0480 H   0  0  0  0  0  0  0  0  0  0  0  0
    3.6029   -0.0890    1.4717 H   0  0  0  0  0  0  0  0  0  0  0  0
    3.6349    0.8315   -0.1279 H   0  0  0  0  0  0  0  0  0  0  0  0
    4.0570   -0.9067    0.0629 H   0  0  0  0  0  0  0  0  0  0  0  0
  1  2  3  0
  2  3  1  0
  3  4  3  0
  4  5  1  0
  5  6  1  0
  5  7  1  0
  7  8  3  0
  8  9  1  0
  1 10  1  0
  5 11  1  0
  6 12  1  0
  6 13  1  0
  6 14  1  0
  9 15  1  0
  9 16  1  0
  9 17  1  0
M  END
