
     RDKit          3D

 17 17  0  0  0  0  0  0  0  0999 V2000
    3.5312    0.6545    1.7760 C   0  0  0  0  0  0  0  0  0  0  0  0
    3.0468    0.7697    0.6645 C   0  0  0  0  0  0  0  0  0  0  0  0
    2.4488    0.9257   -0.6624 C   0  0  0  0  0  0  0  0  0  0  0  0
    1.0671    0.4184   -0.6276 C   0  0  0  0  0  0  0  0  0  0  0  0
   -0.0772    0.0117   -0.5820 C   0  0  0  0  0  0  0  0  0  0  0  0
   -1.4694   -0.4575   -0.5267 C   0  0  0  0  0  0  0  0  0  0  0  0
   -2.4640    0.4282    0.1878 C   0  0  0  0  0  0  0  0  0  0  0  0
   -1.7862   -1.8134   -0.7638 C   0  0  0  0  0  0  0  0  0  0  0  0
   -1.9863   -0.8695   -1.8604 O   0  0  0  0  0  0  0  0  0  0  0  0
    3.9313    0.5454    2.7310 H   0  0  0  0  0  0  0  0  0  0  0  0
    2.4945    1.9656   -0.9829 H   0  0  0  0  0  0  0  0  0  0  0  0
    3.0794    0.3050   -1.3557 H   0  0  0  0  0  0  0  0  0  0  0  0
   -2.8358    1.2579   -0.4282 H   0  0  0  0  0  0  0  0  0  0  0  0
   -1.9243    0.8833    1.0442 H   0  0  0  0  0  0  0  0  0  0  0  0
   -3.2854   -0.2143    0.5905 H   0  0  0  0  0  0  0  0  0  0  0  0
   -1.0095   -2.5793   -0.9564 H   0  0  0  0  0  0  0  0  0  0  0  0
   -2.7612   -2.2315   -0.3823 H   0  0  0  0  0  0  0  0  0  0  0  0
  1  2  3  0
  2  3  1  0
  3  4  1  0
  4  5  3  0
  5  6  1  0
  6  7  1  0
  6  8  1  0
  8  9  1  0
  9  6  1  0
  1 10  1  0
  3 11  1  0
  3 12  1  0
  7 13  1  0
  7 14  1  0
  7 15  1  0
  8 16  1  0
  8 17  1  0
M  END
