
     RDKit          3D

 21 20  0  0  0  0  0  0  0  0999 V2000
    3.0242    1.5337   -0.5754 C   0  0  0  0  0  0  0  0  0  0  0  0
    2.3756    0.7542    0.0918 C   0  0  0  0  0  0  0  0  0  0  0  0
    1.5903   -0.1948    0.8720 C   0  0  0  0  0  0  0  0  0  0  0  0
    1.7489   -1.5582    0.2090 C   0  0  0  0  0  0  0  0  0  0  0  0
    0.1624    0.2180    0.8735 C   0  0  0  0  0  0  0  0  0  0  0  0
   -0.3554    0.4579    1.9473 O   0  0  0  0  0  0  0  0  0  0  0  0
   -0.5341    0.3098   -0.4276 C   0  0  0  0  0  0  0  0  0  0  0  0
   -1.9657    0.7334   -0.3084 C   0  0  0  0  0  0  0  0  0  0  0  0
   -2.8047   -0.1881    0.5121 C   0  0  0  0  0  0  0  0  0  0  0  0
    3.5748    2.2227   -1.1558 H   0  0  0  0  0  0  0  0  0  0  0  0
    2.0111   -0.2970    1.8930 H   0  0  0  0  0  0  0  0  0  0  0  0
    0.9451   -2.2304    0.5852 H   0  0  0  0  0  0  0  0  0  0  0  0
    2.7237   -1.9993    0.4766 H   0  0  0  0  0  0  0  0  0  0  0  0
    1.6500   -1.3978   -0.8963 H   0  0  0  0  0  0  0  0  0  0  0  0
   -0.4897   -0.6898   -0.9043 H   0  0  0  0  0  0  0  0  0  0  0  0
   -0.0110    1.0784   -1.0389 H   0  0  0  0  0  0  0  0  0  0  0  0
   -2.0150    1.7843    0.0783 H   0  0  0  0  0  0  0  0  0  0  0  0
   -2.3870    0.7395   -1.3419 H   0  0  0  0  0  0  0  0  0  0  0  0
   -2.2972   -0.6872    1.3299 H   0  0  0  0  0  0  0  0  0  0  0  0
   -3.2942   -0.9928   -0.1078 H   0  0  0  0  0  0  0  0  0  0  0  0
   -3.6521    0.4036    0.9290 H   0  0  0  0  0  0  0  0  0  0  0  0
  1  2  3  0
  2  3  1  0
  3  4  1  0
  3  5  1  0
  5  6  2  0
  5  7  1  0
  7  8  1  0
  8  9  1  0
  1 10  1  0
  3 11  1  0
  4 12  1  0
  4 13  1  0
  4 14  1  0
  7 15  1  0
  7 16  1  0
  8 17  1  0
  8 18  1  0
  9 19  1  0
  9 20  1  0
  9 21  1  0
M  END
