
     RDKit          3D

 16 17  0  0  0  0  0  0  0  0999 V2000
    2.8079    0.6130    0.6239 C   0  0  0  0  0  0  0  0  0  0  0  0
    1.7424    0.1370    0.3706 C   0  0  0  0  0  0  0  0  0  0  0  0
    0.4479   -0.4188    0.0538 C   0  0  0  0  0  0  0  0  0  0  0  0
   -0.1602   -0.2406   -1.3070 C   0  0  0  0  0  0  0  0  0  0  0  0
   -1.4351    0.2100   -0.6341 C   0  0  0  0  0  0  0  0  0  0  0  0
   -1.7386    1.5728   -0.8272 O   0  0  0  0  0  0  0  0  0  0  0  0
   -0.7850    0.0256    0.7204 C   0  0  0  0  0  0  0  0  0  0  0  0
   -0.1859   -1.3026    1.0524 C   0  0  0  0  0  0  0  0  0  0  0  0
    3.7633    1.0581    0.8524 H   0  0  0  0  0  0  0  0  0  0  0  0
   -0.2237   -1.2171   -1.8233 H   0  0  0  0  0  0  0  0  0  0  0  0
    0.3402    0.5740   -1.8506 H   0  0  0  0  0  0  0  0  0  0  0  0
   -2.3247   -0.3926   -0.8289 H   0  0  0  0  0  0  0  0  0  0  0  0
   -1.0046    2.1469   -0.5226 H   0  0  0  0  0  0  0  0  0  0  0  0
   -0.8234    0.8316    1.4675 H   0  0  0  0  0  0  0  0  0  0  0  0
   -0.7219   -2.1941    0.6334 H   0  0  0  0  0  0  0  0  0  0  0  0
    0.3014   -1.4034    2.0192 H   0  0  0  0  0  0  0  0  0  0  0  0
  1  2  3  0
  2  3  1  0
  3  4  1  0
  4  5  1  0
  5  6  1  0
  5  7  1  0
  7  8  1  0
  7  3  1  0
  8  3  1  0
  1  9  1  0
  4 10  1  0
  4 11  1  0
  5 12  1  0
  6 13  1  0
  7 14  1  0
  8 15  1  0
  8 16  1  0
M  END
