
     RDKit          3D

 15 15  0  0  0  0  0  0  0  0999 V2000
    2.9211   -0.4650   -1.5490 C   0  0  0  0  0  0  0  0  0  0  0  0
    1.7834   -0.3801   -1.1590 C   0  0  0  0  0  0  0  0  0  0  0  0
    0.3947   -0.2829   -0.6566 C   0  0  0  0  0  0  0  0  0  0  0  0
    0.1658    1.0755   -0.3906 O   0  0  0  0  0  0  0  0  0  0  0  0
   -1.1255    1.3264    0.0055 C   0  0  0  0  0  0  0  0  0  0  0  0
   -1.5615    0.4432    1.1291 C   0  0  0  0  0  0  0  0  0  0  0  0
   -0.9090   -0.6644    1.4523 C   0  0  0  0  0  0  0  0  0  0  0  0
    0.2675   -0.9870    0.6534 C   0  0  0  0  0  0  0  0  0  0  0  0
    1.1444   -1.8125    1.0264 O   0  0  0  0  0  0  0  0  0  0  0  0
    3.9260   -0.5495   -1.9106 H   0  0  0  0  0  0  0  0  0  0  0  0
   -0.3346   -0.6496   -1.3997 H   0  0  0  0  0  0  0  0  0  0  0  0
   -1.1711    2.3663    0.3776 H   0  0  0  0  0  0  0  0  0  0  0  0
   -1.8709    1.1533   -0.8129 H   0  0  0  0  0  0  0  0  0  0  0  0
   -2.4317    0.7401    1.6719 H   0  0  0  0  0  0  0  0  0  0  0  0
   -1.1984   -1.3138    2.2501 H   0  0  0  0  0  0  0  0  0  0  0  0
  1  2  3  0
  2  3  1  0
  3  4  1  0
  4  5  1  0
  5  6  1  0
  6  7  2  0
  7  8  1  0
  8  9  2  0
  8  3  1  0
  1 10  1  0
  3 11  1  0
  5 12  1  0
  5 13  1  0
  6 14  1  0
  7 15  1  0
M  END
