
     RDKit          3D

 17 18  0  0  0  0  0  0  0  0999 V2000
    2.0661   -2.2476   -1.5023 C   0  0  0  0  0  0  0  0  0  0  0  0
    0.9513   -1.3694   -1.4947 C   0  0  0  0  0  0  0  0  0  0  0  0
   -0.4339   -0.2950   -1.4567 C   0  0  0  0  0  0  0  0  0  0  0  0
   -0.4956   -0.4181    0.1136 C   0  0  0  0  0  0  0  0  0  0  0  0
   -1.3447    0.5682    0.7322 C   0  0  0  0  0  0  0  0  0  0  0  0
   -0.2660    1.5915    0.2321 C   0  0  0  0  0  0  0  0  0  0  0  0
    0.4699    0.3842    0.7507 C   0  0  0  0  0  0  0  0  0  0  0  0
   -0.5081    0.6590    1.9113 C   0  0  0  0  0  0  0  0  0  0  0  0
   -0.3522    0.8080    3.0562 O   0  0  0  0  0  0  0  0  0  0  0  0
    3.0353   -2.9858   -1.5001 H   0  0  0  0  0  0  0  0  0  0  0  0
    0.1106    0.4648   -1.7960 H   0  0  0  0  0  0  0  0  0  0  0  0
   -1.0640   -1.0215   -1.8747 H   0  0  0  0  0  0  0  0  0  0  0  0
   -0.7261   -1.5046    0.3098 H   0  0  0  0  0  0  0  0  0  0  0  0
   -2.3316    0.7478    0.6591 H   0  0  0  0  0  0  0  0  0  0  0  0
   -0.2889    1.9477   -0.7144 H   0  0  0  0  0  0  0  0  0  0  0  0
   -0.2660    2.4875    0.9806 H   0  0  0  0  0  0  0  0  0  0  0  0
    1.4441    0.1833    1.0082 H   0  0  0  0  0  0  0  0  0  0  0  0
  1  2  3  0
  2  3  1  0
  3  4  1  0
  4  5  1  0
  5  6  1  0
  6  7  1  0
  7  8  1  0
  8  9  2  0
  7  4  1  0
  8  5  1  0
  1 10  1  0
  3 11  1  0
  3 12  1  0
  4 13  1  0
  5 14  1  0
  6 15  1  0
  6 16  1  0
  7 17  1  0
M  END
