
     RDKit          3D

 21 21  0  0  0  0  0  0  0  0999 V2000
    3.4545   -0.8576    1.7031 C   0  0  0  0  0  0  0  0  0  0  0  0
    2.2881   -0.9453    1.4193 C   0  0  0  0  0  0  0  0  0  0  0  0
    0.8528   -1.0317    1.0555 C   0  0  0  0  0  0  0  0  0  0  0  0
    0.5792   -2.4754    0.6852 C   0  0  0  0  0  0  0  0  0  0  0  0
    0.5577   -0.1314   -0.1263 C   0  0  0  0  0  0  0  0  0  0  0  0
    0.7863    1.2166   -0.0291 O   0  0  0  0  0  0  0  0  0  0  0  0
   -0.5946    0.8463   -0.0335 C   0  0  0  0  0  0  0  0  0  0  0  0
   -1.2787    1.2535   -1.3197 C   0  0  0  0  0  0  0  0  0  0  0  0
   -2.3994    2.2397   -0.9646 C   0  0  0  0  0  0  0  0  0  0  0  0
    4.4947   -0.7900    1.9719 H   0  0  0  0  0  0  0  0  0  0  0  0
    0.2514   -0.7078    1.9293 H   0  0  0  0  0  0  0  0  0  0  0  0
    1.0217   -2.6233   -0.3399 H   0  0  0  0  0  0  0  0  0  0  0  0
   -0.4768   -2.7434    0.6975 H   0  0  0  0  0  0  0  0  0  0  0  0
    1.1877   -3.1230    1.3816 H   0  0  0  0  0  0  0  0  0  0  0  0
    0.6013   -0.6559   -1.1000 H   0  0  0  0  0  0  0  0  0  0  0  0
   -1.0763    1.0363    0.9279 H   0  0  0  0  0  0  0  0  0  0  0  0
   -1.7006    0.3384   -1.7775 H   0  0  0  0  0  0  0  0  0  0  0  0
   -0.6060    1.7163   -2.0452 H   0  0  0  0  0  0  0  0  0  0  0  0
   -3.2154    1.6737   -0.4655 H   0  0  0  0  0  0  0  0  0  0  0  0
   -2.0113    3.0533   -0.3215 H   0  0  0  0  0  0  0  0  0  0  0  0
   -2.7164    2.7107   -1.9169 H   0  0  0  0  0  0  0  0  0  0  0  0
  1  2  3  0
  2  3  1  0
  3  4  1  0
  3  5  1  0
  5  6  1  0
  6  7  1  0
  7  8  1  0
  8  9  1  0
  7  5  1  0
  1 10  1  0
  3 11  1  0
  4 12  1  0
  4 13  1  0
  4 14  1  0
  5 15  1  0
  7 16  1  0
  8 17  1  0
  8 18  1  0
  9 19  1  0
  9 20  1  0
  9 21  1  0
M  END
