
     RDKit          3D

 23 23  0  0  0  0  0  0  0  0999 V2000
   -2.4124   -2.6247    1.6296 C   0  0  0  0  0  0  0  0  0  0  0  0
   -1.5703   -2.1464    0.9153 C   0  0  0  0  0  0  0  0  0  0  0  0
   -0.5667   -1.5795    0.0534 C   0  0  0  0  0  0  0  0  0  0  0  0
   -1.1728   -0.7828   -1.1099 C   0  0  0  0  0  0  0  0  0  0  0  0
    0.1067   -0.1177   -1.6381 C   0  0  0  0  0  0  0  0  0  0  0  0
    0.8318    0.2615   -0.3694 C   0  0  0  0  0  0  0  0  0  0  0  0
    0.7953    1.7671   -0.2207 C   0  0  0  0  0  0  0  0  0  0  0  0
    1.5177    2.1421    1.0441 C   0  0  0  0  0  0  0  0  0  0  0  0
    0.1294   -0.4284    0.7749 C   0  0  0  0  0  0  0  0  0  0  0  0
   -3.1578   -3.0497    2.2827 H   0  0  0  0  0  0  0  0  0  0  0  0
    0.2003   -2.2785   -0.2993 H   0  0  0  0  0  0  0  0  0  0  0  0
   -1.7865   -0.0001   -0.6593 H   0  0  0  0  0  0  0  0  0  0  0  0
   -1.6479   -1.4132   -1.8504 H   0  0  0  0  0  0  0  0  0  0  0  0
   -0.1062    0.7265   -2.2983 H   0  0  0  0  0  0  0  0  0  0  0  0
    0.6542   -0.9526   -2.1665 H   0  0  0  0  0  0  0  0  0  0  0  0
    1.8620   -0.1167   -0.4268 H   0  0  0  0  0  0  0  0  0  0  0  0
    1.3310    2.2001   -1.0921 H   0  0  0  0  0  0  0  0  0  0  0  0
   -0.2477    2.1207   -0.2258 H   0  0  0  0  0  0  0  0  0  0  0  0
    1.2579    1.4645    1.8795 H   0  0  0  0  0  0  0  0  0  0  0  0
    2.6118    2.1353    0.9185 H   0  0  0  0  0  0  0  0  0  0  0  0
    1.2473    3.2084    1.2671 H   0  0  0  0  0  0  0  0  0  0  0  0
   -0.6768    0.2431    1.1309 H   0  0  0  0  0  0  0  0  0  0  0  0
    0.7996   -0.7786    1.5611 H   0  0  0  0  0  0  0  0  0  0  0  0
  1  2  3  0
  2  3  1  0
  3  4  1  0
  4  5  1  0
  5  6  1  0
  6  7  1  0
  7  8  1  0
  6  9  1  0
  9  3  1  0
  1 10  1  0
  3 11  1  0
  4 12  1  0
  4 13  1  0
  5 14  1  0
  5 15  1  0
  6 16  1  0
  7 17  1  0
  7 18  1  0
  8 19  1  0
  8 20  1  0
  8 21  1  0
  9 22  1  0
  9 23  1  0
M  END
