
     RDKit          3D

 18 18  0  0  0  0  0  0  0  0999 V2000
    4.0331   -0.0600   -0.3877 C   0  0  0  0  0  0  0  0  0  0  0  0
    2.9255    0.2433   -0.2958 C   0  0  0  0  0  0  0  0  0  0  0  0
    1.5161    0.6550   -0.1715 C   0  0  0  0  0  0  0  0  0  0  0  0
    1.0079    0.3828    1.3211 C   0  0  0  0  0  0  0  0  0  0  0  0
    0.4411   -0.2957    0.1219 C   0  0  0  0  0  0  0  0  0  0  0  0
   -1.0160    0.1078   -0.1676 C   0  0  0  0  0  0  0  0  0  0  0  0
   -1.8990   -0.8833    0.1850 O   0  0  0  0  0  0  0  0  0  0  0  0
   -3.2104   -0.6294   -0.0417 C   0  0  0  0  0  0  0  0  0  0  0  0
    5.2070   -0.4003   -0.4736 H   0  0  0  0  0  0  0  0  0  0  0  0
    1.2049    1.6484   -0.5767 H   0  0  0  0  0  0  0  0  0  0  0  0
    1.6468   -0.2688    1.9538 H   0  0  0  0  0  0  0  0  0  0  0  0
    0.5705    1.2498    1.7883 H   0  0  0  0  0  0  0  0  0  0  0  0
    0.6814   -1.3610   -0.0716 H   0  0  0  0  0  0  0  0  0  0  0  0
   -1.2263    1.0476    0.3551 H   0  0  0  0  0  0  0  0  0  0  0  0
   -1.0662    0.3513   -1.2692 H   0  0  0  0  0  0  0  0  0  0  0  0
   -3.7590   -1.5669    0.3090 H   0  0  0  0  0  0  0  0  0  0  0  0
   -3.4363   -0.5055   -1.1164 H   0  0  0  0  0  0  0  0  0  0  0  0
   -3.6211    0.2849    0.4582 H   0  0  0  0  0  0  0  0  0  0  0  0
  1  2  3  0
  2  3  1  0
  3  4  1  0
  4  5  1  0
  5  6  1  0
  6  7  1  0
  7  8  1  0
  5  3  1  0
  1  9  1  0
  3 10  1  0
  4 11  1  0
  4 12  1  0
  5 13  1  0
  6 14  1  0
  6 15  1  0
  8 16  1  0
  8 17  1  0
  8 18  1  0
M  END
