
     RDKit          3D

 15 16  0  0  0  0  0  0  0  0999 V2000
    4.4671    0.7635    0.1821 C   0  0  0  0  0  0  0  0  0  0  0  0
    3.3220    0.4209    0.1126 C   0  0  0  0  0  0  0  0  0  0  0  0
    1.9650    0.0020    0.0171 C   0  0  0  0  0  0  0  0  0  0  0  0
    0.8375   -0.3637   -0.0741 C   0  0  0  0  0  0  0  0  0  0  0  0
   -0.5303   -0.7975   -0.1612 C   0  0  0  0  0  0  0  0  0  0  0  0
   -1.2567   -1.2834    1.0364 C   0  0  0  0  0  0  0  0  0  0  0  0
   -1.6376    0.0100    0.3251 C   0  0  0  0  0  0  0  0  0  0  0  0
   -2.1308   -0.0921   -1.1091 C   0  0  0  0  0  0  0  0  0  0  0  0
   -1.0896   -0.9528   -1.4175 O   0  0  0  0  0  0  0  0  0  0  0  0
    5.5179    1.0921    0.2324 H   0  0  0  0  0  0  0  0  0  0  0  0
   -0.7650   -1.1669    1.9986 H   0  0  0  0  0  0  0  0  0  0  0  0
   -2.0825   -2.0250    0.9645 H   0  0  0  0  0  0  0  0  0  0  0  0
   -1.4547    0.9810    0.7881 H   0  0  0  0  0  0  0  0  0  0  0  0
   -3.1379   -0.5532   -1.2414 H   0  0  0  0  0  0  0  0  0  0  0  0
   -2.0244    0.8624   -1.6536 H   0  0  0  0  0  0  0  0  0  0  0  0
  1  2  3  0
  2  3  1  0
  3  4  3  0
  4  5  1  0
  5  6  1  0
  6  7  1  0
  7  8  1  0
  8  9  1  0
  7  5  1  0
  9  5  1  0
  1 10  1  0
  6 11  1  0
  6 12  1  0
  7 13  1  0
  8 14  1  0
  8 15  1  0
M  END
