
     RDKit          3D

 19 20  0  0  0  0  0  0  0  0999 V2000
    2.6581   -0.9209   -1.3845 C   0  0  0  0  0  0  0  0  0  0  0  0
    1.6088   -1.3064   -0.8785 C   0  0  0  0  0  0  0  0  0  0  0  0
    0.3566   -1.7708   -0.2854 C   0  0  0  0  0  0  0  0  0  0  0  0
   -0.6119   -0.6128   -0.2278 C   0  0  0  0  0  0  0  0  0  0  0  0
   -1.8528   -0.9187    0.3213 O   0  0  0  0  0  0  0  0  0  0  0  0
   -1.8059    0.3303    0.9296 C   0  0  0  0  0  0  0  0  0  0  0  0
   -0.9670    0.4189    2.1395 C   0  0  0  0  0  0  0  0  0  0  0  0
   -0.3060    0.3933    0.8311 C   0  0  0  0  0  0  0  0  0  0  0  0
    0.3592    1.6546    0.3496 C   0  0  0  0  0  0  0  0  0  0  0  0
    3.5599   -0.5731   -1.8154 H   0  0  0  0  0  0  0  0  0  0  0  0
   -0.0207   -2.6210   -0.8586 H   0  0  0  0  0  0  0  0  0  0  0  0
    0.5610   -2.0543    0.7868 H   0  0  0  0  0  0  0  0  0  0  0  0
   -0.7747   -0.1139   -1.2088 H   0  0  0  0  0  0  0  0  0  0  0  0
   -2.3407    1.1874    0.5040 H   0  0  0  0  0  0  0  0  0  0  0  0
   -0.9747    1.3974    2.6852 H   0  0  0  0  0  0  0  0  0  0  0  0
   -1.0046   -0.4432    2.8255 H   0  0  0  0  0  0  0  0  0  0  0  0
   -0.0378    2.4936    0.9506 H   0  0  0  0  0  0  0  0  0  0  0  0
    1.4532    1.5922    0.5038 H   0  0  0  0  0  0  0  0  0  0  0  0
    0.1400    1.8674   -0.7192 H   0  0  0  0  0  0  0  0  0  0  0  0
  1  2  3  0
  2  3  1  0
  3  4  1  0
  4  5  1  0
  5  6  1  0
  6  7  1  0
  7  8  1  0
  8  9  1  0
  8  4  1  0
  8  6  1  0
  1 10  1  0
  3 11  1  0
  3 12  1  0
  4 13  1  0
  6 14  1  0
  7 15  1  0
  7 16  1  0
  9 17  1  0
  9 18  1  0
  9 19  1  0
M  END
