
     RDKit          3D

 21 22  0  0  0  0  0  0  0  0999 V2000
    2.5753    1.7041    0.4947 C   0  0  0  0  0  0  0  0  0  0  0  0
    2.1700    0.5459    0.5620 C   0  0  0  0  0  0  0  0  0  0  0  0
    1.7170   -0.8166    0.6517 C   0  0  0  0  0  0  0  0  0  0  0  0
    0.9052   -1.2642   -0.4849 C   0  0  0  0  0  0  0  0  0  0  0  0
   -0.3867   -0.6408   -0.7880 C   0  0  0  0  0  0  0  0  0  0  0  0
   -0.5429    0.7851   -1.1131 C   0  0  0  0  0  0  0  0  0  0  0  0
   -1.9178    0.6918   -0.4346 C   0  0  0  0  0  0  0  0  0  0  0  0
   -1.8198    0.6059    1.0350 C   0  0  0  0  0  0  0  0  0  0  0  0
   -1.4147   -0.5886    0.3100 C   0  0  0  0  0  0  0  0  0  0  0  0
    2.9351    2.6949    0.4502 H   0  0  0  0  0  0  0  0  0  0  0  0
    1.1970   -1.0284    1.6247 H   0  0  0  0  0  0  0  0  0  0  0  0
    2.6140   -1.5137    0.7080 H   0  0  0  0  0  0  0  0  0  0  0  0
    0.7332   -2.3889   -0.4381 H   0  0  0  0  0  0  0  0  0  0  0  0
    1.5385   -1.1794   -1.4345 H   0  0  0  0  0  0  0  0  0  0  0  0
   -0.8627   -1.2446   -1.6471 H   0  0  0  0  0  0  0  0  0  0  0  0
    0.0508    1.5544   -0.6120 H   0  0  0  0  0  0  0  0  0  0  0  0
   -0.6723    1.0481   -2.1881 H   0  0  0  0  0  0  0  0  0  0  0  0
   -2.8187    0.5640   -1.0236 H   0  0  0  0  0  0  0  0  0  0  0  0
   -2.7730    0.6039    1.5782 H   0  0  0  0  0  0  0  0  0  0  0  0
   -1.0797    1.3138    1.4946 H   0  0  0  0  0  0  0  0  0  0  0  0
   -2.1479   -1.4468    0.3438 H   0  0  0  0  0  0  0  0  0  0  0  0
  1  2  3  0
  2  3  1  0
  3  4  1  0
  4  5  1  0
  5  6  1  0
  6  7  1  0
  7  8  1  0
  8  9  1  0
  9  5  1  0
  9  7  1  0
  1 10  1  0
  3 11  1  0
  3 12  1  0
  4 13  1  0
  4 14  1  0
  5 15  1  0
  6 16  1  0
  6 17  1  0
  7 18  1  0
  8 19  1  0
  8 20  1  0
  9 21  1  0
M  END
