
     RDKit          3D

 19 19  0  0  0  0  0  0  0  0999 V2000
    3.3072   -0.3765   -0.0160 C   0  0  0  0  0  0  0  0  0  0  0  0
    2.1269   -0.4061   -0.2203 C   0  0  0  0  0  0  0  0  0  0  0  0
    0.7584   -0.4522   -0.4787 C   0  0  0  0  0  0  0  0  0  0  0  0
    0.1639   -1.5327   -1.0355 C   0  0  0  0  0  0  0  0  0  0  0  0
   -1.2811   -1.2663   -1.1765 C   0  0  0  0  0  0  0  0  0  0  0  0
   -1.5393   -0.2619   -0.0526 C   0  0  0  0  0  0  0  0  0  0  0  0
   -0.2587    0.5801   -0.2126 C   0  0  0  0  0  0  0  0  0  0  0  0
   -0.0519    1.3028    1.0970 C   0  0  0  0  0  0  0  0  0  0  0  0
   -0.4156    1.5015   -1.2144 O   0  0  0  0  0  0  0  0  0  0  0  0
    4.4276   -0.3622    0.1753 H   0  0  0  0  0  0  0  0  0  0  0  0
    0.6310   -2.4607   -1.3414 H   0  0  0  0  0  0  0  0  0  0  0  0
   -1.8572   -2.1789   -1.0071 H   0  0  0  0  0  0  0  0  0  0  0  0
   -1.5072   -0.7672   -2.1398 H   0  0  0  0  0  0  0  0  0  0  0  0
   -1.5922   -0.7188    0.9413 H   0  0  0  0  0  0  0  0  0  0  0  0
   -2.4209    0.3596   -0.2724 H   0  0  0  0  0  0  0  0  0  0  0  0
   -0.5580    2.2859    1.0099 H   0  0  0  0  0  0  0  0  0  0  0  0
    1.0162    1.5368    1.2950 H   0  0  0  0  0  0  0  0  0  0  0  0
   -0.5465    0.7705    1.9341 H   0  0  0  0  0  0  0  0  0  0  0  0
   -0.4026    2.4464   -0.9069 H   0  0  0  0  0  0  0  0  0  0  0  0
  1  2  3  0
  2  3  1  0
  3  4  2  0
  4  5  1  0
  5  6  1  0
  6  7  1  0
  7  8  1  0
  7  9  1  0
  7  3  1  0
  1 10  1  0
  4 11  1  0
  5 12  1  0
  5 13  1  0
  6 14  1  0
  6 15  1  0
  8 16  1  0
  8 17  1  0
  8 18  1  0
  9 19  1  0
M  END
