
     RDKit          3D

 17 18  0  0  0  0  0  0  0  0999 V2000
    1.7085   -2.1363    2.3220 C   0  0  0  0  0  0  0  0  0  0  0  0
    0.8368   -1.5503    1.7406 C   0  0  0  0  0  0  0  0  0  0  0  0
   -0.2276   -0.8443    1.0614 C   0  0  0  0  0  0  0  0  0  0  0  0
   -0.4555   -0.8486   -0.3338 C   0  0  0  0  0  0  0  0  0  0  0  0
   -0.7505    0.2292   -1.3136 C   0  0  0  0  0  0  0  0  0  0  0  0
    0.7460    0.4948   -1.0230 C   0  0  0  0  0  0  0  0  0  0  0  0
    0.2371    0.3812    0.3961 C   0  0  0  0  0  0  0  0  0  0  0  0
   -0.5874    1.5179    0.7255 C   0  0  0  0  0  0  0  0  0  0  0  0
   -1.2813    2.4688    0.9939 C   0  0  0  0  0  0  0  0  0  0  0  0
    2.5308   -2.6875    2.8926 H   0  0  0  0  0  0  0  0  0  0  0  0
   -1.1657   -0.8228    1.6894 H   0  0  0  0  0  0  0  0  0  0  0  0
    0.3032   -1.5440   -0.8455 H   0  0  0  0  0  0  0  0  0  0  0  0
   -0.9746   -0.1477   -2.3079 H   0  0  0  0  0  0  0  0  0  0  0  0
   -1.4163    1.0333   -1.0451 H   0  0  0  0  0  0  0  0  0  0  0  0
    1.3339   -0.3643   -1.3945 H   0  0  0  0  0  0  0  0  0  0  0  0
    1.0749    1.4696   -1.3116 H   0  0  0  0  0  0  0  0  0  0  0  0
   -1.9123    3.3510    1.2581 H   0  0  0  0  0  0  0  0  0  0  0  0
  1  2  3  0
  2  3  1  0
  3  4  1  0
  4  5  1  0
  5  6  1  0
  6  7  1  0
  7  8  1  0
  8  9  3  0
  7  3  1  0
  7  4  1  0
  1 10  1  0
  3 11  1  0
  4 12  1  0
  5 13  1  0
  5 14  1  0
  6 15  1  0
  6 16  1  0
  9 17  1  0
M  END
