
     RDKit          3D

 17 17  0  0  0  0  0  0  0  0999 V2000
    3.3494   -0.0785    1.7692 C   0  0  0  0  0  0  0  0  0  0  0  0
    2.2682   -0.3155    1.2259 C   0  0  0  0  0  0  0  0  0  0  0  0
    0.9905   -0.5698    0.5827 C   0  0  0  0  0  0  0  0  0  0  0  0
    0.6009    0.5555   -0.0798 O   0  0  0  0  0  0  0  0  0  0  0  0
   -0.6001    0.4913   -0.7461 C   0  0  0  0  0  0  0  0  0  0  0  0
   -0.9521    1.7680   -1.4297 C   0  0  0  0  0  0  0  0  0  0  0  0
   -0.4252    2.8300   -1.1942 O   0  0  0  0  0  0  0  0  0  0  0  0
   -1.7422   -0.3108   -0.2592 C   0  0  0  0  0  0  0  0  0  0  0  0
   -1.0192   -0.7434   -1.5015 C   0  0  0  0  0  0  0  0  0  0  0  0
    4.2816    0.1401    2.2255 H   0  0  0  0  0  0  0  0  0  0  0  0
    1.1701   -1.4300   -0.1266 H   0  0  0  0  0  0  0  0  0  0  0  0
    0.2620   -0.9517    1.3215 H   0  0  0  0  0  0  0  0  0  0  0  0
   -1.7405    1.7922   -2.2091 H   0  0  0  0  0  0  0  0  0  0  0  0
   -1.6472   -1.0008    0.6159 H   0  0  0  0  0  0  0  0  0  0  0  0
   -2.7795    0.0914   -0.3504 H   0  0  0  0  0  0  0  0  0  0  0  0
   -1.6210   -0.6126   -2.4430 H   0  0  0  0  0  0  0  0  0  0  0  0
   -0.3957   -1.6555   -1.5126 H   0  0  0  0  0  0  0  0  0  0  0  0
  1  2  3  0
  2  3  1  0
  3  4  1  0
  4  5  1  0
  5  6  1  0
  6  7  2  0
  5  8  1  0
  8  9  1  0
  9  5  1  0
  1 10  1  0
  3 11  1  0
  3 12  1  0
  6 13  1  0
  8 14  1  0
  8 15  1  0
  9 16  1  0
  9 17  1  0
M  END
