
     RDKit          3D

 15 15  0  0  0  0  0  0  0  0999 V2000
    2.8306   -0.0724   -0.7995 C   0  0  0  0  0  0  0  0  0  0  0  0
    1.8639   -0.2711   -0.0704 C   0  0  0  0  0  0  0  0  0  0  0  0
    0.7200   -0.5313    0.8047 C   0  0  0  0  0  0  0  0  0  0  0  0
    0.1213    0.6727    1.1961 O   0  0  0  0  0  0  0  0  0  0  0  0
   -0.6443    0.6592    0.0526 C   0  0  0  0  0  0  0  0  0  0  0  0
   -2.0535    1.0536    0.2060 C   0  0  0  0  0  0  0  0  0  0  0  0
   -2.4795    1.3660    1.2914 O   0  0  0  0  0  0  0  0  0  0  0  0
   -0.4987   -0.8390    0.0049 C   0  0  0  0  0  0  0  0  0  0  0  0
   -0.2485   -1.2714   -1.2840 O   0  0  0  0  0  0  0  0  0  0  0  0
    3.6732    0.1072   -1.4148 H   0  0  0  0  0  0  0  0  0  0  0  0
    0.9721   -1.2237    1.6233 H   0  0  0  0  0  0  0  0  0  0  0  0
   -0.1386    1.2094   -0.7637 H   0  0  0  0  0  0  0  0  0  0  0  0
   -2.7036    1.0646   -0.6434 H   0  0  0  0  0  0  0  0  0  0  0  0
   -1.3040   -1.3960    0.4651 H   0  0  0  0  0  0  0  0  0  0  0  0
   -0.1103   -0.5278   -1.9276 H   0  0  0  0  0  0  0  0  0  0  0  0
  1  2  3  0
  2  3  1  0
  3  4  1  0
  4  5  1  0
  5  6  1  0
  6  7  2  0
  5  8  1  0
  8  9  1  0
  8  3  1  0
  1 10  1  0
  3 11  1  0
  5 12  1  0
  6 13  1  0
  8 14  1  0
  9 15  1  0
M  END
