
     RDKit          3D

 19 20  0  0  0  0  0  0  0  0999 V2000
    1.5911    0.4007    2.8474 C   0  0  0  0  0  0  0  0  0  0  0  0
    1.0214    0.2906    1.7261 C   0  0  0  0  0  0  0  0  0  0  0  0
    0.3710    0.1725    0.4992 C   0  0  0  0  0  0  0  0  0  0  0  0
    0.1254    1.3811   -0.3248 C   0  0  0  0  0  0  0  0  0  0  0  0
   -0.7498    1.0397   -1.4928 C   0  0  0  0  0  0  0  0  0  0  0  0
   -0.8034   -0.2384   -1.8348 C   0  0  0  0  0  0  0  0  0  0  0  0
   -0.6317   -1.2071   -0.7025 C   0  0  0  0  0  0  0  0  0  0  0  0
   -0.9758   -0.5732    0.5985 C   0  0  0  0  0  0  0  0  0  0  0  0
    0.8461   -1.0436   -0.3398 C   0  0  0  0  0  0  0  0  0  0  0  0
    2.0613    0.4764    3.7846 H   0  0  0  0  0  0  0  0  0  0  0  0
    1.0121    1.9607   -0.5957 H   0  0  0  0  0  0  0  0  0  0  0  0
   -0.5552    2.0461    0.3129 H   0  0  0  0  0  0  0  0  0  0  0  0
   -1.3141    1.8419   -2.0050 H   0  0  0  0  0  0  0  0  0  0  0  0
   -0.9516   -0.5996   -2.8113 H   0  0  0  0  0  0  0  0  0  0  0  0
   -0.9843   -2.2258   -0.8809 H   0  0  0  0  0  0  0  0  0  0  0  0
   -1.8113    0.1141    0.6710 H   0  0  0  0  0  0  0  0  0  0  0  0
   -0.9711   -1.3049    1.4348 H   0  0  0  0  0  0  0  0  0  0  0  0
    1.4785   -0.7129   -1.1989 H   0  0  0  0  0  0  0  0  0  0  0  0
    1.2414   -1.8184    0.3120 H   0  0  0  0  0  0  0  0  0  0  0  0
  1  2  3  0
  2  3  1  0
  3  4  1  0
  4  5  1  0
  5  6  2  0
  6  7  1  0
  7  8  1  0
  7  9  1  0
  8  3  1  0
  9  3  1  0
  1 10  1  0
  4 11  1  0
  4 12  1  0
  5 13  1  0
  6 14  1  0
  7 15  1  0
  8 16  1  0
  8 17  1  0
  9 18  1  0
  9 19  1  0
M  END
