
     RDKit          3D

 17 18  0  0  0  0  0  0  0  0999 V2000
    3.3152    0.3958    0.8201 C   0  0  0  0  0  0  0  0  0  0  0  0
    2.1251    0.2440    0.9847 C   0  0  0  0  0  0  0  0  0  0  0  0
    0.6692    0.0323    1.1865 C   0  0  0  0  0  0  0  0  0  0  0  0
   -0.2501    0.7724    0.4307 C   0  0  0  0  0  0  0  0  0  0  0  0
   -1.6990    0.6517    0.0984 C   0  0  0  0  0  0  0  0  0  0  0  0
   -1.5660   -0.0843   -1.1951 C   0  0  0  0  0  0  0  0  0  0  0  0
   -2.4045   -0.1211   -2.0499 O   0  0  0  0  0  0  0  0  0  0  0  0
   -0.2271   -0.7410   -1.2085 C   0  0  0  0  0  0  0  0  0  0  0  0
    0.0050   -0.7827    0.2687 C   0  0  0  0  0  0  0  0  0  0  0  0
    4.3559    0.5267    0.6576 H   0  0  0  0  0  0  0  0  0  0  0  0
    0.4682   -0.0860    2.2896 H   0  0  0  0  0  0  0  0  0  0  0  0
    0.2192    1.4223   -0.3743 H   0  0  0  0  0  0  0  0  0  0  0  0
   -2.1617    1.6387   -0.0506 H   0  0  0  0  0  0  0  0  0  0  0  0
   -2.2673    0.0265    0.8341 H   0  0  0  0  0  0  0  0  0  0  0  0
   -0.2418   -1.7311   -1.6769 H   0  0  0  0  0  0  0  0  0  0  0  0
    0.4613   -0.0269   -1.7225 H   0  0  0  0  0  0  0  0  0  0  0  0
   -0.8016   -1.4510    0.7074 H   0  0  0  0  0  0  0  0  0  0  0  0
  1  2  3  0
  2  3  1  0
  3  4  1  0
  4  5  1  0
  5  6  1  0
  6  7  2  0
  6  8  1  0
  8  9  1  0
  9  3  1  0
  9  4  1  0
  1 10  1  0
  3 11  1  0
  4 12  1  0
  5 13  1  0
  5 14  1  0
  8 15  1  0
  8 16  1  0
  9 17  1  0
M  END
