
     RDKit          3D

 19 18  0  0  0  0  0  0  0  0999 V2000
    0.9124    2.7782    0.6581 C   0  0  0  0  0  0  0  0  0  0  0  0
    0.7150    1.5862    0.4819 C   0  0  0  0  0  0  0  0  0  0  0  0
    0.4642    0.1602    0.2530 C   0  0  0  0  0  0  0  0  0  0  0  0
   -0.2335    0.0226   -1.0514 C   0  0  0  0  0  0  0  0  0  0  0  0
   -0.5637   -1.3976   -1.4301 C   0  0  0  0  0  0  0  0  0  0  0  0
   -1.2076   -1.3362   -2.6684 O   0  0  0  0  0  0  0  0  0  0  0  0
   -0.2943   -0.3275    1.4162 C   0  0  0  0  0  0  0  0  0  0  0  0
    0.3335   -0.2174    2.7589 C   0  0  0  0  0  0  0  0  0  0  0  0
   -1.4146   -0.8236    1.3708 O   0  0  0  0  0  0  0  0  0  0  0  0
    1.1025    3.8227    0.8050 H   0  0  0  0  0  0  0  0  0  0  0  0
    1.4507   -0.3900    0.2727 H   0  0  0  0  0  0  0  0  0  0  0  0
   -1.1507    0.6240   -1.0306 H   0  0  0  0  0  0  0  0  0  0  0  0
    0.4186    0.4478   -1.8385 H   0  0  0  0  0  0  0  0  0  0  0  0
   -1.2743   -1.8320   -0.7268 H   0  0  0  0  0  0  0  0  0  0  0  0
    0.3599   -1.9889   -1.5843 H   0  0  0  0  0  0  0  0  0  0  0  0
   -0.9980   -0.5524   -3.1971 H   0  0  0  0  0  0  0  0  0  0  0  0
    0.5316   -1.2300    3.1777 H   0  0  0  0  0  0  0  0  0  0  0  0
    1.2348    0.4037    2.7766 H   0  0  0  0  0  0  0  0  0  0  0  0
   -0.3865    0.2502    3.4942 H   0  0  0  0  0  0  0  0  0  0  0  0
  1  2  3  0
  2  3  1  0
  3  4  1  0
  4  5  1  0
  5  6  1  0
  3  7  1  0
  7  8  1  0
  7  9  2  0
  1 10  1  0
  3 11  1  0
  4 12  1  0
  4 13  1  0
  5 14  1  0
  5 15  1  0
  6 16  1  0
  8 17  1  0
  8 18  1  0
  8 19  1  0
M  END
