
     RDKit          3D

 19 20  0  0  0  0  0  0  0  0999 V2000
    2.5406    0.0661    1.4517 C   0  0  0  0  0  0  0  0  0  0  0  0
    1.6962    0.2826    0.6359 C   0  0  0  0  0  0  0  0  0  0  0  0
    0.6984    0.5392   -0.3625 C   0  0  0  0  0  0  0  0  0  0  0  0
    1.2156    1.3707   -1.3748 O   0  0  0  0  0  0  0  0  0  0  0  0
   -0.5138    1.3048    0.2105 C   0  0  0  0  0  0  0  0  0  0  0  0
   -1.6109    0.2257    0.3510 C   0  0  0  0  0  0  0  0  0  0  0  0
   -0.7392   -0.9607    0.4407 C   0  0  0  0  0  0  0  0  0  0  0  0
   -0.2881   -1.9330   -0.4653 C   0  0  0  0  0  0  0  0  0  0  0  0
    0.0087   -0.6379   -0.9187 C   0  0  0  0  0  0  0  0  0  0  0  0
    3.3060   -0.1140    2.1735 H   0  0  0  0  0  0  0  0  0  0  0  0
    0.4320    1.7496   -1.8421 H   0  0  0  0  0  0  0  0  0  0  0  0
   -0.2173    1.6766    1.2009 H   0  0  0  0  0  0  0  0  0  0  0  0
   -0.8603    2.0737   -0.4852 H   0  0  0  0  0  0  0  0  0  0  0  0
   -2.2649    0.4238    1.1972 H   0  0  0  0  0  0  0  0  0  0  0  0
   -2.1331    0.2178   -0.6347 H   0  0  0  0  0  0  0  0  0  0  0  0
   -0.0988   -0.8520    1.3737 H   0  0  0  0  0  0  0  0  0  0  0  0
    0.5582   -2.6127   -0.1902 H   0  0  0  0  0  0  0  0  0  0  0  0
   -1.0663   -2.5533   -1.0024 H   0  0  0  0  0  0  0  0  0  0  0  0
   -0.6629   -0.2668   -1.7592 H   0  0  0  0  0  0  0  0  0  0  0  0
  1  2  3  0
  2  3  1  0
  3  4  1  0
  3  5  1  0
  5  6  1  0
  6  7  1  0
  7  8  1  0
  8  9  1  0
  9  3  1  0
  9  7  1  0
  1 10  1  0
  4 11  1  0
  5 12  1  0
  5 13  1  0
  6 14  1  0
  6 15  1  0
  7 16  1  0
  8 17  1  0
  8 18  1  0
  9 19  1  0
M  END
