
     RDKit          3D

 17 18  0  0  0  0  0  0  0  0999 V2000
    2.2163    2.0576   -0.4265 C   0  0  0  0  0  0  0  0  0  0  0  0
    1.5275    1.5565   -0.0754 C   0  0  0  0  0  0  0  0  0  0  0  0
    0.4392    0.7471    0.4873 C   0  0  0  0  0  0  0  0  0  0  0  0
   -0.3356   -0.2653    0.0953 C   0  0  0  0  0  0  0  0  0  0  0  0
    0.4781   -1.5768   -0.1440 C   0  0  0  0  0  0  0  0  0  0  0  0
   -0.7051   -2.2205   -0.4523 O   0  0  0  0  0  0  0  0  0  0  0  0
   -1.1690   -1.0333   -0.8748 C   0  0  0  0  0  0  0  0  0  0  0  0
   -1.7929    0.0128   -0.1024 C   0  0  0  0  0  0  0  0  0  0  0  0
   -2.4968   -0.1509    1.0408 O   0  0  0  0  0  0  0  0  0  0  0  0
    3.6239    3.1120   -1.1704 H   0  0  0  0  0  0  0  0  0  0  0  0
   -0.0400    1.5495    1.2687 H   0  0  0  0  0  0  0  0  0  0  0  0
    1.0688    0.1463    1.4457 H   0  0  0  0  0  0  0  0  0  0  0  0
    0.9310   -2.0038    0.8143 H   0  0  0  0  0  0  0  0  0  0  0  0
    1.2082   -1.4938   -0.9614 H   0  0  0  0  0  0  0  0  0  0  0  0
   -0.9106   -0.7388   -1.9961 H   0  0  0  0  0  0  0  0  0  0  0  0
   -2.1390    0.8970   -0.7056 H   0  0  0  0  0  0  0  0  0  0  0  0
   -1.9038   -0.5956    1.7568 H   0  0  0  0  0  0  0  0  0  0  0  0
  1  2  3  0
  2  3  1  0
  3  4  1  0
  4  5  1  0
  5  6  1  0
  6  7  1  0
  7  8  1  0
  8  9  1  0
  7  4  1  0
  8  4  1  0
  1 10  1  0
  3 11  1  0
  3 12  1  0
  5 13  1  0
  5 14  1  0
  7 15  1  0
  8 16  1  0
  9 17  1  0
M  END
