
     RDKit          3D

 15 15  0  0  0  0  0  0  0  0999 V2000
    2.9170    0.5854    0.7281 C   0  0  0  0  0  0  0  0  0  0  0  0
    1.8361    0.0316    0.7750 C   0  0  0  0  0  0  0  0  0  0  0  0
    0.5196   -0.6256    0.8492 C   0  0  0  0  0  0  0  0  0  0  0  0
   -0.3240   -0.2564   -0.3367 C   0  0  0  0  0  0  0  0  0  0  0  0
    0.2052   -0.6070   -1.5797 O   0  0  0  0  0  0  0  0  0  0  0  0
   -1.8167   -0.4375   -0.1313 C   0  0  0  0  0  0  0  0  0  0  0  0
   -1.2378    0.8960   -0.3297 C   0  0  0  0  0  0  0  0  0  0  0  0
    3.8588    1.0768    0.6703 H   0  0  0  0  0  0  0  0  0  0  0  0
    0.6335   -1.7481    0.8494 H   0  0  0  0  0  0  0  0  0  0  0  0
    0.0558   -0.3326    1.7990 H   0  0  0  0  0  0  0  0  0  0  0  0
    0.4880    0.2098   -2.0993 H   0  0  0  0  0  0  0  0  0  0  0  0
   -2.3134   -1.0102   -0.9256 H   0  0  0  0  0  0  0  0  0  0  0  0
   -2.1694   -0.7554    0.8938 H   0  0  0  0  0  0  0  0  0  0  0  0
   -1.1707    1.5680    0.5612 H   0  0  0  0  0  0  0  0  0  0  0  0
   -1.4820    1.4052   -1.2785 H   0  0  0  0  0  0  0  0  0  0  0  0
  1  2  3  0
  2  3  1  0
  3  4  1  0
  4  5  1  0
  4  6  1  0
  6  7  1  0
  7  4  1  0
  1  8  1  0
  3  9  1  0
  3 10  1  0
  5 11  1  0
  6 12  1  0
  6 13  1  0
  7 14  1  0
  7 15  1  0
M  END
