
     RDKit          3D

 19 20  0  0  0  0  0  0  0  0999 V2000
    3.1833    0.3952    0.0434 C   0  0  0  0  0  0  0  0  0  0  0  0
    2.0291    0.1026    0.2094 C   0  0  0  0  0  0  0  0  0  0  0  0
    0.6729   -0.2357    0.3833 C   0  0  0  0  0  0  0  0  0  0  0  0
   -0.1584    0.5125    1.3649 C   0  0  0  0  0  0  0  0  0  0  0  0
   -0.8900   -0.7956    1.3209 C   0  0  0  0  0  0  0  0  0  0  0  0
   -1.4675   -0.8982   -0.0749 C   0  0  0  0  0  0  0  0  0  0  0  0
   -0.2054   -0.4159   -0.8237 C   0  0  0  0  0  0  0  0  0  0  0  0
   -0.4798    0.8690   -1.5534 C   0  0  0  0  0  0  0  0  0  0  0  0
    0.3724   -1.4021    1.1172 O   0  0  0  0  0  0  0  0  0  0  0  0
    4.2159    0.6555   -0.1061 H   0  0  0  0  0  0  0  0  0  0  0  0
    0.2610    0.7180    2.3421 H   0  0  0  0  0  0  0  0  0  0  0  0
   -0.7163    1.3884    0.9862 H   0  0  0  0  0  0  0  0  0  0  0  0
   -1.4675   -1.1205    2.1509 H   0  0  0  0  0  0  0  0  0  0  0  0
   -2.3153   -0.2374   -0.2464 H   0  0  0  0  0  0  0  0  0  0  0  0
   -1.6374   -1.9491   -0.3898 H   0  0  0  0  0  0  0  0  0  0  0  0
    0.1925   -1.1957   -1.4804 H   0  0  0  0  0  0  0  0  0  0  0  0
   -1.5056    1.2476   -1.4190 H   0  0  0  0  0  0  0  0  0  0  0  0
   -0.3114    0.7152   -2.6359 H   0  0  0  0  0  0  0  0  0  0  0  0
    0.2275    1.6462   -1.1889 H   0  0  0  0  0  0  0  0  0  0  0  0
  1  2  3  0
  2  3  1  0
  3  4  1  0
  4  5  1  0
  5  6  1  0
  6  7  1  0
  7  8  1  0
  5  9  1  0
  7  3  1  0
  9  3  1  0
  1 10  1  0
  4 11  1  0
  4 12  1  0
  5 13  1  0
  6 14  1  0
  6 15  1  0
  7 16  1  0
  8 17  1  0
  8 18  1  0
  8 19  1  0
M  END
