
     RDKit          3D

 19 19  0  0  0  0  0  0  0  0999 V2000
    3.6036   -0.2388    2.0932 C   0  0  0  0  0  0  0  0  0  0  0  0
    2.7197   -0.2329    1.5533 C   0  0  0  0  0  0  0  0  0  0  0  0
    1.3122   -0.2521    0.6958 C   0  0  0  0  0  0  0  0  0  0  0  0
    0.8254   -1.0906   -0.0721 C   0  0  0  0  0  0  0  0  0  0  0  0
   -0.4998   -0.6772   -0.5193 C   0  0  0  0  0  0  0  0  0  0  0  0
   -0.7574    0.3758   -1.3008 O   0  0  0  0  0  0  0  0  0  0  0  0
   -2.1658    0.4570   -1.6227 C   0  0  0  0  0  0  0  0  0  0  0  0
   -0.8288    0.0651    0.9603 C   0  0  0  0  0  0  0  0  0  0  0  0
    0.4487    0.9384    0.7788 C   0  0  0  0  0  0  0  0  0  0  0  0
    4.2861   -0.2368    2.5221 H   0  0  0  0  0  0  0  0  0  0  0  0
    1.3522   -2.0164   -0.3856 H   0  0  0  0  0  0  0  0  0  0  0  0
   -1.3151   -1.4811   -0.3920 H   0  0  0  0  0  0  0  0  0  0  0  0
   -2.7313    0.5167   -0.6386 H   0  0  0  0  0  0  0  0  0  0  0  0
   -2.4521   -0.4454   -2.1979 H   0  0  0  0  0  0  0  0  0  0  0  0
   -2.4147    1.4207   -2.0977 H   0  0  0  0  0  0  0  0  0  0  0  0
   -1.6816    0.6312    0.8735 H   0  0  0  0  0  0  0  0  0  0  0  0
   -0.5908   -0.7233    1.6281 H   0  0  0  0  0  0  0  0  0  0  0  0
    0.3952    1.3765   -0.2816 H   0  0  0  0  0  0  0  0  0  0  0  0
    0.4944    1.6132    1.5722 H   0  0  0  0  0  0  0  0  0  0  0  0
  1  2  3  0
  2  3  1  0
  3  4  2  0
  4  5  1  0
  5  6  1  0
  6  7  1  0
  5  8  1  0
  8  9  1  0
  9  3  1  0
  1 10  1  0
  4 11  1  0
  5 12  1  0
  7 13  1  0
  7 14  1  0
  7 15  1  0
  8 16  1  0
  8 17  1  0
  9 18  1  0
  9 19  1  0
M  END
