
     RDKit          3D

 18 18  0  0  0  0  0  0  0  0999 V2000
    2.6603   -2.1047    0.2801 C   0  0  0  0  0  0  0  0  0  0  0  0
    1.6786   -1.4537    0.0164 C   0  0  0  0  0  0  0  0  0  0  0  0
    0.4603   -0.6718   -0.2952 C   0  0  0  0  0  0  0  0  0  0  0  0
    0.0056   -0.7607   -1.5937 O   0  0  0  0  0  0  0  0  0  0  0  0
   -0.3843   -0.2373    0.8188 C   0  0  0  0  0  0  0  0  0  0  0  0
   -1.8957   -0.0872    0.6482 C   0  0  0  0  0  0  0  0  0  0  0  0
    0.5107    0.7839    0.2312 C   0  0  0  0  0  0  0  0  0  0  0  0
   -0.0015    1.8694   -0.6570 C   0  0  0  0  0  0  0  0  0  0  0  0
    3.5324   -2.6616    0.5069 H   0  0  0  0  0  0  0  0  0  0  0  0
   -0.7746   -1.3507   -1.7098 H   0  0  0  0  0  0  0  0  0  0  0  0
   -0.1156   -0.6654    1.8229 H   0  0  0  0  0  0  0  0  0  0  0  0
   -2.3194   -0.9884    0.1608 H   0  0  0  0  0  0  0  0  0  0  0  0
   -2.3825    0.0065    1.6388 H   0  0  0  0  0  0  0  0  0  0  0  0
   -2.1219    0.8489    0.0585 H   0  0  0  0  0  0  0  0  0  0  0  0
    1.3953    1.0559    0.8529 H   0  0  0  0  0  0  0  0  0  0  0  0
   -0.7468    2.5232   -0.2034 H   0  0  0  0  0  0  0  0  0  0  0  0
   -0.3599    1.3896   -1.6099 H   0  0  0  0  0  0  0  0  0  0  0  0
    0.8588    2.5042   -0.9664 H   0  0  0  0  0  0  0  0  0  0  0  0
  1  2  3  0
  2  3  1  0
  3  4  1  0
  3  5  1  0
  5  6  1  0
  5  7  1  0
  7  8  1  0
  7  3  1  0
  1  9  1  0
  4 10  1  0
  5 11  1  0
  6 12  1  0
  6 13  1  0
  6 14  1  0
  7 15  1  0
  8 16  1  0
  8 17  1  0
  8 18  1  0
M  END
