
     RDKit          3D

 21 20  0  0  0  0  0  0  0  0999 V2000
    1.7883   -1.9411    1.5396 C   0  0  0  0  0  0  0  0  0  0  0  0
    1.1912   -1.9176    0.5546 C   0  0  0  0  0  0  0  0  0  0  0  0
    0.4253   -1.8667   -0.7059 C   0  0  0  0  0  0  0  0  0  0  0  0
    0.2610   -0.4074   -1.1393 C   0  0  0  0  0  0  0  0  0  0  0  0
   -0.4529    0.6010   -0.3514 C   0  0  0  0  0  0  0  0  0  0  0  0
   -1.9092    0.5771   -0.2352 C   0  0  0  0  0  0  0  0  0  0  0  0
   -0.1082    0.3103    1.2058 C   0  0  0  0  0  0  0  0  0  0  0  0
    0.1709    1.9181   -0.4740 C   0  0  0  0  0  0  0  0  0  0  0  0
    0.6233    2.8965   -0.5556 C   0  0  0  0  0  0  0  0  0  0  0  0
    2.3862   -1.9615    2.4903 H   0  0  0  0  0  0  0  0  0  0  0  0
    1.1186   -2.3333   -1.5047 H   0  0  0  0  0  0  0  0  0  0  0  0
   -0.4478   -2.4278   -0.7164 H   0  0  0  0  0  0  0  0  0  0  0  0
   -0.2910   -0.5787   -2.1504 H   0  0  0  0  0  0  0  0  0  0  0  0
    1.2819   -0.0920   -1.3760 H   0  0  0  0  0  0  0  0  0  0  0  0
   -2.3884   -0.1691    0.4079 H   0  0  0  0  0  0  0  0  0  0  0  0
   -2.4638    0.5798   -1.2618 H   0  0  0  0  0  0  0  0  0  0  0  0
   -2.2143    1.5888    0.2237 H   0  0  0  0  0  0  0  0  0  0  0  0
   -0.2836    1.3552    1.6817 H   0  0  0  0  0  0  0  0  0  0  0  0
    0.9292    0.2606    1.3486 H   0  0  0  0  0  0  0  0  0  0  0  0
   -0.7603   -0.3753    1.6625 H   0  0  0  0  0  0  0  0  0  0  0  0
    1.1436    3.9830   -0.6438 H   0  0  0  0  0  0  0  0  0  0  0  0
  1  2  3  0
  2  3  1  0
  3  4  1  0
  4  5  1  0
  5  6  1  0
  5  7  1  0
  5  8  1  0
  8  9  3  0
  1 10  1  0
  3 11  1  0
  3 12  1  0
  4 13  1  0
  4 14  1  0
  6 15  1  0
  6 16  1  0
  6 17  1  0
  7 18  1  0
  7 19  1  0
  7 20  1  0
  9 21  1  0
M  END
