
     RDKit          3D

 21 20  0  0  0  0  0  0  0  0999 V2000
    3.6941    1.6422   -1.0421 C   0  0  0  0  0  0  0  0  0  0  0  0
    3.0019    1.1769   -0.1156 C   0  0  0  0  0  0  0  0  0  0  0  0
    2.1555    0.5830    1.0599 C   0  0  0  0  0  0  0  0  0  0  0  0
    0.8195    0.3325    0.3415 C   0  0  0  0  0  0  0  0  0  0  0  0
    0.9266   -0.4758   -0.7508 O   0  0  0  0  0  0  0  0  0  0  0  0
   -0.3268    0.0102    1.2463 C   0  0  0  0  0  0  0  0  0  0  0  0
   -1.5809    0.2039    0.6705 O   0  0  0  0  0  0  0  0  0  0  0  0
   -1.9162   -0.5359   -0.4161 C   0  0  0  0  0  0  0  0  0  0  0  0
   -3.3439   -0.1468   -0.8294 C   0  0  0  0  0  0  0  0  0  0  0  0
    4.2239    1.9900   -1.7300 H   0  0  0  0  0  0  0  0  0  0  0  0
    2.0401    1.3954    1.7770 H   0  0  0  0  0  0  0  0  0  0  0  0
    2.6084   -0.2882    1.4202 H   0  0  0  0  0  0  0  0  0  0  0  0
    0.5406    1.3711   -0.0647 H   0  0  0  0  0  0  0  0  0  0  0  0
    1.8227   -0.4461   -1.2111 H   0  0  0  0  0  0  0  0  0  0  0  0
   -0.2330   -1.0424    1.6334 H   0  0  0  0  0  0  0  0  0  0  0  0
   -0.2731    0.6545    2.1416 H   0  0  0  0  0  0  0  0  0  0  0  0
   -1.2329   -0.3591   -1.2794 H   0  0  0  0  0  0  0  0  0  0  0  0
   -1.9411   -1.6371   -0.2025 H   0  0  0  0  0  0  0  0  0  0  0  0
   -3.9929   -1.0205   -0.7398 H   0  0  0  0  0  0  0  0  0  0  0  0
   -3.6968    0.6001   -0.0614 H   0  0  0  0  0  0  0  0  0  0  0  0
   -3.2956    0.3140   -1.8475 H   0  0  0  0  0  0  0  0  0  0  0  0
  1  2  3  0
  2  3  1  0
  3  4  1  0
  4  5  1  0
  4  6  1  0
  6  7  1  0
  7  8  1  0
  8  9  1  0
  1 10  1  0
  3 11  1  0
  3 12  1  0
  4 13  1  0
  5 14  1  0
  6 15  1  0
  6 16  1  0
  8 17  1  0
  8 18  1  0
  9 19  1  0
  9 20  1  0
  9 21  1  0
M  END
