
     RDKit          3D

 19 20  0  0  0  0  0  0  0  0999 V2000
    1.9058    2.6253   -1.0846 C   0  0  0  0  0  0  0  0  0  0  0  0
    1.9076    1.4284   -0.9551 C   0  0  0  0  0  0  0  0  0  0  0  0
    1.9355   -0.0412   -0.7947 C   0  0  0  0  0  0  0  0  0  0  0  0
    0.6264   -0.4416   -0.2068 C   0  0  0  0  0  0  0  0  0  0  0  0
    0.3754   -1.0661    0.9434 C   0  0  0  0  0  0  0  0  0  0  0  0
   -1.0417   -1.2336    1.0626 C   0  0  0  0  0  0  0  0  0  0  0  0
   -2.1786   -0.5148    1.4294 C   0  0  0  0  0  0  0  0  0  0  0  0
   -1.4029    0.1826    0.5021 C   0  0  0  0  0  0  0  0  0  0  0  0
   -0.7505   -0.1509   -0.8111 C   0  0  0  0  0  0  0  0  0  0  0  0
    1.9004    3.6982   -1.1979 H   0  0  0  0  0  0  0  0  0  0  0  0
    2.7158   -0.3313   -0.0818 H   0  0  0  0  0  0  0  0  0  0  0  0
    2.1041   -0.4843   -1.7961 H   0  0  0  0  0  0  0  0  0  0  0  0
    1.2236   -1.3413    1.5849 H   0  0  0  0  0  0  0  0  0  0  0  0
   -1.2967   -2.1231    0.3882 H   0  0  0  0  0  0  0  0  0  0  0  0
   -2.2636   -0.1462    2.4910 H   0  0  0  0  0  0  0  0  0  0  0  0
   -3.2152   -0.8346    1.1134 H   0  0  0  0  0  0  0  0  0  0  0  0
   -0.8075    1.0475    0.9419 H   0  0  0  0  0  0  0  0  0  0  0  0
   -0.6046    0.7556   -1.4278 H   0  0  0  0  0  0  0  0  0  0  0  0
   -1.1332   -1.0286   -1.3186 H   0  0  0  0  0  0  0  0  0  0  0  0
  1  2  3  0
  2  3  1  0
  3  4  1  0
  4  5  2  0
  5  6  1  0
  6  7  1  0
  7  8  1  0
  8  9  1  0
  9  4  1  0
  8  6  1  0
  1 10  1  0
  3 11  1  0
  3 12  1  0
  5 13  1  0
  6 14  1  0
  7 15  1  0
  7 16  1  0
  8 17  1  0
  9 18  1  0
  9 19  1  0
M  END
