
     RDKit          3D

 17 17  0  0  0  0  0  0  0  0999 V2000
   -3.3148    0.3055    0.9222 C   0  0  0  0  0  0  0  0  0  0  0  0
   -2.1947   -0.0826    0.7315 C   0  0  0  0  0  0  0  0  0  0  0  0
   -0.8294   -0.5661    0.5207 C   0  0  0  0  0  0  0  0  0  0  0  0
   -0.8200   -1.5034   -0.6175 C   0  0  0  0  0  0  0  0  0  0  0  0
   -1.3146   -2.6018   -0.5092 O   0  0  0  0  0  0  0  0  0  0  0  0
    0.0972    0.5820    0.2375 C   0  0  0  0  0  0  0  0  0  0  0  0
    1.4912    0.0225    0.0286 C   0  0  0  0  0  0  0  0  0  0  0  0
    2.5677    1.0151   -0.2681 C   0  0  0  0  0  0  0  0  0  0  0  0
    2.4729    0.3144    0.9749 O   0  0  0  0  0  0  0  0  0  0  0  0
   -4.3018    0.6670    1.0921 H   0  0  0  0  0  0  0  0  0  0  0  0
   -0.4617   -1.1293    1.4118 H   0  0  0  0  0  0  0  0  0  0  0  0
   -0.3734   -1.2171   -1.5523 H   0  0  0  0  0  0  0  0  0  0  0  0
    0.0728    1.3752    0.9883 H   0  0  0  0  0  0  0  0  0  0  0  0
   -0.2301    1.0494   -0.7373 H   0  0  0  0  0  0  0  0  0  0  0  0
    1.4884   -0.9721   -0.4677 H   0  0  0  0  0  0  0  0  0  0  0  0
    3.3337    0.6622   -0.9847 H   0  0  0  0  0  0  0  0  0  0  0  0
    2.3164    2.0789   -0.1837 H   0  0  0  0  0  0  0  0  0  0  0  0
  1  2  3  0
  2  3  1  0
  3  4  1  0
  4  5  2  0
  3  6  1  0
  6  7  1  0
  7  8  1  0
  8  9  1  0
  9  7  1  0
  1 10  1  0
  3 11  1  0
  4 12  1  0
  6 13  1  0
  6 14  1  0
  7 15  1  0
  8 16  1  0
  8 17  1  0
M  END
