
     RDKit          3D

 19 20  0  0  0  0  0  0  0  0999 V2000
    3.6518    0.1668   -0.5625 C   0  0  0  0  0  0  0  0  0  0  0  0
    2.6263   -0.2239   -0.0614 C   0  0  0  0  0  0  0  0  0  0  0  0
    1.3941   -0.7061    0.5673 C   0  0  0  0  0  0  0  0  0  0  0  0
    0.3561   -1.2228   -0.3901 C   0  0  0  0  0  0  0  0  0  0  0  0
   -0.6798   -0.3979    0.3769 C   0  0  0  0  0  0  0  0  0  0  0  0
   -1.6371    0.2225   -0.5901 C   0  0  0  0  0  0  0  0  0  0  0  0
   -2.7607    1.0916   -0.0602 C   0  0  0  0  0  0  0  0  0  0  0  0
   -1.6777    1.5800   -0.7816 O   0  0  0  0  0  0  0  0  0  0  0  0
    0.4367    0.4528    0.8764 C   0  0  0  0  0  0  0  0  0  0  0  0
    4.5615    0.5270   -0.9994 H   0  0  0  0  0  0  0  0  0  0  0  0
    1.5636   -1.3809    1.4172 H   0  0  0  0  0  0  0  0  0  0  0  0
    0.1033   -2.2848   -0.2891 H   0  0  0  0  0  0  0  0  0  0  0  0
    0.5089   -0.8925   -1.4186 H   0  0  0  0  0  0  0  0  0  0  0  0
   -1.1733   -0.9676    1.1976 H   0  0  0  0  0  0  0  0  0  0  0  0
   -1.9519   -0.4034   -1.4559 H   0  0  0  0  0  0  0  0  0  0  0  0
   -2.7255    1.3979    1.0199 H   0  0  0  0  0  0  0  0  0  0  0  0
   -3.7593    1.0375   -0.5089 H   0  0  0  0  0  0  0  0  0  0  0  0
    0.6882    1.3515    0.3111 H   0  0  0  0  0  0  0  0  0  0  0  0
    0.4749    0.6522    1.9592 H   0  0  0  0  0  0  0  0  0  0  0  0
  1  2  3  0
  2  3  1  0
  3  4  1  0
  4  5  1  0
  5  6  1  0
  6  7  1  0
  7  8  1  0
  5  9  1  0
  9  3  1  0
  8  6  1  0
  1 10  1  0
  3 11  1  0
  4 12  1  0
  4 13  1  0
  5 14  1  0
  6 15  1  0
  7 16  1  0
  7 17  1  0
  9 18  1  0
  9 19  1  0
M  END
