
     RDKit          3D

 21 21  0  0  0  0  0  0  0  0999 V2000
    2.5006   -1.8842   -0.6792 C   0  0  0  0  0  0  0  0  0  0  0  0
    1.6743   -1.0433   -0.5214 C   0  0  0  0  0  0  0  0  0  0  0  0
    0.6582    0.0061   -0.3103 C   0  0  0  0  0  0  0  0  0  0  0  0
    1.0676    1.1981   -1.1884 C   0  0  0  0  0  0  0  0  0  0  0  0
    0.6549    0.3647    1.1133 C   0  0  0  0  0  0  0  0  0  0  0  0
   -0.4241    0.2545    1.8740 C   0  0  0  0  0  0  0  0  0  0  0  0
   -1.7061   -0.2465    1.3102 C   0  0  0  0  0  0  0  0  0  0  0  0
   -1.7415    0.3228   -0.1154 C   0  0  0  0  0  0  0  0  0  0  0  0
   -0.6698   -0.4562   -0.8459 C   0  0  0  0  0  0  0  0  0  0  0  0
    3.2198   -2.6328   -0.8275 H   0  0  0  0  0  0  0  0  0  0  0  0
    0.7066    1.0251   -2.2244 H   0  0  0  0  0  0  0  0  0  0  0  0
    0.6707    2.1428   -0.7628 H   0  0  0  0  0  0  0  0  0  0  0  0
    2.1751    1.1835   -1.2184 H   0  0  0  0  0  0  0  0  0  0  0  0
    1.5647    0.7438    1.6067 H   0  0  0  0  0  0  0  0  0  0  0  0
   -0.4328    0.5189    2.9283 H   0  0  0  0  0  0  0  0  0  0  0  0
   -2.5878    0.0529    1.8915 H   0  0  0  0  0  0  0  0  0  0  0  0
   -1.6685   -1.3608    1.1775 H   0  0  0  0  0  0  0  0  0  0  0  0
   -1.4045    1.3782   -0.0587 H   0  0  0  0  0  0  0  0  0  0  0  0
   -2.7279    0.2441   -0.5704 H   0  0  0  0  0  0  0  0  0  0  0  0
   -0.7586   -0.2692   -1.9512 H   0  0  0  0  0  0  0  0  0  0  0  0
   -0.7710   -1.5423   -0.6273 H   0  0  0  0  0  0  0  0  0  0  0  0
  1  2  3  0
  2  3  1  0
  3  4  1  0
  3  5  1  0
  5  6  2  0
  6  7  1  0
  7  8  1  0
  8  9  1  0
  9  3  1  0
  1 10  1  0
  4 11  1  0
  4 12  1  0
  4 13  1  0
  5 14  1  0
  6 15  1  0
  7 16  1  0
  7 17  1  0
  8 18  1  0
  8 19  1  0
  9 20  1  0
  9 21  1  0
M  END
