
     RDKit          3D

 21 21  0  0  0  0  0  0  0  0999 V2000
    3.0588    1.1555   -1.6840 C   0  0  0  0  0  0  0  0  0  0  0  0
    2.0616    0.7084   -1.3559 C   0  0  0  0  0  0  0  0  0  0  0  0
    0.7298    0.1402   -0.9244 C   0  0  0  0  0  0  0  0  0  0  0  0
    1.0893   -1.3436   -1.1955 O   0  0  0  0  0  0  0  0  0  0  0  0
    0.3721    0.0867    0.4278 C   0  0  0  0  0  0  0  0  0  0  0  0
   -0.9471   -0.6744    0.6805 C   0  0  0  0  0  0  0  0  0  0  0  0
   -1.6995   -1.2329   -0.4498 C   0  0  0  0  0  0  0  0  0  0  0  0
   -0.8348    0.7728    1.0130 C   0  0  0  0  0  0  0  0  0  0  0  0
   -0.7510    1.0258    2.5340 C   0  0  0  0  0  0  0  0  0  0  0  0
    4.1323    1.6581   -2.0296 H   0  0  0  0  0  0  0  0  0  0  0  0
    0.0205    0.2781   -1.8184 H   0  0  0  0  0  0  0  0  0  0  0  0
    1.8965   -1.4057   -0.5536 H   0  0  0  0  0  0  0  0  0  0  0  0
    1.1939   -0.1957    1.1829 H   0  0  0  0  0  0  0  0  0  0  0  0
   -0.8535   -1.4054    1.5584 H   0  0  0  0  0  0  0  0  0  0  0  0
   -2.6319   -0.6570   -0.6490 H   0  0  0  0  0  0  0  0  0  0  0  0
   -1.1752   -1.3212   -1.4472 H   0  0  0  0  0  0  0  0  0  0  0  0
   -2.0433   -2.3176   -0.2040 H   0  0  0  0  0  0  0  0  0  0  0  0
   -1.2455    1.5928    0.4653 H   0  0  0  0  0  0  0  0  0  0  0  0
   -0.5343    0.0561    3.0429 H   0  0  0  0  0  0  0  0  0  0  0  0
   -0.0147    1.7943    2.7783 H   0  0  0  0  0  0  0  0  0  0  0  0
   -1.8239    1.2846    2.8323 H   0  0  0  0  0  0  0  0  0  0  0  0
  1  2  3  0
  2  3  1  0
  3  4  1  0
  3  5  1  0
  5  6  1  0
  6  7  1  0
  6  8  1  0
  8  9  1  0
  8  5  1  0
  1 10  1  0
  3 11  1  0
  4 12  1  0
  5 13  1  0
  6 14  1  0
  7 15  1  0
  7 16  1  0
  7 17  1  0
  8 18  1  0
  9 19  1  0
  9 20  1  0
  9 21  1  0
M  END
