
     RDKit          3D

 15 15  0  0  0  0  0  0  0  0999 V2000
    2.4294    1.7354    0.0566 C   0  0  0  0  0  0  0  0  0  0  0  0
    1.8004    0.6795    0.3465 C   0  0  0  0  0  0  0  0  0  0  0  0
    1.1068   -0.5179    0.6907 C   0  0  0  0  0  0  0  0  0  0  0  0
    0.7389   -1.3579   -0.3561 O   0  0  0  0  0  0  0  0  0  0  0  0
   -0.3326   -0.6235    0.1967 C   0  0  0  0  0  0  0  0  0  0  0  0
   -1.2631   -1.2806    1.1098 C   0  0  0  0  0  0  0  0  0  0  0  0
   -2.3534   -0.7869    1.3100 O   0  0  0  0  0  0  0  0  0  0  0  0
   -0.8272    0.4350   -0.7647 C   0  0  0  0  0  0  0  0  0  0  0  0
   -1.2503   -0.2378   -1.9094 O   0  0  0  0  0  0  0  0  0  0  0  0
    2.9333    2.6070   -0.1693 H   0  0  0  0  0  0  0  0  0  0  0  0
    1.3607   -1.0272    1.6671 H   0  0  0  0  0  0  0  0  0  0  0  0
   -0.9996   -2.1937    1.6066 H   0  0  0  0  0  0  0  0  0  0  0  0
   -1.5991    1.0835   -0.3355 H   0  0  0  0  0  0  0  0  0  0  0  0
    0.0463    1.0839   -1.0050 H   0  0  0  0  0  0  0  0  0  0  0  0
   -1.7906    0.4011   -2.4439 H   0  0  0  0  0  0  0  0  0  0  0  0
  1  2  3  0
  2  3  1  0
  3  4  1  0
  4  5  1  0
  5  6  1  0
  6  7  2  0
  5  8  1  0
  8  9  1  0
  5  3  1  0
  1 10  1  0
  3 11  1  0
  6 12  1  0
  8 13  1  0
  8 14  1  0
  9 15  1  0
M  END
