
     RDKit          3D

 19 20  0  0  0  0  0  0  0  0999 V2000
    3.6379   -0.9330    0.0498 C   0  0  0  0  0  0  0  0  0  0  0  0
    2.4712   -0.8398    0.3592 C   0  0  0  0  0  0  0  0  0  0  0  0
    1.0812   -0.7056    0.7387 C   0  0  0  0  0  0  0  0  0  0  0  0
    0.7615    0.7399    1.1289 C   0  0  0  0  0  0  0  0  0  0  0  0
   -0.1888    0.8089   -0.0246 C   0  0  0  0  0  0  0  0  0  0  0  0
   -1.2524   -0.2460   -0.1134 C   0  0  0  0  0  0  0  0  0  0  0  0
   -2.2401    0.0024   -1.2489 C   0  0  0  0  0  0  0  0  0  0  0  0
   -2.8328    1.2567   -0.9747 O   0  0  0  0  0  0  0  0  0  0  0  0
    0.1576   -0.6019   -0.4387 C   0  0  0  0  0  0  0  0  0  0  0  0
    4.6703   -1.0335   -0.2190 H   0  0  0  0  0  0  0  0  0  0  0  0
    0.7279   -1.4581    1.4685 H   0  0  0  0  0  0  0  0  0  0  0  0
    0.3062    0.7511    2.1386 H   0  0  0  0  0  0  0  0  0  0  0  0
    1.5954    1.4466    0.9842 H   0  0  0  0  0  0  0  0  0  0  0  0
   -0.0683    1.5531   -0.8251 H   0  0  0  0  0  0  0  0  0  0  0  0
   -1.6531   -0.5797    0.8499 H   0  0  0  0  0  0  0  0  0  0  0  0
   -3.0679   -0.7283   -1.2033 H   0  0  0  0  0  0  0  0  0  0  0  0
   -1.7275    0.0075   -2.2220 H   0  0  0  0  0  0  0  0  0  0  0  0
   -2.8670    1.3881    0.0232 H   0  0  0  0  0  0  0  0  0  0  0  0
    0.4887   -0.8285   -1.4509 H   0  0  0  0  0  0  0  0  0  0  0  0
  1  2  3  0
  2  3  1  0
  3  4  1  0
  4  5  1  0
  5  6  1  0
  6  7  1  0
  7  8  1  0
  6  9  1  0
  9  3  1  0
  9  5  1  0
  1 10  1  0
  3 11  1  0
  4 12  1  0
  4 13  1  0
  5 14  1  0
  6 15  1  0
  7 16  1  0
  7 17  1  0
  8 18  1  0
  9 19  1  0
M  END
