
     RDKit          3D

 17 17  0  0  0  0  0  0  0  0999 V2000
    2.9027    0.5936   -0.6250 C   0  0  0  0  0  0  0  0  0  0  0  0
    1.9919   -0.0460   -0.1517 C   0  0  0  0  0  0  0  0  0  0  0  0
    0.9015   -0.8367    0.4292 C   0  0  0  0  0  0  0  0  0  0  0  0
   -0.4055   -0.1454    0.2466 C   0  0  0  0  0  0  0  0  0  0  0  0
   -1.6014   -0.9002    0.8235 C   0  0  0  0  0  0  0  0  0  0  0  0
   -0.6424    0.4347   -1.1558 C   0  0  0  0  0  0  0  0  0  0  0  0
   -0.5272    1.3100    0.0579 C   0  0  0  0  0  0  0  0  0  0  0  0
    3.7019    1.1641   -1.0611 H   0  0  0  0  0  0  0  0  0  0  0  0
    1.0872   -1.0631    1.4993 H   0  0  0  0  0  0  0  0  0  0  0  0
    0.8310   -1.8391   -0.0745 H   0  0  0  0  0  0  0  0  0  0  0  0
   -1.7418   -1.8797    0.3182 H   0  0  0  0  0  0  0  0  0  0  0  0
   -1.3902   -1.0418    1.9040 H   0  0  0  0  0  0  0  0  0  0  0  0
   -2.5107   -0.2503    0.7322 H   0  0  0  0  0  0  0  0  0  0  0  0
   -1.6326    0.2469   -1.6153 H   0  0  0  0  0  0  0  0  0  0  0  0
    0.2026    0.4915   -1.8500 H   0  0  0  0  0  0  0  0  0  0  0  0
   -1.4939    1.7606    0.4005 H   0  0  0  0  0  0  0  0  0  0  0  0
    0.3267    2.0008    0.1222 H   0  0  0  0  0  0  0  0  0  0  0  0
  1  2  3  0
  2  3  1  0
  3  4  1  0
  4  5  1  0
  4  6  1  0
  6  7  1  0
  7  4  1  0
  1  8  1  0
  3  9  1  0
  3 10  1  0
  5 11  1  0
  5 12  1  0
  5 13  1  0
  6 14  1  0
  6 15  1  0
  7 16  1  0
  7 17  1  0
M  END
