
     RDKit          3D

 15 14  0  0  0  0  0  0  0  0999 V2000
    3.4864    0.9028   -1.1425 C   0  0  0  0  0  0  0  0  0  0  0  0
    2.5288    0.1452   -0.6884 C   0  0  0  0  0  0  0  0  0  0  0  0
    1.4479   -0.7394   -0.1769 C   0  0  0  0  0  0  0  0  0  0  0  0
    1.5613   -1.7097    0.3245 O   0  0  0  0  0  0  0  0  0  0  0  0
    0.2592    0.0011   -0.5344 O   0  0  0  0  0  0  0  0  0  0  0  0
   -1.1104   -0.0354   -0.5282 C   0  0  0  0  0  0  0  0  0  0  0  0
   -1.1224   -1.2309    0.8499 C   0  0  0  0  0  0  0  0  0  0  0  0
   -1.5934    0.9706    0.2419 C   0  0  0  0  0  0  0  0  0  0  0  0
   -2.1255    2.0536    1.0471 C   0  0  0  0  0  0  0  0  0  0  0  0
    4.3535    1.6119   -1.5502 H   0  0  0  0  0  0  0  0  0  0  0  0
   -1.7567   -0.7557   -0.8925 H   0  0  0  0  0  0  0  0  0  0  0  0
   -0.8078   -0.6423    1.6382 H   0  0  0  0  0  0  0  0  0  0  0  0
   -2.1361   -1.4848    0.6989 H   0  0  0  0  0  0  0  0  0  0  0  0
   -0.4774   -1.9176    0.3563 H   0  0  0  0  0  0  0  0  0  0  0  0
   -2.5073    2.8308    1.6471 H   0  0  0  0  0  0  0  0  0  0  0  0
  1  2  3  0
  2  3  1  0
  3  4  2  0
  3  5  1  0
  5  6  1  0
  6  7  1  0
  6  8  1  0
  8  9  3  0
  1 10  1  0
  6 11  1  0
  7 12  1  0
  7 13  1  0
  7 14  1  0
  9 15  1  0
M  END
