
     RDKit          3D

 21 22  0  0  0  0  0  0  0  0999 V2000
   -1.7387    2.1574    0.0706 C   0  0  0  0  0  0  0  0  0  0  0  0
   -1.3042    1.0188    0.0414 C   0  0  0  0  0  0  0  0  0  0  0  0
   -0.7880   -0.3299    0.0165 C   0  0  0  0  0  0  0  0  0  0  0  0
   -1.8466   -1.3720   -0.0075 C   0  0  0  0  0  0  0  0  0  0  0  0
    0.1675   -0.4355   -1.1734 C   0  0  0  0  0  0  0  0  0  0  0  0
    1.2101    0.5807   -0.7842 C   0  0  0  0  0  0  0  0  0  0  0  0
    2.4177    0.1970   -0.0290 C   0  0  0  0  0  0  0  0  0  0  0  0
    1.2291    0.5630    0.7641 C   0  0  0  0  0  0  0  0  0  0  0  0
    0.1966   -0.4787    1.1473 C   0  0  0  0  0  0  0  0  0  0  0  0
   -2.1110    3.1488    0.1058 H   0  0  0  0  0  0  0  0  0  0  0  0
   -2.6200   -1.0668   -0.7367 H   0  0  0  0  0  0  0  0  0  0  0  0
   -2.3310   -1.4100    0.9790 H   0  0  0  0  0  0  0  0  0  0  0  0
   -1.4403   -2.3432   -0.3392 H   0  0  0  0  0  0  0  0  0  0  0  0
    0.6055   -1.4676   -1.1901 H   0  0  0  0  0  0  0  0  0  0  0  0
   -0.3377   -0.2250   -2.1146 H   0  0  0  0  0  0  0  0  0  0  0  0
    1.0700    1.5708   -1.2424 H   0  0  0  0  0  0  0  0  0  0  0  0
    3.2394    0.9425   -0.0263 H   0  0  0  0  0  0  0  0  0  0  0  0
    2.7931   -0.8433   -0.0865 H   0  0  0  0  0  0  0  0  0  0  0  0
    1.1687    1.5234    1.2825 H   0  0  0  0  0  0  0  0  0  0  0  0
   -0.2163   -0.2334    2.1295 H   0  0  0  0  0  0  0  0  0  0  0  0
    0.6360   -1.4970    1.1933 H   0  0  0  0  0  0  0  0  0  0  0  0
  1  2  3  0
  2  3  1  0
  3  4  1  0
  3  5  1  0
  5  6  1  0
  6  7  1  0
  7  8  1  0
  8  9  1  0
  9  3  1  0
  8  6  1  0
  1 10  1  0
  4 11  1  0
  4 12  1  0
  4 13  1  0
  5 14  1  0
  5 15  1  0
  6 16  1  0
  7 17  1  0
  7 18  1  0
  8 19  1  0
  9 20  1  0
  9 21  1  0
M  END
