
     RDKit          3D

 15 15  0  0  0  0  0  0  0  0999 V2000
    4.9694   -1.1190   -0.2491 C   0  0  0  0  0  0  0  0  0  0  0  0
    3.8911   -0.9044   -0.2388 C   0  0  0  0  0  0  0  0  0  0  0  0
    2.3772   -0.5757   -0.2231 C   0  0  0  0  0  0  0  0  0  0  0  0
    1.0260   -0.2795   -0.2255 C   0  0  0  0  0  0  0  0  0  0  0  0
   -0.1515   -0.0423   -0.2316 C   0  0  0  0  0  0  0  0  0  0  0  0
   -1.0260    0.1493   -1.2457 O   0  0  0  0  0  0  0  0  0  0  0  0
   -1.4628   -0.5221    0.0739 C   0  0  0  0  0  0  0  0  0  0  0  0
   -2.5550    0.3874    0.7082 C   0  0  0  0  0  0  0  0  0  0  0  0
   -1.9499    1.5828    1.0596 O   0  0  0  0  0  0  0  0  0  0  0  0
    5.7060   -1.2523   -0.2563 H   0  0  0  0  0  0  0  0  0  0  0  0
   -0.1845    1.1417    0.4620 H   0  0  0  0  0  0  0  0  0  0  0  0
   -1.9444   -1.4441   -0.3416 H   0  0  0  0  0  0  0  0  0  0  0  0
   -3.2490    0.6063   -0.1754 H   0  0  0  0  0  0  0  0  0  0  0  0
   -3.0818   -0.0933    1.4923 H   0  0  0  0  0  0  0  0  0  0  0  0
   -2.3647    2.3653    0.5623 H   0  0  0  0  0  0  0  0  0  0  0  0
  1  2  3  0
  2  3  1  0
  3  4  3  0
  4  5  1  0
  5  6  1  0
  6  7  1  0
  7  8  1  0
  8  9  1  0
  7  5  1  0
  1 10  1  0
  5 11  1  0
  7 12  1  0
  8 13  1  0
  8 14  1  0
  9 15  1  0
M  END
