
     RDKit          3D

 17 17  0  0  0  0  0  0  0  0999 V2000
   -1.4663    2.1719   -0.8811 C   0  0  0  0  0  0  0  0  0  0  0  0
   -0.7897    1.2981   -0.4578 C   0  0  0  0  0  0  0  0  0  0  0  0
    0.0452    0.2216    0.0442 C   0  0  0  0  0  0  0  0  0  0  0  0
   -0.5558   -0.6961    0.8635 O   0  0  0  0  0  0  0  0  0  0  0  0
   -1.5988   -1.3373    0.2250 C   0  0  0  0  0  0  0  0  0  0  0  0
    1.3559    0.7069    0.6614 C   0  0  0  0  0  0  0  0  0  0  0  0
    1.9477   -0.5302    0.1210 C   0  0  0  0  0  0  0  0  0  0  0  0
    2.8269   -1.2755    0.4309 O   0  0  0  0  0  0  0  0  0  0  0  0
    0.9612   -0.4231   -0.9693 C   0  0  0  0  0  0  0  0  0  0  0  0
   -2.0649    2.9635   -1.2770 H   0  0  0  0  0  0  0  0  0  0  0  0
   -1.2262   -1.8657   -0.6690 H   0  0  0  0  0  0  0  0  0  0  0  0
   -2.0875   -2.0852    0.8635 H   0  0  0  0  0  0  0  0  0  0  0  0
   -2.3213   -0.5294   -0.0869 H   0  0  0  0  0  0  0  0  0  0  0  0
    1.6850    1.6079    0.0967 H   0  0  0  0  0  0  0  0  0  0  0  0
    1.3408    0.8202    1.7529 H   0  0  0  0  0  0  0  0  0  0  0  0
    0.6049   -1.3632   -1.4149 H   0  0  0  0  0  0  0  0  0  0  0  0
    1.3428    0.3156   -1.7315 H   0  0  0  0  0  0  0  0  0  0  0  0
  1  2  3  0
  2  3  1  0
  3  4  1  0
  4  5  1  0
  3  6  1  0
  6  7  1  0
  7  8  2  0
  7  9  1  0
  9  3  1  0
  1 10  1  0
  5 11  1  0
  5 12  1  0
  5 13  1  0
  6 14  1  0
  6 15  1  0
  9 16  1  0
  9 17  1  0
M  END
