
     RDKit          3D

 21 21  0  0  0  0  0  0  0  0999 V2000
   -1.0696    3.3014   -1.0165 C   0  0  0  0  0  0  0  0  0  0  0  0
   -0.5129    2.3023   -0.6520 C   0  0  0  0  0  0  0  0  0  0  0  0
    0.1658    1.0853   -0.1822 C   0  0  0  0  0  0  0  0  0  0  0  0
    0.4785    0.2406   -1.2465 O   0  0  0  0  0  0  0  0  0  0  0  0
    0.7990   -0.9432   -0.5475 C   0  0  0  0  0  0  0  0  0  0  0  0
    1.1435   -2.0477   -1.4798 C   0  0  0  0  0  0  0  0  0  0  0  0
   -0.4845   -1.1613    0.2232 C   0  0  0  0  0  0  0  0  0  0  0  0
   -0.8006    0.2829    0.6360 C   0  0  0  0  0  0  0  0  0  0  0  0
   -0.3960    0.4272    2.0961 C   0  0  0  0  0  0  0  0  0  0  0  0
   -1.5727    4.1907   -1.3606 H   0  0  0  0  0  0  0  0  0  0  0  0
    1.0772    1.3814    0.3730 H   0  0  0  0  0  0  0  0  0  0  0  0
    1.5984   -0.6965    0.1877 H   0  0  0  0  0  0  0  0  0  0  0  0
    1.9887   -2.6324   -1.0178 H   0  0  0  0  0  0  0  0  0  0  0  0
    1.5711   -1.5937   -2.4057 H   0  0  0  0  0  0  0  0  0  0  0  0
    0.3019   -2.6943   -1.7560 H   0  0  0  0  0  0  0  0  0  0  0  0
   -0.3370   -1.7923    1.1175 H   0  0  0  0  0  0  0  0  0  0  0  0
   -1.2886   -1.5689   -0.4195 H   0  0  0  0  0  0  0  0  0  0  0  0
   -1.8538    0.5378    0.4845 H   0  0  0  0  0  0  0  0  0  0  0  0
   -0.3954    1.4941    2.4083 H   0  0  0  0  0  0  0  0  0  0  0  0
    0.6435    0.0626    2.2207 H   0  0  0  0  0  0  0  0  0  0  0  0
   -1.0567   -0.1760    2.7500 H   0  0  0  0  0  0  0  0  0  0  0  0
  1  2  3  0
  2  3  1  0
  3  4  1  0
  4  5  1  0
  5  6  1  0
  5  7  1  0
  7  8  1  0
  8  9  1  0
  8  3  1  0
  1 10  1  0
  3 11  1  0
  5 12  1  0
  6 13  1  0
  6 14  1  0
  6 15  1  0
  7 16  1  0
  7 17  1  0
  8 18  1  0
  9 19  1  0
  9 20  1  0
  9 21  1  0
M  END
