
     RDKit          3D

 15 14  0  0  0  0  0  0  0  0999 V2000
   -3.7127   -0.0677   -0.1996 C   0  0  0  0  0  0  0  0  0  0  0  0
   -2.5498    0.2421   -0.0895 C   0  0  0  0  0  0  0  0  0  0  0  0
   -1.1307    0.6127    0.0199 C   0  0  0  0  0  0  0  0  0  0  0  0
   -0.8705    1.0252    1.3137 O   0  0  0  0  0  0  0  0  0  0  0  0
   -0.2382   -0.5731   -0.3076 C   0  0  0  0  0  0  0  0  0  0  0  0
    1.1605   -0.1568   -0.1846 C   0  0  0  0  0  0  0  0  0  0  0  0
    2.3096    0.2032   -0.0760 C   0  0  0  0  0  0  0  0  0  0  0  0
    3.6694    0.6420    0.0422 C   0  0  0  0  0  0  0  0  0  0  0  0
    4.5449    0.2876   -0.7851 O   0  0  0  0  0  0  0  0  0  0  0  0
   -4.7279   -0.3519   -0.2951 H   0  0  0  0  0  0  0  0  0  0  0  0
   -0.8581    1.4386   -0.6646 H   0  0  0  0  0  0  0  0  0  0  0  0
   -0.7611    2.0178    1.3853 H   0  0  0  0  0  0  0  0  0  0  0  0
   -0.3894   -1.4228    0.3656 H   0  0  0  0  0  0  0  0  0  0  0  0
   -0.4240   -0.8989   -1.3722 H   0  0  0  0  0  0  0  0  0  0  0  0
    3.9781    1.2905    0.8477 H   0  0  0  0  0  0  0  0  0  0  0  0
  1  2  3  0
  2  3  1  0
  3  4  1  0
  3  5  1  0
  5  6  1  0
  6  7  3  0
  7  8  1  0
  8  9  2  0
  1 10  1  0
  3 11  1  0
  4 12  1  0
  5 13  1  0
  5 14  1  0
  8 15  1  0
M  END
