
     RDKit          3D

 15 15  0  0  0  0  0  0  0  0999 V2000
   -0.6416    1.8713   -1.9531 C   0  0  0  0  0  0  0  0  0  0  0  0
   -0.4506    1.0097   -1.1069 C   0  0  0  0  0  0  0  0  0  0  0  0
   -0.2460   -0.0311   -0.0932 C   0  0  0  0  0  0  0  0  0  0  0  0
    0.8211    0.1653    0.8075 O   0  0  0  0  0  0  0  0  0  0  0  0
    1.9828    0.2362    0.0411 C   0  0  0  0  0  0  0  0  0  0  0  0
   -1.5657   -0.5569    0.5493 C   0  0  0  0  0  0  0  0  0  0  0  0
   -0.7077   -1.3969   -0.3122 C   0  0  0  0  0  0  0  0  0  0  0  0
   -0.8007    2.6313   -2.6761 H   0  0  0  0  0  0  0  0  0  0  0  0
    1.9067    1.0989   -0.6845 H   0  0  0  0  0  0  0  0  0  0  0  0
    2.0783   -0.6647   -0.6321 H   0  0  0  0  0  0  0  0  0  0  0  0
    2.8798    0.3554    0.6887 H   0  0  0  0  0  0  0  0  0  0  0  0
   -1.5465   -0.6388    1.6600 H   0  0  0  0  0  0  0  0  0  0  0  0
   -2.5066   -0.1966    0.0835 H   0  0  0  0  0  0  0  0  0  0  0  0
   -1.0529   -1.6769   -1.3089 H   0  0  0  0  0  0  0  0  0  0  0  0
   -0.1503   -2.2062    0.2423 H   0  0  0  0  0  0  0  0  0  0  0  0
  1  2  3  0
  2  3  1  0
  3  4  1  0
  4  5  1  0
  3  6  1  0
  6  7  1  0
  7  3  1  0
  1  8  1  0
  5  9  1  0
  5 10  1  0
  5 11  1  0
  6 12  1  0
  6 13  1  0
  7 14  1  0
  7 15  1  0
M  END
