
     RDKit          3D

 23 22  0  0  0  0  0  0  0  0999 V2000
    0.8446   -3.1728   -0.6465 C   0  0  0  0  0  0  0  0  0  0  0  0
    1.1378   -2.0247   -0.4478 C   0  0  0  0  0  0  0  0  0  0  0  0
    1.4816   -0.6588   -0.2359 C   0  0  0  0  0  0  0  0  0  0  0  0
    0.4528    0.1492    0.4600 C   0  0  0  0  0  0  0  0  0  0  0  0
    1.1448    1.5515    0.5664 C   0  0  0  0  0  0  0  0  0  0  0  0
    2.3203    1.4503    1.3015 O   0  0  0  0  0  0  0  0  0  0  0  0
   -0.8095    0.4179   -0.3015 C   0  0  0  0  0  0  0  0  0  0  0  0
   -1.5746   -0.8020   -0.7350 C   0  0  0  0  0  0  0  0  0  0  0  0
   -1.7874    1.2253    0.5706 C   0  0  0  0  0  0  0  0  0  0  0  0
    0.5614   -4.2070   -0.8235 H   0  0  0  0  0  0  0  0  0  0  0  0
    1.7697   -0.1079   -1.1571 H   0  0  0  0  0  0  0  0  0  0  0  0
    2.3997   -0.6122    0.4321 H   0  0  0  0  0  0  0  0  0  0  0  0
    0.2225   -0.1383    1.4933 H   0  0  0  0  0  0  0  0  0  0  0  0
    0.4399    2.2996    0.9148 H   0  0  0  0  0  0  0  0  0  0  0  0
    1.4524    1.8571   -0.4725 H   0  0  0  0  0  0  0  0  0  0  0  0
    2.1269    0.8250    2.0607 H   0  0  0  0  0  0  0  0  0  0  0  0
   -0.5848    1.0737   -1.1638 H   0  0  0  0  0  0  0  0  0  0  0  0
   -2.5769   -0.4782   -1.1327 H   0  0  0  0  0  0  0  0  0  0  0  0
   -1.0758   -1.2923   -1.6099 H   0  0  0  0  0  0  0  0  0  0  0  0
   -1.7599   -1.5565    0.0071 H   0  0  0  0  0  0  0  0  0  0  0  0
   -1.5858    1.0225    1.6636 H   0  0  0  0  0  0  0  0  0  0  0  0
   -1.7651    2.2917    0.3137 H   0  0  0  0  0  0  0  0  0  0  0  0
   -2.8347    0.8869    0.4185 H   0  0  0  0  0  0  0  0  0  0  0  0
  1  2  3  0
  2  3  1  0
  3  4  1  0
  4  5  1  0
  5  6  1  0
  4  7  1  0
  7  8  1  0
  7  9  1  0
  1 10  1  0
  3 11  1  0
  3 12  1  0
  4 13  1  0
  5 14  1  0
  5 15  1  0
  6 16  1  0
  7 17  1  0
  8 18  1  0
  8 19  1  0
  8 20  1  0
  9 21  1  0
  9 22  1  0
  9 23  1  0
M  END
