
     RDKit          3D

 15 16  0  0  0  0  0  0  0  0999 V2000
   -2.0133   -1.9461    1.3827 C   0  0  0  0  0  0  0  0  0  0  0  0
   -1.1381   -1.1093    1.0929 C   0  0  0  0  0  0  0  0  0  0  0  0
   -0.1714   -0.1702    0.7457 C   0  0  0  0  0  0  0  0  0  0  0  0
   -0.5021    1.2616    0.6193 C   0  0  0  0  0  0  0  0  0  0  0  0
   -0.4313    1.2078   -0.8480 C   0  0  0  0  0  0  0  0  0  0  0  0
    0.5514    0.2281   -0.3397 C   0  0  0  0  0  0  0  0  0  0  0  0
    1.5523   -0.3655   -1.0544 C   0  0  0  0  0  0  0  0  0  0  0  0
    2.4541   -0.8974   -1.6885 C   0  0  0  0  0  0  0  0  0  0  0  0
    0.9444    1.3926    0.5065 O   0  0  0  0  0  0  0  0  0  0  0  0
   -2.8137   -2.7301    1.6366 H   0  0  0  0  0  0  0  0  0  0  0  0
    0.6792   -0.3028    1.6753 H   0  0  0  0  0  0  0  0  0  0  0  0
   -1.0069    1.9382    1.1837 H   0  0  0  0  0  0  0  0  0  0  0  0
   -0.0079    2.1038   -1.3099 H   0  0  0  0  0  0  0  0  0  0  0  0
   -1.3788    0.7940   -1.3377 H   0  0  0  0  0  0  0  0  0  0  0  0
    3.2821   -1.4046   -2.2646 H   0  0  0  0  0  0  0  0  0  0  0  0
  1  2  3  0
  2  3  1  0
  3  4  1  0
  4  5  1  0
  5  6  1  0
  6  7  1  0
  7  8  3  0
  6  9  1  0
  6  3  1  0
  9  4  1  0
  1 10  1  0
  3 11  1  0
  4 12  1  0
  5 13  1  0
  5 14  1  0
  8 15  1  0
M  END
