
     RDKit          3D

 19 19  0  0  0  0  0  0  0  0999 V2000
    2.5414    2.4574    0.3901 C   0  0  0  0  0  0  0  0  0  0  0  0
    2.0729    1.3495    0.3657 C   0  0  0  0  0  0  0  0  0  0  0  0
    1.4758   -0.0056    0.3473 C   0  0  0  0  0  0  0  0  0  0  0  0
    0.6776   -0.2794    1.5681 C   0  0  0  0  0  0  0  0  0  0  0  0
   -0.7158   -0.3213    1.1282 C   0  0  0  0  0  0  0  0  0  0  0  0
   -0.8203   -0.2411   -0.1874 C   0  0  0  0  0  0  0  0  0  0  0  0
   -2.1167   -0.2589   -0.9235 C   0  0  0  0  0  0  0  0  0  0  0  0
   -2.2985    0.9104   -1.6678 O   0  0  0  0  0  0  0  0  0  0  0  0
    0.5319   -0.1344   -0.7879 C   0  0  0  0  0  0  0  0  0  0  0  0
    2.9374    3.4362    0.4036 H   0  0  0  0  0  0  0  0  0  0  0  0
    2.3043   -0.7369    0.1922 H   0  0  0  0  0  0  0  0  0  0  0  0
    0.8641    0.5480    2.2986 H   0  0  0  0  0  0  0  0  0  0  0  0
    0.9875   -1.2109    2.0999 H   0  0  0  0  0  0  0  0  0  0  0  0
   -1.5622   -0.4081    1.7938 H   0  0  0  0  0  0  0  0  0  0  0  0
   -2.9666   -0.4896   -0.2679 H   0  0  0  0  0  0  0  0  0  0  0  0
   -2.0397   -1.0842   -1.6567 H   0  0  0  0  0  0  0  0  0  0  0  0
   -3.0730    0.7590   -2.2666 H   0  0  0  0  0  0  0  0  0  0  0  0
    0.5112    0.7793   -1.4226 H   0  0  0  0  0  0  0  0  0  0  0  0
    0.6887   -1.0407   -1.4070 H   0  0  0  0  0  0  0  0  0  0  0  0
  1  2  3  0
  2  3  1  0
  3  4  1  0
  4  5  1  0
  5  6  2  0
  6  7  1  0
  7  8  1  0
  6  9  1  0
  9  3  1  0
  1 10  1  0
  3 11  1  0
  4 12  1  0
  4 13  1  0
  5 14  1  0
  7 15  1  0
  7 16  1  0
  8 17  1  0
  9 18  1  0
  9 19  1  0
M  END
