
     RDKit          3D

 19 19  0  0  0  0  0  0  0  0999 V2000
   -2.3637   -0.0573    1.6206 C   0  0  0  0  0  0  0  0  0  0  0  0
   -1.7372   -0.0498    0.5681 C   0  0  0  0  0  0  0  0  0  0  0  0
   -0.9702   -0.0473   -0.6787 C   0  0  0  0  0  0  0  0  0  0  0  0
   -1.7032   -0.4824   -1.7984 O   0  0  0  0  0  0  0  0  0  0  0  0
    0.0665    0.9650   -0.8711 C   0  0  0  0  0  0  0  0  0  0  0  0
    0.2949    2.0096    0.1864 C   0  0  0  0  0  0  0  0  0  0  0  0
    0.4613   -0.4345   -0.5681 C   0  0  0  0  0  0  0  0  0  0  0  0
    1.0007   -0.7668    0.6701 O   0  0  0  0  0  0  0  0  0  0  0  0
    1.8341   -1.8622    0.6187 C   0  0  0  0  0  0  0  0  0  0  0  0
   -2.9017   -0.0818    2.5330 H   0  0  0  0  0  0  0  0  0  0  0  0
   -2.1910    0.3113   -2.1613 H   0  0  0  0  0  0  0  0  0  0  0  0
    0.2602    1.3377   -1.9132 H   0  0  0  0  0  0  0  0  0  0  0  0
    0.1513    3.0203   -0.2465 H   0  0  0  0  0  0  0  0  0  0  0  0
    1.3106    1.9493    0.6355 H   0  0  0  0  0  0  0  0  0  0  0  0
   -0.4164    1.8021    1.0136 H   0  0  0  0  0  0  0  0  0  0  0  0
    0.8076   -1.1246   -1.3830 H   0  0  0  0  0  0  0  0  0  0  0  0
    1.2404   -2.7471    0.2439 H   0  0  0  0  0  0  0  0  0  0  0  0
    2.2052   -2.0526    1.6389 H   0  0  0  0  0  0  0  0  0  0  0  0
    2.6505   -1.6888   -0.1086 H   0  0  0  0  0  0  0  0  0  0  0  0
  1  2  3  0
  2  3  1  0
  3  4  1  0
  3  5  1  0
  5  6  1  0
  5  7  1  0
  7  8  1  0
  8  9  1  0
  7  3  1  0
  1 10  1  0
  4 11  1  0
  5 12  1  0
  6 13  1  0
  6 14  1  0
  6 15  1  0
  7 16  1  0
  9 17  1  0
  9 18  1  0
  9 19  1  0
M  END
