
     RDKit          3D

 17 16  0  0  0  0  0  0  0  0999 V2000
    2.4677   -1.8252    0.4954 C   0  0  0  0  0  0  0  0  0  0  0  0
    1.4361   -1.7885    0.5292 C   0  0  0  0  0  0  0  0  0  0  0  0
    0.1300   -1.7390    0.5490 C   0  0  0  0  0  0  0  0  0  0  0  0
   -0.3645   -0.4663    0.5313 O   0  0  0  0  0  0  0  0  0  0  0  0
   -0.7929    0.6339    0.5160 C   0  0  0  0  0  0  0  0  0  0  0  0
   -0.0747    1.6645    1.3840 C   0  0  0  0  0  0  0  0  0  0  0  0
   -0.4671    2.8291    1.2797 O   0  0  0  0  0  0  0  0  0  0  0  0
   -0.4457    1.1703   -1.0132 C   0  0  0  0  0  0  0  0  0  0  0  0
   -1.2980    0.2287   -1.7029 O   0  0  0  0  0  0  0  0  0  0  0  0
    3.8508   -1.8583    0.4682 H   0  0  0  0  0  0  0  0  0  0  0  0
   -0.2834   -2.1565    1.5454 H   0  0  0  0  0  0  0  0  0  0  0  0
   -0.4924   -2.3898   -0.1765 H   0  0  0  0  0  0  0  0  0  0  0  0
   -1.8393    0.9496    0.5171 H   0  0  0  0  0  0  0  0  0  0  0  0
    0.6770    1.3274    1.9890 H   0  0  0  0  0  0  0  0  0  0  0  0
    0.5791    1.0394   -1.2010 H   0  0  0  0  0  0  0  0  0  0  0  0
   -0.8797    2.1045   -1.0475 H   0  0  0  0  0  0  0  0  0  0  0  0
   -2.2030    0.2762   -1.2422 H   0  0  0  0  0  0  0  0  0  0  0  0
  1  2  3  0
  2  3  1  0
  3  4  1  0
  4  5  1  0
  5  6  1  0
  6  7  2  0
  5  8  1  0
  8  9  1  0
  1 10  1  0
  3 11  1  0
  3 12  1  0
  5 13  1  0
  6 14  1  0
  8 15  1  0
  8 16  1  0
  9 17  1  0
M  END
