
     RDKit          3D

 20 19  0  0  0  0  0  0  0  0999 V2000
   -2.2628   -2.3367    0.5018 C   0  0  0  0  0  0  0  0  0  0  0  0
   -1.1796   -1.8997    0.2030 C   0  0  0  0  0  0  0  0  0  0  0  0
    0.1559   -1.3639   -0.1535 C   0  0  0  0  0  0  0  0  0  0  0  0
   -0.0118    0.1127   -0.4506 C   0  0  0  0  0  0  0  0  0  0  0  0
    1.3258    0.6989   -0.8187 C   0  0  0  0  0  0  0  0  0  0  0  0
    2.3460    0.5570    0.2874 C   0  0  0  0  0  0  0  0  0  0  0  0
   -0.5327    0.7150    0.6915 O   0  0  0  0  0  0  0  0  0  0  0  0
   -1.7608    1.3149    0.4585 C   0  0  0  0  0  0  0  0  0  0  0  0
   -3.2187   -2.7133    0.7811 H   0  0  0  0  0  0  0  0  0  0  0  0
    0.5075   -1.9208   -1.0317 H   0  0  0  0  0  0  0  0  0  0  0  0
    0.8579   -1.4641    0.6968 H   0  0  0  0  0  0  0  0  0  0  0  0
   -0.6817    0.2377   -1.2988 H   0  0  0  0  0  0  0  0  0  0  0  0
    1.2006    1.7830   -1.0244 H   0  0  0  0  0  0  0  0  0  0  0  0
    1.7200    0.1536   -1.6922 H   0  0  0  0  0  0  0  0  0  0  0  0
    3.2436    1.1464   -0.0486 H   0  0  0  0  0  0  0  0  0  0  0  0
    2.6311   -0.4853    0.4554 H   0  0  0  0  0  0  0  0  0  0  0  0
    1.9838    1.0258    1.2453 H   0  0  0  0  0  0  0  0  0  0  0  0
   -2.5138    0.5638    0.1079 H   0  0  0  0  0  0  0  0  0  0  0  0
   -1.7177    2.1006   -0.3149 H   0  0  0  0  0  0  0  0  0  0  0  0
   -2.0924    1.7744    1.4047 H   0  0  0  0  0  0  0  0  0  0  0  0
  1  2  3  0
  2  3  1  0
  3  4  1  0
  4  5  1  0
  5  6  1  0
  4  7  1  0
  7  8  1  0
  1  9  1  0
  3 10  1  0
  3 11  1  0
  4 12  1  0
  5 13  1  0
  5 14  1  0
  6 15  1  0
  6 16  1  0
  6 17  1  0
  8 18  1  0
  8 19  1  0
  8 20  1  0
M  END
