
     RDKit          3D

 14 17  0  0  0  0  0  0  0  0999 V2000
    2.5971    1.5319   -0.3771 C   0  0  0  0  0  0  0  0  0  0  0  0
    1.5789    0.9336   -0.1592 C   0  0  0  0  0  0  0  0  0  0  0  0
    0.3882    0.2619    0.0932 C   0  0  0  0  0  0  0  0  0  0  0  0
   -0.9145    0.4227   -0.5311 C   0  0  0  0  0  0  0  0  0  0  0  0
   -1.1866   -0.9857   -0.3995 C   0  0  0  0  0  0  0  0  0  0  0  0
   -1.5279   -0.2340    0.7546 C   0  0  0  0  0  0  0  0  0  0  0  0
   -0.1556   -0.3028    1.2734 C   0  0  0  0  0  0  0  0  0  0  0  0
    0.1888   -1.1714    0.1437 C   0  0  0  0  0  0  0  0  0  0  0  0
    3.5064    2.0554   -0.5846 H   0  0  0  0  0  0  0  0  0  0  0  0
   -1.3918    1.2361   -0.9739 H   0  0  0  0  0  0  0  0  0  0  0  0
   -1.7158   -1.6593   -1.0146 H   0  0  0  0  0  0  0  0  0  0  0  0
   -2.3685    0.2680    1.1140 H   0  0  0  0  0  0  0  0  0  0  0  0
    0.1693   -0.3741    2.2758 H   0  0  0  0  0  0  0  0  0  0  0  0
    0.8319   -1.9822    0.0773 H   0  0  0  0  0  0  0  0  0  0  0  0
  1  2  3  0
  2  3  1  0
  3  4  1  0
  4  5  1  0
  5  6  1  0
  6  7  1  0
  7  8  1  0
  7  3  1  0
  8  3  1  0
  6  4  1  0
  8  5  1  0
  1  9  1  0
  4 10  1  0
  5 11  1  0
  6 12  1  0
  7 13  1  0
  8 14  1  0
M  END
