
     RDKit          3D

 19 19  0  0  0  0  0  0  0  0999 V2000
   -2.8488    1.7532   -0.0812 C   0  0  0  0  0  0  0  0  0  0  0  0
    0.3112    1.3061    1.0975 C   0  0  0  0  0  0  0  0  0  0  0  0
    0.6788    1.2571    1.2395 C   0  0  0  0  0  0  0  0  0  0  0  0
   -0.1677   -0.4982    1.5208 C   0  0  0  0  0  0  0  0  0  0  0  0
    0.4678   -0.8838    0.3296 C   0  0  0  0  0  0  0  0  0  0  0  0
   -0.3845   -2.0339   -0.3592 C   0  0  0  0  0  0  0  0  0  0  0  0
    0.2193    0.5176   -0.4223 C   0  0  0  0  0  0  0  0  0  0  0  0
    0.9513    0.9700   -1.0241 C   0  0  0  0  0  0  0  0  0  0  0  0
    1.8617    1.5467   -1.7519 C   0  0  0  0  0  0  0  0  0  0  0  0
   -4.2616    1.9768   -0.5941 H   0  0  0  0  0  0  0  0  0  0  0  0
    1.6623   -0.1306    0.7278 H   0  0  0  0  0  0  0  0  0  0  0  0
   -1.2095   -0.3885    1.5957 H   0  0  0  0  0  0  0  0  0  0  0  0
    0.3941   -0.4988    2.4345 H   0  0  0  0  0  0  0  0  0  0  0  0
    1.5691   -1.0421    0.1532 H   0  0  0  0  0  0  0  0  0  0  0  0
   -0.8092   -1.5999   -1.2659 H   0  0  0  0  0  0  0  0  0  0  0  0
    0.4272   -2.7395   -0.5090 H   0  0  0  0  0  0  0  0  0  0  0  0
   -1.1552   -2.3226    0.3552 H   0  0  0  0  0  0  0  0  0  0  0  0
   -0.7893    0.4821   -0.7423 H   0  0  0  0  0  0  0  0  0  0  0  0
    3.0831    2.3281   -2.7040 H   0  0  0  0  0  0  0  0  0  0  0  0
  1  2  3  0
  2  3  1  0
  3  4  1  0
  4  5  1  0
  5  6  1  0
  5  7  1  0
  7  8  1  0
  8  9  3  0
  7  3  1  0
  1 10  1  0
  3 11  1  0
  4 12  1  0
  4 13  1  0
  5 14  1  0
  6 15  1  0
  6 16  1  0
  6 17  1  0
  7 18  1  0
  9 19  1  0
M  END
