
     RDKit          3D

 19 19  0  0  0  0  0  0  0  0999 V2000
    1.8609   -1.6167    1.8104 C   0  0  0  0  0  0  0  0  0  0  0  0
    1.3083   -1.0217    1.2305 C   0  0  0  0  0  0  0  0  0  0  0  0
    0.5403   -0.2132    0.4469 C   0  0  0  0  0  0  0  0  0  0  0  0
    0.9346   -0.0137   -0.9956 C   0  0  0  0  0  0  0  0  0  0  0  0
   -0.3020   -0.4795   -1.7649 C   0  0  0  0  0  0  0  0  0  0  0  0
   -1.2178    0.5707   -1.5033 O   0  0  0  0  0  0  0  0  0  0  0  0
   -1.7830    0.4883   -0.2275 C   0  0  0  0  0  0  0  0  0  0  0  0
   -0.7604    0.3386    0.8561 C   0  0  0  0  0  0  0  0  0  0  0  0
   -0.5453    1.7121    1.3367 O   0  0  0  0  0  0  0  0  0  0  0  0
    2.6396   -2.4391    2.5925 H   0  0  0  0  0  0  0  0  0  0  0  0
    1.2509    0.8745    0.8182 H   0  0  0  0  0  0  0  0  0  0  0  0
    0.9358    1.1111   -1.1913 H   0  0  0  0  0  0  0  0  0  0  0  0
    1.8387   -0.4530   -1.3307 H   0  0  0  0  0  0  0  0  0  0  0  0
   -0.0989   -0.5368   -2.8202 H   0  0  0  0  0  0  0  0  0  0  0  0
   -0.6248   -1.4223   -1.2608 H   0  0  0  0  0  0  0  0  0  0  0  0
   -2.3319    1.4435   -0.0959 H   0  0  0  0  0  0  0  0  0  0  0  0
   -2.5222   -0.3239   -0.2445 H   0  0  0  0  0  0  0  0  0  0  0  0
   -1.1747   -0.1325    1.7326 H   0  0  0  0  0  0  0  0  0  0  0  0
    0.0520    2.1135    0.6108 H   0  0  0  0  0  0  0  0  0  0  0  0
  1  2  3  0
  2  3  1  0
  3  4  1  0
  4  5  1  0
  5  6  1  0
  6  7  1  0
  7  8  1  0
  8  9  1  0
  8  3  1  0
  1 10  1  0
  3 11  1  0
  4 12  1  0
  4 13  1  0
  5 14  1  0
  5 15  1  0
  7 16  1  0
  7 17  1  0
  8 18  1  0
  9 19  1  0
M  END
