
     RDKit          3D

 18 17  0  0  0  0  0  0  0  0999 V2000
   -3.1947   -1.5454   -0.7432 C   0  0  0  0  0  0  0  0  0  0  0  0
   -2.1917   -1.2914   -0.0449 C   0  0  0  0  0  0  0  0  0  0  0  0
   -1.0171   -0.9971    0.8021 C   0  0  0  0  0  0  0  0  0  0  0  0
   -0.4045   -2.3011    1.3125 C   0  0  0  0  0  0  0  0  0  0  0  0
   -0.0930   -0.1866    0.0535 C   0  0  0  0  0  0  0  0  0  0  0  0
    0.7005    0.5107   -0.5649 C   0  0  0  0  0  0  0  0  0  0  0  0
    1.6815    1.3434   -1.3032 C   0  0  0  0  0  0  0  0  0  0  0  0
    1.5950    2.7624   -0.8518 C   0  0  0  0  0  0  0  0  0  0  0  0
   -4.0461   -1.7591   -1.3137 H   0  0  0  0  0  0  0  0  0  0  0  0
   -1.3412   -0.3913    1.6948 H   0  0  0  0  0  0  0  0  0  0  0  0
   -0.0838   -2.8514    0.4105 H   0  0  0  0  0  0  0  0  0  0  0  0
   -1.2371   -2.8825    1.7940 H   0  0  0  0  0  0  0  0  0  0  0  0
    0.3806   -2.0489    2.0185 H   0  0  0  0  0  0  0  0  0  0  0  0
    2.7240    0.9989   -0.9989 H   0  0  0  0  0  0  0  0  0  0  0  0
    1.6169    1.2074   -2.3954 H   0  0  0  0  0  0  0  0  0  0  0  0
    0.8512    3.3721   -1.3870 H   0  0  0  0  0  0  0  0  0  0  0  0
    1.4667    2.8072    0.2595 H   0  0  0  0  0  0  0  0  0  0  0  0
    2.5927    3.2525   -1.0640 H   0  0  0  0  0  0  0  0  0  0  0  0
  1  2  3  0
  2  3  1  0
  3  4  1  0
  3  5  1  0
  5  6  3  0
  6  7  1  0
  7  8  1  0
  1  9  1  0
  3 10  1  0
  4 11  1  0
  4 12  1  0
  4 13  1  0
  7 14  1  0
  7 15  1  0
  8 16  1  0
  8 17  1  0
  8 18  1  0
M  END
