
     RDKit          3D

 19 19  0  0  0  0  0  0  0  0999 V2000
   -1.4546    2.1979    0.9818 C   0  0  0  0  0  0  0  0  0  0  0  0
   -0.7556    1.4687    0.3442 C   0  0  0  0  0  0  0  0  0  0  0  0
    0.0911    0.5946   -0.4530 C   0  0  0  0  0  0  0  0  0  0  0  0
    1.4373    0.4603    0.2576 C   0  0  0  0  0  0  0  0  0  0  0  0
    2.4668    0.9977   -0.4767 O   0  0  0  0  0  0  0  0  0  0  0  0
    1.5289   -1.0310    0.4366 C   0  0  0  0  0  0  0  0  0  0  0  0
    0.1802   -1.3497    0.7230 O   0  0  0  0  0  0  0  0  0  0  0  0
   -0.4661   -0.8016   -0.3575 C   0  0  0  0  0  0  0  0  0  0  0  0
   -1.9650   -0.8302   -0.2476 C   0  0  0  0  0  0  0  0  0  0  0  0
   -2.0842    2.8400    1.5605 H   0  0  0  0  0  0  0  0  0  0  0  0
    0.2057    0.9087   -1.4956 H   0  0  0  0  0  0  0  0  0  0  0  0
    1.3951    0.9224    1.2585 H   0  0  0  0  0  0  0  0  0  0  0  0
    2.6270    0.5283   -1.3171 H   0  0  0  0  0  0  0  0  0  0  0  0
    2.1342   -1.3341    1.3021 H   0  0  0  0  0  0  0  0  0  0  0  0
    1.8332   -1.5679   -0.4671 H   0  0  0  0  0  0  0  0  0  0  0  0
   -0.1501   -1.3534   -1.2681 H   0  0  0  0  0  0  0  0  0  0  0  0
   -2.3387   -0.6189    0.7577 H   0  0  0  0  0  0  0  0  0  0  0  0
   -2.3905   -0.1709   -1.0324 H   0  0  0  0  0  0  0  0  0  0  0  0
   -2.2947   -1.8610   -0.5069 H   0  0  0  0  0  0  0  0  0  0  0  0
  1  2  3  0
  2  3  1  0
  3  4  1  0
  4  5  1  0
  4  6  1  0
  6  7  1  0
  7  8  1  0
  8  9  1  0
  8  3  1  0
  1 10  1  0
  3 11  1  0
  4 12  1  0
  5 13  1  0
  6 14  1  0
  6 15  1  0
  8 16  1  0
  9 17  1  0
  9 18  1  0
  9 19  1  0
M  END
