
     RDKit          3D

 19 19  0  0  0  0  0  0  0  0999 V2000
    3.4549   -1.4958    1.3160 C   0  0  0  0  0  0  0  0  0  0  0  0
    2.1851   -1.1254    1.1139 C   0  0  0  0  0  0  0  0  0  0  0  0
    0.8336   -0.7524    0.8852 C   0  0  0  0  0  0  0  0  0  0  0  0
    0.0269   -1.4601   -0.1613 C   0  0  0  0  0  0  0  0  0  0  0  0
    0.6004   -2.4516   -0.9354 O   0  0  0  0  0  0  0  0  0  0  0  0
    0.4686   -0.0790   -0.4575 C   0  0  0  0  0  0  0  0  0  0  0  0
   -0.4466    1.0872   -0.3866 C   0  0  0  0  0  0  0  0  0  0  0  0
   -1.6799    0.8335    0.1677 O   0  0  0  0  0  0  0  0  0  0  0  0
   -2.4277    2.0029    0.1104 C   0  0  0  0  0  0  0  0  0  0  0  0
    4.3456   -1.7431    1.4679 H   0  0  0  0  0  0  0  0  0  0  0  0
    0.2965   -0.3431    1.7744 H   0  0  0  0  0  0  0  0  0  0  0  0
   -1.0177   -1.6690    0.1226 H   0  0  0  0  0  0  0  0  0  0  0  0
    0.6308   -3.3601   -0.5298 H   0  0  0  0  0  0  0  0  0  0  0  0
    1.3392    0.0715   -1.1159 H   0  0  0  0  0  0  0  0  0  0  0  0
   -0.6388    1.5451   -1.3876 H   0  0  0  0  0  0  0  0  0  0  0  0
    0.0391    1.9002    0.1901 H   0  0  0  0  0  0  0  0  0  0  0  0
   -1.9992    2.8674    0.6396 H   0  0  0  0  0  0  0  0  0  0  0  0
   -2.5666    2.3195   -0.9482 H   0  0  0  0  0  0  0  0  0  0  0  0
   -3.4443    1.8523    0.5774 H   0  0  0  0  0  0  0  0  0  0  0  0
  1  2  3  0
  2  3  1  0
  3  4  1  0
  4  5  1  0
  4  6  1  0
  6  7  1  0
  7  8  1  0
  8  9  1  0
  6  3  1  0
  1 10  1  0
  3 11  1  0
  4 12  1  0
  5 13  1  0
  6 14  1  0
  7 15  1  0
  7 16  1  0
  9 17  1  0
  9 18  1  0
  9 19  1  0
M  END
