
     RDKit          3D

 17 17  0  0  0  0  0  0  0  0999 V2000
    3.1040   -1.7783   -1.2935 C   0  0  0  0  0  0  0  0  0  0  0  0
    2.1404   -1.1130   -1.0029 C   0  0  0  0  0  0  0  0  0  0  0  0
    0.9786   -0.3367   -0.6694 C   0  0  0  0  0  0  0  0  0  0  0  0
    0.6218    0.8242   -1.1905 C   0  0  0  0  0  0  0  0  0  0  0  0
   -0.6311    1.2837   -0.5739 C   0  0  0  0  0  0  0  0  0  0  0  0
   -1.4314    2.0733   -1.1062 O   0  0  0  0  0  0  0  0  0  0  0  0
   -0.6228    0.5786    0.7323 C   0  0  0  0  0  0  0  0  0  0  0  0
   -1.9836    0.4540    1.3442 C   0  0  0  0  0  0  0  0  0  0  0  0
   -0.0218   -0.7495    0.3353 C   0  0  0  0  0  0  0  0  0  0  0  0
    3.9575   -2.3868   -1.5462 H   0  0  0  0  0  0  0  0  0  0  0  0
    1.2224    1.3060   -1.9618 H   0  0  0  0  0  0  0  0  0  0  0  0
    0.0903    1.0795    1.4492 H   0  0  0  0  0  0  0  0  0  0  0  0
   -1.9353    0.5785    2.4425 H   0  0  0  0  0  0  0  0  0  0  0  0
   -2.4981   -0.4800    1.0441 H   0  0  0  0  0  0  0  0  0  0  0  0
   -2.5901    1.3142    0.9665 H   0  0  0  0  0  0  0  0  0  0  0  0
    0.4153   -1.2873    1.1988 H   0  0  0  0  0  0  0  0  0  0  0  0
   -0.8161   -1.3606   -0.1686 H   0  0  0  0  0  0  0  0  0  0  0  0
  1  2  3  0
  2  3  1  0
  3  4  2  0
  4  5  1  0
  5  6  2  0
  5  7  1  0
  7  8  1  0
  7  9  1  0
  9  3  1  0
  1 10  1  0
  4 11  1  0
  7 12  1  0
  8 13  1  0
  8 14  1  0
  8 15  1  0
  9 16  1  0
  9 17  1  0
M  END
