
     RDKit          3D

 15 15  0  0  0  0  0  0  0  0999 V2000
    3.9037    0.5319   -2.7071 C   0  0  0  0  0  0  0  0  0  0  0  0
    3.0766    0.3092   -2.2425 C   0  0  0  0  0  0  0  0  0  0  0  0
    1.8003   -0.0352   -1.4987 C   0  0  0  0  0  0  0  0  0  0  0  0
    0.8119   -0.3137   -0.9172 C   0  0  0  0  0  0  0  0  0  0  0  0
   -0.4448   -0.6746   -0.1525 C   0  0  0  0  0  0  0  0  0  0  0  0
   -0.1411   -0.5747    1.1517 O   0  0  0  0  0  0  0  0  0  0  0  0
   -1.2130   -0.0404    1.8110 C   0  0  0  0  0  0  0  0  0  0  0  0
   -2.1973    0.3478    0.6845 C   0  0  0  0  0  0  0  0  0  0  0  0
   -1.3729    0.3634   -0.4102 O   0  0  0  0  0  0  0  0  0  0  0  0
    4.9719    0.8379   -3.3246 H   0  0  0  0  0  0  0  0  0  0  0  0
   -0.8317   -1.6031   -0.5525 H   0  0  0  0  0  0  0  0  0  0  0  0
   -1.7481   -0.8337    2.4127 H   0  0  0  0  0  0  0  0  0  0  0  0
   -0.9960    0.8734    2.4068 H   0  0  0  0  0  0  0  0  0  0  0  0
   -2.6699    1.2973    0.9172 H   0  0  0  0  0  0  0  0  0  0  0  0
   -2.9496   -0.4856    0.6203 H   0  0  0  0  0  0  0  0  0  0  0  0
  1  2  3  0
  2  3  1  0
  3  4  3  0
  4  5  1  0
  5  6  1  0
  6  7  1  0
  7  8  1  0
  8  9  1  0
  9  5  1  0
  1 10  1  0
  5 11  1  0
  7 12  1  0
  7 13  1  0
  8 14  1  0
  8 15  1  0
M  END
