
     RDKit          3D

 15 16  0  0  0  0  0  0  0  0999 V2000
    2.5282   -1.3975    1.3520 C   0  0  0  0  0  0  0  0  0  0  0  0
    1.8328   -1.0455    0.4351 C   0  0  0  0  0  0  0  0  0  0  0  0
    1.0216   -0.6074   -0.6557 C   0  0  0  0  0  0  0  0  0  0  0  0
    1.6727   -0.2199   -1.6741 O   0  0  0  0  0  0  0  0  0  0  0  0
   -0.4150   -0.6353   -0.5284 C   0  0  0  0  0  0  0  0  0  0  0  0
   -1.1025    0.3819   -1.3893 C   0  0  0  0  0  0  0  0  0  0  0  0
   -0.7021    1.3160   -0.2298 C   0  0  0  0  0  0  0  0  0  0  0  0
   -1.1603    0.1566    0.5812 C   0  0  0  0  0  0  0  0  0  0  0  0
   -0.7553   -1.0917    0.6586 O   0  0  0  0  0  0  0  0  0  0  0  0
    3.1524   -1.6954    2.1807 H   0  0  0  0  0  0  0  0  0  0  0  0
   -0.5504    0.6175   -2.2892 H   0  0  0  0  0  0  0  0  0  0  0  0
   -2.1953    0.3235   -1.4626 H   0  0  0  0  0  0  0  0  0  0  0  0
    0.3346    1.6096   -0.2060 H   0  0  0  0  0  0  0  0  0  0  0  0
   -1.3614    2.1833   -0.2261 H   0  0  0  0  0  0  0  0  0  0  0  0
   -2.3000    0.1044    0.4856 H   0  0  0  0  0  0  0  0  0  0  0  0
  1  2  3  0
  2  3  1  0
  3  4  2  0
  3  5  1  0
  5  6  1  0
  6  7  1  0
  7  8  1  0
  8  9  1  0
  8  5  1  0
  9  5  1  0
  1 10  1  0
  6 11  1  0
  6 12  1  0
  7 13  1  0
  7 14  1  0
  8 15  1  0
M  END
