
     RDKit          3D

 14 13  0  0  0  0  0  0  0  0999 V2000
   -1.5285   -1.0201   -1.8204 C   0  0  0  0  0  0  0  0  0  0  0  0
   -0.7148   -0.4979   -0.9857 C   0  0  0  0  0  0  0  0  0  0  0  0
    0.3454    0.1596    0.0715 C   0  0  0  0  0  0  0  0  0  0  0  0
    1.0666   -1.0408    0.4665 C   0  0  0  0  0  0  0  0  0  0  0  0
   -0.7333    0.3776    1.2338 C   0  0  0  0  0  0  0  0  0  0  0  0
   -1.5084    0.5217    2.0625 C   0  0  0  0  0  0  0  0  0  0  0  0
    0.8888    1.2758   -0.5173 C   0  0  0  0  0  0  0  0  0  0  0  0
    1.3349    2.1602   -0.9907 C   0  0  0  0  0  0  0  0  0  0  0  0
   -2.2707   -1.4757   -2.5595 H   0  0  0  0  0  0  0  0  0  0  0  0
    1.2877   -1.6163   -0.4735 H   0  0  0  0  0  0  0  0  0  0  0  0
    1.9628   -0.9737    1.0482 H   0  0  0  0  0  0  0  0  0  0  0  0
    0.3010   -1.6658    1.0719 H   0  0  0  0  0  0  0  0  0  0  0  0
   -2.2654    0.6503    2.8879 H   0  0  0  0  0  0  0  0  0  0  0  0
    1.8340    3.1451   -1.4954 H   0  0  0  0  0  0  0  0  0  0  0  0
  1  2  3  0
  2  3  1  0
  3  4  1  0
  3  5  1  0
  5  6  3  0
  3  7  1  0
  7  8  3  0
  1  9  1  0
  4 10  1  0
  4 11  1  0
  4 12  1  0
  6 13  1  0
  8 14  1  0
M  END
