
     RDKit          3D

 13 12  0  0  0  0  0  0  0  0999 V2000
    3.2274   -1.2821   -0.3137 C   0  0  0  0  0  0  0  0  0  0  0  0
    2.0218   -1.2175   -0.0826 C   0  0  0  0  0  0  0  0  0  0  0  0
    0.9337   -1.1567    0.1274 C   0  0  0  0  0  0  0  0  0  0  0  0
    0.0507   -1.9225    0.2835 O   0  0  0  0  0  0  0  0  0  0  0  0
    0.3020    0.3249    0.1872 C   0  0  0  0  0  0  0  0  0  0  0  0
    0.7244    1.4160    0.4601 O   0  0  0  0  0  0  0  0  0  0  0  0
   -1.1873    0.1591   -0.2365 C   0  0  0  0  0  0  0  0  0  0  0  0
   -2.1322    1.3001   -0.1598 C   0  0  0  0  0  0  0  0  0  0  0  0
   -1.5014   -0.9763   -0.6288 O   0  0  0  0  0  0  0  0  0  0  0  0
    4.8390   -1.3746   -0.6398 H   0  0  0  0  0  0  0  0  0  0  0  0
   -2.0492    1.9749   -1.0815 H   0  0  0  0  0  0  0  0  0  0  0  0
   -2.0478    1.9238    0.7210 H   0  0  0  0  0  0  0  0  0  0  0  0
   -3.1811    0.8309   -0.1741 H   0  0  0  0  0  0  0  0  0  0  0  0
  1  2  3  0
  2  3  1  0
  3  4  2  0
  3  5  1  0
  5  6  2  0
  5  7  1  0
  7  8  1  0
  7  9  2  0
  1 10  1  0
  8 11  1  0
  8 12  1  0
  8 13  1  0
M  END
