
     RDKit          3D

 16 15  0  0  0  0  0  0  0  0999 V2000
   -2.3646    0.5621   -0.0556 C   0  0  0  0  0  0  0  0  0  0  0  0
   -1.7824   -0.2817    0.5116 C   0  0  0  0  0  0  0  0  0  0  0  0
   -1.1102   -1.2704    1.1537 C   0  0  0  0  0  0  0  0  0  0  0  0
    0.0747   -1.6108   -0.0507 C   0  0  0  0  0  0  0  0  0  0  0  0
    0.9940   -0.4180   -0.2548 C   0  0  0  0  0  0  0  0  0  0  0  0
    2.2512   -0.7448    0.0307 O   0  0  0  0  0  0  0  0  0  0  0  0
    0.6839    0.7157   -0.6389 O   0  0  0  0  0  0  0  0  0  0  0  0
    1.4562    1.9015   -0.9415 C   0  0  0  0  0  0  0  0  0  0  0  0
   -3.1779    1.7109   -0.8088 H   0  0  0  0  0  0  0  0  0  0  0  0
   -1.5306   -2.1757    1.4148 H   0  0  0  0  0  0  0  0  0  0  0  0
   -0.3606   -0.8539    1.9168 H   0  0  0  0  0  0  0  0  0  0  0  0
   -0.6257   -1.3242   -1.0164 H   0  0  0  0  0  0  0  0  0  0  0  0
    0.3105   -2.5429   -0.1654 H   0  0  0  0  0  0  0  0  0  0  0  0
    1.6833    2.3318    0.0302 H   0  0  0  0  0  0  0  0  0  0  0  0
    2.4886    1.5199   -1.3755 H   0  0  0  0  0  0  0  0  0  0  0  0
    1.0096    2.4807   -1.7254 H   0  0  0  0  0  0  0  0  0  0  0  0
  1  2  3  0
  2  3  1  0
  3  4  1  0
  4  5  1  0
  5  6  2  0
  5  7  1  0
  7  8  1  0
  1  9  1  0
  3 10  1  0
  3 11  1  0
  4 12  1  0
  4 13  1  0
  8 14  1  0
  8 15  1  0
  8 16  1  0
M  END
