
     RDKit          3D

 19 21  0  0  0  0  0  0  0  0999 V2000
    2.7055    1.1472    1.8090 C   0  0  0  0  0  0  0  0  0  0  0  0
    1.5766    1.1185    1.2089 C   0  0  0  0  0  0  0  0  0  0  0  0
    0.3253    1.1085    0.5507 C   0  0  0  0  0  0  0  0  0  0  0  0
   -0.6510    0.1054    1.1118 C   0  0  0  0  0  0  0  0  0  0  0  0
   -1.4390   -0.3133   -0.1008 C   0  0  0  0  0  0  0  0  0  0  0  0
   -0.8208   -1.6488   -0.5390 C   0  0  0  0  0  0  0  0  0  0  0  0
    0.2580   -0.8274   -1.1652 C   0  0  0  0  0  0  0  0  0  0  0  0
    0.5660    0.5648   -0.8896 C   0  0  0  0  0  0  0  0  0  0  0  0
   -0.7804    0.2686   -1.3164 C   0  0  0  0  0  0  0  0  0  0  0  0
    3.6383    1.1703    2.2846 H   0  0  0  0  0  0  0  0  0  0  0  0
   -0.1989    2.0555    0.3960 H   0  0  0  0  0  0  0  0  0  0  0  0
   -1.2658    0.4338    1.9288 H   0  0  0  0  0  0  0  0  0  0  0  0
   -0.0201   -0.7445    1.5272 H   0  0  0  0  0  0  0  0  0  0  0  0
   -2.5246   -0.3170   -0.0473 H   0  0  0  0  0  0  0  0  0  0  0  0
   -1.4775   -2.2027   -1.2432 H   0  0  0  0  0  0  0  0  0  0  0  0
   -0.5374   -2.2833    0.3125 H   0  0  0  0  0  0  0  0  0  0  0  0
    0.7035   -1.2461   -2.0971 H   0  0  0  0  0  0  0  0  0  0  0  0
    1.2176    1.1548   -1.4893 H   0  0  0  0  0  0  0  0  0  0  0  0
   -1.2753    0.4558   -2.2413 H   0  0  0  0  0  0  0  0  0  0  0  0
  1  2  3  0
  2  3  1  0
  3  4  1  0
  4  5  1  0
  5  6  1  0
  6  7  1  0
  7  8  1  0
  8  9  1  0
  8  3  1  0
  9  5  1  0
  9  7  1  0
  1 10  1  0
  3 11  1  0
  4 12  1  0
  4 13  1  0
  5 14  1  0
  6 15  1  0
  6 16  1  0
  7 17  1  0
  8 18  1  0
  9 19  1  0
M  END
