
     RDKit          3D

 21 21  0  0  0  0  0  0  0  0999 V2000
    2.8551   -0.3235   -1.4072 C   0  0  0  0  0  0  0  0  0  0  0  0
    2.3264   -0.4509   -0.3750 C   0  0  0  0  0  0  0  0  0  0  0  0
    1.6873   -0.5886    0.9077 C   0  0  0  0  0  0  0  0  0  0  0  0
    0.3775    0.0801    1.0431 C   0  0  0  0  0  0  0  0  0  0  0  0
   -0.0252   -0.1850    2.4020 O   0  0  0  0  0  0  0  0  0  0  0  0
   -0.7543   -0.4012    0.2268 C   0  0  0  0  0  0  0  0  0  0  0  0
   -0.7665   -0.3925   -1.2390 C   0  0  0  0  0  0  0  0  0  0  0  0
   -1.6376    0.8569   -1.2881 C   0  0  0  0  0  0  0  0  0  0  0  0
   -1.8607    0.6603    0.2119 C   0  0  0  0  0  0  0  0  0  0  0  0
    3.3594   -0.2128   -2.3827 H   0  0  0  0  0  0  0  0  0  0  0  0
    1.5693   -1.6761    1.1458 H   0  0  0  0  0  0  0  0  0  0  0  0
    2.3827   -0.1837    1.7091 H   0  0  0  0  0  0  0  0  0  0  0  0
    0.4652    1.1941    1.0236 H   0  0  0  0  0  0  0  0  0  0  0  0
    0.7254    0.0134    3.0171 H   0  0  0  0  0  0  0  0  0  0  0  0
   -1.2203   -1.3265    0.6724 H   0  0  0  0  0  0  0  0  0  0  0  0
   -1.3880   -1.2312   -1.6911 H   0  0  0  0  0  0  0  0  0  0  0  0
    0.1128   -0.2774   -1.8462 H   0  0  0  0  0  0  0  0  0  0  0  0
   -1.1196    1.7947   -1.5128 H   0  0  0  0  0  0  0  0  0  0  0  0
   -2.5906    0.7615   -1.8341 H   0  0  0  0  0  0  0  0  0  0  0  0
   -2.8669    0.3013    0.4688 H   0  0  0  0  0  0  0  0  0  0  0  0
   -1.6314    1.5873    0.7480 H   0  0  0  0  0  0  0  0  0  0  0  0
  1  2  3  0
  2  3  1  0
  3  4  1  0
  4  5  1  0
  4  6  1  0
  6  7  1  0
  7  8  1  0
  8  9  1  0
  9  6  1  0
  1 10  1  0
  3 11  1  0
  3 12  1  0
  4 13  1  0
  5 14  1  0
  6 15  1  0
  7 16  1  0
  7 17  1  0
  8 18  1  0
  8 19  1  0
  9 20  1  0
  9 21  1  0
M  END
