
     RDKit          3D

 18 18  0  0  0  0  0  0  0  0999 V2000
    0.4066   -2.9029    0.9560 C   0  0  0  0  0  0  0  0  0  0  0  0
    0.3111   -1.7006    1.0536 C   0  0  0  0  0  0  0  0  0  0  0  0
    0.1888   -0.2487    1.1961 C   0  0  0  0  0  0  0  0  0  0  0  0
    0.1761    0.3407   -0.1953 C   0  0  0  0  0  0  0  0  0  0  0  0
   -0.8024   -0.0182   -1.0859 O   0  0  0  0  0  0  0  0  0  0  0  0
   -2.0860    0.2693   -0.6811 C   0  0  0  0  0  0  0  0  0  0  0  0
    0.8752    1.6753   -0.3313 C   0  0  0  0  0  0  0  0  0  0  0  0
    1.5652    0.4441   -0.8261 C   0  0  0  0  0  0  0  0  0  0  0  0
    0.4884   -3.9676    0.8511 H   0  0  0  0  0  0  0  0  0  0  0  0
    1.0919    0.1201    1.7206 H   0  0  0  0  0  0  0  0  0  0  0  0
   -0.6794    0.0524    1.8019 H   0  0  0  0  0  0  0  0  0  0  0  0
   -2.3893   -0.2234    0.2569 H   0  0  0  0  0  0  0  0  0  0  0  0
   -2.7734   -0.1222   -1.4697 H   0  0  0  0  0  0  0  0  0  0  0  0
   -2.2721    1.3594   -0.5884 H   0  0  0  0  0  0  0  0  0  0  0  0
    1.2367    2.1681    0.6156 H   0  0  0  0  0  0  0  0  0  0  0  0
    0.5718    2.3913   -1.0935 H   0  0  0  0  0  0  0  0  0  0  0  0
    1.6634    0.3144   -1.9175 H   0  0  0  0  0  0  0  0  0  0  0  0
    2.4274    0.0485   -0.2630 H   0  0  0  0  0  0  0  0  0  0  0  0
  1  2  3  0
  2  3  1  0
  3  4  1  0
  4  5  1  0
  5  6  1  0
  4  7  1  0
  7  8  1  0
  8  4  1  0
  1  9  1  0
  3 10  1  0
  3 11  1  0
  6 12  1  0
  6 13  1  0
  6 14  1  0
  7 15  1  0
  7 16  1  0
  8 17  1  0
  8 18  1  0
M  END
