
     RDKit          3D

 17 17  0  0  0  0  0  0  0  0999 V2000
   -2.3803    2.2291   -0.7043 C   0  0  0  0  0  0  0  0  0  0  0  0
   -1.7701    1.1732   -0.5911 C   0  0  0  0  0  0  0  0  0  0  0  0
   -1.0541   -0.0988   -0.4751 C   0  0  0  0  0  0  0  0  0  0  0  0
   -1.9519   -1.1283   -0.3037 O   0  0  0  0  0  0  0  0  0  0  0  0
   -0.1282   -0.0552    0.7295 C   0  0  0  0  0  0  0  0  0  0  0  0
    0.6737   -1.2895    0.8059 C   0  0  0  0  0  0  0  0  0  0  0  0
    1.8959   -0.9836    0.3525 C   0  0  0  0  0  0  0  0  0  0  0  0
    1.9107    0.4418   -0.0235 C   0  0  0  0  0  0  0  0  0  0  0  0
    0.7633    0.9855    0.5343 O   0  0  0  0  0  0  0  0  0  0  0  0
   -2.8958    3.1455   -0.8122 H   0  0  0  0  0  0  0  0  0  0  0  0
   -0.4159   -0.2306   -1.3818 H   0  0  0  0  0  0  0  0  0  0  0  0
   -1.7407   -1.9376   -0.8151 H   0  0  0  0  0  0  0  0  0  0  0  0
   -0.7139    0.1558    1.6475 H   0  0  0  0  0  0  0  0  0  0  0  0
    0.4024   -2.2610    1.1421 H   0  0  0  0  0  0  0  0  0  0  0  0
    2.7483   -1.6505    0.2657 H   0  0  0  0  0  0  0  0  0  0  0  0
    2.8047    0.9497    0.3771 H   0  0  0  0  0  0  0  0  0  0  0  0
    1.8521    0.5546   -1.1364 H   0  0  0  0  0  0  0  0  0  0  0  0
  1  2  3  0
  2  3  1  0
  3  4  1  0
  3  5  1  0
  5  6  1  0
  6  7  2  0
  7  8  1  0
  8  9  1  0
  9  5  1  0
  1 10  1  0
  3 11  1  0
  4 12  1  0
  5 13  1  0
  6 14  1  0
  7 15  1  0
  8 16  1  0
  8 17  1  0
M  END
