
     RDKit          3D

 16 16  0  0  0  0  0  0  0  0999 V2000
    2.0414    1.7084   -0.8802 C   0  0  0  0  0  0  0  0  0  0  0  0
    1.6390    0.8326   -0.1123 C   0  0  0  0  0  0  0  0  0  0  0  0
    1.1387   -0.2291    0.7953 C   0  0  0  0  0  0  0  0  0  0  0  0
    0.7667   -1.4601    0.0555 C   0  0  0  0  0  0  0  0  0  0  0  0
   -0.5571   -1.4766    0.0423 C   0  0  0  0  0  0  0  0  0  0  0  0
   -1.0375   -0.2880    0.7525 C   0  0  0  0  0  0  0  0  0  0  0  0
   -1.6177    0.7636   -0.1787 C   0  0  0  0  0  0  0  0  0  0  0  0
    0.0226    0.1556    1.5029 O   0  0  0  0  0  0  0  0  0  0  0  0
    2.3897    2.4247   -1.5102 H   0  0  0  0  0  0  0  0  0  0  0  0
    1.9826   -0.4563    1.4880 H   0  0  0  0  0  0  0  0  0  0  0  0
    1.5047   -2.1477   -0.3555 H   0  0  0  0  0  0  0  0  0  0  0  0
   -1.1216   -2.2825   -0.4418 H   0  0  0  0  0  0  0  0  0  0  0  0
   -1.8541   -0.5547    1.4913 H   0  0  0  0  0  0  0  0  0  0  0  0
   -0.9466    0.9621   -1.0123 H   0  0  0  0  0  0  0  0  0  0  0  0
   -1.7414    1.6863    0.4144 H   0  0  0  0  0  0  0  0  0  0  0  0
   -2.6095    0.3619   -0.5239 H   0  0  0  0  0  0  0  0  0  0  0  0
  1  2  3  0
  2  3  1  0
  3  4  1  0
  4  5  2  0
  5  6  1  0
  6  7  1  0
  6  8  1  0
  8  3  1  0
  1  9  1  0
  3 10  1  0
  4 11  1  0
  5 12  1  0
  6 13  1  0
  7 14  1  0
  7 15  1  0
  7 16  1  0
M  END
