
     RDKit          3D

 16 15  0  0  0  0  0  0  0  0999 V2000
    2.2307    1.1913    1.5294 C   0  0  0  0  0  0  0  0  0  0  0  0
    1.0132    0.0911    1.1594 C   0  0  0  0  0  0  0  0  0  0  0  0
    0.2363   -0.6343    0.9114 C   0  0  0  0  0  0  0  0  0  0  0  0
   -0.3766   -1.4115    2.0750 O   0  0  0  0  0  0  0  0  0  0  0  0
   -0.8708   -0.0435    0.0152 C   0  0  0  0  0  0  0  0  0  0  0  0
   -1.6645   -1.2860   -0.1682 O   0  0  0  0  0  0  0  0  0  0  0  0
   -0.5742    0.6124   -1.1909 C   0  0  0  0  0  0  0  0  0  0  0  0
   -0.5991    1.2287   -2.3247 O   0  0  0  0  0  0  0  0  0  0  0  0
    3.1851    2.0560    1.7952 H   0  0  0  0  0  0  0  0  0  0  0  0
    0.7008   -1.6658    0.4466 H   0  0  0  0  0  0  0  0  0  0  0  0
   -1.1714   -1.8082    1.3669 H   0  0  0  0  0  0  0  0  0  0  0  0
   -1.3692    0.6197    0.9320 H   0  0  0  0  0  0  0  0  0  0  0  0
   -1.8789   -1.5487   -1.0333 H   0  0  0  0  0  0  0  0  0  0  0  0
    0.3597   -0.2212   -1.5036 H   0  0  0  0  0  0  0  0  0  0  0  0
    0.3797    1.3355   -0.6773 H   0  0  0  0  0  0  0  0  0  0  0  0
    0.3991    1.4845   -2.6719 H   0  0  0  0  0  0  0  0  0  0  0  0
  1  2  3  0
  2  3  1  0
  3  4  1  0
  3  5  1  0
  5  6  1  0
  5  7  1  0
  7  8  1  0
  1  9  1  0
  3 10  1  0
  4 11  1  0
  5 12  1  0
  6 13  1  0
  7 14  1  0
  7 15  1  0
  8 16  1  0
M  END
