
     RDKit          3D

 19 19  0  0  0  0  0  0  0  0999 V2000
   -1.8451   -1.9990    0.5320 C   0  0  0  0  0  0  0  0  0  0  0  0
   -1.0576   -1.1573    0.1713 C   0  0  0  0  0  0  0  0  0  0  0  0
   -0.0982   -0.1254   -0.2823 C   0  0  0  0  0  0  0  0  0  0  0  0
    1.0348   -0.7724   -0.7013 O   0  0  0  0  0  0  0  0  0  0  0  0
    1.6293   -1.5300    0.2980 C   0  0  0  0  0  0  0  0  0  0  0  0
    0.0906    0.9280    0.7510 C   0  0  0  0  0  0  0  0  0  0  0  0
    0.0417    2.2058   -0.0365 C   0  0  0  0  0  0  0  0  0  0  0  0
   -0.4841    1.9550   -1.2680 O   0  0  0  0  0  0  0  0  0  0  0  0
   -0.7487    0.6268   -1.4150 C   0  0  0  0  0  0  0  0  0  0  0  0
   -2.5398   -2.7350    0.8608 H   0  0  0  0  0  0  0  0  0  0  0  0
    1.9453   -0.9526    1.1824 H   0  0  0  0  0  0  0  0  0  0  0  0
    2.5367   -2.0082   -0.1674 H   0  0  0  0  0  0  0  0  0  0  0  0
    0.9257   -2.3103    0.6648 H   0  0  0  0  0  0  0  0  0  0  0  0
   -0.7844    0.8684    1.4524 H   0  0  0  0  0  0  0  0  0  0  0  0
    1.0043    0.8427    1.3507 H   0  0  0  0  0  0  0  0  0  0  0  0
   -0.5204    2.9563    0.5456 H   0  0  0  0  0  0  0  0  0  0  0  0
    1.1081    2.5384   -0.1667 H   0  0  0  0  0  0  0  0  0  0  0  0
   -1.8477    0.4721   -1.3976 H   0  0  0  0  0  0  0  0  0  0  0  0
   -0.3905    0.1968   -2.3742 H   0  0  0  0  0  0  0  0  0  0  0  0
  1  2  3  0
  2  3  1  0
  3  4  1  0
  4  5  1  0
  3  6  1  0
  6  7  1  0
  7  8  1  0
  8  9  1  0
  9  3  1  0
  1 10  1  0
  5 11  1  0
  5 12  1  0
  5 13  1  0
  6 14  1  0
  6 15  1  0
  7 16  1  0
  7 17  1  0
  9 18  1  0
  9 19  1  0
M  END
