
     RDKit          3D

 19 19  0  0  0  0  0  0  0  0999 V2000
   -1.3661    2.4840    2.3376 C   0  0  0  0  0  0  0  0  0  0  0  0
   -1.1051    1.5215    1.8034 C   0  0  0  0  0  0  0  0  0  0  0  0
   -0.7569    0.2660    1.1331 C   0  0  0  0  0  0  0  0  0  0  0  0
   -0.1613   -0.6900    1.9484 O   0  0  0  0  0  0  0  0  0  0  0  0
   -1.5373   -0.2477    0.0118 C   0  0  0  0  0  0  0  0  0  0  0  0
   -0.1742    0.3534   -0.2669 C   0  0  0  0  0  0  0  0  0  0  0  0
    0.9479   -0.6005   -0.6218 C   0  0  0  0  0  0  0  0  0  0  0  0
    1.3585   -0.3330   -2.0605 C   0  0  0  0  0  0  0  0  0  0  0  0
    2.3684   -1.1860   -2.4626 O   0  0  0  0  0  0  0  0  0  0  0  0
   -1.6337    3.4619    2.9035 H   0  0  0  0  0  0  0  0  0  0  0  0
   -0.3116   -1.5942    1.6509 H   0  0  0  0  0  0  0  0  0  0  0  0
   -1.5650   -1.3648   -0.1692 H   0  0  0  0  0  0  0  0  0  0  0  0
   -2.3713    0.2982   -0.4417 H   0  0  0  0  0  0  0  0  0  0  0  0
   -0.1205    1.3764   -0.6647 H   0  0  0  0  0  0  0  0  0  0  0  0
    0.5547   -1.6217   -0.4885 H   0  0  0  0  0  0  0  0  0  0  0  0
    1.8031   -0.4385    0.0583 H   0  0  0  0  0  0  0  0  0  0  0  0
    0.4650   -0.4671   -2.7143 H   0  0  0  0  0  0  0  0  0  0  0  0
    1.6681    0.7235   -2.0899 H   0  0  0  0  0  0  0  0  0  0  0  0
    1.9372   -1.9412   -2.9341 H   0  0  0  0  0  0  0  0  0  0  0  0
  1  2  3  0
  2  3  1  0
  3  4  1  0
  3  5  1  0
  5  6  1  0
  6  7  1  0
  7  8  1  0
  8  9  1  0
  6  3  1  0
  1 10  1  0
  4 11  1  0
  5 12  1  0
  5 13  1  0
  6 14  1  0
  7 15  1  0
  7 16  1  0
  8 17  1  0
  8 18  1  0
  9 19  1  0
M  END
