
     RDKit          3D

 23 23  0  0  0  0  0  0  0  0999 V2000
    1.8530    3.8190   -1.5015 C   0  0  0  0  0  0  0  0  0  0  0  0
    1.4198    2.7062   -1.6123 C   0  0  0  0  0  0  0  0  0  0  0  0
    0.8588    1.3260   -1.7367 C   0  0  0  0  0  0  0  0  0  0  0  0
    0.4624    0.9348   -0.3496 C   0  0  0  0  0  0  0  0  0  0  0  0
   -0.1695   -0.4181   -0.2206 C   0  0  0  0  0  0  0  0  0  0  0  0
    0.7255   -1.5368   -0.6650 C   0  0  0  0  0  0  0  0  0  0  0  0
   -0.6656   -0.7217    1.1624 C   0  0  0  0  0  0  0  0  0  0  0  0
   -1.3078   -2.0841    1.3123 C   0  0  0  0  0  0  0  0  0  0  0  0
   -2.1075   -0.8395    1.4597 C   0  0  0  0  0  0  0  0  0  0  0  0
    2.2220    4.8080   -1.3925 H   0  0  0  0  0  0  0  0  0  0  0  0
   -0.1238    1.4126   -2.3047 H   0  0  0  0  0  0  0  0  0  0  0  0
    1.4870    0.6501   -2.2892 H   0  0  0  0  0  0  0  0  0  0  0  0
   -0.0966    1.7287    0.1692 H   0  0  0  0  0  0  0  0  0  0  0  0
    1.4385    0.8868    0.2383 H   0  0  0  0  0  0  0  0  0  0  0  0
   -1.0717   -0.3856   -0.8996 H   0  0  0  0  0  0  0  0  0  0  0  0
    0.4501   -2.5010   -0.1885 H   0  0  0  0  0  0  0  0  0  0  0  0
    0.5215   -1.6896   -1.7698 H   0  0  0  0  0  0  0  0  0  0  0  0
    1.7976   -1.2861   -0.5850 H   0  0  0  0  0  0  0  0  0  0  0  0
    0.0186   -0.3454    1.9738 H   0  0  0  0  0  0  0  0  0  0  0  0
   -0.9755   -2.6195    2.2301 H   0  0  0  0  0  0  0  0  0  0  0  0
   -1.5179   -2.7056    0.4408 H   0  0  0  0  0  0  0  0  0  0  0  0
   -2.8162   -0.5582    0.6424 H   0  0  0  0  0  0  0  0  0  0  0  0
   -2.4025   -0.5809    2.5114 H   0  0  0  0  0  0  0  0  0  0  0  0
  1  2  3  0
  2  3  1  0
  3  4  1  0
  4  5  1  0
  5  6  1  0
  5  7  1  0
  7  8  1  0
  8  9  1  0
  9  7  1  0
  1 10  1  0
  3 11  1  0
  3 12  1  0
  4 13  1  0
  4 14  1  0
  5 15  1  0
  6 16  1  0
  6 17  1  0
  6 18  1  0
  7 19  1  0
  8 20  1  0
  8 21  1  0
  9 22  1  0
  9 23  1  0
M  END
