
     RDKit          3D

 18 18  0  0  0  0  0  0  0  0999 V2000
    3.1653    1.1546   -0.6750 C   0  0  0  0  0  0  0  0  0  0  0  0
    2.2005    0.4893   -0.9959 C   0  0  0  0  0  0  0  0  0  0  0  0
    1.0430   -0.3332   -1.3830 C   0  0  0  0  0  0  0  0  0  0  0  0
   -0.1561    0.2319   -0.6841 C   0  0  0  0  0  0  0  0  0  0  0  0
   -0.0148    0.2107    0.8426 C   0  0  0  0  0  0  0  0  0  0  0  0
   -1.5289   -0.0439    0.8547 C   0  0  0  0  0  0  0  0  0  0  0  0
   -1.9778   -0.8402    1.8702 O   0  0  0  0  0  0  0  0  0  0  0  0
   -1.3069   -0.7597   -0.4865 C   0  0  0  0  0  0  0  0  0  0  0  0
    4.0025    1.7362   -0.3864 H   0  0  0  0  0  0  0  0  0  0  0  0
    0.8962   -0.3218   -2.4600 H   0  0  0  0  0  0  0  0  0  0  0  0
    1.2186   -1.3591   -1.0056 H   0  0  0  0  0  0  0  0  0  0  0  0
   -0.5045    1.2153   -0.9909 H   0  0  0  0  0  0  0  0  0  0  0  0
    0.2904    1.1545    1.2915 H   0  0  0  0  0  0  0  0  0  0  0  0
    0.5332   -0.7020    1.1519 H   0  0  0  0  0  0  0  0  0  0  0  0
   -2.0402    0.9050    0.6690 H   0  0  0  0  0  0  0  0  0  0  0  0
   -2.7108   -0.3378    2.3489 H   0  0  0  0  0  0  0  0  0  0  0  0
   -0.9773   -1.7938   -0.3293 H   0  0  0  0  0  0  0  0  0  0  0  0
   -2.1323   -0.6060   -1.2077 H   0  0  0  0  0  0  0  0  0  0  0  0
  1  2  3  0
  2  3  1  0
  3  4  1  0
  4  5  1  0
  5  6  1  0
  6  7  1  0
  6  8  1  0
  8  4  1  0
  1  9  1  0
  3 10  1  0
  3 11  1  0
  4 12  1  0
  5 13  1  0
  5 14  1  0
  6 15  1  0
  7 16  1  0
  8 17  1  0
  8 18  1  0
M  END
