
     RDKit          3D

 25 24  0  0  0  0  0  0  0  0999 V2000
   -0.3730    2.4302   -1.8424 C   0  0  0  0  0  0  0  0  0  0  0  0
    0.0168    1.3941   -1.2671 C   0  0  0  0  0  0  0  0  0  0  0  0
    0.4925    0.1849   -0.5960 C   0  0  0  0  0  0  0  0  0  0  0  0
   -0.4503   -0.9573   -0.9557 C   0  0  0  0  0  0  0  0  0  0  0  0
   -1.8536   -0.8372   -0.4972 C   0  0  0  0  0  0  0  0  0  0  0  0
    0.1478   -2.2884   -0.8286 C   0  0  0  0  0  0  0  0  0  0  0  0
    0.3431    0.6190    0.8559 C   0  0  0  0  0  0  0  0  0  0  0  0
    0.6475   -0.2777    1.9443 C   0  0  0  0  0  0  0  0  0  0  0  0
    1.1906    1.9004    1.0410 C   0  0  0  0  0  0  0  0  0  0  0  0
   -0.7136    3.3819   -2.3791 H   0  0  0  0  0  0  0  0  0  0  0  0
    1.5007   -0.0970   -0.8156 H   0  0  0  0  0  0  0  0  0  0  0  0
   -0.5446   -0.8003   -2.1207 H   0  0  0  0  0  0  0  0  0  0  0  0
   -2.1440   -1.8726   -0.0806 H   0  0  0  0  0  0  0  0  0  0  0  0
   -2.5938   -0.7278   -1.3246 H   0  0  0  0  0  0  0  0  0  0  0  0
   -2.0708   -0.1515    0.3110 H   0  0  0  0  0  0  0  0  0  0  0  0
    1.0505   -2.2824   -0.2072 H   0  0  0  0  0  0  0  0  0  0  0  0
   -0.6495   -2.9800   -0.4112 H   0  0  0  0  0  0  0  0  0  0  0  0
    0.3735   -2.7516   -1.8404 H   0  0  0  0  0  0  0  0  0  0  0  0
   -0.7261    0.9867    0.9181 H   0  0  0  0  0  0  0  0  0  0  0  0
   -0.2906   -0.7695    2.3787 H   0  0  0  0  0  0  0  0  0  0  0  0
    1.3453   -1.0962    1.6938 H   0  0  0  0  0  0  0  0  0  0  0  0
    1.0870    0.3317    2.8177 H   0  0  0  0  0  0  0  0  0  0  0  0
    0.6039    2.8109    0.7662 H   0  0  0  0  0  0  0  0  0  0  0  0
    1.5509    1.9331    2.0752 H   0  0  0  0  0  0  0  0  0  0  0  0
    2.0599    1.9167    0.3645 H   0  0  0  0  0  0  0  0  0  0  0  0
  1  2  3  0
  2  3  1  0
  3  4  1  0
  4  5  1  0
  4  6  1  0
  3  7  1  0
  7  8  1  0
  7  9  1  0
  1 10  1  0
  3 11  1  0
  4 12  1  0
  5 13  1  0
  5 14  1  0
  5 15  1  0
  6 16  1  0
  6 17  1  0
  6 18  1  0
  7 19  1  0
  8 20  1  0
  8 21  1  0
  8 22  1  0
  9 23  1  0
  9 24  1  0
  9 25  1  0
M  END
