
     RDKit          3D

 21 21  0  0  0  0  0  0  0  0999 V2000
    0.2987   -2.2552    1.5553 C   0  0  0  0  0  0  0  0  0  0  0  0
    0.9030   -1.6741    1.3263 C   0  0  0  0  0  0  0  0  0  0  0  0
    2.0128   -0.5985    0.8830 C   0  0  0  0  0  0  0  0  0  0  0  0
    1.3070    0.4312    0.0453 C   0  0  0  0  0  0  0  0  0  0  0  0
    0.5302   -0.1762   -1.1268 C   0  0  0  0  0  0  0  0  0  0  0  0
   -0.5574    0.6980   -0.5884 C   0  0  0  0  0  0  0  0  0  0  0  0
   -1.7819   -0.0748   -0.1402 C   0  0  0  0  0  0  0  0  0  0  0  0
   -1.0515    1.7672   -1.5633 C   0  0  0  0  0  0  0  0  0  0  0  0
    0.2544    1.1029    0.4309 O   0  0  0  0  0  0  0  0  0  0  0  0
   -0.4804   -3.0133    1.8702 H   0  0  0  0  0  0  0  0  0  0  0  0
    2.6994   -1.1165    0.2215 H   0  0  0  0  0  0  0  0  0  0  0  0
    2.4714   -0.2654    1.7695 H   0  0  0  0  0  0  0  0  0  0  0  0
    2.1612    1.0794   -0.3627 H   0  0  0  0  0  0  0  0  0  0  0  0
    0.3570   -1.2520   -0.8346 H   0  0  0  0  0  0  0  0  0  0  0  0
    0.8815    0.0635   -2.1350 H   0  0  0  0  0  0  0  0  0  0  0  0
   -1.6651   -0.5130    0.8657 H   0  0  0  0  0  0  0  0  0  0  0  0
   -2.1383   -0.7595   -0.9047 H   0  0  0  0  0  0  0  0  0  0  0  0
   -2.6629    0.6630   -0.0920 H   0  0  0  0  0  0  0  0  0  0  0  0
   -1.5315    1.1737   -2.4157 H   0  0  0  0  0  0  0  0  0  0  0  0
   -0.2026    2.3479   -1.9723 H   0  0  0  0  0  0  0  0  0  0  0  0
   -1.8048    2.3718   -1.1054 H   0  0  0  0  0  0  0  0  0  0  0  0
  1  2  3  0
  2  3  1  0
  3  4  1  0
  4  5  1  0
  5  6  1  0
  6  7  1  0
  6  8  1  0
  6  9  1  0
  9  4  1  0
  1 10  1  0
  3 11  1  0
  3 12  1  0
  4 13  1  0
  5 14  1  0
  5 15  1  0
  7 16  1  0
  7 17  1  0
  7 18  1  0
  8 19  1  0
  8 20  1  0
  8 21  1  0
M  END
