
     RDKit          3D

 17 16  0  0  0  0  0  0  0  0999 V2000
   -5.5694    1.6708    0.2520 C   0  0  0  0  0  0  0  0  0  0  0  0
   -4.4375    1.4533    0.1816 C   0  0  0  0  0  0  0  0  0  0  0  0
   -2.9298    1.1422    0.1048 C   0  0  0  0  0  0  0  0  0  0  0  0
   -1.5853    0.8553    0.0518 C   0  0  0  0  0  0  0  0  0  0  0  0
   -0.3998    0.5972    0.0096 C   0  0  0  0  0  0  0  0  0  0  0  0
   -0.1139   -0.9398   -0.5416 C   0  0  0  0  0  0  0  0  0  0  0  0
    1.4024   -0.8772   -0.3095 C   0  0  0  0  0  0  0  0  0  0  0  0
    2.7282   -0.8261   -0.0841 C   0  0  0  0  0  0  0  0  0  0  0  0
    4.1625   -0.7724    0.1856 C   0  0  0  0  0  0  0  0  0  0  0  0
   -6.4699    1.8301    0.3164 H   0  0  0  0  0  0  0  0  0  0  0  0
    0.1793    0.4868    1.0409 H   0  0  0  0  0  0  0  0  0  0  0  0
    0.3675    1.1768   -0.5598 H   0  0  0  0  0  0  0  0  0  0  0  0
   -0.2330   -0.8801   -1.5716 H   0  0  0  0  0  0  0  0  0  0  0  0
   -0.5682   -1.6179    0.1126 H   0  0  0  0  0  0  0  0  0  0  0  0
    4.5655    0.1434    0.0855 H   0  0  0  0  0  0  0  0  0  0  0  0
    4.2739   -1.2860    1.2359 H   0  0  0  0  0  0  0  0  0  0  0  0
    4.6274   -1.5887   -0.5098 H   0  0  0  0  0  0  0  0  0  0  0  0
  1  2  3  0
  2  3  1  0
  3  4  3  0
  4  5  1  0
  5  6  1  0
  6  7  1  0
  7  8  3  0
  8  9  1  0
  1 10  1  0
  5 11  1  0
  5 12  1  0
  6 13  1  0
  6 14  1  0
  9 15  1  0
  9 16  1  0
  9 17  1  0
M  END
