
     RDKit          3D

 21 21  0  0  0  0  0  0  0  0999 V2000
    2.9437   -1.6671   -0.7849 C   0  0  0  0  0  0  0  0  0  0  0  0
    1.7630   -1.4620   -0.5368 C   0  0  0  0  0  0  0  0  0  0  0  0
    0.3579   -1.2343   -0.2221 C   0  0  0  0  0  0  0  0  0  0  0  0
    0.1208   -1.3155    1.2611 C   0  0  0  0  0  0  0  0  0  0  0  0
   -1.1290   -0.4374    1.3871 C   0  0  0  0  0  0  0  0  0  0  0  0
   -0.8677    0.6195    0.3437 C   0  0  0  0  0  0  0  0  0  0  0  0
   -1.5194    1.9644    0.4153 C   0  0  0  0  0  0  0  0  0  0  0  0
   -0.0200    0.1444   -0.5598 C   0  0  0  0  0  0  0  0  0  0  0  0
    0.4153    0.9906   -1.7152 C   0  0  0  0  0  0  0  0  0  0  0  0
    3.9686   -1.8496   -0.9820 H   0  0  0  0  0  0  0  0  0  0  0  0
   -0.3143   -1.9260   -0.7824 H   0  0  0  0  0  0  0  0  0  0  0  0
   -0.0739   -2.3425    1.5781 H   0  0  0  0  0  0  0  0  0  0  0  0
    0.9847   -0.8379    1.7794 H   0  0  0  0  0  0  0  0  0  0  0  0
   -2.0053   -1.0505    1.0962 H   0  0  0  0  0  0  0  0  0  0  0  0
   -1.2270   -0.0048    2.3943 H   0  0  0  0  0  0  0  0  0  0  0  0
   -2.6159    1.8155    0.5823 H   0  0  0  0  0  0  0  0  0  0  0  0
   -1.3339    2.5588   -0.4922 H   0  0  0  0  0  0  0  0  0  0  0  0
   -1.1024    2.5561    1.2785 H   0  0  0  0  0  0  0  0  0  0  0  0
   -0.2588    0.8541   -2.5970 H   0  0  0  0  0  0  0  0  0  0  0  0
    0.5101    2.0361   -1.4072 H   0  0  0  0  0  0  0  0  0  0  0  0
    1.4035    0.5883   -2.0365 H   0  0  0  0  0  0  0  0  0  0  0  0
  1  2  3  0
  2  3  1  0
  3  4  1  0
  4  5  1  0
  5  6  1  0
  6  7  1  0
  6  8  2  0
  8  9  1  0
  8  3  1  0
  1 10  1  0
  3 11  1  0
  4 12  1  0
  4 13  1  0
  5 14  1  0
  5 15  1  0
  7 16  1  0
  7 17  1  0
  7 18  1  0
  9 19  1  0
  9 20  1  0
  9 21  1  0
M  END
