
     RDKit          3D

 21 21  0  0  0  0  0  0  0  0999 V2000
   -2.1851    1.5615    1.2597 C   0  0  0  0  0  0  0  0  0  0  0  0
   -1.6538    0.8010    0.4881 C   0  0  0  0  0  0  0  0  0  0  0  0
   -1.0300   -0.1342   -0.4479 C   0  0  0  0  0  0  0  0  0  0  0  0
   -1.5193   -1.5383   -0.0828 C   0  0  0  0  0  0  0  0  0  0  0  0
    0.4548   -0.1410   -0.3428 C   0  0  0  0  0  0  0  0  0  0  0  0
    1.0471   -1.0205   -1.2226 O   0  0  0  0  0  0  0  0  0  0  0  0
    0.9737   -0.3094    1.0832 C   0  0  0  0  0  0  0  0  0  0  0  0
    2.1260    0.6098    0.6617 C   0  0  0  0  0  0  0  0  0  0  0  0
    1.1353    1.2108   -0.3473 C   0  0  0  0  0  0  0  0  0  0  0  0
   -2.6655    2.2266    1.9531 H   0  0  0  0  0  0  0  0  0  0  0  0
   -1.2961    0.1146   -1.5014 H   0  0  0  0  0  0  0  0  0  0  0  0
   -2.5201   -1.4988    0.3676 H   0  0  0  0  0  0  0  0  0  0  0  0
   -1.5352   -2.1496   -1.0178 H   0  0  0  0  0  0  0  0  0  0  0  0
   -0.8153   -1.9746    0.6361 H   0  0  0  0  0  0  0  0  0  0  0  0
    0.3678   -1.4560   -1.7758 H   0  0  0  0  0  0  0  0  0  0  0  0
    1.2644   -1.3190    1.3584 H   0  0  0  0  0  0  0  0  0  0  0  0
    0.3261    0.2290    1.8037 H   0  0  0  0  0  0  0  0  0  0  0  0
    2.9012    0.0326    0.1141 H   0  0  0  0  0  0  0  0  0  0  0  0
    2.4730    1.2998    1.4310 H   0  0  0  0  0  0  0  0  0  0  0  0
    0.5630    1.9987    0.1618 H   0  0  0  0  0  0  0  0  0  0  0  0
    1.5880    1.4569   -1.3122 H   0  0  0  0  0  0  0  0  0  0  0  0
  1  2  3  0
  2  3  1  0
  3  4  1  0
  3  5  1  0
  5  6  1  0
  5  7  1  0
  7  8  1  0
  8  9  1  0
  9  5  1  0
  1 10  1  0
  3 11  1  0
  4 12  1  0
  4 13  1  0
  4 14  1  0
  6 15  1  0
  7 16  1  0
  7 17  1  0
  8 18  1  0
  8 19  1  0
  9 20  1  0
  9 21  1  0
M  END
