
     RDKit          3D

 15 14  0  0  0  0  0  0  0  0999 V2000
    2.1317    1.2421   -0.5288 C   0  0  0  0  0  0  0  0  0  0  0  0
    1.0543    0.7315   -0.8531 C   0  0  0  0  0  0  0  0  0  0  0  0
   -0.0546    0.1848   -1.1788 C   0  0  0  0  0  0  0  0  0  0  0  0
   -0.9995    0.0396    0.0645 C   0  0  0  0  0  0  0  0  0  0  0  0
   -1.2266    1.3699    0.4826 O   0  0  0  0  0  0  0  0  0  0  0  0
   -0.2578   -0.7198    1.1293 C   0  0  0  0  0  0  0  0  0  0  0  0
   -0.0752   -2.0477    0.7297 O   0  0  0  0  0  0  0  0  0  0  0  0
    3.2468    1.7538   -0.2121 H   0  0  0  0  0  0  0  0  0  0  0  0
   -0.6774    0.5678   -2.0052 H   0  0  0  0  0  0  0  0  0  0  0  0
    0.0405   -0.9531   -1.5090 H   0  0  0  0  0  0  0  0  0  0  0  0
   -1.9002   -0.4315   -0.2214 H   0  0  0  0  0  0  0  0  0  0  0  0
   -2.1340    1.5708    0.0719 H   0  0  0  0  0  0  0  0  0  0  0  0
    0.7467   -0.2844    1.2668 H   0  0  0  0  0  0  0  0  0  0  0  0
   -0.7791   -0.7072    2.0920 H   0  0  0  0  0  0  0  0  0  0  0  0
    0.8844   -2.3164    0.6718 H   0  0  0  0  0  0  0  0  0  0  0  0
  1  2  3  0
  2  3  1  0
  3  4  1  0
  4  5  1  0
  4  6  1  0
  6  7  1  0
  1  8  1  0
  3  9  1  0
  3 10  1  0
  4 11  1  0
  5 12  1  0
  6 13  1  0
  6 14  1  0
  7 15  1  0
M  END
