
     RDKit          3D

 20 19  0  0  0  0  0  0  0  0999 V2000
   -3.7237    1.4250    0.3756 C   0  0  0  0  0  0  0  0  0  0  0  0
   -2.6695    0.8407    0.5905 C   0  0  0  0  0  0  0  0  0  0  0  0
   -1.4092    0.1521    0.8709 C   0  0  0  0  0  0  0  0  0  0  0  0
   -0.9295   -0.5847   -0.3863 C   0  0  0  0  0  0  0  0  0  0  0  0
    0.3508   -1.3047   -0.1605 C   0  0  0  0  0  0  0  0  0  0  0  0
    1.5100   -0.4822    0.2414 C   0  0  0  0  0  0  0  0  0  0  0  0
    1.9241    0.5824   -0.7182 C   0  0  0  0  0  0  0  0  0  0  0  0
    3.0242    1.2905   -0.2331 O   0  0  0  0  0  0  0  0  0  0  0  0
   -4.6378    1.9188    0.1756 H   0  0  0  0  0  0  0  0  0  0  0  0
   -0.6363    0.8983    1.1280 H   0  0  0  0  0  0  0  0  0  0  0  0
   -1.5757   -0.5464    1.7022 H   0  0  0  0  0  0  0  0  0  0  0  0
   -0.9410    0.1075   -1.2265 H   0  0  0  0  0  0  0  0  0  0  0  0
   -1.7137   -1.3514   -0.5890 H   0  0  0  0  0  0  0  0  0  0  0  0
    0.1768   -2.0623    0.6425 H   0  0  0  0  0  0  0  0  0  0  0  0
    0.5764   -1.8934   -1.0736 H   0  0  0  0  0  0  0  0  0  0  0  0
    2.3783   -1.1561    0.3996 H   0  0  0  0  0  0  0  0  0  0  0  0
    1.3232    0.0037    1.2244 H   0  0  0  0  0  0  0  0  0  0  0  0
    2.1997    0.2256   -1.7159 H   0  0  0  0  0  0  0  0  0  0  0  0
    1.1117    1.3431   -0.8586 H   0  0  0  0  0  0  0  0  0  0  0  0
    3.6613    0.5936    0.1030 H   0  0  0  0  0  0  0  0  0  0  0  0
  1  2  3  0
  2  3  1  0
  3  4  1  0
  4  5  1  0
  5  6  1  0
  6  7  1  0
  7  8  1  0
  1  9  1  0
  3 10  1  0
  3 11  1  0
  4 12  1  0
  4 13  1  0
  5 14  1  0
  5 15  1  0
  6 16  1  0
  6 17  1  0
  7 18  1  0
  7 19  1  0
  8 20  1  0
M  END
