
     RDKit          3D

 21 21  0  0  0  0  0  0  0  0999 V2000
    4.3222   -0.9736    0.0437 C   0  0  0  0  0  0  0  0  0  0  0  0
    3.1419   -0.6895   -0.0292 C   0  0  0  0  0  0  0  0  0  0  0  0
    1.7437   -0.3779   -0.1211 C   0  0  0  0  0  0  0  0  0  0  0  0
    1.0234   -0.3900   -1.2286 C   0  0  0  0  0  0  0  0  0  0  0  0
   -0.3904   -0.0167   -0.9651 C   0  0  0  0  0  0  0  0  0  0  0  0
   -0.5332   -0.2903    0.4948 C   0  0  0  0  0  0  0  0  0  0  0  0
   -1.4997    0.7107    1.0756 C   0  0  0  0  0  0  0  0  0  0  0  0
   -2.8350    0.5738    0.3938 C   0  0  0  0  0  0  0  0  0  0  0  0
    0.8677    0.0148    1.0402 C   0  0  0  0  0  0  0  0  0  0  0  0
    5.3618   -1.2060    0.1141 H   0  0  0  0  0  0  0  0  0  0  0  0
    1.4595   -0.6500   -2.1989 H   0  0  0  0  0  0  0  0  0  0  0  0
   -0.6155    1.0204   -1.2517 H   0  0  0  0  0  0  0  0  0  0  0  0
   -1.0100   -0.7468   -1.5586 H   0  0  0  0  0  0  0  0  0  0  0  0
   -0.8257   -1.3286    0.7226 H   0  0  0  0  0  0  0  0  0  0  0  0
   -1.1283    1.7393    0.8590 H   0  0  0  0  0  0  0  0  0  0  0  0
   -1.5982    0.5862    2.1917 H   0  0  0  0  0  0  0  0  0  0  0  0
   -3.5862    0.2817    1.1685 H   0  0  0  0  0  0  0  0  0  0  0  0
   -2.7953   -0.2464   -0.3265 H   0  0  0  0  0  0  0  0  0  0  0  0
   -3.1432    1.5024   -0.1218 H   0  0  0  0  0  0  0  0  0  0  0  0
    1.1067   -0.5935    1.9177 H   0  0  0  0  0  0  0  0  0  0  0  0
    0.9337    1.0801    1.2635 H   0  0  0  0  0  0  0  0  0  0  0  0
  1  2  3  0
  2  3  1  0
  3  4  2  0
  4  5  1  0
  5  6  1  0
  6  7  1  0
  7  8  1  0
  6  9  1  0
  9  3  1  0
  1 10  1  0
  4 11  1  0
  5 12  1  0
  5 13  1  0
  6 14  1  0
  7 15  1  0
  7 16  1  0
  8 17  1  0
  8 18  1  0
  8 19  1  0
  9 20  1  0
  9 21  1  0
M  END
