
     RDKit          3D

 19 19  0  0  0  0  0  0  0  0999 V2000
    2.8982   -1.1615   -0.7314 C   0  0  0  0  0  0  0  0  0  0  0  0
    1.8579   -0.8546   -1.0139 C   0  0  0  0  0  0  0  0  0  0  0  0
    0.4351   -0.4107   -1.4168 C   0  0  0  0  0  0  0  0  0  0  0  0
   -0.0842    0.3458   -0.2503 C   0  0  0  0  0  0  0  0  0  0  0  0
    0.6782    1.4580    0.0634 O   0  0  0  0  0  0  0  0  0  0  0  0
   -1.5418    0.6665   -0.3656 C   0  0  0  0  0  0  0  0  0  0  0  0
   -2.0872    0.6841    0.8419 C   0  0  0  0  0  0  0  0  0  0  0  0
   -1.0278    0.3747    1.8610 C   0  0  0  0  0  0  0  0  0  0  0  0
   -0.1616   -0.5433    1.0075 C   0  0  0  0  0  0  0  0  0  0  0  0
    3.9083   -1.4421   -0.4634 H   0  0  0  0  0  0  0  0  0  0  0  0
    0.5989    0.2188   -2.3010 H   0  0  0  0  0  0  0  0  0  0  0  0
   -0.1094   -1.3263   -1.6133 H   0  0  0  0  0  0  0  0  0  0  0  0
    1.5916    1.2871   -0.2797 H   0  0  0  0  0  0  0  0  0  0  0  0
   -2.0739    0.8543   -1.3073 H   0  0  0  0  0  0  0  0  0  0  0  0
   -3.1079    0.8792    1.0880 H   0  0  0  0  0  0  0  0  0  0  0  0
   -0.4216    1.2826    2.0238 H   0  0  0  0  0  0  0  0  0  0  0  0
   -1.4057   -0.1208    2.7527 H   0  0  0  0  0  0  0  0  0  0  0  0
    0.8198   -0.7418    1.4204 H   0  0  0  0  0  0  0  0  0  0  0  0
   -0.7668   -1.4502    0.7543 H   0  0  0  0  0  0  0  0  0  0  0  0
  1  2  3  0
  2  3  1  0
  3  4  1  0
  4  5  1  0
  4  6  1  0
  6  7  2  0
  7  8  1  0
  8  9  1  0
  9  4  1  0
  1 10  1  0
  3 11  1  0
  3 12  1  0
  5 13  1  0
  6 14  1  0
  7 15  1  0
  8 16  1  0
  8 17  1  0
  9 18  1  0
  9 19  1  0
M  END
