
     RDKit          3D

 17 19  0  0  0  0  0  0  0  0999 V2000
   -2.9715    1.8842   -0.1715 C   0  0  0  0  0  0  0  0  0  0  0  0
   -2.0997    1.0759    0.0160 C   0  0  0  0  0  0  0  0  0  0  0  0
   -1.0361    0.1231    0.2347 C   0  0  0  0  0  0  0  0  0  0  0  0
   -1.4706   -0.9966    0.9864 O   0  0  0  0  0  0  0  0  0  0  0  0
    0.3775    0.4705    0.4690 C   0  0  0  0  0  0  0  0  0  0  0  0
    1.6174    0.0909   -0.2491 C   0  0  0  0  0  0  0  0  0  0  0  0
    2.3391   -1.1064   -0.3663 C   0  0  0  0  0  0  0  0  0  0  0  0
    0.8991   -1.2422   -0.5692 C   0  0  0  0  0  0  0  0  0  0  0  0
   -0.1327   -0.1399   -0.8504 C   0  0  0  0  0  0  0  0  0  0  0  0
   -3.7289    2.6082   -0.3283 H   0  0  0  0  0  0  0  0  0  0  0  0
   -2.2554   -0.7662    1.5406 H   0  0  0  0  0  0  0  0  0  0  0  0
    0.3906    1.5923    0.6319 H   0  0  0  0  0  0  0  0  0  0  0  0
    1.7034    0.7181   -1.2092 H   0  0  0  0  0  0  0  0  0  0  0  0
    2.9505   -1.3929   -1.2599 H   0  0  0  0  0  0  0  0  0  0  0  0
    2.8908   -1.4545    0.5601 H   0  0  0  0  0  0  0  0  0  0  0  0
    0.5233   -1.9348    0.1797 H   0  0  0  0  0  0  0  0  0  0  0  0
    0.0031    0.4703   -1.7550 H   0  0  0  0  0  0  0  0  0  0  0  0
  1  2  3  0
  2  3  1  0
  3  4  1  0
  3  5  1  0
  5  6  1  0
  6  7  1  0
  7  8  1  0
  8  9  1  0
  9  3  1  0
  9  5  1  0
  8  6  1  0
  1 10  1  0
  4 11  1  0
  5 12  1  0
  6 13  1  0
  7 14  1  0
  7 15  1  0
  8 16  1  0
  9 17  1  0
M  END
