
     RDKit          3D

 17 18  0  0  0  0  0  0  0  0999 V2000
    3.2094   -0.6829   -0.4518 C   0  0  0  0  0  0  0  0  0  0  0  0
    2.0284   -0.5598   -0.2524 C   0  0  0  0  0  0  0  0  0  0  0  0
    0.6466   -0.4404   -0.0208 C   0  0  0  0  0  0  0  0  0  0  0  0
    0.2600    0.0328    1.3448 C   0  0  0  0  0  0  0  0  0  0  0  0
   -0.9599    0.6095    1.2643 C   0  0  0  0  0  0  0  0  0  0  0  0
   -1.3882    0.4157   -0.1404 C   0  0  0  0  0  0  0  0  0  0  0  0
   -1.4640   -1.0821   -0.3708 C   0  0  0  0  0  0  0  0  0  0  0  0
   -0.1332   -1.5321   -0.4111 O   0  0  0  0  0  0  0  0  0  0  0  0
   -0.0402    0.6643   -0.8498 C   0  0  0  0  0  0  0  0  0  0  0  0
    4.2699   -0.7805   -0.6170 H   0  0  0  0  0  0  0  0  0  0  0  0
    0.8842   -0.0873    2.2245 H   0  0  0  0  0  0  0  0  0  0  0  0
   -1.4484    1.0850    2.0813 H   0  0  0  0  0  0  0  0  0  0  0  0
   -2.1927    0.9987   -0.5002 H   0  0  0  0  0  0  0  0  0  0  0  0
   -1.9218   -1.5849    0.5084 H   0  0  0  0  0  0  0  0  0  0  0  0
   -2.0195   -1.3468   -1.2828 H   0  0  0  0  0  0  0  0  0  0  0  0
   -0.0938    0.3988   -1.9062 H   0  0  0  0  0  0  0  0  0  0  0  0
    0.3631    1.6491   -0.6201 H   0  0  0  0  0  0  0  0  0  0  0  0
  1  2  3  0
  2  3  1  0
  3  4  1  0
  4  5  2  0
  5  6  1  0
  6  7  1  0
  7  8  1  0
  6  9  1  0
  8  3  1  0
  9  3  1  0
  1 10  1  0
  4 11  1  0
  5 12  1  0
  6 13  1  0
  7 14  1  0
  7 15  1  0
  9 16  1  0
  9 17  1  0
M  END
