
     RDKit          3D

 17 16  0  0  0  0  0  0  0  0999 V2000
   -3.5187    0.7036    0.0712 C   0  0  0  0  0  0  0  0  0  0  0  0
   -2.5443   -0.2220   -0.0888 C   0  0  0  0  0  0  0  0  0  0  0  0
   -1.5344   -1.1556   -0.2454 C   0  0  0  0  0  0  0  0  0  0  0  0
   -0.2706   -0.9220    0.3957 C   0  0  0  0  0  0  0  0  0  0  0  0
    0.5528   -1.9456    0.3743 O   0  0  0  0  0  0  0  0  0  0  0  0
    0.3468    0.1687    1.1249 C   0  0  0  0  0  0  0  0  0  0  0  0
    1.3052    1.0236    0.2512 C   0  0  0  0  0  0  0  0  0  0  0  0
    2.6285    0.4201    0.0049 C   0  0  0  0  0  0  0  0  0  0  0  0
    0.9641    2.0818   -0.1608 O   0  0  0  0  0  0  0  0  0  0  0  0
   -4.3253    1.4862    0.1891 H   0  0  0  0  0  0  0  0  0  0  0  0
   -1.2621   -1.1732   -1.3829 H   0  0  0  0  0  0  0  0  0  0  0  0
   -1.9785   -2.1932    0.0369 H   0  0  0  0  0  0  0  0  0  0  0  0
   -0.3896    0.9168    1.4981 H   0  0  0  0  0  0  0  0  0  0  0  0
    0.9632   -0.1549    1.9894 H   0  0  0  0  0  0  0  0  0  0  0  0
    3.4056    1.3018   -0.0391 H   0  0  0  0  0  0  0  0  0  0  0  0
    3.0177   -0.2403    0.7868 H   0  0  0  0  0  0  0  0  0  0  0  0
    2.6397   -0.0957   -0.9791 H   0  0  0  0  0  0  0  0  0  0  0  0
  1  2  3  0
  2  3  1  0
  3  4  1  0
  4  5  2  0
  4  6  1  0
  6  7  1  0
  7  8  1  0
  7  9  2  0
  1 10  1  0
  3 11  1  0
  3 12  1  0
  6 13  1  0
  6 14  1  0
  8 15  1  0
  8 16  1  0
  8 17  1  0
M  END
