
     RDKit          3D

 17 17  0  0  0  0  0  0  0  0999 V2000
    2.7416   -1.0688   -0.3084 C   0  0  0  0  0  0  0  0  0  0  0  0
    1.6192   -0.7690    0.0448 C   0  0  0  0  0  0  0  0  0  0  0  0
    0.2679   -0.4107    0.4905 C   0  0  0  0  0  0  0  0  0  0  0  0
   -0.0893   -0.8461    1.7543 O   0  0  0  0  0  0  0  0  0  0  0  0
   -0.7499   -0.1687   -0.5602 C   0  0  0  0  0  0  0  0  0  0  0  0
   -2.1236   -0.7278   -0.2673 C   0  0  0  0  0  0  0  0  0  0  0  0
   -0.2314    1.0027    0.1883 C   0  0  0  0  0  0  0  0  0  0  0  0
    0.7784    1.8585   -0.4740 C   0  0  0  0  0  0  0  0  0  0  0  0
    0.7884    3.0507   -0.2271 O   0  0  0  0  0  0  0  0  0  0  0  0
    3.7241   -1.3130   -0.6224 H   0  0  0  0  0  0  0  0  0  0  0  0
    0.5299   -0.5621    2.4666 H   0  0  0  0  0  0  0  0  0  0  0  0
   -0.4250   -0.2356   -1.6204 H   0  0  0  0  0  0  0  0  0  0  0  0
   -2.2244   -0.9913    0.8198 H   0  0  0  0  0  0  0  0  0  0  0  0
   -2.9413   -0.0671   -0.5787 H   0  0  0  0  0  0  0  0  0  0  0  0
   -2.2396   -1.6875   -0.8126 H   0  0  0  0  0  0  0  0  0  0  0  0
   -0.9319    1.4769    0.8764 H   0  0  0  0  0  0  0  0  0  0  0  0
    1.5070    1.4590   -1.1696 H   0  0  0  0  0  0  0  0  0  0  0  0
  1  2  3  0
  2  3  1  0
  3  4  1  0
  3  5  1  0
  5  6  1  0
  5  7  1  0
  7  8  1  0
  8  9  2  0
  7  3  1  0
  1 10  1  0
  4 11  1  0
  5 12  1  0
  6 13  1  0
  6 14  1  0
  6 15  1  0
  7 16  1  0
  8 17  1  0
M  END
