
     RDKit          3D

 16 15  0  0  0  0  0  0  0  0999 V2000
   -1.7133    0.4425   -1.8781 C   0  0  0  0  0  0  0  0  0  0  0  0
   -0.5983    0.4469   -1.3816 C   0  0  0  0  0  0  0  0  0  0  0  0
    0.7343    0.4303   -0.7735 C   0  0  0  0  0  0  0  0  0  0  0  0
    1.5142   -0.4913   -1.4261 O   0  0  0  0  0  0  0  0  0  0  0  0
    0.5183    0.0747    0.7012 C   0  0  0  0  0  0  0  0  0  0  0  0
   -0.1416   -1.2753    0.7500 C   0  0  0  0  0  0  0  0  0  0  0  0
   -0.3709    1.1269    1.2796 C   0  0  0  0  0  0  0  0  0  0  0  0
   -0.3779    1.2106    2.5059 O   0  0  0  0  0  0  0  0  0  0  0  0
   -2.6926    0.4284   -2.2975 H   0  0  0  0  0  0  0  0  0  0  0  0
    1.2076    1.4456   -0.8559 H   0  0  0  0  0  0  0  0  0  0  0  0
    2.2206   -0.8784   -0.8161 H   0  0  0  0  0  0  0  0  0  0  0  0
    1.5153    0.0988    1.1774 H   0  0  0  0  0  0  0  0  0  0  0  0
   -1.1353   -1.1562    1.2217 H   0  0  0  0  0  0  0  0  0  0  0  0
   -0.2121   -1.7559   -0.2584 H   0  0  0  0  0  0  0  0  0  0  0  0
    0.5148   -1.9371    1.3711 H   0  0  0  0  0  0  0  0  0  0  0  0
   -0.9830    1.7898    0.6801 H   0  0  0  0  0  0  0  0  0  0  0  0
  1  2  3  0
  2  3  1  0
  3  4  1  0
  3  5  1  0
  5  6  1  0
  5  7  1  0
  7  8  2  0
  1  9  1  0
  3 10  1  0
  4 11  1  0
  5 12  1  0
  6 13  1  0
  6 14  1  0
  6 15  1  0
  7 16  1  0
M  END
