
     RDKit          3D

 15 16  0  0  0  0  0  0  0  0999 V2000
    2.8587   -0.2432    0.2681 C   0  0  0  0  0  0  0  0  0  0  0  0
    1.6785   -0.1311    0.1379 C   0  0  0  0  0  0  0  0  0  0  0  0
    0.3635   -0.0084   -0.0032 C   0  0  0  0  0  0  0  0  0  0  0  0
   -0.6842   -0.9323    0.5671 C   0  0  0  0  0  0  0  0  0  0  0  0
   -1.4666    0.1386   -0.1460 C   0  0  0  0  0  0  0  0  0  0  0  0
   -0.4321    0.0086   -1.2424 C   0  0  0  0  0  0  0  0  0  0  0  0
   -0.5004    1.1027    0.5023 C   0  0  0  0  0  0  0  0  0  0  0  0
    3.9323   -0.3505    0.3683 H   0  0  0  0  0  0  0  0  0  0  0  0
   -0.7062   -1.9269    0.1067 H   0  0  0  0  0  0  0  0  0  0  0  0
   -0.7373   -0.9239    1.6699 H   0  0  0  0  0  0  0  0  0  0  0  0
   -2.4515    0.2287   -0.2427 H   0  0  0  0  0  0  0  0  0  0  0  0
   -0.5196   -0.9900   -1.7227 H   0  0  0  0  0  0  0  0  0  0  0  0
   -0.3648    0.8732   -1.9110 H   0  0  0  0  0  0  0  0  0  0  0  0
   -0.5644    1.0732    1.6084 H   0  0  0  0  0  0  0  0  0  0  0  0
   -0.4057    2.0813    0.0391 H   0  0  0  0  0  0  0  0  0  0  0  0
  1  2  3  0
  2  3  1  0
  3  4  1  0
  4  5  1  0
  5  6  1  0
  5  7  1  0
  6  3  1  0
  7  3  1  0
  1  8  1  0
  4  9  1  0
  4 10  1  0
  5 11  1  0
  6 12  1  0
  6 13  1  0
  7 14  1  0
  7 15  1  0
M  END
