
     RDKit          3D

 17 17  0  0  0  0  0  0  0  0999 V2000
   -2.5411    1.0821    1.6308 C   0  0  0  0  0  0  0  0  0  0  0  0
   -1.5504    0.9204    0.9625 C   0  0  0  0  0  0  0  0  0  0  0  0
   -0.3377    0.7470    0.1545 C   0  0  0  0  0  0  0  0  0  0  0  0
   -0.7082    0.0135   -1.0861 C   0  0  0  0  0  0  0  0  0  0  0  0
    0.3763   -0.7361   -1.7142 C   0  0  0  0  0  0  0  0  0  0  0  0
    1.5262   -1.0488   -1.1416 C   0  0  0  0  0  0  0  0  0  0  0  0
    1.7398   -0.6198    0.2159 C   0  0  0  0  0  0  0  0  0  0  0  0
    2.8508   -0.8029    0.7460 O   0  0  0  0  0  0  0  0  0  0  0  0
    0.6752    0.0364    1.0084 C   0  0  0  0  0  0  0  0  0  0  0  0
   -3.4094    1.2377    2.2329 H   0  0  0  0  0  0  0  0  0  0  0  0
    0.0938    1.7459   -0.1081 H   0  0  0  0  0  0  0  0  0  0  0  0
   -1.0620    0.7827   -1.8323 H   0  0  0  0  0  0  0  0  0  0  0  0
   -1.5709   -0.6933   -0.9361 H   0  0  0  0  0  0  0  0  0  0  0  0
    0.2437   -1.0721   -2.7360 H   0  0  0  0  0  0  0  0  0  0  0  0
    2.2929   -1.6136   -1.6754 H   0  0  0  0  0  0  0  0  0  0  0  0
    1.1665    0.7744    1.6767 H   0  0  0  0  0  0  0  0  0  0  0  0
    0.2145   -0.7535    1.6404 H   0  0  0  0  0  0  0  0  0  0  0  0
  1  2  3  0
  2  3  1  0
  3  4  1  0
  4  5  1  0
  5  6  2  0
  6  7  1  0
  7  8  2  0
  7  9  1  0
  9  3  1  0
  1 10  1  0
  3 11  1  0
  4 12  1  0
  4 13  1  0
  5 14  1  0
  6 15  1  0
  9 16  1  0
  9 17  1  0
M  END
