
     RDKit          3D

 17 18  0  0  0  0  0  0  0  0999 V2000
    2.2101    1.5709   -0.9090 C   0  0  0  0  0  0  0  0  0  0  0  0
    1.4707    0.7922   -0.3273 C   0  0  0  0  0  0  0  0  0  0  0  0
    0.5845   -0.1784    0.3797 C   0  0  0  0  0  0  0  0  0  0  0  0
    0.9516   -1.5259    0.2386 C   0  0  0  0  0  0  0  0  0  0  0  0
   -0.1501   -1.2123   -0.5741 C   0  0  0  0  0  0  0  0  0  0  0  0
   -0.4409   -0.2422   -1.4845 O   0  0  0  0  0  0  0  0  0  0  0  0
   -1.2732    0.6008   -0.6953 C   0  0  0  0  0  0  0  0  0  0  0  0
   -0.6865    0.5026    0.7306 C   0  0  0  0  0  0  0  0  0  0  0  0
   -1.5363   -0.2825    1.5166 O   0  0  0  0  0  0  0  0  0  0  0  0
    2.8463    2.2582   -1.4012 H   0  0  0  0  0  0  0  0  0  0  0  0
    1.9236   -1.7899   -0.2712 H   0  0  0  0  0  0  0  0  0  0  0  0
    0.8385   -2.2021    1.1246 H   0  0  0  0  0  0  0  0  0  0  0  0
   -1.1395   -1.6160   -0.1887 H   0  0  0  0  0  0  0  0  0  0  0  0
   -2.3159    0.2297   -0.7026 H   0  0  0  0  0  0  0  0  0  0  0  0
   -1.2599    1.6321   -1.0563 H   0  0  0  0  0  0  0  0  0  0  0  0
   -0.5318    1.5107    1.1494 H   0  0  0  0  0  0  0  0  0  0  0  0
   -1.4913   -0.0481    2.4706 H   0  0  0  0  0  0  0  0  0  0  0  0
  1  2  3  0
  2  3  1  0
  3  4  1  0
  4  5  1  0
  5  6  1  0
  6  7  1  0
  7  8  1  0
  8  9  1  0
  5  3  1  0
  8  3  1  0
  1 10  1  0
  4 11  1  0
  4 12  1  0
  5 13  1  0
  7 14  1  0
  7 15  1  0
  8 16  1  0
  9 17  1  0
M  END
