
     RDKit          3D

 18 18  0  0  0  0  0  0  0  0999 V2000
    2.6585   -0.4980    1.3965 C   0  0  0  0  0  0  0  0  0  0  0  0
    1.7191   -0.3597    0.6251 C   0  0  0  0  0  0  0  0  0  0  0  0
    0.6097   -0.1980   -0.3182 C   0  0  0  0  0  0  0  0  0  0  0  0
    0.8569    1.0067   -1.2205 C   0  0  0  0  0  0  0  0  0  0  0  0
   -0.6514    0.0381    0.4555 C   0  0  0  0  0  0  0  0  0  0  0  0
   -0.7179    1.1586    1.2993 O   0  0  0  0  0  0  0  0  0  0  0  0
   -1.9275   -0.2050   -0.3577 C   0  0  0  0  0  0  0  0  0  0  0  0
   -1.5160   -1.1170    0.7299 C   0  0  0  0  0  0  0  0  0  0  0  0
    3.4820   -0.6057    2.0548 H   0  0  0  0  0  0  0  0  0  0  0  0
    0.5112   -1.1230   -0.8866 H   0  0  0  0  0  0  0  0  0  0  0  0
   -0.1031    1.3498   -1.6531 H   0  0  0  0  0  0  0  0  0  0  0  0
    1.5263    0.6612   -2.0533 H   0  0  0  0  0  0  0  0  0  0  0  0
    1.3310    1.7707   -0.5986 H   0  0  0  0  0  0  0  0  0  0  0  0
    0.1567    1.4571    1.6054 H   0  0  0  0  0  0  0  0  0  0  0  0
   -2.8109    0.4332   -0.1397 H   0  0  0  0  0  0  0  0  0  0  0  0
   -1.8325   -0.4589   -1.4214 H   0  0  0  0  0  0  0  0  0  0  0  0
   -2.1342   -1.1718    1.6645 H   0  0  0  0  0  0  0  0  0  0  0  0
   -1.1580   -2.1382    0.4248 H   0  0  0  0  0  0  0  0  0  0  0  0
  1  2  3  0
  2  3  1  0
  3  4  1  0
  3  5  1  0
  5  6  1  0
  5  7  1  0
  7  8  1  0
  8  5  1  0
  1  9  1  0
  3 10  1  0
  4 11  1  0
  4 12  1  0
  4 13  1  0
  6 14  1  0
  7 15  1  0
  7 16  1  0
  8 17  1  0
  8 18  1  0
M  END
