
     RDKit          3D

 21 20  0  0  0  0  0  0  0  0999 V2000
    0.6807   -1.3250    2.3633 C   0  0  0  0  0  0  0  0  0  0  0  0
    0.1627   -0.8704    1.3698 C   0  0  0  0  0  0  0  0  0  0  0  0
   -0.4847   -0.3315    0.1553 C   0  0  0  0  0  0  0  0  0  0  0  0
   -1.3744   -1.4189   -0.4617 C   0  0  0  0  0  0  0  0  0  0  0  0
   -1.3726    0.7993    0.5362 C   0  0  0  0  0  0  0  0  0  0  0  0
   -0.7467    1.8565    1.1514 O   0  0  0  0  0  0  0  0  0  0  0  0
    0.5561   -0.0020   -0.8684 C   0  0  0  0  0  0  0  0  0  0  0  0
    1.5597    1.0139   -0.4296 C   0  0  0  0  0  0  0  0  0  0  0  0
    2.2296    0.5450    0.6925 O   0  0  0  0  0  0  0  0  0  0  0  0
    1.1214   -1.7339    3.2373 H   0  0  0  0  0  0  0  0  0  0  0  0
   -0.8348   -2.3728   -0.2952 H   0  0  0  0  0  0  0  0  0  0  0  0
   -2.3685   -1.3967    0.0480 H   0  0  0  0  0  0  0  0  0  0  0  0
   -1.4502   -1.2297   -1.5476 H   0  0  0  0  0  0  0  0  0  0  0  0
   -2.1379    0.4030    1.2405 H   0  0  0  0  0  0  0  0  0  0  0  0
   -1.9599    1.1283   -0.3651 H   0  0  0  0  0  0  0  0  0  0  0  0
   -1.0345    2.7033    0.7031 H   0  0  0  0  0  0  0  0  0  0  0  0
    1.1233   -0.9566   -1.0604 H   0  0  0  0  0  0  0  0  0  0  0  0
    0.0771    0.2567   -1.8324 H   0  0  0  0  0  0  0  0  0  0  0  0
    2.2917    1.1460   -1.2614 H   0  0  0  0  0  0  0  0  0  0  0  0
    1.1218    1.9902   -0.2386 H   0  0  0  0  0  0  0  0  0  0  0  0
    2.8400   -0.2048    0.4890 H   0  0  0  0  0  0  0  0  0  0  0  0
  1  2  3  0
  2  3  1  0
  3  4  1  0
  3  5  1  0
  5  6  1  0
  3  7  1  0
  7  8  1  0
  8  9  1  0
  1 10  1  0
  4 11  1  0
  4 12  1  0
  4 13  1  0
  5 14  1  0
  5 15  1  0
  6 16  1  0
  7 17  1  0
  7 18  1  0
  8 19  1  0
  8 20  1  0
  9 21  1  0
M  END
