
     RDKit          3D

 16 15  0  0  0  0  0  0  0  0999 V2000
    4.1603    1.0714   -0.4329 C   0  0  0  0  0  0  0  0  0  0  0  0
    3.0838    0.5216   -0.3805 C   0  0  0  0  0  0  0  0  0  0  0  0
    1.7897   -0.1254   -0.3270 C   0  0  0  0  0  0  0  0  0  0  0  0
    1.6249   -1.2690    0.1125 O   0  0  0  0  0  0  0  0  0  0  0  0
    0.7036    0.5659   -0.7854 O   0  0  0  0  0  0  0  0  0  0  0  0
   -0.6225    0.1630   -0.8342 C   0  0  0  0  0  0  0  0  0  0  0  0
   -1.1022   -0.1182    0.5655 C   0  0  0  0  0  0  0  0  0  0  0  0
   -2.5600   -0.5635    0.5692 C   0  0  0  0  0  0  0  0  0  0  0  0
    5.1170    1.5486   -0.4875 H   0  0  0  0  0  0  0  0  0  0  0  0
   -0.7963   -0.7353   -1.4774 H   0  0  0  0  0  0  0  0  0  0  0  0
   -1.2208    0.9742   -1.3267 H   0  0  0  0  0  0  0  0  0  0  0  0
   -1.0691    0.7861    1.2094 H   0  0  0  0  0  0  0  0  0  0  0  0
   -0.4443   -0.8596    1.0384 H   0  0  0  0  0  0  0  0  0  0  0  0
   -2.8335   -0.7722    1.6132 H   0  0  0  0  0  0  0  0  0  0  0  0
   -3.1314    0.2991    0.1405 H   0  0  0  0  0  0  0  0  0  0  0  0
   -2.6991   -1.4868   -0.0391 H   0  0  0  0  0  0  0  0  0  0  0  0
  1  2  3  0
  2  3  1  0
  3  4  2  0
  3  5  1  0
  5  6  1  0
  6  7  1  0
  7  8  1  0
  1  9  1  0
  6 10  1  0
  6 11  1  0
  7 12  1  0
  7 13  1  0
  8 14  1  0
  8 15  1  0
  8 16  1  0
M  END
