
     RDKit          3D

 17 17  0  0  0  0  0  0  0  0999 V2000
    2.9382   -0.5844   -1.0386 C   0  0  0  0  0  0  0  0  0  0  0  0
    2.1089   -0.1376   -0.2937 C   0  0  0  0  0  0  0  0  0  0  0  0
    1.1315    0.4121    0.5750 C   0  0  0  0  0  0  0  0  0  0  0  0
    1.4976    1.0779    1.5788 O   0  0  0  0  0  0  0  0  0  0  0  0
   -0.3216    0.2425    0.3620 C   0  0  0  0  0  0  0  0  0  0  0  0
   -1.1908    0.8960    1.3853 C   0  0  0  0  0  0  0  0  0  0  0  0
   -0.7944    0.2698   -1.0549 C   0  0  0  0  0  0  0  0  0  0  0  0
   -1.6815   -0.7781   -0.7250 O   0  0  0  0  0  0  0  0  0  0  0  0
   -0.7054   -1.2147    0.1969 C   0  0  0  0  0  0  0  0  0  0  0  0
    3.6768   -0.9955   -1.6973 H   0  0  0  0  0  0  0  0  0  0  0  0
   -2.1141    1.2469    0.8897 H   0  0  0  0  0  0  0  0  0  0  0  0
   -1.4336    0.1917    2.2306 H   0  0  0  0  0  0  0  0  0  0  0  0
   -0.6839    1.7839    1.8132 H   0  0  0  0  0  0  0  0  0  0  0  0
   -1.3499    1.1395   -1.3930 H   0  0  0  0  0  0  0  0  0  0  0  0
   -0.0034   -0.0341   -1.7559 H   0  0  0  0  0  0  0  0  0  0  0  0
    0.0536   -1.8359   -0.3052 H   0  0  0  0  0  0  0  0  0  0  0  0
   -1.1279   -1.6800    1.0868 H   0  0  0  0  0  0  0  0  0  0  0  0
  1  2  3  0
  2  3  1  0
  3  4  2  0
  3  5  1  0
  5  6  1  0
  5  7  1  0
  7  8  1  0
  8  9  1  0
  9  5  1  0
  1 10  1  0
  6 11  1  0
  6 12  1  0
  6 13  1  0
  7 14  1  0
  7 15  1  0
  9 16  1  0
  9 17  1  0
M  END
