
     RDKit          3D

 15 15  0  0  0  0  0  0  0  0999 V2000
    2.8707   -0.4083   -0.4029 C   0  0  0  0  0  0  0  0  0  0  0  0
    1.6873   -0.5157   -0.1902 C   0  0  0  0  0  0  0  0  0  0  0  0
    0.2512   -0.6337    0.0794 C   0  0  0  0  0  0  0  0  0  0  0  0
    0.0041   -1.9256    0.5256 O   0  0  0  0  0  0  0  0  0  0  0  0
   -0.5257   -0.4575   -1.1453 C   0  0  0  0  0  0  0  0  0  0  0  0
   -1.1558   -0.3094   -2.1649 C   0  0  0  0  0  0  0  0  0  0  0  0
   -0.1678    0.3900    1.1385 C   0  0  0  0  0  0  0  0  0  0  0  0
   -1.1976    1.3148    0.8044 C   0  0  0  0  0  0  0  0  0  0  0  0
    0.1278    1.7396    0.5855 O   0  0  0  0  0  0  0  0  0  0  0  0
    3.9329   -0.3230   -0.5782 H   0  0  0  0  0  0  0  0  0  0  0  0
   -0.9077   -2.0499    0.8508 H   0  0  0  0  0  0  0  0  0  0  0  0
   -1.7299   -0.1664   -3.0650 H   0  0  0  0  0  0  0  0  0  0  0  0
    0.3164    0.2896    2.1083 H   0  0  0  0  0  0  0  0  0  0  0  0
   -1.7988    1.1324   -0.1255 H   0  0  0  0  0  0  0  0  0  0  0  0
   -1.7072    1.9231    1.5795 H   0  0  0  0  0  0  0  0  0  0  0  0
  1  2  3  0
  2  3  1  0
  3  4  1  0
  3  5  1  0
  5  6  3  0
  3  7  1  0
  7  8  1  0
  8  9  1  0
  9  7  1  0
  1 10  1  0
  4 11  1  0
  6 12  1  0
  7 13  1  0
  8 14  1  0
  8 15  1  0
M  END
