
     RDKit          3D

 19 19  0  0  0  0  0  0  0  0999 V2000
    2.4788    2.4122    0.5013 C   0  0  0  0  0  0  0  0  0  0  0  0
    1.4899    1.8236    0.1422 C   0  0  0  0  0  0  0  0  0  0  0  0
    0.2895    1.1037   -0.3211 C   0  0  0  0  0  0  0  0  0  0  0  0
    0.7721    0.0634   -1.3020 C   0  0  0  0  0  0  0  0  0  0  0  0
    0.7969   -1.1461   -0.6365 O   0  0  0  0  0  0  0  0  0  0  0  0
   -0.1583   -1.0996    0.3628 C   0  0  0  0  0  0  0  0  0  0  0  0
   -1.4956   -1.5354   -0.1978 C   0  0  0  0  0  0  0  0  0  0  0  0
   -2.4473   -1.4810    0.8215 O   0  0  0  0  0  0  0  0  0  0  0  0
   -0.2714    0.3272    0.8230 C   0  0  0  0  0  0  0  0  0  0  0  0
    3.3650    2.9311    0.8332 H   0  0  0  0  0  0  0  0  0  0  0  0
   -0.4345    1.7973   -0.7758 H   0  0  0  0  0  0  0  0  0  0  0  0
    1.7354    0.2979   -1.7575 H   0  0  0  0  0  0  0  0  0  0  0  0
    0.0188   -0.0206   -2.1125 H   0  0  0  0  0  0  0  0  0  0  0  0
    0.0801   -1.7826    1.2035 H   0  0  0  0  0  0  0  0  0  0  0  0
   -1.4141   -2.5744   -0.6106 H   0  0  0  0  0  0  0  0  0  0  0  0
   -1.8220   -0.8598   -1.0165 H   0  0  0  0  0  0  0  0  0  0  0  0
   -2.0411   -1.2904    1.7132 H   0  0  0  0  0  0  0  0  0  0  0  0
    0.3797    0.4326    1.7395 H   0  0  0  0  0  0  0  0  0  0  0  0
   -1.3220    0.6008    1.0825 H   0  0  0  0  0  0  0  0  0  0  0  0
  1  2  3  0
  2  3  1  0
  3  4  1  0
  4  5  1  0
  5  6  1  0
  6  7  1  0
  7  8  1  0
  6  9  1  0
  9  3  1  0
  1 10  1  0
  3 11  1  0
  4 12  1  0
  4 13  1  0
  6 14  1  0
  7 15  1  0
  7 16  1  0
  8 17  1  0
  9 18  1  0
  9 19  1  0
M  END
