
     RDKit          3D

 17 17  0  0  0  0  0  0  0  0999 V2000
    4.0667    0.5641   -1.8788 C   0  0  0  0  0  0  0  0  0  0  0  0
    2.9798    0.3460   -1.3083 C   0  0  0  0  0  0  0  0  0  0  0  0
    2.1331    0.1911   -0.8754 C   0  0  0  0  0  0  0  0  0  0  0  0
    0.7712   -0.0290   -0.1802 C   0  0  0  0  0  0  0  0  0  0  0  0
   -0.3057   -0.1801    0.3669 C   0  0  0  0  0  0  0  0  0  0  0  0
   -1.6022    0.3537   -0.5084 C   0  0  0  0  0  0  0  0  0  0  0  0
   -2.7156    0.0765    0.2327 O   0  0  0  0  0  0  0  0  0  0  0  0
   -0.8105   -1.3585    1.2590 C   0  0  0  0  0  0  0  0  0  0  0  0
   -0.6208   -0.0388    1.8355 C   0  0  0  0  0  0  0  0  0  0  0  0
    5.4068    0.8600   -2.5943 H   0  0  0  0  0  0  0  0  0  0  0  0
   -1.4614    1.4946   -0.3802 H   0  0  0  0  0  0  0  0  0  0  0  0
   -1.5045    0.0617   -1.5001 H   0  0  0  0  0  0  0  0  0  0  0  0
   -3.4160    0.8096    0.3826 H   0  0  0  0  0  0  0  0  0  0  0  0
   -1.7338   -1.8277    0.9632 H   0  0  0  0  0  0  0  0  0  0  0  0
   -0.0047   -2.1419    1.4140 H   0  0  0  0  0  0  0  0  0  0  0  0
   -1.4990    0.6307    2.0756 H   0  0  0  0  0  0  0  0  0  0  0  0
    0.3167    0.1879    2.3924 H   0  0  0  0  0  0  0  0  0  0  0  0
  1  2  3  0
  2  3  1  0
  3  4  3  0
  4  5  1  0
  5  6  1  0
  6  7  1  0
  5  8  1  0
  8  9  1  0
  9  5  1  0
  1 10  1  0
  6 11  1  0
  6 12  1  0
  7 13  1  0
  8 14  1  0
  8 15  1  0
  9 16  1  0
  9 17  1  0
M  END
