
     RDKit          3D

 18 17  0  0  0  0  0  0  0  0999 V2000
   -0.6253    2.0832    1.2670 C   0  0  0  0  0  0  0  0  0  0  0  0
   -0.2443    1.1737    0.8690 C   0  0  0  0  0  0  0  0  0  0  0  0
    0.2877   -0.0722    0.3151 C   0  0  0  0  0  0  0  0  0  0  0  0
    1.6738    0.6208   -0.4278 C   0  0  0  0  0  0  0  0  0  0  0  0
    0.7844   -1.1359    0.9608 C   0  0  0  0  0  0  0  0  0  0  0  0
    1.1639   -1.9089    1.4384 C   0  0  0  0  0  0  0  0  0  0  0  0
   -0.4257   -0.3386   -0.9979 C   0  0  0  0  0  0  0  0  0  0  0  0
   -1.9180   -0.4288   -0.7875 C   0  0  0  0  0  0  0  0  0  0  0  0
   -1.0837    3.2207    1.7498 H   0  0  0  0  0  0  0  0  0  0  0  0
    1.2552    1.0699   -1.2682 H   0  0  0  0  0  0  0  0  0  0  0  0
    2.0340    1.2964    0.3894 H   0  0  0  0  0  0  0  0  0  0  0  0
    2.2695   -0.2413   -0.5260 H   0  0  0  0  0  0  0  0  0  0  0  0
    1.8219   -3.2006    2.2559 H   0  0  0  0  0  0  0  0  0  0  0  0
   -0.0116   -1.2424   -1.5001 H   0  0  0  0  0  0  0  0  0  0  0  0
   -0.2076    0.5122   -1.7255 H   0  0  0  0  0  0  0  0  0  0  0  0
   -2.3443   -0.8387   -1.7796 H   0  0  0  0  0  0  0  0  0  0  0  0
   -2.1663   -1.1534   -0.0083 H   0  0  0  0  0  0  0  0  0  0  0  0
   -2.2636    0.5840   -0.5938 H   0  0  0  0  0  0  0  0  0  0  0  0
  1  2  3  0
  2  3  1  0
  3  4  1  0
  3  5  1  0
  5  6  3  0
  3  7  1  0
  7  8  1  0
  1  9  1  0
  4 10  1  0
  4 11  1  0
  4 12  1  0
  6 13  1  0
  7 14  1  0
  7 15  1  0
  8 16  1  0
  8 17  1  0
  8 18  1  0
M  END
