
     RDKit          3D

 19 20  0  0  0  0  0  0  0  0999 V2000
   -1.8201   -1.4934    1.8751 C   0  0  0  0  0  0  0  0  0  0  0  0
   -1.1137   -0.7432    1.2490 C   0  0  0  0  0  0  0  0  0  0  0  0
   -0.2532    0.1498    0.4721 C   0  0  0  0  0  0  0  0  0  0  0  0
   -0.0424    1.4682    1.0994 C   0  0  0  0  0  0  0  0  0  0  0  0
   -0.8054    0.2547   -0.9648 C   0  0  0  0  0  0  0  0  0  0  0  0
    0.2454   -0.6073   -1.6164 C   0  0  0  0  0  0  0  0  0  0  0  0
    1.5412   -0.0103   -1.1451 C   0  0  0  0  0  0  0  0  0  0  0  0
    1.0157   -0.5958    0.1322 C   0  0  0  0  0  0  0  0  0  0  0  0
    0.4858   -1.6331   -0.6698 O   0  0  0  0  0  0  0  0  0  0  0  0
   -2.4381   -2.1697    2.4446 H   0  0  0  0  0  0  0  0  0  0  0  0
    0.0346    2.2857    0.3409 H   0  0  0  0  0  0  0  0  0  0  0  0
   -0.9557    1.7135    1.7160 H   0  0  0  0  0  0  0  0  0  0  0  0
    0.8634    1.5367    1.7168 H   0  0  0  0  0  0  0  0  0  0  0  0
   -0.7797    1.3015   -1.2618 H   0  0  0  0  0  0  0  0  0  0  0  0
   -1.8133   -0.2016   -0.9778 H   0  0  0  0  0  0  0  0  0  0  0  0
    0.1332   -0.8960   -2.6336 H   0  0  0  0  0  0  0  0  0  0  0  0
    2.4022   -0.5789   -1.5065 H   0  0  0  0  0  0  0  0  0  0  0  0
    1.6139    1.0884   -1.1816 H   0  0  0  0  0  0  0  0  0  0  0  0
    1.6862   -0.8693    0.9113 H   0  0  0  0  0  0  0  0  0  0  0  0
  1  2  3  0
  2  3  1  0
  3  4  1  0
  3  5  1  0
  5  6  1  0
  6  7  1  0
  7  8  1  0
  8  9  1  0
  8  3  1  0
  9  6  1  0
  1 10  1  0
  4 11  1  0
  4 12  1  0
  4 13  1  0
  5 14  1  0
  5 15  1  0
  6 16  1  0
  7 17  1  0
  7 18  1  0
  8 19  1  0
M  END
