
     RDKit          3D

 19 19  0  0  0  0  0  0  0  0999 V2000
    2.5652   -1.1531    1.1664 C   0  0  0  0  0  0  0  0  0  0  0  0
    1.7394   -1.0053    0.2991 C   0  0  0  0  0  0  0  0  0  0  0  0
    0.7464   -0.8478   -0.7595 C   0  0  0  0  0  0  0  0  0  0  0  0
    1.3851   -0.4051   -1.9170 O   0  0  0  0  0  0  0  0  0  0  0  0
   -0.3779    0.0775   -0.3457 C   0  0  0  0  0  0  0  0  0  0  0  0
   -1.5534    0.0188   -1.2660 C   0  0  0  0  0  0  0  0  0  0  0  0
   -0.7800    0.0079    1.0879 C   0  0  0  0  0  0  0  0  0  0  0  0
   -0.4643    1.4797    1.1727 C   0  0  0  0  0  0  0  0  0  0  0  0
    0.1378    1.3547   -0.1014 O   0  0  0  0  0  0  0  0  0  0  0  0
    3.2876   -1.2687    1.9401 H   0  0  0  0  0  0  0  0  0  0  0  0
    0.3231   -1.8441   -0.9917 H   0  0  0  0  0  0  0  0  0  0  0  0
    1.8194    0.4833   -1.7870 H   0  0  0  0  0  0  0  0  0  0  0  0
   -1.4307   -0.7593   -2.0572 H   0  0  0  0  0  0  0  0  0  0  0  0
   -1.7376    0.9749   -1.7951 H   0  0  0  0  0  0  0  0  0  0  0  0
   -2.4928   -0.2502   -0.7310 H   0  0  0  0  0  0  0  0  0  0  0  0
   -1.8639   -0.1505    1.2874 H   0  0  0  0  0  0  0  0  0  0  0  0
   -0.1691   -0.6422    1.7468 H   0  0  0  0  0  0  0  0  0  0  0  0
    0.2327    1.7824    1.9741 H   0  0  0  0  0  0  0  0  0  0  0  0
   -1.3671    2.1469    1.0770 H   0  0  0  0  0  0  0  0  0  0  0  0
  1  2  3  0
  2  3  1  0
  3  4  1  0
  3  5  1  0
  5  6  1  0
  5  7  1  0
  7  8  1  0
  8  9  1  0
  9  5  1  0
  1 10  1  0
  3 11  1  0
  4 12  1  0
  6 13  1  0
  6 14  1  0
  6 15  1  0
  7 16  1  0
  7 17  1  0
  8 18  1  0
  8 19  1  0
M  END
