
     RDKit          3D

 19 18  0  0  0  0  0  0  0  0999 V2000
    3.0368   -1.7944    0.8234 C   0  0  0  0  0  0  0  0  0  0  0  0
    2.3122   -1.0731    0.1831 C   0  0  0  0  0  0  0  0  0  0  0  0
    1.4267   -0.1712   -0.5898 C   0  0  0  0  0  0  0  0  0  0  0  0
    2.0924    1.1975   -0.5393 C   0  0  0  0  0  0  0  0  0  0  0  0
    0.0849   -0.1453    0.0516 C   0  0  0  0  0  0  0  0  0  0  0  0
   -0.2229   -0.7824    1.0692 O   0  0  0  0  0  0  0  0  0  0  0  0
   -0.8768    0.6529   -0.5437 O   0  0  0  0  0  0  0  0  0  0  0  0
   -2.1792    0.7698   -0.0441 C   0  0  0  0  0  0  0  0  0  0  0  0
   -2.9509   -0.4901    0.0172 C   0  0  0  0  0  0  0  0  0  0  0  0
    3.6721   -2.4274    1.3846 H   0  0  0  0  0  0  0  0  0  0  0  0
    1.2945   -0.5180   -1.6303 H   0  0  0  0  0  0  0  0  0  0  0  0
    1.3044    1.9350   -0.7958 H   0  0  0  0  0  0  0  0  0  0  0  0
    2.9093    1.2314   -1.2593 H   0  0  0  0  0  0  0  0  0  0  0  0
    2.3941    1.3976    0.5063 H   0  0  0  0  0  0  0  0  0  0  0  0
   -2.7226    1.4683   -0.7387 H   0  0  0  0  0  0  0  0  0  0  0  0
   -2.1390    1.2689    0.9202 H   0  0  0  0  0  0  0  0  0  0  0  0
   -3.8516   -0.5155   -0.6273 H   0  0  0  0  0  0  0  0  0  0  0  0
   -2.2749   -1.3581   -0.2208 H   0  0  0  0  0  0  0  0  0  0  0  0
   -3.3093   -0.6459    1.0564 H   0  0  0  0  0  0  0  0  0  0  0  0
  1  2  3  0
  2  3  1  0
  3  4  1  0
  3  5  1  0
  5  6  2  0
  5  7  1  0
  7  8  1  0
  8  9  1  0
  1 10  1  0
  3 11  1  0
  4 12  1  0
  4 13  1  0
  4 14  1  0
  8 15  1  0
  8 16  1  0
  9 17  1  0
  9 18  1  0
  9 19  1  0
M  END
