
     RDKit          3D

 19 19  0  0  0  0  0  0  0  0999 V2000
    0.4918    1.3087   -2.7744 C   0  0  0  0  0  0  0  0  0  0  0  0
    0.5242    0.4564   -1.6693 C   0  0  0  0  0  0  0  0  0  0  0  0
    0.5541   -0.3477   -0.5995 C   0  0  0  0  0  0  0  0  0  0  0  0
    1.6777   -1.0982   -0.3359 C   0  0  0  0  0  0  0  0  0  0  0  0
    2.9153   -1.9474   -0.0233 C   0  0  0  0  0  0  0  0  0  0  0  0
   -0.4217   -0.1620    0.5191 C   0  0  0  0  0  0  0  0  0  0  0  0
   -1.8500   -0.6040    0.2412 C   0  0  0  0  0  0  0  0  0  0  0  0
    0.1817    0.3930    1.7218 C   0  0  0  0  0  0  0  0  0  0  0  0
   -0.6672    1.3371    0.9940 C   0  0  0  0  0  0  0  0  0  0  0  0
    0.4716    2.0787   -3.8068 H   0  0  0  0  0  0  0  0  0  0  0  0
   -0.0676   -1.3698   -1.2880 H   0  0  0  0  0  0  0  0  0  0  0  0
    3.6665   -2.4442    0.1637 H   0  0  0  0  0  0  0  0  0  0  0  0
   -2.5648   -0.1948    1.0132 H   0  0  0  0  0  0  0  0  0  0  0  0
   -2.1454   -0.2082   -0.7311 H   0  0  0  0  0  0  0  0  0  0  0  0
   -1.9954   -1.7177    0.3648 H   0  0  0  0  0  0  0  0  0  0  0  0
    1.3141    0.7327    1.6668 H   0  0  0  0  0  0  0  0  0  0  0  0
   -0.0708    0.1409    2.7827 H   0  0  0  0  0  0  0  0  0  0  0  0
   -0.3943    2.0908    0.2504 H   0  0  0  0  0  0  0  0  0  0  0  0
   -1.6200    1.5557    1.5109 H   0  0  0  0  0  0  0  0  0  0  0  0
  1  2  3  0
  2  3  1  0
  3  4  1  0
  4  5  3  0
  3  6  1  0
  6  7  1  0
  6  8  1  0
  8  9  1  0
  9  6  1  0
  1 10  1  0
  3 11  1  0
  5 12  1  0
  7 13  1  0
  7 14  1  0
  7 15  1  0
  8 16  1  0
  8 17  1  0
  9 18  1  0
  9 19  1  0
M  END
