
     RDKit          3D

 19 20  0  0  0  0  0  0  0  0999 V2000
    0.4108    2.4575   -0.7020 C   0  0  0  0  0  0  0  0  0  0  0  0
    0.3662    1.5959    0.1318 C   0  0  0  0  0  0  0  0  0  0  0  0
    0.2899    0.5799    1.1267 C   0  0  0  0  0  0  0  0  0  0  0  0
    0.3792   -0.8789    0.6410 C   0  0  0  0  0  0  0  0  0  0  0  0
    1.4093   -1.1150   -0.4136 C   0  0  0  0  0  0  0  0  0  0  0  0
    1.1888   -0.3721   -1.5518 O   0  0  0  0  0  0  0  0  0  0  0  0
   -0.9807   -0.5383    0.0786 C   0  0  0  0  0  0  0  0  0  0  0  0
   -2.2051   -0.2408    0.7676 C   0  0  0  0  0  0  0  0  0  0  0  0
   -1.0643    0.0673    1.5410 C   0  0  0  0  0  0  0  0  0  0  0  0
    0.4436    3.2364   -1.4320 H   0  0  0  0  0  0  0  0  0  0  0  0
    0.9547    0.8088    1.9778 H   0  0  0  0  0  0  0  0  0  0  0  0
    0.4141   -1.5331    1.5062 H   0  0  0  0  0  0  0  0  0  0  0  0
    2.4331   -0.9744   -0.0108 H   0  0  0  0  0  0  0  0  0  0  0  0
    1.3410   -2.1857   -0.7011 H   0  0  0  0  0  0  0  0  0  0  0  0
    2.0276    0.0957   -1.7828 H   0  0  0  0  0  0  0  0  0  0  0  0
   -0.7954    0.2189   -0.7440 H   0  0  0  0  0  0  0  0  0  0  0  0
   -2.8834    0.6253    0.4972 H   0  0  0  0  0  0  0  0  0  0  0  0
   -2.8644   -1.1367    0.9783 H   0  0  0  0  0  0  0  0  0  0  0  0
   -0.8648   -0.7107    2.3529 H   0  0  0  0  0  0  0  0  0  0  0  0
  1  2  3  0
  2  3  1  0
  3  4  1  0
  4  5  1  0
  5  6  1  0
  4  7  1  0
  7  8  1  0
  8  9  1  0
  9  3  1  0
  9  7  1  0
  1 10  1  0
  3 11  1  0
  4 12  1  0
  5 13  1  0
  5 14  1  0
  6 15  1  0
  7 16  1  0
  8 17  1  0
  8 18  1  0
  9 19  1  0
M  END
