
     RDKit          3D

 16 16  0  0  0  0  0  0  0  0999 V2000
   -2.3006   -1.5432    1.1861 C   0  0  0  0  0  0  0  0  0  0  0  0
   -1.4266   -0.8532    0.7089 C   0  0  0  0  0  0  0  0  0  0  0  0
   -0.3601   -0.0042    0.1382 C   0  0  0  0  0  0  0  0  0  0  0  0
   -0.5640    1.4518    0.5297 C   0  0  0  0  0  0  0  0  0  0  0  0
    0.9480   -0.5206    0.5917 C   0  0  0  0  0  0  0  0  0  0  0  0
    1.7587   -0.4991   -0.4570 C   0  0  0  0  0  0  0  0  0  0  0  0
    0.9578    0.0335   -1.5775 C   0  0  0  0  0  0  0  0  0  0  0  0
   -0.3580   -0.2116   -1.2135 O   0  0  0  0  0  0  0  0  0  0  0  0
   -3.0759   -2.1385    1.5910 H   0  0  0  0  0  0  0  0  0  0  0  0
   -0.3061    2.0615   -0.3621 H   0  0  0  0  0  0  0  0  0  0  0  0
    0.0339    1.7031    1.4198 H   0  0  0  0  0  0  0  0  0  0  0  0
   -1.6522    1.5789    0.6933 H   0  0  0  0  0  0  0  0  0  0  0  0
    1.2368   -0.8604    1.5714 H   0  0  0  0  0  0  0  0  0  0  0  0
    2.7962   -0.7996   -0.5214 H   0  0  0  0  0  0  0  0  0  0  0  0
    1.1618    1.1125   -1.7725 H   0  0  0  0  0  0  0  0  0  0  0  0
    1.1503   -0.5110   -2.5261 H   0  0  0  0  0  0  0  0  0  0  0  0
  1  2  3  0
  2  3  1  0
  3  4  1  0
  3  5  1  0
  5  6  2  0
  6  7  1  0
  7  8  1  0
  8  3  1  0
  1  9  1  0
  4 10  1  0
  4 11  1  0
  4 12  1  0
  5 13  1  0
  6 14  1  0
  7 15  1  0
  7 16  1  0
M  END
