
     RDKit          3D

 14 14  0  0  0  0  0  0  0  0999 V2000
   -2.7508    1.2706    0.0520 C   0  0  0  0  0  0  0  0  0  0  0  0
   -1.8362    0.5358   -0.2762 C   0  0  0  0  0  0  0  0  0  0  0  0
   -0.7252   -0.3416   -0.6650 C   0  0  0  0  0  0  0  0  0  0  0  0
    0.3515    0.2446   -1.3372 O   0  0  0  0  0  0  0  0  0  0  0  0
    0.4884   -0.2817    0.0395 C   0  0  0  0  0  0  0  0  0  0  0  0
    1.3968   -1.4991    0.0787 C   0  0  0  0  0  0  0  0  0  0  0  0
    0.7320    0.7970    0.9941 C   0  0  0  0  0  0  0  0  0  0  0  0
    0.9527    1.6886    1.7767 C   0  0  0  0  0  0  0  0  0  0  0  0
   -3.5479    1.9023    0.3483 H   0  0  0  0  0  0  0  0  0  0  0  0
   -1.0469   -1.2980   -1.1722 H   0  0  0  0  0  0  0  0  0  0  0  0
    2.3907   -1.2675    0.5096 H   0  0  0  0  0  0  0  0  0  0  0  0
    0.8802   -2.3104    0.6406 H   0  0  0  0  0  0  0  0  0  0  0  0
    1.5758   -1.9169   -0.9410 H   0  0  0  0  0  0  0  0  0  0  0  0
    1.1388    2.4763    2.4883 H   0  0  0  0  0  0  0  0  0  0  0  0
  1  2  3  0
  2  3  1  0
  3  4  1  0
  4  5  1  0
  5  6  1  0
  5  7  1  0
  7  8  3  0
  5  3  1  0
  1  9  1  0
  3 10  1  0
  6 11  1  0
  6 12  1  0
  6 13  1  0
  8 14  1  0
M  END
