
     RDKit          3D

 19 19  0  0  0  0  0  0  0  0999 V2000
    2.8901    1.3422    1.2500 C   0  0  0  0  0  0  0  0  0  0  0  0
    1.8651    0.7725    0.9590 C   0  0  0  0  0  0  0  0  0  0  0  0
    0.6177    0.0998    0.5912 C   0  0  0  0  0  0  0  0  0  0  0  0
    0.3667   -0.9348    1.4861 O   0  0  0  0  0  0  0  0  0  0  0  0
   -0.5143    1.0693    0.5326 C   0  0  0  0  0  0  0  0  0  0  0  0
   -1.6839    0.7400   -0.0054 C   0  0  0  0  0  0  0  0  0  0  0  0
   -1.7437   -0.6736   -0.5333 C   0  0  0  0  0  0  0  0  0  0  0  0
   -0.5181   -0.9728   -1.3321 C   0  0  0  0  0  0  0  0  0  0  0  0
    0.7599   -0.4218   -0.8133 C   0  0  0  0  0  0  0  0  0  0  0  0
    3.7999    1.8424    1.5254 H   0  0  0  0  0  0  0  0  0  0  0  0
   -0.1215   -0.6177    2.2952 H   0  0  0  0  0  0  0  0  0  0  0  0
   -0.3455    2.0475    0.9442 H   0  0  0  0  0  0  0  0  0  0  0  0
   -2.5272    1.4173   -0.0655 H   0  0  0  0  0  0  0  0  0  0  0  0
   -1.7633   -1.3602    0.3639 H   0  0  0  0  0  0  0  0  0  0  0  0
   -2.6647   -0.8253   -1.0926 H   0  0  0  0  0  0  0  0  0  0  0  0
   -0.4114   -2.0887   -1.4546 H   0  0  0  0  0  0  0  0  0  0  0  0
   -0.7043   -0.5935   -2.3811 H   0  0  0  0  0  0  0  0  0  0  0  0
    1.1668    0.3803   -1.4671 H   0  0  0  0  0  0  0  0  0  0  0  0
    1.5316   -1.2230   -0.8025 H   0  0  0  0  0  0  0  0  0  0  0  0
  1  2  3  0
  2  3  1  0
  3  4  1  0
  3  5  1  0
  5  6  2  0
  6  7  1  0
  7  8  1  0
  8  9  1  0
  9  3  1  0
  1 10  1  0
  4 11  1  0
  5 12  1  0
  6 13  1  0
  7 14  1  0
  7 15  1  0
  8 16  1  0
  8 17  1  0
  9 18  1  0
  9 19  1  0
M  END
