
     RDKit          3D

 18 17  0  0  0  0  0  0  0  0999 V2000
   -2.9883    0.4087    0.2199 C   0  0  0  0  0  0  0  0  0  0  0  0
   -2.1892   -0.2166   -0.4195 C   0  0  0  0  0  0  0  0  0  0  0  0
   -1.2018   -0.9817   -1.1785 C   0  0  0  0  0  0  0  0  0  0  0  0
   -1.6272   -2.2254   -1.5659 O   0  0  0  0  0  0  0  0  0  0  0  0
    0.1136   -1.0499   -0.3930 C   0  0  0  0  0  0  0  0  0  0  0  0
    0.4184    0.2568   -0.0661 O   0  0  0  0  0  0  0  0  0  0  0  0
    1.5747    0.4326    0.6491 C   0  0  0  0  0  0  0  0  0  0  0  0
    1.7086    1.9367    0.8986 C   0  0  0  0  0  0  0  0  0  0  0  0
   -3.7175    0.9578    0.8049 H   0  0  0  0  0  0  0  0  0  0  0  0
   -1.0403   -0.3915   -2.1286 H   0  0  0  0  0  0  0  0  0  0  0  0
   -0.9099   -2.8570   -1.7235 H   0  0  0  0  0  0  0  0  0  0  0  0
    0.8917   -1.5651   -0.9652 H   0  0  0  0  0  0  0  0  0  0  0  0
   -0.1076   -1.5805    0.5529 H   0  0  0  0  0  0  0  0  0  0  0  0
    2.4553    0.1489    0.0105 H   0  0  0  0  0  0  0  0  0  0  0  0
    1.5582   -0.1454    1.5694 H   0  0  0  0  0  0  0  0  0  0  0  0
    2.7434    2.2716    0.9619 H   0  0  0  0  0  0  0  0  0  0  0  0
    1.1385    2.1098    1.8510 H   0  0  0  0  0  0  0  0  0  0  0  0
    1.1791    2.4901    0.1007 H   0  0  0  0  0  0  0  0  0  0  0  0
  1  2  3  0
  2  3  1  0
  3  4  1  0
  3  5  1  0
  5  6  1  0
  6  7  1  0
  7  8  1  0
  1  9  1  0
  3 10  1  0
  4 11  1  0
  5 12  1  0
  5 13  1  0
  7 14  1  0
  7 15  1  0
  8 16  1  0
  8 17  1  0
  8 18  1  0
M  END
