
     RDKit          3D

 19 20  0  0  0  0  0  0  0  0999 V2000
    3.1186    1.7040   -0.4535 C   0  0  0  0  0  0  0  0  0  0  0  0
    2.1391    1.0038   -0.4417 C   0  0  0  0  0  0  0  0  0  0  0  0
    0.9531    0.1463   -0.4448 C   0  0  0  0  0  0  0  0  0  0  0  0
    1.2406   -1.3493   -0.5806 C   0  0  0  0  0  0  0  0  0  0  0  0
    0.7485   -0.7266    0.7013 C   0  0  0  0  0  0  0  0  0  0  0  0
   -0.7613   -0.7921    0.8518 C   0  0  0  0  0  0  0  0  0  0  0  0
   -1.2733   -0.0368   -0.3277 C   0  0  0  0  0  0  0  0  0  0  0  0
   -2.3607    0.9101    0.1310 C   0  0  0  0  0  0  0  0  0  0  0  0
   -0.2408    0.6380   -0.9112 O   0  0  0  0  0  0  0  0  0  0  0  0
    3.9921    2.3107   -0.4528 H   0  0  0  0  0  0  0  0  0  0  0  0
    0.5263   -1.8467   -1.2666 H   0  0  0  0  0  0  0  0  0  0  0  0
    2.3024   -1.6622   -0.5571 H   0  0  0  0  0  0  0  0  0  0  0  0
    1.3748   -0.7374    1.5978 H   0  0  0  0  0  0  0  0  0  0  0  0
   -1.0517   -1.8698    0.7216 H   0  0  0  0  0  0  0  0  0  0  0  0
   -1.0999   -0.3768    1.8151 H   0  0  0  0  0  0  0  0  0  0  0  0
   -1.7116   -0.7215   -1.1034 H   0  0  0  0  0  0  0  0  0  0  0  0
   -2.3448    1.8652   -0.4415 H   0  0  0  0  0  0  0  0  0  0  0  0
   -2.1998    1.1243    1.1900 H   0  0  0  0  0  0  0  0  0  0  0  0
   -3.3516    0.4170   -0.0277 H   0  0  0  0  0  0  0  0  0  0  0  0
  1  2  3  0
  2  3  1  0
  3  4  1  0
  4  5  1  0
  5  6  1  0
  6  7  1  0
  7  8  1  0
  7  9  1  0
  5  3  1  0
  9  3  1  0
  1 10  1  0
  4 11  1  0
  4 12  1  0
  5 13  1  0
  6 14  1  0
  6 15  1  0
  7 16  1  0
  8 17  1  0
  8 18  1  0
  8 19  1  0
M  END
