
     RDKit          3D

 21 21  0  0  0  0  0  0  0  0999 V2000
    4.0413    0.6481    0.3141 C   0  0  0  0  0  0  0  0  0  0  0  0
    2.8228    0.5568    0.4067 C   0  0  0  0  0  0  0  0  0  0  0  0
    1.3957    0.4386    0.5016 C   0  0  0  0  0  0  0  0  0  0  0  0
    0.5362    0.5014   -0.5002 C   0  0  0  0  0  0  0  0  0  0  0  0
   -0.8549    0.3414   -0.0539 C   0  0  0  0  0  0  0  0  0  0  0  0
   -1.5824   -0.7419   -0.8170 C   0  0  0  0  0  0  0  0  0  0  0  0
   -1.6380   -0.4610   -2.2966 C   0  0  0  0  0  0  0  0  0  0  0  0
   -0.7682   -0.0779    1.3748 C   0  0  0  0  0  0  0  0  0  0  0  0
    0.6484    0.2223    1.7673 C   0  0  0  0  0  0  0  0  0  0  0  0
    5.0929    0.7436    0.2261 H   0  0  0  0  0  0  0  0  0  0  0  0
    0.8554    0.6561   -1.5359 H   0  0  0  0  0  0  0  0  0  0  0  0
   -1.4349    1.2848   -0.1004 H   0  0  0  0  0  0  0  0  0  0  0  0
   -2.6330   -0.7370   -0.4459 H   0  0  0  0  0  0  0  0  0  0  0  0
   -1.0641   -1.6922   -0.6467 H   0  0  0  0  0  0  0  0  0  0  0  0
   -0.5643   -0.3654   -2.6332 H   0  0  0  0  0  0  0  0  0  0  0  0
   -2.0190   -1.3759   -2.7985 H   0  0  0  0  0  0  0  0  0  0  0  0
   -2.2193    0.4392   -2.5411 H   0  0  0  0  0  0  0  0  0  0  0  0
   -1.5030    0.4400    2.0393 H   0  0  0  0  0  0  0  0  0  0  0  0
   -0.9691   -1.1714    1.5118 H   0  0  0  0  0  0  0  0  0  0  0  0
    1.1156   -0.6896    2.2401 H   0  0  0  0  0  0  0  0  0  0  0  0
    0.7418    1.0401    2.4824 H   0  0  0  0  0  0  0  0  0  0  0  0
  1  2  3  0
  2  3  1  0
  3  4  2  0
  4  5  1  0
  5  6  1  0
  6  7  1  0
  5  8  1  0
  8  9  1  0
  9  3  1  0
  1 10  1  0
  4 11  1  0
  5 12  1  0
  6 13  1  0
  6 14  1  0
  7 15  1  0
  7 16  1  0
  7 17  1  0
  8 18  1  0
  8 19  1  0
  9 20  1  0
  9 21  1  0
M  END
