
     RDKit          3D

 17 18  0  0  0  0  0  0  0  0999 V2000
    3.3089    0.2549   -0.3017 C   0  0  0  0  0  0  0  0  0  0  0  0
    2.2423   -0.2785   -0.4900 C   0  0  0  0  0  0  0  0  0  0  0  0
    0.9065   -0.9172   -0.7234 C   0  0  0  0  0  0  0  0  0  0  0  0
   -0.1353    0.1193   -0.7327 C   0  0  0  0  0  0  0  0  0  0  0  0
   -1.4696   -0.2017   -0.9397 O   0  0  0  0  0  0  0  0  0  0  0  0
   -1.4898   -0.5836    0.3614 C   0  0  0  0  0  0  0  0  0  0  0  0
   -1.3922    0.1185    1.6099 C   0  0  0  0  0  0  0  0  0  0  0  0
   -0.6386    0.7013    0.5367 C   0  0  0  0  0  0  0  0  0  0  0  0
   -1.2866    1.9339    0.1965 O   0  0  0  0  0  0  0  0  0  0  0  0
    4.2412    0.7217   -0.1191 H   0  0  0  0  0  0  0  0  0  0  0  0
    0.8634   -1.6869    0.0677 H   0  0  0  0  0  0  0  0  0  0  0  0
    1.0194   -1.3871   -1.7382 H   0  0  0  0  0  0  0  0  0  0  0  0
    0.1713    0.9001   -1.4888 H   0  0  0  0  0  0  0  0  0  0  0  0
   -1.0212   -1.5821    0.4365 H   0  0  0  0  0  0  0  0  0  0  0  0
   -0.7600   -0.2650    2.4673 H   0  0  0  0  0  0  0  0  0  0  0  0
   -2.3616    0.4828    2.0380 H   0  0  0  0  0  0  0  0  0  0  0  0
   -2.1982    1.6697   -0.0713 H   0  0  0  0  0  0  0  0  0  0  0  0
  1  2  3  0
  2  3  1  0
  3  4  1  0
  4  5  1  0
  5  6  1  0
  6  7  1  0
  7  8  1  0
  8  9  1  0
  8  4  1  0
  8  6  1  0
  1 10  1  0
  3 11  1  0
  3 12  1  0
  4 13  1  0
  6 14  1  0
  7 15  1  0
  7 16  1  0
  9 17  1  0
M  END
