
     RDKit          3D

 17 18  0  0  0  0  0  0  0  0999 V2000
   -1.8648    2.3825    0.2921 C   0  0  0  0  0  0  0  0  0  0  0  0
   -1.1688    1.3993    0.2229 C   0  0  0  0  0  0  0  0  0  0  0  0
   -0.2934    0.2004    0.1235 C   0  0  0  0  0  0  0  0  0  0  0  0
   -1.1012   -1.0576    0.4861 C   0  0  0  0  0  0  0  0  0  0  0  0
   -2.1503   -1.1252   -0.4324 O   0  0  0  0  0  0  0  0  0  0  0  0
    0.6681    0.0276   -0.9320 C   0  0  0  0  0  0  0  0  0  0  0  0
    2.1498   -0.3358   -0.7314 C   0  0  0  0  0  0  0  0  0  0  0  0
    2.1401    0.9270   -0.0736 O   0  0  0  0  0  0  0  0  0  0  0  0
    1.0450    0.3453    0.5712 C   0  0  0  0  0  0  0  0  0  0  0  0
   -2.4822    3.2427    0.3611 H   0  0  0  0  0  0  0  0  0  0  0  0
   -0.4287   -1.9145    0.3688 H   0  0  0  0  0  0  0  0  0  0  0  0
   -1.4689   -0.9262    1.5228 H   0  0  0  0  0  0  0  0  0  0  0  0
   -2.2157   -2.0057   -0.8533 H   0  0  0  0  0  0  0  0  0  0  0  0
    0.6808    0.9377   -1.6133 H   0  0  0  0  0  0  0  0  0  0  0  0
    2.7093   -0.3477   -1.6722 H   0  0  0  0  0  0  0  0  0  0  0  0
    2.3395   -1.1983   -0.1007 H   0  0  0  0  0  0  0  0  0  0  0  0
    1.4415   -0.5513    1.1436 H   0  0  0  0  0  0  0  0  0  0  0  0
  1  2  3  0
  2  3  1  0
  3  4  1  0
  4  5  1  0
  3  6  1  0
  6  7  1  0
  7  8  1  0
  8  9  1  0
  9  3  1  0
  9  6  1  0
  1 10  1  0
  4 11  1  0
  4 12  1  0
  5 13  1  0
  6 14  1  0
  7 15  1  0
  7 16  1  0
  9 17  1  0
M  END
