
     RDKit          3D

 15 16  0  0  0  0  0  0  0  0999 V2000
    2.1181    1.6421   -0.5687 C   0  0  0  0  0  0  0  0  0  0  0  0
    1.3215    0.8959   -0.0294 C   0  0  0  0  0  0  0  0  0  0  0  0
    0.3557   -0.0383    0.6181 C   0  0  0  0  0  0  0  0  0  0  0  0
   -0.6071    0.6829    1.2555 O   0  0  0  0  0  0  0  0  0  0  0  0
   -1.3266    1.2199    0.1586 C   0  0  0  0  0  0  0  0  0  0  0  0
   -0.9010    0.4882   -0.9811 O   0  0  0  0  0  0  0  0  0  0  0  0
   -0.6790   -0.7211   -0.3720 C   0  0  0  0  0  0  0  0  0  0  0  0
    0.4325   -1.3708    0.1809 C   0  0  0  0  0  0  0  0  0  0  0  0
    0.2572   -2.3797    1.1565 O   0  0  0  0  0  0  0  0  0  0  0  0
    2.8138    2.2919   -1.0291 H   0  0  0  0  0  0  0  0  0  0  0  0
   -2.3965    0.9684    0.3565 H   0  0  0  0  0  0  0  0  0  0  0  0
   -1.1669    2.2908    0.0440 H   0  0  0  0  0  0  0  0  0  0  0  0
   -1.6708   -1.0182    0.0982 H   0  0  0  0  0  0  0  0  0  0  0  0
    1.2674   -1.6851   -0.5051 H   0  0  0  0  0  0  0  0  0  0  0  0
    0.1817   -3.2671    0.7161 H   0  0  0  0  0  0  0  0  0  0  0  0
  1  2  3  0
  2  3  1  0
  3  4  1  0
  4  5  1  0
  5  6  1  0
  6  7  1  0
  7  8  1  0
  8  9  1  0
  7  3  1  0
  8  3  1  0
  1 10  1  0
  5 11  1  0
  5 12  1  0
  7 13  1  0
  8 14  1  0
  9 15  1  0
M  END
