
     RDKit          3D

 21 21  0  0  0  0  0  0  0  0999 V2000
    1.4837    0.4035    4.0937 C   0  0  0  0  0  0  0  0  0  0  0  0
    1.3200    0.3320    2.8792 C   0  0  0  0  0  0  0  0  0  0  0  0
    1.1239    0.2598    1.4244 C   0  0  0  0  0  0  0  0  0  0  0  0
   -0.3063   -0.0430    1.1729 C   0  0  0  0  0  0  0  0  0  0  0  0
   -0.7135   -0.1567   -0.2407 C   0  0  0  0  0  0  0  0  0  0  0  0
   -0.0518   -1.1969   -1.0592 C   0  0  0  0  0  0  0  0  0  0  0  0
   -0.2340   -0.6291   -2.4559 C   0  0  0  0  0  0  0  0  0  0  0  0
   -1.0005    0.6664   -2.1849 C   0  0  0  0  0  0  0  0  0  0  0  0
   -0.4153    1.0179   -0.9457 O   0  0  0  0  0  0  0  0  0  0  0  0
    1.6406    0.4579    5.1293 H   0  0  0  0  0  0  0  0  0  0  0  0
    1.7426   -0.5949    1.0575 H   0  0  0  0  0  0  0  0  0  0  0  0
    1.4342    1.1992    0.9291 H   0  0  0  0  0  0  0  0  0  0  0  0
   -0.6213   -0.9511    1.7278 H   0  0  0  0  0  0  0  0  0  0  0  0
   -0.9095    0.7971    1.6251 H   0  0  0  0  0  0  0  0  0  0  0  0
   -1.8137   -0.3116   -0.2960 H   0  0  0  0  0  0  0  0  0  0  0  0
   -0.5969   -2.1770   -1.0416 H   0  0  0  0  0  0  0  0  0  0  0  0
    1.0240   -1.3265   -0.8730 H   0  0  0  0  0  0  0  0  0  0  0  0
    0.7173   -0.4449   -2.9704 H   0  0  0  0  0  0  0  0  0  0  0  0
   -0.9048   -1.2523   -3.0780 H   0  0  0  0  0  0  0  0  0  0  0  0
   -0.8661    1.4197   -2.9476 H   0  0  0  0  0  0  0  0  0  0  0  0
   -2.0527    0.4116   -1.9460 H   0  0  0  0  0  0  0  0  0  0  0  0
  1  2  3  0
  2  3  1  0
  3  4  1  0
  4  5  1  0
  5  6  1  0
  6  7  1  0
  7  8  1  0
  8  9  1  0
  9  5  1  0
  1 10  1  0
  3 11  1  0
  3 12  1  0
  4 13  1  0
  4 14  1  0
  5 15  1  0
  6 16  1  0
  6 17  1  0
  7 18  1  0
  7 19  1  0
  8 20  1  0
  8 21  1  0
M  END
