
     RDKit          3D

 19 19  0  0  0  0  0  0  0  0999 V2000
   -0.7365    2.3486    1.6138 C   0  0  0  0  0  0  0  0  0  0  0  0
   -0.3195    1.4685    0.8938 C   0  0  0  0  0  0  0  0  0  0  0  0
    0.1720    0.4072    0.0112 C   0  0  0  0  0  0  0  0  0  0  0  0
    1.0153   -0.5840    0.7840 C   0  0  0  0  0  0  0  0  0  0  0  0
    2.1941    0.0518    1.4095 C   0  0  0  0  0  0  0  0  0  0  0  0
    2.9453   -0.6462    2.0554 O   0  0  0  0  0  0  0  0  0  0  0  0
   -1.0179   -0.3305   -0.5483 C   0  0  0  0  0  0  0  0  0  0  0  0
   -0.8271   -1.4676   -1.4823 C   0  0  0  0  0  0  0  0  0  0  0  0
   -1.2436   -0.0863   -2.0383 C   0  0  0  0  0  0  0  0  0  0  0  0
   -1.0958    3.1151    2.2623 H   0  0  0  0  0  0  0  0  0  0  0  0
    0.7688    0.9032   -0.7736 H   0  0  0  0  0  0  0  0  0  0  0  0
    0.4135   -1.0593    1.5767 H   0  0  0  0  0  0  0  0  0  0  0  0
    1.4002   -1.3296    0.0561 H   0  0  0  0  0  0  0  0  0  0  0  0
    2.3819    1.1016    1.2964 H   0  0  0  0  0  0  0  0  0  0  0  0
   -1.9107   -0.3151    0.1084 H   0  0  0  0  0  0  0  0  0  0  0  0
   -1.5981   -2.2623   -1.5233 H   0  0  0  0  0  0  0  0  0  0  0  0
    0.2200   -1.7776   -1.6444 H   0  0  0  0  0  0  0  0  0  0  0  0
   -2.3029    0.0290   -2.3266 H   0  0  0  0  0  0  0  0  0  0  0  0
   -0.4590    0.4334   -2.6103 H   0  0  0  0  0  0  0  0  0  0  0  0
  1  2  3  0
  2  3  1  0
  3  4  1  0
  4  5  1  0
  5  6  2  0
  3  7  1  0
  7  8  1  0
  8  9  1  0
  9  7  1  0
  1 10  1  0
  3 11  1  0
  4 12  1  0
  4 13  1  0
  5 14  1  0
  7 15  1  0
  8 16  1  0
  8 17  1  0
  9 18  1  0
  9 19  1  0
M  END
