
     RDKit          3D

 17 17  0  0  0  0  0  0  0  0999 V2000
    1.4761    2.0422   -0.1491 C   0  0  0  0  0  0  0  0  0  0  0  0
    1.4151    0.8426   -0.0679 C   0  0  0  0  0  0  0  0  0  0  0  0
    1.3432   -0.5952    0.0056 C   0  0  0  0  0  0  0  0  0  0  0  0
    1.4633   -0.9812    1.3647 O   0  0  0  0  0  0  0  0  0  0  0  0
    0.0906   -0.6300    1.4478 C   0  0  0  0  0  0  0  0  0  0  0  0
   -0.0356   -1.2087    0.0744 C   0  0  0  0  0  0  0  0  0  0  0  0
   -1.0585   -0.7233   -0.8268 C   0  0  0  0  0  0  0  0  0  0  0  0
   -1.4793    0.6886   -0.8104 C   0  0  0  0  0  0  0  0  0  0  0  0
   -1.5788   -1.4884   -1.6084 O   0  0  0  0  0  0  0  0  0  0  0  0
    1.5395    3.1081   -0.2144 H   0  0  0  0  0  0  0  0  0  0  0  0
    2.0386   -1.1450   -0.6470 H   0  0  0  0  0  0  0  0  0  0  0  0
   -0.4462   -1.2522    2.1815 H   0  0  0  0  0  0  0  0  0  0  0  0
    0.0257    0.4493    1.5581 H   0  0  0  0  0  0  0  0  0  0  0  0
    0.0731   -2.3125    0.0957 H   0  0  0  0  0  0  0  0  0  0  0  0
   -1.3417    1.0905    0.2085 H   0  0  0  0  0  0  0  0  0  0  0  0
   -0.9486    1.3154   -1.5519 H   0  0  0  0  0  0  0  0  0  0  0  0
   -2.5764    0.8000   -1.0606 H   0  0  0  0  0  0  0  0  0  0  0  0
  1  2  3  0
  2  3  1  0
  3  4  1  0
  4  5  1  0
  5  6  1  0
  6  7  1  0
  7  8  1  0
  7  9  2  0
  6  3  1  0
  1 10  1  0
  3 11  1  0
  5 12  1  0
  5 13  1  0
  6 14  1  0
  8 15  1  0
  8 16  1  0
  8 17  1  0
M  END
