
     RDKit          3D

 19 20  0  0  0  0  0  0  0  0999 V2000
    3.8822    0.0007   -0.4341 C   0  0  0  0  0  0  0  0  0  0  0  0
    2.6940   -0.2051   -0.4064 C   0  0  0  0  0  0  0  0  0  0  0  0
    1.2749   -0.4471   -0.3489 C   0  0  0  0  0  0  0  0  0  0  0  0
    0.6246   -1.5250    0.0558 C   0  0  0  0  0  0  0  0  0  0  0  0
   -0.8420   -1.3230   -0.0616 C   0  0  0  0  0  0  0  0  0  0  0  0
   -0.9409    0.1785   -0.0666 C   0  0  0  0  0  0  0  0  0  0  0  0
   -1.3110    0.9316    1.1441 C   0  0  0  0  0  0  0  0  0  0  0  0
   -2.1967    0.9045   -0.0585 C   0  0  0  0  0  0  0  0  0  0  0  0
    0.2895    0.5974   -0.7837 C   0  0  0  0  0  0  0  0  0  0  0  0
    4.9460    0.1704   -0.4708 H   0  0  0  0  0  0  0  0  0  0  0  0
    1.1036   -2.4164    0.4170 H   0  0  0  0  0  0  0  0  0  0  0  0
   -1.4195   -1.7662    0.7458 H   0  0  0  0  0  0  0  0  0  0  0  0
   -1.1672   -1.6640   -1.0809 H   0  0  0  0  0  0  0  0  0  0  0  0
   -0.8112    1.9249    1.3094 H   0  0  0  0  0  0  0  0  0  0  0  0
   -1.5985    0.4340    2.0718 H   0  0  0  0  0  0  0  0  0  0  0  0
   -2.2726    1.8024   -0.7054 H   0  0  0  0  0  0  0  0  0  0  0  0
   -3.1346    0.3119    0.0739 H   0  0  0  0  0  0  0  0  0  0  0  0
    0.6549    1.5955   -0.4702 H   0  0  0  0  0  0  0  0  0  0  0  0
    0.2246    0.4949   -1.8932 H   0  0  0  0  0  0  0  0  0  0  0  0
  1  2  3  0
  2  3  1  0
  3  4  2  0
  4  5  1  0
  5  6  1  0
  6  7  1  0
  7  8  1  0
  6  9  1  0
  9  3  1  0
  8  6  1  0
  1 10  1  0
  4 11  1  0
  5 12  1  0
  5 13  1  0
  7 14  1  0
  7 15  1  0
  8 16  1  0
  8 17  1  0
  9 18  1  0
  9 19  1  0
M  END
