
     RDKit          3D

 19 20  0  0  0  0  0  0  0  0999 V2000
    2.7175   -0.8086    1.9596 C   0  0  0  0  0  0  0  0  0  0  0  0
    1.9808   -0.0308    1.4696 C   0  0  0  0  0  0  0  0  0  0  0  0
    1.0694    0.9309    0.8822 C   0  0  0  0  0  0  0  0  0  0  0  0
    1.0664    0.9843   -0.6346 C   0  0  0  0  0  0  0  0  0  0  0  0
   -0.0729    0.0157   -0.5936 C   0  0  0  0  0  0  0  0  0  0  0  0
   -0.3823    0.5083    0.7972 C   0  0  0  0  0  0  0  0  0  0  0  0
    0.0570   -1.3146   -0.8585 O   0  0  0  0  0  0  0  0  0  0  0  0
   -0.9141   -0.4644   -1.5533 C   0  0  0  0  0  0  0  0  0  0  0  0
   -2.3642   -0.8340   -1.2166 C   0  0  0  0  0  0  0  0  0  0  0  0
    3.3808   -1.5359    2.4099 H   0  0  0  0  0  0  0  0  0  0  0  0
    1.1619    1.9688    1.2649 H   0  0  0  0  0  0  0  0  0  0  0  0
    0.7906    1.9796   -1.0501 H   0  0  0  0  0  0  0  0  0  0  0  0
    1.9963    0.5744   -1.0874 H   0  0  0  0  0  0  0  0  0  0  0  0
   -0.5417   -0.3223    1.5422 H   0  0  0  0  0  0  0  0  0  0  0  0
   -1.1136    1.3159    0.8167 H   0  0  0  0  0  0  0  0  0  0  0  0
   -0.7430   -0.3863   -2.6369 H   0  0  0  0  0  0  0  0  0  0  0  0
   -2.9752   -0.0005   -1.6374 H   0  0  0  0  0  0  0  0  0  0  0  0
   -2.6485   -1.8134   -1.6156 H   0  0  0  0  0  0  0  0  0  0  0  0
   -2.4653   -0.7670   -0.1206 H   0  0  0  0  0  0  0  0  0  0  0  0
  1  2  3  0
  2  3  1  0
  3  4  1  0
  4  5  1  0
  5  6  1  0
  5  7  1  0
  7  8  1  0
  8  9  1  0
  6  3  1  0
  8  5  1  0
  1 10  1  0
  3 11  1  0
  4 12  1  0
  4 13  1  0
  6 14  1  0
  6 15  1  0
  8 16  1  0
  9 17  1  0
  9 18  1  0
  9 19  1  0
M  END
