
     RDKit          3D

 17 18  0  0  0  0  0  0  0  0999 V2000
    2.6233   -2.4005    1.0741 C   0  0  0  0  0  0  0  0  0  0  0  0
    2.0588   -1.5808    0.4776 C   0  0  0  0  0  0  0  0  0  0  0  0
    1.3427   -0.5314   -0.2548 C   0  0  0  0  0  0  0  0  0  0  0  0
    0.2376   -0.9308   -1.0060 O   0  0  0  0  0  0  0  0  0  0  0  0
   -0.0107    0.4713   -0.9649 C   0  0  0  0  0  0  0  0  0  0  0  0
   -1.3448    0.9715   -1.0701 C   0  0  0  0  0  0  0  0  0  0  0  0
   -1.8268    1.1758    0.3454 C   0  0  0  0  0  0  0  0  0  0  0  0
   -0.6726    0.8623    1.1851 C   0  0  0  0  0  0  0  0  0  0  0  0
    0.3436    0.1934    0.5793 C   0  0  0  0  0  0  0  0  0  0  0  0
    3.1949   -3.2086    1.6859 H   0  0  0  0  0  0  0  0  0  0  0  0
    2.0303    0.1543   -0.7782 H   0  0  0  0  0  0  0  0  0  0  0  0
    0.8428    1.0341   -1.3810 H   0  0  0  0  0  0  0  0  0  0  0  0
   -1.3319    1.9867   -1.5582 H   0  0  0  0  0  0  0  0  0  0  0  0
   -2.0340    0.3007   -1.6356 H   0  0  0  0  0  0  0  0  0  0  0  0
   -2.6201    0.3582    0.5307 H   0  0  0  0  0  0  0  0  0  0  0  0
   -2.2863    2.1627    0.5267 H   0  0  0  0  0  0  0  0  0  0  0  0
   -0.5466    1.1191    2.2440 H   0  0  0  0  0  0  0  0  0  0  0  0
  1  2  3  0
  2  3  1  0
  3  4  1  0
  4  5  1  0
  5  6  1  0
  6  7  1  0
  7  8  1  0
  8  9  2  0
  9  3  1  0
  9  5  1  0
  1 10  1  0
  3 11  1  0
  5 12  1  0
  6 13  1  0
  6 14  1  0
  7 15  1  0
  7 16  1  0
  8 17  1  0
M  END
