
     RDKit          3D

 19 19  0  0  0  0  0  0  0  0999 V2000
    2.2667    1.0196   -1.6380 C   0  0  0  0  0  0  0  0  0  0  0  0
    1.7501    0.4141   -0.7190 C   0  0  0  0  0  0  0  0  0  0  0  0
    1.1388   -0.3425    0.4034 C   0  0  0  0  0  0  0  0  0  0  0  0
    2.0870   -1.3506    0.7003 O   0  0  0  0  0  0  0  0  0  0  0  0
   -0.0847   -1.0632   -0.0718 C   0  0  0  0  0  0  0  0  0  0  0  0
   -0.5111   -1.9319    0.9594 O   0  0  0  0  0  0  0  0  0  0  0  0
   -1.2199   -0.1697   -0.4799 C   0  0  0  0  0  0  0  0  0  0  0  0
   -1.8073    0.7685    0.5623 C   0  0  0  0  0  0  0  0  0  0  0  0
   -1.1145    1.2628   -0.7234 C   0  0  0  0  0  0  0  0  0  0  0  0
    2.7214    1.5473   -2.4361 H   0  0  0  0  0  0  0  0  0  0  0  0
    1.0270    0.2681    1.2921 H   0  0  0  0  0  0  0  0  0  0  0  0
    2.9615   -0.9526    0.8507 H   0  0  0  0  0  0  0  0  0  0  0  0
    0.1918   -1.7001   -0.9299 H   0  0  0  0  0  0  0  0  0  0  0  0
   -1.1871   -2.5107    0.5553 H   0  0  0  0  0  0  0  0  0  0  0  0
   -2.0083   -0.7145   -1.0571 H   0  0  0  0  0  0  0  0  0  0  0  0
   -1.2627    0.9198    1.4948 H   0  0  0  0  0  0  0  0  0  0  0  0
   -2.8966    0.9168    0.5955 H   0  0  0  0  0  0  0  0  0  0  0  0
   -0.2454    1.8985   -0.5501 H   0  0  0  0  0  0  0  0  0  0  0  0
   -1.8069    1.7203   -1.4916 H   0  0  0  0  0  0  0  0  0  0  0  0
  1  2  3  0
  2  3  1  0
  3  4  1  0
  3  5  1  0
  5  6  1  0
  5  7  1  0
  7  8  1  0
  8  9  1  0
  9  7  1  0
  1 10  1  0
  3 11  1  0
  4 12  1  0
  5 13  1  0
  6 14  1  0
  7 15  1  0
  8 16  1  0
  8 17  1  0
  9 18  1  0
  9 19  1  0
M  END
