
     RDKit          3D

 17 18  0  0  0  0  0  0  0  0999 V2000
    3.0947    0.5587    0.9055 C   0  0  0  0  0  0  0  0  0  0  0  0
    1.8404    0.7253    0.5734 C   0  0  0  0  0  0  0  0  0  0  0  0
    0.4052    0.8956    0.1874 C   0  0  0  0  0  0  0  0  0  0  0  0
   -0.3712    0.7696    1.2195 O   0  0  0  0  0  0  0  0  0  0  0  0
   -0.9544   -0.4207    1.4439 C   0  0  0  0  0  0  0  0  0  0  0  0
   -1.2483   -1.3274    0.4844 O   0  0  0  0  0  0  0  0  0  0  0  0
   -0.6955   -1.1549   -0.7554 C   0  0  0  0  0  0  0  0  0  0  0  0
   -1.3021    0.0292   -1.4982 C   0  0  0  0  0  0  0  0  0  0  0  0
    0.1026    0.0234   -0.9840 C   0  0  0  0  0  0  0  0  0  0  0  0
    4.0369    0.4424    1.1701 H   0  0  0  0  0  0  0  0  0  0  0  0
    0.4538    1.9964   -0.2455 H   0  0  0  0  0  0  0  0  0  0  0  0
   -0.3880   -0.9711    2.2820 H   0  0  0  0  0  0  0  0  0  0  0  0
   -1.9559   -0.1586    1.9644 H   0  0  0  0  0  0  0  0  0  0  0  0
   -0.4979   -2.0667   -1.4017 H   0  0  0  0  0  0  0  0  0  0  0  0
   -1.3271    0.0383   -2.6093 H   0  0  0  0  0  0  0  0  0  0  0  0
   -2.1385    0.5440   -1.0015 H   0  0  0  0  0  0  0  0  0  0  0  0
    0.9453    0.0766   -1.7351 H   0  0  0  0  0  0  0  0  0  0  0  0
  1  2  3  0
  2  3  1  0
  3  4  1  0
  4  5  1  0
  5  6  1  0
  6  7  1  0
  7  8  1  0
  8  9  1  0
  9  3  1  0
  9  7  1  0
  1 10  1  0
  3 11  1  0
  5 12  1  0
  5 13  1  0
  7 14  1  0
  8 15  1  0
  8 16  1  0
  9 17  1  0
M  END
