
     RDKit          3D

 19 18  0  0  0  0  0  0  0  0999 V2000
    4.9432   -1.9103   -1.7050 C   0  0  0  0  0  0  0  0  0  0  0  0
    3.8797   -1.4824   -1.0664 C   0  0  0  0  0  0  0  0  0  0  0  0
    2.6463   -0.9684   -0.3002 C   0  0  0  0  0  0  0  0  0  0  0  0
    1.8072   -0.6186    0.2083 C   0  0  0  0  0  0  0  0  0  0  0  0
    0.7670   -0.1933    0.8132 C   0  0  0  0  0  0  0  0  0  0  0  0
   -0.2250    0.4893    1.4294 C   0  0  0  0  0  0  0  0  0  0  0  0
   -1.0603    1.4753    0.8562 O   0  0  0  0  0  0  0  0  0  0  0  0
   -1.8434    1.0622   -0.2159 C   0  0  0  0  0  0  0  0  0  0  0  0
   -3.0266    0.1896   -0.0694 C   0  0  0  0  0  0  0  0  0  0  0  0
    5.4646   -2.1186   -2.0236 H   0  0  0  0  0  0  0  0  0  0  0  0
    0.3993    0.5697   -0.4239 H   0  0  0  0  0  0  0  0  0  0  0  0
   -0.1291   -1.0357   -0.0425 H   0  0  0  0  0  0  0  0  0  0  0  0
    0.4849    1.3925    1.9960 H   0  0  0  0  0  0  0  0  0  0  0  0
   -0.8249   -0.0002    2.2261 H   0  0  0  0  0  0  0  0  0  0  0  0
   -2.1216    1.9679   -0.8703 H   0  0  0  0  0  0  0  0  0  0  0  0
   -1.2341    0.3977   -0.9454 H   0  0  0  0  0  0  0  0  0  0  0  0
   -2.7056   -0.7803    0.5142 H   0  0  0  0  0  0  0  0  0  0  0  0
   -3.8156    0.6747    0.5996 H   0  0  0  0  0  0  0  0  0  0  0  0
   -3.4059   -0.1834   -0.9804 H   0  0  0  0  0  0  0  0  0  0  0  0
  1  2  3  0
  2  3  1  0
  3  4  3  0
  4  5  1  0
  5  6  1  0
  6  7  1  0
  7  8  1  0
  8  9  1  0
  1 10  1  0
  5 11  1  0
  5 12  1  0
  6 13  1  0
  6 14  1  0
  8 15  1  0
  8 16  1  0
  9 17  1  0
  9 18  1  0
  9 19  1  0
M  END
