
     RDKit          3D

 16 17  0  0  0  0  0  0  0  0999 V2000
    2.7555    1.6699    0.3270 C   0  0  0  0  0  0  0  0  0  0  0  0
    1.9211    0.8190    0.5048 C   0  0  0  0  0  0  0  0  0  0  0  0
    0.8932   -0.1992    0.7352 C   0  0  0  0  0  0  0  0  0  0  0  0
   -0.4748    0.2160    1.0339 C   0  0  0  0  0  0  0  0  0  0  0  0
   -1.2908    1.1144    0.1828 C   0  0  0  0  0  0  0  0  0  0  0  0
   -0.6702    0.7130   -0.9880 O   0  0  0  0  0  0  0  0  0  0  0  0
   -0.1255   -0.3434   -0.3140 C   0  0  0  0  0  0  0  0  0  0  0  0
   -0.7005   -1.6983   -0.6125 C   0  0  0  0  0  0  0  0  0  0  0  0
    3.4779    2.4308    0.1627 H   0  0  0  0  0  0  0  0  0  0  0  0
    1.2568   -1.1671    1.1660 H   0  0  0  0  0  0  0  0  0  0  0  0
   -1.0401   -0.4242    1.7660 H   0  0  0  0  0  0  0  0  0  0  0  0
   -1.1874    2.1942    0.3474 H   0  0  0  0  0  0  0  0  0  0  0  0
   -2.3584    0.8356    0.1741 H   0  0  0  0  0  0  0  0  0  0  0  0
   -1.6362   -1.5876   -1.2013 H   0  0  0  0  0  0  0  0  0  0  0  0
    0.0394   -2.2531   -1.2585 H   0  0  0  0  0  0  0  0  0  0  0  0
   -0.8602   -2.3200    0.2964 H   0  0  0  0  0  0  0  0  0  0  0  0
  1  2  3  0
  2  3  1  0
  3  4  1  0
  4  5  1  0
  5  6  1  0
  6  7  1  0
  7  8  1  0
  7  3  1  0
  7  4  1  0
  1  9  1  0
  3 10  1  0
  4 11  1  0
  5 12  1  0
  5 13  1  0
  8 14  1  0
  8 15  1  0
  8 16  1  0
M  END
