
     RDKit          3D

 16 17  0  0  0  0  0  0  0  0999 V2000
    2.3020   -2.0735   -0.3213 C   0  0  0  0  0  0  0  0  0  0  0  0
    1.5372   -1.2812    0.1264 C   0  0  0  0  0  0  0  0  0  0  0  0
    0.5983   -0.2940    0.6550 C   0  0  0  0  0  0  0  0  0  0  0  0
    0.4695    0.9228   -0.2897 C   0  0  0  0  0  0  0  0  0  0  0  0
    0.4108    0.6390   -1.6171 O   0  0  0  0  0  0  0  0  0  0  0  0
   -0.8194    1.0474    0.4814 C   0  0  0  0  0  0  0  0  0  0  0  0
   -1.9913    0.2501    0.4286 C   0  0  0  0  0  0  0  0  0  0  0  0
   -0.8149   -0.5080    0.1596 C   0  0  0  0  0  0  0  0  0  0  0  0
    2.9995   -2.7696   -0.7193 H   0  0  0  0  0  0  0  0  0  0  0  0
    0.7136    0.0028    1.6911 H   0  0  0  0  0  0  0  0  0  0  0  0
    1.1898    1.7155   -0.0770 H   0  0  0  0  0  0  0  0  0  0  0  0
   -0.0426    1.3469   -2.1056 H   0  0  0  0  0  0  0  0  0  0  0  0
   -0.5143    1.2800    1.5558 H   0  0  0  0  0  0  0  0  0  0  0  0
   -2.7465    0.5272   -0.3694 H   0  0  0  0  0  0  0  0  0  0  0  0
   -2.5724   -0.0595    1.3502 H   0  0  0  0  0  0  0  0  0  0  0  0
   -0.7191   -0.7460   -0.9488 H   0  0  0  0  0  0  0  0  0  0  0  0
  1  2  3  0
  2  3  1  0
  3  4  1  0
  4  5  1  0
  4  6  1  0
  6  7  1  0
  7  8  1  0
  8  3  1  0
  8  6  1  0
  1  9  1  0
  3 10  1  0
  4 11  1  0
  5 12  1  0
  6 13  1  0
  7 14  1  0
  7 15  1  0
  8 16  1  0
M  END
