
     RDKit          3D

 18 17  0  0  0  0  0  0  0  0999 V2000
    0.8771    2.5996   -0.9449 C   0  0  0  0  0  0  0  0  0  0  0  0
    1.1751    1.4243   -0.7234 C   0  0  0  0  0  0  0  0  0  0  0  0
    1.5510    0.0444   -0.4584 C   0  0  0  0  0  0  0  0  0  0  0  0
    0.7437   -0.5623    0.6298 C   0  0  0  0  0  0  0  0  0  0  0  0
    1.2823   -1.8902    0.7937 O   0  0  0  0  0  0  0  0  0  0  0  0
   -0.6984   -0.8503    0.3032 C   0  0  0  0  0  0  0  0  0  0  0  0
   -1.5281    0.3208   -0.0975 C   0  0  0  0  0  0  0  0  0  0  0  0
   -2.8671   -0.1223   -0.3218 O   0  0  0  0  0  0  0  0  0  0  0  0
    0.6241    3.6127   -1.1195 H   0  0  0  0  0  0  0  0  0  0  0  0
    2.6480   -0.0212   -0.1879 H   0  0  0  0  0  0  0  0  0  0  0  0
    1.3700   -0.5444   -1.4034 H   0  0  0  0  0  0  0  0  0  0  0  0
    0.7831   -0.0109    1.5828 H   0  0  0  0  0  0  0  0  0  0  0  0
    1.6692   -1.9165    1.7244 H   0  0  0  0  0  0  0  0  0  0  0  0
   -1.1206   -1.2793    1.2650 H   0  0  0  0  0  0  0  0  0  0  0  0
   -0.7501   -1.6489   -0.4990 H   0  0  0  0  0  0  0  0  0  0  0  0
   -1.5999    1.1307    0.6384 H   0  0  0  0  0  0  0  0  0  0  0  0
   -1.1866    0.7701   -1.0729 H   0  0  0  0  0  0  0  0  0  0  0  0
   -2.9727   -1.0564   -0.0294 H   0  0  0  0  0  0  0  0  0  0  0  0
  1  2  3  0
  2  3  1  0
  3  4  1  0
  4  5  1  0
  4  6  1  0
  6  7  1  0
  7  8  1  0
  1  9  1  0
  3 10  1  0
  3 11  1  0
  4 12  1  0
  5 13  1  0
  6 14  1  0
  6 15  1  0
  7 16  1  0
  7 17  1  0
  8 18  1  0
M  END
