
     RDKit          3D

 18 17  0  0  0  0  0  0  0  0999 V2000
   -0.3245    2.0804   -1.4093 C   0  0  0  0  0  0  0  0  0  0  0  0
   -0.4721    1.2306   -0.5448 C   0  0  0  0  0  0  0  0  0  0  0  0
   -0.6649    0.2117    0.5238 C   0  0  0  0  0  0  0  0  0  0  0  0
   -1.4186   -0.9782    0.0015 C   0  0  0  0  0  0  0  0  0  0  0  0
   -1.4058    0.8750    1.5354 O   0  0  0  0  0  0  0  0  0  0  0  0
    0.6281   -0.2264    1.1195 C   0  0  0  0  0  0  0  0  0  0  0  0
    1.4303   -0.9544    0.3233 O   0  0  0  0  0  0  0  0  0  0  0  0
    1.8637   -0.4490   -0.8546 C   0  0  0  0  0  0  0  0  0  0  0  0
   -0.1980    2.8037   -2.1714 H   0  0  0  0  0  0  0  0  0  0  0  0
   -2.3274   -1.1170    0.6490 H   0  0  0  0  0  0  0  0  0  0  0  0
   -0.7659   -1.8736    0.0268 H   0  0  0  0  0  0  0  0  0  0  0  0
   -1.7771   -0.7231   -1.0140 H   0  0  0  0  0  0  0  0  0  0  0  0
   -2.2011    0.3391    1.7856 H   0  0  0  0  0  0  0  0  0  0  0  0
    1.1609    0.6365    1.6287 H   0  0  0  0  0  0  0  0  0  0  0  0
    0.3662   -0.8872    2.0092 H   0  0  0  0  0  0  0  0  0  0  0  0
    2.4083    0.5137   -0.6846 H   0  0  0  0  0  0  0  0  0  0  0  0
    2.6307   -1.1333   -1.3339 H   0  0  0  0  0  0  0  0  0  0  0  0
    1.0672   -0.3486   -1.5900 H   0  0  0  0  0  0  0  0  0  0  0  0
  1  2  3  0
  2  3  1  0
  3  4  1  0
  3  5  1  0
  3  6  1  0
  6  7  1  0
  7  8  1  0
  1  9  1  0
  4 10  1  0
  4 11  1  0
  4 12  1  0
  5 13  1  0
  6 14  1  0
  6 15  1  0
  8 16  1  0
  8 17  1  0
  8 18  1  0
M  END
