
     RDKit          3D

 15 14  0  0  0  0  0  0  0  0999 V2000
    2.2696   -0.9534   -0.9160 C   0  0  0  0  0  0  0  0  0  0  0  0
    1.5669   -0.3132   -0.1495 C   0  0  0  0  0  0  0  0  0  0  0  0
    0.7121    0.4348    0.7791 C   0  0  0  0  0  0  0  0  0  0  0  0
   -0.7114    0.3260    0.2251 C   0  0  0  0  0  0  0  0  0  0  0  0
   -1.6020    1.0093    1.0436 O   0  0  0  0  0  0  0  0  0  0  0  0
   -0.7410    0.9185   -1.1300 C   0  0  0  0  0  0  0  0  0  0  0  0
   -0.0505    0.5063   -2.0505 O   0  0  0  0  0  0  0  0  0  0  0  0
   -1.0472   -1.1237    0.1857 C   0  0  0  0  0  0  0  0  0  0  0  0
   -0.4283   -1.9506   -0.4548 O   0  0  0  0  0  0  0  0  0  0  0  0
    2.8783   -1.4969   -1.5912 H   0  0  0  0  0  0  0  0  0  0  0  0
    0.7727   -0.0222    1.7877 H   0  0  0  0  0  0  0  0  0  0  0  0
    1.0536    1.4800    0.8349 H   0  0  0  0  0  0  0  0  0  0  0  0
   -1.3853    0.9020    1.9988 H   0  0  0  0  0  0  0  0  0  0  0  0
   -1.3932    1.7470   -1.3254 H   0  0  0  0  0  0  0  0  0  0  0  0
   -1.8946   -1.4638    0.7624 H   0  0  0  0  0  0  0  0  0  0  0  0
  1  2  3  0
  2  3  1  0
  3  4  1  0
  4  5  1  0
  4  6  1  0
  6  7  2  0
  4  8  1  0
  8  9  2  0
  1 10  1  0
  3 11  1  0
  3 12  1  0
  5 13  1  0
  6 14  1  0
  8 15  1  0
M  END
