
     RDKit          3D

 17 17  0  0  0  0  0  0  0  0999 V2000
    2.9746   -0.1986    0.3662 C   0  0  0  0  0  0  0  0  0  0  0  0
    1.8041   -0.3968    0.1549 C   0  0  0  0  0  0  0  0  0  0  0  0
    0.3873   -0.6211   -0.0834 C   0  0  0  0  0  0  0  0  0  0  0  0
   -0.5442    0.3169   -0.1347 C   0  0  0  0  0  0  0  0  0  0  0  0
   -0.4117    1.7738    0.0273 C   0  0  0  0  0  0  0  0  0  0  0  0
    0.8832    2.1791    0.2647 O   0  0  0  0  0  0  0  0  0  0  0  0
   -1.8210   -0.4140   -0.4036 C   0  0  0  0  0  0  0  0  0  0  0  0
   -1.4011   -1.5961   -1.0187 O   0  0  0  0  0  0  0  0  0  0  0  0
   -0.2664   -1.9330   -0.3083 C   0  0  0  0  0  0  0  0  0  0  0  0
    4.0027   -0.0119    0.5488 H   0  0  0  0  0  0  0  0  0  0  0  0
   -1.0168    2.1001    0.9177 H   0  0  0  0  0  0  0  0  0  0  0  0
   -0.7821    2.3446   -0.8556 H   0  0  0  0  0  0  0  0  0  0  0  0
    1.0802    1.9444    1.2231 H   0  0  0  0  0  0  0  0  0  0  0  0
   -2.4937    0.1465   -1.0641 H   0  0  0  0  0  0  0  0  0  0  0  0
   -2.2721   -0.6487    0.5850 H   0  0  0  0  0  0  0  0  0  0  0  0
   -0.5547   -2.4106    0.6602 H   0  0  0  0  0  0  0  0  0  0  0  0
    0.4317   -2.5743   -0.8795 H   0  0  0  0  0  0  0  0  0  0  0  0
  1  2  3  0
  2  3  1  0
  3  4  2  0
  4  5  1  0
  5  6  1  0
  4  7  1  0
  7  8  1  0
  8  9  1  0
  9  3  1  0
  1 10  1  0
  5 11  1  0
  5 12  1  0
  6 13  1  0
  7 14  1  0
  7 15  1  0
  9 16  1  0
  9 17  1  0
M  END
