
     RDKit          3D

 14 14  0  0  0  0  0  0  0  0999 V2000
    2.6500   -1.3424   -0.2141 C   0  0  0  0  0  0  0  0  0  0  0  0
    1.6080   -0.9351    0.2154 C   0  0  0  0  0  0  0  0  0  0  0  0
    0.3530   -0.4421    0.7177 C   0  0  0  0  0  0  0  0  0  0  0  0
   -0.6190   -1.4246    0.7297 O   0  0  0  0  0  0  0  0  0  0  0  0
   -1.5619   -0.3853    0.5503 C   0  0  0  0  0  0  0  0  0  0  0  0
   -0.5038    0.2992   -0.3063 C   0  0  0  0  0  0  0  0  0  0  0  0
   -0.4597    1.7686   -0.1545 C   0  0  0  0  0  0  0  0  0  0  0  0
   -0.3133    2.4950   -1.1081 O   0  0  0  0  0  0  0  0  0  0  0  0
    3.5780   -1.7172   -0.6144 H   0  0  0  0  0  0  0  0  0  0  0  0
    0.3686    0.1043    1.6781 H   0  0  0  0  0  0  0  0  0  0  0  0
   -2.4771   -0.6757    0.0319 H   0  0  0  0  0  0  0  0  0  0  0  0
   -1.6640    0.1639    1.5004 H   0  0  0  0  0  0  0  0  0  0  0  0
   -0.3971   -0.0929   -1.3219 H   0  0  0  0  0  0  0  0  0  0  0  0
   -0.5618    2.1844    0.8338 H   0  0  0  0  0  0  0  0  0  0  0  0
  1  2  3  0
  2  3  1  0
  3  4  1  0
  4  5  1  0
  5  6  1  0
  6  7  1  0
  7  8  2  0
  6  3  1  0
  1  9  1  0
  3 10  1  0
  5 11  1  0
  5 12  1  0
  6 13  1  0
  7 14  1  0
M  END
