
     RDKit          3D

 19 19  0  0  0  0  0  0  0  0999 V2000
    3.4349    0.4820   -1.3903 C   0  0  0  0  0  0  0  0  0  0  0  0
    2.5870    0.0469   -0.6207 C   0  0  0  0  0  0  0  0  0  0  0  0
    1.5877   -0.4661    0.3189 C   0  0  0  0  0  0  0  0  0  0  0  0
    0.8403   -1.6736   -0.0294 C   0  0  0  0  0  0  0  0  0  0  0  0
    1.0233   -2.2775   -1.2849 O   0  0  0  0  0  0  0  0  0  0  0  0
    0.1209   -0.3359   -0.0952 C   0  0  0  0  0  0  0  0  0  0  0  0
   -0.7999   -0.0377    0.9066 O   0  0  0  0  0  0  0  0  0  0  0  0
   -1.7474    0.8212    0.3546 C   0  0  0  0  0  0  0  0  0  0  0  0
   -2.8017    1.2193    1.3393 C   0  0  0  0  0  0  0  0  0  0  0  0
    4.1564    0.8545   -2.0697 H   0  0  0  0  0  0  0  0  0  0  0  0
    1.8042   -0.3184    1.4034 H   0  0  0  0  0  0  0  0  0  0  0  0
    0.4328   -2.3671    0.7334 H   0  0  0  0  0  0  0  0  0  0  0  0
    1.9403   -2.1166   -1.6160 H   0  0  0  0  0  0  0  0  0  0  0  0
   -0.0289    0.1189   -1.0970 H   0  0  0  0  0  0  0  0  0  0  0  0
   -1.2117    1.7339    0.0106 H   0  0  0  0  0  0  0  0  0  0  0  0
   -2.1736    0.3522   -0.5673 H   0  0  0  0  0  0  0  0  0  0  0  0
   -3.0245    2.3014    1.2259 H   0  0  0  0  0  0  0  0  0  0  0  0
   -2.4047    0.9963    2.3573 H   0  0  0  0  0  0  0  0  0  0  0  0
   -3.7353    0.6663    1.1172 H   0  0  0  0  0  0  0  0  0  0  0  0
  1  2  3  0
  2  3  1  0
  3  4  1  0
  4  5  1  0
  4  6  1  0
  6  7  1  0
  7  8  1  0
  8  9  1  0
  6  3  1  0
  1 10  1  0
  3 11  1  0
  4 12  1  0
  5 13  1  0
  6 14  1  0
  8 15  1  0
  8 16  1  0
  9 17  1  0
  9 18  1  0
  9 19  1  0
M  END
