
     RDKit          3D

 21 21  0  0  0  0  0  0  0  0999 V2000
    2.5593   -1.4636    1.0876 C   0  0  0  0  0  0  0  0  0  0  0  0
    1.9854   -0.7375    0.3132 C   0  0  0  0  0  0  0  0  0  0  0  0
    1.2794    0.1401   -0.6192 C   0  0  0  0  0  0  0  0  0  0  0  0
   -0.1104    0.3524   -0.0818 C   0  0  0  0  0  0  0  0  0  0  0  0
   -0.1159    0.9866    1.2775 C   0  0  0  0  0  0  0  0  0  0  0  0
    0.5759    0.1407    2.1474 O   0  0  0  0  0  0  0  0  0  0  0  0
   -1.0233   -0.8307   -0.1400 C   0  0  0  0  0  0  0  0  0  0  0  0
   -1.5255   -0.3350   -1.4755 C   0  0  0  0  0  0  0  0  0  0  0  0
   -0.9675    1.0286   -1.1224 C   0  0  0  0  0  0  0  0  0  0  0  0
    3.0868   -2.1033    1.7744 H   0  0  0  0  0  0  0  0  0  0  0  0
    1.7898    1.1213   -0.6979 H   0  0  0  0  0  0  0  0  0  0  0  0
    1.2729   -0.2848   -1.6431 H   0  0  0  0  0  0  0  0  0  0  0  0
   -1.1198    1.1211    1.6934 H   0  0  0  0  0  0  0  0  0  0  0  0
    0.3876    1.9719    1.1906 H   0  0  0  0  0  0  0  0  0  0  0  0
   -0.0035   -0.5680    2.4955 H   0  0  0  0  0  0  0  0  0  0  0  0
   -1.8337   -0.8291    0.6189 H   0  0  0  0  0  0  0  0  0  0  0  0
   -0.4942   -1.8246   -0.2084 H   0  0  0  0  0  0  0  0  0  0  0  0
   -2.6106   -0.2855   -1.6040 H   0  0  0  0  0  0  0  0  0  0  0  0
   -1.0337   -0.8077   -2.3647 H   0  0  0  0  0  0  0  0  0  0  0  0
   -1.6992    1.7281   -0.6831 H   0  0  0  0  0  0  0  0  0  0  0  0
   -0.3998    1.4792   -1.9582 H   0  0  0  0  0  0  0  0  0  0  0  0
  1  2  3  0
  2  3  1  0
  3  4  1  0
  4  5  1  0
  5  6  1  0
  4  7  1  0
  7  8  1  0
  8  9  1  0
  9  4  1  0
  1 10  1  0
  3 11  1  0
  3 12  1  0
  5 13  1  0
  5 14  1  0
  6 15  1  0
  7 16  1  0
  7 17  1  0
  8 18  1  0
  8 19  1  0
  9 20  1  0
  9 21  1  0
M  END
