
     RDKit          3D

 15 15  0  0  0  0  0  0  0  0999 V2000
    2.7626    0.4025   -1.5234 C   0  0  0  0  0  0  0  0  0  0  0  0
    1.7738    0.4362   -0.8282 C   0  0  0  0  0  0  0  0  0  0  0  0
    0.5834    0.4874   -0.0189 C   0  0  0  0  0  0  0  0  0  0  0  0
   -0.0640   -0.8771    0.2291 C   0  0  0  0  0  0  0  0  0  0  0  0
   -0.3680   -1.1163    1.6564 C   0  0  0  0  0  0  0  0  0  0  0  0
   -0.8410   -0.2559    2.3746 O   0  0  0  0  0  0  0  0  0  0  0  0
   -0.7395    0.1261   -0.5913 C   0  0  0  0  0  0  0  0  0  0  0  0
   -1.9544    0.8412   -0.1362 C   0  0  0  0  0  0  0  0  0  0  0  0
   -2.8353    1.2003   -0.8877 O   0  0  0  0  0  0  0  0  0  0  0  0
    3.6361    0.3731   -2.1150 H   0  0  0  0  0  0  0  0  0  0  0  0
    0.6178    1.2184    0.8077 H   0  0  0  0  0  0  0  0  0  0  0  0
    0.3745   -1.7631   -0.2942 H   0  0  0  0  0  0  0  0  0  0  0  0
   -0.1788   -2.0759    2.1195 H   0  0  0  0  0  0  0  0  0  0  0  0
   -0.7000   -0.0527   -1.7022 H   0  0  0  0  0  0  0  0  0  0  0  0
   -2.0672    1.0558    0.9097 H   0  0  0  0  0  0  0  0  0  0  0  0
  1  2  3  0
  2  3  1  0
  3  4  1  0
  4  5  1  0
  5  6  2  0
  4  7  1  0
  7  8  1  0
  8  9  2  0
  7  3  1  0
  1 10  1  0
  3 11  1  0
  4 12  1  0
  5 13  1  0
  7 14  1  0
  8 15  1  0
M  END
