
     RDKit          3D

 23 22  0  0  0  0  0  0  0  0999 V2000
   -3.4019   -1.0439    0.5850 C   0  0  0  0  0  0  0  0  0  0  0  0
   -2.4041   -0.4234    0.9235 C   0  0  0  0  0  0  0  0  0  0  0  0
   -1.2216    0.3362    1.3289 C   0  0  0  0  0  0  0  0  0  0  0  0
   -1.4164    1.7540    0.9123 C   0  0  0  0  0  0  0  0  0  0  0  0
    0.0460   -0.2875    0.8153 C   0  0  0  0  0  0  0  0  0  0  0  0
    0.1254   -0.3896   -0.6629 C   0  0  0  0  0  0  0  0  0  0  0  0
    1.4390   -1.0332   -1.0456 C   0  0  0  0  0  0  0  0  0  0  0  0
    2.6412   -0.2597   -0.5787 C   0  0  0  0  0  0  0  0  0  0  0  0
    2.7072    1.0221   -1.0798 O   0  0  0  0  0  0  0  0  0  0  0  0
   -4.2527   -1.5764    0.2793 H   0  0  0  0  0  0  0  0  0  0  0  0
   -1.1696    0.3148    2.4438 H   0  0  0  0  0  0  0  0  0  0  0  0
   -2.4506    2.0498    1.1892 H   0  0  0  0  0  0  0  0  0  0  0  0
   -0.7405    2.4729    1.4020 H   0  0  0  0  0  0  0  0  0  0  0  0
   -1.3841    1.8507   -0.2110 H   0  0  0  0  0  0  0  0  0  0  0  0
    0.9268    0.2093    1.2642 H   0  0  0  0  0  0  0  0  0  0  0  0
    0.0640   -1.3372    1.2259 H   0  0  0  0  0  0  0  0  0  0  0  0
   -0.0037    0.5635   -1.1914 H   0  0  0  0  0  0  0  0  0  0  0  0
   -0.6944   -1.0648   -1.0258 H   0  0  0  0  0  0  0  0  0  0  0  0
    1.5350   -2.0546   -0.5702 H   0  0  0  0  0  0  0  0  0  0  0  0
    1.4856   -1.2483   -2.1399 H   0  0  0  0  0  0  0  0  0  0  0  0
    3.5367   -0.8350   -0.9549 H   0  0  0  0  0  0  0  0  0  0  0  0
    2.7509   -0.2558    0.5198 H   0  0  0  0  0  0  0  0  0  0  0  0
    1.8817    1.2363   -1.5830 H   0  0  0  0  0  0  0  0  0  0  0  0
  1  2  3  0
  2  3  1  0
  3  4  1  0
  3  5  1  0
  5  6  1  0
  6  7  1  0
  7  8  1  0
  8  9  1  0
  1 10  1  0
  3 11  1  0
  4 12  1  0
  4 13  1  0
  4 14  1  0
  5 15  1  0
  5 16  1  0
  6 17  1  0
  6 18  1  0
  7 19  1  0
  7 20  1  0
  8 21  1  0
  8 22  1  0
  9 23  1  0
M  END
