
     RDKit          3D

 15 15  0  0  0  0  0  0  0  0999 V2000
    1.9178   -2.1166    0.0641 C   0  0  0  0  0  0  0  0  0  0  0  0
    1.1238   -1.1857    0.0317 C   0  0  0  0  0  0  0  0  0  0  0  0
    0.1562   -0.0874   -0.0173 C   0  0  0  0  0  0  0  0  0  0  0  0
   -1.2953   -0.5470    0.0571 C   0  0  0  0  0  0  0  0  0  0  0  0
   -2.0999    0.5648    0.0024 O   0  0  0  0  0  0  0  0  0  0  0  0
    0.4722    1.1698    0.7572 C   0  0  0  0  0  0  0  0  0  0  0  0
    0.5251    1.1271   -0.7506 C   0  0  0  0  0  0  0  0  0  0  0  0
    2.6108   -2.9174    0.1089 H   0  0  0  0  0  0  0  0  0  0  0  0
   -1.4160   -1.0833    1.0300 H   0  0  0  0  0  0  0  0  0  0  0  0
   -1.4584   -1.2208   -0.8158 H   0  0  0  0  0  0  0  0  0  0  0  0
   -2.8442    0.4098   -0.6432 H   0  0  0  0  0  0  0  0  0  0  0  0
   -0.3784    1.6793    1.2625 H   0  0  0  0  0  0  0  0  0  0  0  0
    1.4272    1.1900    1.3317 H   0  0  0  0  0  0  0  0  0  0  0  0
   -0.2597    1.7868   -1.2223 H   0  0  0  0  0  0  0  0  0  0  0  0
    1.5187    1.2307   -1.1965 H   0  0  0  0  0  0  0  0  0  0  0  0
  1  2  3  0
  2  3  1  0
  3  4  1  0
  4  5  1  0
  3  6  1  0
  6  7  1  0
  7  3  1  0
  1  8  1  0
  4  9  1  0
  4 10  1  0
  5 11  1  0
  6 12  1  0
  6 13  1  0
  7 14  1  0
  7 15  1  0
M  END
