
     RDKit          3D

 21 20  0  0  0  0  0  0  0  0999 V2000
    3.3936   -2.1497   -0.6021 C   0  0  0  0  0  0  0  0  0  0  0  0
    2.5277   -0.6053   -0.4621 C   0  0  0  0  0  0  0  0  0  0  0  0
    2.0554    0.2208   -0.3723 C   0  0  0  0  0  0  0  0  0  0  0  0
    0.9020    0.7968   -0.0062 O   0  0  0  0  0  0  0  0  0  0  0  0
   -0.2961    0.3131   -0.5702 C   0  0  0  0  0  0  0  0  0  0  0  0
   -0.8789   -0.5501    0.5136 C   0  0  0  0  0  0  0  0  0  0  0  0
   -2.0686   -1.3350    0.5716 C   0  0  0  0  0  0  0  0  0  0  0  0
   -1.1958    1.5484   -0.7868 C   0  0  0  0  0  0  0  0  0  0  0  0
   -1.5897    2.1795    0.3206 O   0  0  0  0  0  0  0  0  0  0  0  0
    3.9630   -3.1430   -0.7085 H   0  0  0  0  0  0  0  0  0  0  0  0
    2.6295    1.3201   -0.7188 H   0  0  0  0  0  0  0  0  0  0  0  0
    2.7663    0.5119    0.9113 H   0  0  0  0  0  0  0  0  0  0  0  0
   -0.1471   -0.2261   -1.5024 H   0  0  0  0  0  0  0  0  0  0  0  0
   -1.2102    0.3245    1.3368 H   0  0  0  0  0  0  0  0  0  0  0  0
   -0.0636   -0.9037    1.2279 H   0  0  0  0  0  0  0  0  0  0  0  0
   -2.3564   -1.9216   -0.3691 H   0  0  0  0  0  0  0  0  0  0  0  0
   -3.0513   -0.7515    0.7081 H   0  0  0  0  0  0  0  0  0  0  0  0
   -1.9833   -2.1093    1.3723 H   0  0  0  0  0  0  0  0  0  0  0  0
   -0.5535    2.2619   -1.4063 H   0  0  0  0  0  0  0  0  0  0  0  0
   -2.0576    1.2605   -1.4313 H   0  0  0  0  0  0  0  0  0  0  0  0
   -0.7854    2.9577    0.3798 H   0  0  0  0  0  0  0  0  0  0  0  0
  1  2  3  0
  2  3  1  0
  3  4  1  0
  4  5  1  0
  5  6  1  0
  6  7  1  0
  5  8  1  0
  8  9  1  0
  1 10  1  0
  3 11  1  0
  3 12  1  0
  5 13  1  0
  6 14  1  0
  6 15  1  0
  7 16  1  0
  7 17  1  0
  7 18  1  0
  8 19  1  0
  8 20  1  0
  9 21  1  0
M  END
