
     RDKit          3D

 14 14  0  0  0  0  0  0  0  0999 V2000
    3.1784    0.1754    1.1344 C   0  0  0  0  0  0  0  0  0  0  0  0
    1.9713    0.0884    1.1961 C   0  0  0  0  0  0  0  0  0  0  0  0
    0.5427   -0.0246    1.2464 C   0  0  0  0  0  0  0  0  0  0  0  0
   -0.0218   -0.1103    2.3634 O   0  0  0  0  0  0  0  0  0  0  0  0
   -0.2363   -0.0379   -0.0178 C   0  0  0  0  0  0  0  0  0  0  0  0
    0.4579    0.0607   -1.2218 O   0  0  0  0  0  0  0  0  0  0  0  0
   -1.4944   -0.9179    0.0067 C   0  0  0  0  0  0  0  0  0  0  0  0
   -1.6036    0.5396   -0.0370 C   0  0  0  0  0  0  0  0  0  0  0  0
    4.2449    0.2512    1.0740 H   0  0  0  0  0  0  0  0  0  0  0  0
    0.1609    0.8701   -1.6856 H   0  0  0  0  0  0  0  0  0  0  0  0
   -1.6176   -1.5242   -0.8985 H   0  0  0  0  0  0  0  0  0  0  0  0
   -1.7090   -1.4760    0.9472 H   0  0  0  0  0  0  0  0  0  0  0  0
   -1.8805    1.1259    0.8535 H   0  0  0  0  0  0  0  0  0  0  0  0
   -1.9928    0.9797   -0.9783 H   0  0  0  0  0  0  0  0  0  0  0  0
  1  2  3  0
  2  3  1  0
  3  4  2  0
  3  5  1  0
  5  6  1  0
  5  7  1  0
  7  8  1  0
  8  5  1  0
  1  9  1  0
  6 10  1  0
  7 11  1  0
  7 12  1  0
  8 13  1  0
  8 14  1  0
M  END
