
     RDKit          3D

 21 20  0  0  0  0  0  0  0  0999 V2000
    4.1043   -0.9399   -0.0277 C   0  0  0  0  0  0  0  0  0  0  0  0
    2.9105   -1.0636    0.0847 C   0  0  0  0  0  0  0  0  0  0  0  0
    1.4425   -1.2160    0.1998 C   0  0  0  0  0  0  0  0  0  0  0  0
    0.7967    0.1745    0.1172 C   0  0  0  0  0  0  0  0  0  0  0  0
   -0.6984    0.0752    0.2287 C   0  0  0  0  0  0  0  0  0  0  0  0
   -1.1934   -0.7842   -0.9137 C   0  0  0  0  0  0  0  0  0  0  0  0
   -1.2344    1.5012    0.0871 C   0  0  0  0  0  0  0  0  0  0  0  0
   -2.7049    1.5144    0.1830 C   0  0  0  0  0  0  0  0  0  0  0  0
   -3.3507    0.4923    0.3530 O   0  0  0  0  0  0  0  0  0  0  0  0
    5.1518   -0.8138   -0.1214 H   0  0  0  0  0  0  0  0  0  0  0  0
    1.2125   -1.6492    1.1864 H   0  0  0  0  0  0  0  0  0  0  0  0
    1.0574   -1.8698   -0.6075 H   0  0  0  0  0  0  0  0  0  0  0  0
    1.1184    0.6707   -0.8201 H   0  0  0  0  0  0  0  0  0  0  0  0
    1.2495    0.7596    0.9438 H   0  0  0  0  0  0  0  0  0  0  0  0
   -1.0167   -0.3152    1.2062 H   0  0  0  0  0  0  0  0  0  0  0  0
   -2.0589   -0.3138   -1.4328 H   0  0  0  0  0  0  0  0  0  0  0  0
   -0.4103   -0.9202   -1.6607 H   0  0  0  0  0  0  0  0  0  0  0  0
   -1.4944   -1.7912   -0.5289 H   0  0  0  0  0  0  0  0  0  0  0  0
   -0.8420    1.9639   -0.8412 H   0  0  0  0  0  0  0  0  0  0  0  0
   -0.8373    2.0496    0.9878 H   0  0  0  0  0  0  0  0  0  0  0  0
   -3.2023    2.4754    0.0964 H   0  0  0  0  0  0  0  0  0  0  0  0
  1  2  3  0
  2  3  1  0
  3  4  1  0
  4  5  1  0
  5  6  1  0
  5  7  1  0
  7  8  1  0
  8  9  2  0
  1 10  1  0
  3 11  1  0
  3 12  1  0
  4 13  1  0
  4 14  1  0
  5 15  1  0
  6 16  1  0
  6 17  1  0
  6 18  1  0
  7 19  1  0
  7 20  1  0
  8 21  1  0
M  END
