
     RDKit          3D

 19 20  0  0  0  0  0  0  0  0999 V2000
    2.9077   -1.7062   -0.5167 C   0  0  0  0  0  0  0  0  0  0  0  0
    2.1141   -0.7903   -0.6590 C   0  0  0  0  0  0  0  0  0  0  0  0
    1.1582    0.2934   -0.8066 C   0  0  0  0  0  0  0  0  0  0  0  0
    0.7135    1.0710    0.4092 C   0  0  0  0  0  0  0  0  0  0  0  0
    0.4620    2.4378    0.2892 O   0  0  0  0  0  0  0  0  0  0  0  0
   -0.1806    0.1816   -0.3032 C   0  0  0  0  0  0  0  0  0  0  0  0
   -0.8236   -0.9474    0.3720 C   0  0  0  0  0  0  0  0  0  0  0  0
   -2.0828   -0.6571   -0.4467 C   0  0  0  0  0  0  0  0  0  0  0  0
   -1.4228    0.6045   -1.0167 C   0  0  0  0  0  0  0  0  0  0  0  0
    3.5867   -2.5133   -0.3966 H   0  0  0  0  0  0  0  0  0  0  0  0
    1.3318    0.9354   -1.7130 H   0  0  0  0  0  0  0  0  0  0  0  0
    1.1682    0.7022    1.3547 H   0  0  0  0  0  0  0  0  0  0  0  0
    0.8830    2.8467   -0.4974 H   0  0  0  0  0  0  0  0  0  0  0  0
   -0.4358   -1.9707    0.2059 H   0  0  0  0  0  0  0  0  0  0  0  0
   -1.0555   -0.7270    1.4521 H   0  0  0  0  0  0  0  0  0  0  0  0
   -2.9867   -0.4697    0.1465 H   0  0  0  0  0  0  0  0  0  0  0  0
   -2.2208   -1.4042   -1.2581 H   0  0  0  0  0  0  0  0  0  0  0  0
   -1.2514    0.5627   -2.1132 H   0  0  0  0  0  0  0  0  0  0  0  0
   -1.8651    1.5506   -0.6394 H   0  0  0  0  0  0  0  0  0  0  0  0
  1  2  3  0
  2  3  1  0
  3  4  1  0
  4  5  1  0
  4  6  1  0
  6  7  1  0
  7  8  1  0
  8  9  1  0
  6  3  1  0
  9  6  1  0
  1 10  1  0
  3 11  1  0
  4 12  1  0
  5 13  1  0
  7 14  1  0
  7 15  1  0
  8 16  1  0
  8 17  1  0
  9 18  1  0
  9 19  1  0
M  END
