
     RDKit          3D

 21 22  0  0  0  0  0  0  0  0999 V2000
    2.5994   -1.7595    0.9042 C   0  0  0  0  0  0  0  0  0  0  0  0
    1.9775   -1.1119    0.1021 C   0  0  0  0  0  0  0  0  0  0  0  0
    1.2159   -0.2905   -0.8757 C   0  0  0  0  0  0  0  0  0  0  0  0
   -0.1231   -0.3687   -0.9052 C   0  0  0  0  0  0  0  0  0  0  0  0
   -1.0974   -0.3171    0.2456 C   0  0  0  0  0  0  0  0  0  0  0  0
   -2.3476   -1.0614   -0.0595 C   0  0  0  0  0  0  0  0  0  0  0  0
   -1.0324    1.1177   -0.2652 C   0  0  0  0  0  0  0  0  0  0  0  0
    0.4479    0.8829   -0.4499 C   0  0  0  0  0  0  0  0  0  0  0  0
    1.1931    1.5373    0.5785 C   0  0  0  0  0  0  0  0  0  0  0  0
    3.1553   -2.3181    1.6225 H   0  0  0  0  0  0  0  0  0  0  0  0
    1.8417   -0.1289   -1.8000 H   0  0  0  0  0  0  0  0  0  0  0  0
   -0.6880   -0.2695   -1.8877 H   0  0  0  0  0  0  0  0  0  0  0  0
   -0.6786   -0.4549    1.2477 H   0  0  0  0  0  0  0  0  0  0  0  0
   -2.1315   -2.0137   -0.5943 H   0  0  0  0  0  0  0  0  0  0  0  0
   -2.8222   -1.3434    0.9123 H   0  0  0  0  0  0  0  0  0  0  0  0
   -3.0485   -0.4842   -0.7123 H   0  0  0  0  0  0  0  0  0  0  0  0
   -1.5565    1.2496   -1.2107 H   0  0  0  0  0  0  0  0  0  0  0  0
   -1.3652    1.7790    0.5186 H   0  0  0  0  0  0  0  0  0  0  0  0
    1.7223    0.9152    1.3490 H   0  0  0  0  0  0  0  0  0  0  0  0
    0.6911    2.3315    1.1858 H   0  0  0  0  0  0  0  0  0  0  0  0
    2.0470    2.1087    0.0941 H   0  0  0  0  0  0  0  0  0  0  0  0
  1  2  3  0
  2  3  1  0
  3  4  1  0
  4  5  1  0
  5  6  1  0
  5  7  1  0
  7  8  1  0
  8  9  1  0
  8  3  1  0
  8  4  1  0
  1 10  1  0
  3 11  1  0
  4 12  1  0
  5 13  1  0
  6 14  1  0
  6 15  1  0
  6 16  1  0
  7 17  1  0
  7 18  1  0
  9 19  1  0
  9 20  1  0
  9 21  1  0
M  END
