
     RDKit          3D

 19 19  0  0  0  0  0  0  0  0999 V2000
   -2.5308    1.8461   -0.4374 C   0  0  0  0  0  0  0  0  0  0  0  0
   -1.7723    0.8970   -0.4615 C   0  0  0  0  0  0  0  0  0  0  0  0
   -0.8590   -0.2569   -0.4667 C   0  0  0  0  0  0  0  0  0  0  0  0
    0.4685    0.0088    0.2087 C   0  0  0  0  0  0  0  0  0  0  0  0
    0.2389    0.9166    1.3937 C   0  0  0  0  0  0  0  0  0  0  0  0
    1.4143    0.4652   -0.6609 O   0  0  0  0  0  0  0  0  0  0  0  0
    2.5138   -0.3645   -0.8033 C   0  0  0  0  0  0  0  0  0  0  0  0
   -1.4853   -1.6352   -0.3097 C   0  0  0  0  0  0  0  0  0  0  0  0
   -0.9511   -1.1719   -1.4862 O   0  0  0  0  0  0  0  0  0  0  0  0
   -3.2013    2.6723   -0.4055 H   0  0  0  0  0  0  0  0  0  0  0  0
    0.8147   -0.9652    0.6189 H   0  0  0  0  0  0  0  0  0  0  0  0
    0.8212    0.6168    2.2885 H   0  0  0  0  0  0  0  0  0  0  0  0
   -0.8289    0.9266    1.7223 H   0  0  0  0  0  0  0  0  0  0  0  0
    0.4869    1.9752    1.1602 H   0  0  0  0  0  0  0  0  0  0  0  0
    3.0433   -0.5136    0.1612 H   0  0  0  0  0  0  0  0  0  0  0  0
    2.0939   -1.3842   -1.0529 H   0  0  0  0  0  0  0  0  0  0  0  0
    3.1738   -0.0769   -1.6313 H   0  0  0  0  0  0  0  0  0  0  0  0
   -0.8642   -2.3331    0.2962 H   0  0  0  0  0  0  0  0  0  0  0  0
   -2.5763   -1.6230   -0.1344 H   0  0  0  0  0  0  0  0  0  0  0  0
  1  2  3  0
  2  3  1  0
  3  4  1  0
  4  5  1  0
  4  6  1  0
  6  7  1  0
  3  8  1  0
  8  9  1  0
  9  3  1  0
  1 10  1  0
  4 11  1  0
  5 12  1  0
  5 13  1  0
  5 14  1  0
  7 15  1  0
  7 16  1  0
  7 17  1  0
  8 18  1  0
  8 19  1  0
M  END
