
     RDKit          3D

 17 17  0  0  0  0  0  0  0  0999 V2000
   -2.4503   -1.8825    0.5753 C   0  0  0  0  0  0  0  0  0  0  0  0
   -1.5054   -1.2701    0.1428 C   0  0  0  0  0  0  0  0  0  0  0  0
   -0.3561   -0.5092   -0.3746 C   0  0  0  0  0  0  0  0  0  0  0  0
   -0.3789    0.9591   -0.3188 C   0  0  0  0  0  0  0  0  0  0  0  0
   -1.5799    1.5467    0.0315 O   0  0  0  0  0  0  0  0  0  0  0  0
    0.4205    0.2827    0.6949 C   0  0  0  0  0  0  0  0  0  0  0  0
   -0.0779    0.1967    2.0048 O   0  0  0  0  0  0  0  0  0  0  0  0
    1.9110    0.1133    0.5952 C   0  0  0  0  0  0  0  0  0  0  0  0
    2.2814    0.2165   -0.7292 O   0  0  0  0  0  0  0  0  0  0  0  0
   -3.2850   -2.4311    0.9404 H   0  0  0  0  0  0  0  0  0  0  0  0
    0.2209   -0.9596   -1.2005 H   0  0  0  0  0  0  0  0  0  0  0  0
    0.1928    1.5335   -1.0970 H   0  0  0  0  0  0  0  0  0  0  0  0
   -1.5519    2.5204    0.1121 H   0  0  0  0  0  0  0  0  0  0  0  0
   -1.0401    0.4422    1.9623 H   0  0  0  0  0  0  0  0  0  0  0  0
    2.4800    0.7969    1.2190 H   0  0  0  0  0  0  0  0  0  0  0  0
    2.1758   -0.9267    0.9354 H   0  0  0  0  0  0  0  0  0  0  0  0
    2.5432   -0.6291   -1.1494 H   0  0  0  0  0  0  0  0  0  0  0  0
  1  2  3  0
  2  3  1  0
  3  4  1  0
  4  5  1  0
  4  6  1  0
  6  7  1  0
  6  8  1  0
  8  9  1  0
  6  3  1  0
  1 10  1  0
  3 11  1  0
  4 12  1  0
  5 13  1  0
  7 14  1  0
  8 15  1  0
  8 16  1  0
  9 17  1  0
M  END
