
     RDKit          3D

 15 16  0  0  0  0  0  0  0  0999 V2000
    2.8247   -1.5390    0.6132 C   0  0  0  0  0  0  0  0  0  0  0  0
    1.4396   -1.0366    0.4670 C   0  0  0  0  0  0  0  0  0  0  0  0
    0.2385   -0.5908    0.3550 C   0  0  0  0  0  0  0  0  0  0  0  0
   -1.0240   -0.4237    0.7579 C   0  0  0  0  0  0  0  0  0  0  0  0
   -1.8622   -0.4370   -0.4380 C   0  0  0  0  0  0  0  0  0  0  0  0
   -0.9357    0.4333   -1.1841 C   0  0  0  0  0  0  0  0  0  0  0  0
   -0.3345    1.4966   -0.2427 C   0  0  0  0  0  0  0  0  0  0  0  0
    0.7094    1.0693    0.2880 C   0  0  0  0  0  0  0  0  0  0  0  0
    0.1236   -0.4365   -1.2177 O   0  0  0  0  0  0  0  0  0  0  0  0
    3.6376   -1.8219    0.7064 H   0  0  0  0  0  0  0  0  0  0  0  0
   -1.7027   -0.2158    1.6432 H   0  0  0  0  0  0  0  0  0  0  0  0
   -2.7237   -1.0102   -0.3494 H   0  0  0  0  0  0  0  0  0  0  0  0
   -1.3468    0.9256   -2.0193 H   0  0  0  0  0  0  0  0  0  0  0  0
   -0.7012    2.5291   -0.0540 H   0  0  0  0  0  0  0  0  0  0  0  0
    1.6573    1.0576    0.6745 H   0  0  0  0  0  0  0  0  0  0  0  0
  1  2  3  0
  2  3  1  0
  3  4  1  0
  4  5  2  0
  5  6  1  0
  6  7  1  0
  7  8  2  0
  6  9  1  0
  8  3  1  0
  9  3  1  0
  1 10  1  0
  4 11  1  0
  5 12  1  0
  6 13  1  0
  7 14  1  0
  8 15  1  0
M  END
