
     RDKit          3D

 21 21  0  0  0  0  0  0  0  0999 V2000
   -2.1020    2.1258    1.0497 C   0  0  0  0  0  0  0  0  0  0  0  0
   -1.4846    1.2062    0.5713 C   0  0  0  0  0  0  0  0  0  0  0  0
   -0.7053    0.0884   -0.0123 C   0  0  0  0  0  0  0  0  0  0  0  0
   -1.7047   -0.9770   -0.4184 C   0  0  0  0  0  0  0  0  0  0  0  0
    0.2684   -0.4071    1.0058 C   0  0  0  0  0  0  0  0  0  0  0  0
    1.4308   -0.8708    0.1527 C   0  0  0  0  0  0  0  0  0  0  0  0
    1.5692    0.2806   -0.8203 C   0  0  0  0  0  0  0  0  0  0  0  0
    2.2333   -0.0522   -1.9725 O   0  0  0  0  0  0  0  0  0  0  0  0
    0.1199    0.5583   -1.1741 C   0  0  0  0  0  0  0  0  0  0  0  0
   -2.6568    2.9280    1.4847 H   0  0  0  0  0  0  0  0  0  0  0  0
   -2.1041   -1.4411    0.4803 H   0  0  0  0  0  0  0  0  0  0  0  0
   -2.4939   -0.4871   -1.0229 H   0  0  0  0  0  0  0  0  0  0  0  0
   -1.2239   -1.7491   -1.0721 H   0  0  0  0  0  0  0  0  0  0  0  0
   -0.1783   -1.2441    1.5829 H   0  0  0  0  0  0  0  0  0  0  0  0
    0.5751    0.4082    1.7035 H   0  0  0  0  0  0  0  0  0  0  0  0
    2.3306   -1.0068    0.7761 H   0  0  0  0  0  0  0  0  0  0  0  0
    1.1559   -1.8172   -0.3345 H   0  0  0  0  0  0  0  0  0  0  0  0
    1.9834    1.1418   -0.2795 H   0  0  0  0  0  0  0  0  0  0  0  0
    3.1770   -0.3239   -1.8173 H   0  0  0  0  0  0  0  0  0  0  0  0
   -0.1693   -0.0053   -2.1016 H   0  0  0  0  0  0  0  0  0  0  0  0
   -0.0204    1.6445   -1.3508 H   0  0  0  0  0  0  0  0  0  0  0  0
  1  2  3  0
  2  3  1  0
  3  4  1  0
  3  5  1  0
  5  6  1  0
  6  7  1  0
  7  8  1  0
  7  9  1  0
  9  3  1  0
  1 10  1  0
  4 11  1  0
  4 12  1  0
  4 13  1  0
  5 14  1  0
  5 15  1  0
  6 16  1  0
  6 17  1  0
  7 18  1  0
  8 19  1  0
  9 20  1  0
  9 21  1  0
M  END
