
     RDKit          3D

 17 18  0  0  0  0  0  0  0  0999 V2000
    1.1921    0.8053   -2.3958 C   0  0  0  0  0  0  0  0  0  0  0  0
    0.4522    0.5288   -1.2913 C   0  0  0  0  0  0  0  0  0  0  0  0
   -0.2979    0.2555   -0.1331 C   0  0  0  0  0  0  0  0  0  0  0  0
   -0.2998   -1.2258    0.2429 C   0  0  0  0  0  0  0  0  0  0  0  0
    1.0515   -1.8549    0.4198 C   0  0  0  0  0  0  0  0  0  0  0  0
    0.2739   -1.5057    1.5141 O   0  0  0  0  0  0  0  0  0  0  0  0
   -1.6095    0.9451    0.0294 C   0  0  0  0  0  0  0  0  0  0  0  0
   -1.1671    1.8010    1.0141 O   0  0  0  0  0  0  0  0  0  0  0  0
    0.0417    1.1481    1.0472 C   0  0  0  0  0  0  0  0  0  0  0  0
    1.6480    0.9878   -3.0667 H   0  0  0  0  0  0  0  0  0  0  0  0
   -1.2177   -1.7780    0.0969 H   0  0  0  0  0  0  0  0  0  0  0  0
    1.1112   -2.9298    0.0848 H   0  0  0  0  0  0  0  0  0  0  0  0
    1.9621   -1.2281    0.2787 H   0  0  0  0  0  0  0  0  0  0  0  0
   -1.8427    1.4414   -0.9620 H   0  0  0  0  0  0  0  0  0  0  0  0
   -2.4043    0.2518    0.3543 H   0  0  0  0  0  0  0  0  0  0  0  0
    0.2341    0.5388    1.9885 H   0  0  0  0  0  0  0  0  0  0  0  0
    0.8721    1.8186    0.7783 H   0  0  0  0  0  0  0  0  0  0  0  0
  1  2  3  0
  2  3  1  0
  3  4  1  0
  4  5  1  0
  5  6  1  0
  3  7  1  0
  7  8  1  0
  8  9  1  0
  9  3  1  0
  6  4  1  0
  1 10  1  0
  4 11  1  0
  5 12  1  0
  5 13  1  0
  7 14  1  0
  7 15  1  0
  9 16  1  0
  9 17  1  0
M  END
