
     RDKit          3D

 17 17  0  0  0  0  0  0  0  0999 V2000
    3.0238    0.3046   -0.8584 C   0  0  0  0  0  0  0  0  0  0  0  0
    1.8678   -0.1929   -0.2620 C   0  0  0  0  0  0  0  0  0  0  0  0
    1.0786   -0.5151    0.1463 C   0  0  0  0  0  0  0  0  0  0  0  0
   -0.1153   -1.5801    0.1261 C   0  0  0  0  0  0  0  0  0  0  0  0
   -0.4466   -0.0050    0.3233 C   0  0  0  0  0  0  0  0  0  0  0  0
   -1.0200    0.3511    1.5065 C   0  0  0  0  0  0  0  0  0  0  0  0
   -1.5791   -0.4248    2.2833 O   0  0  0  0  0  0  0  0  0  0  0  0
   -0.8221    0.7694   -0.9469 C   0  0  0  0  0  0  0  0  0  0  0  0
   -2.0083    1.4497   -0.7708 O   0  0  0  0  0  0  0  0  0  0  0  0
    4.0747    0.7707   -1.3834 H   0  0  0  0  0  0  0  0  0  0  0  0
    1.3122   -0.5581    1.5526 H   0  0  0  0  0  0  0  0  0  0  0  0
   -0.4185   -2.1415    0.9101 H   0  0  0  0  0  0  0  0  0  0  0  0
   -0.0738   -1.9310   -0.9542 H   0  0  0  0  0  0  0  0  0  0  0  0
   -1.0344    1.4271    1.8785 H   0  0  0  0  0  0  0  0  0  0  0  0
   -1.0948   -0.0087   -1.7359 H   0  0  0  0  0  0  0  0  0  0  0  0
   -0.0437    1.3658   -1.3806 H   0  0  0  0  0  0  0  0  0  0  0  0
   -2.7004    0.9188   -0.4345 H   0  0  0  0  0  0  0  0  0  0  0  0
  1  2  3  0
  2  3  1  0
  3  4  1  0
  4  5  1  0
  5  6  1  0
  6  7  2  0
  5  8  1  0
  8  9  1  0
  5  3  1  0
  1 10  1  0
  3 11  1  0
  4 12  1  0
  4 13  1  0
  6 14  1  0
  8 15  1  0
  8 16  1  0
  9 17  1  0
M  END
