
     RDKit          3D

 19 20  0  0  0  0  0  0  0  0999 V2000
    3.1483    1.4280    1.0224 C   0  0  0  0  0  0  0  0  0  0  0  0
    2.2403    0.9250    0.4269 C   0  0  0  0  0  0  0  0  0  0  0  0
    1.1490    0.3195   -0.3173 C   0  0  0  0  0  0  0  0  0  0  0  0
    1.2246   -1.2206   -0.2952 C   0  0  0  0  0  0  0  0  0  0  0  0
   -0.2529   -1.1339   -0.4700 C   0  0  0  0  0  0  0  0  0  0  0  0
   -1.5168   -1.2292   -0.7370 C   0  0  0  0  0  0  0  0  0  0  0  0
   -2.3595   -0.1493   -0.1264 C   0  0  0  0  0  0  0  0  0  0  0  0
   -1.2996    0.9246    0.1037 C   0  0  0  0  0  0  0  0  0  0  0  0
   -0.1160    0.0664    0.4595 C   0  0  0  0  0  0  0  0  0  0  0  0
    3.9597    1.8718    1.5737 H   0  0  0  0  0  0  0  0  0  0  0  0
    0.9653    0.7324   -1.3074 H   0  0  0  0  0  0  0  0  0  0  0  0
    1.5242   -1.5351    0.6976 H   0  0  0  0  0  0  0  0  0  0  0  0
    1.7833   -1.6526   -1.1199 H   0  0  0  0  0  0  0  0  0  0  0  0
   -1.9615   -2.0130   -1.3484 H   0  0  0  0  0  0  0  0  0  0  0  0
   -2.8376   -0.4371    0.8044 H   0  0  0  0  0  0  0  0  0  0  0  0
   -3.0373    0.2321   -0.9169 H   0  0  0  0  0  0  0  0  0  0  0  0
   -1.5610    1.6415    0.8780 H   0  0  0  0  0  0  0  0  0  0  0  0
   -1.0458    1.4717   -0.8212 H   0  0  0  0  0  0  0  0  0  0  0  0
   -0.0068   -0.2420    1.4934 H   0  0  0  0  0  0  0  0  0  0  0  0
  1  2  3  0
  2  3  1  0
  3  4  1  0
  4  5  1  0
  5  6  2  0
  6  7  1  0
  7  8  1  0
  8  9  1  0
  9  3  1  0
  9  5  1  0
  1 10  1  0
  3 11  1  0
  4 12  1  0
  4 13  1  0
  6 14  1  0
  7 15  1  0
  7 16  1  0
  8 17  1  0
  8 18  1  0
  9 19  1  0
M  END
