
     RDKit          3D

 14 14  0  0  0  0  0  0  0  0999 V2000
    2.7280   -0.7571   -0.0674 C   0  0  0  0  0  0  0  0  0  0  0  0
    1.6227   -0.3270   -0.2920 C   0  0  0  0  0  0  0  0  0  0  0  0
    0.2741    0.2056   -0.5693 C   0  0  0  0  0  0  0  0  0  0  0  0
   -0.1218    1.2437    0.4612 C   0  0  0  0  0  0  0  0  0  0  0  0
   -1.5466    1.2572    0.2844 O   0  0  0  0  0  0  0  0  0  0  0  0
   -1.9756   -0.0273   -0.0330 C   0  0  0  0  0  0  0  0  0  0  0  0
   -3.1389   -0.4995   -0.0481 O   0  0  0  0  0  0  0  0  0  0  0  0
   -0.7786   -0.8379   -0.3817 C   0  0  0  0  0  0  0  0  0  0  0  0
    3.7066   -1.1369    0.1505 H   0  0  0  0  0  0  0  0  0  0  0  0
    0.2562    0.6993   -1.5589 H   0  0  0  0  0  0  0  0  0  0  0  0
    0.3069    2.2377    0.2533 H   0  0  0  0  0  0  0  0  0  0  0  0
    0.1451    0.8362    1.4505 H   0  0  0  0  0  0  0  0  0  0  0  0
   -0.9528   -1.4580   -1.2835 H   0  0  0  0  0  0  0  0  0  0  0  0
   -0.5254   -1.4359    0.5073 H   0  0  0  0  0  0  0  0  0  0  0  0
  1  2  3  0
  2  3  1  0
  3  4  1  0
  4  5  1  0
  5  6  1  0
  6  7  2  0
  6  8  1  0
  8  3  1  0
  1  9  1  0
  3 10  1  0
  4 11  1  0
  4 12  1  0
  8 13  1  0
  8 14  1  0
M  END
