
     RDKit          3D

 19 19  0  0  0  0  0  0  0  0999 V2000
   -2.0677    2.5669   -0.3242 C   0  0  0  0  0  0  0  0  0  0  0  0
   -1.3479    1.6775   -0.6429 C   0  0  0  0  0  0  0  0  0  0  0  0
   -0.4936    0.6218   -1.0331 C   0  0  0  0  0  0  0  0  0  0  0  0
   -1.1199   -0.0807   -2.2385 C   0  0  0  0  0  0  0  0  0  0  0  0
   -0.4432   -0.3858   -0.0144 O   0  0  0  0  0  0  0  0  0  0  0  0
    0.8341   -0.3825    0.4546 C   0  0  0  0  0  0  0  0  0  0  0  0
    1.5566   -1.6661    0.6766 C   0  0  0  0  0  0  0  0  0  0  0  0
    2.2784   -0.9550    1.7023 O   0  0  0  0  0  0  0  0  0  0  0  0
    0.9992   -0.3982    1.9831 C   0  0  0  0  0  0  0  0  0  0  0  0
   -2.8054    3.4460   -0.0062 H   0  0  0  0  0  0  0  0  0  0  0  0
    0.5097    0.9988   -1.2061 H   0  0  0  0  0  0  0  0  0  0  0  0
   -1.8661    0.6083   -2.6961 H   0  0  0  0  0  0  0  0  0  0  0  0
   -1.7552   -0.9202   -1.8272 H   0  0  0  0  0  0  0  0  0  0  0  0
   -0.4324   -0.4532   -2.9749 H   0  0  0  0  0  0  0  0  0  0  0  0
    1.5052    0.4166    0.0506 H   0  0  0  0  0  0  0  0  0  0  0  0
    0.9294   -2.4306    1.1918 H   0  0  0  0  0  0  0  0  0  0  0  0
    2.2559   -2.0280   -0.0757 H   0  0  0  0  0  0  0  0  0  0  0  0
    1.0294    0.5832    2.4668 H   0  0  0  0  0  0  0  0  0  0  0  0
    0.4334   -1.2188    2.4839 H   0  0  0  0  0  0  0  0  0  0  0  0
  1  2  3  0
  2  3  1  0
  3  4  1  0
  3  5  1  0
  5  6  1  0
  6  7  1  0
  7  8  1  0
  8  9  1  0
  9  6  1  0
  1 10  1  0
  3 11  1  0
  4 12  1  0
  4 13  1  0
  4 14  1  0
  6 15  1  0
  7 16  1  0
  7 17  1  0
  9 18  1  0
  9 19  1  0
M  END
