
     RDKit          3D

 19 19  0  0  0  0  0  0  0  0999 V2000
    2.8609   -1.0581    0.9703 C   0  0  0  0  0  0  0  0  0  0  0  0
    1.8095   -0.5867    0.6123 C   0  0  0  0  0  0  0  0  0  0  0  0
    0.5444    0.0076    0.1717 C   0  0  0  0  0  0  0  0  0  0  0  0
    0.9187    1.2443   -0.6521 C   0  0  0  0  0  0  0  0  0  0  0  0
   -0.2040   -0.9926   -0.6715 C   0  0  0  0  0  0  0  0  0  0  0  0
   -1.6766   -0.6561   -0.6786 C   0  0  0  0  0  0  0  0  0  0  0  0
   -1.8222    0.6515   -0.2497 O   0  0  0  0  0  0  0  0  0  0  0  0
   -1.4195    0.8438    1.0602 C   0  0  0  0  0  0  0  0  0  0  0  0
   -0.1529    0.3499    1.3201 O   0  0  0  0  0  0  0  0  0  0  0  0
    3.7930   -1.4809    1.3074 H   0  0  0  0  0  0  0  0  0  0  0  0
    1.2782    0.9075   -1.6311 H   0  0  0  0  0  0  0  0  0  0  0  0
    0.1010    1.9825   -0.6844 H   0  0  0  0  0  0  0  0  0  0  0  0
    1.7885    1.7026   -0.1231 H   0  0  0  0  0  0  0  0  0  0  0  0
    0.1847   -1.0213   -1.7197 H   0  0  0  0  0  0  0  0  0  0  0  0
   -0.0905   -2.0223   -0.2642 H   0  0  0  0  0  0  0  0  0  0  0  0
   -2.2280   -1.3797   -0.0475 H   0  0  0  0  0  0  0  0  0  0  0  0
   -2.0352   -0.6905   -1.7328 H   0  0  0  0  0  0  0  0  0  0  0  0
   -2.1217    0.2806    1.7092 H   0  0  0  0  0  0  0  0  0  0  0  0
   -1.5284    1.9179    1.3037 H   0  0  0  0  0  0  0  0  0  0  0  0
  1  2  3  0
  2  3  1  0
  3  4  1  0
  3  5  1  0
  5  6  1  0
  6  7  1  0
  7  8  1  0
  8  9  1  0
  9  3  1  0
  1 10  1  0
  4 11  1  0
  4 12  1  0
  4 13  1  0
  5 14  1  0
  5 15  1  0
  6 16  1  0
  6 17  1  0
  8 18  1  0
  8 19  1  0
M  END
