
     RDKit          3D

 17 18  0  0  0  0  0  0  0  0999 V2000
    3.4360   -1.3269   -0.5043 C   0  0  0  0  0  0  0  0  0  0  0  0
    2.3253   -1.1587   -0.0722 C   0  0  0  0  0  0  0  0  0  0  0  0
    0.9864   -0.9452    0.4741 C   0  0  0  0  0  0  0  0  0  0  0  0
   -0.0649   -1.4585   -0.4590 C   0  0  0  0  0  0  0  0  0  0  0  0
   -0.9990   -0.5542   -0.5662 C   0  0  0  0  0  0  0  0  0  0  0  0
   -0.6221    0.5866    0.2760 C   0  0  0  0  0  0  0  0  0  0  0  0
   -1.1610    1.9054   -0.1070 C   0  0  0  0  0  0  0  0  0  0  0  0
   -1.6030    1.2059    1.1683 C   0  0  0  0  0  0  0  0  0  0  0  0
    0.7126    0.4108    0.6277 O   0  0  0  0  0  0  0  0  0  0  0  0
    4.4176   -1.4923   -0.8851 H   0  0  0  0  0  0  0  0  0  0  0  0
    0.9034   -1.5163    1.4117 H   0  0  0  0  0  0  0  0  0  0  0  0
   -0.0268   -2.4094   -0.9396 H   0  0  0  0  0  0  0  0  0  0  0  0
   -1.8859   -0.6415   -1.1700 H   0  0  0  0  0  0  0  0  0  0  0  0
   -1.9387    2.0006   -0.8924 H   0  0  0  0  0  0  0  0  0  0  0  0
   -0.4999    2.7855   -0.0407 H   0  0  0  0  0  0  0  0  0  0  0  0
   -2.6575    0.8466    1.1935 H   0  0  0  0  0  0  0  0  0  0  0  0
   -1.3225    1.7618    2.0819 H   0  0  0  0  0  0  0  0  0  0  0  0
  1  2  3  0
  2  3  1  0
  3  4  1  0
  4  5  2  0
  5  6  1  0
  6  7  1  0
  7  8  1  0
  6  9  1  0
  9  3  1  0
  8  6  1  0
  1 10  1  0
  3 11  1  0
  4 12  1  0
  5 13  1  0
  7 14  1  0
  7 15  1  0
  8 16  1  0
  8 17  1  0
M  END
