
     RDKit          3D

 17 18  0  0  0  0  0  0  0  0999 V2000
    1.8602    0.7869   -1.3144 C   0  0  0  0  0  0  0  0  0  0  0  0
    0.6242   -0.0084   -1.1112 C   0  0  0  0  0  0  0  0  0  0  0  0
   -0.4146   -0.6846   -0.9425 C   0  0  0  0  0  0  0  0  0  0  0  0
   -0.4372    0.3591    0.5092 C   0  0  0  0  0  0  0  0  0  0  0  0
   -1.5735    1.1810    0.2034 C   0  0  0  0  0  0  0  0  0  0  0  0
    0.7704    0.7275    1.1129 C   0  0  0  0  0  0  0  0  0  0  0  0
   -0.0781   -0.5670    1.4070 O   0  0  0  0  0  0  0  0  0  0  0  0
    0.2328   -2.0848   -0.4745 C   0  0  0  0  0  0  0  0  0  0  0  0
   -1.1494   -1.6768   -0.5089 O   0  0  0  0  0  0  0  0  0  0  0  0
    2.9432    1.4994   -1.5120 H   0  0  0  0  0  0  0  0  0  0  0  0
   -1.9882    1.1601   -0.8944 H   0  0  0  0  0  0  0  0  0  0  0  0
   -2.5208    0.6145    0.7004 H   0  0  0  0  0  0  0  0  0  0  0  0
   -1.5764    2.2601    0.4807 H   0  0  0  0  0  0  0  0  0  0  0  0
    0.6055    1.2241    2.2729 H   0  0  0  0  0  0  0  0  0  0  0  0
    1.7874    0.4196    1.0192 H   0  0  0  0  0  0  0  0  0  0  0  0
    0.4507   -2.7276   -1.4071 H   0  0  0  0  0  0  0  0  0  0  0  0
    0.4640   -2.4833    0.4592 H   0  0  0  0  0  0  0  0  0  0  0  0
  1  2  3  0
  2  3  1  0
  3  4  1  0
  4  5  1  0
  4  6  1  0
  6  7  1  0
  3  8  1  0
  8  9  1  0
  9  3  1  0
  7  4  1  0
  1 10  1  0
  5 11  1  0
  5 12  1  0
  5 13  1  0
  6 14  1  0
  6 15  1  0
  8 16  1  0
  8 17  1  0
M  END
