
     RDKit          3D

 19 19  0  0  0  0  0  0  0  0999 V2000
    1.9590    2.1254   -1.9293 C   0  0  0  0  0  0  0  0  0  0  0  0
    1.7005    0.8381   -1.3141 C   0  0  0  0  0  0  0  0  0  0  0  0
    1.4904   -0.3232   -0.7575 C   0  0  0  0  0  0  0  0  0  0  0  0
    2.5774   -0.5987    0.2237 O   0  0  0  0  0  0  0  0  0  0  0  0
    0.1786   -0.4284    0.0365 C   0  0  0  0  0  0  0  0  0  0  0  0
   -0.0536   -1.2436    1.0335 C   0  0  0  0  0  0  0  0  0  0  0  0
   -1.4634   -1.0018    1.4822 C   0  0  0  0  0  0  0  0  0  0  0  0
   -1.9259    0.2387    0.8255 C   0  0  0  0  0  0  0  0  0  0  0  0
   -0.9758    0.3559   -0.3803 C   0  0  0  0  0  0  0  0  0  0  0  0
    2.1293    2.9958   -2.3421 H   0  0  0  0  0  0  0  0  0  0  0  0
    1.6007   -1.2054   -1.3831 H   0  0  0  0  0  0  0  0  0  0  0  0
    2.7239    0.3663    0.5997 H   0  0  0  0  0  0  0  0  0  0  0  0
    0.5452   -1.9981    1.5226 H   0  0  0  0  0  0  0  0  0  0  0  0
   -1.5147   -1.0105    2.5815 H   0  0  0  0  0  0  0  0  0  0  0  0
   -2.1232   -1.8499    1.1356 H   0  0  0  0  0  0  0  0  0  0  0  0
   -1.7149    1.0803    1.4854 H   0  0  0  0  0  0  0  0  0  0  0  0
   -2.9785    0.1543    0.4411 H   0  0  0  0  0  0  0  0  0  0  0  0
   -0.6678    1.4645   -0.4790 H   0  0  0  0  0  0  0  0  0  0  0  0
   -1.4871    0.0402   -1.2369 H   0  0  0  0  0  0  0  0  0  0  0  0
  1  2  3  0
  2  3  1  0
  3  4  1  0
  3  5  1  0
  5  6  2  0
  6  7  1  0
  7  8  1  0
  8  9  1  0
  9  5  1  0
  1 10  1  0
  3 11  1  0
  4 12  1  0
  6 13  1  0
  7 14  1  0
  7 15  1  0
  8 16  1  0
  8 17  1  0
  9 18  1  0
  9 19  1  0
M  END
