
     RDKit          3D

 18 19  0  0  0  0  0  0  0  0999 V2000
    2.5254    0.6095   -1.4219 C   0  0  0  0  0  0  0  0  0  0  0  0
    1.2732    0.2512   -1.0517 C   0  0  0  0  0  0  0  0  0  0  0  0
   -0.2636   -0.2098   -0.5739 C   0  0  0  0  0  0  0  0  0  0  0  0
   -0.4257   -1.5269   -1.1049 C   0  0  0  0  0  0  0  0  0  0  0  0
    0.4900   -0.4959    0.9668 C   0  0  0  0  0  0  0  0  0  0  0  0
   -0.6597    0.2495    1.4177 C   0  0  0  0  0  0  0  0  0  0  0  0
   -0.8454    1.6687    1.1981 C   0  0  0  0  0  0  0  0  0  0  0  0
   -0.9301    0.8011   -0.0209 C   0  0  0  0  0  0  0  0  0  0  0  0
    3.5927    0.9213   -1.7410 H   0  0  0  0  0  0  0  0  0  0  0  0
    0.1152   -1.8140   -2.0159 H   0  0  0  0  0  0  0  0  0  0  0  0
    0.0820   -2.3342   -0.3351 H   0  0  0  0  0  0  0  0  0  0  0  0
   -1.4494   -1.8547   -1.2225 H   0  0  0  0  0  0  0  0  0  0  0  0
    1.3824    0.2278    0.9189 H   0  0  0  0  0  0  0  0  0  0  0  0
    0.6930   -1.4880    1.0064 H   0  0  0  0  0  0  0  0  0  0  0  0
   -1.5264   -0.3466    1.8742 H   0  0  0  0  0  0  0  0  0  0  0  0
   -1.9219    2.0175    1.5243 H   0  0  0  0  0  0  0  0  0  0  0  0
   -0.0628    2.4117    1.3462 H   0  0  0  0  0  0  0  0  0  0  0  0
   -2.0688    0.9120   -0.3062 H   0  0  0  0  0  0  0  0  0  0  0  0
  1  2  3  0
  2  3  1  0
  3  4  1  0
  3  5  1  0
  5  6  1  0
  6  7  1  0
  7  8  1  0
  8  3  1  0
  8  6  1  0
  1  9  1  0
  4 10  1  0
  4 11  1  0
  4 12  1  0
  5 13  1  0
  5 14  1  0
  6 15  1  0
  7 16  1  0
  7 17  1  0
  8 18  1  0
M  END
