
     RDKit          3D

 17 17  0  0  0  0  0  0  0  0999 V2000
    1.6241   -1.2341   -2.2330 C   0  0  0  0  0  0  0  0  0  0  0  0
    1.0781   -1.0286   -1.2449 C   0  0  0  0  0  0  0  0  0  0  0  0
    0.3530   -0.7306    0.1102 C   0  0  0  0  0  0  0  0  0  0  0  0
    0.7479   -1.2740    1.2061 C   0  0  0  0  0  0  0  0  0  0  0  0
    1.1545   -1.8729    2.4029 C   0  0  0  0  0  0  0  0  0  0  0  0
   -1.0641   -0.9187   -0.2561 O   0  0  0  0  0  0  0  0  0  0  0  0
   -0.6689    0.3651   -0.0576 C   0  0  0  0  0  0  0  0  0  0  0  0
   -0.3552    1.3106   -1.1752 C   0  0  0  0  0  0  0  0  0  0  0  0
   -1.2650    1.0288    1.1580 C   0  0  0  0  0  0  0  0  0  0  0  0
    2.1714   -1.4200   -3.2029 H   0  0  0  0  0  0  0  0  0  0  0  0
    1.4679   -2.3065    3.2851 H   0  0  0  0  0  0  0  0  0  0  0  0
    0.7197    1.5954   -1.1971 H   0  0  0  0  0  0  0  0  0  0  0  0
   -0.6796    0.9073   -2.1827 H   0  0  0  0  0  0  0  0  0  0  0  0
   -0.9618    2.2342   -1.0136 H   0  0  0  0  0  0  0  0  0  0  0  0
   -1.0417    0.3186    2.0190 H   0  0  0  0  0  0  0  0  0  0  0  0
   -2.3868    0.9935    1.0523 H   0  0  0  0  0  0  0  0  0  0  0  0
   -0.8934    2.0319    1.3296 H   0  0  0  0  0  0  0  0  0  0  0  0
  1  2  3  0
  2  3  1  0
  3  4  1  0
  4  5  3  0
  3  6  1  0
  6  7  1  0
  7  8  1  0
  7  9  1  0
  7  3  1  0
  1 10  1  0
  5 11  1  0
  8 12  1  0
  8 13  1  0
  8 14  1  0
  9 15  1  0
  9 16  1  0
  9 17  1  0
M  END
