
     RDKit          3D

 12 11  0  0  0  0  0  0  0  0999 V2000
    3.5794    1.9448    1.2434 C   0  0  0  0  0  0  0  0  0  0  0  0
    2.6890    1.4449    0.8462 C   0  0  0  0  0  0  0  0  0  0  0  0
    1.5005    0.7565    0.2930 C   0  0  0  0  0  0  0  0  0  0  0  0
    0.5253    0.1677   -0.1708 C   0  0  0  0  0  0  0  0  0  0  0  0
   -0.6121   -0.5480   -0.7234 C   0  0  0  0  0  0  0  0  0  0  0  0
   -1.5730   -0.6716    0.2279 O   0  0  0  0  0  0  0  0  0  0  0  0
   -2.8114   -1.2058    0.2881 C   0  0  0  0  0  0  0  0  0  0  0  0
   -3.1718   -1.7193   -0.8546 O   0  0  0  0  0  0  0  0  0  0  0  0
    4.5010    2.4749    1.6750 H   0  0  0  0  0  0  0  0  0  0  0  0
   -0.2335   -1.4909   -1.2130 H   0  0  0  0  0  0  0  0  0  0  0  0
   -0.9553    0.0658   -1.6294 H   0  0  0  0  0  0  0  0  0  0  0  0
   -3.4380   -1.2190    1.1420 H   0  0  0  0  0  0  0  0  0  0  0  0
  1  2  3  0
  2  3  1  0
  3  4  3  0
  4  5  1  0
  5  6  1  0
  6  7  1  0
  7  8  2  0
  1  9  1  0
  5 10  1  0
  5 11  1  0
  7 12  1  0
M  END
