
     RDKit          3D

 13 13  0  0  0  0  0  0  0  0999 V2000
    3.9984    0.7385   -0.0353 C   0  0  0  0  0  0  0  0  0  0  0  0
    2.8868    0.2627    0.0099 C   0  0  0  0  0  0  0  0  0  0  0  0
    1.5875   -0.3003    0.0847 C   0  0  0  0  0  0  0  0  0  0  0  0
    0.4764   -0.7989    0.1429 C   0  0  0  0  0  0  0  0  0  0  0  0
   -0.8462   -1.4197    0.2087 C   0  0  0  0  0  0  0  0  0  0  0  0
   -1.5258   -1.3111   -1.1096 O   0  0  0  0  0  0  0  0  0  0  0  0
   -2.0130   -0.6524    0.1493 C   0  0  0  0  0  0  0  0  0  0  0  0
   -1.9350    0.8102    0.0547 C   0  0  0  0  0  0  0  0  0  0  0  0
   -1.8781    2.0135   -0.0122 C   0  0  0  0  0  0  0  0  0  0  0  0
    4.9713    1.1589   -0.0573 H   0  0  0  0  0  0  0  0  0  0  0  0
   -0.8724   -2.5073    0.4871 H   0  0  0  0  0  0  0  0  0  0  0  0
   -3.0136   -1.0841    0.3855 H   0  0  0  0  0  0  0  0  0  0  0  0
   -1.8364    3.0900   -0.0555 H   0  0  0  0  0  0  0  0  0  0  0  0
  1  2  3  0
  2  3  1  0
  3  4  3  0
  4  5  1  0
  5  6  1  0
  6  7  1  0
  7  8  1  0
  8  9  3  0
  7  5  1  0
  1 10  1  0
  5 11  1  0
  7 12  1  0
  9 13  1  0
M  END
