
     RDKit          3D

 17 18  0  0  0  0  0  0  0  0999 V2000
   -1.1226    1.4165    2.1809 C   0  0  0  0  0  0  0  0  0  0  0  0
   -0.9771    0.5393    1.3699 C   0  0  0  0  0  0  0  0  0  0  0  0
   -0.8079   -0.5209    0.4092 C   0  0  0  0  0  0  0  0  0  0  0  0
   -1.4929   -1.8562    0.6367 C   0  0  0  0  0  0  0  0  0  0  0  0
   -1.1038   -0.0565   -0.9653 O   0  0  0  0  0  0  0  0  0  0  0  0
    0.2582   -0.4799   -0.5346 C   0  0  0  0  0  0  0  0  0  0  0  0
    1.1947    0.6599   -0.7614 C   0  0  0  0  0  0  0  0  0  0  0  0
    2.2018    1.0487    0.2020 C   0  0  0  0  0  0  0  0  0  0  0  0
    0.9927    1.8737   -0.1270 O   0  0  0  0  0  0  0  0  0  0  0  0
   -1.2381    2.1947    2.9163 H   0  0  0  0  0  0  0  0  0  0  0  0
   -1.0062   -2.4415    1.4444 H   0  0  0  0  0  0  0  0  0  0  0  0
   -2.5224   -1.6085    1.0126 H   0  0  0  0  0  0  0  0  0  0  0  0
   -1.6306   -2.4226   -0.2912 H   0  0  0  0  0  0  0  0  0  0  0  0
    0.5728   -1.4254   -1.0379 H   0  0  0  0  0  0  0  0  0  0  0  0
    1.4652    0.7945   -1.8508 H   0  0  0  0  0  0  0  0  0  0  0  0
    3.1247    1.5183   -0.1471 H   0  0  0  0  0  0  0  0  0  0  0  0
    2.0916    0.7659    1.2690 H   0  0  0  0  0  0  0  0  0  0  0  0
  1  2  3  0
  2  3  1  0
  3  4  1  0
  3  5  1  0
  5  6  1  0
  6  7  1  0
  7  8  1  0
  8  9  1  0
  6  3  1  0
  9  7  1  0
  1 10  1  0
  4 11  1  0
  4 12  1  0
  4 13  1  0
  6 14  1  0
  7 15  1  0
  8 16  1  0
  8 17  1  0
M  END
