
     RDKit          3D

 21 20  0  0  0  0  0  0  0  0999 V2000
    2.5523    1.3197    1.1310 C   0  0  0  0  0  0  0  0  0  0  0  0
    2.1588    0.3234    0.5276 C   0  0  0  0  0  0  0  0  0  0  0  0
    1.6986   -0.8672   -0.1645 C   0  0  0  0  0  0  0  0  0  0  0  0
    0.4039   -0.6508   -0.8472 C   0  0  0  0  0  0  0  0  0  0  0  0
   -0.7358   -0.3044    0.0404 C   0  0  0  0  0  0  0  0  0  0  0  0
   -0.6211    0.9389    0.8456 C   0  0  0  0  0  0  0  0  0  0  0  0
   -0.9274   -1.4079    0.9137 O   0  0  0  0  0  0  0  0  0  0  0  0
   -2.0057   -0.2365   -0.8035 C   0  0  0  0  0  0  0  0  0  0  0  0
   -1.9216    0.8092   -1.6908 O   0  0  0  0  0  0  0  0  0  0  0  0
    2.8839    2.1729    1.6671 H   0  0  0  0  0  0  0  0  0  0  0  0
    1.5844   -1.7245    0.5727 H   0  0  0  0  0  0  0  0  0  0  0  0
    2.5050   -1.2123   -0.8664 H   0  0  0  0  0  0  0  0  0  0  0  0
    0.1659   -1.6324   -1.3703 H   0  0  0  0  0  0  0  0  0  0  0  0
    0.5003    0.0702   -1.6952 H   0  0  0  0  0  0  0  0  0  0  0  0
   -0.1391    1.7776    0.3334 H   0  0  0  0  0  0  0  0  0  0  0  0
   -1.6638    1.2791    1.0837 H   0  0  0  0  0  0  0  0  0  0  0  0
   -0.1482    0.7156    1.7968 H   0  0  0  0  0  0  0  0  0  0  0  0
   -0.1872   -1.4668    1.5466 H   0  0  0  0  0  0  0  0  0  0  0  0
   -2.8827   -0.1559   -0.1337 H   0  0  0  0  0  0  0  0  0  0  0  0
   -2.0464   -1.1858   -1.3636 H   0  0  0  0  0  0  0  0  0  0  0  0
   -1.1740    1.4377   -1.5236 H   0  0  0  0  0  0  0  0  0  0  0  0
  1  2  3  0
  2  3  1  0
  3  4  1  0
  4  5  1  0
  5  6  1  0
  5  7  1  0
  5  8  1  0
  8  9  1  0
  1 10  1  0
  3 11  1  0
  3 12  1  0
  4 13  1  0
  4 14  1  0
  6 15  1  0
  6 16  1  0
  6 17  1  0
  7 18  1  0
  8 19  1  0
  8 20  1  0
  9 21  1  0
M  END
