
     RDKit          3D

 21 20  0  0  0  0  0  0  0  0999 V2000
    1.5450    1.6446   -1.9174 C   0  0  0  0  0  0  0  0  0  0  0  0
    0.9515    0.7500   -1.3500 C   0  0  0  0  0  0  0  0  0  0  0  0
    0.2404   -0.3420   -0.6872 C   0  0  0  0  0  0  0  0  0  0  0  0
    1.1758   -1.5093   -0.4184 C   0  0  0  0  0  0  0  0  0  0  0  0
    1.7024   -1.9886   -1.6165 O   0  0  0  0  0  0  0  0  0  0  0  0
   -0.4736    0.1136    0.5361 C   0  0  0  0  0  0  0  0  0  0  0  0
    0.3896    0.7040    1.5905 C   0  0  0  0  0  0  0  0  0  0  0  0
   -1.4207    1.0635    0.1593 O   0  0  0  0  0  0  0  0  0  0  0  0
   -2.7102    0.5838    0.4460 C   0  0  0  0  0  0  0  0  0  0  0  0
    2.0663    2.4137   -2.4247 H   0  0  0  0  0  0  0  0  0  0  0  0
   -0.5375   -0.7405   -1.3913 H   0  0  0  0  0  0  0  0  0  0  0  0
    2.0420   -1.1843    0.2234 H   0  0  0  0  0  0  0  0  0  0  0  0
    0.6392   -2.3391    0.0535 H   0  0  0  0  0  0  0  0  0  0  0  0
    2.5765   -2.4370   -1.4976 H   0  0  0  0  0  0  0  0  0  0  0  0
   -1.0021   -0.7775    0.9667 H   0  0  0  0  0  0  0  0  0  0  0  0
    0.3572    0.1114    2.5448 H   0  0  0  0  0  0  0  0  0  0  0  0
    1.4547    0.8134    1.3177 H   0  0  0  0  0  0  0  0  0  0  0  0
    0.0518    1.7329    1.8932 H   0  0  0  0  0  0  0  0  0  0  0  0
   -3.4616    1.3244    0.1529 H   0  0  0  0  0  0  0  0  0  0  0  0
   -2.8021   -0.3711   -0.1175 H   0  0  0  0  0  0  0  0  0  0  0  0
   -2.7845    0.4342    1.5363 H   0  0  0  0  0  0  0  0  0  0  0  0
  1  2  3  0
  2  3  1  0
  3  4  1  0
  4  5  1  0
  3  6  1  0
  6  7  1  0
  6  8  1  0
  8  9  1  0
  1 10  1  0
  3 11  1  0
  4 12  1  0
  4 13  1  0
  5 14  1  0
  6 15  1  0
  7 16  1  0
  7 17  1  0
  7 18  1  0
  9 19  1  0
  9 20  1  0
  9 21  1  0
M  END
