
     RDKit          3D

 19 19  0  0  0  0  0  0  0  0999 V2000
    2.3934   -0.0096   -1.9409 C   0  0  0  0  0  0  0  0  0  0  0  0
    1.3395    0.0870   -1.3365 C   0  0  0  0  0  0  0  0  0  0  0  0
    0.0662    0.2247   -0.6025 C   0  0  0  0  0  0  0  0  0  0  0  0
   -1.0161   -0.4605   -1.3012 C   0  0  0  0  0  0  0  0  0  0  0  0
   -0.2017    1.5110   -0.2654 O   0  0  0  0  0  0  0  0  0  0  0  0
    0.1723    1.7346    1.0684 C   0  0  0  0  0  0  0  0  0  0  0  0
    0.9283    0.6005    1.4331 O   0  0  0  0  0  0  0  0  0  0  0  0
    0.3698   -0.4391    0.7672 C   0  0  0  0  0  0  0  0  0  0  0  0
   -0.8445   -1.0425    1.3545 C   0  0  0  0  0  0  0  0  0  0  0  0
    3.3179   -0.0885   -2.4517 H   0  0  0  0  0  0  0  0  0  0  0  0
   -2.0451   -0.1619   -0.9353 H   0  0  0  0  0  0  0  0  0  0  0  0
   -0.9380   -1.5617   -1.4254 H   0  0  0  0  0  0  0  0  0  0  0  0
   -1.0136   -0.0571   -2.3514 H   0  0  0  0  0  0  0  0  0  0  0  0
   -0.7229    1.7484    1.7090 H   0  0  0  0  0  0  0  0  0  0  0  0
    0.7512    2.6494    1.2280 H   0  0  0  0  0  0  0  0  0  0  0  0
    1.1213   -1.2092    0.5694 H   0  0  0  0  0  0  0  0  0  0  0  0
   -1.4188   -1.6087    0.5726 H   0  0  0  0  0  0  0  0  0  0  0  0
   -0.7265   -1.6956    2.2086 H   0  0  0  0  0  0  0  0  0  0  0  0
   -1.5325   -0.2211    1.6996 H   0  0  0  0  0  0  0  0  0  0  0  0
  1  2  3  0
  2  3  1  0
  3  4  1  0
  3  5  1  0
  5  6  1  0
  6  7  1  0
  7  8  1  0
  8  9  1  0
  8  3  1  0
  1 10  1  0
  4 11  1  0
  4 12  1  0
  4 13  1  0
  6 14  1  0
  6 15  1  0
  8 16  1  0
  9 17  1  0
  9 18  1  0
  9 19  1  0
M  END
