
     RDKit          3D

 11 10  0  0  0  0  0  0  0  0999 V2000
    1.6973    0.7658    1.3020 C   0  0  0  0  0  0  0  0  0  0  0  0
    1.1242   -0.0145    0.6124 C   0  0  0  0  0  0  0  0  0  0  0  0
    0.4318   -0.9870   -0.2602 C   0  0  0  0  0  0  0  0  0  0  0  0
   -0.9362   -0.8970   -0.1372 O   0  0  0  0  0  0  0  0  0  0  0  0
   -1.4207    0.3651   -0.4790 C   0  0  0  0  0  0  0  0  0  0  0  0
    2.2033    1.4861    1.9258 H   0  0  0  0  0  0  0  0  0  0  0  0
    0.7779   -0.9038   -1.3145 H   0  0  0  0  0  0  0  0  0  0  0  0
    0.7352   -1.9892    0.1070 H   0  0  0  0  0  0  0  0  0  0  0  0
   -2.5148    0.4392   -0.3811 H   0  0  0  0  0  0  0  0  0  0  0  0
   -0.9252    1.1309    0.1594 H   0  0  0  0  0  0  0  0  0  0  0  0
   -1.1728    0.6044   -1.5345 H   0  0  0  0  0  0  0  0  0  0  0  0
  1  2  3  0
  2  3  1  0
  3  4  1  0
  4  5  1  0
  1  6  1  0
  3  7  1  0
  3  8  1  0
  5  9  1  0
  5 10  1  0
  5 11  1  0
M  END
