
     RDKit          3D

 17 17  0  0  0  0  0  0  0  0999 V2000
    3.2441   -0.2843   -0.1561 C   0  0  0  0  0  0  0  0  0  0  0  0
    2.2276    0.2288    0.2766 C   0  0  0  0  0  0  0  0  0  0  0  0
    1.0005    0.8202    0.7900 C   0  0  0  0  0  0  0  0  0  0  0  0
   -0.0911    0.5747   -0.2386 C   0  0  0  0  0  0  0  0  0  0  0  0
   -0.2664   -0.9149   -0.4409 C   0  0  0  0  0  0  0  0  0  0  0  0
   -1.6749   -1.1941   -0.0712 C   0  0  0  0  0  0  0  0  0  0  0  0
   -2.2826   -0.1075    0.3729 C   0  0  0  0  0  0  0  0  0  0  0  0
   -1.3753    1.0239    0.3591 C   0  0  0  0  0  0  0  0  0  0  0  0
   -1.6348    2.1748    0.7789 O   0  0  0  0  0  0  0  0  0  0  0  0
    4.1339   -0.7137   -0.5370 H   0  0  0  0  0  0  0  0  0  0  0  0
    0.6794    0.3044    1.7217 H   0  0  0  0  0  0  0  0  0  0  0  0
    1.0973    1.8905    1.0199 H   0  0  0  0  0  0  0  0  0  0  0  0
    0.0836    1.0995   -1.1840 H   0  0  0  0  0  0  0  0  0  0  0  0
   -0.0504   -1.2216   -1.4786 H   0  0  0  0  0  0  0  0  0  0  0  0
    0.3672   -1.4578    0.2847 H   0  0  0  0  0  0  0  0  0  0  0  0
   -2.1416   -2.1601   -0.1547 H   0  0  0  0  0  0  0  0  0  0  0  0
   -3.3165   -0.0627    0.7031 H   0  0  0  0  0  0  0  0  0  0  0  0
  1  2  3  0
  2  3  1  0
  3  4  1  0
  4  5  1  0
  5  6  1  0
  6  7  2  0
  7  8  1  0
  8  9  2  0
  8  4  1  0
  1 10  1  0
  3 11  1  0
  3 12  1  0
  4 13  1  0
  5 14  1  0
  5 15  1  0
  6 16  1  0
  7 17  1  0
M  END
