
     RDKit          3D

 19 20  0  0  0  0  0  0  0  0999 V2000
    2.9450    1.4611    0.1582 C   0  0  0  0  0  0  0  0  0  0  0  0
    2.2231    0.5694   -0.2432 C   0  0  0  0  0  0  0  0  0  0  0  0
    1.3830   -0.5064   -0.7127 C   0  0  0  0  0  0  0  0  0  0  0  0
    0.2351   -0.7090    0.2203 C   0  0  0  0  0  0  0  0  0  0  0  0
   -0.7830   -1.7935   -0.0763 C   0  0  0  0  0  0  0  0  0  0  0  0
   -1.8344   -0.7465    0.2520 C   0  0  0  0  0  0  0  0  0  0  0  0
   -0.7009    0.1406    0.7145 C   0  0  0  0  0  0  0  0  0  0  0  0
   -0.9302    1.5977    0.5915 C   0  0  0  0  0  0  0  0  0  0  0  0
    0.2858   -0.3329    1.5358 O   0  0  0  0  0  0  0  0  0  0  0  0
    3.5819    2.2403    0.4915 H   0  0  0  0  0  0  0  0  0  0  0  0
    1.9641   -1.4574   -0.7658 H   0  0  0  0  0  0  0  0  0  0  0  0
    1.0010   -0.3339   -1.7519 H   0  0  0  0  0  0  0  0  0  0  0  0
   -0.7486   -2.1288   -1.1156 H   0  0  0  0  0  0  0  0  0  0  0  0
   -0.6872   -2.5866    0.7056 H   0  0  0  0  0  0  0  0  0  0  0  0
   -2.2551   -0.3302   -0.6931 H   0  0  0  0  0  0  0  0  0  0  0  0
   -2.5539   -1.0139    1.0255 H   0  0  0  0  0  0  0  0  0  0  0  0
   -1.9790    1.8094    0.9441 H   0  0  0  0  0  0  0  0  0  0  0  0
   -0.2793    2.1943    1.2646 H   0  0  0  0  0  0  0  0  0  0  0  0
   -0.8673    1.9263   -0.4680 H   0  0  0  0  0  0  0  0  0  0  0  0
  1  2  3  0
  2  3  1  0
  3  4  1  0
  4  5  1  0
  5  6  1  0
  6  7  1  0
  7  8  1  0
  7  9  1  0
  7  4  1  0
  9  4  1  0
  1 10  1  0
  3 11  1  0
  3 12  1  0
  5 13  1  0
  5 14  1  0
  6 15  1  0
  6 16  1  0
  8 17  1  0
  8 18  1  0
  8 19  1  0
M  END
