
     RDKit          3D

 14 15  0  0  0  0  0  0  0  0999 V2000
    2.8802    1.3662    0.5306 C   0  0  0  0  0  0  0  0  0  0  0  0
    1.8307    0.7801    0.7173 C   0  0  0  0  0  0  0  0  0  0  0  0
    0.5892    0.0852    0.9628 C   0  0  0  0  0  0  0  0  0  0  0  0
    0.5297   -1.0261    0.0818 O   0  0  0  0  0  0  0  0  0  0  0  0
   -0.8239   -1.1225   -0.0277 C   0  0  0  0  0  0  0  0  0  0  0  0
   -1.7841   -0.6645   -0.9400 C   0  0  0  0  0  0  0  0  0  0  0  0
   -0.9304    0.3750   -0.5380 C   0  0  0  0  0  0  0  0  0  0  0  0
   -0.5365    0.8885    0.6516 O   0  0  0  0  0  0  0  0  0  0  0  0
    3.7944    1.8814    0.3858 H   0  0  0  0  0  0  0  0  0  0  0  0
    0.4498   -0.2821    1.9767 H   0  0  0  0  0  0  0  0  0  0  0  0
   -1.2205   -1.2976    1.0242 H   0  0  0  0  0  0  0  0  0  0  0  0
   -2.8713   -0.5987   -0.6405 H   0  0  0  0  0  0  0  0  0  0  0  0
   -1.7484   -1.0589   -1.9959 H   0  0  0  0  0  0  0  0  0  0  0  0
   -0.1587    0.6739   -1.3171 H   0  0  0  0  0  0  0  0  0  0  0  0
  1  2  3  0
  2  3  1  0
  3  4  1  0
  4  5  1  0
  5  6  1  0
  6  7  1  0
  7  8  1  0
  8  3  1  0
  7  5  1  0
  1  9  1  0
  3 10  1  0
  5 11  1  0
  6 12  1  0
  6 13  1  0
  7 14  1  0
M  END
