
     RDKit          3D

 19 19  0  0  0  0  0  0  0  0999 V2000
    1.3380    3.0652   -1.4049 C   0  0  0  0  0  0  0  0  0  0  0  0
    1.6286    1.9659   -0.9702 C   0  0  0  0  0  0  0  0  0  0  0  0
    1.9921    0.6455   -0.4532 C   0  0  0  0  0  0  0  0  0  0  0  0
    0.7885   -0.1795   -0.1598 C   0  0  0  0  0  0  0  0  0  0  0  0
   -0.4831    0.1619   -0.3177 C   0  0  0  0  0  0  0  0  0  0  0  0
   -1.3358   -1.0047    0.1148 C   0  0  0  0  0  0  0  0  0  0  0  0
   -2.4382   -0.5483    1.0269 C   0  0  0  0  0  0  0  0  0  0  0  0
   -0.4733   -1.8684    0.7759 O   0  0  0  0  0  0  0  0  0  0  0  0
    0.8152   -1.5488    0.3691 C   0  0  0  0  0  0  0  0  0  0  0  0
    1.0713    4.0226   -1.7861 H   0  0  0  0  0  0  0  0  0  0  0  0
    2.6272    0.1605   -1.2365 H   0  0  0  0  0  0  0  0  0  0  0  0
    2.5900    0.7898    0.4719 H   0  0  0  0  0  0  0  0  0  0  0  0
   -0.8858    1.0836   -0.6816 H   0  0  0  0  0  0  0  0  0  0  0  0
   -1.7871   -1.5238   -0.7422 H   0  0  0  0  0  0  0  0  0  0  0  0
   -2.8895   -1.4373    1.5053 H   0  0  0  0  0  0  0  0  0  0  0  0
   -2.0355    0.1087    1.8463 H   0  0  0  0  0  0  0  0  0  0  0  0
   -3.2210   -0.0298    0.4547 H   0  0  0  0  0  0  0  0  0  0  0  0
    1.5546   -1.5896    1.1884 H   0  0  0  0  0  0  0  0  0  0  0  0
    1.1437   -2.2736   -0.4041 H   0  0  0  0  0  0  0  0  0  0  0  0
  1  2  3  0
  2  3  1  0
  3  4  1  0
  4  5  2  0
  5  6  1  0
  6  7  1  0
  6  8  1  0
  8  9  1  0
  9  4  1  0
  1 10  1  0
  3 11  1  0
  3 12  1  0
  5 13  1  0
  6 14  1  0
  7 15  1  0
  7 16  1  0
  7 17  1  0
  9 18  1  0
  9 19  1  0
M  END
