
     RDKit          3D

 17 18  0  0  0  0  0  0  0  0999 V2000
    2.5503    1.2035    1.4129 C   0  0  0  0  0  0  0  0  0  0  0  0
    1.1127    0.1527    0.4866 C   0  0  0  0  0  0  0  0  0  0  0  0
    0.0032   -0.6729   -0.2138 C   0  0  0  0  0  0  0  0  0  0  0  0
    0.3498   -1.7947    0.6375 C   0  0  0  0  0  0  0  0  0  0  0  0
   -0.8881   -0.1519    1.0021 O   0  0  0  0  0  0  0  0  0  0  0  0
   -1.3204    0.8350    0.2015 C   0  0  0  0  0  0  0  0  0  0  0  0
   -2.2303    0.6783   -0.9210 C   0  0  0  0  0  0  0  0  0  0  0  0
   -0.6326    0.2908   -0.9508 C   0  0  0  0  0  0  0  0  0  0  0  0
    0.0590    1.3699   -1.7716 O   0  0  0  0  0  0  0  0  0  0  0  0
    3.4416    1.8338    1.9644 H   0  0  0  0  0  0  0  0  0  0  0  0
    0.4671   -1.6517    1.7571 H   0  0  0  0  0  0  0  0  0  0  0  0
    1.7233   -1.5801    0.3915 H   0  0  0  0  0  0  0  0  0  0  0  0
    0.5438   -2.8266    0.1536 H   0  0  0  0  0  0  0  0  0  0  0  0
   -0.9061    1.9724    0.6208 H   0  0  0  0  0  0  0  0  0  0  0  0
   -2.1012    0.1233   -1.9963 H   0  0  0  0  0  0  0  0  0  0  0  0
   -2.8129   -0.4473   -0.5285 H   0  0  0  0  0  0  0  0  0  0  0  0
    0.6408    0.6655   -2.2461 H   0  0  0  0  0  0  0  0  0  0  0  0
  1  2  3  0
  2  3  1  0
  3  4  1  0
  3  5  1  0
  5  6  1  0
  6  7  1  0
  7  8  1  0
  8  9  1  0
  8  3  1  0
  8  6  1  0
  1 10  1  0
  4 11  1  0
  4 12  1  0
  4 13  1  0
  6 14  1  0
  7 15  1  0
  7 16  1  0
  9 17  1  0
M  END
