
     RDKit          3D

 17 17  0  0  0  0  0  0  0  0999 V2000
    3.0612   -0.4670    0.7503 C   0  0  0  0  0  0  0  0  0  0  0  0
    2.1452    0.1748    0.1668 C   0  0  0  0  0  0  0  0  0  0  0  0
    1.0847    0.9243   -0.5082 C   0  0  0  0  0  0  0  0  0  0  0  0
    1.2341    1.8769   -1.0955 O   0  0  0  0  0  0  0  0  0  0  0  0
   -0.2652    0.2214   -0.3203 C   0  0  0  0  0  0  0  0  0  0  0  0
   -1.0018    0.8214    0.8608 C   0  0  0  0  0  0  0  0  0  0  0  0
   -2.2187    0.1971    1.1108 O   0  0  0  0  0  0  0  0  0  0  0  0
   -0.2737   -1.2613   -0.4074 C   0  0  0  0  0  0  0  0  0  0  0  0
   -0.8459   -0.3990   -1.4707 C   0  0  0  0  0  0  0  0  0  0  0  0
    3.9812   -1.1157    1.3129 H   0  0  0  0  0  0  0  0  0  0  0  0
   -0.3528    0.8488    1.7328 H   0  0  0  0  0  0  0  0  0  0  0  0
   -1.2006    1.9040    0.6158 H   0  0  0  0  0  0  0  0  0  0  0  0
   -2.6533    0.7392    1.8213 H   0  0  0  0  0  0  0  0  0  0  0  0
   -1.0508   -1.8994    0.1724 H   0  0  0  0  0  0  0  0  0  0  0  0
    0.6682   -1.7675   -0.6218 H   0  0  0  0  0  0  0  0  0  0  0  0
   -1.9942   -0.3730   -1.6508 H   0  0  0  0  0  0  0  0  0  0  0  0
   -0.3177   -0.4249   -2.4692 H   0  0  0  0  0  0  0  0  0  0  0  0
  1  2  3  0
  2  3  1  0
  3  4  2  0
  3  5  1  0
  5  6  1  0
  6  7  1  0
  5  8  1  0
  8  9  1  0
  9  5  1  0
  1 10  1  0
  6 11  1  0
  6 12  1  0
  7 13  1  0
  8 14  1  0
  8 15  1  0
  9 16  1  0
  9 17  1  0
M  END
