
     RDKit          3D

 19 19  0  0  0  0  0  0  0  0999 V2000
    3.5236   -0.2846    0.3486 C   0  0  0  0  0  0  0  0  0  0  0  0
    2.3794   -0.2111    0.0034 C   0  0  0  0  0  0  0  0  0  0  0  0
    1.0060   -0.0997   -0.4052 C   0  0  0  0  0  0  0  0  0  0  0  0
    0.1013   -1.1224    0.2859 C   0  0  0  0  0  0  0  0  0  0  0  0
   -1.2558   -0.5502   -0.0960 C   0  0  0  0  0  0  0  0  0  0  0  0
   -2.2899   -1.1922    0.5526 O   0  0  0  0  0  0  0  0  0  0  0  0
   -1.0884    0.8769    0.3129 C   0  0  0  0  0  0  0  0  0  0  0  0
   -1.9543    1.7419   -0.3494 O   0  0  0  0  0  0  0  0  0  0  0  0
    0.3525    1.1960    0.0345 C   0  0  0  0  0  0  0  0  0  0  0  0
    4.5291   -0.3435    0.6696 H   0  0  0  0  0  0  0  0  0  0  0  0
    0.8834   -0.1903   -1.4973 H   0  0  0  0  0  0  0  0  0  0  0  0
    0.2218   -0.9838    1.3698 H   0  0  0  0  0  0  0  0  0  0  0  0
    0.2618   -2.1363   -0.0719 H   0  0  0  0  0  0  0  0  0  0  0  0
   -1.3127   -0.6302   -1.2076 H   0  0  0  0  0  0  0  0  0  0  0  0
   -2.4341   -2.0736    0.1648 H   0  0  0  0  0  0  0  0  0  0  0  0
   -1.3449    0.9536    1.3973 H   0  0  0  0  0  0  0  0  0  0  0  0
   -2.8672    1.4684   -0.1106 H   0  0  0  0  0  0  0  0  0  0  0  0
    0.8632    1.5895    0.9576 H   0  0  0  0  0  0  0  0  0  0  0  0
    0.4252    1.9918   -0.7306 H   0  0  0  0  0  0  0  0  0  0  0  0
  1  2  3  0
  2  3  1  0
  3  4  1  0
  4  5  1  0
  5  6  1  0
  5  7  1  0
  7  8  1  0
  7  9  1  0
  9  3  1  0
  1 10  1  0
  3 11  1  0
  4 12  1  0
  4 13  1  0
  5 14  1  0
  6 15  1  0
  7 16  1  0
  8 17  1  0
  9 18  1  0
  9 19  1  0
M  END
