
     RDKit          3D

 17 17  0  0  0  0  0  0  0  0999 V2000
    2.2200   -2.9758    0.8616 C   0  0  0  0  0  0  0  0  0  0  0  0
    1.5793   -1.9559    1.0919 C   0  0  0  0  0  0  0  0  0  0  0  0
    0.8308   -0.7590    1.3366 C   0  0  0  0  0  0  0  0  0  0  0  0
    0.7334   -0.3548    2.5162 O   0  0  0  0  0  0  0  0  0  0  0  0
    0.1794    0.0101    0.2908 C   0  0  0  0  0  0  0  0  0  0  0  0
    0.1758   -0.2670   -1.0126 C   0  0  0  0  0  0  0  0  0  0  0  0
   -0.5892    0.7382   -1.7667 C   0  0  0  0  0  0  0  0  0  0  0  0
   -1.5415    1.2384   -0.6713 C   0  0  0  0  0  0  0  0  0  0  0  0
   -0.5948    1.2483    0.5084 C   0  0  0  0  0  0  0  0  0  0  0  0
    2.7694   -3.8520    0.6825 H   0  0  0  0  0  0  0  0  0  0  0  0
    0.6716   -1.1175   -1.4403 H   0  0  0  0  0  0  0  0  0  0  0  0
   -0.0032    1.6178   -2.0721 H   0  0  0  0  0  0  0  0  0  0  0  0
   -1.1500    0.3314   -2.6226 H   0  0  0  0  0  0  0  0  0  0  0  0
   -1.9317    2.2376   -0.9017 H   0  0  0  0  0  0  0  0  0  0  0  0
   -2.3221    0.4661   -0.5358 H   0  0  0  0  0  0  0  0  0  0  0  0
    0.0958    2.1221    0.3813 H   0  0  0  0  0  0  0  0  0  0  0  0
   -1.1229    1.2721    1.4740 H   0  0  0  0  0  0  0  0  0  0  0  0
  1  2  3  0
  2  3  1  0
  3  4  2  0
  3  5  1  0
  5  6  2  0
  6  7  1  0
  7  8  1  0
  8  9  1  0
  9  5  1  0
  1 10  1  0
  6 11  1  0
  7 12  1  0
  7 13  1  0
  8 14  1  0
  8 15  1  0
  9 16  1  0
  9 17  1  0
M  END
