
     RDKit          3D

 17 17  0  0  0  0  0  0  0  0999 V2000
    2.4898    1.4836   -0.7902 C   0  0  0  0  0  0  0  0  0  0  0  0
    2.2005    0.3190   -0.6017 C   0  0  0  0  0  0  0  0  0  0  0  0
    1.8303   -1.0871   -0.3582 C   0  0  0  0  0  0  0  0  0  0  0  0
    0.3694   -1.1806   -0.0878 C   0  0  0  0  0  0  0  0  0  0  0  0
   -0.0893   -2.2878    0.1339 O   0  0  0  0  0  0  0  0  0  0  0  0
   -0.4962    0.0071   -0.0852 C   0  0  0  0  0  0  0  0  0  0  0  0
   -1.9309   -0.0479   -0.3661 C   0  0  0  0  0  0  0  0  0  0  0  0
   -1.5376    0.0827    1.0634 C   0  0  0  0  0  0  0  0  0  0  0  0
   -1.6415    1.3045    1.7176 O   0  0  0  0  0  0  0  0  0  0  0  0
    2.7423    2.5092   -0.9381 H   0  0  0  0  0  0  0  0  0  0  0  0
    2.4323   -1.4151    0.5167 H   0  0  0  0  0  0  0  0  0  0  0  0
    2.1442   -1.6463   -1.2511 H   0  0  0  0  0  0  0  0  0  0  0  0
    0.0057    0.9873   -0.2988 H   0  0  0  0  0  0  0  0  0  0  0  0
   -2.4248    0.8478   -0.8044 H   0  0  0  0  0  0  0  0  0  0  0  0
   -2.3457   -1.0027   -0.7132 H   0  0  0  0  0  0  0  0  0  0  0  0
   -1.5800   -0.8034    1.7125 H   0  0  0  0  0  0  0  0  0  0  0  0
   -2.1683    1.9298    1.1508 H   0  0  0  0  0  0  0  0  0  0  0  0
  1  2  3  0
  2  3  1  0
  3  4  1  0
  4  5  2  0
  4  6  1  0
  6  7  1  0
  7  8  1  0
  8  9  1  0
  8  6  1  0
  1 10  1  0
  3 11  1  0
  3 12  1  0
  6 13  1  0
  7 14  1  0
  7 15  1  0
  8 16  1  0
  9 17  1  0
M  END
