
     RDKit          3D

 17 17  0  0  0  0  0  0  0  0999 V2000
   -2.7823    1.2261   -0.1234 C   0  0  0  0  0  0  0  0  0  0  0  0
   -2.0293    0.5254   -0.4366 C   0  0  0  0  0  0  0  0  0  0  0  0
   -1.2819   -0.1481   -0.7344 C   0  0  0  0  0  0  0  0  0  0  0  0
    0.1017    0.3207    0.1311 C   0  0  0  0  0  0  0  0  0  0  0  0
    1.0571    0.6586    0.7499 C   0  0  0  0  0  0  0  0  0  0  0  0
    2.4144    1.1189    1.6354 C   0  0  0  0  0  0  0  0  0  0  0  0
    3.3212    0.3625    0.9257 O   0  0  0  0  0  0  0  0  0  0  0  0
   -1.2791   -1.7538   -0.5840 C   0  0  0  0  0  0  0  0  0  0  0  0
   -0.4681   -1.0807   -1.5480 C   0  0  0  0  0  0  0  0  0  0  0  0
   -3.9002    2.2527    0.3118 H   0  0  0  0  0  0  0  0  0  0  0  0
    2.4661    2.2569    0.9281 H   0  0  0  0  0  0  0  0  0  0  0  0
    1.9769    1.3935    2.4117 H   0  0  0  0  0  0  0  0  0  0  0  0
    3.0780   -0.6620    1.1751 H   0  0  0  0  0  0  0  0  0  0  0  0
   -0.9522   -2.0523    0.5158 H   0  0  0  0  0  0  0  0  0  0  0  0
   -2.1157   -2.2814   -0.8985 H   0  0  0  0  0  0  0  0  0  0  0  0
    0.6347   -1.5027   -1.2238 H   0  0  0  0  0  0  0  0  0  0  0  0
   -0.2414   -0.6345   -2.4837 H   0  0  0  0  0  0  0  0  0  0  0  0
  1  2  3  0
  2  3  1  0
  3  4  1  0
  4  5  3  0
  5  6  1  0
  6  7  1  0
  3  8  1  0
  8  9  1  0
  9  3  1  0
  1 10  1  0
  6 11  1  0
  6 12  1  0
  7 13  1  0
  8 14  1  0
  8 15  1  0
  9 16  1  0
  9 17  1  0
M  END
