
     RDKit          3D

 15 15  0  0  0  0  0  0  0  0999 V2000
    2.8861    0.7093   -0.1293 C   0  0  0  0  0  0  0  0  0  0  0  0
    1.8751    0.0822   -0.3360 C   0  0  0  0  0  0  0  0  0  0  0  0
    0.6526   -0.6693   -0.5603 C   0  0  0  0  0  0  0  0  0  0  0  0
   -0.0096   -1.3843    0.5324 C   0  0  0  0  0  0  0  0  0  0  0  0
   -0.5888   -0.1163    0.0448 C   0  0  0  0  0  0  0  0  0  0  0  0
   -1.7890   -0.2642   -0.7937 C   0  0  0  0  0  0  0  0  0  0  0  0
   -2.7617   -0.3939   -1.4967 C   0  0  0  0  0  0  0  0  0  0  0  0
   -0.4583    1.0905    0.8577 C   0  0  0  0  0  0  0  0  0  0  0  0
   -0.3403    2.0839    1.5104 C   0  0  0  0  0  0  0  0  0  0  0  0
    3.7758    1.2781    0.0660 H   0  0  0  0  0  0  0  0  0  0  0  0
    0.5940   -1.1512   -1.5773 H   0  0  0  0  0  0  0  0  0  0  0  0
    0.5290   -1.3655    1.5221 H   0  0  0  0  0  0  0  0  0  0  0  0
   -0.5121   -2.3594    0.3611 H   0  0  0  0  0  0  0  0  0  0  0  0
   -3.6321   -0.5049   -2.1050 H   0  0  0  0  0  0  0  0  0  0  0  0
   -0.2207    2.9649    2.1039 H   0  0  0  0  0  0  0  0  0  0  0  0
  1  2  3  0
  2  3  1  0
  3  4  1  0
  4  5  1  0
  5  6  1  0
  6  7  3  0
  5  8  1  0
  8  9  3  0
  5  3  1  0
  1 10  1  0
  3 11  1  0
  4 12  1  0
  4 13  1  0
  7 14  1  0
  9 15  1  0
M  END
