
     RDKit          3D

 21 21  0  0  0  0  0  0  0  0999 V2000
   -1.4014    1.9135   -1.2541 C   0  0  0  0  0  0  0  0  0  0  0  0
   -0.8345    1.0177   -0.6600 C   0  0  0  0  0  0  0  0  0  0  0  0
   -0.1460   -0.0730    0.0339 C   0  0  0  0  0  0  0  0  0  0  0  0
    1.3519    0.0540    0.0204 C   0  0  0  0  0  0  0  0  0  0  0  0
    1.8962    0.0651   -1.4032 C   0  0  0  0  0  0  0  0  0  0  0  0
    3.2827    0.1846   -1.3319 O   0  0  0  0  0  0  0  0  0  0  0  0
   -0.8152   -1.3947    0.0683 C   0  0  0  0  0  0  0  0  0  0  0  0
   -0.7718   -0.5809    1.3180 C   0  0  0  0  0  0  0  0  0  0  0  0
   -1.9788    0.1635    1.7980 C   0  0  0  0  0  0  0  0  0  0  0  0
   -1.8960    2.7028   -1.7633 H   0  0  0  0  0  0  0  0  0  0  0  0
    1.5962    1.0613    0.4658 H   0  0  0  0  0  0  0  0  0  0  0  0
    1.8674   -0.7278    0.6031 H   0  0  0  0  0  0  0  0  0  0  0  0
    1.6168   -0.8946   -1.8687 H   0  0  0  0  0  0  0  0  0  0  0  0
    1.4824    0.9133   -1.9726 H   0  0  0  0  0  0  0  0  0  0  0  0
    3.6911   -0.6933   -1.5889 H   0  0  0  0  0  0  0  0  0  0  0  0
   -0.2367   -2.3393    0.0735 H   0  0  0  0  0  0  0  0  0  0  0  0
   -1.7981   -1.5245   -0.4643 H   0  0  0  0  0  0  0  0  0  0  0  0
   -0.0694   -0.8864    2.1172 H   0  0  0  0  0  0  0  0  0  0  0  0
   -2.7994   -0.5829    1.9752 H   0  0  0  0  0  0  0  0  0  0  0  0
   -2.2939    0.9532    1.0867 H   0  0  0  0  0  0  0  0  0  0  0  0
   -1.7435    0.6687    2.7469 H   0  0  0  0  0  0  0  0  0  0  0  0
  1  2  3  0
  2  3  1  0
  3  4  1  0
  4  5  1  0
  5  6  1  0
  3  7  1  0
  7  8  1  0
  8  9  1  0
  8  3  1  0
  1 10  1  0
  4 11  1  0
  4 12  1  0
  5 13  1  0
  5 14  1  0
  6 15  1  0
  7 16  1  0
  7 17  1  0
  8 18  1  0
  9 19  1  0
  9 20  1  0
  9 21  1  0
M  END
