
     RDKit          3D

 21 20  0  0  0  0  0  0  0  0999 V2000
   -2.4251   -1.4622   -1.1537 C   0  0  0  0  0  0  0  0  0  0  0  0
   -1.7644   -0.7895   -0.3969 C   0  0  0  0  0  0  0  0  0  0  0  0
   -0.9418    0.0214    0.5097 C   0  0  0  0  0  0  0  0  0  0  0  0
   -1.8440    0.9835    1.2848 C   0  0  0  0  0  0  0  0  0  0  0  0
   -0.0123    0.8460   -0.3213 C   0  0  0  0  0  0  0  0  0  0  0  0
    0.9099    0.0502   -1.1849 C   0  0  0  0  0  0  0  0  0  0  0  0
    1.8054   -0.8734   -0.3827 C   0  0  0  0  0  0  0  0  0  0  0  0
    2.6600   -0.1434    0.5709 C   0  0  0  0  0  0  0  0  0  0  0  0
    3.6191    0.4744    0.1478 O   0  0  0  0  0  0  0  0  0  0  0  0
   -3.0253   -2.0467   -1.8287 H   0  0  0  0  0  0  0  0  0  0  0  0
   -0.4194   -0.6469    1.2135 H   0  0  0  0  0  0  0  0  0  0  0  0
   -1.6213    0.9547    2.3708 H   0  0  0  0  0  0  0  0  0  0  0  0
   -2.9015    0.6115    1.1787 H   0  0  0  0  0  0  0  0  0  0  0  0
   -1.8286    1.9991    0.8568 H   0  0  0  0  0  0  0  0  0  0  0  0
    0.5505    1.5395    0.3505 H   0  0  0  0  0  0  0  0  0  0  0  0
   -0.6242    1.4927   -0.9727 H   0  0  0  0  0  0  0  0  0  0  0  0
    0.3495   -0.5390   -1.9128 H   0  0  0  0  0  0  0  0  0  0  0  0
    1.5501    0.7673   -1.7427 H   0  0  0  0  0  0  0  0  0  0  0  0
    1.1259   -1.6025    0.1296 H   0  0  0  0  0  0  0  0  0  0  0  0
    2.4072   -1.4745   -1.0923 H   0  0  0  0  0  0  0  0  0  0  0  0
    2.4303   -0.1622    1.6266 H   0  0  0  0  0  0  0  0  0  0  0  0
  1  2  3  0
  2  3  1  0
  3  4  1  0
  3  5  1  0
  5  6  1  0
  6  7  1  0
  7  8  1  0
  8  9  2  0
  1 10  1  0
  3 11  1  0
  4 12  1  0
  4 13  1  0
  4 14  1  0
  5 15  1  0
  5 16  1  0
  6 17  1  0
  6 18  1  0
  7 19  1  0
  7 20  1  0
  8 21  1  0
M  END
