
     RDKit          3D

 17 18  0  0  0  0  0  0  0  0999 V2000
    2.7668    0.9304    0.8119 C   0  0  0  0  0  0  0  0  0  0  0  0
    1.8156    0.7147    0.0994 C   0  0  0  0  0  0  0  0  0  0  0  0
    0.6605    0.4760   -0.7768 C   0  0  0  0  0  0  0  0  0  0  0  0
   -0.0128   -0.8171   -0.6542 C   0  0  0  0  0  0  0  0  0  0  0  0
    0.5121   -1.7614    0.1859 O   0  0  0  0  0  0  0  0  0  0  0  0
   -1.2444   -1.0821   -1.4671 C   0  0  0  0  0  0  0  0  0  0  0  0
   -1.7471    0.1469   -1.0133 O   0  0  0  0  0  0  0  0  0  0  0  0
   -0.6830    0.4041   -0.1920 C   0  0  0  0  0  0  0  0  0  0  0  0
   -0.9755    0.7042    1.2334 C   0  0  0  0  0  0  0  0  0  0  0  0
    3.6040    1.1094    1.4561 H   0  0  0  0  0  0  0  0  0  0  0  0
    0.7407    1.0034   -1.7537 H   0  0  0  0  0  0  0  0  0  0  0  0
    0.8341   -1.2943    1.0163 H   0  0  0  0  0  0  0  0  0  0  0  0
   -1.0810   -1.0385   -2.5489 H   0  0  0  0  0  0  0  0  0  0  0  0
   -1.8979   -1.8925   -1.1296 H   0  0  0  0  0  0  0  0  0  0  0  0
   -0.1212    1.1832    1.7405 H   0  0  0  0  0  0  0  0  0  0  0  0
   -1.8431    1.4219    1.2539 H   0  0  0  0  0  0  0  0  0  0  0  0
   -1.3277   -0.2083    1.7382 H   0  0  0  0  0  0  0  0  0  0  0  0
  1  2  3  0
  2  3  1  0
  3  4  1  0
  4  5  1  0
  4  6  1  0
  6  7  1  0
  7  8  1  0
  8  9  1  0
  8  3  1  0
  8  4  1  0
  1 10  1  0
  3 11  1  0
  5 12  1  0
  6 13  1  0
  6 14  1  0
  9 15  1  0
  9 16  1  0
  9 17  1  0
M  END
