
     RDKit          3D

 19 19  0  0  0  0  0  0  0  0999 V2000
   -3.2600    1.6505    1.7345 C   0  0  0  0  0  0  0  0  0  0  0  0
   -2.3013    0.9879    1.2349 C   0  0  0  0  0  0  0  0  0  0  0  0
   -1.1940    0.1924    0.6437 C   0  0  0  0  0  0  0  0  0  0  0  0
   -1.2921   -0.2722   -0.7632 C   0  0  0  0  0  0  0  0  0  0  0  0
   -0.8302   -1.6996   -0.9646 C   0  0  0  0  0  0  0  0  0  0  0  0
   -0.4117    0.8480   -0.5024 C   0  0  0  0  0  0  0  0  0  0  0  0
    1.0572    0.5740   -0.5824 C   0  0  0  0  0  0  0  0  0  0  0  0
    2.2539    0.3452   -0.6269 C   0  0  0  0  0  0  0  0  0  0  0  0
    3.6781    0.0671   -0.6551 C   0  0  0  0  0  0  0  0  0  0  0  0
   -3.9606    2.1351    2.0903 H   0  0  0  0  0  0  0  0  0  0  0  0
   -0.6591   -0.4274    1.3752 H   0  0  0  0  0  0  0  0  0  0  0  0
   -2.2335   -0.0350   -1.3226 H   0  0  0  0  0  0  0  0  0  0  0  0
   -0.8602   -2.2095    0.0457 H   0  0  0  0  0  0  0  0  0  0  0  0
   -1.5339   -2.3121   -1.5920 H   0  0  0  0  0  0  0  0  0  0  0  0
    0.1942   -1.7125   -1.3496 H   0  0  0  0  0  0  0  0  0  0  0  0
   -0.7338    1.8667   -0.7594 H   0  0  0  0  0  0  0  0  0  0  0  0
    4.1759    0.6061    0.1911 H   0  0  0  0  0  0  0  0  0  0  0  0
    4.1569    0.4477   -1.5636 H   0  0  0  0  0  0  0  0  0  0  0  0
    3.7542   -1.0524   -0.5423 H   0  0  0  0  0  0  0  0  0  0  0  0
  1  2  3  0
  2  3  1  0
  3  4  1  0
  4  5  1  0
  4  6  1  0
  6  7  1  0
  7  8  3  0
  8  9  1  0
  6  3  1  0
  1 10  1  0
  3 11  1  0
  4 12  1  0
  5 13  1  0
  5 14  1  0
  5 15  1  0
  6 16  1  0
  9 17  1  0
  9 18  1  0
  9 19  1  0
M  END
