
     RDKit          3D

 19 20  0  0  0  0  0  0  0  0999 V2000
    3.1814    1.2973    0.3324 C   0  0  0  0  0  0  0  0  0  0  0  0
    2.0412    1.0174    0.1631 C   0  0  0  0  0  0  0  0  0  0  0  0
    0.6488    0.6811   -0.0404 C   0  0  0  0  0  0  0  0  0  0  0  0
    0.4429   -0.0777   -1.3487 C   0  0  0  0  0  0  0  0  0  0  0  0
   -0.9935   -0.5244   -1.1769 C   0  0  0  0  0  0  0  0  0  0  0  0
   -1.0286   -0.9855    0.2524 C   0  0  0  0  0  0  0  0  0  0  0  0
   -1.8189   -0.0902    1.1874 C   0  0  0  0  0  0  0  0  0  0  0  0
   -0.6668    0.0955    1.9461 O   0  0  0  0  0  0  0  0  0  0  0  0
    0.1634   -0.3801    0.9552 C   0  0  0  0  0  0  0  0  0  0  0  0
    4.2177    1.5396    0.4868 H   0  0  0  0  0  0  0  0  0  0  0  0
   -0.0292    1.5426    0.0080 H   0  0  0  0  0  0  0  0  0  0  0  0
    1.1524   -0.9170   -1.3424 H   0  0  0  0  0  0  0  0  0  0  0  0
    0.5691    0.5983   -2.2185 H   0  0  0  0  0  0  0  0  0  0  0  0
   -1.2755   -1.3122   -1.9043 H   0  0  0  0  0  0  0  0  0  0  0  0
   -1.6276    0.3787   -1.2595 H   0  0  0  0  0  0  0  0  0  0  0  0
   -1.1851   -2.0647    0.4055 H   0  0  0  0  0  0  0  0  0  0  0  0
   -2.6678   -0.5600    1.6815 H   0  0  0  0  0  0  0  0  0  0  0  0
   -2.0537    0.8648    0.6443 H   0  0  0  0  0  0  0  0  0  0  0  0
    0.9298   -1.1033    1.2279 H   0  0  0  0  0  0  0  0  0  0  0  0
  1  2  3  0
  2  3  1  0
  3  4  1  0
  4  5  1  0
  5  6  1  0
  6  7  1  0
  7  8  1  0
  8  9  1  0
  9  3  1  0
  9  6  1  0
  1 10  1  0
  3 11  1  0
  4 12  1  0
  4 13  1  0
  5 14  1  0
  5 15  1  0
  6 16  1  0
  7 17  1  0
  7 18  1  0
  9 19  1  0
M  END
