
     RDKit          3D

 13 12  0  0  0  0  0  0  0  0999 V2000
    2.2011   -2.8644   -1.2971 C   0  0  0  0  0  0  0  0  0  0  0  0
    1.6554   -1.9719   -1.1791 C   0  0  0  0  0  0  0  0  0  0  0  0
    0.7663   -0.4890   -0.9997 C   0  0  0  0  0  0  0  0  0  0  0  0
    0.0808    0.6558   -0.8380 C   0  0  0  0  0  0  0  0  0  0  0  0
   -0.4291    1.5225   -0.7060 C   0  0  0  0  0  0  0  0  0  0  0  0
   -1.1862    1.4825    0.7800 C   0  0  0  0  0  0  0  0  0  0  0  0
   -1.8944    2.5262    1.1354 O   0  0  0  0  0  0  0  0  0  0  0  0
   -1.0077    0.3961    1.4416 C   0  0  0  0  0  0  0  0  0  0  0  0
   -0.8385   -0.7712    2.1392 C   0  0  0  0  0  0  0  0  0  0  0  0
    2.5654   -3.4597   -1.3662 H   0  0  0  0  0  0  0  0  0  0  0  0
   -1.3398    2.0108   -1.3627 H   0  0  0  0  0  0  0  0  0  0  0  0
    0.1172    2.6461   -0.4441 H   0  0  0  0  0  0  0  0  0  0  0  0
   -0.6904   -1.6838    2.6966 H   0  0  0  0  0  0  0  0  0  0  0  0
  1  2  3  0
  2  3  1  0
  3  4  3  0
  4  5  1  0
  5  6  1  0
  6  7  2  0
  6  8  1  0
  8  9  3  0
  1 10  1  0
  5 11  1  0
  5 12  1  0
  9 13  1  0
M  END
