
     RDKit          3D

 23 22  0  0  0  0  0  0  0  0999 V2000
   -0.6619    2.4406    1.1563 C   0  0  0  0  0  0  0  0  0  0  0  0
   -0.7194    1.3151    0.6945 C   0  0  0  0  0  0  0  0  0  0  0  0
   -0.7855   -0.0296    0.1154 C   0  0  0  0  0  0  0  0  0  0  0  0
   -0.8834   -1.0226    1.2252 C   0  0  0  0  0  0  0  0  0  0  0  0
   -2.0286   -0.1529   -0.7482 C   0  0  0  0  0  0  0  0  0  0  0  0
   -3.1844    0.0646   -0.0008 O   0  0  0  0  0  0  0  0  0  0  0  0
    0.4309   -0.2298   -0.7573 C   0  0  0  0  0  0  0  0  0  0  0  0
    1.7175   -0.0977    0.0168 C   0  0  0  0  0  0  0  0  0  0  0  0
    2.8689   -0.3132   -0.9283 C   0  0  0  0  0  0  0  0  0  0  0  0
   -0.6193    3.4273    1.5524 H   0  0  0  0  0  0  0  0  0  0  0  0
   -1.0324   -2.0661    0.8647 H   0  0  0  0  0  0  0  0  0  0  0  0
    0.0081   -0.9227    1.8951 H   0  0  0  0  0  0  0  0  0  0  0  0
   -1.7971   -0.7756    1.8123 H   0  0  0  0  0  0  0  0  0  0  0  0
   -2.0428    0.5963   -1.5647 H   0  0  0  0  0  0  0  0  0  0  0  0
   -2.0885   -1.1596   -1.1961 H   0  0  0  0  0  0  0  0  0  0  0  0
   -3.0047    0.5410    0.8302 H   0  0  0  0  0  0  0  0  0  0  0  0
    0.4309    0.5852   -1.5125 H   0  0  0  0  0  0  0  0  0  0  0  0
    0.4036   -1.1870   -1.3022 H   0  0  0  0  0  0  0  0  0  0  0  0
    1.7889    0.9352    0.4074 H   0  0  0  0  0  0  0  0  0  0  0  0
    1.7443   -0.8583    0.8256 H   0  0  0  0  0  0  0  0  0  0  0  0
    2.4806   -0.3860   -1.9522 H   0  0  0  0  0  0  0  0  0  0  0  0
    3.5669    0.5580   -0.8080 H   0  0  0  0  0  0  0  0  0  0  0  0
    3.4075   -1.2622   -0.6257 H   0  0  0  0  0  0  0  0  0  0  0  0
  1  2  3  0
  2  3  1  0
  3  4  1  0
  3  5  1  0
  5  6  1  0
  3  7  1  0
  7  8  1  0
  8  9  1  0
  1 10  1  0
  4 11  1  0
  4 12  1  0
  4 13  1  0
  5 14  1  0
  5 15  1  0
  6 16  1  0
  7 17  1  0
  7 18  1  0
  8 19  1  0
  8 20  1  0
  9 21  1  0
  9 22  1  0
  9 23  1  0
M  END
