
     RDKit          3D

 21 22  0  0  0  0  0  0  0  0999 V2000
    3.1296   -0.1878   -0.3202 C   0  0  0  0  0  0  0  0  0  0  0  0
    2.0042   -0.3858    0.0783 C   0  0  0  0  0  0  0  0  0  0  0  0
    0.6482   -0.6076    0.5738 C   0  0  0  0  0  0  0  0  0  0  0  0
   -0.2215   -1.3795   -0.4280 C   0  0  0  0  0  0  0  0  0  0  0  0
   -1.5488   -1.3383    0.2390 C   0  0  0  0  0  0  0  0  0  0  0  0
   -1.6078    0.1610    0.5975 C   0  0  0  0  0  0  0  0  0  0  0  0
   -0.2346    0.5607    0.1478 C   0  0  0  0  0  0  0  0  0  0  0  0
    0.2465    1.9063    0.3104 C   0  0  0  0  0  0  0  0  0  0  0  0
   -0.1797   -0.0838   -1.2404 C   0  0  0  0  0  0  0  0  0  0  0  0
    4.1092   -0.0167   -0.6796 H   0  0  0  0  0  0  0  0  0  0  0  0
    0.5518   -0.9235    1.6094 H   0  0  0  0  0  0  0  0  0  0  0  0
    0.1740   -2.2584   -0.8574 H   0  0  0  0  0  0  0  0  0  0  0  0
   -1.4688   -1.8665    1.2199 H   0  0  0  0  0  0  0  0  0  0  0  0
   -2.3974   -1.6476   -0.3637 H   0  0  0  0  0  0  0  0  0  0  0  0
   -1.8124    0.3186    1.6549 H   0  0  0  0  0  0  0  0  0  0  0  0
   -2.4175    0.6035   -0.0345 H   0  0  0  0  0  0  0  0  0  0  0  0
    0.7269    2.3160   -0.6264 H   0  0  0  0  0  0  0  0  0  0  0  0
    1.0803    1.9356    1.0721 H   0  0  0  0  0  0  0  0  0  0  0  0
   -0.4900    2.6639    0.6897 H   0  0  0  0  0  0  0  0  0  0  0  0
    0.7755    0.1192   -1.7297 H   0  0  0  0  0  0  0  0  0  0  0  0
   -1.0677    0.1105   -1.8510 H   0  0  0  0  0  0  0  0  0  0  0  0
  1  2  3  0
  2  3  1  0
  3  4  1  0
  4  5  1  0
  5  6  1  0
  6  7  1  0
  7  8  1  0
  7  9  1  0
  7  3  1  0
  9  4  1  0
  1 10  1  0
  3 11  1  0
  4 12  1  0
  5 13  1  0
  5 14  1  0
  6 15  1  0
  6 16  1  0
  8 17  1  0
  8 18  1  0
  8 19  1  0
  9 20  1  0
  9 21  1  0
M  END
