
     RDKit          3D

 19 18  0  0  0  0  0  0  0  0999 V2000
    0.1469    3.0963   -0.9790 C   0  0  0  0  0  0  0  0  0  0  0  0
   -0.3398    1.9414   -1.1631 C   0  0  0  0  0  0  0  0  0  0  0  0
   -0.8655    0.6480   -1.3508 C   0  0  0  0  0  0  0  0  0  0  0  0
   -0.0683   -0.4762   -0.8502 C   0  0  0  0  0  0  0  0  0  0  0  0
   -0.7614   -1.6668   -1.2819 O   0  0  0  0  0  0  0  0  0  0  0  0
    0.0095   -0.6636    0.6594 C   0  0  0  0  0  0  0  0  0  0  0  0
    0.5701    0.3599    1.5152 C   0  0  0  0  0  0  0  0  0  0  0  0
    0.5918   -1.9454    0.9415 C   0  0  0  0  0  0  0  0  0  0  0  0
    1.8502   -2.0868    0.8486 O   0  0  0  0  0  0  0  0  0  0  0  0
    0.5546    4.0942   -0.8055 H   0  0  0  0  0  0  0  0  0  0  0  0
   -1.9101    0.6645   -0.8221 H   0  0  0  0  0  0  0  0  0  0  0  0
   -1.1455    0.5276   -2.4046 H   0  0  0  0  0  0  0  0  0  0  0  0
    0.9141   -0.5191   -1.2925 H   0  0  0  0  0  0  0  0  0  0  0  0
   -0.6803   -2.3824   -0.6167 H   0  0  0  0  0  0  0  0  0  0  0  0
   -1.1152   -0.7489    0.9332 H   0  0  0  0  0  0  0  0  0  0  0  0
    1.6074    0.2319    1.9173 H   0  0  0  0  0  0  0  0  0  0  0  0
   -0.1038    0.4850    2.4326 H   0  0  0  0  0  0  0  0  0  0  0  0
    0.5739    1.3596    1.0677 H   0  0  0  0  0  0  0  0  0  0  0  0
    0.1714   -2.9190    1.2509 H   0  0  0  0  0  0  0  0  0  0  0  0
  1  2  3  0
  2  3  1  0
  3  4  1  0
  4  5  1  0
  4  6  1  0
  6  7  1  0
  6  8  1  0
  8  9  2  0
  1 10  1  0
  3 11  1  0
  3 12  1  0
  4 13  1  0
  5 14  1  0
  6 15  1  0
  7 16  1  0
  7 17  1  0
  7 18  1  0
  8 19  1  0
M  END
