
     RDKit          3D

 18 19  0  0  0  0  0  0  0  0999 V2000
    2.9830    0.5158    0.2243 C   0  0  0  0  0  0  0  0  0  0  0  0
    2.0238    0.0930   -0.4600 C   0  0  0  0  0  0  0  0  0  0  0  0
    0.8609   -0.4239   -1.2971 C   0  0  0  0  0  0  0  0  0  0  0  0
    0.1720    0.6510   -2.1376 C   0  0  0  0  0  0  0  0  0  0  0  0
   -0.4728   -0.1065   -1.0266 C   0  0  0  0  0  0  0  0  0  0  0  0
   -1.0235    0.4320    0.2469 C   0  0  0  0  0  0  0  0  0  0  0  0
   -0.9441    0.2801    1.6681 C   0  0  0  0  0  0  0  0  0  0  0  0
   -1.2878   -0.9840    0.9998 C   0  0  0  0  0  0  0  0  0  0  0  0
    3.9193    0.9293    0.8993 H   0  0  0  0  0  0  0  0  0  0  0  0
    1.2324   -1.3121   -1.8845 H   0  0  0  0  0  0  0  0  0  0  0  0
    0.0079    0.3116   -3.1850 H   0  0  0  0  0  0  0  0  0  0  0  0
    0.3822    1.7069   -2.0743 H   0  0  0  0  0  0  0  0  0  0  0  0
   -1.1982   -0.9499   -1.4439 H   0  0  0  0  0  0  0  0  0  0  0  0
   -2.0512    0.9768   -0.0195 H   0  0  0  0  0  0  0  0  0  0  0  0
   -1.8858    0.5765    2.3652 H   0  0  0  0  0  0  0  0  0  0  0  0
   -0.0373    0.4034    2.2695 H   0  0  0  0  0  0  0  0  0  0  0  0
   -2.2657   -1.3945    0.9534 H   0  0  0  0  0  0  0  0  0  0  0  0
   -0.4151   -1.7055    0.8893 H   0  0  0  0  0  0  0  0  0  0  0  0
  1  2  3  0
  2  3  1  0
  3  4  1  0
  4  5  1  0
  5  6  1  0
  6  7  1  0
  7  8  1  0
  5  3  1  0
  8  6  1  0
  1  9  1  0
  3 10  1  0
  4 11  1  0
  4 12  1  0
  5 13  1  0
  6 14  1  0
  7 15  1  0
  7 16  1  0
  8 17  1  0
  8 18  1  0
M  END
