
     RDKit          3D

 16 16  0  0  0  0  0  0  0  0999 V2000
    2.5171   -0.7202   -1.3282 C   0  0  0  0  0  0  0  0  0  0  0  0
    1.4734   -0.1988   -0.5404 C   0  0  0  0  0  0  0  0  0  0  0  0
    0.6468    0.2222    0.0934 C   0  0  0  0  0  0  0  0  0  0  0  0
    0.5534   -0.6364    1.5635 C   0  0  0  0  0  0  0  0  0  0  0  0
   -0.6953    0.0384    1.5605 O   0  0  0  0  0  0  0  0  0  0  0  0
   -0.8158   -0.2968    0.1841 C   0  0  0  0  0  0  0  0  0  0  0  0
   -1.8327    0.4688   -0.5581 C   0  0  0  0  0  0  0  0  0  0  0  0
   -1.4624    1.8354   -0.4917 O   0  0  0  0  0  0  0  0  0  0  0  0
    3.4029   -1.1712   -1.9757 H   0  0  0  0  0  0  0  0  0  0  0  0
    0.6542    1.3114    0.5866 H   0  0  0  0  0  0  0  0  0  0  0  0
    0.4741   -1.6525    1.2182 H   0  0  0  0  0  0  0  0  0  0  0  0
    1.2742   -0.2344    2.2052 H   0  0  0  0  0  0  0  0  0  0  0  0
   -0.7863   -1.4008   -0.0096 H   0  0  0  0  0  0  0  0  0  0  0  0
   -2.0495    0.0970   -1.5515 H   0  0  0  0  0  0  0  0  0  0  0  0
   -2.7689    0.4050    0.0472 H   0  0  0  0  0  0  0  0  0  0  0  0
   -0.5854    1.9330   -1.0033 H   0  0  0  0  0  0  0  0  0  0  0  0
  1  2  3  0
  2  3  1  0
  3  4  1  0
  4  5  1  0
  5  6  1  0
  6  7  1  0
  7  8  1  0
  6  3  1  0
  1  9  1  0
  3 10  1  0
  4 11  1  0
  4 12  1  0
  6 13  1  0
  7 14  1  0
  7 15  1  0
  8 16  1  0
M  END
