
     RDKit          3D

 14 13  0  0  0  0  0  0  0  0999 V2000
   -1.1409    2.5566    0.3414 C   0  0  0  0  0  0  0  0  0  0  0  0
   -0.6219    1.4686    0.1817 C   0  0  0  0  0  0  0  0  0  0  0  0
   -0.0091    0.1464   -0.0288 C   0  0  0  0  0  0  0  0  0  0  0  0
    0.5997   -0.2727    1.2752 C   0  0  0  0  0  0  0  0  0  0  0  0
    1.3327   -1.4395    1.2047 O   0  0  0  0  0  0  0  0  0  0  0  0
   -0.8880   -0.7758   -0.5772 O   0  0  0  0  0  0  0  0  0  0  0  0
   -0.6592   -1.3230   -1.8309 C   0  0  0  0  0  0  0  0  0  0  0  0
    0.3781   -0.9343   -2.4248 O   0  0  0  0  0  0  0  0  0  0  0  0
   -1.5997    3.4937    0.4646 H   0  0  0  0  0  0  0  0  0  0  0  0
    0.8418    0.3350   -0.7471 H   0  0  0  0  0  0  0  0  0  0  0  0
    1.3175    0.5481    1.5687 H   0  0  0  0  0  0  0  0  0  0  0  0
   -0.1504   -0.3497    2.0763 H   0  0  0  0  0  0  0  0  0  0  0  0
    1.9389   -1.4005    0.4227 H   0  0  0  0  0  0  0  0  0  0  0  0
   -1.3396   -2.0528   -2.2834 H   0  0  0  0  0  0  0  0  0  0  0  0
  1  2  3  0
  2  3  1  0
  3  4  1  0
  4  5  1  0
  3  6  1  0
  6  7  1  0
  7  8  2  0
  1  9  1  0
  3 10  1  0
  4 11  1  0
  4 12  1  0
  5 13  1  0
  7 14  1  0
M  END
