
     RDKit          3D

 21 22  0  0  0  0  0  0  0  0999 V2000
   -2.1951    1.6324   -1.5527 C   0  0  0  0  0  0  0  0  0  0  0  0
   -1.7565    0.8480   -0.6418 C   0  0  0  0  0  0  0  0  0  0  0  0
   -1.2579   -0.0430    0.4300 C   0  0  0  0  0  0  0  0  0  0  0  0
   -1.5494   -1.3048   -0.4663 C   0  0  0  0  0  0  0  0  0  0  0  0
    0.0711    0.4129    0.6390 C   0  0  0  0  0  0  0  0  0  0  0  0
    1.0842    0.0272    1.5898 C   0  0  0  0  0  0  0  0  0  0  0  0
    1.4600   -1.1062    0.6939 C   0  0  0  0  0  0  0  0  0  0  0  0
    1.2487    0.0340   -0.2199 C   0  0  0  0  0  0  0  0  0  0  0  0
    2.0297    0.8387    0.7462 C   0  0  0  0  0  0  0  0  0  0  0  0
   -2.6439    2.4060   -2.4797 H   0  0  0  0  0  0  0  0  0  0  0  0
   -2.0694    0.1415    1.1974 H   0  0  0  0  0  0  0  0  0  0  0  0
   -1.5927   -1.0198   -1.6522 H   0  0  0  0  0  0  0  0  0  0  0  0
   -2.6671   -1.5892   -0.3807 H   0  0  0  0  0  0  0  0  0  0  0  0
   -0.9592   -2.1416   -0.3520 H   0  0  0  0  0  0  0  0  0  0  0  0
    0.1322    1.6344    0.6189 H   0  0  0  0  0  0  0  0  0  0  0  0
    1.0825    0.0349    2.6204 H   0  0  0  0  0  0  0  0  0  0  0  0
    2.5590   -1.3946    0.7513 H   0  0  0  0  0  0  0  0  0  0  0  0
    0.7992   -1.9318    0.7746 H   0  0  0  0  0  0  0  0  0  0  0  0
    1.2816    0.0792   -1.2600 H   0  0  0  0  0  0  0  0  0  0  0  0
    1.8375    1.9301    0.8102 H   0  0  0  0  0  0  0  0  0  0  0  0
    3.1056    0.5118    0.7887 H   0  0  0  0  0  0  0  0  0  0  0  0
  1  2  3  0
  2  3  1  0
  3  4  1  0
  3  5  1  0
  5  6  1  0
  6  7  1  0
  7  8  1  0
  8  9  1  0
  8  5  1  0
  9  6  1  0
  1 10  1  0
  3 11  1  0
  4 12  1  0
  4 13  1  0
  4 14  1  0
  5 15  1  0
  6 16  1  0
  7 17  1  0
  7 18  1  0
  8 19  1  0
  9 20  1  0
  9 21  1  0
M  END
