
     RDKit          3D

 23 22  0  0  0  0  0  0  0  0999 V2000
    4.2279    0.9345    0.5367 C   0  0  0  0  0  0  0  0  0  0  0  0
    3.2447    0.9627    0.2914 C   0  0  0  0  0  0  0  0  0  0  0  0
    1.9270    1.0207   -0.0244 C   0  0  0  0  0  0  0  0  0  0  0  0
    1.1990    0.4610   -1.1421 C   0  0  0  0  0  0  0  0  0  0  0  0
   -0.2253    1.0057   -1.0090 C   0  0  0  0  0  0  0  0  0  0  0  0
   -1.0547    0.4474    0.1110 C   0  0  0  0  0  0  0  0  0  0  0  0
   -1.4159   -0.9902   -0.2842 C   0  0  0  0  0  0  0  0  0  0  0  0
   -2.2537   -1.7138    0.6964 C   0  0  0  0  0  0  0  0  0  0  0  0
   -3.5072   -1.2944    1.0087 O   0  0  0  0  0  0  0  0  0  0  0  0
    5.5895    0.8780    0.8602 H   0  0  0  0  0  0  0  0  0  0  0  0
    1.3126    0.5986    0.9278 H   0  0  0  0  0  0  0  0  0  0  0  0
    1.5968    2.1672    0.0613 H   0  0  0  0  0  0  0  0  0  0  0  0
    1.5167    0.5584   -2.1710 H   0  0  0  0  0  0  0  0  0  0  0  0
    1.0942   -0.6751   -0.9799 H   0  0  0  0  0  0  0  0  0  0  0  0
   -0.1934    2.1170   -0.8957 H   0  0  0  0  0  0  0  0  0  0  0  0
   -0.7852    0.8029   -1.9612 H   0  0  0  0  0  0  0  0  0  0  0  0
   -1.9944    1.0562    0.2357 H   0  0  0  0  0  0  0  0  0  0  0  0
   -0.4912    0.4544    1.0478 H   0  0  0  0  0  0  0  0  0  0  0  0
   -1.8916   -0.8826   -1.2620 H   0  0  0  0  0  0  0  0  0  0  0  0
   -0.4143   -1.5611   -0.3435 H   0  0  0  0  0  0  0  0  0  0  0  0
   -1.6914   -1.6543    1.7392 H   0  0  0  0  0  0  0  0  0  0  0  0
   -2.2092   -2.8286    0.5320 H   0  0  0  0  0  0  0  0  0  0  0  0
   -3.5808   -1.0782    2.0249 H   0  0  0  0  0  0  0  0  0  0  0  0
  1  2  3  0
  2  3  1  0
  3  4  1  0
  4  5  1  0
  5  6  1  0
  6  7  1  0
  7  8  1  0
  8  9  1  0
  1 10  1  0
  3 11  1  0
  3 12  1  0
  4 13  1  0
  4 14  1  0
  5 15  1  0
  5 16  1  0
  6 17  1  0
  6 18  1  0
  7 19  1  0
  7 20  1  0
  8 21  1  0
  8 22  1  0
  9 23  1  0
M  END
