
     RDKit          3D

 19 20  0  0  0  0  0  0  0  0999 V2000
    3.4141   -1.1372    0.0261 C   0  0  0  0  0  0  0  0  0  0  0  0
    2.3125   -0.6637    0.1352 C   0  0  0  0  0  0  0  0  0  0  0  0
    1.0217   -0.1294    0.2634 C   0  0  0  0  0  0  0  0  0  0  0  0
   -0.1657   -0.9590   -0.1952 C   0  0  0  0  0  0  0  0  0  0  0  0
   -1.2610    0.0494    0.2127 C   0  0  0  0  0  0  0  0  0  0  0  0
   -2.1311    0.4207   -0.9403 C   0  0  0  0  0  0  0  0  0  0  0  0
   -0.3157    1.1720    0.6297 C   0  0  0  0  0  0  0  0  0  0  0  0
    0.6029    0.4690    1.5858 C   0  0  0  0  0  0  0  0  0  0  0  0
    0.7412    1.1133   -0.2984 O   0  0  0  0  0  0  0  0  0  0  0  0
    4.3893   -1.5366   -0.0713 H   0  0  0  0  0  0  0  0  0  0  0  0
   -0.1242   -1.0479   -1.2831 H   0  0  0  0  0  0  0  0  0  0  0  0
   -0.2559   -1.8924    0.3510 H   0  0  0  0  0  0  0  0  0  0  0  0
   -1.7951   -0.3421    1.0813 H   0  0  0  0  0  0  0  0  0  0  0  0
   -3.1094   -0.1237   -0.8006 H   0  0  0  0  0  0  0  0  0  0  0  0
   -2.3312    1.5206   -0.9019 H   0  0  0  0  0  0  0  0  0  0  0  0
   -1.7443    0.0934   -1.9152 H   0  0  0  0  0  0  0  0  0  0  0  0
   -0.7257    2.1198    0.8734 H   0  0  0  0  0  0  0  0  0  0  0  0
    1.4286    1.0530    2.0083 H   0  0  0  0  0  0  0  0  0  0  0  0
    0.0489   -0.1793    2.2665 H   0  0  0  0  0  0  0  0  0  0  0  0
  1  2  3  0
  2  3  1  0
  3  4  1  0
  4  5  1  0
  5  6  1  0
  5  7  1  0
  7  8  1  0
  7  9  1  0
  8  3  1  0
  9  3  1  0
  1 10  1  0
  4 11  1  0
  4 12  1  0
  5 13  1  0
  6 14  1  0
  6 15  1  0
  6 16  1  0
  7 17  1  0
  8 18  1  0
  8 19  1  0
M  END
