
     RDKit          3D

 21 21  0  0  0  0  0  0  0  0999 V2000
    1.9274    2.9080    0.1053 C   0  0  0  0  0  0  0  0  0  0  0  0
    1.2325    1.9233    0.0901 C   0  0  0  0  0  0  0  0  0  0  0  0
    0.3906    0.7282    0.0970 C   0  0  0  0  0  0  0  0  0  0  0  0
   -0.8814    0.9558   -0.6916 C   0  0  0  0  0  0  0  0  0  0  0  0
   -1.8206   -0.1743   -0.4043 C   0  0  0  0  0  0  0  0  0  0  0  0
   -1.4811   -0.9578    0.7890 C   0  0  0  0  0  0  0  0  0  0  0  0
   -0.3394   -1.5721    1.0539 C   0  0  0  0  0  0  0  0  0  0  0  0
    0.8898   -1.6454    0.2484 C   0  0  0  0  0  0  0  0  0  0  0  0
    1.1302   -0.4156   -0.5712 C   0  0  0  0  0  0  0  0  0  0  0  0
    2.5448    3.7887    0.1109 H   0  0  0  0  0  0  0  0  0  0  0  0
    0.0673    0.4573    1.1317 H   0  0  0  0  0  0  0  0  0  0  0  0
   -1.3131    1.9591   -0.4989 H   0  0  0  0  0  0  0  0  0  0  0  0
   -0.5799    0.8759   -1.7762 H   0  0  0  0  0  0  0  0  0  0  0  0
   -1.9477   -0.8495   -1.2784 H   0  0  0  0  0  0  0  0  0  0  0  0
   -2.8394    0.2887   -0.2503 H   0  0  0  0  0  0  0  0  0  0  0  0
   -2.2606   -1.0544    1.5654 H   0  0  0  0  0  0  0  0  0  0  0  0
   -0.3070   -2.0955    2.0000 H   0  0  0  0  0  0  0  0  0  0  0  0
    1.7474   -1.7348    0.9608 H   0  0  0  0  0  0  0  0  0  0  0  0
    0.8965   -2.5518   -0.4055 H   0  0  0  0  0  0  0  0  0  0  0  0
    2.2027   -0.2461   -0.6680 H   0  0  0  0  0  0  0  0  0  0  0  0
    0.7409   -0.5878   -1.6080 H   0  0  0  0  0  0  0  0  0  0  0  0
  1  2  3  0
  2  3  1  0
  3  4  1  0
  4  5  1  0
  5  6  1  0
  6  7  2  0
  7  8  1  0
  8  9  1  0
  9  3  1  0
  1 10  1  0
  3 11  1  0
  4 12  1  0
  4 13  1  0
  5 14  1  0
  5 15  1  0
  6 16  1  0
  7 17  1  0
  8 18  1  0
  8 19  1  0
  9 20  1  0
  9 21  1  0
M  END
