
     RDKit          3D

 12 12  0  0  0  0  0  0  0  0999 V2000
    1.8984    1.3555    1.4364 C   0  0  0  0  0  0  0  0  0  0  0  0
    1.3672    0.5921    0.6830 C   0  0  0  0  0  0  0  0  0  0  0  0
    0.7179   -0.3775   -0.2420 C   0  0  0  0  0  0  0  0  0  0  0  0
   -0.4732   -0.9228    0.4195 C   0  0  0  0  0  0  0  0  0  0  0  0
   -1.5377   -0.5520   -0.2537 C   0  0  0  0  0  0  0  0  0  0  0  0
   -1.1099    0.2487   -1.3823 C   0  0  0  0  0  0  0  0  0  0  0  0
   -1.8457    0.7955   -2.2756 O   0  0  0  0  0  0  0  0  0  0  0  0
    0.2594    0.3227   -1.3281 O   0  0  0  0  0  0  0  0  0  0  0  0
    2.3697    2.0362    2.1160 H   0  0  0  0  0  0  0  0  0  0  0  0
    1.4740   -1.1597   -0.4793 H   0  0  0  0  0  0  0  0  0  0  0  0
   -0.5252   -1.5431    1.3271 H   0  0  0  0  0  0  0  0  0  0  0  0
   -2.5950   -0.7956   -0.0209 H   0  0  0  0  0  0  0  0  0  0  0  0
  1  2  3  0
  2  3  1  0
  3  4  1  0
  4  5  2  0
  5  6  1  0
  6  7  2  0
  6  8  1  0
  8  3  1  0
  1  9  1  0
  3 10  1  0
  4 11  1  0
  5 12  1  0
M  END
