
     RDKit          3D

 21 21  0  0  0  0  0  0  0  0999 V2000
    3.4789    0.3375    1.0805 C   0  0  0  0  0  0  0  0  0  0  0  0
    2.2896    0.1667    1.1435 C   0  0  0  0  0  0  0  0  0  0  0  0
    0.8171   -0.0200    1.2262 C   0  0  0  0  0  0  0  0  0  0  0  0
    0.4355   -0.8597    0.0605 C   0  0  0  0  0  0  0  0  0  0  0  0
    1.0917   -2.1251    0.0881 O   0  0  0  0  0  0  0  0  0  0  0  0
    0.4069   -0.1754   -1.3147 C   0  0  0  0  0  0  0  0  0  0  0  0
   -0.8068   -0.7427   -0.7083 C   0  0  0  0  0  0  0  0  0  0  0  0
   -1.9964    0.0410   -0.2880 C   0  0  0  0  0  0  0  0  0  0  0  0
   -1.8285    1.4990   -0.0844 C   0  0  0  0  0  0  0  0  0  0  0  0
    4.5336    0.4975    1.0411 H   0  0  0  0  0  0  0  0  0  0  0  0
    0.3297    0.9384    1.3410 H   0  0  0  0  0  0  0  0  0  0  0  0
    0.6302   -0.6435    2.1498 H   0  0  0  0  0  0  0  0  0  0  0  0
    1.0476   -2.4680   -0.8394 H   0  0  0  0  0  0  0  0  0  0  0  0
    0.9536   -0.7460   -2.1202 H   0  0  0  0  0  0  0  0  0  0  0  0
    0.5072    0.9121   -1.3482 H   0  0  0  0  0  0  0  0  0  0  0  0
   -1.1161   -1.7299   -1.2039 H   0  0  0  0  0  0  0  0  0  0  0  0
   -2.3927   -0.4620    0.6515 H   0  0  0  0  0  0  0  0  0  0  0  0
   -2.8651   -0.1070   -1.0052 H   0  0  0  0  0  0  0  0  0  0  0  0
   -2.7263    2.0388   -0.4885 H   0  0  0  0  0  0  0  0  0  0  0  0
   -0.8963    1.9541   -0.4106 H   0  0  0  0  0  0  0  0  0  0  0  0
   -1.8932    1.6942    1.0291 H   0  0  0  0  0  0  0  0  0  0  0  0
  1  2  3  0
  2  3  1  0
  3  4  1  0
  4  5  1  0
  4  6  1  0
  6  7  1  0
  7  8  1  0
  8  9  1  0
  7  4  1  0
  1 10  1  0
  3 11  1  0
  3 12  1  0
  5 13  1  0
  6 14  1  0
  6 15  1  0
  7 16  1  0
  8 17  1  0
  8 18  1  0
  9 19  1  0
  9 20  1  0
  9 21  1  0
M  END
