
     RDKit          3D

 17 17  0  0  0  0  0  0  0  0999 V2000
   -0.7038    2.4173   -0.3467 C   0  0  0  0  0  0  0  0  0  0  0  0
   -0.5201    1.3499    0.1814 C   0  0  0  0  0  0  0  0  0  0  0  0
   -0.3213    0.0644    0.8023 C   0  0  0  0  0  0  0  0  0  0  0  0
    0.9372   -0.6675    0.4603 C   0  0  0  0  0  0  0  0  0  0  0  0
    2.1618    0.1130    0.2126 C   0  0  0  0  0  0  0  0  0  0  0  0
    0.3298   -1.0218   -0.7684 O   0  0  0  0  0  0  0  0  0  0  0  0
   -0.8701   -1.0614   -0.0704 C   0  0  0  0  0  0  0  0  0  0  0  0
   -2.0657   -0.6868   -0.8550 C   0  0  0  0  0  0  0  0  0  0  0  0
   -3.1410   -0.7024   -0.3010 O   0  0  0  0  0  0  0  0  0  0  0  0
   -0.8563    3.3808   -0.8074 H   0  0  0  0  0  0  0  0  0  0  0  0
   -0.7106   -0.0424    1.8207 H   0  0  0  0  0  0  0  0  0  0  0  0
    1.0163   -1.5902    1.0754 H   0  0  0  0  0  0  0  0  0  0  0  0
    2.5832   -0.0667   -0.8113 H   0  0  0  0  0  0  0  0  0  0  0  0
    2.0940    1.1934    0.3396 H   0  0  0  0  0  0  0  0  0  0  0  0
    2.9540   -0.2411    0.9333 H   0  0  0  0  0  0  0  0  0  0  0  0
   -0.9352   -2.0260    0.4825 H   0  0  0  0  0  0  0  0  0  0  0  0
   -1.9520   -0.4127   -1.8870 H   0  0  0  0  0  0  0  0  0  0  0  0
  1  2  3  0
  2  3  1  0
  3  4  1  0
  4  5  1  0
  4  6  1  0
  6  7  1  0
  7  8  1  0
  8  9  2  0
  7  3  1  0
  1 10  1  0
  3 11  1  0
  4 12  1  0
  5 13  1  0
  5 14  1  0
  5 15  1  0
  7 16  1  0
  8 17  1  0
M  END
