
     RDKit          3D

 16 16  0  0  0  0  0  0  0  0999 V2000
    2.6901    0.9590    0.1213 C   0  0  0  0  0  0  0  0  0  0  0  0
    2.0986   -0.0596   -0.2102 C   0  0  0  0  0  0  0  0  0  0  0  0
    1.3909   -1.2873   -0.5831 C   0  0  0  0  0  0  0  0  0  0  0  0
    0.1463   -1.2751    0.0445 O   0  0  0  0  0  0  0  0  0  0  0  0
   -0.5962   -0.1750   -0.3516 C   0  0  0  0  0  0  0  0  0  0  0  0
   -2.0733   -0.3249   -0.3609 C   0  0  0  0  0  0  0  0  0  0  0  0
   -1.4221    0.4283    0.7788 C   0  0  0  0  0  0  0  0  0  0  0  0
   -1.4176    1.8092    0.7792 O   0  0  0  0  0  0  0  0  0  0  0  0
    3.2144    1.8376    0.3948 H   0  0  0  0  0  0  0  0  0  0  0  0
    1.9224   -2.1933   -0.1678 H   0  0  0  0  0  0  0  0  0  0  0  0
    1.3114   -1.3527   -1.6878 H   0  0  0  0  0  0  0  0  0  0  0  0
   -0.0994    0.4857   -1.0713 H   0  0  0  0  0  0  0  0  0  0  0  0
   -2.6968    0.3504   -1.0176 H   0  0  0  0  0  0  0  0  0  0  0  0
   -2.5281   -1.3141   -0.1506 H   0  0  0  0  0  0  0  0  0  0  0  0
   -1.4351   -0.0751    1.7609 H   0  0  0  0  0  0  0  0  0  0  0  0
   -0.5056    2.1868    0.8239 H   0  0  0  0  0  0  0  0  0  0  0  0
  1  2  3  0
  2  3  1  0
  3  4  1  0
  4  5  1  0
  5  6  1  0
  6  7  1  0
  7  8  1  0
  7  5  1  0
  1  9  1  0
  3 10  1  0
  3 11  1  0
  5 12  1  0
  6 13  1  0
  6 14  1  0
  7 15  1  0
  8 16  1  0
M  END
