
     RDKit          3D

 15 15  0  0  0  0  0  0  0  0999 V2000
    2.6803    2.4211    0.5926 C   0  0  0  0  0  0  0  0  0  0  0  0
    1.7808    1.6217    0.7947 C   0  0  0  0  0  0  0  0  0  0  0  0
    0.7107    0.6591    1.0608 C   0  0  0  0  0  0  0  0  0  0  0  0
    0.1894    0.2304   -0.1426 O   0  0  0  0  0  0  0  0  0  0  0  0
   -0.8262   -0.6782   -0.0420 C   0  0  0  0  0  0  0  0  0  0  0  0
   -0.6939   -1.8179   -1.0208 C   0  0  0  0  0  0  0  0  0  0  0  0
   -2.0868   -1.6683   -1.2539 O   0  0  0  0  0  0  0  0  0  0  0  0
   -1.9403   -0.3300   -0.9514 C   0  0  0  0  0  0  0  0  0  0  0  0
   -2.4920    0.7282   -1.2847 O   0  0  0  0  0  0  0  0  0  0  0  0
    3.4629    3.1031    0.4261 H   0  0  0  0  0  0  0  0  0  0  0  0
   -0.1134    1.2436    1.5666 H   0  0  0  0  0  0  0  0  0  0  0  0
    1.0016   -0.1284    1.7514 H   0  0  0  0  0  0  0  0  0  0  0  0
   -1.1261   -0.9760    0.9849 H   0  0  0  0  0  0  0  0  0  0  0  0
   -0.0646   -1.6034   -1.8813 H   0  0  0  0  0  0  0  0  0  0  0  0
   -0.4825   -2.8051   -0.6002 H   0  0  0  0  0  0  0  0  0  0  0  0
  1  2  3  0
  2  3  1  0
  3  4  1  0
  4  5  1  0
  5  6  1  0
  6  7  1  0
  7  8  1  0
  8  9  2  0
  8  5  1  0
  1 10  1  0
  3 11  1  0
  3 12  1  0
  5 13  1  0
  6 14  1  0
  6 15  1  0
M  END
