
     RDKit          3D

 17 17  0  0  0  0  0  0  0  0999 V2000
   -1.7490    1.9495   -1.7624 C   0  0  0  0  0  0  0  0  0  0  0  0
   -1.4414    0.6453   -1.7168 C   0  0  0  0  0  0  0  0  0  0  0  0
   -1.0998   -0.7518   -1.6554 C   0  0  0  0  0  0  0  0  0  0  0  0
    0.0596   -1.2280   -1.4836 O   0  0  0  0  0  0  0  0  0  0  0  0
   -0.8027   -0.9653   -0.1783 C   0  0  0  0  0  0  0  0  0  0  0  0
   -0.5852   -2.3339    0.4432 C   0  0  0  0  0  0  0  0  0  0  0  0
    0.2378    0.0546    0.3208 C   0  0  0  0  0  0  0  0  0  0  0  0
    1.1315    0.9488    0.7336 C   0  0  0  0  0  0  0  0  0  0  0  0
    2.1179    1.9069    1.1668 C   0  0  0  0  0  0  0  0  0  0  0  0
   -2.0106    3.1209   -1.7905 H   0  0  0  0  0  0  0  0  0  0  0  0
   -1.9257   -1.4478   -2.0689 H   0  0  0  0  0  0  0  0  0  0  0  0
    0.5904   -2.4713    0.4657 H   0  0  0  0  0  0  0  0  0  0  0  0
   -1.0701   -2.4866    1.3980 H   0  0  0  0  0  0  0  0  0  0  0  0
   -0.9165   -3.0674   -0.3010 H   0  0  0  0  0  0  0  0  0  0  0  0
    2.0123    2.9204    0.8518 H   0  0  0  0  0  0  0  0  0  0  0  0
    3.1347    1.5097    0.6733 H   0  0  0  0  0  0  0  0  0  0  0  0
    2.3166    1.6960    2.2892 H   0  0  0  0  0  0  0  0  0  0  0  0
  1  2  3  0
  2  3  1  0
  3  4  1  0
  4  5  1  0
  5  6  1  0
  5  7  1  0
  7  8  3  0
  8  9  1  0
  5  3  1  0
  1 10  1  0
  3 11  1  0
  6 12  1  0
  6 13  1  0
  6 14  1  0
  9 15  1  0
  9 16  1  0
  9 17  1  0
M  END
