
     RDKit          3D

 21 21  0  0  0  0  0  0  0  0999 V2000
    1.9957    1.2073    1.7100 C   0  0  0  0  0  0  0  0  0  0  0  0
    1.1561    0.2962    1.2367 C   0  0  0  0  0  0  0  0  0  0  0  0
    0.2967   -0.6177    0.7508 C   0  0  0  0  0  0  0  0  0  0  0  0
    0.9692   -1.1795   -0.4755 O   0  0  0  0  0  0  0  0  0  0  0  0
   -0.5959   -1.5286    1.3923 C   0  0  0  0  0  0  0  0  0  0  0  0
   -1.3091   -1.5059    0.0327 C   0  0  0  0  0  0  0  0  0  0  0  0
   -0.9624    0.0482    0.0503 C   0  0  0  0  0  0  0  0  0  0  0  0
   -0.7311    0.5981   -1.3144 C   0  0  0  0  0  0  0  0  0  0  0  0
    0.4173    1.6082   -1.2994 C   0  0  0  0  0  0  0  0  0  0  0  0
    2.8482    2.1205    2.1734 H   0  0  0  0  0  0  0  0  0  0  0  0
    1.8744   -0.8063   -0.5129 H   0  0  0  0  0  0  0  0  0  0  0  0
   -1.1698   -1.1301    2.2314 H   0  0  0  0  0  0  0  0  0  0  0  0
   -0.1041   -2.5762    1.6132 H   0  0  0  0  0  0  0  0  0  0  0  0
   -2.3215   -1.6792   -0.0704 H   0  0  0  0  0  0  0  0  0  0  0  0
   -0.6125   -2.0234   -0.6469 H   0  0  0  0  0  0  0  0  0  0  0  0
   -1.5671    0.5268    0.7881 H   0  0  0  0  0  0  0  0  0  0  0  0
   -1.6162    1.1913   -1.6962 H   0  0  0  0  0  0  0  0  0  0  0  0
   -0.5139   -0.2176   -2.0175 H   0  0  0  0  0  0  0  0  0  0  0  0
    1.3495    1.1178   -1.4663 H   0  0  0  0  0  0  0  0  0  0  0  0
    0.2396    2.3833   -2.1136 H   0  0  0  0  0  0  0  0  0  0  0  0
    0.3568    2.1668   -0.3658 H   0  0  0  0  0  0  0  0  0  0  0  0
  1  2  3  0
  2  3  1  0
  3  4  1  0
  3  5  1  0
  5  6  1  0
  6  7  1  0
  7  8  1  0
  8  9  1  0
  7  3  1  0
  1 10  1  0
  4 11  1  0
  5 12  1  0
  5 13  1  0
  6 14  1  0
  6 15  1  0
  7 16  1  0
  8 17  1  0
  8 18  1  0
  9 19  1  0
  9 20  1  0
  9 21  1  0
M  END
