
     RDKit          3D

 12 11  0  0  0  0  0  0  0  0999 V2000
    1.6662    1.6787    1.1432 C   0  0  0  0  0  0  0  0  0  0  0  0
    1.2473    0.9074    0.3796 C   0  0  0  0  0  0  0  0  0  0  0  0
    0.7246   -0.0430   -0.5715 C   0  0  0  0  0  0  0  0  0  0  0  0
    0.2398   -1.1184    0.5475 C   0  0  0  0  0  0  0  0  0  0  0  0
   -0.1269   -1.9391    1.3867 C   0  0  0  0  0  0  0  0  0  0  0  0
   -0.5378    0.4758   -0.8592 O   0  0  0  0  0  0  0  0  0  0  0  0
   -1.6605    0.3790   -1.3939 C   0  0  0  0  0  0  0  0  0  0  0  0
   -1.9594   -0.7541   -2.0042 O   0  0  0  0  0  0  0  0  0  0  0  0
    2.1093    2.5123    1.9893 H   0  0  0  0  0  0  0  0  0  0  0  0
    1.1917   -0.6658   -1.2651 H   0  0  0  0  0  0  0  0  0  0  0  0
   -0.4118   -2.5946    2.0566 H   0  0  0  0  0  0  0  0  0  0  0  0
   -2.4825    1.1619   -1.4091 H   0  0  0  0  0  0  0  0  0  0  0  0
  1  2  3  0
  2  3  1  0
  3  4  1  0
  4  5  3  0
  3  6  1  0
  6  7  1  0
  7  8  2  0
  1  9  1  0
  3 10  1  0
  5 11  1  0
  7 12  1  0
M  END
