
     RDKit          3D

 19 19  0  0  0  0  0  0  0  0999 V2000
    1.8894    2.0825   -1.2580 C   0  0  0  0  0  0  0  0  0  0  0  0
    1.3119    1.2287   -0.6389 C   0  0  0  0  0  0  0  0  0  0  0  0
    0.5896    0.1712    0.1010 C   0  0  0  0  0  0  0  0  0  0  0  0
    1.1811   -0.0711    1.4051 C   0  0  0  0  0  0  0  0  0  0  0  0
    2.3725    0.0801    1.5663 O   0  0  0  0  0  0  0  0  0  0  0  0
    0.6151   -1.1129   -0.7387 C   0  0  0  0  0  0  0  0  0  0  0  0
   -0.8325   -0.7992   -1.0985 C   0  0  0  0  0  0  0  0  0  0  0  0
   -0.8733    0.2757   -0.0321 C   0  0  0  0  0  0  0  0  0  0  0  0
   -1.7252   -0.0404    1.1583 C   0  0  0  0  0  0  0  0  0  0  0  0
    2.3900    2.8401   -1.7858 H   0  0  0  0  0  0  0  0  0  0  0  0
    0.6048   -0.3853    2.2568 H   0  0  0  0  0  0  0  0  0  0  0  0
    0.7467   -2.0308   -0.1451 H   0  0  0  0  0  0  0  0  0  0  0  0
    1.3206   -1.0822   -1.5893 H   0  0  0  0  0  0  0  0  0  0  0  0
   -1.4906   -1.6304   -0.8396 H   0  0  0  0  0  0  0  0  0  0  0  0
   -0.8698   -0.4232   -2.1375 H   0  0  0  0  0  0  0  0  0  0  0  0
   -1.2039    1.2358   -0.4916 H   0  0  0  0  0  0  0  0  0  0  0  0
   -2.7130   -0.4107    0.7522 H   0  0  0  0  0  0  0  0  0  0  0  0
   -1.9760    0.8936    1.7034 H   0  0  0  0  0  0  0  0  0  0  0  0
   -1.3373   -0.8217    1.8120 H   0  0  0  0  0  0  0  0  0  0  0  0
  1  2  3  0
  2  3  1  0
  3  4  1  0
  4  5  2  0
  3  6  1  0
  6  7  1  0
  7  8  1  0
  8  9  1  0
  8  3  1  0
  1 10  1  0
  4 11  1  0
  6 12  1  0
  6 13  1  0
  7 14  1  0
  7 15  1  0
  8 16  1  0
  9 17  1  0
  9 18  1  0
  9 19  1  0
M  END
