
     RDKit          3D

 23 22  0  0  0  0  0  0  0  0999 V2000
    3.0392    1.2583   -1.2245 C   0  0  0  0  0  0  0  0  0  0  0  0
    2.4725    0.5216   -0.4678 C   0  0  0  0  0  0  0  0  0  0  0  0
    1.7987   -0.3747    0.4728 C   0  0  0  0  0  0  0  0  0  0  0  0
    0.6807   -1.1413   -0.1713 C   0  0  0  0  0  0  0  0  0  0  0  0
    1.1813   -1.9160   -1.2164 O   0  0  0  0  0  0  0  0  0  0  0  0
   -0.4208   -0.2505   -0.6828 C   0  0  0  0  0  0  0  0  0  0  0  0
   -1.0024    0.5403    0.4851 C   0  0  0  0  0  0  0  0  0  0  0  0
   -1.5597   -0.4169    1.5191 C   0  0  0  0  0  0  0  0  0  0  0  0
   -2.1563    1.3848   -0.0467 C   0  0  0  0  0  0  0  0  0  0  0  0
    3.5308    1.9248   -1.8924 H   0  0  0  0  0  0  0  0  0  0  0  0
    2.5681   -1.0910    0.8268 H   0  0  0  0  0  0  0  0  0  0  0  0
    1.4418    0.1607    1.3763 H   0  0  0  0  0  0  0  0  0  0  0  0
    0.2720   -1.8398    0.5858 H   0  0  0  0  0  0  0  0  0  0  0  0
    2.0537   -2.2849   -0.8859 H   0  0  0  0  0  0  0  0  0  0  0  0
   -1.2505   -0.8833   -1.0581 H   0  0  0  0  0  0  0  0  0  0  0  0
   -0.1125    0.4117   -1.4871 H   0  0  0  0  0  0  0  0  0  0  0  0
   -0.2423    1.2201    0.9279 H   0  0  0  0  0  0  0  0  0  0  0  0
   -2.5799   -0.0712    1.8509 H   0  0  0  0  0  0  0  0  0  0  0  0
   -0.8762   -0.4614    2.3944 H   0  0  0  0  0  0  0  0  0  0  0  0
   -1.6667   -1.4370    1.0775 H   0  0  0  0  0  0  0  0  0  0  0  0
   -2.7527    0.7761   -0.7420 H   0  0  0  0  0  0  0  0  0  0  0  0
   -1.6906    2.2610   -0.5611 H   0  0  0  0  0  0  0  0  0  0  0  0
   -2.7283    1.7084    0.8477 H   0  0  0  0  0  0  0  0  0  0  0  0
  1  2  3  0
  2  3  1  0
  3  4  1  0
  4  5  1  0
  4  6  1  0
  6  7  1  0
  7  8  1  0
  7  9  1  0
  1 10  1  0
  3 11  1  0
  3 12  1  0
  4 13  1  0
  5 14  1  0
  6 15  1  0
  6 16  1  0
  7 17  1  0
  8 18  1  0
  8 19  1  0
  8 20  1  0
  9 21  1  0
  9 22  1  0
  9 23  1  0
M  END
