
     RDKit          3D

 21 21  0  0  0  0  0  0  0  0999 V2000
    3.3194    1.3073   -0.4794 C   0  0  0  0  0  0  0  0  0  0  0  0
    2.1993    1.0708   -0.2210 C   0  0  0  0  0  0  0  0  0  0  0  0
    0.8348    0.7584    0.0980 C   0  0  0  0  0  0  0  0  0  0  0  0
    0.7418   -0.3127    1.1330 C   0  0  0  0  0  0  0  0  0  0  0  0
   -0.2931   -1.2723    0.5895 C   0  0  0  0  0  0  0  0  0  0  0  0
   -1.1894   -0.3362   -0.2409 C   0  0  0  0  0  0  0  0  0  0  0  0
   -2.1752   -1.0134   -1.0949 C   0  0  0  0  0  0  0  0  0  0  0  0
   -0.0896    0.4339   -1.0118 C   0  0  0  0  0  0  0  0  0  0  0  0
   -0.6834    1.5871   -1.5683 O   0  0  0  0  0  0  0  0  0  0  0  0
    4.3759    1.5311   -0.7432 H   0  0  0  0  0  0  0  0  0  0  0  0
    0.3872    1.6991    0.6555 H   0  0  0  0  0  0  0  0  0  0  0  0
    1.6966   -0.9060    1.2591 H   0  0  0  0  0  0  0  0  0  0  0  0
    0.4282    0.0792    2.1359 H   0  0  0  0  0  0  0  0  0  0  0  0
   -0.8862   -1.6242    1.4700 H   0  0  0  0  0  0  0  0  0  0  0  0
    0.1519   -2.0686   -0.0068 H   0  0  0  0  0  0  0  0  0  0  0  0
   -1.6160    0.4453    0.4593 H   0  0  0  0  0  0  0  0  0  0  0  0
   -2.5761   -0.2857   -1.8708 H   0  0  0  0  0  0  0  0  0  0  0  0
   -1.7818   -1.9091   -1.5718 H   0  0  0  0  0  0  0  0  0  0  0  0
   -3.0907   -1.3518   -0.5165 H   0  0  0  0  0  0  0  0  0  0  0  0
    0.3814   -0.1865   -1.7852 H   0  0  0  0  0  0  0  0  0  0  0  0
   -0.1350    2.3546   -1.2363 H   0  0  0  0  0  0  0  0  0  0  0  0
  1  2  3  0
  2  3  1  0
  3  4  1  0
  4  5  1  0
  5  6  1  0
  6  7  1  0
  6  8  1  0
  8  9  1  0
  8  3  1  0
  1 10  1  0
  3 11  1  0
  4 12  1  0
  4 13  1  0
  5 14  1  0
  5 15  1  0
  6 16  1  0
  7 17  1  0
  7 18  1  0
  7 19  1  0
  8 20  1  0
  9 21  1  0
M  END
