
     RDKit          3D

 19 20  0  0  0  0  0  0  0  0999 V2000
    2.5392    0.0052    1.8035 C   0  0  0  0  0  0  0  0  0  0  0  0
    1.5112   -0.5851    1.4469 C   0  0  0  0  0  0  0  0  0  0  0  0
    0.2952   -1.2734    1.0513 C   0  0  0  0  0  0  0  0  0  0  0  0
   -0.2817   -0.6860   -0.0799 C   0  0  0  0  0  0  0  0  0  0  0  0
   -1.5197   -1.0974   -0.7882 C   0  0  0  0  0  0  0  0  0  0  0  0
   -0.9099    0.0420   -1.5517 C   0  0  0  0  0  0  0  0  0  0  0  0
    0.3130   -0.5699   -1.3170 O   0  0  0  0  0  0  0  0  0  0  0  0
   -0.7149    0.7230   -0.2335 C   0  0  0  0  0  0  0  0  0  0  0  0
    0.3276    1.7938   -0.2255 C   0  0  0  0  0  0  0  0  0  0  0  0
    3.4009    0.4996    2.0837 H   0  0  0  0  0  0  0  0  0  0  0  0
   -0.4350   -1.3444    1.8888 H   0  0  0  0  0  0  0  0  0  0  0  0
    0.5950   -2.3348    0.8301 H   0  0  0  0  0  0  0  0  0  0  0  0
   -2.4509   -0.8126   -0.2873 H   0  0  0  0  0  0  0  0  0  0  0  0
   -1.5024   -2.0871   -1.2719 H   0  0  0  0  0  0  0  0  0  0  0  0
   -1.2171    0.4605   -2.4099 H   0  0  0  0  0  0  0  0  0  0  0  0
   -1.6485    0.9578    0.2821 H   0  0  0  0  0  0  0  0  0  0  0  0
    0.3123    2.3019    0.7803 H   0  0  0  0  0  0  0  0  0  0  0  0
    0.0728    2.6140   -0.9476 H   0  0  0  0  0  0  0  0  0  0  0  0
    1.3129    1.3928   -0.4723 H   0  0  0  0  0  0  0  0  0  0  0  0
  1  2  3  0
  2  3  1  0
  3  4  1  0
  4  5  1  0
  5  6  1  0
  6  7  1  0
  6  8  1  0
  8  9  1  0
  7  4  1  0
  8  4  1  0
  1 10  1  0
  3 11  1  0
  3 12  1  0
  5 13  1  0
  5 14  1  0
  6 15  1  0
  8 16  1  0
  9 17  1  0
  9 18  1  0
  9 19  1  0
M  END
