
     RDKit          3D

 17 18  0  0  0  0  0  0  0  0999 V2000
   -2.4824   -1.5705    0.9712 C   0  0  0  0  0  0  0  0  0  0  0  0
   -1.7132   -0.7451    0.5767 C   0  0  0  0  0  0  0  0  0  0  0  0
   -0.8411    0.1844    0.1531 C   0  0  0  0  0  0  0  0  0  0  0  0
   -0.6505    1.5383    0.7568 C   0  0  0  0  0  0  0  0  0  0  0  0
    0.2488    1.4159   -0.4367 C   0  0  0  0  0  0  0  0  0  0  0  0
   -0.8204    0.7913   -1.0728 O   0  0  0  0  0  0  0  0  0  0  0  0
    0.6248    0.0558    0.0732 C   0  0  0  0  0  0  0  0  0  0  0  0
    1.1868   -0.8309   -1.0144 C   0  0  0  0  0  0  0  0  0  0  0  0
    2.5936   -0.7804   -0.8711 O   0  0  0  0  0  0  0  0  0  0  0  0
   -3.1818   -2.3246    1.3111 H   0  0  0  0  0  0  0  0  0  0  0  0
   -1.4563    2.2645    0.6273 H   0  0  0  0  0  0  0  0  0  0  0  0
   -0.1882    1.5346    1.7434 H   0  0  0  0  0  0  0  0  0  0  0  0
    0.8586    2.1168   -0.8212 H   0  0  0  0  0  0  0  0  0  0  0  0
    1.1897    0.0084    1.0038 H   0  0  0  0  0  0  0  0  0  0  0  0
    0.9028   -0.3988   -1.9911 H   0  0  0  0  0  0  0  0  0  0  0  0
    0.8990   -1.8896   -0.9057 H   0  0  0  0  0  0  0  0  0  0  0  0
    2.8299   -1.3700   -0.1035 H   0  0  0  0  0  0  0  0  0  0  0  0
  1  2  3  0
  2  3  1  0
  3  4  1  0
  4  5  1  0
  5  6  1  0
  5  7  1  0
  7  8  1  0
  8  9  1  0
  6  3  1  0
  7  3  1  0
  1 10  1  0
  4 11  1  0
  4 12  1  0
  5 13  1  0
  7 14  1  0
  8 15  1  0
  8 16  1  0
  9 17  1  0
M  END
