
     RDKit          3D

 16 16  0  0  0  0  0  0  0  0999 V2000
    2.8877    0.6672    0.2050 C   0  0  0  0  0  0  0  0  0  0  0  0
    1.6977    0.8577    0.2281 C   0  0  0  0  0  0  0  0  0  0  0  0
    0.2431    1.0647    0.2527 C   0  0  0  0  0  0  0  0  0  0  0  0
   -0.4075   -0.0626   -0.4876 C   0  0  0  0  0  0  0  0  0  0  0  0
   -0.0181   -0.1590   -1.7969 O   0  0  0  0  0  0  0  0  0  0  0  0
   -1.8865   -0.2214   -0.3090 C   0  0  0  0  0  0  0  0  0  0  0  0
   -1.6868   -1.6204   -0.3897 O   0  0  0  0  0  0  0  0  0  0  0  0
   -0.4331   -1.3829    0.2118 C   0  0  0  0  0  0  0  0  0  0  0  0
    3.9518    0.4943    0.1958 H   0  0  0  0  0  0  0  0  0  0  0  0
    0.0594    1.9997   -0.3519 H   0  0  0  0  0  0  0  0  0  0  0  0
   -0.1529    1.2278    1.2562 H   0  0  0  0  0  0  0  0  0  0  0  0
    0.7790    0.3918   -2.0090 H   0  0  0  0  0  0  0  0  0  0  0  0
   -2.2766    0.0539    0.6936 H   0  0  0  0  0  0  0  0  0  0  0  0
   -2.4937    0.1661   -1.1559 H   0  0  0  0  0  0  0  0  0  0  0  0
    0.2990   -2.1437   -0.1346 H   0  0  0  0  0  0  0  0  0  0  0  0
   -0.5626   -1.3332    1.3170 H   0  0  0  0  0  0  0  0  0  0  0  0
  1  2  3  0
  2  3  1  0
  3  4  1  0
  4  5  1  0
  4  6  1  0
  6  7  1  0
  7  8  1  0
  8  4  1  0
  1  9  1  0
  3 10  1  0
  3 11  1  0
  5 12  1  0
  6 13  1  0
  6 14  1  0
  8 15  1  0
  8 16  1  0
M  END
