
     RDKit          3D

 18 18  0  0  0  0  0  0  0  0999 V2000
   -1.1880    2.3120    1.2666 C   0  0  0  0  0  0  0  0  0  0  0  0
   -0.4174    1.3319    1.2347 C   0  0  0  0  0  0  0  0  0  0  0  0
    0.4963    0.1980    1.2158 C   0  0  0  0  0  0  0  0  0  0  0  0
   -0.2586   -1.0423    1.6492 C   0  0  0  0  0  0  0  0  0  0  0  0
    0.9878    0.0045   -0.2308 C   0  0  0  0  0  0  0  0  0  0  0  0
   -0.2032   -0.2601   -1.1331 C   0  0  0  0  0  0  0  0  0  0  0  0
    0.1591   -0.4823   -2.5831 C   0  0  0  0  0  0  0  0  0  0  0  0
   -0.4716    0.6992   -2.1210 O   0  0  0  0  0  0  0  0  0  0  0  0
   -1.8491    3.1695    1.2850 H   0  0  0  0  0  0  0  0  0  0  0  0
    1.3631    0.3490    1.8621 H   0  0  0  0  0  0  0  0  0  0  0  0
    0.0921   -1.4332    2.6223 H   0  0  0  0  0  0  0  0  0  0  0  0
   -0.1811   -1.8474    0.8758 H   0  0  0  0  0  0  0  0  0  0  0  0
   -1.3219   -0.7894    1.7063 H   0  0  0  0  0  0  0  0  0  0  0  0
    1.6106   -0.8917   -0.2823 H   0  0  0  0  0  0  0  0  0  0  0  0
    1.5251    0.9048   -0.5451 H   0  0  0  0  0  0  0  0  0  0  0  0
   -1.0556   -0.7752   -0.6934 H   0  0  0  0  0  0  0  0  0  0  0  0
   -0.4706   -1.1742   -3.2039 H   0  0  0  0  0  0  0  0  0  0  0  0
    1.1832   -0.2731   -2.9251 H   0  0  0  0  0  0  0  0  0  0  0  0
  1  2  3  0
  2  3  1  0
  3  4  1  0
  3  5  1  0
  5  6  1  0
  6  7  1  0
  7  8  1  0
  8  6  1  0
  1  9  1  0
  3 10  1  0
  4 11  1  0
  4 12  1  0
  4 13  1  0
  5 14  1  0
  5 15  1  0
  6 16  1  0
  7 17  1  0
  7 18  1  0
M  END
