
     RDKit          3D

 17 18  0  0  0  0  0  0  0  0999 V2000
    3.0165    0.7820    0.9328 C   0  0  0  0  0  0  0  0  0  0  0  0
    1.9195    0.4547    0.5532 C   0  0  0  0  0  0  0  0  0  0  0  0
    0.5988    0.0857    0.1063 C   0  0  0  0  0  0  0  0  0  0  0  0
   -0.0108    0.9931   -0.9342 C   0  0  0  0  0  0  0  0  0  0  0  0
   -1.3461    0.6992   -1.1184 O   0  0  0  0  0  0  0  0  0  0  0  0
   -1.6343   -0.6377   -0.9440 C   0  0  0  0  0  0  0  0  0  0  0  0
   -0.8520   -1.1843    0.2222 C   0  0  0  0  0  0  0  0  0  0  0  0
   -0.4184   -0.1241    1.1882 C   0  0  0  0  0  0  0  0  0  0  0  0
    0.4909   -1.2549   -0.2141 O   0  0  0  0  0  0  0  0  0  0  0  0
    3.9957    1.0756    1.2745 H   0  0  0  0  0  0  0  0  0  0  0  0
    0.0320    2.0297   -0.5044 H   0  0  0  0  0  0  0  0  0  0  0  0
    0.5371    0.9886   -1.8925 H   0  0  0  0  0  0  0  0  0  0  0  0
   -1.2331   -1.1674   -1.8579 H   0  0  0  0  0  0  0  0  0  0  0  0
   -2.7089   -0.8112   -0.8741 H   0  0  0  0  0  0  0  0  0  0  0  0
   -1.2364   -2.1194    0.6611 H   0  0  0  0  0  0  0  0  0  0  0  0
   -1.1139    0.7323    1.2796 H   0  0  0  0  0  0  0  0  0  0  0  0
   -0.0368   -0.5416    2.1218 H   0  0  0  0  0  0  0  0  0  0  0  0
  1  2  3  0
  2  3  1  0
  3  4  1  0
  4  5  1  0
  5  6  1  0
  6  7  1  0
  7  8  1  0
  7  9  1  0
  8  3  1  0
  9  3  1  0
  1 10  1  0
  4 11  1  0
  4 12  1  0
  6 13  1  0
  6 14  1  0
  7 15  1  0
  8 16  1  0
  8 17  1  0
M  END
