
     RDKit          3D

 20 19  0  0  0  0  0  0  0  0999 V2000
   -0.1132    1.3245    2.6221 C   0  0  0  0  0  0  0  0  0  0  0  0
    0.0969    0.8273    1.5429 C   0  0  0  0  0  0  0  0  0  0  0  0
    0.3563    0.2066    0.2190 C   0  0  0  0  0  0  0  0  0  0  0  0
    0.0359    1.1874   -0.8550 C   0  0  0  0  0  0  0  0  0  0  0  0
   -0.5861   -0.9821    0.0707 C   0  0  0  0  0  0  0  0  0  0  0  0
   -2.0340   -0.4933    0.1579 C   0  0  0  0  0  0  0  0  0  0  0  0
    1.6676   -0.2149    0.2384 O   0  0  0  0  0  0  0  0  0  0  0  0
    2.1120   -0.8213   -0.9058 C   0  0  0  0  0  0  0  0  0  0  0  0
   -0.3142    1.7576    3.5730 H   0  0  0  0  0  0  0  0  0  0  0  0
   -0.6160    0.8109   -1.6499 H   0  0  0  0  0  0  0  0  0  0  0  0
   -0.4607    2.0928   -0.4316 H   0  0  0  0  0  0  0  0  0  0  0  0
    0.9585    1.5864   -1.3668 H   0  0  0  0  0  0  0  0  0  0  0  0
   -0.4561   -1.4791   -0.9089 H   0  0  0  0  0  0  0  0  0  0  0  0
   -0.4204   -1.7264    0.8689 H   0  0  0  0  0  0  0  0  0  0  0  0
   -2.6403   -1.2563   -0.3919 H   0  0  0  0  0  0  0  0  0  0  0  0
   -2.1721    0.4570   -0.3750 H   0  0  0  0  0  0  0  0  0  0  0  0
   -2.3177   -0.4452    1.2341 H   0  0  0  0  0  0  0  0  0  0  0  0
    3.1918   -1.0950   -0.7122 H   0  0  0  0  0  0  0  0  0  0  0  0
    1.5398   -1.7035   -1.2297 H   0  0  0  0  0  0  0  0  0  0  0  0
    2.1722   -0.0332   -1.7002 H   0  0  0  0  0  0  0  0  0  0  0  0
  1  2  3  0
  2  3  1  0
  3  4  1  0
  3  5  1  0
  5  6  1  0
  3  7  1  0
  7  8  1  0
  1  9  1  0
  4 10  1  0
  4 11  1  0
  4 12  1  0
  5 13  1  0
  5 14  1  0
  6 15  1  0
  6 16  1  0
  6 17  1  0
  8 18  1  0
  8 19  1  0
  8 20  1  0
M  END
