
     RDKit          3D

 17 18  0  0  0  0  0  0  0  0999 V2000
    2.2482    1.5076   -0.2660 C   0  0  0  0  0  0  0  0  0  0  0  0
    1.1681    0.7780   -0.5576 C   0  0  0  0  0  0  0  0  0  0  0  0
    0.0172    0.0188   -0.8464 C   0  0  0  0  0  0  0  0  0  0  0  0
    0.4949   -1.4301   -1.2834 C   0  0  0  0  0  0  0  0  0  0  0  0
   -0.7021   -1.9590   -0.8636 O   0  0  0  0  0  0  0  0  0  0  0  0
   -1.1138   -0.6321   -0.6081 C   0  0  0  0  0  0  0  0  0  0  0  0
   -0.6054   -0.1144    0.6353 C   0  0  0  0  0  0  0  0  0  0  0  0
   -1.0743    1.1997    1.1542 C   0  0  0  0  0  0  0  0  0  0  0  0
    0.2262   -0.8015    1.4759 O   0  0  0  0  0  0  0  0  0  0  0  0
    3.0334    2.0205   -0.0647 H   0  0  0  0  0  0  0  0  0  0  0  0
    1.3928   -1.7561   -0.7669 H   0  0  0  0  0  0  0  0  0  0  0  0
    0.5810   -1.3712   -2.3827 H   0  0  0  0  0  0  0  0  0  0  0  0
   -2.1793   -0.3859   -0.9024 H   0  0  0  0  0  0  0  0  0  0  0  0
   -0.5592    2.0688    0.6401 H   0  0  0  0  0  0  0  0  0  0  0  0
   -0.8032    1.3492    2.2290 H   0  0  0  0  0  0  0  0  0  0  0  0
   -2.1694    1.2903    1.0604 H   0  0  0  0  0  0  0  0  0  0  0  0
    0.0448   -1.7827    1.3469 H   0  0  0  0  0  0  0  0  0  0  0  0
  1  2  3  0
  2  3  1  0
  3  4  1  0
  4  5  1  0
  5  6  1  0
  6  7  1  0
  7  8  1  0
  7  9  1  0
  6  3  1  0
  7  3  1  0
  1 10  1  0
  4 11  1  0
  4 12  1  0
  6 13  1  0
  8 14  1  0
  8 15  1  0
  8 16  1  0
  9 17  1  0
M  END
