
     RDKit          3D

 19 19  0  0  0  0  0  0  0  0999 V2000
    3.4253   -0.2143    2.2211 C   0  0  0  0  0  0  0  0  0  0  0  0
    2.3958   -0.1980    1.5891 C   0  0  0  0  0  0  0  0  0  0  0  0
    1.1443   -0.1716    0.8495 C   0  0  0  0  0  0  0  0  0  0  0  0
    0.1957   -1.0902    0.8832 C   0  0  0  0  0  0  0  0  0  0  0  0
   -0.9550   -0.7599    0.0097 C   0  0  0  0  0  0  0  0  0  0  0  0
   -0.4117    0.3436   -0.8674 C   0  0  0  0  0  0  0  0  0  0  0  0
   -1.5055    1.3646   -1.0499 C   0  0  0  0  0  0  0  0  0  0  0  0
   -2.5870    0.7284   -1.6560 O   0  0  0  0  0  0  0  0  0  0  0  0
    0.7476    0.9061   -0.0651 C   0  0  0  0  0  0  0  0  0  0  0  0
    4.3271   -0.2470    2.7776 H   0  0  0  0  0  0  0  0  0  0  0  0
    0.3116   -1.9888    1.5190 H   0  0  0  0  0  0  0  0  0  0  0  0
   -1.8274   -0.4234    0.6032 H   0  0  0  0  0  0  0  0  0  0  0  0
   -1.1885   -1.6385   -0.6319 H   0  0  0  0  0  0  0  0  0  0  0  0
   -0.1080   -0.0099   -1.8546 H   0  0  0  0  0  0  0  0  0  0  0  0
   -1.1830    2.2516   -1.6197 H   0  0  0  0  0  0  0  0  0  0  0  0
   -1.8861    1.7402   -0.0610 H   0  0  0  0  0  0  0  0  0  0  0  0
   -2.8969    1.3135   -2.3862 H   0  0  0  0  0  0  0  0  0  0  0  0
    1.5747    1.2406   -0.7392 H   0  0  0  0  0  0  0  0  0  0  0  0
    0.4271    1.8358    0.4785 H   0  0  0  0  0  0  0  0  0  0  0  0
  1  2  3  0
  2  3  1  0
  3  4  2  0
  4  5  1  0
  5  6  1  0
  6  7  1  0
  7  8  1  0
  6  9  1  0
  9  3  1  0
  1 10  1  0
  4 11  1  0
  5 12  1  0
  5 13  1  0
  6 14  1  0
  7 15  1  0
  7 16  1  0
  8 17  1  0
  9 18  1  0
  9 19  1  0
M  END
