
     RDKit          3D

 19 19  0  0  0  0  0  0  0  0999 V2000
    2.1275    0.1498    2.6110 C   0  0  0  0  0  0  0  0  0  0  0  0
    1.0754    0.1005    2.6655 C   0  0  0  0  0  0  0  0  0  0  0  0
   -0.5712    0.0454    2.7440 C   0  0  0  0  0  0  0  0  0  0  0  0
   -0.8826    0.5279    1.3355 C   0  0  0  0  0  0  0  0  0  0  0  0
   -0.3650   -0.4061    0.4218 O   0  0  0  0  0  0  0  0  0  0  0  0
   -0.5013    0.0293   -0.8754 C   0  0  0  0  0  0  0  0  0  0  0  0
   -0.7733   -1.0440   -1.9364 C   0  0  0  0  0  0  0  0  0  0  0  0
    0.5767   -0.4522   -1.8536 C   0  0  0  0  0  0  0  0  0  0  0  0
    1.0085    0.5747   -2.6983 O   0  0  0  0  0  0  0  0  0  0  0  0
    3.3399    0.2265    2.5528 H   0  0  0  0  0  0  0  0  0  0  0  0
   -0.7816    0.7529    3.4876 H   0  0  0  0  0  0  0  0  0  0  0  0
   -0.7335   -0.9906    2.9233 H   0  0  0  0  0  0  0  0  0  0  0  0
   -0.3954    1.4768    1.1670 H   0  0  0  0  0  0  0  0  0  0  0  0
   -1.9702    0.4749    1.2421 H   0  0  0  0  0  0  0  0  0  0  0  0
   -0.9438    1.0327   -1.0695 H   0  0  0  0  0  0  0  0  0  0  0  0
   -0.9948   -2.0385   -1.4661 H   0  0  0  0  0  0  0  0  0  0  0  0
   -1.5009   -0.8058   -2.7265 H   0  0  0  0  0  0  0  0  0  0  0  0
    1.3755   -1.1159   -1.5210 H   0  0  0  0  0  0  0  0  0  0  0  0
    0.9102    1.4616   -2.2224 H   0  0  0  0  0  0  0  0  0  0  0  0
  1  2  3  0
  2  3  1  0
  3  4  1  0
  4  5  1  0
  5  6  1  0
  6  7  1  0
  7  8  1  0
  8  9  1  0
  8  6  1  0
  1 10  1  0
  3 11  1  0
  3 12  1  0
  4 13  1  0
  4 14  1  0
  6 15  1  0
  7 16  1  0
  7 17  1  0
  8 18  1  0
  9 19  1  0
M  END
