
     RDKit          3D

 20 19  0  0  0  0  0  0  0  0999 V2000
    3.9500    1.1341    0.8625 C   0  0  0  0  0  0  0  0  0  0  0  0
    2.4675    0.4458    1.0420 C   0  0  0  0  0  0  0  0  0  0  0  0
    1.3592   -0.0638    1.1644 C   0  0  0  0  0  0  0  0  0  0  0  0
    0.4374    0.5721    0.2957 O   0  0  0  0  0  0  0  0  0  0  0  0
   -0.6610   -0.0598   -0.0479 C   0  0  0  0  0  0  0  0  0  0  0  0
   -1.4980    1.0164   -0.8991 C   0  0  0  0  0  0  0  0  0  0  0  0
   -1.6006   -0.4648    0.9963 C   0  0  0  0  0  0  0  0  0  0  0  0
   -0.3382   -1.1067   -1.1122 C   0  0  0  0  0  0  0  0  0  0  0  0
    5.0112    1.6453    0.7206 H   0  0  0  0  0  0  0  0  0  0  0  0
    1.3982   -1.2160    0.9217 H   0  0  0  0  0  0  0  0  0  0  0  0
    0.9911   -0.0650    2.2522 H   0  0  0  0  0  0  0  0  0  0  0  0
   -1.7186    1.8955   -0.1891 H   0  0  0  0  0  0  0  0  0  0  0  0
   -0.9007    1.3193   -1.7492 H   0  0  0  0  0  0  0  0  0  0  0  0
   -2.4710    0.6214   -1.1446 H   0  0  0  0  0  0  0  0  0  0  0  0
   -1.3234   -1.3344    1.6472 H   0  0  0  0  0  0  0  0  0  0  0  0
   -1.8043    0.4471    1.6558 H   0  0  0  0  0  0  0  0  0  0  0  0
   -2.6399   -0.7489    0.6002 H   0  0  0  0  0  0  0  0  0  0  0  0
    0.6702   -0.8089   -1.5306 H   0  0  0  0  0  0  0  0  0  0  0  0
   -1.1345   -1.1091   -1.8802 H   0  0  0  0  0  0  0  0  0  0  0  0
   -0.1944   -2.1196   -0.7584 H   0  0  0  0  0  0  0  0  0  0  0  0
  1  2  3  0
  2  3  1  0
  3  4  1  0
  4  5  1  0
  5  6  1  0
  5  7  1  0
  5  8  1  0
  1  9  1  0
  3 10  1  0
  3 11  1  0
  6 12  1  0
  6 13  1  0
  6 14  1  0
  7 15  1  0
  7 16  1  0
  7 17  1  0
  8 18  1  0
  8 19  1  0
  8 20  1  0
M  END
