
     RDKit          3D

 17 18  0  0  0  0  0  0  0  0999 V2000
    2.5888   -0.7045   -0.9751 C   0  0  0  0  0  0  0  0  0  0  0  0
    1.5285   -0.1593   -1.1419 C   0  0  0  0  0  0  0  0  0  0  0  0
    0.3145    0.4886   -1.3233 C   0  0  0  0  0  0  0  0  0  0  0  0
    0.4020    1.7719   -1.7823 O   0  0  0  0  0  0  0  0  0  0  0  0
   -0.8250   -0.4216   -1.3804 C   0  0  0  0  0  0  0  0  0  0  0  0
   -0.6939    0.4363   -0.1413 C   0  0  0  0  0  0  0  0  0  0  0  0
   -0.1826   -0.1346    1.1225 C   0  0  0  0  0  0  0  0  0  0  0  0
   -1.1108   -0.0913    2.2709 C   0  0  0  0  0  0  0  0  0  0  0  0
   -0.9462   -1.3321    1.5305 O   0  0  0  0  0  0  0  0  0  0  0  0
    3.8763   -1.3406   -0.7705 H   0  0  0  0  0  0  0  0  0  0  0  0
    0.5380    2.3785   -0.9201 H   0  0  0  0  0  0  0  0  0  0  0  0
   -0.5657   -1.5472   -1.1282 H   0  0  0  0  0  0  0  0  0  0  0  0
   -1.5957   -0.3645   -2.1038 H   0  0  0  0  0  0  0  0  0  0  0  0
   -1.4358    1.2310   -0.0270 H   0  0  0  0  0  0  0  0  0  0  0  0
    0.8774   -0.2937    1.2983 H   0  0  0  0  0  0  0  0  0  0  0  0
   -0.7051   -0.2621    3.3097 H   0  0  0  0  0  0  0  0  0  0  0  0
   -2.0646    0.3453    2.1621 H   0  0  0  0  0  0  0  0  0  0  0  0
  1  2  3  0
  2  3  1  0
  3  4  1  0
  3  5  1  0
  5  6  1  0
  6  7  1  0
  7  8  1  0
  8  9  1  0
  6  3  1  0
  9  7  1  0
  1 10  1  0
  4 11  1  0
  5 12  1  0
  5 13  1  0
  6 14  1  0
  7 15  1  0
  8 16  1  0
  8 17  1  0
M  END
