
     RDKit          3D

 19 19  0  0  0  0  0  0  0  0999 V2000
   -0.6385    2.6521   -0.0143 C   0  0  0  0  0  0  0  0  0  0  0  0
   -0.5182    1.4740   -0.3357 C   0  0  0  0  0  0  0  0  0  0  0  0
   -0.3858    0.0652   -0.6962 C   0  0  0  0  0  0  0  0  0  0  0  0
    0.7227   -0.7371   -0.1497 C   0  0  0  0  0  0  0  0  0  0  0  0
    0.8832   -0.9276    1.2944 C   0  0  0  0  0  0  0  0  0  0  0  0
    1.2257    0.2964    2.0219 C   0  0  0  0  0  0  0  0  0  0  0  0
    1.5882    1.3535    1.5603 O   0  0  0  0  0  0  0  0  0  0  0  0
   -1.6429   -0.6264   -1.1789 C   0  0  0  0  0  0  0  0  0  0  0  0
   -0.6451   -0.2497   -2.2036 C   0  0  0  0  0  0  0  0  0  0  0  0
   -0.7575    3.6717    0.2729 H   0  0  0  0  0  0  0  0  0  0  0  0
    0.6386   -1.7649   -0.6481 H   0  0  0  0  0  0  0  0  0  0  0  0
    1.6981   -0.3502   -0.6019 H   0  0  0  0  0  0  0  0  0  0  0  0
   -0.0100   -1.4089    1.7769 H   0  0  0  0  0  0  0  0  0  0  0  0
    1.7760   -1.6226    1.4541 H   0  0  0  0  0  0  0  0  0  0  0  0
    1.1396    0.2416    3.1312 H   0  0  0  0  0  0  0  0  0  0  0  0
   -2.5690   -0.0228   -1.1169 H   0  0  0  0  0  0  0  0  0  0  0  0
   -1.6764   -1.6981   -0.8871 H   0  0  0  0  0  0  0  0  0  0  0  0
   -0.7952    0.6670   -2.8348 H   0  0  0  0  0  0  0  0  0  0  0  0
   -0.0337   -1.0132   -2.6867 H   0  0  0  0  0  0  0  0  0  0  0  0
  1  2  3  0
  2  3  1  0
  3  4  1  0
  4  5  1  0
  5  6  1  0
  6  7  2  0
  3  8  1  0
  8  9  1  0
  9  3  1  0
  1 10  1  0
  4 11  1  0
  4 12  1  0
  5 13  1  0
  5 14  1  0
  6 15  1  0
  8 16  1  0
  8 17  1  0
  9 18  1  0
  9 19  1  0
M  END
