
     RDKit          3D

 18 18  0  0  0  0  0  0  0  0999 V2000
    3.4431    0.2263   -1.4669 C   0  0  0  0  0  0  0  0  0  0  0  0
    2.3818   -0.2192   -1.1043 C   0  0  0  0  0  0  0  0  0  0  0  0
    1.0959   -0.7512   -0.6913 C   0  0  0  0  0  0  0  0  0  0  0  0
    0.8851   -1.0850    0.7678 C   0  0  0  0  0  0  0  0  0  0  0  0
    0.2122    0.1326    0.1130 C   0  0  0  0  0  0  0  0  0  0  0  0
   -1.2759    0.0623    0.0637 C   0  0  0  0  0  0  0  0  0  0  0  0
   -1.9229    1.0987    0.9876 C   0  0  0  0  0  0  0  0  0  0  0  0
   -1.8029    0.1268   -1.2337 O   0  0  0  0  0  0  0  0  0  0  0  0
    4.3963    0.6467   -1.7993 H   0  0  0  0  0  0  0  0  0  0  0  0
    0.5393   -1.3410   -1.4639 H   0  0  0  0  0  0  0  0  0  0  0  0
    0.2397   -1.9983    0.9145 H   0  0  0  0  0  0  0  0  0  0  0  0
    1.7160   -0.9188    1.4715 H   0  0  0  0  0  0  0  0  0  0  0  0
    0.6423    1.0829    0.4985 H   0  0  0  0  0  0  0  0  0  0  0  0
   -1.6057   -0.9220    0.4581 H   0  0  0  0  0  0  0  0  0  0  0  0
   -2.9138    1.3962    0.6348 H   0  0  0  0  0  0  0  0  0  0  0  0
   -2.0501    0.6887    2.0108 H   0  0  0  0  0  0  0  0  0  0  0  0
   -1.2358    1.9721    1.0868 H   0  0  0  0  0  0  0  0  0  0  0  0
   -2.7446   -0.1977   -1.2479 H   0  0  0  0  0  0  0  0  0  0  0  0
  1  2  3  0
  2  3  1  0
  3  4  1  0
  4  5  1  0
  5  6  1  0
  6  7  1  0
  6  8  1  0
  5  3  1  0
  1  9  1  0
  3 10  1  0
  4 11  1  0
  4 12  1  0
  5 13  1  0
  6 14  1  0
  7 15  1  0
  7 16  1  0
  7 17  1  0
  8 18  1  0
M  END
