
     RDKit          3D

 15 16  0  0  0  0  0  0  0  0999 V2000
    2.6317   -0.9625    0.9847 C   0  0  0  0  0  0  0  0  0  0  0  0
    1.6957   -0.7182    0.5676 C   0  0  0  0  0  0  0  0  0  0  0  0
    0.4095   -0.3763   -0.0333 C   0  0  0  0  0  0  0  0  0  0  0  0
   -0.7590   -0.1581    0.8896 C   0  0  0  0  0  0  0  0  0  0  0  0
   -1.2682    0.6437   -0.3269 C   0  0  0  0  0  0  0  0  0  0  0  0
    0.2037    1.0765   -0.4280 C   0  0  0  0  0  0  0  0  0  0  0  0
   -1.3080   -0.4178   -1.3538 C   0  0  0  0  0  0  0  0  0  0  0  0
   -2.1618   -0.6394   -2.2455 O   0  0  0  0  0  0  0  0  0  0  0  0
   -0.1139   -1.1266   -1.0682 O   0  0  0  0  0  0  0  0  0  0  0  0
    3.6151   -1.2286    1.4427 H   0  0  0  0  0  0  0  0  0  0  0  0
   -0.5486    0.4937    1.7674 H   0  0  0  0  0  0  0  0  0  0  0  0
   -1.3114   -1.0736    1.0764 H   0  0  0  0  0  0  0  0  0  0  0  0
   -2.0211    1.3469   -0.1865 H   0  0  0  0  0  0  0  0  0  0  0  0
    0.4271    1.7906    0.3600 H   0  0  0  0  0  0  0  0  0  0  0  0
    0.5090    1.3497   -1.4462 H   0  0  0  0  0  0  0  0  0  0  0  0
  1  2  3  0
  2  3  1  0
  3  4  1  0
  4  5  1  0
  5  6  1  0
  5  7  1  0
  7  8  2  0
  7  9  1  0
  6  3  1  0
  9  3  1  0
  1 10  1  0
  4 11  1  0
  4 12  1  0
  5 13  1  0
  6 14  1  0
  6 15  1  0
M  END
