
     RDKit          3D

 25 24  0  0  0  0  0  0  0  0999 V2000
    0.7043    3.0549    0.1438 C   0  0  0  0  0  0  0  0  0  0  0  0
    0.7034    1.8684   -0.0710 C   0  0  0  0  0  0  0  0  0  0  0  0
    0.7231    0.3824   -0.3341 C   0  0  0  0  0  0  0  0  0  0  0  0
    1.6606   -0.2398    0.6506 C   0  0  0  0  0  0  0  0  0  0  0  0
    1.8562   -1.7176    0.5391 C   0  0  0  0  0  0  0  0  0  0  0  0
   -0.7023   -0.0371   -0.2546 C   0  0  0  0  0  0  0  0  0  0  0  0
   -1.3515    0.2313    1.0974 C   0  0  0  0  0  0  0  0  0  0  0  0
   -1.0469   -1.4214   -0.6684 C   0  0  0  0  0  0  0  0  0  0  0  0
   -1.4379    0.8904   -1.2716 C   0  0  0  0  0  0  0  0  0  0  0  0
    0.7098    4.0927    0.3179 H   0  0  0  0  0  0  0  0  0  0  0  0
    1.1173    0.2691   -1.3476 H   0  0  0  0  0  0  0  0  0  0  0  0
    2.6628    0.2569    0.4680 H   0  0  0  0  0  0  0  0  0  0  0  0
    1.4260    0.0736    1.7069 H   0  0  0  0  0  0  0  0  0  0  0  0
    1.6813   -2.0795   -0.4825 H   0  0  0  0  0  0  0  0  0  0  0  0
    2.9454   -1.9945    0.7511 H   0  0  0  0  0  0  0  0  0  0  0  0
    1.2682   -2.2620    1.3043 H   0  0  0  0  0  0  0  0  0  0  0  0
   -1.0271    1.2062    1.5061 H   0  0  0  0  0  0  0  0  0  0  0  0
   -2.4714    0.2937    1.0099 H   0  0  0  0  0  0  0  0  0  0  0  0
   -1.1122   -0.5768    1.8248 H   0  0  0  0  0  0  0  0  0  0  0  0
   -0.8839   -1.5988   -1.7690 H   0  0  0  0  0  0  0  0  0  0  0  0
   -0.5936   -2.2385   -0.0910 H   0  0  0  0  0  0  0  0  0  0  0  0
   -2.1675   -1.5872   -0.5027 H   0  0  0  0  0  0  0  0  0  0  0  0
   -1.0387    1.8959   -1.1346 H   0  0  0  0  0  0  0  0  0  0  0  0
   -1.1167    0.4670   -2.2723 H   0  0  0  0  0  0  0  0  0  0  0  0
   -2.5087    0.7708   -1.1204 H   0  0  0  0  0  0  0  0  0  0  0  0
  1  2  3  0
  2  3  1  0
  3  4  1  0
  4  5  1  0
  3  6  1  0
  6  7  1  0
  6  8  1  0
  6  9  1  0
  1 10  1  0
  3 11  1  0
  4 12  1  0
  4 13  1  0
  5 14  1  0
  5 15  1  0
  5 16  1  0
  7 17  1  0
  7 18  1  0
  7 19  1  0
  8 20  1  0
  8 21  1  0
  8 22  1  0
  9 23  1  0
  9 24  1  0
  9 25  1  0
M  END
