
     RDKit          3D

 15 16  0  0  0  0  0  0  0  0999 V2000
    2.8651    0.5637    0.1482 C   0  0  0  0  0  0  0  0  0  0  0  0
    1.6350    0.4988    0.2439 C   0  0  0  0  0  0  0  0  0  0  0  0
    0.2344    0.4410    0.3427 C   0  0  0  0  0  0  0  0  0  0  0  0
   -0.3981   -0.5280    1.3057 C   0  0  0  0  0  0  0  0  0  0  0  0
   -1.2648   -0.9554    0.1524 C   0  0  0  0  0  0  0  0  0  0  0  0
   -0.4627   -1.6728   -0.7997 O   0  0  0  0  0  0  0  0  0  0  0  0
   -0.5302   -0.3343   -0.8018 C   0  0  0  0  0  0  0  0  0  0  0  0
   -0.8459    0.5635   -1.8759 C   0  0  0  0  0  0  0  0  0  0  0  0
   -1.4033    0.4501   -2.9266 O   0  0  0  0  0  0  0  0  0  0  0  0
    3.9123    0.6219    0.0642 H   0  0  0  0  0  0  0  0  0  0  0  0
   -0.2750    1.4554    0.4117 H   0  0  0  0  0  0  0  0  0  0  0  0
    0.1810   -1.4109    1.6230 H   0  0  0  0  0  0  0  0  0  0  0  0
   -0.9080    0.0382    2.1382 H   0  0  0  0  0  0  0  0  0  0  0  0
   -2.2366   -1.3955    0.3109 H   0  0  0  0  0  0  0  0  0  0  0  0
   -0.5032    1.6641   -1.7346 H   0  0  0  0  0  0  0  0  0  0  0  0
  1  2  3  0
  2  3  1  0
  3  4  1  0
  4  5  1  0
  5  6  1  0
  6  7  1  0
  7  8  1  0
  8  9  2  0
  7  3  1  0
  7  5  1  0
  1 10  1  0
  3 11  1  0
  4 12  1  0
  4 13  1  0
  5 14  1  0
  8 15  1  0
M  END
