
     RDKit          3D

 15 15  0  0  0  0  0  0  0  0999 V2000
    2.9085   -0.9533   -1.4489 C   0  0  0  0  0  0  0  0  0  0  0  0
    1.7233   -0.8273   -1.1826 C   0  0  0  0  0  0  0  0  0  0  0  0
    0.3340   -0.6906   -0.8818 C   0  0  0  0  0  0  0  0  0  0  0  0
   -0.5221   -1.3080   -1.5524 O   0  0  0  0  0  0  0  0  0  0  0  0
   -0.1300    0.1701    0.2122 C   0  0  0  0  0  0  0  0  0  0  0  0
    0.8598    0.8257    0.9297 O   0  0  0  0  0  0  0  0  0  0  0  0
   -1.3238   -0.2676    0.9885 C   0  0  0  0  0  0  0  0  0  0  0  0
   -1.7062    1.0939    1.0354 O   0  0  0  0  0  0  0  0  0  0  0  0
   -1.1820    1.1734   -0.2765 C   0  0  0  0  0  0  0  0  0  0  0  0
    3.9502   -1.0471   -1.6757 H   0  0  0  0  0  0  0  0  0  0  0  0
    1.0299    0.4283    1.8198 H   0  0  0  0  0  0  0  0  0  0  0  0
   -1.1710   -0.6590    1.9925 H   0  0  0  0  0  0  0  0  0  0  0  0
   -2.0457   -0.7933    0.3301 H   0  0  0  0  0  0  0  0  0  0  0  0
   -0.8001    2.1516   -0.5661 H   0  0  0  0  0  0  0  0  0  0  0  0
   -1.9247    0.7032   -0.9543 H   0  0  0  0  0  0  0  0  0  0  0  0
  1  2  3  0
  2  3  1  0
  3  4  2  0
  3  5  1  0
  5  6  1  0
  5  7  1  0
  7  8  1  0
  8  9  1  0
  9  5  1  0
  1 10  1  0
  6 11  1  0
  7 12  1  0
  7 13  1  0
  9 14  1  0
  9 15  1  0
M  END
