
     RDKit          3D

 21 21  0  0  0  0  0  0  0  0999 V2000
    2.0327    2.6940   -0.6243 C   0  0  0  0  0  0  0  0  0  0  0  0
    1.1510    1.8704   -0.5857 C   0  0  0  0  0  0  0  0  0  0  0  0
    0.0898    0.8953   -0.5618 C   0  0  0  0  0  0  0  0  0  0  0  0
   -0.0532   -0.1054    0.2865 C   0  0  0  0  0  0  0  0  0  0  0  0
    0.8750   -0.4346    1.4155 C   0  0  0  0  0  0  0  0  0  0  0  0
    1.3957   -1.8310    1.1715 C   0  0  0  0  0  0  0  0  0  0  0  0
   -1.2722   -0.8627   -0.0459 C   0  0  0  0  0  0  0  0  0  0  0  0
   -2.1249    0.1910   -0.7184 C   0  0  0  0  0  0  0  0  0  0  0  0
   -1.0368    0.9007   -1.5409 C   0  0  0  0  0  0  0  0  0  0  0  0
    2.8184    3.4178   -0.6414 H   0  0  0  0  0  0  0  0  0  0  0  0
    0.3472   -0.4427    2.3848 H   0  0  0  0  0  0  0  0  0  0  0  0
    1.7360    0.2476    1.3886 H   0  0  0  0  0  0  0  0  0  0  0  0
    1.6770   -2.2497    2.1602 H   0  0  0  0  0  0  0  0  0  0  0  0
    0.5998   -2.4724    0.7681 H   0  0  0  0  0  0  0  0  0  0  0  0
    2.2797   -1.7726    0.4854 H   0  0  0  0  0  0  0  0  0  0  0  0
   -1.8188   -1.2142    0.8502 H   0  0  0  0  0  0  0  0  0  0  0  0
   -1.0818   -1.7019   -0.7489 H   0  0  0  0  0  0  0  0  0  0  0  0
   -2.5194    0.8756    0.0638 H   0  0  0  0  0  0  0  0  0  0  0  0
   -2.8874   -0.2498   -1.3597 H   0  0  0  0  0  0  0  0  0  0  0  0
   -0.8301    0.3197   -2.4408 H   0  0  0  0  0  0  0  0  0  0  0  0
   -1.3777    1.9249   -1.7068 H   0  0  0  0  0  0  0  0  0  0  0  0
  1  2  3  0
  2  3  1  0
  3  4  2  0
  4  5  1  0
  5  6  1  0
  4  7  1  0
  7  8  1  0
  8  9  1  0
  9  3  1  0
  1 10  1  0
  5 11  1  0
  5 12  1  0
  6 13  1  0
  6 14  1  0
  6 15  1  0
  7 16  1  0
  7 17  1  0
  8 18  1  0
  8 19  1  0
  9 20  1  0
  9 21  1  0
M  END
