
     RDKit          3D

 19 19  0  0  0  0  0  0  0  0999 V2000
    3.4863   -1.9192    0.2938 C   0  0  0  0  0  0  0  0  0  0  0  0
    2.3870   -1.4202    0.2794 C   0  0  0  0  0  0  0  0  0  0  0  0
    1.1013   -0.8224    0.2709 C   0  0  0  0  0  0  0  0  0  0  0  0
    0.8484    0.3510    0.8507 C   0  0  0  0  0  0  0  0  0  0  0  0
   -0.5274    0.8689    0.7746 C   0  0  0  0  0  0  0  0  0  0  0  0
   -1.2805    0.4512   -0.4464 C   0  0  0  0  0  0  0  0  0  0  0  0
   -1.6994    1.6608   -1.2779 C   0  0  0  0  0  0  0  0  0  0  0  0
   -0.5925   -0.4558   -1.2513 O   0  0  0  0  0  0  0  0  0  0  0  0
   -0.0895   -1.4614   -0.3945 C   0  0  0  0  0  0  0  0  0  0  0  0
    4.4697   -2.3477    0.2976 H   0  0  0  0  0  0  0  0  0  0  0  0
    1.6632    0.8503    1.3396 H   0  0  0  0  0  0  0  0  0  0  0  0
   -0.5424    1.9778    0.9314 H   0  0  0  0  0  0  0  0  0  0  0  0
   -1.0643    0.4621    1.6814 H   0  0  0  0  0  0  0  0  0  0  0  0
   -2.2386   -0.0780   -0.1645 H   0  0  0  0  0  0  0  0  0  0  0  0
   -2.7963    1.8161   -1.2453 H   0  0  0  0  0  0  0  0  0  0  0  0
   -1.1342    2.5531   -0.9089 H   0  0  0  0  0  0  0  0  0  0  0  0
   -1.4132    1.5386   -2.3484 H   0  0  0  0  0  0  0  0  0  0  0  0
    0.2377   -2.3503   -0.9607 H   0  0  0  0  0  0  0  0  0  0  0  0
   -0.8151   -1.6749    0.4049 H   0  0  0  0  0  0  0  0  0  0  0  0
  1  2  3  0
  2  3  1  0
  3  4  2  0
  4  5  1  0
  5  6  1  0
  6  7  1  0
  6  8  1  0
  8  9  1  0
  9  3  1  0
  1 10  1  0
  4 11  1  0
  5 12  1  0
  5 13  1  0
  6 14  1  0
  7 15  1  0
  7 16  1  0
  7 17  1  0
  9 18  1  0
  9 19  1  0
M  END
