
     RDKit          3D

 17 16  0  0  0  0  0  0  0  0999 V2000
    2.3352   -0.1815   -1.7887 C   0  0  0  0  0  0  0  0  0  0  0  0
    1.7179    0.2112   -0.8038 C   0  0  0  0  0  0  0  0  0  0  0  0
    1.0029    0.6746    0.3834 C   0  0  0  0  0  0  0  0  0  0  0  0
    0.3044    1.9189    0.0475 C   0  0  0  0  0  0  0  0  0  0  0  0
   -0.2495    2.9239   -0.2037 C   0  0  0  0  0  0  0  0  0  0  0  0
    0.0594   -0.3787    0.8869 C   0  0  0  0  0  0  0  0  0  0  0  0
   -0.9810   -0.7669   -0.1250 C   0  0  0  0  0  0  0  0  0  0  0  0
   -1.8480   -1.8092    0.4853 C   0  0  0  0  0  0  0  0  0  0  0  0
   -1.6641   -2.2110    1.6202 O   0  0  0  0  0  0  0  0  0  0  0  0
    2.8726   -0.5353   -2.6304 H   0  0  0  0  0  0  0  0  0  0  0  0
    1.7549    0.8841    1.1499 H   0  0  0  0  0  0  0  0  0  0  0  0
   -0.7744    3.8378   -0.4334 H   0  0  0  0  0  0  0  0  0  0  0  0
    0.6393   -1.2809    1.1356 H   0  0  0  0  0  0  0  0  0  0  0  0
   -0.4632   -0.0241    1.7829 H   0  0  0  0  0  0  0  0  0  0  0  0
   -1.5676    0.1521   -0.3942 H   0  0  0  0  0  0  0  0  0  0  0  0
   -0.4666   -1.1742   -1.0424 H   0  0  0  0  0  0  0  0  0  0  0  0
   -2.6722   -2.2409   -0.0701 H   0  0  0  0  0  0  0  0  0  0  0  0
  1  2  3  0
  2  3  1  0
  3  4  1  0
  4  5  3  0
  3  6  1  0
  6  7  1  0
  7  8  1  0
  8  9  2  0
  1 10  1  0
  3 11  1  0
  5 12  1  0
  6 13  1  0
  6 14  1  0
  7 15  1  0
  7 16  1  0
  8 17  1  0
M  END
