
     RDKit          3D

 17 17  0  0  0  0  0  0  0  0999 V2000
   -2.0341    2.4339    0.9804 C   0  0  0  0  0  0  0  0  0  0  0  0
   -1.4176    1.4027    0.4461 C   0  0  0  0  0  0  0  0  0  0  0  0
   -0.8021    0.4152   -0.0774 C   0  0  0  0  0  0  0  0  0  0  0  0
   -1.7177   -0.6514   -0.7189 C   0  0  0  0  0  0  0  0  0  0  0  0
   -1.6413   -1.0656   -1.7588 O   0  0  0  0  0  0  0  0  0  0  0  0
    0.1578   -0.3929    0.8293 C   0  0  0  0  0  0  0  0  0  0  0  0
    0.8384   -0.5315   -0.5447 C   0  0  0  0  0  0  0  0  0  0  0  0
    2.3417   -0.4923   -0.3765 C   0  0  0  0  0  0  0  0  0  0  0  0
    0.2578    0.6398   -1.0029 O   0  0  0  0  0  0  0  0  0  0  0  0
   -2.5999    3.3563    1.4789 H   0  0  0  0  0  0  0  0  0  0  0  0
   -2.5268   -0.9846    0.0478 H   0  0  0  0  0  0  0  0  0  0  0  0
    0.7215    0.1816    1.5490 H   0  0  0  0  0  0  0  0  0  0  0  0
   -0.2244   -1.3495    1.1848 H   0  0  0  0  0  0  0  0  0  0  0  0
    0.4678   -1.4158   -1.0828 H   0  0  0  0  0  0  0  0  0  0  0  0
    2.7559   -1.4896   -0.7139 H   0  0  0  0  0  0  0  0  0  0  0  0
    2.6139   -0.3725    0.7111 H   0  0  0  0  0  0  0  0  0  0  0  0
    2.8091    0.3163   -0.9513 H   0  0  0  0  0  0  0  0  0  0  0  0
  1  2  3  0
  2  3  1  0
  3  4  1  0
  4  5  2  0
  3  6  1  0
  6  7  1  0
  7  8  1  0
  7  9  1  0
  9  3  1  0
  1 10  1  0
  4 11  1  0
  6 12  1  0
  6 13  1  0
  7 14  1  0
  8 15  1  0
  8 16  1  0
  8 17  1  0
M  END
