
     RDKit          3D

 19 19  0  0  0  0  0  0  0  0999 V2000
    2.4520   -1.3659    1.6102 C   0  0  0  0  0  0  0  0  0  0  0  0
    1.5467   -0.5922    1.4639 C   0  0  0  0  0  0  0  0  0  0  0  0
    0.4489    0.3535    1.3106 C   0  0  0  0  0  0  0  0  0  0  0  0
    0.8819    1.6111    0.8989 O   0  0  0  0  0  0  0  0  0  0  0  0
   -0.3615    2.2424    0.6616 C   0  0  0  0  0  0  0  0  0  0  0  0
   -1.0243    1.2479   -0.2845 C   0  0  0  0  0  0  0  0  0  0  0  0
   -0.4176   -0.0706    0.1545 C   0  0  0  0  0  0  0  0  0  0  0  0
    0.2761   -0.6776   -0.8599 O   0  0  0  0  0  0  0  0  0  0  0  0
   -0.2880   -1.9215   -1.1136 C   0  0  0  0  0  0  0  0  0  0  0  0
    3.2507   -2.0681    1.7523 H   0  0  0  0  0  0  0  0  0  0  0  0
   -0.1760    0.4590    2.2071 H   0  0  0  0  0  0  0  0  0  0  0  0
   -0.2301    3.2330    0.1904 H   0  0  0  0  0  0  0  0  0  0  0  0
   -0.9171    2.2577    1.6069 H   0  0  0  0  0  0  0  0  0  0  0  0
   -2.1258    1.2611   -0.1973 H   0  0  0  0  0  0  0  0  0  0  0  0
   -0.6908    1.5332   -1.3066 H   0  0  0  0  0  0  0  0  0  0  0  0
   -1.2477   -0.7139    0.5180 H   0  0  0  0  0  0  0  0  0  0  0  0
   -0.2432   -2.5701   -0.1976 H   0  0  0  0  0  0  0  0  0  0  0  0
   -1.3706   -1.7628   -1.3309 H   0  0  0  0  0  0  0  0  0  0  0  0
    0.2364   -2.4562   -1.9324 H   0  0  0  0  0  0  0  0  0  0  0  0
  1  2  3  0
  2  3  1  0
  3  4  1  0
  4  5  1  0
  5  6  1  0
  6  7  1  0
  7  8  1  0
  8  9  1  0
  7  3  1  0
  1 10  1  0
  3 11  1  0
  5 12  1  0
  5 13  1  0
  6 14  1  0
  6 15  1  0
  7 16  1  0
  9 17  1  0
  9 18  1  0
  9 19  1  0
M  END
