
     RDKit          3D

 25 24  0  0  0  0  0  0  0  0999 V2000
   -0.7493   -2.0188    1.6011 C   0  0  0  0  0  0  0  0  0  0  0  0
   -0.3588   -1.1956    0.8022 C   0  0  0  0  0  0  0  0  0  0  0  0
    0.1271   -0.2216   -0.1452 C   0  0  0  0  0  0  0  0  0  0  0  0
    0.3220    1.1499    0.4256 C   0  0  0  0  0  0  0  0  0  0  0  0
   -0.8893    1.7983    0.9953 C   0  0  0  0  0  0  0  0  0  0  0  0
   -0.6718   -0.2124   -1.4286 C   0  0  0  0  0  0  0  0  0  0  0  0
   -2.1222    0.0953   -1.2413 C   0  0  0  0  0  0  0  0  0  0  0  0
    1.5421   -0.6655   -0.5917 C   0  0  0  0  0  0  0  0  0  0  0  0
    2.4843   -0.7402    0.5700 C   0  0  0  0  0  0  0  0  0  0  0  0
   -1.0897   -2.7531    2.2991 H   0  0  0  0  0  0  0  0  0  0  0  0
    1.1210    1.1759    1.2071 H   0  0  0  0  0  0  0  0  0  0  0  0
    0.7563    1.7902   -0.4015 H   0  0  0  0  0  0  0  0  0  0  0  0
   -0.6555    2.3288    1.9686 H   0  0  0  0  0  0  0  0  0  0  0  0
   -1.2254    2.6464    0.3296 H   0  0  0  0  0  0  0  0  0  0  0  0
   -1.7537    1.1690    1.1679 H   0  0  0  0  0  0  0  0  0  0  0  0
   -0.5598   -1.2182   -1.8798 H   0  0  0  0  0  0  0  0  0  0  0  0
   -0.1965    0.5093   -2.1262 H   0  0  0  0  0  0  0  0  0  0  0  0
   -2.5320   -0.4743   -0.3798 H   0  0  0  0  0  0  0  0  0  0  0  0
   -2.3606    1.1569   -1.1498 H   0  0  0  0  0  0  0  0  0  0  0  0
   -2.6285   -0.2330   -2.1994 H   0  0  0  0  0  0  0  0  0  0  0  0
    1.4329   -1.7155   -0.9900 H   0  0  0  0  0  0  0  0  0  0  0  0
    1.9310   -0.0071   -1.3705 H   0  0  0  0  0  0  0  0  0  0  0  0
    1.9017   -1.1236    1.4415 H   0  0  0  0  0  0  0  0  0  0  0  0
    3.2566   -1.5075    0.3403 H   0  0  0  0  0  0  0  0  0  0  0  0
    2.9181    0.2665    0.7555 H   0  0  0  0  0  0  0  0  0  0  0  0
  1  2  3  0
  2  3  1  0
  3  4  1  0
  4  5  1  0
  3  6  1  0
  6  7  1  0
  3  8  1  0
  8  9  1  0
  1 10  1  0
  4 11  1  0
  4 12  1  0
  5 13  1  0
  5 14  1  0
  5 15  1  0
  6 16  1  0
  6 17  1  0
  7 18  1  0
  7 19  1  0
  7 20  1  0
  8 21  1  0
  8 22  1  0
  9 23  1  0
  9 24  1  0
  9 25  1  0
M  END
