
     RDKit          3D

 18 18  0  0  0  0  0  0  0  0999 V2000
    2.8886    0.3272    0.1885 C   0  0  0  0  0  0  0  0  0  0  0  0
    2.0164   -0.5289    0.1282 C   0  0  0  0  0  0  0  0  0  0  0  0
    0.9559   -1.5356    0.0637 C   0  0  0  0  0  0  0  0  0  0  0  0
   -0.2731   -0.9886   -0.6471 C   0  0  0  0  0  0  0  0  0  0  0  0
   -0.8464    0.2170    0.0485 C   0  0  0  0  0  0  0  0  0  0  0  0
   -1.2804    0.0831    1.3648 O   0  0  0  0  0  0  0  0  0  0  0  0
   -0.4382    1.5809   -0.4160 C   0  0  0  0  0  0  0  0  0  0  0  0
   -1.7634    1.0571   -0.8494 C   0  0  0  0  0  0  0  0  0  0  0  0
    3.6305    1.0711    0.2549 H   0  0  0  0  0  0  0  0  0  0  0  0
    0.7340   -1.8393    1.0972 H   0  0  0  0  0  0  0  0  0  0  0  0
    1.2882   -2.4140   -0.5362 H   0  0  0  0  0  0  0  0  0  0  0  0
    0.0660   -0.6770   -1.6584 H   0  0  0  0  0  0  0  0  0  0  0  0
   -1.0422   -1.7446   -0.7821 H   0  0  0  0  0  0  0  0  0  0  0  0
   -1.2859   -0.9000    1.5914 H   0  0  0  0  0  0  0  0  0  0  0  0
    0.4207    1.6424   -1.1025 H   0  0  0  0  0  0  0  0  0  0  0  0
   -0.4742    2.4277    0.3276 H   0  0  0  0  0  0  0  0  0  0  0  0
   -1.9222    0.7304   -1.8913 H   0  0  0  0  0  0  0  0  0  0  0  0
   -2.6741    1.4910   -0.3811 H   0  0  0  0  0  0  0  0  0  0  0  0
  1  2  3  0
  2  3  1  0
  3  4  1  0
  4  5  1  0
  5  6  1  0
  5  7  1  0
  7  8  1  0
  8  5  1  0
  1  9  1  0
  3 10  1  0
  3 11  1  0
  4 12  1  0
  4 13  1  0
  6 14  1  0
  7 15  1  0
  7 16  1  0
  8 17  1  0
  8 18  1  0
M  END
