
     RDKit          3D

 17 17  0  0  0  0  0  0  0  0999 V2000
    2.8727   -1.7756   -0.2208 C   0  0  0  0  0  0  0  0  0  0  0  0
    2.0797   -0.7152   -0.2931 C   0  0  0  0  0  0  0  0  0  0  0  0
    1.2748    0.3240   -0.3573 C   0  0  0  0  0  0  0  0  0  0  0  0
    1.8895    1.3832   -0.9996 O   0  0  0  0  0  0  0  0  0  0  0  0
   -0.0460    0.7217    0.0553 C   0  0  0  0  0  0  0  0  0  0  0  0
   -1.2730   -0.0793   -0.1015 C   0  0  0  0  0  0  0  0  0  0  0  0
   -1.3738   -1.4107    0.5204 C   0  0  0  0  0  0  0  0  0  0  0  0
   -0.2305    2.2133    0.3673 C   0  0  0  0  0  0  0  0  0  0  0  0
    0.0017    1.3375    1.3938 O   0  0  0  0  0  0  0  0  0  0  0  0
    3.5059   -2.5971   -0.1745 H   0  0  0  0  0  0  0  0  0  0  0  0
   -2.1441    0.5524    0.3369 H   0  0  0  0  0  0  0  0  0  0  0  0
   -1.5567   -0.0697   -1.2012 H   0  0  0  0  0  0  0  0  0  0  0  0
   -2.2475   -1.4764    1.2516 H   0  0  0  0  0  0  0  0  0  0  0  0
   -1.7210   -2.1445   -0.2842 H   0  0  0  0  0  0  0  0  0  0  0  0
   -0.4729   -1.8139    1.0018 H   0  0  0  0  0  0  0  0  0  0  0  0
   -1.1886    2.6921    0.1868 H   0  0  0  0  0  0  0  0  0  0  0  0
    0.6297    2.8584    0.0151 H   0  0  0  0  0  0  0  0  0  0  0  0
  1  2  3  0
  2  3  1  0
  3  4  2  0
  3  5  1  0
  5  6  1  0
  6  7  1  0
  5  8  1  0
  8  9  1  0
  9  5  1  0
  1 10  1  0
  6 11  1  0
  6 12  1  0
  7 13  1  0
  7 14  1  0
  7 15  1  0
  8 16  1  0
  8 17  1  0
M  END
