
     RDKit          3D

 17 18  0  0  0  0  0  0  0  0999 V2000
    3.0029    1.0370   -0.2705 C   0  0  0  0  0  0  0  0  0  0  0  0
    2.0484    0.3380   -0.0220 C   0  0  0  0  0  0  0  0  0  0  0  0
    0.8681   -0.4997    0.2678 C   0  0  0  0  0  0  0  0  0  0  0  0
    0.6032   -1.6938   -0.5901 C   0  0  0  0  0  0  0  0  0  0  0  0
   -0.2108   -0.4716   -0.7354 C   0  0  0  0  0  0  0  0  0  0  0  0
   -1.2013   -0.2107    0.3770 C   0  0  0  0  0  0  0  0  0  0  0  0
   -1.9669    1.0513    0.1112 C   0  0  0  0  0  0  0  0  0  0  0  0
   -0.0575   -0.0826    1.3230 C   0  0  0  0  0  0  0  0  0  0  0  0
    0.0415    0.2415    2.4989 O   0  0  0  0  0  0  0  0  0  0  0  0
    3.8472    1.6427   -0.4979 H   0  0  0  0  0  0  0  0  0  0  0  0
    1.3613   -1.8603   -1.3824 H   0  0  0  0  0  0  0  0  0  0  0  0
    0.1181   -2.5920   -0.1248 H   0  0  0  0  0  0  0  0  0  0  0  0
   -0.1883    0.1549   -1.6260 H   0  0  0  0  0  0  0  0  0  0  0  0
   -1.8330   -1.0624    0.6699 H   0  0  0  0  0  0  0  0  0  0  0  0
   -1.2556    1.8492   -0.1953 H   0  0  0  0  0  0  0  0  0  0  0  0
   -2.6085    0.8491   -0.7929 H   0  0  0  0  0  0  0  0  0  0  0  0
   -2.5687    1.3095    0.9895 H   0  0  0  0  0  0  0  0  0  0  0  0
  1  2  3  0
  2  3  1  0
  3  4  1  0
  4  5  1  0
  5  6  1  0
  6  7  1  0
  6  8  1  0
  8  9  2  0
  5  3  1  0
  8  3  1  0
  1 10  1  0
  4 11  1  0
  4 12  1  0
  5 13  1  0
  6 14  1  0
  7 15  1  0
  7 16  1  0
  7 17  1  0
M  END
