
     RDKit          3D

 17 18  0  0  0  0  0  0  0  0999 V2000
    2.1278   -0.6694    1.4047 C   0  0  0  0  0  0  0  0  0  0  0  0
    1.4943   -0.3627    0.4244 C   0  0  0  0  0  0  0  0  0  0  0  0
    0.7327    0.0326   -0.7838 C   0  0  0  0  0  0  0  0  0  0  0  0
    0.2168    1.4380   -0.5011 C   0  0  0  0  0  0  0  0  0  0  0  0
   -1.1537    1.0449    0.0626 C   0  0  0  0  0  0  0  0  0  0  0  0
   -0.9956    0.1573    1.1214 O   0  0  0  0  0  0  0  0  0  0  0  0
   -0.9124   -1.1260    0.5652 C   0  0  0  0  0  0  0  0  0  0  0  0
   -0.5486   -0.7373   -0.8653 C   0  0  0  0  0  0  0  0  0  0  0  0
   -1.5691    0.2357   -1.0271 O   0  0  0  0  0  0  0  0  0  0  0  0
    2.6976   -0.9253    2.2658 H   0  0  0  0  0  0  0  0  0  0  0  0
    1.3567   -0.0159   -1.6769 H   0  0  0  0  0  0  0  0  0  0  0  0
    0.0710    1.9825   -1.4508 H   0  0  0  0  0  0  0  0  0  0  0  0
    0.8194    1.9831    0.2193 H   0  0  0  0  0  0  0  0  0  0  0  0
   -1.7994    1.8770    0.2480 H   0  0  0  0  0  0  0  0  0  0  0  0
   -1.8737   -1.6685    0.6133 H   0  0  0  0  0  0  0  0  0  0  0  0
   -0.0713   -1.7102    0.9509 H   0  0  0  0  0  0  0  0  0  0  0  0
   -0.5927   -1.5357   -1.5706 H   0  0  0  0  0  0  0  0  0  0  0  0
  1  2  3  0
  2  3  1  0
  3  4  1  0
  4  5  1  0
  5  6  1  0
  6  7  1  0
  7  8  1  0
  8  9  1  0
  8  3  1  0
  9  5  1  0
  1 10  1  0
  3 11  1  0
  4 12  1  0
  4 13  1  0
  5 14  1  0
  7 15  1  0
  7 16  1  0
  8 17  1  0
M  END
