
     RDKit          3D

 19 20  0  0  0  0  0  0  0  0999 V2000
   -1.2089    1.9464    1.4402 C   0  0  0  0  0  0  0  0  0  0  0  0
   -0.7271    1.0966    0.7218 C   0  0  0  0  0  0  0  0  0  0  0  0
   -0.1482    0.0872   -0.1648 C   0  0  0  0  0  0  0  0  0  0  0  0
    1.3620    0.0486   -0.1223 C   0  0  0  0  0  0  0  0  0  0  0  0
    1.8966   -0.2566    1.2373 C   0  0  0  0  0  0  0  0  0  0  0  0
   -0.6409    0.2595   -1.5914 C   0  0  0  0  0  0  0  0  0  0  0  0
   -1.5402   -0.9246   -1.3606 C   0  0  0  0  0  0  0  0  0  0  0  0
   -0.9247   -2.1117   -1.0834 O   0  0  0  0  0  0  0  0  0  0  0  0
   -0.8567   -1.2098   -0.0323 C   0  0  0  0  0  0  0  0  0  0  0  0
   -1.6379    2.6767    2.0791 H   0  0  0  0  0  0  0  0  0  0  0  0
    1.7126    1.0492   -0.4388 H   0  0  0  0  0  0  0  0  0  0  0  0
    1.7785   -0.6755   -0.8381 H   0  0  0  0  0  0  0  0  0  0  0  0
    2.2642    0.6814    1.6948 H   0  0  0  0  0  0  0  0  0  0  0  0
    2.7356   -0.9901    1.1755 H   0  0  0  0  0  0  0  0  0  0  0  0
    1.0668   -0.6741    1.8738 H   0  0  0  0  0  0  0  0  0  0  0  0
   -1.1648    1.2191   -1.7518 H   0  0  0  0  0  0  0  0  0  0  0  0
    0.1550    0.0326   -2.3383 H   0  0  0  0  0  0  0  0  0  0  0  0
   -2.6250   -0.7994   -1.3209 H   0  0  0  0  0  0  0  0  0  0  0  0
   -1.4969   -1.4555    0.8201 H   0  0  0  0  0  0  0  0  0  0  0  0
  1  2  3  0
  2  3  1  0
  3  4  1  0
  4  5  1  0
  3  6  1  0
  6  7  1  0
  7  8  1  0
  8  9  1  0
  9  3  1  0
  9  7  1  0
  1 10  1  0
  4 11  1  0
  4 12  1  0
  5 13  1  0
  5 14  1  0
  5 15  1  0
  6 16  1  0
  6 17  1  0
  7 18  1  0
  9 19  1  0
M  END
