
     RDKit          3D

 21 21  0  0  0  0  0  0  0  0999 V2000
   -2.4096    3.1664   -0.9708 C   0  0  0  0  0  0  0  0  0  0  0  0
   -1.7001    2.1721   -0.3521 C   0  0  0  0  0  0  0  0  0  0  0  0
   -0.9339    1.1350    0.2872 C   0  0  0  0  0  0  0  0  0  0  0  0
    0.3098    0.7031   -0.1923 C   0  0  0  0  0  0  0  0  0  0  0  0
    0.4350   -0.5546    0.2945 C   0  0  0  0  0  0  0  0  0  0  0  0
    1.5413   -1.5107    0.1416 C   0  0  0  0  0  0  0  0  0  0  0  0
    2.6235   -0.9192   -0.7451 C   0  0  0  0  0  0  0  0  0  0  0  0
   -0.8663   -0.9740    1.0180 C   0  0  0  0  0  0  0  0  0  0  0  0
   -1.8512   -0.1396    0.2076 C   0  0  0  0  0  0  0  0  0  0  0  0
   -2.8998    3.8339   -1.3925 H   0  0  0  0  0  0  0  0  0  0  0  0
   -0.9480    1.3026    1.4332 H   0  0  0  0  0  0  0  0  0  0  0  0
    1.1190    1.1076   -0.8030 H   0  0  0  0  0  0  0  0  0  0  0  0
    2.0778   -1.6149    1.1733 H   0  0  0  0  0  0  0  0  0  0  0  0
    1.2851   -2.5265   -0.1107 H   0  0  0  0  0  0  0  0  0  0  0  0
    2.1626   -0.2628   -1.5325 H   0  0  0  0  0  0  0  0  0  0  0  0
    3.1875   -1.6991   -1.3211 H   0  0  0  0  0  0  0  0  0  0  0  0
    3.3257   -0.3039   -0.0874 H   0  0  0  0  0  0  0  0  0  0  0  0
   -0.9954   -2.0204    0.9790 H   0  0  0  0  0  0  0  0  0  0  0  0
   -0.7450   -0.5006    2.0317 H   0  0  0  0  0  0  0  0  0  0  0  0
   -1.9409   -0.4276   -0.8099 H   0  0  0  0  0  0  0  0  0  0  0  0
   -2.7771    0.0331    0.7513 H   0  0  0  0  0  0  0  0  0  0  0  0
  1  2  3  0
  2  3  1  0
  3  4  1  0
  4  5  2  0
  5  6  1  0
  6  7  1  0
  5  8  1  0
  8  9  1  0
  9  3  1  0
  1 10  1  0
  3 11  1  0
  4 12  1  0
  6 13  1  0
  6 14  1  0
  7 15  1  0
  7 16  1  0
  7 17  1  0
  8 18  1  0
  8 19  1  0
  9 20  1  0
  9 21  1  0
M  END
