
     RDKit          3D

 18 19  0  0  0  0  0  0  0  0999 V2000
    2.1381   -0.9916   -2.1242 C   0  0  0  0  0  0  0  0  0  0  0  0
    0.9553   -0.4319   -1.4269 C   0  0  0  0  0  0  0  0  0  0  0  0
   -0.0142    0.0089   -0.8702 C   0  0  0  0  0  0  0  0  0  0  0  0
   -0.9522   -0.9608   -0.0965 C   0  0  0  0  0  0  0  0  0  0  0  0
   -1.3899   -0.1467    1.0738 C   0  0  0  0  0  0  0  0  0  0  0  0
   -0.2969    0.8924    1.0057 C   0  0  0  0  0  0  0  0  0  0  0  0
    0.9141    0.1604    0.7422 C   0  0  0  0  0  0  0  0  0  0  0  0
   -0.3100    1.3486   -0.3540 C   0  0  0  0  0  0  0  0  0  0  0  0
    3.0107   -1.4037   -2.6604 H   0  0  0  0  0  0  0  0  0  0  0  0
   -1.6721   -1.5009   -0.6703 H   0  0  0  0  0  0  0  0  0  0  0  0
   -0.2891   -1.8381    0.4270 H   0  0  0  0  0  0  0  0  0  0  0  0
   -1.1967   -0.7167    2.0702 H   0  0  0  0  0  0  0  0  0  0  0  0
   -2.3979    0.2361    1.0757 H   0  0  0  0  0  0  0  0  0  0  0  0
   -0.2957    1.6075    1.8503 H   0  0  0  0  0  0  0  0  0  0  0  0
    1.7310    0.7783    0.2246 H   0  0  0  0  0  0  0  0  0  0  0  0
    1.0353   -0.7943    1.0752 H   0  0  0  0  0  0  0  0  0  0  0  0
    0.4315    2.1506   -0.6552 H   0  0  0  0  0  0  0  0  0  0  0  0
   -1.4014    1.6019   -0.6870 H   0  0  0  0  0  0  0  0  0  0  0  0
  1  2  3  0
  2  3  1  0
  3  4  1  0
  4  5  1  0
  5  6  1  0
  6  7  1  0
  6  8  1  0
  7  3  1  0
  8  3  1  0
  1  9  1  0
  4 10  1  0
  4 11  1  0
  5 12  1  0
  5 13  1  0
  6 14  1  0
  7 15  1  0
  7 16  1  0
  8 17  1  0
  8 18  1  0
M  END
