
     RDKit          3D

 19 20  0  0  0  0  0  0  0  0999 V2000
    2.6579   -1.5149   -1.6338 C   0  0  0  0  0  0  0  0  0  0  0  0
    1.8910   -0.8975   -0.9395 C   0  0  0  0  0  0  0  0  0  0  0  0
    0.9774   -0.1341   -0.0834 C   0  0  0  0  0  0  0  0  0  0  0  0
    0.8716    1.2429   -0.6201 C   0  0  0  0  0  0  0  0  0  0  0  0
   -0.3666    1.6865   -0.6402 C   0  0  0  0  0  0  0  0  0  0  0  0
   -1.2708    0.6615   -0.1155 C   0  0  0  0  0  0  0  0  0  0  0  0
   -1.1934    0.4785    1.3980 C   0  0  0  0  0  0  0  0  0  0  0  0
   -1.0644   -1.0229    1.1151 C   0  0  0  0  0  0  0  0  0  0  0  0
   -0.4612   -0.6279   -0.2155 C   0  0  0  0  0  0  0  0  0  0  0  0
    3.3479   -2.0775   -2.2458 H   0  0  0  0  0  0  0  0  0  0  0  0
    1.2989   -0.1548    0.9744 H   0  0  0  0  0  0  0  0  0  0  0  0
    1.7295    1.8124   -0.9567 H   0  0  0  0  0  0  0  0  0  0  0  0
   -0.6790    2.6826   -0.9986 H   0  0  0  0  0  0  0  0  0  0  0  0
   -2.2874    0.6065   -0.5247 H   0  0  0  0  0  0  0  0  0  0  0  0
   -2.1541    0.6926    1.8570 H   0  0  0  0  0  0  0  0  0  0  0  0
   -0.2930    0.9165    1.8520 H   0  0  0  0  0  0  0  0  0  0  0  0
   -2.0159   -1.5577    1.0621 H   0  0  0  0  0  0  0  0  0  0  0  0
   -0.3137   -1.5246    1.7839 H   0  0  0  0  0  0  0  0  0  0  0  0
   -0.6746   -1.2681   -1.0688 H   0  0  0  0  0  0  0  0  0  0  0  0
  1  2  3  0
  2  3  1  0
  3  4  1  0
  4  5  2  0
  5  6  1  0
  6  7  1  0
  7  8  1  0
  8  9  1  0
  9  3  1  0
  9  6  1  0
  1 10  1  0
  3 11  1  0
  4 12  1  0
  5 13  1  0
  6 14  1  0
  7 15  1  0
  7 16  1  0
  8 17  1  0
  8 18  1  0
  9 19  1  0
M  END
