
     RDKit          3D

 19 20  0  0  0  0  0  0  0  0999 V2000
    2.8471    1.6085    1.0573 C   0  0  0  0  0  0  0  0  0  0  0  0
    2.1026    0.7997    0.5472 C   0  0  0  0  0  0  0  0  0  0  0  0
    1.2176   -0.1971   -0.0666 C   0  0  0  0  0  0  0  0  0  0  0  0
    0.1207    0.5345   -0.8073 C   0  0  0  0  0  0  0  0  0  0  0  0
   -1.0663   -0.3560   -0.7044 C   0  0  0  0  0  0  0  0  0  0  0  0
   -2.2325    0.2977   -0.0120 C   0  0  0  0  0  0  0  0  0  0  0  0
   -1.6225    0.0934    1.2398 O   0  0  0  0  0  0  0  0  0  0  0  0
   -0.9495   -0.9756    0.6675 C   0  0  0  0  0  0  0  0  0  0  0  0
    0.5323   -1.0381    0.9604 C   0  0  0  0  0  0  0  0  0  0  0  0
    3.4929    2.3346    1.5082 H   0  0  0  0  0  0  0  0  0  0  0  0
    1.8121   -0.8059   -0.7943 H   0  0  0  0  0  0  0  0  0  0  0  0
   -0.0746    1.4881   -0.2641 H   0  0  0  0  0  0  0  0  0  0  0  0
    0.4190    0.7643   -1.8520 H   0  0  0  0  0  0  0  0  0  0  0  0
   -1.2927   -1.0246   -1.5283 H   0  0  0  0  0  0  0  0  0  0  0  0
   -2.2357    1.3864   -0.2404 H   0  0  0  0  0  0  0  0  0  0  0  0
   -3.2025   -0.1961   -0.1295 H   0  0  0  0  0  0  0  0  0  0  0  0
   -1.5076   -1.9121    0.8032 H   0  0  0  0  0  0  0  0  0  0  0  0
    0.7869   -0.7101    1.9838 H   0  0  0  0  0  0  0  0  0  0  0  0
    0.8524   -2.0917    0.8040 H   0  0  0  0  0  0  0  0  0  0  0  0
  1  2  3  0
  2  3  1  0
  3  4  1  0
  4  5  1  0
  5  6  1  0
  6  7  1  0
  7  8  1  0
  8  9  1  0
  9  3  1  0
  8  5  1  0
  1 10  1  0
  3 11  1  0
  4 12  1  0
  4 13  1  0
  5 14  1  0
  6 15  1  0
  6 16  1  0
  8 17  1  0
  9 18  1  0
  9 19  1  0
M  END
