
     RDKit          3D

 18 17  0  0  0  0  0  0  0  0999 V2000
    3.1747    1.7571    0.6825 C   0  0  0  0  0  0  0  0  0  0  0  0
    2.2660    0.8501    0.5045 C   0  0  0  0  0  0  0  0  0  0  0  0
    1.0176   -0.3929    0.2307 C   0  0  0  0  0  0  0  0  0  0  0  0
    1.7285   -1.4532    0.9151 C   0  0  0  0  0  0  0  0  0  0  0  0
   -0.0315    0.5520    0.3510 C   0  0  0  0  0  0  0  0  0  0  0  0
   -1.2421    0.3592   -0.2783 C   0  0  0  0  0  0  0  0  0  0  0  0
   -2.6293    0.1517   -0.9722 C   0  0  0  0  0  0  0  0  0  0  0  0
   -3.7037   -0.0232   -1.5074 C   0  0  0  0  0  0  0  0  0  0  0  0
    3.8984    2.4649    0.8369 H   0  0  0  0  0  0  0  0  0  0  0  0
    1.3390   -0.4201   -0.9532 H   0  0  0  0  0  0  0  0  0  0  0  0
    2.8510   -1.0879    0.9651 H   0  0  0  0  0  0  0  0  0  0  0  0
    1.5053   -1.7829    1.9162 H   0  0  0  0  0  0  0  0  0  0  0  0
    2.1368   -2.4157    0.2766 H   0  0  0  0  0  0  0  0  0  0  0  0
    0.2189    1.6261    0.3882 H   0  0  0  0  0  0  0  0  0  0  0  0
   -0.4193    0.5045    1.5561 H   0  0  0  0  0  0  0  0  0  0  0  0
   -3.5315    0.1680   -2.7002 H   0  0  0  0  0  0  0  0  0  0  0  0
   -4.6503    0.4156   -1.3811 H   0  0  0  0  0  0  0  0  0  0  0  0
   -3.9284   -1.2731   -1.6752 H   0  0  0  0  0  0  0  0  0  0  0  0
  1  2  3  0
  2  3  1  0
  3  4  1  0
  3  5  1  0
  5  6  1  0
  6  7  3  0
  7  8  1  0
  1  9  1  0
  3 10  1  0
  4 11  1  0
  4 12  1  0
  4 13  1  0
  5 14  1  0
  5 15  1  0
  8 16  1  0
  8 17  1  0
  8 18  1  0
M  END
