
     RDKit          3D

 19 19  0  0  0  0  0  0  0  0999 V2000
    2.3767    1.6181   -0.0458 C   0  0  0  0  0  0  0  0  0  0  0  0
    1.4897    0.6333    0.0977 C   0  0  0  0  0  0  0  0  0  0  0  0
    0.5618   -0.3833    0.2696 C   0  0  0  0  0  0  0  0  0  0  0  0
   -0.5355   -0.0662    1.2989 C   0  0  0  0  0  0  0  0  0  0  0  0
   -1.4444    1.0569    0.8033 C   0  0  0  0  0  0  0  0  0  0  0  0
   -2.1000    0.7661   -0.3859 O   0  0  0  0  0  0  0  0  0  0  0  0
    0.7520   -1.7445   -0.2933 C   0  0  0  0  0  0  0  0  0  0  0  0
   -0.1003   -0.7616   -1.0546 C   0  0  0  0  0  0  0  0  0  0  0  0
    0.5274   -0.3380   -2.2288 O   0  0  0  0  0  0  0  0  0  0  0  0
    3.1629    2.5124   -0.1601 H   0  0  0  0  0  0  0  0  0  0  0  0
    0.0282    0.4641    2.1552 H   0  0  0  0  0  0  0  0  0  0  0  0
   -1.0862   -0.8676    1.7173 H   0  0  0  0  0  0  0  0  0  0  0  0
   -2.2415    1.1818    1.5672 H   0  0  0  0  0  0  0  0  0  0  0  0
   -0.9110    2.0215    0.6697 H   0  0  0  0  0  0  0  0  0  0  0  0
   -2.9330    0.2302   -0.2139 H   0  0  0  0  0  0  0  0  0  0  0  0
    1.7927   -1.9389   -0.7513 H   0  0  0  0  0  0  0  0  0  0  0  0
    0.3464   -2.6834    0.0276 H   0  0  0  0  0  0  0  0  0  0  0  0
   -1.1369   -1.0378   -1.1377 H   0  0  0  0  0  0  0  0  0  0  0  0
    1.4510   -0.6629   -2.3352 H   0  0  0  0  0  0  0  0  0  0  0  0
  1  2  3  0
  2  3  1  0
  3  4  1  0
  4  5  1  0
  5  6  1  0
  3  7  1  0
  7  8  1  0
  8  9  1  0
  8  3  1  0
  1 10  1  0
  4 11  1  0
  4 12  1  0
  5 13  1  0
  5 14  1  0
  6 15  1  0
  7 16  1  0
  7 17  1  0
  8 18  1  0
  9 19  1  0
M  END
