
     RDKit          3D

 17 16  0  0  0  0  0  0  0  0999 V2000
    3.5905   -0.6290    1.4904 C   0  0  0  0  0  0  0  0  0  0  0  0
    2.1604   -0.5895    1.0637 C   0  0  0  0  0  0  0  0  0  0  0  0
    1.1241   -0.5668    0.7376 C   0  0  0  0  0  0  0  0  0  0  0  0
    0.4197   -0.2823   -0.4955 C   0  0  0  0  0  0  0  0  0  0  0  0
    0.6615    0.8130   -1.2625 O   0  0  0  0  0  0  0  0  0  0  0  0
   -1.0434    0.3410    0.1765 C   0  0  0  0  0  0  0  0  0  0  0  0
   -0.7170    1.7471    0.2434 O   0  0  0  0  0  0  0  0  0  0  0  0
   -2.0123   -0.0590   -0.4333 C   0  0  0  0  0  0  0  0  0  0  0  0
   -3.2124   -0.5741   -1.2095 C   0  0  0  0  0  0  0  0  0  0  0  0
    4.5746   -0.6590    1.7973 H   0  0  0  0  0  0  0  0  0  0  0  0
    0.5137    0.3063    1.5127 H   0  0  0  0  0  0  0  0  0  0  0  0
    0.3873   -1.5076    1.1887 H   0  0  0  0  0  0  0  0  0  0  0  0
   -0.0033   -1.1446   -0.9694 H   0  0  0  0  0  0  0  0  0  0  0  0
   -0.0327    1.4366   -1.4495 H   0  0  0  0  0  0  0  0  0  0  0  0
   -0.9066    0.0118    1.2950 H   0  0  0  0  0  0  0  0  0  0  0  0
   -1.5649    2.2420    0.4597 H   0  0  0  0  0  0  0  0  0  0  0  0
   -3.9392   -0.8858   -1.6638 H   0  0  0  0  0  0  0  0  0  0  0  0
  1  2  3  0
  2  3  1  0
  3  4  1  0
  4  5  1  0
  4  6  1  0
  6  7  1  0
  6  8  1  0
  8  9  3  0
  1 10  1  0
  3 11  1  0
  3 12  1  0
  4 13  1  0
  5 14  1  0
  6 15  1  0
  7 16  1  0
  9 17  1  0
M  END
