
     RDKit          3D

 17 16  0  0  0  0  0  0  0  0999 V2000
    4.1831    0.4248    0.3209 C   0  0  0  0  0  0  0  0  0  0  0  0
    3.2321    0.3890   -0.4235 C   0  0  0  0  0  0  0  0  0  0  0  0
    2.0818    0.3265   -1.3246 C   0  0  0  0  0  0  0  0  0  0  0  0
    0.8364    0.0340   -0.6181 C   0  0  0  0  0  0  0  0  0  0  0  0
   -0.1826   -0.2059   -0.0182 C   0  0  0  0  0  0  0  0  0  0  0  0
   -1.4207   -0.4993    0.7408 C   0  0  0  0  0  0  0  0  0  0  0  0
   -1.5555   -1.8668    0.9733 O   0  0  0  0  0  0  0  0  0  0  0  0
   -2.6348   -0.0712   -0.0791 C   0  0  0  0  0  0  0  0  0  0  0  0
   -2.6074    1.2801   -0.3716 O   0  0  0  0  0  0  0  0  0  0  0  0
    5.0332    0.4639    0.9649 H   0  0  0  0  0  0  0  0  0  0  0  0
    2.3254   -0.4634   -2.0823 H   0  0  0  0  0  0  0  0  0  0  0  0
    1.9665    1.3302   -1.8255 H   0  0  0  0  0  0  0  0  0  0  0  0
   -1.3630    0.0857    1.6870 H   0  0  0  0  0  0  0  0  0  0  0  0
   -1.4481   -2.0626    1.9509 H   0  0  0  0  0  0  0  0  0  0  0  0
   -2.6064   -0.6739   -1.0160 H   0  0  0  0  0  0  0  0  0  0  0  0
   -3.5265   -0.2912    0.5440 H   0  0  0  0  0  0  0  0  0  0  0  0
   -2.3137    1.8002    0.4172 H   0  0  0  0  0  0  0  0  0  0  0  0
  1  2  3  0
  2  3  1  0
  3  4  1  0
  4  5  3  0
  5  6  1  0
  6  7  1  0
  6  8  1  0
  8  9  1  0
  1 10  1  0
  3 11  1  0
  3 12  1  0
  6 13  1  0
  7 14  1  0
  8 15  1  0
  8 16  1  0
  9 17  1  0
M  END
