
     RDKit          3D

 17 18  0  0  0  0  0  0  0  0999 V2000
    2.9125   -1.8242    1.6418 C   0  0  0  0  0  0  0  0  0  0  0  0
    1.9716   -1.2635    1.1355 C   0  0  0  0  0  0  0  0  0  0  0  0
    0.8465   -0.6184    0.5235 C   0  0  0  0  0  0  0  0  0  0  0  0
    0.5554   -0.4658   -0.7772 C   0  0  0  0  0  0  0  0  0  0  0  0
   -0.7666    0.2490   -0.6864 C   0  0  0  0  0  0  0  0  0  0  0  0
   -1.5153    0.5028   -1.8830 C   0  0  0  0  0  0  0  0  0  0  0  0
   -0.4839    1.3164    0.3160 C   0  0  0  0  0  0  0  0  0  0  0  0
   -0.3195    0.0660    1.1447 C   0  0  0  0  0  0  0  0  0  0  0  0
   -1.3666   -0.4769    0.3704 O   0  0  0  0  0  0  0  0  0  0  0  0
    3.7387   -2.3180    2.0842 H   0  0  0  0  0  0  0  0  0  0  0  0
    1.1097   -0.7687   -1.6534 H   0  0  0  0  0  0  0  0  0  0  0  0
   -1.8643    1.5699   -1.9759 H   0  0  0  0  0  0  0  0  0  0  0  0
   -2.4542   -0.1001   -1.9190 H   0  0  0  0  0  0  0  0  0  0  0  0
   -0.9774    0.2357   -2.8407 H   0  0  0  0  0  0  0  0  0  0  0  0
    0.4094    1.9214    0.1608 H   0  0  0  0  0  0  0  0  0  0  0  0
   -1.3747    1.8764    0.6745 H   0  0  0  0  0  0  0  0  0  0  0  0
   -0.4214    0.0983    2.1918 H   0  0  0  0  0  0  0  0  0  0  0  0
  1  2  3  0
  2  3  1  0
  3  4  2  0
  4  5  1  0
  5  6  1  0
  5  7  1  0
  7  8  1  0
  8  9  1  0
  8  3  1  0
  9  5  1  0
  1 10  1  0
  4 11  1  0
  6 12  1  0
  6 13  1  0
  6 14  1  0
  7 15  1  0
  7 16  1  0
  8 17  1  0
M  END
