
     RDKit          3D

 16 16  0  0  0  0  0  0  0  0999 V2000
   -2.0363    2.0583   -0.1482 C   0  0  0  0  0  0  0  0  0  0  0  0
   -1.4886    1.0086   -0.3385 C   0  0  0  0  0  0  0  0  0  0  0  0
   -0.8145   -0.2425   -0.5833 C   0  0  0  0  0  0  0  0  0  0  0  0
   -0.6699   -1.1265    0.6216 C   0  0  0  0  0  0  0  0  0  0  0  0
   -1.2591   -1.4056    1.6357 O   0  0  0  0  0  0  0  0  0  0  0  0
    0.6327   -1.5726    0.0029 C   0  0  0  0  0  0  0  0  0  0  0  0
    0.6957   -0.1674   -0.6128 C   0  0  0  0  0  0  0  0  0  0  0  0
    1.2941    0.7714    0.4197 C   0  0  0  0  0  0  0  0  0  0  0  0
   -2.5210    2.9926    0.0030 H   0  0  0  0  0  0  0  0  0  0  0  0
   -1.1665   -0.8463   -1.4380 H   0  0  0  0  0  0  0  0  0  0  0  0
    0.3945   -2.3701   -0.7383 H   0  0  0  0  0  0  0  0  0  0  0  0
    1.4357   -1.7742    0.7091 H   0  0  0  0  0  0  0  0  0  0  0  0
    1.1573   -0.1559   -1.5962 H   0  0  0  0  0  0  0  0  0  0  0  0
    1.4446    1.7856    0.0517 H   0  0  0  0  0  0  0  0  0  0  0  0
    0.6251    0.7049    1.3130 H   0  0  0  0  0  0  0  0  0  0  0  0
    2.2763    0.3398    0.6985 H   0  0  0  0  0  0  0  0  0  0  0  0
  1  2  3  0
  2  3  1  0
  3  4  1  0
  4  5  2  0
  4  6  1  0
  6  7  1  0
  7  8  1  0
  7  3  1  0
  1  9  1  0
  3 10  1  0
  6 11  1  0
  6 12  1  0
  7 13  1  0
  8 14  1  0
  8 15  1  0
  8 16  1  0
M  END
