
     RDKit          3D

 19 20  0  0  0  0  0  0  0  0999 V2000
    0.9278    3.9904   -0.6237 C   0  0  0  0  0  0  0  0  0  0  0  0
    0.4341    2.9350    0.0486 C   0  0  0  0  0  0  0  0  0  0  0  0
   -0.0961    1.8466    0.7297 C   0  0  0  0  0  0  0  0  0  0  0  0
    1.0847    0.9542    1.1554 O   0  0  0  0  0  0  0  0  0  0  0  0
   -0.0202    0.5415    0.3637 C   0  0  0  0  0  0  0  0  0  0  0  0
   -0.5919   -0.7246    0.9314 C   0  0  0  0  0  0  0  0  0  0  0  0
    0.1774   -1.4694   -0.1389 C   0  0  0  0  0  0  0  0  0  0  0  0
   -0.6105   -2.5716   -0.7760 C   0  0  0  0  0  0  0  0  0  0  0  0
    0.2473   -0.1668   -0.9069 C   0  0  0  0  0  0  0  0  0  0  0  0
    1.3148    4.7825   -1.1439 H   0  0  0  0  0  0  0  0  0  0  0  0
   -0.5835    2.1154    1.7250 H   0  0  0  0  0  0  0  0  0  0  0  0
   -0.2027   -1.0695    1.9198 H   0  0  0  0  0  0  0  0  0  0  0  0
   -1.6625   -0.8512    0.8592 H   0  0  0  0  0  0  0  0  0  0  0  0
    1.2234   -1.7522    0.2067 H   0  0  0  0  0  0  0  0  0  0  0  0
   -1.5651   -2.7207   -0.2160 H   0  0  0  0  0  0  0  0  0  0  0  0
   -0.0452   -3.5032   -0.7544 H   0  0  0  0  0  0  0  0  0  0  0  0
   -0.8090   -2.3212   -1.8334 H   0  0  0  0  0  0  0  0  0  0  0  0
   -0.5109   -0.0825   -1.6879 H   0  0  0  0  0  0  0  0  0  0  0  0
    1.2882    0.0674   -1.2678 H   0  0  0  0  0  0  0  0  0  0  0  0
  1  2  3  0
  2  3  1  0
  3  4  1  0
  4  5  1  0
  5  6  1  0
  6  7  1  0
  7  8  1  0
  7  9  1  0
  5  3  1  0
  9  5  1  0
  1 10  1  0
  3 11  1  0
  6 12  1  0
  6 13  1  0
  7 14  1  0
  8 15  1  0
  8 16  1  0
  8 17  1  0
  9 18  1  0
  9 19  1  0
M  END
