
     RDKit          3D

 15 14  0  0  0  0  0  0  0  0999 V2000
    2.0709    1.5878    1.3706 C   0  0  0  0  0  0  0  0  0  0  0  0
    1.5616    1.1008    0.5021 C   0  0  0  0  0  0  0  0  0  0  0  0
    1.0510    0.6089   -0.3442 C   0  0  0  0  0  0  0  0  0  0  0  0
    0.8102    0.6062   -1.7218 O   0  0  0  0  0  0  0  0  0  0  0  0
    0.1190   -0.7825    0.0117 C   0  0  0  0  0  0  0  0  0  0  0  0
   -0.4688   -1.3752   -1.0423 C   0  0  0  0  0  0  0  0  0  0  0  0
   -0.8817   -1.7787   -1.7735 C   0  0  0  0  0  0  0  0  0  0  0  0
   -1.0586    0.0260    0.8180 C   0  0  0  0  0  0  0  0  0  0  0  0
   -1.8156    0.6379   -0.1007 O   0  0  0  0  0  0  0  0  0  0  0  0
    2.6998    2.1565    2.4142 H   0  0  0  0  0  0  0  0  0  0  0  0
    0.7109   -1.2255    0.7791 H   0  0  0  0  0  0  0  0  0  0  0  0
   -1.4815   -2.3595   -2.8134 H   0  0  0  0  0  0  0  0  0  0  0  0
   -0.4577    0.8725    1.3105 H   0  0  0  0  0  0  0  0  0  0  0  0
   -1.4773   -0.5611    1.5980 H   0  0  0  0  0  0  0  0  0  0  0  0
   -1.3822    0.4858   -1.0084 H   0  0  0  0  0  0  0  0  0  0  0  0
  1  2  3  0
  2  3  1  0
  3  4  2  0
  3  5  1  0
  5  6  1  0
  6  7  3  0
  5  8  1  0
  8  9  1  0
  1 10  1  0
  5 11  1  0
  7 12  1  0
  8 13  1  0
  8 14  1  0
  9 15  1  0
M  END
