
     RDKit          3D

 19 19  0  0  0  0  0  0  0  0999 V2000
   -2.4416    1.1216    0.4782 C   0  0  0  0  0  0  0  0  0  0  0  0
   -1.6217    0.5796    0.2908 C   0  0  0  0  0  0  0  0  0  0  0  0
   -0.3356   -0.2527   -0.0228 C   0  0  0  0  0  0  0  0  0  0  0  0
   -0.7811   -1.6988    0.0963 C   0  0  0  0  0  0  0  0  0  0  0  0
    0.0937    0.1003   -1.3822 C   0  0  0  0  0  0  0  0  0  0  0  0
    1.4543    0.3620   -1.5063 O   0  0  0  0  0  0  0  0  0  0  0  0
    2.0412    0.9138   -0.3930 C   0  0  0  0  0  0  0  0  0  0  0  0
    1.9658   -0.0306    0.6332 O   0  0  0  0  0  0  0  0  0  0  0  0
    0.6339    0.0282    1.0686 C   0  0  0  0  0  0  0  0  0  0  0  0
   -3.4155    1.7609    0.7183 H   0  0  0  0  0  0  0  0  0  0  0  0
   -1.7781   -1.8512   -0.4175 H   0  0  0  0  0  0  0  0  0  0  0  0
   -0.0760   -2.3648   -0.4439 H   0  0  0  0  0  0  0  0  0  0  0  0
   -0.9532   -2.0313    1.1390 H   0  0  0  0  0  0  0  0  0  0  0  0
   -0.4533    0.9122   -1.8905 H   0  0  0  0  0  0  0  0  0  0  0  0
   -0.0745   -0.8004   -2.0676 H   0  0  0  0  0  0  0  0  0  0  0  0
    3.1264    1.0281   -0.5981 H   0  0  0  0  0  0  0  0  0  0  0  0
    1.5729    1.8713   -0.1238 H   0  0  0  0  0  0  0  0  0  0  0  0
    0.5440   -0.6780    1.9434 H   0  0  0  0  0  0  0  0  0  0  0  0
    0.4986    1.0299    1.5106 H   0  0  0  0  0  0  0  0  0  0  0  0
  1  2  3  0
  2  3  1  0
  3  4  1  0
  3  5  1  0
  5  6  1  0
  6  7  1  0
  7  8  1  0
  8  9  1  0
  9  3  1  0
  1 10  1  0
  4 11  1  0
  4 12  1  0
  4 13  1  0
  5 14  1  0
  5 15  1  0
  7 16  1  0
  7 17  1  0
  9 18  1  0
  9 19  1  0
M  END
