
     RDKit          3D

 17 17  0  0  0  0  0  0  0  0999 V2000
    1.1707    1.6552    2.0875 C   0  0  0  0  0  0  0  0  0  0  0  0
    0.7162    0.1973    0.9711 C   0  0  0  0  0  0  0  0  0  0  0  0
    0.5463   -0.3576    0.5493 C   0  0  0  0  0  0  0  0  0  0  0  0
    1.4637   -0.4036   -0.5796 C   0  0  0  0  0  0  0  0  0  0  0  0
    2.3607   -0.4602   -1.6526 C   0  0  0  0  0  0  0  0  0  0  0  0
   -0.4265   -1.4219   -0.1372 C   0  0  0  0  0  0  0  0  0  0  0  0
   -1.5712   -0.5010   -0.1396 C   0  0  0  0  0  0  0  0  0  0  0  0
   -2.0994   -0.1443    1.0759 O   0  0  0  0  0  0  0  0  0  0  0  0
   -0.5546    0.6172   -0.5943 C   0  0  0  0  0  0  0  0  0  0  0  0
    1.5608    2.8915    3.0188 H   0  0  0  0  0  0  0  0  0  0  0  0
    3.3430   -0.4961   -2.8371 H   0  0  0  0  0  0  0  0  0  0  0  0
    0.0618   -1.9115   -0.8562 H   0  0  0  0  0  0  0  0  0  0  0  0
   -0.6323   -2.0428    0.9518 H   0  0  0  0  0  0  0  0  0  0  0  0
   -2.3797   -0.4011   -0.9544 H   0  0  0  0  0  0  0  0  0  0  0  0
   -2.7417    0.7492    0.9095 H   0  0  0  0  0  0  0  0  0  0  0  0
   -0.1588    0.4075   -1.5759 H   0  0  0  0  0  0  0  0  0  0  0  0
   -0.6589    1.6221   -0.2371 H   0  0  0  0  0  0  0  0  0  0  0  0
  1  2  3  0
  2  3  1  0
  3  4  1  0
  4  5  3  0
  3  6  1  0
  6  7  1  0
  7  8  1  0
  7  9  1  0
  9  3  1  0
  1 10  1  0
  5 11  1  0
  6 12  1  0
  6 13  1  0
  7 14  1  0
  8 15  1  0
  9 16  1  0
  9 17  1  0
M  END
