
     RDKit          3D

 20 20  0  0  0  0  0  0  0  0999 V2000
   -0.3964    3.3529   -0.1872 C   0  0  0  0  0  0  0  0  0  0  0  0
   -0.3143    2.1410   -0.0609 C   0  0  0  0  0  0  0  0  0  0  0  0
   -0.1940    0.6897    0.0861 C   0  0  0  0  0  0  0  0  0  0  0  0
   -0.7250    0.1802    1.4117 C   0  0  0  0  0  0  0  0  0  0  0  0
   -0.2759   -0.1720   -1.1007 C   0  0  0  0  0  0  0  0  0  0  0  0
   -1.0316   -1.4742   -0.9389 C   0  0  0  0  0  0  0  0  0  0  0  0
    1.0542    0.0146   -0.4780 C   0  0  0  0  0  0  0  0  0  0  0  0
    1.6749   -1.0782    0.3633 C   0  0  0  0  0  0  0  0  0  0  0  0
   -0.4699    4.4091   -0.2791 H   0  0  0  0  0  0  0  0  0  0  0  0
   -0.0231    0.5599    2.1901 H   0  0  0  0  0  0  0  0  0  0  0  0
   -0.8395   -0.8998    1.4455 H   0  0  0  0  0  0  0  0  0  0  0  0
   -1.7141    0.6940    1.5588 H   0  0  0  0  0  0  0  0  0  0  0  0
   -0.4126    0.2666   -2.1272 H   0  0  0  0  0  0  0  0  0  0  0  0
   -0.3938   -2.2855   -0.5275 H   0  0  0  0  0  0  0  0  0  0  0  0
   -1.9001   -1.2492   -0.2617 H   0  0  0  0  0  0  0  0  0  0  0  0
   -1.4504   -1.8520   -1.8866 H   0  0  0  0  0  0  0  0  0  0  0  0
    1.7413    0.7158   -0.9688 H   0  0  0  0  0  0  0  0  0  0  0  0
    1.6350   -2.0662   -0.1229 H   0  0  0  0  0  0  0  0  0  0  0  0
    1.2662   -1.0997    1.3951 H   0  0  0  0  0  0  0  0  0  0  0  0
    2.7691   -0.8469    0.4887 H   0  0  0  0  0  0  0  0  0  0  0  0
  1  2  3  0
  2  3  1  0
  3  4  1  0
  3  5  1  0
  5  6  1  0
  5  7  1  0
  7  8  1  0
  7  3  1  0
  1  9  1  0
  4 10  1  0
  4 11  1  0
  4 12  1  0
  5 13  1  0
  6 14  1  0
  6 15  1  0
  6 16  1  0
  7 17  1  0
  8 18  1  0
  8 19  1  0
  8 20  1  0
M  END
