
     RDKit          3D

 21 21  0  0  0  0  0  0  0  0999 V2000
    0.9363    2.9835   -0.0856 C   0  0  0  0  0  0  0  0  0  0  0  0
    0.7822    1.7875   -0.1431 C   0  0  0  0  0  0  0  0  0  0  0  0
    0.5717    0.3159   -0.2021 C   0  0  0  0  0  0  0  0  0  0  0  0
   -0.8559   -0.0282   -0.5208 C   0  0  0  0  0  0  0  0  0  0  0  0
   -1.1526   -1.4822   -0.5974 C   0  0  0  0  0  0  0  0  0  0  0  0
   -1.8322    0.6492    0.4378 C   0  0  0  0  0  0  0  0  0  0  0  0
    1.6985   -0.4483   -0.7343 C   0  0  0  0  0  0  0  0  0  0  0  0
    1.3712   -0.4635    0.7515 C   0  0  0  0  0  0  0  0  0  0  0  0
    0.9276   -1.6827    1.2632 O   0  0  0  0  0  0  0  0  0  0  0  0
    1.0814    4.0348   -0.0205 H   0  0  0  0  0  0  0  0  0  0  0  0
   -1.0720    0.4334   -1.5272 H   0  0  0  0  0  0  0  0  0  0  0  0
   -1.6007   -1.8680    0.3476 H   0  0  0  0  0  0  0  0  0  0  0  0
   -1.9473   -1.6390   -1.3793 H   0  0  0  0  0  0  0  0  0  0  0  0
   -0.2839   -2.0614   -0.9278 H   0  0  0  0  0  0  0  0  0  0  0  0
   -2.7627    0.9640   -0.0788 H   0  0  0  0  0  0  0  0  0  0  0  0
   -1.3915    1.5802    0.8753 H   0  0  0  0  0  0  0  0  0  0  0  0
   -2.0384   -0.0635    1.2700 H   0  0  0  0  0  0  0  0  0  0  0  0
    1.6115   -1.4087   -1.2711 H   0  0  0  0  0  0  0  0  0  0  0  0
    2.6282    0.1020   -1.0485 H   0  0  0  0  0  0  0  0  0  0  0  0
    2.1144    0.0692    1.3831 H   0  0  0  0  0  0  0  0  0  0  0  0
    1.2140   -1.7742    2.2081 H   0  0  0  0  0  0  0  0  0  0  0  0
  1  2  3  0
  2  3  1  0
  3  4  1  0
  4  5  1  0
  4  6  1  0
  3  7  1  0
  7  8  1  0
  8  9  1  0
  8  3  1  0
  1 10  1  0
  4 11  1  0
  5 12  1  0
  5 13  1  0
  5 14  1  0
  6 15  1  0
  6 16  1  0
  6 17  1  0
  7 18  1  0
  7 19  1  0
  8 20  1  0
  9 21  1  0
M  END
