
     RDKit          3D

 21 21  0  0  0  0  0  0  0  0999 V2000
   -1.5757    0.3209   -2.7808 C   0  0  0  0  0  0  0  0  0  0  0  0
   -0.5958    0.0194   -2.2002 C   0  0  0  0  0  0  0  0  0  0  0  0
    0.6031   -0.3560   -1.4605 C   0  0  0  0  0  0  0  0  0  0  0  0
    1.4904    0.8437   -1.3427 C   0  0  0  0  0  0  0  0  0  0  0  0
    0.1742   -0.9308   -0.1373 C   0  0  0  0  0  0  0  0  0  0  0  0
   -0.6129    0.0111    0.7012 C   0  0  0  0  0  0  0  0  0  0  0  0
   -1.0567   -0.5285    2.0285 C   0  0  0  0  0  0  0  0  0  0  0  0
    0.2909    0.0219    2.4897 C   0  0  0  0  0  0  0  0  0  0  0  0
    0.2026    0.9199    1.4150 O   0  0  0  0  0  0  0  0  0  0  0  0
   -2.5002    0.6212   -3.3216 H   0  0  0  0  0  0  0  0  0  0  0  0
    1.1238   -1.1314   -2.0442 H   0  0  0  0  0  0  0  0  0  0  0  0
    0.9173    1.6361   -0.7978 H   0  0  0  0  0  0  0  0  0  0  0  0
    1.6554    1.2626   -2.3727 H   0  0  0  0  0  0  0  0  0  0  0  0
    2.4680    0.6459   -0.9124 H   0  0  0  0  0  0  0  0  0  0  0  0
   -0.5162   -1.7832   -0.3934 H   0  0  0  0  0  0  0  0  0  0  0  0
    1.0071   -1.3780    0.4264 H   0  0  0  0  0  0  0  0  0  0  0  0
   -1.4016    0.5873    0.2024 H   0  0  0  0  0  0  0  0  0  0  0  0
   -1.1050   -1.6201    2.1299 H   0  0  0  0  0  0  0  0  0  0  0  0
   -1.8957    0.0360    2.4948 H   0  0  0  0  0  0  0  0  0  0  0  0
    0.2568    0.4675    3.4913 H   0  0  0  0  0  0  0  0  0  0  0  0
    1.0704   -0.7596    2.3845 H   0  0  0  0  0  0  0  0  0  0  0  0
  1  2  3  0
  2  3  1  0
  3  4  1  0
  3  5  1  0
  5  6  1  0
  6  7  1  0
  7  8  1  0
  8  9  1  0
  9  6  1  0
  1 10  1  0
  3 11  1  0
  4 12  1  0
  4 13  1  0
  4 14  1  0
  5 15  1  0
  5 16  1  0
  6 17  1  0
  7 18  1  0
  7 19  1  0
  8 20  1  0
  8 21  1  0
M  END
