
     RDKit          3D

 19 18  0  0  0  0  0  0  0  0999 V2000
   -2.1041    0.9764    1.2925 C   0  0  0  0  0  0  0  0  0  0  0  0
   -1.2360    0.4199    0.6605 C   0  0  0  0  0  0  0  0  0  0  0  0
   -0.1642   -0.2511   -0.1144 C   0  0  0  0  0  0  0  0  0  0  0  0
    0.7697   -0.7836    0.7719 O   0  0  0  0  0  0  0  0  0  0  0  0
    1.9996   -0.1399    0.5717 C   0  0  0  0  0  0  0  0  0  0  0  0
    1.8103    1.3338    0.8360 C   0  0  0  0  0  0  0  0  0  0  0  0
   -0.7362   -1.3344   -0.9528 C   0  0  0  0  0  0  0  0  0  0  0  0
   -1.7589   -1.0422   -1.9858 C   0  0  0  0  0  0  0  0  0  0  0  0
   -0.3684   -2.4805   -0.7990 O   0  0  0  0  0  0  0  0  0  0  0  0
   -2.8629    1.4503    1.8584 H   0  0  0  0  0  0  0  0  0  0  0  0
    0.2838    0.5514   -0.7642 H   0  0  0  0  0  0  0  0  0  0  0  0
    2.7865   -0.5798    1.2218 H   0  0  0  0  0  0  0  0  0  0  0  0
    2.2815   -0.2846   -0.4793 H   0  0  0  0  0  0  0  0  0  0  0  0
    2.6798    1.7272    1.4208 H   0  0  0  0  0  0  0  0  0  0  0  0
    0.8545    1.5100    1.3728 H   0  0  0  0  0  0  0  0  0  0  0  0
    1.7226    1.8468   -0.1416 H   0  0  0  0  0  0  0  0  0  0  0  0
   -2.2601   -0.0850   -1.7455 H   0  0  0  0  0  0  0  0  0  0  0  0
   -2.5019   -1.8568   -2.1067 H   0  0  0  0  0  0  0  0  0  0  0  0
   -1.1957   -0.9777   -2.9617 H   0  0  0  0  0  0  0  0  0  0  0  0
  1  2  3  0
  2  3  1  0
  3  4  1  0
  4  5  1  0
  5  6  1  0
  3  7  1  0
  7  8  1  0
  7  9  2  0
  1 10  1  0
  3 11  1  0
  5 12  1  0
  5 13  1  0
  6 14  1  0
  6 15  1  0
  6 16  1  0
  8 17  1  0
  8 18  1  0
  8 19  1  0
M  END
