
     RDKit          3D

 17 17  0  0  0  0  0  0  0  0999 V2000
    2.8828   -0.7489   -0.1566 C   0  0  0  0  0  0  0  0  0  0  0  0
    1.8229   -0.4882   -0.6755 C   0  0  0  0  0  0  0  0  0  0  0  0
    0.5394   -0.1559   -1.3280 C   0  0  0  0  0  0  0  0  0  0  0  0
    0.5575    0.3116   -2.6272 O   0  0  0  0  0  0  0  0  0  0  0  0
   -0.6599   -1.0725   -0.9307 C   0  0  0  0  0  0  0  0  0  0  0  0
   -1.5122   -1.3898   -1.9662 O   0  0  0  0  0  0  0  0  0  0  0  0
   -0.5380    0.3148   -0.4286 C   0  0  0  0  0  0  0  0  0  0  0  0
   -0.3065    0.4519    0.9340 O   0  0  0  0  0  0  0  0  0  0  0  0
   -1.0316    1.4975    1.4782 C   0  0  0  0  0  0  0  0  0  0  0  0
    3.8049   -0.9802    0.3153 H   0  0  0  0  0  0  0  0  0  0  0  0
    1.4469    0.0954   -3.0176 H   0  0  0  0  0  0  0  0  0  0  0  0
   -0.4045   -1.8958   -0.2262 H   0  0  0  0  0  0  0  0  0  0  0  0
   -1.7527   -2.3456   -1.9034 H   0  0  0  0  0  0  0  0  0  0  0  0
   -1.2539    1.0495   -0.8614 H   0  0  0  0  0  0  0  0  0  0  0  0
   -0.7796    1.5258    2.5667 H   0  0  0  0  0  0  0  0  0  0  0  0
   -2.1243    1.3589    1.4136 H   0  0  0  0  0  0  0  0  0  0  0  0
   -0.6913    2.4713    1.0582 H   0  0  0  0  0  0  0  0  0  0  0  0
  1  2  3  0
  2  3  1  0
  3  4  1  0
  3  5  1  0
  5  6  1  0
  5  7  1  0
  7  8  1  0
  8  9  1  0
  7  3  1  0
  1 10  1  0
  4 11  1  0
  5 12  1  0
  6 13  1  0
  7 14  1  0
  9 15  1  0
  9 16  1  0
  9 17  1  0
M  END
