
     RDKit          3D

 16 17  0  0  0  0  0  0  0  0999 V2000
    3.2352   -0.2030    0.8293 C   0  0  0  0  0  0  0  0  0  0  0  0
    2.2102   -0.0233    0.2260 C   0  0  0  0  0  0  0  0  0  0  0  0
    1.0014    0.1925   -0.5131 C   0  0  0  0  0  0  0  0  0  0  0  0
   -0.0639   -0.8858   -0.3884 C   0  0  0  0  0  0  0  0  0  0  0  0
   -1.0247    0.2002    0.0381 C   0  0  0  0  0  0  0  0  0  0  0  0
   -2.1663   -0.1046    0.9388 C   0  0  0  0  0  0  0  0  0  0  0  0
   -1.1064    1.3772   -0.6651 O   0  0  0  0  0  0  0  0  0  0  0  0
   -0.0137    1.1333    0.1416 C   0  0  0  0  0  0  0  0  0  0  0  0
    4.1509   -0.3680    1.3702 H   0  0  0  0  0  0  0  0  0  0  0  0
    1.1475    0.4120   -1.6039 H   0  0  0  0  0  0  0  0  0  0  0  0
    0.1789   -1.5291    0.4810 H   0  0  0  0  0  0  0  0  0  0  0  0
   -0.3165   -1.4069   -1.3271 H   0  0  0  0  0  0  0  0  0  0  0  0
   -2.0147    0.1762    1.9947 H   0  0  0  0  0  0  0  0  0  0  0  0
   -3.1023    0.4087    0.5707 H   0  0  0  0  0  0  0  0  0  0  0  0
   -2.4243   -1.2003    0.9096 H   0  0  0  0  0  0  0  0  0  0  0  0
    0.3087    1.8209    0.9168 H   0  0  0  0  0  0  0  0  0  0  0  0
  1  2  3  0
  2  3  1  0
  3  4  1  0
  4  5  1  0
  5  6  1  0
  5  7  1  0
  7  8  1  0
  8  3  1  0
  8  5  1  0
  1  9  1  0
  3 10  1  0
  4 11  1  0
  4 12  1  0
  6 13  1  0
  6 14  1  0
  6 15  1  0
  8 16  1  0
M  END
