
     RDKit          3D

 13 12  0  0  0  0  0  0  0  0999 V2000
    2.8618    0.2862   -2.8968 C   0  0  0  0  0  0  0  0  0  0  0  0
    2.2608   -0.3391   -2.0451 C   0  0  0  0  0  0  0  0  0  0  0  0
    1.5471   -1.0732   -1.0680 C   0  0  0  0  0  0  0  0  0  0  0  0
    1.6622   -2.3193   -0.9985 O   0  0  0  0  0  0  0  0  0  0  0  0
    0.6750   -0.4355   -0.1267 C   0  0  0  0  0  0  0  0  0  0  0  0
   -0.0843    0.0948    0.6707 C   0  0  0  0  0  0  0  0  0  0  0  0
   -0.9908    0.7205    1.5869 C   0  0  0  0  0  0  0  0  0  0  0  0
   -2.4135    0.2194    1.5659 C   0  0  0  0  0  0  0  0  0  0  0  0
   -0.6929    1.6245    2.3777 O   0  0  0  0  0  0  0  0  0  0  0  0
    3.3828    0.8364   -3.6661 H   0  0  0  0  0  0  0  0  0  0  0  0
   -2.6944    0.0716    0.5145 H   0  0  0  0  0  0  0  0  0  0  0  0
   -2.4319   -0.7013    2.1456 H   0  0  0  0  0  0  0  0  0  0  0  0
   -3.0819    1.0149    1.9951 H   0  0  0  0  0  0  0  0  0  0  0  0
  1  2  3  0
  2  3  1  0
  3  4  2  0
  3  5  1  0
  5  6  3  0
  6  7  1  0
  7  8  1  0
  7  9  2  0
  1 10  1  0
  8 11  1  0
  8 12  1  0
  8 13  1  0
M  END
