
     RDKit          3D

 21 20  0  0  0  0  0  0  0  0999 V2000
    2.4610    0.7058   -2.3613 C   0  0  0  0  0  0  0  0  0  0  0  0
    1.8022    0.3311   -1.4020 C   0  0  0  0  0  0  0  0  0  0  0  0
    1.0280   -0.1044   -0.2390 C   0  0  0  0  0  0  0  0  0  0  0  0
    1.8300    0.2280    1.0166 C   0  0  0  0  0  0  0  0  0  0  0  0
    3.0784   -0.3819    1.0056 O   0  0  0  0  0  0  0  0  0  0  0  0
   -0.1756    0.5385   -0.1325 O   0  0  0  0  0  0  0  0  0  0  0  0
   -1.2894   -0.2432   -0.1050 C   0  0  0  0  0  0  0  0  0  0  0  0
   -2.2272   -0.0525   -1.2638 C   0  0  0  0  0  0  0  0  0  0  0  0
   -2.0539   -0.1636    1.1991 C   0  0  0  0  0  0  0  0  0  0  0  0
    3.0453    1.0357   -3.1810 H   0  0  0  0  0  0  0  0  0  0  0  0
    0.9730   -1.1981   -0.2920 H   0  0  0  0  0  0  0  0  0  0  0  0
    1.3146   -0.0739    1.9288 H   0  0  0  0  0  0  0  0  0  0  0  0
    2.0151    1.3273    1.0723 H   0  0  0  0  0  0  0  0  0  0  0  0
    3.4582   -0.2595    1.9092 H   0  0  0  0  0  0  0  0  0  0  0  0
   -0.9342   -1.3095   -0.1816 H   0  0  0  0  0  0  0  0  0  0  0  0
   -3.2977   -0.0588   -0.9437 H   0  0  0  0  0  0  0  0  0  0  0  0
   -2.0458    0.9632   -1.7047 H   0  0  0  0  0  0  0  0  0  0  0  0
   -2.1235   -0.7807   -2.0625 H   0  0  0  0  0  0  0  0  0  0  0  0
   -2.8849    0.5589    1.0477 H   0  0  0  0  0  0  0  0  0  0  0  0
   -1.4154    0.0829    2.0576 H   0  0  0  0  0  0  0  0  0  0  0  0
   -2.5582   -1.1454    1.4283 H   0  0  0  0  0  0  0  0  0  0  0  0
  1  2  3  0
  2  3  1  0
  3  4  1  0
  4  5  1  0
  3  6  1  0
  6  7  1  0
  7  8  1  0
  7  9  1  0
  1 10  1  0
  3 11  1  0
  4 12  1  0
  4 13  1  0
  5 14  1  0
  7 15  1  0
  8 16  1  0
  8 17  1  0
  8 18  1  0
  9 19  1  0
  9 20  1  0
  9 21  1  0
M  END
