
     RDKit          3D

 19 20  0  0  0  0  0  0  0  0999 V2000
    2.1789   -1.0065   -1.7119 C   0  0  0  0  0  0  0  0  0  0  0  0
    1.2780   -0.4002   -0.8788 C   0  0  0  0  0  0  0  0  0  0  0  0
    0.7029   -0.0128   -0.3389 C   0  0  0  0  0  0  0  0  0  0  0  0
    0.5944    1.5166    0.2136 C   0  0  0  0  0  0  0  0  0  0  0  0
   -0.4977    0.9205    1.0080 C   0  0  0  0  0  0  0  0  0  0  0  0
    0.5400   -0.1773    1.3255 C   0  0  0  0  0  0  0  0  0  0  0  0
   -0.8430    0.0781   -0.1439 C   0  0  0  0  0  0  0  0  0  0  0  0
   -1.6279   -1.1612    0.1388 C   0  0  0  0  0  0  0  0  0  0  0  0
   -1.3998    0.7974   -1.2199 O   0  0  0  0  0  0  0  0  0  0  0  0
    3.1318   -1.6387   -2.5627 H   0  0  0  0  0  0  0  0  0  0  0  0
    0.3051    2.1731   -0.6018 H   0  0  0  0  0  0  0  0  0  0  0  0
    1.5262    1.7691    0.7443 H   0  0  0  0  0  0  0  0  0  0  0  0
   -1.0846    1.3241    1.7068 H   0  0  0  0  0  0  0  0  0  0  0  0
    1.3684    0.2850    1.9498 H   0  0  0  0  0  0  0  0  0  0  0  0
    0.1629   -1.1123    1.6925 H   0  0  0  0  0  0  0  0  0  0  0  0
   -2.1545   -1.5528   -0.7885 H   0  0  0  0  0  0  0  0  0  0  0  0
   -2.4642   -0.9741    0.8655 H   0  0  0  0  0  0  0  0  0  0  0  0
   -0.9657   -1.9609    0.4702 H   0  0  0  0  0  0  0  0  0  0  0  0
   -0.7512    1.1329   -1.8684 H   0  0  0  0  0  0  0  0  0  0  0  0
  1  2  3  0
  2  3  1  0
  3  4  1  0
  4  5  1  0
  5  6  1  0
  5  7  1  0
  7  8  1  0
  7  9  1  0
  6  3  1  0
  7  3  1  0
  1 10  1  0
  4 11  1  0
  4 12  1  0
  5 13  1  0
  6 14  1  0
  6 15  1  0
  8 16  1  0
  8 17  1  0
  8 18  1  0
  9 19  1  0
M  END
