
     RDKit          3D

 21 21  0  0  0  0  0  0  0  0999 V2000
   -3.5646   -1.3790    0.5034 C   0  0  0  0  0  0  0  0  0  0  0  0
   -2.9824   -0.3462    0.7193 C   0  0  0  0  0  0  0  0  0  0  0  0
   -2.2712    0.9261    0.9592 C   0  0  0  0  0  0  0  0  0  0  0  0
   -1.2828    1.1315   -0.0016 O   0  0  0  0  0  0  0  0  0  0  0  0
   -0.3796    0.0774    0.0706 C   0  0  0  0  0  0  0  0  0  0  0  0
    0.7297    0.2160   -0.9374 C   0  0  0  0  0  0  0  0  0  0  0  0
    1.6906   -0.9509   -0.8258 C   0  0  0  0  0  0  0  0  0  0  0  0
    2.4959   -0.0943    0.1375 C   0  0  0  0  0  0  0  0  0  0  0  0
    1.8637    1.1162   -0.5210 C   0  0  0  0  0  0  0  0  0  0  0  0
   -4.0703   -2.3095    0.3194 H   0  0  0  0  0  0  0  0  0  0  0  0
   -1.8862    0.9294    1.9868 H   0  0  0  0  0  0  0  0  0  0  0  0
   -3.0266    1.7391    0.7958 H   0  0  0  0  0  0  0  0  0  0  0  0
   -0.9509   -0.8437   -0.1939 H   0  0  0  0  0  0  0  0  0  0  0  0
   -0.0002   -0.0875    1.0998 H   0  0  0  0  0  0  0  0  0  0  0  0
    0.3188    0.3910   -1.9413 H   0  0  0  0  0  0  0  0  0  0  0  0
    2.2599   -1.1180   -1.7505 H   0  0  0  0  0  0  0  0  0  0  0  0
    1.2438   -1.8568   -0.3672 H   0  0  0  0  0  0  0  0  0  0  0  0
    2.1614   -0.1569    1.1911 H   0  0  0  0  0  0  0  0  0  0  0  0
    3.5802   -0.1386    0.0203 H   0  0  0  0  0  0  0  0  0  0  0  0
    1.6056    1.9375    0.1552 H   0  0  0  0  0  0  0  0  0  0  0  0
    2.4651    1.3875   -1.4197 H   0  0  0  0  0  0  0  0  0  0  0  0
  1  2  3  0
  2  3  1  0
  3  4  1  0
  4  5  1  0
  5  6  1  0
  6  7  1  0
  7  8  1  0
  8  9  1  0
  9  6  1  0
  1 10  1  0
  3 11  1  0
  3 12  1  0
  5 13  1  0
  5 14  1  0
  6 15  1  0
  7 16  1  0
  7 17  1  0
  8 18  1  0
  8 19  1  0
  9 20  1  0
  9 21  1  0
M  END
