
     RDKit          3D

 17 18  0  0  0  0  0  0  0  0999 V2000
    3.5099    1.2303   -0.4609 C   0  0  0  0  0  0  0  0  0  0  0  0
    2.4267    0.7154   -0.3018 C   0  0  0  0  0  0  0  0  0  0  0  0
    1.1264    0.0805   -0.1063 C   0  0  0  0  0  0  0  0  0  0  0  0
    0.2263    0.5547    0.6946 C   0  0  0  0  0  0  0  0  0  0  0  0
   -0.9660   -0.2984    0.6763 C   0  0  0  0  0  0  0  0  0  0  0  0
   -2.2133    0.5106    0.2914 C   0  0  0  0  0  0  0  0  0  0  0  0
   -0.6534   -1.3744   -0.1870 C   0  0  0  0  0  0  0  0  0  0  0  0
    0.2903   -2.2872   -0.3446 O   0  0  0  0  0  0  0  0  0  0  0  0
    0.6922   -1.0849   -0.7322 C   0  0  0  0  0  0  0  0  0  0  0  0
    4.4594    1.6658   -0.6098 H   0  0  0  0  0  0  0  0  0  0  0  0
    0.3308    1.4670    1.3070 H   0  0  0  0  0  0  0  0  0  0  0  0
   -1.0943   -0.5874    1.7899 H   0  0  0  0  0  0  0  0  0  0  0  0
   -2.2111    0.7640   -0.7744 H   0  0  0  0  0  0  0  0  0  0  0  0
   -3.0751   -0.1077    0.6095 H   0  0  0  0  0  0  0  0  0  0  0  0
   -2.2011    1.4214    0.9254 H   0  0  0  0  0  0  0  0  0  0  0  0
   -1.5083   -1.5998   -0.9192 H   0  0  0  0  0  0  0  0  0  0  0  0
    0.8607   -1.0697   -1.8578 H   0  0  0  0  0  0  0  0  0  0  0  0
  1  2  3  0
  2  3  1  0
  3  4  2  0
  4  5  1  0
  5  6  1  0
  5  7  1  0
  7  8  1  0
  8  9  1  0
  9  3  1  0
  9  7  1  0
  1 10  1  0
  4 11  1  0
  5 12  1  0
  6 13  1  0
  6 14  1  0
  6 15  1  0
  7 16  1  0
  9 17  1  0
M  END
