
     RDKit          3D

 15 15  0  0  0  0  0  0  0  0999 V2000
    2.8295    0.5290    0.3982 C   0  0  0  0  0  0  0  0  0  0  0  0
    1.4086    0.7133    0.3675 C   0  0  0  0  0  0  0  0  0  0  0  0
    0.0682    0.8659    0.3492 C   0  0  0  0  0  0  0  0  0  0  0  0
   -0.4642    2.0085    0.3327 O   0  0  0  0  0  0  0  0  0  0  0  0
   -0.3552    0.1871   -1.1336 C   0  0  0  0  0  0  0  0  0  0  0  0
   -0.4875   -0.6058    0.0462 C   0  0  0  0  0  0  0  0  0  0  0  0
    0.4797   -1.6801    0.1971 O   0  0  0  0  0  0  0  0  0  0  0  0
   -1.6556   -0.9049    0.8726 C   0  0  0  0  0  0  0  0  0  0  0  0
   -2.3465   -1.8503    0.7760 O   0  0  0  0  0  0  0  0  0  0  0  0
    4.1501    0.3724    0.4189 H   0  0  0  0  0  0  0  0  0  0  0  0
   -1.2017    2.0984   -0.3935 H   0  0  0  0  0  0  0  0  0  0  0  0
   -1.2230    0.7345   -1.5872 H   0  0  0  0  0  0  0  0  0  0  0  0
    0.4320    0.0730   -1.8907 H   0  0  0  0  0  0  0  0  0  0  0  0
    0.2595   -2.4181   -0.4283 H   0  0  0  0  0  0  0  0  0  0  0  0
   -1.8938   -0.1229    1.6750 H   0  0  0  0  0  0  0  0  0  0  0  0
  1  2  3  0
  2  3  1  0
  3  4  1  0
  3  5  1  0
  5  6  1  0
  6  7  1  0
  6  8  1  0
  8  9  2  0
  6  3  1  0
  1 10  1  0
  4 11  1  0
  5 12  1  0
  5 13  1  0
  7 14  1  0
  8 15  1  0
M  END
