
     RDKit          3D

 21 20  0  0  0  0  0  0  0  0999 V2000
    2.7838   -0.8150   -2.1102 C   0  0  0  0  0  0  0  0  0  0  0  0
    2.3105   -1.1893   -1.1439 C   0  0  0  0  0  0  0  0  0  0  0  0
    1.6883   -1.6660    0.1559 C   0  0  0  0  0  0  0  0  0  0  0  0
    0.9584   -0.5019    0.7185 C   0  0  0  0  0  0  0  0  0  0  0  0
    1.5035    0.1936    1.5531 O   0  0  0  0  0  0  0  0  0  0  0  0
   -0.4190   -0.1525    0.2968 C   0  0  0  0  0  0  0  0  0  0  0  0
   -0.4587    0.2125   -1.1499 C   0  0  0  0  0  0  0  0  0  0  0  0
   -0.9386    0.9101    1.2345 C   0  0  0  0  0  0  0  0  0  0  0  0
   -2.3127    1.3863    0.9308 C   0  0  0  0  0  0  0  0  0  0  0  0
    3.2263   -0.4559   -3.0557 H   0  0  0  0  0  0  0  0  0  0  0  0
    2.5072   -2.0530    0.7741 H   0  0  0  0  0  0  0  0  0  0  0  0
    0.9610   -2.4604   -0.0994 H   0  0  0  0  0  0  0  0  0  0  0  0
   -1.0442   -1.0976    0.4051 H   0  0  0  0  0  0  0  0  0  0  0  0
   -1.3504    0.8697   -1.3933 H   0  0  0  0  0  0  0  0  0  0  0  0
   -0.5549   -0.6574   -1.8312 H   0  0  0  0  0  0  0  0  0  0  0  0
    0.4176    0.8272   -1.4655 H   0  0  0  0  0  0  0  0  0  0  0  0
   -0.2328    1.7424    1.3550 H   0  0  0  0  0  0  0  0  0  0  0  0
   -1.0160    0.3784    2.2317 H   0  0  0  0  0  0  0  0  0  0  0  0
   -2.3429    2.3315    0.3250 H   0  0  0  0  0  0  0  0  0  0  0  0
   -2.8309    1.6349    1.8806 H   0  0  0  0  0  0  0  0  0  0  0  0
   -2.8556    0.5625    0.3880 H   0  0  0  0  0  0  0  0  0  0  0  0
  1  2  3  0
  2  3  1  0
  3  4  1  0
  4  5  2  0
  4  6  1  0
  6  7  1  0
  6  8  1  0
  8  9  1  0
  1 10  1  0
  3 11  1  0
  3 12  1  0
  6 13  1  0
  7 14  1  0
  7 15  1  0
  7 16  1  0
  8 17  1  0
  8 18  1  0
  9 19  1  0
  9 20  1  0
  9 21  1  0
M  END
