
     RDKit          3D

 18 18  0  0  0  0  0  0  0  0999 V2000
   -2.4351   -1.9095   -0.4066 C   0  0  0  0  0  0  0  0  0  0  0  0
   -1.5460   -1.1006   -0.5414 C   0  0  0  0  0  0  0  0  0  0  0  0
   -0.4927   -0.1101   -0.7102 C   0  0  0  0  0  0  0  0  0  0  0  0
   -0.1779    0.8634    0.3625 C   0  0  0  0  0  0  0  0  0  0  0  0
   -1.0378    0.8006    1.6319 C   0  0  0  0  0  0  0  0  0  0  0  0
    0.7528   -0.2461    0.1580 C   0  0  0  0  0  0  0  0  0  0  0  0
    2.0442   -0.1155   -0.5896 C   0  0  0  0  0  0  0  0  0  0  0  0
    2.1179    1.1260   -1.1966 O   0  0  0  0  0  0  0  0  0  0  0  0
   -3.2273   -2.6104   -0.2989 H   0  0  0  0  0  0  0  0  0  0  0  0
   -0.3651    0.2483   -1.7512 H   0  0  0  0  0  0  0  0  0  0  0  0
    0.0542    1.9134    0.0867 H   0  0  0  0  0  0  0  0  0  0  0  0
   -1.4119   -0.2317    1.7173 H   0  0  0  0  0  0  0  0  0  0  0  0
   -1.8360    1.5587    1.5593 H   0  0  0  0  0  0  0  0  0  0  0  0
   -0.3599    0.9888    2.5080 H   0  0  0  0  0  0  0  0  0  0  0  0
    0.7666   -1.0635    0.9245 H   0  0  0  0  0  0  0  0  0  0  0  0
    2.0604   -0.9125   -1.3687 H   0  0  0  0  0  0  0  0  0  0  0  0
    2.9122   -0.2459    0.1033 H   0  0  0  0  0  0  0  0  0  0  0  0
    2.1813    1.0464   -2.1884 H   0  0  0  0  0  0  0  0  0  0  0  0
  1  2  3  0
  2  3  1  0
  3  4  1  0
  4  5  1  0
  4  6  1  0
  6  7  1  0
  7  8  1  0
  6  3  1  0
  1  9  1  0
  3 10  1  0
  4 11  1  0
  5 12  1  0
  5 13  1  0
  5 14  1  0
  6 15  1  0
  7 16  1  0
  7 17  1  0
  8 18  1  0
M  END
