
     RDKit          3D

 15 14  0  0  0  0  0  0  0  0999 V2000
    3.7204    1.0124   -0.0817 C   0  0  0  0  0  0  0  0  0  0  0  0
    2.9220    0.1194    0.0434 C   0  0  0  0  0  0  0  0  0  0  0  0
    1.9643   -0.9862    0.1859 C   0  0  0  0  0  0  0  0  0  0  0  0
    0.5918   -0.4529    0.2497 C   0  0  0  0  0  0  0  0  0  0  0  0
   -0.5278   -0.0085    0.3065 C   0  0  0  0  0  0  0  0  0  0  0  0
   -1.8994    0.5184    0.3559 C   0  0  0  0  0  0  0  0  0  0  0  0
   -1.8985    1.7446   -0.2655 O   0  0  0  0  0  0  0  0  0  0  0  0
   -2.7639   -0.3777   -0.4224 C   0  0  0  0  0  0  0  0  0  0  0  0
   -3.4818   -1.1291   -1.0617 C   0  0  0  0  0  0  0  0  0  0  0  0
    4.4343    1.8068   -0.1888 H   0  0  0  0  0  0  0  0  0  0  0  0
    2.0389   -1.6574   -0.6749 H   0  0  0  0  0  0  0  0  0  0  0  0
    2.2239   -1.5396    1.1088 H   0  0  0  0  0  0  0  0  0  0  0  0
   -2.2639    0.6378    1.3911 H   0  0  0  0  0  0  0  0  0  0  0  0
   -0.9680    2.1063   -0.4129 H   0  0  0  0  0  0  0  0  0  0  0  0
   -4.0923   -1.7943   -1.6126 H   0  0  0  0  0  0  0  0  0  0  0  0
  1  2  3  0
  2  3  1  0
  3  4  1  0
  4  5  3  0
  5  6  1  0
  6  7  1  0
  6  8  1  0
  8  9  3  0
  1 10  1  0
  3 11  1  0
  3 12  1  0
  6 13  1  0
  7 14  1  0
  9 15  1  0
M  END
