
     RDKit          3D

 21 20  0  0  0  0  0  0  0  0999 V2000
    2.6261   -1.9379   -0.8977 C   0  0  0  0  0  0  0  0  0  0  0  0
    1.5451   -1.6807   -0.3887 C   0  0  0  0  0  0  0  0  0  0  0  0
    0.2567   -1.3497    0.2231 C   0  0  0  0  0  0  0  0  0  0  0  0
   -0.0101    0.1187   -0.0475 C   0  0  0  0  0  0  0  0  0  0  0  0
   -1.3478    0.4410    0.5938 C   0  0  0  0  0  0  0  0  0  0  0  0
   -2.4343   -0.4158   -0.0099 C   0  0  0  0  0  0  0  0  0  0  0  0
    1.0845    0.9075    0.5878 C   0  0  0  0  0  0  0  0  0  0  0  0
    0.9558    2.3692    0.4048 C   0  0  0  0  0  0  0  0  0  0  0  0
    1.8245    3.0662    0.9039 O   0  0  0  0  0  0  0  0  0  0  0  0
    3.5677   -2.1709   -1.3240 H   0  0  0  0  0  0  0  0  0  0  0  0
    0.3226   -1.5328    1.3110 H   0  0  0  0  0  0  0  0  0  0  0  0
   -0.5449   -1.9979   -0.1855 H   0  0  0  0  0  0  0  0  0  0  0  0
   -0.0726    0.2989   -1.1279 H   0  0  0  0  0  0  0  0  0  0  0  0
   -1.2408    0.2367    1.6713 H   0  0  0  0  0  0  0  0  0  0  0  0
   -1.6470    1.4856    0.4726 H   0  0  0  0  0  0  0  0  0  0  0  0
   -2.4000   -1.4101    0.5052 H   0  0  0  0  0  0  0  0  0  0  0  0
   -2.3570   -0.5134   -1.0948 H   0  0  0  0  0  0  0  0  0  0  0  0
   -3.4384    0.0026    0.2101 H   0  0  0  0  0  0  0  0  0  0  0  0
    1.0786    0.7059    1.6910 H   0  0  0  0  0  0  0  0  0  0  0  0
    2.0583    0.5125    0.2143 H   0  0  0  0  0  0  0  0  0  0  0  0
    0.1728    2.8643   -0.1235 H   0  0  0  0  0  0  0  0  0  0  0  0
  1  2  3  0
  2  3  1  0
  3  4  1  0
  4  5  1  0
  5  6  1  0
  4  7  1  0
  7  8  1  0
  8  9  2  0
  1 10  1  0
  3 11  1  0
  3 12  1  0
  4 13  1  0
  5 14  1  0
  5 15  1  0
  6 16  1  0
  6 17  1  0
  6 18  1  0
  7 19  1  0
  7 20  1  0
  8 21  1  0
M  END
