
     RDKit          3D

 19 18  0  0  0  0  0  0  0  0999 V2000
    5.5899    0.0479   -1.2051 C   0  0  0  0  0  0  0  0  0  0  0  0
    3.9023   -0.2796   -1.0297 C   0  0  0  0  0  0  0  0  0  0  0  0
    2.8676   -0.4630   -0.9156 C   0  0  0  0  0  0  0  0  0  0  0  0
    1.3419   -0.7221   -0.7663 C   0  0  0  0  0  0  0  0  0  0  0  0
    0.1951   -0.9374   -0.6566 C   0  0  0  0  0  0  0  0  0  0  0  0
   -0.4862    0.2296    0.3101 C   0  0  0  0  0  0  0  0  0  0  0  0
   -1.9703    0.0194    0.2054 C   0  0  0  0  0  0  0  0  0  0  0  0
   -2.4802    1.0694    1.2473 C   0  0  0  0  0  0  0  0  0  0  0  0
   -1.9375    0.4139    2.4308 O   0  0  0  0  0  0  0  0  0  0  0  0
    6.2830    0.1815   -1.2843 H   0  0  0  0  0  0  0  0  0  0  0  0
   -0.1719   -1.8401    0.0862 H   0  0  0  0  0  0  0  0  0  0  0  0
   -0.5129   -0.9265   -1.5164 H   0  0  0  0  0  0  0  0  0  0  0  0
   -0.1299    0.1279    1.2891 H   0  0  0  0  0  0  0  0  0  0  0  0
   -0.1627    1.1764   -0.1730 H   0  0  0  0  0  0  0  0  0  0  0  0
   -2.2601   -0.9336    0.6209 H   0  0  0  0  0  0  0  0  0  0  0  0
   -2.3665    0.2573   -0.7628 H   0  0  0  0  0  0  0  0  0  0  0  0
   -3.5170    1.1695    1.3531 H   0  0  0  0  0  0  0  0  0  0  0  0
   -1.9111    1.9665    1.0881 H   0  0  0  0  0  0  0  0  0  0  0  0
   -2.2734   -0.5570    2.3642 H   0  0  0  0  0  0  0  0  0  0  0  0
  1  2  3  0
  2  3  1  0
  3  4  3  0
  4  5  1  0
  5  6  1  0
  6  7  1  0
  7  8  1  0
  8  9  1  0
  1 10  1  0
  5 11  1  0
  5 12  1  0
  6 13  1  0
  6 14  1  0
  7 15  1  0
  7 16  1  0
  8 17  1  0
  8 18  1  0
  9 19  1  0
M  END
