
     RDKit          3D

 19 19  0  0  0  0  0  0  0  0999 V2000
    2.9397   -1.0216   -0.4920 C   0  0  0  0  0  0  0  0  0  0  0  0
    2.1602   -0.5744   -0.0526 C   0  0  0  0  0  0  0  0  0  0  0  0
    0.9543    0.1371    0.6533 C   0  0  0  0  0  0  0  0  0  0  0  0
   -0.2352   -0.5478    0.9380 C   0  0  0  0  0  0  0  0  0  0  0  0
   -0.1582    0.3439   -0.3022 C   0  0  0  0  0  0  0  0  0  0  0  0
   -0.3813   -0.4906   -1.5511 C   0  0  0  0  0  0  0  0  0  0  0  0
    0.5436   -1.5715   -1.6003 O   0  0  0  0  0  0  0  0  0  0  0  0
   -0.9119    1.4831   -0.2851 O   0  0  0  0  0  0  0  0  0  0  0  0
   -1.6275    1.7897    0.8373 C   0  0  0  0  0  0  0  0  0  0  0  0
    3.9503   -1.6163   -1.0760 H   0  0  0  0  0  0  0  0  0  0  0  0
    1.3018    1.0831    1.2010 H   0  0  0  0  0  0  0  0  0  0  0  0
   -0.8427   -0.1159    1.8249 H   0  0  0  0  0  0  0  0  0  0  0  0
   -0.5069   -1.5876    0.8126 H   0  0  0  0  0  0  0  0  0  0  0  0
   -0.5042   -0.0359   -2.4986 H   0  0  0  0  0  0  0  0  0  0  0  0
   -1.4115   -0.9943   -1.3430 H   0  0  0  0  0  0  0  0  0  0  0  0
    0.3152   -2.1044   -0.7612 H   0  0  0  0  0  0  0  0  0  0  0  0
   -2.3894    1.0133    1.1305 H   0  0  0  0  0  0  0  0  0  0  0  0
   -2.2085    2.7475    0.6184 H   0  0  0  0  0  0  0  0  0  0  0  0
   -0.9879    2.0624    1.7335 H   0  0  0  0  0  0  0  0  0  0  0  0
  1  2  3  0
  2  3  1  0
  3  4  1  0
  4  5  1  0
  5  6  1  0
  6  7  1  0
  5  8  1  0
  8  9  1  0
  5  3  1  0
  1 10  1  0
  3 11  1  0
  4 12  1  0
  4 13  1  0
  6 14  1  0
  6 15  1  0
  7 16  1  0
  9 17  1  0
  9 18  1  0
  9 19  1  0
M  END
