
     RDKit          3D

 16 17  0  0  0  0  0  0  0  0999 V2000
    2.6466    1.1000    0.2306 C   0  0  0  0  0  0  0  0  0  0  0  0
    1.7530    0.2913    0.1966 C   0  0  0  0  0  0  0  0  0  0  0  0
    0.6660   -0.6873    0.1802 C   0  0  0  0  0  0  0  0  0  0  0  0
   -0.2538   -0.7970    1.3368 C   0  0  0  0  0  0  0  0  0  0  0  0
   -0.7345   -0.2864    0.0370 C   0  0  0  0  0  0  0  0  0  0  0  0
   -1.1370    1.1617   -0.1343 C   0  0  0  0  0  0  0  0  0  0  0  0
   -0.6439   -1.1274   -1.2119 C   0  0  0  0  0  0  0  0  0  0  0  0
    0.6481   -1.5746   -0.8625 O   0  0  0  0  0  0  0  0  0  0  0  0
    3.4562    1.8115    0.2703 H   0  0  0  0  0  0  0  0  0  0  0  0
   -0.1042   -0.0254    2.1234 H   0  0  0  0  0  0  0  0  0  0  0  0
   -0.5099   -1.8176    1.6843 H   0  0  0  0  0  0  0  0  0  0  0  0
   -0.7177    1.5910   -1.0536 H   0  0  0  0  0  0  0  0  0  0  0  0
   -2.2508    1.1723   -0.1758 H   0  0  0  0  0  0  0  0  0  0  0  0
   -0.8211    1.7196    0.7587 H   0  0  0  0  0  0  0  0  0  0  0  0
   -1.3420   -2.0070   -1.2334 H   0  0  0  0  0  0  0  0  0  0  0  0
   -0.6550   -0.5246   -2.1466 H   0  0  0  0  0  0  0  0  0  0  0  0
  1  2  3  0
  2  3  1  0
  3  4  1  0
  4  5  1  0
  5  6  1  0
  5  7  1  0
  7  8  1  0
  5  3  1  0
  8  3  1  0
  1  9  1  0
  4 10  1  0
  4 11  1  0
  6 12  1  0
  6 13  1  0
  6 14  1  0
  7 15  1  0
  7 16  1  0
M  END
