
     RDKit          3D

 15 14  0  0  0  0  0  0  0  0999 V2000
    3.2856    0.4738    1.3140 C   0  0  0  0  0  0  0  0  0  0  0  0
    2.0916    0.3588    1.1454 C   0  0  0  0  0  0  0  0  0  0  0  0
    0.6424    0.2224    0.9664 C   0  0  0  0  0  0  0  0  0  0  0  0
    0.4036   -0.0706   -0.3706 O   0  0  0  0  0  0  0  0  0  0  0  0
   -0.9709   -0.2015   -0.5470 C   0  0  0  0  0  0  0  0  0  0  0  0
   -1.3289   -1.5002   -1.1459 C   0  0  0  0  0  0  0  0  0  0  0  0
   -0.4657   -2.3070   -1.4236 O   0  0  0  0  0  0  0  0  0  0  0  0
   -1.3991    0.9331   -1.4468 C   0  0  0  0  0  0  0  0  0  0  0  0
   -0.6183    1.7500   -1.8803 O   0  0  0  0  0  0  0  0  0  0  0  0
    4.3368    0.5778    1.4811 H   0  0  0  0  0  0  0  0  0  0  0  0
    0.2237   -0.5736    1.6172 H   0  0  0  0  0  0  0  0  0  0  0  0
    0.1065    1.1570    1.1997 H   0  0  0  0  0  0  0  0  0  0  0  0
   -1.5158   -0.0397    0.4155 H   0  0  0  0  0  0  0  0  0  0  0  0
   -2.3500   -1.7543   -1.3456 H   0  0  0  0  0  0  0  0  0  0  0  0
   -2.4415    0.9741   -1.6814 H   0  0  0  0  0  0  0  0  0  0  0  0
  1  2  3  0
  2  3  1  0
  3  4  1  0
  4  5  1  0
  5  6  1  0
  6  7  2  0
  5  8  1  0
  8  9  2  0
  1 10  1  0
  3 11  1  0
  3 12  1  0
  5 13  1  0
  6 14  1  0
  8 15  1  0
M  END
