
     RDKit          3D

 21 21  0  0  0  0  0  0  0  0999 V2000
    2.6360    1.2288   -1.0307 C   0  0  0  0  0  0  0  0  0  0  0  0
    1.8936    0.5297   -0.3683 C   0  0  0  0  0  0  0  0  0  0  0  0
    0.9969   -0.3011    0.3981 C   0  0  0  0  0  0  0  0  0  0  0  0
    0.8198   -1.6793   -0.2095 C   0  0  0  0  0  0  0  0  0  0  0  0
   -0.5367   -1.2373   -0.7042 C   0  0  0  0  0  0  0  0  0  0  0  0
   -0.4705   -0.0553    0.2161 C   0  0  0  0  0  0  0  0  0  0  0  0
   -1.2295   -0.3292    1.4938 C   0  0  0  0  0  0  0  0  0  0  0  0
   -0.8538    1.2190   -0.4775 C   0  0  0  0  0  0  0  0  0  0  0  0
   -0.4124    2.3591    0.1809 O   0  0  0  0  0  0  0  0  0  0  0  0
    3.2979    1.8427   -1.5993 H   0  0  0  0  0  0  0  0  0  0  0  0
    1.2948   -0.4337    1.4765 H   0  0  0  0  0  0  0  0  0  0  0  0
    0.7105   -2.4990    0.5266 H   0  0  0  0  0  0  0  0  0  0  0  0
    1.5128   -1.9316   -1.0270 H   0  0  0  0  0  0  0  0  0  0  0  0
   -0.5907   -0.9741   -1.7759 H   0  0  0  0  0  0  0  0  0  0  0  0
   -1.3474   -1.9668   -0.4693 H   0  0  0  0  0  0  0  0  0  0  0  0
   -2.3249   -0.3751    1.3205 H   0  0  0  0  0  0  0  0  0  0  0  0
   -0.9798    0.3862    2.3039 H   0  0  0  0  0  0  0  0  0  0  0  0
   -0.8807   -1.3434    1.8451 H   0  0  0  0  0  0  0  0  0  0  0  0
   -0.5435    1.2019   -1.5340 H   0  0  0  0  0  0  0  0  0  0  0  0
   -1.9685    1.2629   -0.4825 H   0  0  0  0  0  0  0  0  0  0  0  0
   -1.0241    3.0955   -0.0834 H   0  0  0  0  0  0  0  0  0  0  0  0
  1  2  3  0
  2  3  1  0
  3  4  1  0
  4  5  1  0
  5  6  1  0
  6  7  1  0
  6  8  1  0
  8  9  1  0
  6  3  1  0
  1 10  1  0
  3 11  1  0
  4 12  1  0
  4 13  1  0
  5 14  1  0
  5 15  1  0
  7 16  1  0
  7 17  1  0
  7 18  1  0
  8 19  1  0
  8 20  1  0
  9 21  1  0
M  END
