
     RDKit          3D

 20 19  0  0  0  0  0  0  0  0999 V2000
    1.5556    1.5121    1.9076 C   0  0  0  0  0  0  0  0  0  0  0  0
    0.4781    1.0869    0.3729 C   0  0  0  0  0  0  0  0  0  0  0  0
   -0.1901    0.8209   -0.5471 C   0  0  0  0  0  0  0  0  0  0  0  0
    0.9073    0.2489   -1.7044 C   0  0  0  0  0  0  0  0  0  0  0  0
    1.7683    1.0732   -2.0149 O   0  0  0  0  0  0  0  0  0  0  0  0
   -0.1127   -0.8872    0.4375 C   0  0  0  0  0  0  0  0  0  0  0  0
   -0.5172   -0.2392    1.7385 C   0  0  0  0  0  0  0  0  0  0  0  0
   -1.3699   -1.4095   -0.2693 C   0  0  0  0  0  0  0  0  0  0  0  0
    2.1542    1.7456    2.7916 H   0  0  0  0  0  0  0  0  0  0  0  0
   -1.1354    0.3533   -0.8494 H   0  0  0  0  0  0  0  0  0  0  0  0
    1.1955   -0.8285   -1.2104 H   0  0  0  0  0  0  0  0  0  0  0  0
    0.3444   -0.0692   -2.5648 H   0  0  0  0  0  0  0  0  0  0  0  0
    1.5843    1.4181   -3.0121 H   0  0  0  0  0  0  0  0  0  0  0  0
    0.7979   -0.9653    0.1661 H   0  0  0  0  0  0  0  0  0  0  0  0
    0.1748   -0.3219    2.5576 H   0  0  0  0  0  0  0  0  0  0  0  0
   -0.5131    0.9061    1.5426 H   0  0  0  0  0  0  0  0  0  0  0  0
   -1.5760   -0.4054    1.9866 H   0  0  0  0  0  0  0  0  0  0  0  0
   -1.3986   -1.3757   -1.4421 H   0  0  0  0  0  0  0  0  0  0  0  0
   -2.0980   -0.5162   -0.0314 H   0  0  0  0  0  0  0  0  0  0  0  0
   -2.0492   -2.1469    0.1448 H   0  0  0  0  0  0  0  0  0  0  0  0
  1  2  3  0
  2  3  1  0
  3  4  1  0
  4  5  1  0
  3  6  1  0
  6  7  1  0
  6  8  1  0
  1  9  1  0
  3 10  1  0
  4 11  1  0
  4 12  1  0
  5 13  1  0
  6 14  1  0
  7 15  1  0
  7 16  1  0
  7 17  1  0
  8 18  1  0
  8 19  1  0
  8 20  1  0
M  END
