
     RDKit          3D

 19 20  0  0  0  0  0  0  0  0999 V2000
    3.2332   -0.1974   -1.5869 C   0  0  0  0  0  0  0  0  0  0  0  0
    2.1382   -0.1599   -1.0234 C   0  0  0  0  0  0  0  0  0  0  0  0
    0.9459   -0.0974   -0.4099 C   0  0  0  0  0  0  0  0  0  0  0  0
   -0.0391   -1.1294   -0.1157 C   0  0  0  0  0  0  0  0  0  0  0  0
   -0.6897    0.1597    0.4747 C   0  0  0  0  0  0  0  0  0  0  0  0
   -1.7842    0.0973    1.2581 C   0  0  0  0  0  0  0  0  0  0  0  0
   -2.9610   -0.3973    0.7738 O   0  0  0  0  0  0  0  0  0  0  0  0
   -0.1818    0.8542   -0.7098 C   0  0  0  0  0  0  0  0  0  0  0  0
    0.7614    0.3980    1.0157 C   0  0  0  0  0  0  0  0  0  0  0  0
    4.1536   -0.2184   -2.0439 H   0  0  0  0  0  0  0  0  0  0  0  0
    0.2507   -1.8236    0.7348 H   0  0  0  0  0  0  0  0  0  0  0  0
   -0.6512   -1.5800   -0.8961 H   0  0  0  0  0  0  0  0  0  0  0  0
   -1.9261    0.8778    2.0102 H   0  0  0  0  0  0  0  0  0  0  0  0
   -1.5435   -0.8176    2.0400 H   0  0  0  0  0  0  0  0  0  0  0  0
   -3.3424    0.1358    0.0230 H   0  0  0  0  0  0  0  0  0  0  0  0
    0.1685    1.9233   -0.5368 H   0  0  0  0  0  0  0  0  0  0  0  0
   -0.5974    0.6888   -1.6973 H   0  0  0  0  0  0  0  0  0  0  0  0
    1.0065    1.4950    1.0992 H   0  0  0  0  0  0  0  0  0  0  0  0
    1.0583   -0.2089    1.8361 H   0  0  0  0  0  0  0  0  0  0  0  0
  1  2  3  0
  2  3  1  0
  3  4  1  0
  4  5  1  0
  5  6  1  0
  6  7  1  0
  5  8  1  0
  5  9  1  0
  8  3  1  0
  9  3  1  0
  1 10  1  0
  4 11  1  0
  4 12  1  0
  6 13  1  0
  6 14  1  0
  7 15  1  0
  8 16  1  0
  8 17  1  0
  9 18  1  0
  9 19  1  0
M  END
