
     RDKit          3D

 19 18  0  0  0  0  0  0  0  0999 V2000
   -3.6103   -2.2165   -0.2851 C   0  0  0  0  0  0  0  0  0  0  0  0
   -2.9391   -1.2888    0.0924 C   0  0  0  0  0  0  0  0  0  0  0  0
   -2.0999   -0.1638    0.5402 C   0  0  0  0  0  0  0  0  0  0  0  0
   -2.6581    0.9860    0.0287 O   0  0  0  0  0  0  0  0  0  0  0  0
   -0.6714   -0.3323    0.1144 C   0  0  0  0  0  0  0  0  0  0  0  0
    0.1018    0.8675    0.6200 C   0  0  0  0  0  0  0  0  0  0  0  0
    1.5106    0.7003    0.1998 C   0  0  0  0  0  0  0  0  0  0  0  0
    2.6577    0.5741   -0.1606 C   0  0  0  0  0  0  0  0  0  0  0  0
    4.0391    0.4100   -0.6187 C   0  0  0  0  0  0  0  0  0  0  0  0
   -4.2119   -3.0490   -0.6043 H   0  0  0  0  0  0  0  0  0  0  0  0
   -2.1307   -0.0724    1.6550 H   0  0  0  0  0  0  0  0  0  0  0  0
   -2.0645    1.3315   -0.6871 H   0  0  0  0  0  0  0  0  0  0  0  0
   -0.2505   -1.2756    0.4619 H   0  0  0  0  0  0  0  0  0  0  0  0
   -0.6121   -0.3057   -0.9984 H   0  0  0  0  0  0  0  0  0  0  0  0
    0.0120    0.9517    1.7229 H   0  0  0  0  0  0  0  0  0  0  0  0
   -0.2869    1.8135    0.1906 H   0  0  0  0  0  0  0  0  0  0  0  0
    4.4224   -0.6067   -0.3348 H   0  0  0  0  0  0  0  0  0  0  0  0
    4.0712    0.4952   -1.7232 H   0  0  0  0  0  0  0  0  0  0  0  0
    4.7205    1.1809   -0.2136 H   0  0  0  0  0  0  0  0  0  0  0  0
  1  2  3  0
  2  3  1  0
  3  4  1  0
  3  5  1  0
  5  6  1  0
  6  7  1  0
  7  8  3  0
  8  9  1  0
  1 10  1  0
  3 11  1  0
  4 12  1  0
  5 13  1  0
  5 14  1  0
  6 15  1  0
  6 16  1  0
  9 17  1  0
  9 18  1  0
  9 19  1  0
M  END
