
     RDKit          3D

 19 18  0  0  0  0  0  0  0  0999 V2000
    4.3813    0.2373    0.3676 C   0  0  0  0  0  0  0  0  0  0  0  0
    3.4168   -0.4308    0.6423 C   0  0  0  0  0  0  0  0  0  0  0  0
    2.2215   -1.2347    0.9966 C   0  0  0  0  0  0  0  0  0  0  0  0
    1.0015   -0.5181    0.5497 C   0  0  0  0  0  0  0  0  0  0  0  0
    0.0144    0.0718    0.1862 C   0  0  0  0  0  0  0  0  0  0  0  0
   -1.1859    0.7983   -0.2360 C   0  0  0  0  0  0  0  0  0  0  0  0
   -2.1530    1.0385    0.8748 C   0  0  0  0  0  0  0  0  0  0  0  0
   -1.8179    0.0274   -1.3689 C   0  0  0  0  0  0  0  0  0  0  0  0
   -2.1875   -1.2528   -1.0285 O   0  0  0  0  0  0  0  0  0  0  0  0
    5.2361    0.8200    0.1425 H   0  0  0  0  0  0  0  0  0  0  0  0
    2.2714   -2.2356    0.5167 H   0  0  0  0  0  0  0  0  0  0  0  0
    2.1774   -1.2650    2.0826 H   0  0  0  0  0  0  0  0  0  0  0  0
   -0.8937    1.7948   -0.6673 H   0  0  0  0  0  0  0  0  0  0  0  0
   -1.8307    0.5666    1.8325 H   0  0  0  0  0  0  0  0  0  0  0  0
   -3.1303    0.5857    0.5874 H   0  0  0  0  0  0  0  0  0  0  0  0
   -2.3634    2.1098    1.0691 H   0  0  0  0  0  0  0  0  0  0  0  0
   -1.0378   -0.0387   -2.1738 H   0  0  0  0  0  0  0  0  0  0  0  0
   -2.6599    0.5923   -1.8084 H   0  0  0  0  0  0  0  0  0  0  0  0
   -1.4602   -1.6669   -0.4947 H   0  0  0  0  0  0  0  0  0  0  0  0
  1  2  3  0
  2  3  1  0
  3  4  1  0
  4  5  3  0
  5  6  1  0
  6  7  1  0
  6  8  1  0
  8  9  1  0
  1 10  1  0
  3 11  1  0
  3 12  1  0
  6 13  1  0
  7 14  1  0
  7 15  1  0
  7 16  1  0
  8 17  1  0
  8 18  1  0
  9 19  1  0
M  END
