
     RDKit          3D

 17 17  0  0  0  0  0  0  0  0999 V2000
    2.4492    1.4233   -0.0690 C   0  0  0  0  0  0  0  0  0  0  0  0
    1.3503    0.9836   -0.2709 C   0  0  0  0  0  0  0  0  0  0  0  0
    0.0492    0.4594   -0.5348 C   0  0  0  0  0  0  0  0  0  0  0  0
    0.0717   -0.9743   -1.0080 C   0  0  0  0  0  0  0  0  0  0  0  0
    0.9660   -1.5984   -1.5064 O   0  0  0  0  0  0  0  0  0  0  0  0
   -1.3377   -1.4018   -0.6810 C   0  0  0  0  0  0  0  0  0  0  0  0
   -1.5648   -0.8355    0.5452 O   0  0  0  0  0  0  0  0  0  0  0  0
   -0.8232    0.3004    0.6850 C   0  0  0  0  0  0  0  0  0  0  0  0
    0.0544    0.2430    1.9320 C   0  0  0  0  0  0  0  0  0  0  0  0
    3.4329    1.8265    0.0958 H   0  0  0  0  0  0  0  0  0  0  0  0
   -0.4760    1.0304   -1.3018 H   0  0  0  0  0  0  0  0  0  0  0  0
   -1.9699   -0.8984   -1.4649 H   0  0  0  0  0  0  0  0  0  0  0  0
   -1.4532   -2.4868   -0.6939 H   0  0  0  0  0  0  0  0  0  0  0  0
   -1.4799    1.2092    0.7432 H   0  0  0  0  0  0  0  0  0  0  0  0
    0.3181    1.2827    2.2506 H   0  0  0  0  0  0  0  0  0  0  0  0
    0.9582   -0.3660    1.7559 H   0  0  0  0  0  0  0  0  0  0  0  0
   -0.5454   -0.1970    2.7637 H   0  0  0  0  0  0  0  0  0  0  0  0
  1  2  3  0
  2  3  1  0
  3  4  1  0
  4  5  2  0
  4  6  1  0
  6  7  1  0
  7  8  1  0
  8  9  1  0
  8  3  1  0
  1 10  1  0
  3 11  1  0
  6 12  1  0
  6 13  1  0
  8 14  1  0
  9 15  1  0
  9 16  1  0
  9 17  1  0
M  END
