
     RDKit          3D

 17 18  0  0  0  0  0  0  0  0999 V2000
    1.4624   -2.2493    0.8974 C   0  0  0  0  0  0  0  0  0  0  0  0
    0.6447   -1.3586    0.6911 C   0  0  0  0  0  0  0  0  0  0  0  0
   -0.3466   -0.3135    0.4552 C   0  0  0  0  0  0  0  0  0  0  0  0
   -1.5842   -0.3660    1.3504 C   0  0  0  0  0  0  0  0  0  0  0  0
   -0.5269    0.1464   -0.9204 C   0  0  0  0  0  0  0  0  0  0  0  0
    0.5729    0.6562   -1.7954 C   0  0  0  0  0  0  0  0  0  0  0  0
    1.3594    1.1692   -0.6356 C   0  0  0  0  0  0  0  0  0  0  0  0
    2.4648    1.5285   -0.3445 O   0  0  0  0  0  0  0  0  0  0  0  0
    0.1113    1.0656    0.1575 C   0  0  0  0  0  0  0  0  0  0  0  0
    2.1681   -3.0132    1.0928 H   0  0  0  0  0  0  0  0  0  0  0  0
   -1.1940   -0.3350    2.4051 H   0  0  0  0  0  0  0  0  0  0  0  0
   -2.2236    0.5055    1.1163 H   0  0  0  0  0  0  0  0  0  0  0  0
   -2.1624   -1.2781    1.1371 H   0  0  0  0  0  0  0  0  0  0  0  0
   -1.5744    0.3960   -1.2206 H   0  0  0  0  0  0  0  0  0  0  0  0
    0.2054    1.5580   -2.3693 H   0  0  0  0  0  0  0  0  0  0  0  0
    1.0813   -0.0617   -2.4493 H   0  0  0  0  0  0  0  0  0  0  0  0
   -0.4583    1.9501    0.4322 H   0  0  0  0  0  0  0  0  0  0  0  0
  1  2  3  0
  2  3  1  0
  3  4  1  0
  3  5  1  0
  5  6  1  0
  6  7  1  0
  7  8  2  0
  7  9  1  0
  9  3  1  0
  9  5  1  0
  1 10  1  0
  4 11  1  0
  4 12  1  0
  4 13  1  0
  5 14  1  0
  6 15  1  0
  6 16  1  0
  9 17  1  0
M  END
