
     RDKit          3D

 19 18  0  0  0  0  0  0  0  0999 V2000
    0.5872    0.6680    2.7172 C   0  0  0  0  0  0  0  0  0  0  0  0
    0.6055    0.0228    1.6986 C   0  0  0  0  0  0  0  0  0  0  0  0
    0.6505   -0.7540    0.4500 C   0  0  0  0  0  0  0  0  0  0  0  0
    1.9086   -0.5298   -0.2612 C   0  0  0  0  0  0  0  0  0  0  0  0
    2.7749    0.1629    0.2225 O   0  0  0  0  0  0  0  0  0  0  0  0
   -0.5789   -0.3658   -0.3389 C   0  0  0  0  0  0  0  0  0  0  0  0
   -0.6843   -1.0803   -1.6572 C   0  0  0  0  0  0  0  0  0  0  0  0
   -0.6506    1.1329   -0.5528 C   0  0  0  0  0  0  0  0  0  0  0  0
   -1.8189    1.3710   -1.2876 O   0  0  0  0  0  0  0  0  0  0  0  0
    0.5895    1.2367    3.6175 H   0  0  0  0  0  0  0  0  0  0  0  0
    0.5648   -1.8293    0.6940 H   0  0  0  0  0  0  0  0  0  0  0  0
    2.0801   -0.9772   -1.2227 H   0  0  0  0  0  0  0  0  0  0  0  0
   -1.4531   -0.6351    0.2777 H   0  0  0  0  0  0  0  0  0  0  0  0
    0.2548   -1.6997   -1.7667 H   0  0  0  0  0  0  0  0  0  0  0  0
   -1.5376   -1.7832   -1.6081 H   0  0  0  0  0  0  0  0  0  0  0  0
   -0.7696   -0.3693   -2.5083 H   0  0  0  0  0  0  0  0  0  0  0  0
    0.2030    1.4270   -1.1925 H   0  0  0  0  0  0  0  0  0  0  0  0
   -0.6042    1.6938    0.3842 H   0  0  0  0  0  0  0  0  0  0  0  0
   -2.1218    2.3085   -1.2115 H   0  0  0  0  0  0  0  0  0  0  0  0
  1  2  3  0
  2  3  1  0
  3  4  1  0
  4  5  2  0
  3  6  1  0
  6  7  1  0
  6  8  1  0
  8  9  1  0
  1 10  1  0
  3 11  1  0
  4 12  1  0
  6 13  1  0
  7 14  1  0
  7 15  1  0
  7 16  1  0
  8 17  1  0
  8 18  1  0
  9 19  1  0
M  END
