
     RDKit          3D

 17 18  0  0  0  0  0  0  0  0999 V2000
    2.5096    2.1131    1.1127 C   0  0  0  0  0  0  0  0  0  0  0  0
    1.7337    1.4604    0.1689 C   0  0  0  0  0  0  0  0  0  0  0  0
    0.9629    0.8433   -0.7524 C   0  0  0  0  0  0  0  0  0  0  0  0
    0.2355   -0.3658   -0.2352 C   0  0  0  0  0  0  0  0  0  0  0  0
    0.9482   -1.4207    0.2644 O   0  0  0  0  0  0  0  0  0  0  0  0
    0.0998   -0.7143    1.1083 C   0  0  0  0  0  0  0  0  0  0  0  0
   -1.3905   -0.8464    0.9765 C   0  0  0  0  0  0  0  0  0  0  0  0
   -1.2205   -0.5011   -0.5220 C   0  0  0  0  0  0  0  0  0  0  0  0
   -1.4331   -1.5659   -1.3842 O   0  0  0  0  0  0  0  0  0  0  0  0
    3.0637    2.5594    1.7642 H   0  0  0  0  0  0  0  0  0  0  0  0
    0.1763    1.4889   -1.2382 H   0  0  0  0  0  0  0  0  0  0  0  0
    1.5796    0.4214   -1.6337 H   0  0  0  0  0  0  0  0  0  0  0  0
    0.5732   -0.2352    1.9898 H   0  0  0  0  0  0  0  0  0  0  0  0
   -1.9317   -0.0613    1.5001 H   0  0  0  0  0  0  0  0  0  0  0  0
   -1.8070   -1.8875    1.0476 H   0  0  0  0  0  0  0  0  0  0  0  0
   -1.7179    0.4616   -0.7719 H   0  0  0  0  0  0  0  0  0  0  0  0
   -2.3818   -1.7500   -1.4239 H   0  0  0  0  0  0  0  0  0  0  0  0
  1  2  3  0
  2  3  1  0
  3  4  1  0
  4  5  1  0
  5  6  1  0
  6  7  1  0
  7  8  1  0
  8  9  1  0
  6  4  1  0
  8  4  1  0
  1 10  1  0
  3 11  1  0
  3 12  1  0
  6 13  1  0
  7 14  1  0
  7 15  1  0
  8 16  1  0
  9 17  1  0
M  END
