
     RDKit          3D

 13 13  0  0  0  0  0  0  0  0999 V2000
   -2.5301   -2.3435   -0.7391 C   0  0  0  0  0  0  0  0  0  0  0  0
   -1.3798   -1.5319   -0.5941 C   0  0  0  0  0  0  0  0  0  0  0  0
   -0.3430   -0.7803   -0.4772 C   0  0  0  0  0  0  0  0  0  0  0  0
   -0.9311    0.5792   -0.4394 O   0  0  0  0  0  0  0  0  0  0  0  0
    0.1409    0.2278    0.4453 C   0  0  0  0  0  0  0  0  0  0  0  0
    1.2891    0.9477    0.2579 C   0  0  0  0  0  0  0  0  0  0  0  0
    2.2561    1.3979   -0.2436 O   0  0  0  0  0  0  0  0  0  0  0  0
    1.5371    1.7345    1.9240 C   0  0  0  0  0  0  0  0  0  0  0  0
    0.5546    1.7432    2.2970 O   0  0  0  0  0  0  0  0  0  0  0  0
   -3.4039   -2.9719   -0.8663 H   0  0  0  0  0  0  0  0  0  0  0  0
    0.4506   -0.9246   -1.3286 H   0  0  0  0  0  0  0  0  0  0  0  0
   -0.2296    0.1241    1.5115 H   0  0  0  0  0  0  0  0  0  0  0  0
    2.5890    1.7978    1.7185 H   0  0  0  0  0  0  0  0  0  0  0  0
  1  2  3  0
  2  3  1  0
  3  4  1  0
  4  5  1  0
  5  6  1  0
  6  7  2  0
  6  8  1  0
  8  9  2  0
  5  3  1  0
  1 10  1  0
  3 11  1  0
  5 12  1  0
  8 13  1  0
M  END
