
     RDKit          3D

 19 20  0  0  0  0  0  0  0  0999 V2000
    3.1487    0.7385   -0.1547 C   0  0  0  0  0  0  0  0  0  0  0  0
    2.2985   -0.0628    0.1497 C   0  0  0  0  0  0  0  0  0  0  0  0
    1.2380   -1.0319    0.5103 C   0  0  0  0  0  0  0  0  0  0  0  0
    0.1013   -0.6275    1.3281 C   0  0  0  0  0  0  0  0  0  0  0  0
   -0.6531    0.6413    1.1503 C   0  0  0  0  0  0  0  0  0  0  0  0
   -0.4564    0.6278   -0.3396 C   0  0  0  0  0  0  0  0  0  0  0  0
   -1.6618    0.8751   -1.1781 C   0  0  0  0  0  0  0  0  0  0  0  0
   -0.0406   -0.8271   -0.2023 C   0  0  0  0  0  0  0  0  0  0  0  0
   -0.8843   -1.8321   -0.5582 O   0  0  0  0  0  0  0  0  0  0  0  0
    3.8837    1.4467   -0.4358 H   0  0  0  0  0  0  0  0  0  0  0  0
    1.5981   -2.0588    0.6007 H   0  0  0  0  0  0  0  0  0  0  0  0
   -0.3641   -1.3895    1.9753 H   0  0  0  0  0  0  0  0  0  0  0  0
   -0.2258    1.5125    1.6903 H   0  0  0  0  0  0  0  0  0  0  0  0
   -1.7444    0.5105    1.4076 H   0  0  0  0  0  0  0  0  0  0  0  0
    0.4599    1.2064   -0.6456 H   0  0  0  0  0  0  0  0  0  0  0  0
   -2.5827    1.0737   -0.6305 H   0  0  0  0  0  0  0  0  0  0  0  0
   -1.7993   -0.0036   -1.8674 H   0  0  0  0  0  0  0  0  0  0  0  0
   -1.4156    1.7285   -1.8715 H   0  0  0  0  0  0  0  0  0  0  0  0
   -0.9000   -2.5277    0.1711 H   0  0  0  0  0  0  0  0  0  0  0  0
  1  2  3  0
  2  3  1  0
  3  4  1  0
  4  5  1  0
  5  6  1  0
  6  7  1  0
  6  8  1  0
  8  9  1  0
  8  3  1  0
  8  4  1  0
  1 10  1  0
  3 11  1  0
  4 12  1  0
  5 13  1  0
  5 14  1  0
  6 15  1  0
  7 16  1  0
  7 17  1  0
  7 18  1  0
  9 19  1  0
M  END
