
     RDKit          3D

 19 19  0  0  0  0  0  0  0  0999 V2000
    1.5547    2.3230    1.4162 C   0  0  0  0  0  0  0  0  0  0  0  0
    0.8346    1.6204    0.7298 C   0  0  0  0  0  0  0  0  0  0  0  0
   -0.0062    0.7693   -0.1018 C   0  0  0  0  0  0  0  0  0  0  0  0
   -1.4453    0.7836    0.3759 C   0  0  0  0  0  0  0  0  0  0  0  0
   -2.1636    0.0398   -0.5373 O   0  0  0  0  0  0  0  0  0  0  0  0
   -1.6840   -1.2151   -0.7773 C   0  0  0  0  0  0  0  0  0  0  0  0
   -0.5294   -1.5872   -0.1913 O   0  0  0  0  0  0  0  0  0  0  0  0
    0.4258   -0.6728    0.0508 C   0  0  0  0  0  0  0  0  0  0  0  0
    1.6642   -0.9589   -0.8016 C   0  0  0  0  0  0  0  0  0  0  0  0
    2.1779    2.9408    2.0142 H   0  0  0  0  0  0  0  0  0  0  0  0
    0.0522    1.0460   -1.1706 H   0  0  0  0  0  0  0  0  0  0  0  0
   -1.5063    0.2789    1.3573 H   0  0  0  0  0  0  0  0  0  0  0  0
   -1.8768    1.8040    0.3857 H   0  0  0  0  0  0  0  0  0  0  0  0
   -2.4845   -1.9443   -0.4560 H   0  0  0  0  0  0  0  0  0  0  0  0
   -1.5988   -1.3451   -1.8775 H   0  0  0  0  0  0  0  0  0  0  0  0
    0.7783   -0.7804    1.1136 H   0  0  0  0  0  0  0  0  0  0  0  0
    1.8115   -2.0548   -0.8489 H   0  0  0  0  0  0  0  0  0  0  0  0
    2.5330   -0.5016   -0.3084 H   0  0  0  0  0  0  0  0  0  0  0  0
    1.4626   -0.5456   -1.8118 H   0  0  0  0  0  0  0  0  0  0  0  0
  1  2  3  0
  2  3  1  0
  3  4  1  0
  4  5  1  0
  5  6  1  0
  6  7  1  0
  7  8  1  0
  8  9  1  0
  8  3  1  0
  1 10  1  0
  3 11  1  0
  4 12  1  0
  4 13  1  0
  6 14  1  0
  6 15  1  0
  8 16  1  0
  9 17  1  0
  9 18  1  0
  9 19  1  0
M  END
