
     RDKit          3D

 21 21  0  0  0  0  0  0  0  0999 V2000
    2.9055    0.1477   -1.6876 C   0  0  0  0  0  0  0  0  0  0  0  0
    1.8585   -0.0720   -1.2786 C   0  0  0  0  0  0  0  0  0  0  0  0
    0.5544   -0.3665   -0.7742 C   0  0  0  0  0  0  0  0  0  0  0  0
    0.7915   -1.0265    0.6284 C   0  0  0  0  0  0  0  0  0  0  0  0
   -0.5569   -1.3462    1.2425 C   0  0  0  0  0  0  0  0  0  0  0  0
   -1.2531   -0.0248    1.5285 C   0  0  0  0  0  0  0  0  0  0  0  0
   -1.5124    0.7146    0.2296 C   0  0  0  0  0  0  0  0  0  0  0  0
   -0.2091    0.9143   -0.5163 C   0  0  0  0  0  0  0  0  0  0  0  0
   -0.4376    1.5908   -1.6743 O   0  0  0  0  0  0  0  0  0  0  0  0
    3.9950    0.3707   -2.0915 H   0  0  0  0  0  0  0  0  0  0  0  0
    0.0290   -1.1077   -1.3238 H   0  0  0  0  0  0  0  0  0  0  0  0
    1.3195   -1.9463    0.4330 H   0  0  0  0  0  0  0  0  0  0  0  0
    1.4063   -0.3652    1.2190 H   0  0  0  0  0  0  0  0  0  0  0  0
   -0.4123   -1.8696    2.1900 H   0  0  0  0  0  0  0  0  0  0  0  0
   -1.1013   -1.9366    0.4670 H   0  0  0  0  0  0  0  0  0  0  0  0
   -0.6024    0.5847    2.1709 H   0  0  0  0  0  0  0  0  0  0  0  0
   -2.2017   -0.2197    2.0218 H   0  0  0  0  0  0  0  0  0  0  0  0
   -1.9022    1.7115    0.4868 H   0  0  0  0  0  0  0  0  0  0  0  0
   -2.2962    0.1851   -0.3370 H   0  0  0  0  0  0  0  0  0  0  0  0
    0.4411    1.5431    0.1899 H   0  0  0  0  0  0  0  0  0  0  0  0
   -0.8156    2.5186   -1.5554 H   0  0  0  0  0  0  0  0  0  0  0  0
  1  2  3  0
  2  3  1  0
  3  4  1  0
  4  5  1  0
  5  6  1  0
  6  7  1  0
  7  8  1  0
  8  9  1  0
  8  3  1  0
  1 10  1  0
  3 11  1  0
  4 12  1  0
  4 13  1  0
  5 14  1  0
  5 15  1  0
  6 16  1  0
  6 17  1  0
  7 18  1  0
  7 19  1  0
  8 20  1  0
  9 21  1  0
M  END
