
     RDKit          3D

 21 22  0  0  0  0  0  0  0  0999 V2000
    2.0235    1.0870   -2.3087 C   0  0  0  0  0  0  0  0  0  0  0  0
    1.4095    0.4703   -1.5084 C   0  0  0  0  0  0  0  0  0  0  0  0
    0.6048   -0.3199   -0.4781 C   0  0  0  0  0  0  0  0  0  0  0  0
    0.0159    0.4376    0.6480 C   0  0  0  0  0  0  0  0  0  0  0  0
   -0.9486    1.5210    0.2801 C   0  0  0  0  0  0  0  0  0  0  0  0
   -1.9219    0.9441    1.2716 C   0  0  0  0  0  0  0  0  0  0  0  0
   -1.0294   -0.2593    1.4222 C   0  0  0  0  0  0  0  0  0  0  0  0
    1.5069   -1.5102    0.0520 C   0  0  0  0  0  0  0  0  0  0  0  0
    0.2755   -1.6724   -0.8431 C   0  0  0  0  0  0  0  0  0  0  0  0
    2.6038    1.6583   -3.0354 H   0  0  0  0  0  0  0  0  0  0  0  0
    0.8437    0.9282    1.2747 H   0  0  0  0  0  0  0  0  0  0  0  0
   -1.3272    1.3091   -0.7737 H   0  0  0  0  0  0  0  0  0  0  0  0
   -0.5849    2.5441    0.4291 H   0  0  0  0  0  0  0  0  0  0  0  0
   -2.0461    1.4800    2.2043 H   0  0  0  0  0  0  0  0  0  0  0  0
   -2.9315    0.6590    0.8026 H   0  0  0  0  0  0  0  0  0  0  0  0
   -1.4808   -1.1012    0.8358 H   0  0  0  0  0  0  0  0  0  0  0  0
   -0.8020   -0.5371    2.4794 H   0  0  0  0  0  0  0  0  0  0  0  0
    1.3677   -1.7652    1.1196 H   0  0  0  0  0  0  0  0  0  0  0  0
    2.5018   -1.5437   -0.4070 H   0  0  0  0  0  0  0  0  0  0  0  0
    0.4600   -2.0372   -1.8874 H   0  0  0  0  0  0  0  0  0  0  0  0
   -0.5405   -2.2925   -0.3698 H   0  0  0  0  0  0  0  0  0  0  0  0
  1  2  3  0
  2  3  1  0
  3  4  1  0
  4  5  1  0
  5  6  1  0
  6  7  1  0
  3  8  1  0
  8  9  1  0
  9  3  1  0
  7  4  1  0
  1 10  1  0
  4 11  1  0
  5 12  1  0
  5 13  1  0
  6 14  1  0
  6 15  1  0
  7 16  1  0
  7 17  1  0
  8 18  1  0
  8 19  1  0
  9 20  1  0
  9 21  1  0
M  END
