
     RDKit          3D

 17 19  0  0  0  0  0  0  0  0999 V2000
    3.5525   -0.7073   -0.8067 C   0  0  0  0  0  0  0  0  0  0  0  0
    2.3669   -0.5328   -0.6689 C   0  0  0  0  0  0  0  0  0  0  0  0
    0.9594   -0.3317   -0.4845 C   0  0  0  0  0  0  0  0  0  0  0  0
    0.1612    0.2605   -1.3512 C   0  0  0  0  0  0  0  0  0  0  0  0
   -1.2273    0.3058   -0.8585 C   0  0  0  0  0  0  0  0  0  0  0  0
   -1.3178    1.3212    0.2750 C   0  0  0  0  0  0  0  0  0  0  0  0
   -0.8611    0.2176    1.2056 C   0  0  0  0  0  0  0  0  0  0  0  0
    0.1452   -0.7516    0.7117 C   0  0  0  0  0  0  0  0  0  0  0  0
   -1.2187   -0.7649    0.1862 C   0  0  0  0  0  0  0  0  0  0  0  0
    4.6113   -0.8529   -0.9454 H   0  0  0  0  0  0  0  0  0  0  0  0
    0.5034    0.6527   -2.2922 H   0  0  0  0  0  0  0  0  0  0  0  0
   -2.0291    0.3187   -1.5824 H   0  0  0  0  0  0  0  0  0  0  0  0
   -2.3589    1.5884    0.5066 H   0  0  0  0  0  0  0  0  0  0  0  0
   -0.6385    2.1612    0.1558 H   0  0  0  0  0  0  0  0  0  0  0  0
   -1.2123    0.2061    2.2411 H   0  0  0  0  0  0  0  0  0  0  0  0
    0.5058   -1.5423    1.3586 H   0  0  0  0  0  0  0  0  0  0  0  0
   -1.9419   -1.5487    0.2586 H   0  0  0  0  0  0  0  0  0  0  0  0
  1  2  3  0
  2  3  1  0
  3  4  2  0
  4  5  1  0
  5  6  1  0
  6  7  1  0
  7  8  1  0
  8  9  1  0
  8  3  1  0
  9  5  1  0
  9  7  1  0
  1 10  1  0
  4 11  1  0
  5 12  1  0
  6 13  1  0
  6 14  1  0
  7 15  1  0
  8 16  1  0
  9 17  1  0
M  END
