
     RDKit          3D

 18 18  0  0  0  0  0  0  0  0999 V2000
    2.7540    0.5481    1.1151 C   0  0  0  0  0  0  0  0  0  0  0  0
    1.7907    0.0758    0.5625 C   0  0  0  0  0  0  0  0  0  0  0  0
    0.6237   -0.5069   -0.1364 C   0  0  0  0  0  0  0  0  0  0  0  0
    0.3223   -1.9435    0.1372 C   0  0  0  0  0  0  0  0  0  0  0  0
    0.4641    0.0135   -1.4139 O   0  0  0  0  0  0  0  0  0  0  0  0
   -0.4700    0.4209   -0.4983 C   0  0  0  0  0  0  0  0  0  0  0  0
   -0.3827    1.8111    0.1041 C   0  0  0  0  0  0  0  0  0  0  0  0
   -1.8698   -0.1023   -0.7249 C   0  0  0  0  0  0  0  0  0  0  0  0
    3.5974    0.9736    1.6189 H   0  0  0  0  0  0  0  0  0  0  0  0
   -0.6998   -2.1603    0.4460 H   0  0  0  0  0  0  0  0  0  0  0  0
    0.9836   -2.2945    0.9799 H   0  0  0  0  0  0  0  0  0  0  0  0
    0.6532   -2.5548   -0.7411 H   0  0  0  0  0  0  0  0  0  0  0  0
   -0.5837    2.5815   -0.6637 H   0  0  0  0  0  0  0  0  0  0  0  0
    0.6202    1.9650    0.5697 H   0  0  0  0  0  0  0  0  0  0  0  0
   -1.1336    1.8822    0.9202 H   0  0  0  0  0  0  0  0  0  0  0  0
   -1.9271   -0.6744   -1.6597 H   0  0  0  0  0  0  0  0  0  0  0  0
   -2.1230   -0.7293    0.1584 H   0  0  0  0  0  0  0  0  0  0  0  0
   -2.6196    0.6944   -0.7742 H   0  0  0  0  0  0  0  0  0  0  0  0
  1  2  3  0
  2  3  1  0
  3  4  1  0
  3  5  1  0
  5  6  1  0
  6  7  1  0
  6  8  1  0
  6  3  1  0
  1  9  1  0
  4 10  1  0
  4 11  1  0
  4 12  1  0
  7 13  1  0
  7 14  1  0
  7 15  1  0
  8 16  1  0
  8 17  1  0
  8 18  1  0
M  END
