
     RDKit          3D

 21 20  0  0  0  0  0  0  0  0999 V2000
   -2.1349   -1.8842    0.6308 C   0  0  0  0  0  0  0  0  0  0  0  0
   -1.6872   -0.7459    0.5659 C   0  0  0  0  0  0  0  0  0  0  0  0
   -1.1448    0.6099    0.5122 C   0  0  0  0  0  0  0  0  0  0  0  0
   -0.1262    0.7513    1.6089 C   0  0  0  0  0  0  0  0  0  0  0  0
   -2.1564    1.5470    0.7394 O   0  0  0  0  0  0  0  0  0  0  0  0
   -0.5769    0.8805   -0.8532 C   0  0  0  0  0  0  0  0  0  0  0  0
    0.5377   -0.0873   -1.1978 C   0  0  0  0  0  0  0  0  0  0  0  0
    1.5262    0.0603   -0.2606 O   0  0  0  0  0  0  0  0  0  0  0  0
    2.6168   -0.7813   -0.4681 C   0  0  0  0  0  0  0  0  0  0  0  0
   -2.5167   -2.8675    0.7045 H   0  0  0  0  0  0  0  0  0  0  0  0
    0.3816   -0.2185    1.8381 H   0  0  0  0  0  0  0  0  0  0  0  0
   -0.6890    1.0261    2.5411 H   0  0  0  0  0  0  0  0  0  0  0  0
    0.6001    1.5589    1.4224 H   0  0  0  0  0  0  0  0  0  0  0  0
   -2.9490    1.1022    1.1361 H   0  0  0  0  0  0  0  0  0  0  0  0
   -0.1932    1.9188   -0.8652 H   0  0  0  0  0  0  0  0  0  0  0  0
   -1.3977    0.8364   -1.5830 H   0  0  0  0  0  0  0  0  0  0  0  0
    0.1829   -1.1048   -1.3618 H   0  0  0  0  0  0  0  0  0  0  0  0
    0.9425    0.2631   -2.1912 H   0  0  0  0  0  0  0  0  0  0  0  0
    3.0134   -0.5047   -1.4895 H   0  0  0  0  0  0  0  0  0  0  0  0
    3.4197   -0.5048    0.2438 H   0  0  0  0  0  0  0  0  0  0  0  0
    2.3510   -1.8556   -0.4124 H   0  0  0  0  0  0  0  0  0  0  0  0
  1  2  3  0
  2  3  1  0
  3  4  1  0
  3  5  1  0
  3  6  1  0
  6  7  1  0
  7  8  1  0
  8  9  1  0
  1 10  1  0
  4 11  1  0
  4 12  1  0
  4 13  1  0
  5 14  1  0
  6 15  1  0
  6 16  1  0
  7 17  1  0
  7 18  1  0
  9 19  1  0
  9 20  1  0
  9 21  1  0
M  END
