
     RDKit          3D

 17 18  0  0  0  0  0  0  0  0999 V2000
    0.7662    1.4276   -2.8516 C   0  0  0  0  0  0  0  0  0  0  0  0
    0.2541    0.5947   -2.1639 C   0  0  0  0  0  0  0  0  0  0  0  0
   -0.3249   -0.3796   -1.3452 C   0  0  0  0  0  0  0  0  0  0  0  0
    0.6609   -1.1832   -0.6440 O   0  0  0  0  0  0  0  0  0  0  0  0
   -0.2417   -1.3345    0.4285 C   0  0  0  0  0  0  0  0  0  0  0  0
    0.3857   -1.1173    1.7634 C   0  0  0  0  0  0  0  0  0  0  0  0
    0.4784    0.1580    1.9888 C   0  0  0  0  0  0  0  0  0  0  0  0
   -0.0718    0.9711    0.8372 C   0  0  0  0  0  0  0  0  0  0  0  0
   -0.8437    0.0097    0.0035 C   0  0  0  0  0  0  0  0  0  0  0  0
    1.2497    2.1950   -3.4852 H   0  0  0  0  0  0  0  0  0  0  0  0
   -1.0144   -1.0860   -1.8925 H   0  0  0  0  0  0  0  0  0  0  0  0
   -0.9292   -2.1673    0.3518 H   0  0  0  0  0  0  0  0  0  0  0  0
    0.7024   -1.9247    2.3930 H   0  0  0  0  0  0  0  0  0  0  0  0
    0.8890    0.6758    2.8751 H   0  0  0  0  0  0  0  0  0  0  0  0
    0.7544    1.4692    0.2783 H   0  0  0  0  0  0  0  0  0  0  0  0
   -0.7655    1.6720    1.3427 H   0  0  0  0  0  0  0  0  0  0  0  0
   -1.9495    0.0195    0.1202 H   0  0  0  0  0  0  0  0  0  0  0  0
  1  2  3  0
  2  3  1  0
  3  4  1  0
  4  5  1  0
  5  6  1  0
  6  7  2  0
  7  8  1  0
  8  9  1  0
  9  3  1  0
  9  5  1  0
  1 10  1  0
  3 11  1  0
  5 12  1  0
  6 13  1  0
  7 14  1  0
  8 15  1  0
  8 16  1  0
  9 17  1  0
M  END
