
     RDKit          3D

 19 19  0  0  0  0  0  0  0  0999 V2000
   -1.2957    2.4198    0.8961 C   0  0  0  0  0  0  0  0  0  0  0  0
   -0.7247    1.3912    0.6106 C   0  0  0  0  0  0  0  0  0  0  0  0
   -0.0339    0.1372    0.2742 C   0  0  0  0  0  0  0  0  0  0  0  0
    1.4382    0.3701    0.1821 C   0  0  0  0  0  0  0  0  0  0  0  0
    2.2490   -0.8252   -0.1532 C   0  0  0  0  0  0  0  0  0  0  0  0
   -0.4182   -0.8975    1.1228 O   0  0  0  0  0  0  0  0  0  0  0  0
   -1.5868   -1.0070    0.3329 C   0  0  0  0  0  0  0  0  0  0  0  0
   -0.7103   -0.5550   -0.8440 C   0  0  0  0  0  0  0  0  0  0  0  0
   -1.3761    0.2078   -1.7760 O   0  0  0  0  0  0  0  0  0  0  0  0
   -1.7984    3.3194    1.1643 H   0  0  0  0  0  0  0  0  0  0  0  0
    1.6014    1.1996   -0.5448 H   0  0  0  0  0  0  0  0  0  0  0  0
    1.7592    0.8014    1.1743 H   0  0  0  0  0  0  0  0  0  0  0  0
    1.6905   -1.7500   -0.2967 H   0  0  0  0  0  0  0  0  0  0  0  0
    2.9192   -0.6336   -1.0424 H   0  0  0  0  0  0  0  0  0  0  0  0
    2.9797   -1.0298    0.6835 H   0  0  0  0  0  0  0  0  0  0  0  0
   -2.3357   -0.2550    0.6191 H   0  0  0  0  0  0  0  0  0  0  0  0
   -1.9070   -2.0471    0.2938 H   0  0  0  0  0  0  0  0  0  0  0  0
   -0.2344   -1.4361   -1.2822 H   0  0  0  0  0  0  0  0  0  0  0  0
   -2.2161    0.5900   -1.4144 H   0  0  0  0  0  0  0  0  0  0  0  0
  1  2  3  0
  2  3  1  0
  3  4  1  0
  4  5  1  0
  3  6  1  0
  6  7  1  0
  7  8  1  0
  8  9  1  0
  8  3  1  0
  1 10  1  0
  4 11  1  0
  4 12  1  0
  5 13  1  0
  5 14  1  0
  5 15  1  0
  7 16  1  0
  7 17  1  0
  8 18  1  0
  9 19  1  0
M  END
