
     RDKit          3D

 21 20  0  0  0  0  0  0  0  0999 V2000
    3.4569    1.6243   -0.3958 C   0  0  0  0  0  0  0  0  0  0  0  0
    2.5195    0.8579   -0.5800 C   0  0  0  0  0  0  0  0  0  0  0  0
    1.3916   -0.0541   -0.7769 C   0  0  0  0  0  0  0  0  0  0  0  0
    1.7763   -1.0595   -1.6523 O   0  0  0  0  0  0  0  0  0  0  0  0
    0.9626   -0.6059    0.5672 C   0  0  0  0  0  0  0  0  0  0  0  0
   -0.2005   -1.5539    0.4168 C   0  0  0  0  0  0  0  0  0  0  0  0
   -1.3161   -0.9679   -0.1460 O   0  0  0  0  0  0  0  0  0  0  0  0
   -1.8159    0.1008    0.5880 C   0  0  0  0  0  0  0  0  0  0  0  0
   -3.0296    0.6281   -0.1501 C   0  0  0  0  0  0  0  0  0  0  0  0
    4.2766    2.2750   -0.2473 H   0  0  0  0  0  0  0  0  0  0  0  0
    0.5448    0.5453   -1.1690 H   0  0  0  0  0  0  0  0  0  0  0  0
    2.5962   -1.4748   -1.2820 H   0  0  0  0  0  0  0  0  0  0  0  0
    0.7067    0.2517    1.2188 H   0  0  0  0  0  0  0  0  0  0  0  0
    1.8474   -1.0936    1.0007 H   0  0  0  0  0  0  0  0  0  0  0  0
   -0.4606   -1.8991    1.4590 H   0  0  0  0  0  0  0  0  0  0  0  0
    0.0763   -2.4136   -0.2239 H   0  0  0  0  0  0  0  0  0  0  0  0
   -2.0746   -0.2851    1.5905 H   0  0  0  0  0  0  0  0  0  0  0  0
   -1.1231    0.9463    0.6874 H   0  0  0  0  0  0  0  0  0  0  0  0
   -3.0015    1.7249   -0.2904 H   0  0  0  0  0  0  0  0  0  0  0  0
   -3.9218    0.4272    0.4894 H   0  0  0  0  0  0  0  0  0  0  0  0
   -3.2113    0.0846   -1.1041 H   0  0  0  0  0  0  0  0  0  0  0  0
  1  2  3  0
  2  3  1  0
  3  4  1  0
  3  5  1  0
  5  6  1  0
  6  7  1  0
  7  8  1  0
  8  9  1  0
  1 10  1  0
  3 11  1  0
  4 12  1  0
  5 13  1  0
  5 14  1  0
  6 15  1  0
  6 16  1  0
  8 17  1  0
  8 18  1  0
  9 19  1  0
  9 20  1  0
  9 21  1  0
M  END
