
     RDKit          3D

 21 20  0  0  0  0  0  0  0  0999 V2000
   -3.7226   -0.8867   -0.0312 C   0  0  0  0  0  0  0  0  0  0  0  0
   -2.6448   -1.0542    0.6118 C   0  0  0  0  0  0  0  0  0  0  0  0
   -1.4381   -1.2506    1.3593 C   0  0  0  0  0  0  0  0  0  0  0  0
   -0.4011   -0.3982    1.2678 O   0  0  0  0  0  0  0  0  0  0  0  0
    0.0293   -0.2800   -0.0306 C   0  0  0  0  0  0  0  0  0  0  0  0
    0.8649   -1.6464   -0.2578 C   0  0  0  0  0  0  0  0  0  0  0  0
    0.9702    0.7635   -0.3711 C   0  0  0  0  0  0  0  0  0  0  0  0
    0.5297    2.0887   -0.1231 O   0  0  0  0  0  0  0  0  0  0  0  0
    1.7214    2.8128   -0.4318 C   0  0  0  0  0  0  0  0  0  0  0  0
   -4.5820   -0.7594   -0.5232 H   0  0  0  0  0  0  0  0  0  0  0  0
   -1.7930   -1.3925    2.4491 H   0  0  0  0  0  0  0  0  0  0  0  0
   -1.1136   -2.3556    1.1482 H   0  0  0  0  0  0  0  0  0  0  0  0
   -0.7998   -0.4533   -0.7308 H   0  0  0  0  0  0  0  0  0  0  0  0
    0.9294   -2.1498    0.7203 H   0  0  0  0  0  0  0  0  0  0  0  0
    0.3155   -2.2196   -1.0097 H   0  0  0  0  0  0  0  0  0  0  0  0
    1.8631   -1.3948   -0.6382 H   0  0  0  0  0  0  0  0  0  0  0  0
    1.2822    0.8083   -1.4650 H   0  0  0  0  0  0  0  0  0  0  0  0
    1.9467    0.7350    0.1822 H   0  0  0  0  0  0  0  0  0  0  0  0
    2.5335    2.3797    0.1916 H   0  0  0  0  0  0  0  0  0  0  0  0
    2.0020    2.7865   -1.4642 H   0  0  0  0  0  0  0  0  0  0  0  0
    1.5073    3.8665   -0.1287 H   0  0  0  0  0  0  0  0  0  0  0  0
  1  2  3  0
  2  3  1  0
  3  4  1  0
  4  5  1  0
  5  6  1  0
  5  7  1  0
  7  8  1  0
  8  9  1  0
  1 10  1  0
  3 11  1  0
  3 12  1  0
  5 13  1  0
  6 14  1  0
  6 15  1  0
  6 16  1  0
  7 17  1  0
  7 18  1  0
  9 19  1  0
  9 20  1  0
  9 21  1  0
M  END
