
     RDKit          3D

 19 18  0  0  0  0  0  0  0  0999 V2000
    4.0673   -0.4919   -1.0978 C   0  0  0  0  0  0  0  0  0  0  0  0
    3.0942   -0.6855   -0.3705 C   0  0  0  0  0  0  0  0  0  0  0  0
    1.9697   -0.9100    0.4855 C   0  0  0  0  0  0  0  0  0  0  0  0
    0.9529    0.0025    0.0870 O   0  0  0  0  0  0  0  0  0  0  0  0
    0.3788   -0.3226   -1.1218 C   0  0  0  0  0  0  0  0  0  0  0  0
   -0.7208    0.7255   -1.3934 C   0  0  0  0  0  0  0  0  0  0  0  0
   -1.6078    0.7084   -0.2932 C   0  0  0  0  0  0  0  0  0  0  0  0
   -2.5107    0.6773    0.8408 C   0  0  0  0  0  0  0  0  0  0  0  0
   -3.2329    0.6588    1.7274 C   0  0  0  0  0  0  0  0  0  0  0  0
    4.9277   -0.3030   -1.7342 H   0  0  0  0  0  0  0  0  0  0  0  0
    2.1362   -0.7273    1.5524 H   0  0  0  0  0  0  0  0  0  0  0  0
    1.5892   -1.9615    0.3621 H   0  0  0  0  0  0  0  0  0  0  0  0
    1.1758   -0.1776   -1.9204 H   0  0  0  0  0  0  0  0  0  0  0  0
   -0.0024   -1.3323   -1.2487 H   0  0  0  0  0  0  0  0  0  0  0  0
   -0.2158    1.7403   -1.4080 H   0  0  0  0  0  0  0  0  0  0  0  0
   -1.2053    0.5510   -2.3797 H   0  0  0  0  0  0  0  0  0  0  0  0
   -2.9294    0.0480    2.7498 H   0  0  0  0  0  0  0  0  0  0  0  0
   -4.3328    0.1490    1.6696 H   0  0  0  0  0  0  0  0  0  0  0  0
   -3.5339    1.6507    2.3531 H   0  0  0  0  0  0  0  0  0  0  0  0
  1  2  3  0
  2  3  1  0
  3  4  1  0
  4  5  1  0
  5  6  1  0
  6  7  1  0
  7  8  3  0
  8  9  1  0
  1 10  1  0
  3 11  1  0
  3 12  1  0
  5 13  1  0
  5 14  1  0
  6 15  1  0
  6 16  1  0
  9 17  1  0
  9 18  1  0
  9 19  1  0
M  END
