
     RDKit          3D

 16 16  0  0  0  0  0  0  0  0999 V2000
    2.7174   -0.3207   -0.6609 C   0  0  0  0  0  0  0  0  0  0  0  0
    1.5634   -0.2757   -0.2815 C   0  0  0  0  0  0  0  0  0  0  0  0
    0.1725   -0.2078    0.1947 C   0  0  0  0  0  0  0  0  0  0  0  0
   -0.4105   -1.5865    0.0909 C   0  0  0  0  0  0  0  0  0  0  0  0
    0.1822    0.1594    1.5279 O   0  0  0  0  0  0  0  0  0  0  0  0
   -0.6376    0.7334   -0.6592 C   0  0  0  0  0  0  0  0  0  0  0  0
   -1.4880    1.7159    0.0938 C   0  0  0  0  0  0  0  0  0  0  0  0
   -0.2785    2.0725   -0.7209 O   0  0  0  0  0  0  0  0  0  0  0  0
    3.7259   -0.3620   -0.9897 H   0  0  0  0  0  0  0  0  0  0  0  0
   -1.0730   -1.8411    0.9638 H   0  0  0  0  0  0  0  0  0  0  0  0
   -1.0803   -1.6879   -0.8123 H   0  0  0  0  0  0  0  0  0  0  0  0
    0.3817   -2.3494    0.0821 H   0  0  0  0  0  0  0  0  0  0  0  0
    0.9052   -0.3765    1.9734 H   0  0  0  0  0  0  0  0  0  0  0  0
   -1.0314    0.3299   -1.6087 H   0  0  0  0  0  0  0  0  0  0  0  0
   -1.2370    1.8742    1.1499 H   0  0  0  0  0  0  0  0  0  0  0  0
   -2.4122    2.1222   -0.3433 H   0  0  0  0  0  0  0  0  0  0  0  0
  1  2  3  0
  2  3  1  0
  3  4  1  0
  3  5  1  0
  3  6  1  0
  6  7  1  0
  7  8  1  0
  8  6  1  0
  1  9  1  0
  4 10  1  0
  4 11  1  0
  4 12  1  0
  5 13  1  0
  6 14  1  0
  7 15  1  0
  7 16  1  0
M  END
