
     RDKit          3D

 19 20  0  0  0  0  0  0  0  0999 V2000
    0.9432   -4.1967    0.7889 C   0  0  0  0  0  0  0  0  0  0  0  0
    0.2782   -3.2054    0.6966 C   0  0  0  0  0  0  0  0  0  0  0  0
   -0.5294   -1.9560    0.5755 C   0  0  0  0  0  0  0  0  0  0  0  0
    0.2810   -0.9228    0.1147 O   0  0  0  0  0  0  0  0  0  0  0  0
   -0.4621    0.2244    0.0262 C   0  0  0  0  0  0  0  0  0  0  0  0
   -0.2439    1.0613   -1.2107 C   0  0  0  0  0  0  0  0  0  0  0  0
    1.1391    1.2604   -0.6671 C   0  0  0  0  0  0  0  0  0  0  0  0
    0.2443    1.4659    0.5291 C   0  0  0  0  0  0  0  0  0  0  0  0
   -0.6508    2.2249   -0.3732 C   0  0  0  0  0  0  0  0  0  0  0  0
    1.5293   -5.0960    0.8596 H   0  0  0  0  0  0  0  0  0  0  0  0
   -1.3668   -2.1902   -0.1114 H   0  0  0  0  0  0  0  0  0  0  0  0
   -0.9695   -1.7340    1.5687 H   0  0  0  0  0  0  0  0  0  0  0  0
   -1.5197    0.2045    0.3088 H   0  0  0  0  0  0  0  0  0  0  0  0
   -0.5089    0.8425   -2.1480 H   0  0  0  0  0  0  0  0  0  0  0  0
    1.6227    2.1699   -1.0606 H   0  0  0  0  0  0  0  0  0  0  0  0
    1.7485    0.3326   -0.6411 H   0  0  0  0  0  0  0  0  0  0  0  0
    0.5160    1.6533    1.4704 H   0  0  0  0  0  0  0  0  0  0  0  0
   -0.3376    3.2197   -0.7373 H   0  0  0  0  0  0  0  0  0  0  0  0
   -1.7135    2.2078    0.0110 H   0  0  0  0  0  0  0  0  0  0  0  0
  1  2  3  0
  2  3  1  0
  3  4  1  0
  4  5  1  0
  5  6  1  0
  6  7  1  0
  7  8  1  0
  8  9  1  0
  8  5  1  0
  9  6  1  0
  1 10  1  0
  3 11  1  0
  3 12  1  0
  5 13  1  0
  6 14  1  0
  7 15  1  0
  7 16  1  0
  8 17  1  0
  9 18  1  0
  9 19  1  0
M  END
