
     RDKit          3D

 19 20  0  0  0  0  0  0  0  0999 V2000
    2.2519   -0.9902    2.4830 C   0  0  0  0  0  0  0  0  0  0  0  0
    1.3637   -0.3120    2.0308 C   0  0  0  0  0  0  0  0  0  0  0  0
    0.2836    0.5182    1.4522 C   0  0  0  0  0  0  0  0  0  0  0  0
   -1.0921   -0.1683    1.3040 C   0  0  0  0  0  0  0  0  0  0  0  0
   -0.2581    0.1010    0.1456 C   0  0  0  0  0  0  0  0  0  0  0  0
    0.4448   -0.8907   -0.6491 C   0  0  0  0  0  0  0  0  0  0  0  0
    0.1267   -0.7573   -1.9299 C   0  0  0  0  0  0  0  0  0  0  0  0
   -0.8503    0.3787   -2.0857 C   0  0  0  0  0  0  0  0  0  0  0  0
   -0.5398    1.1982   -0.8477 C   0  0  0  0  0  0  0  0  0  0  0  0
    3.0408   -1.6001    2.8675 H   0  0  0  0  0  0  0  0  0  0  0  0
    0.2943    1.5919    1.6831 H   0  0  0  0  0  0  0  0  0  0  0  0
   -1.9653    0.5008    1.4736 H   0  0  0  0  0  0  0  0  0  0  0  0
   -1.1250   -1.1994    1.7036 H   0  0  0  0  0  0  0  0  0  0  0  0
    1.1313   -1.6419   -0.2946 H   0  0  0  0  0  0  0  0  0  0  0  0
    0.4847   -1.3457   -2.7676 H   0  0  0  0  0  0  0  0  0  0  0  0
   -1.8903    0.0317   -2.0963 H   0  0  0  0  0  0  0  0  0  0  0  0
   -0.5766    0.9865   -2.9740 H   0  0  0  0  0  0  0  0  0  0  0  0
   -1.4443    1.7302   -0.4956 H   0  0  0  0  0  0  0  0  0  0  0  0
    0.3199    1.8686   -1.0031 H   0  0  0  0  0  0  0  0  0  0  0  0
  1  2  3  0
  2  3  1  0
  3  4  1  0
  4  5  1  0
  5  6  1  0
  6  7  2  0
  7  8  1  0
  8  9  1  0
  5  3  1  0
  9  5  1  0
  1 10  1  0
  3 11  1  0
  4 12  1  0
  4 13  1  0
  6 14  1  0
  7 15  1  0
  8 16  1  0
  8 17  1  0
  9 18  1  0
  9 19  1  0
M  END
