
     RDKit          3D

 14 14  0  0  0  0  0  0  0  0999 V2000
    2.6265   -0.2198   -0.0072 C   0  0  0  0  0  0  0  0  0  0  0  0
    1.4654   -0.5417    0.0386 C   0  0  0  0  0  0  0  0  0  0  0  0
    0.0298   -0.9184    0.1105 C   0  0  0  0  0  0  0  0  0  0  0  0
   -0.6143   -0.2333    1.2420 C   0  0  0  0  0  0  0  0  0  0  0  0
   -1.0560    0.9346    0.8246 C   0  0  0  0  0  0  0  0  0  0  0  0
   -0.7396    1.1035   -0.6018 C   0  0  0  0  0  0  0  0  0  0  0  0
   -0.5991    2.1873   -1.1685 O   0  0  0  0  0  0  0  0  0  0  0  0
   -0.6536   -0.3063   -1.0858 C   0  0  0  0  0  0  0  0  0  0  0  0
    3.6498    0.0553   -0.0640 H   0  0  0  0  0  0  0  0  0  0  0  0
   -0.0683   -2.0174    0.1469 H   0  0  0  0  0  0  0  0  0  0  0  0
   -0.7151   -0.6235    2.2685 H   0  0  0  0  0  0  0  0  0  0  0  0
   -1.5795    1.6475    1.4835 H   0  0  0  0  0  0  0  0  0  0  0  0
   -1.6862   -0.6760   -1.1772 H   0  0  0  0  0  0  0  0  0  0  0  0
   -0.0598   -0.3918   -2.0101 H   0  0  0  0  0  0  0  0  0  0  0  0
  1  2  3  0
  2  3  1  0
  3  4  1  0
  4  5  2  0
  5  6  1  0
  6  7  2  0
  6  8  1  0
  8  3  1  0
  1  9  1  0
  3 10  1  0
  4 11  1  0
  5 12  1  0
  8 13  1  0
  8 14  1  0
M  END
