
     RDKit          3D

 17 17  0  0  0  0  0  0  0  0999 V2000
    2.2750   -0.4571    2.4928 C   0  0  0  0  0  0  0  0  0  0  0  0
    1.7399   -0.5478    1.3949 C   0  0  0  0  0  0  0  0  0  0  0  0
    1.1234   -0.6587    0.0717 C   0  0  0  0  0  0  0  0  0  0  0  0
   -0.3664   -0.7013    0.1772 C   0  0  0  0  0  0  0  0  0  0  0  0
   -1.1040   -0.8160   -1.1390 C   0  0  0  0  0  0  0  0  0  0  0  0
   -1.2454    0.3854   -0.2489 C   0  0  0  0  0  0  0  0  0  0  0  0
   -0.7263    1.7242   -0.7070 C   0  0  0  0  0  0  0  0  0  0  0  0
    2.7525   -0.3876    3.4357 H   0  0  0  0  0  0  0  0  0  0  0  0
    1.5125    0.1276   -0.5809 H   0  0  0  0  0  0  0  0  0  0  0  0
    1.4592   -1.6605   -0.3279 H   0  0  0  0  0  0  0  0  0  0  0  0
   -0.7291   -1.3837    0.9967 H   0  0  0  0  0  0  0  0  0  0  0  0
   -1.9615   -1.5274   -1.2159 H   0  0  0  0  0  0  0  0  0  0  0  0
   -0.5269   -0.7466   -2.0743 H   0  0  0  0  0  0  0  0  0  0  0  0
   -2.2329    0.4552    0.2634 H   0  0  0  0  0  0  0  0  0  0  0  0
    0.2746    1.6839   -1.1352 H   0  0  0  0  0  0  0  0  0  0  0  0
   -1.4173    2.0684   -1.5188 H   0  0  0  0  0  0  0  0  0  0  0  0
   -0.8274    2.4420    0.1157 H   0  0  0  0  0  0  0  0  0  0  0  0
  1  2  3  0
  2  3  1  0
  3  4  1  0
  4  5  1  0
  5  6  1  0
  6  7  1  0
  6  4  1  0
  1  8  1  0
  3  9  1  0
  3 10  1  0
  4 11  1  0
  5 12  1  0
  5 13  1  0
  6 14  1  0
  7 15  1  0
  7 16  1  0
  7 17  1  0
M  END
