
     RDKit          3D

 19 20  0  0  0  0  0  0  0  0999 V2000
    2.0184    2.3350    1.3427 C   0  0  0  0  0  0  0  0  0  0  0  0
    1.0618    1.4482    1.3370 C   0  0  0  0  0  0  0  0  0  0  0  0
    0.1682    0.6212    1.3105 C   0  0  0  0  0  0  0  0  0  0  0  0
   -0.1150   -0.1351    0.1236 C   0  0  0  0  0  0  0  0  0  0  0  0
   -1.2757   -1.1469    0.3678 C   0  0  0  0  0  0  0  0  0  0  0  0
   -1.6004   -1.4539   -0.9411 O   0  0  0  0  0  0  0  0  0  0  0  0
   -0.6378   -0.8750   -1.6704 C   0  0  0  0  0  0  0  0  0  0  0  0
   -0.5884    0.5389   -1.1650 C   0  0  0  0  0  0  0  0  0  0  0  0
    0.6909   -0.9884   -0.7782 C   0  0  0  0  0  0  0  0  0  0  0  0
    3.0048    3.2737    1.3609 H   0  0  0  0  0  0  0  0  0  0  0  0
   -0.7458    0.6952    2.0317 H   0  0  0  0  0  0  0  0  0  0  0  0
    0.5998   -0.3298    2.0951 H   0  0  0  0  0  0  0  0  0  0  0  0
   -2.0396   -0.5393    0.9024 H   0  0  0  0  0  0  0  0  0  0  0  0
   -0.9179   -2.0368    0.9239 H   0  0  0  0  0  0  0  0  0  0  0  0
   -0.4700   -1.1034   -2.7352 H   0  0  0  0  0  0  0  0  0  0  0  0
    0.1118    1.1363   -1.7444 H   0  0  0  0  0  0  0  0  0  0  0  0
   -1.5908    1.0320   -0.9286 H   0  0  0  0  0  0  0  0  0  0  0  0
    0.8346   -2.0221   -0.4848 H   0  0  0  0  0  0  0  0  0  0  0  0
    1.4910   -0.4498   -1.3476 H   0  0  0  0  0  0  0  0  0  0  0  0
  1  2  3  0
  2  3  1  0
  3  4  1  0
  4  5  1  0
  5  6  1  0
  6  7  1  0
  7  8  1  0
  7  9  1  0
  8  4  1  0
  9  4  1  0
  1 10  1  0
  3 11  1  0
  3 12  1  0
  5 13  1  0
  5 14  1  0
  7 15  1  0
  8 16  1  0
  8 17  1  0
  9 18  1  0
  9 19  1  0
M  END
