
     RDKit          3D

 19 20  0  0  0  0  0  0  0  0999 V2000
    2.6601    0.8690    2.0001 C   0  0  0  0  0  0  0  0  0  0  0  0
    2.0768    0.7521    0.9503 C   0  0  0  0  0  0  0  0  0  0  0  0
    1.3636    0.5912   -0.3315 C   0  0  0  0  0  0  0  0  0  0  0  0
    0.3905   -0.5655   -0.1628 C   0  0  0  0  0  0  0  0  0  0  0  0
   -0.4561   -0.7795   -1.3591 C   0  0  0  0  0  0  0  0  0  0  0  0
   -1.7109    0.0273   -1.0420 C   0  0  0  0  0  0  0  0  0  0  0  0
   -1.8827   -0.0377    0.4623 C   0  0  0  0  0  0  0  0  0  0  0  0
   -1.5878   -1.2470    1.0865 O   0  0  0  0  0  0  0  0  0  0  0  0
   -0.5133   -0.3726    0.9904 C   0  0  0  0  0  0  0  0  0  0  0  0
    3.1877    0.9576    2.9268 H   0  0  0  0  0  0  0  0  0  0  0  0
    0.8995    1.5531   -0.5551 H   0  0  0  0  0  0  0  0  0  0  0  0
    2.1088    0.3835   -1.1227 H   0  0  0  0  0  0  0  0  0  0  0  0
    1.0393   -1.4853   -0.0777 H   0  0  0  0  0  0  0  0  0  0  0  0
   -0.7646   -1.8181   -1.4705 H   0  0  0  0  0  0  0  0  0  0  0  0
    0.0459   -0.3447   -2.2626 H   0  0  0  0  0  0  0  0  0  0  0  0
   -1.4879    1.0760   -1.2866 H   0  0  0  0  0  0  0  0  0  0  0  0
   -2.5523   -0.3641   -1.5973 H   0  0  0  0  0  0  0  0  0  0  0  0
   -2.5941    0.5915    0.9776 H   0  0  0  0  0  0  0  0  0  0  0  0
   -0.2227    0.2133    1.8739 H   0  0  0  0  0  0  0  0  0  0  0  0
  1  2  3  0
  2  3  1  0
  3  4  1  0
  4  5  1  0
  5  6  1  0
  6  7  1  0
  7  8  1  0
  8  9  1  0
  9  4  1  0
  9  7  1  0
  1 10  1  0
  3 11  1  0
  3 12  1  0
  4 13  1  0
  5 14  1  0
  5 15  1  0
  6 16  1  0
  6 17  1  0
  7 18  1  0
  9 19  1  0
M  END
