
     RDKit          3D

 17 16  0  0  0  0  0  0  0  0999 V2000
    0.2062    2.5517    0.5074 C   0  0  0  0  0  0  0  0  0  0  0  0
    0.4386    1.3919    0.2323 C   0  0  0  0  0  0  0  0  0  0  0  0
    0.7045   -0.0213   -0.0918 C   0  0  0  0  0  0  0  0  0  0  0  0
   -0.4029   -0.5241   -0.9574 C   0  0  0  0  0  0  0  0  0  0  0  0
   -1.7528   -0.4519   -0.3283 C   0  0  0  0  0  0  0  0  0  0  0  0
   -2.0628    0.8637   -0.0099 O   0  0  0  0  0  0  0  0  0  0  0  0
    0.8913   -0.7693    1.0830 O   0  0  0  0  0  0  0  0  0  0  0  0
    2.1205   -1.3676    1.3178 C   0  0  0  0  0  0  0  0  0  0  0  0
    3.0146   -1.2144    0.4685 O   0  0  0  0  0  0  0  0  0  0  0  0
   -0.0037    3.5690    0.7309 H   0  0  0  0  0  0  0  0  0  0  0  0
    1.6339   -0.0040   -0.7285 H   0  0  0  0  0  0  0  0  0  0  0  0
   -0.4124    0.0510   -1.8911 H   0  0  0  0  0  0  0  0  0  0  0  0
   -0.1920   -1.6048   -1.1702 H   0  0  0  0  0  0  0  0  0  0  0  0
   -2.4936   -0.8185   -1.0752 H   0  0  0  0  0  0  0  0  0  0  0  0
   -1.8754   -1.0507    0.5794 H   0  0  0  0  0  0  0  0  0  0  0  0
   -2.1148    1.3517   -0.8808 H   0  0  0  0  0  0  0  0  0  0  0  0
    2.3009   -1.9524    2.2138 H   0  0  0  0  0  0  0  0  0  0  0  0
  1  2  3  0
  2  3  1  0
  3  4  1  0
  4  5  1  0
  5  6  1  0
  3  7  1  0
  7  8  1  0
  8  9  2  0
  1 10  1  0
  3 11  1  0
  4 12  1  0
  4 13  1  0
  5 14  1  0
  5 15  1  0
  6 16  1  0
  8 17  1  0
M  END
