
     RDKit          3D

 17 18  0  0  0  0  0  0  0  0999 V2000
    2.9972   -1.3740   -0.0600 C   0  0  0  0  0  0  0  0  0  0  0  0
    1.9140   -0.9189    0.2084 C   0  0  0  0  0  0  0  0  0  0  0  0
    0.6067   -0.3537    0.5551 C   0  0  0  0  0  0  0  0  0  0  0  0
   -0.3843   -0.3372   -0.5699 C   0  0  0  0  0  0  0  0  0  0  0  0
   -1.5705   -1.1873   -0.3490 C   0  0  0  0  0  0  0  0  0  0  0  0
   -2.5324   -1.8883   -0.1498 C   0  0  0  0  0  0  0  0  0  0  0  0
   -0.6417    1.1333   -0.4044 C   0  0  0  0  0  0  0  0  0  0  0  0
   -0.6838    1.7776    0.9225 C   0  0  0  0  0  0  0  0  0  0  0  0
    0.5829    1.1596    0.5358 C   0  0  0  0  0  0  0  0  0  0  0  0
    3.9545   -1.7723   -0.3072 H   0  0  0  0  0  0  0  0  0  0  0  0
    0.1911   -0.7237    1.5055 H   0  0  0  0  0  0  0  0  0  0  0  0
    0.1071   -0.6111   -1.5236 H   0  0  0  0  0  0  0  0  0  0  0  0
   -3.3917   -2.5090    0.0212 H   0  0  0  0  0  0  0  0  0  0  0  0
   -0.6073    1.7452   -1.3039 H   0  0  0  0  0  0  0  0  0  0  0  0
   -0.7376    2.8665    0.9382 H   0  0  0  0  0  0  0  0  0  0  0  0
   -1.2433    1.2819    1.7629 H   0  0  0  0  0  0  0  0  0  0  0  0
    1.4391    1.7116    0.1249 H   0  0  0  0  0  0  0  0  0  0  0  0
  1  2  3  0
  2  3  1  0
  3  4  1  0
  4  5  1  0
  5  6  3  0
  4  7  1  0
  7  8  1  0
  8  9  1  0
  9  3  1  0
  9  7  1  0
  1 10  1  0
  3 11  1  0
  4 12  1  0
  6 13  1  0
  7 14  1  0
  8 15  1  0
  8 16  1  0
  9 17  1  0
M  END
