
     RDKit          3D

 17 16  0  0  0  0  0  0  0  0999 V2000
   -3.0999    1.5309    0.9041 C   0  0  0  0  0  0  0  0  0  0  0  0
   -2.1696    1.0529    0.2960 C   0  0  0  0  0  0  0  0  0  0  0  0
   -1.0624    0.4595   -0.4215 C   0  0  0  0  0  0  0  0  0  0  0  0
   -0.2152   -0.4054    0.5204 C   0  0  0  0  0  0  0  0  0  0  0  0
    0.9355   -1.0132   -0.2581 C   0  0  0  0  0  0  0  0  0  0  0  0
    1.8201    0.0301   -0.8582 C   0  0  0  0  0  0  0  0  0  0  0  0
    1.7076   -1.7252    0.6650 O   0  0  0  0  0  0  0  0  0  0  0  0
   -3.9116    1.9388    1.4483 H   0  0  0  0  0  0  0  0  0  0  0  0
   -0.4245    1.2681   -0.8352 H   0  0  0  0  0  0  0  0  0  0  0  0
   -1.3917   -0.1714   -1.2686 H   0  0  0  0  0  0  0  0  0  0  0  0
   -0.8526   -1.1739    0.9861 H   0  0  0  0  0  0  0  0  0  0  0  0
    0.2141    0.2330    1.3213 H   0  0  0  0  0  0  0  0  0  0  0  0
    0.5140   -1.6532   -1.0438 H   0  0  0  0  0  0  0  0  0  0  0  0
    1.8926    0.9336   -0.1988 H   0  0  0  0  0  0  0  0  0  0  0  0
    1.5225    0.3284   -1.8815 H   0  0  0  0  0  0  0  0  0  0  0  0
    2.8477   -0.3897   -0.9190 H   0  0  0  0  0  0  0  0  0  0  0  0
    1.6736   -1.2434    1.5435 H   0  0  0  0  0  0  0  0  0  0  0  0
  1  2  3  0
  2  3  1  0
  3  4  1  0
  4  5  1  0
  5  6  1  0
  5  7  1  0
  1  8  1  0
  3  9  1  0
  3 10  1  0
  4 11  1  0
  4 12  1  0
  5 13  1  0
  6 14  1  0
  6 15  1  0
  6 16  1  0
  7 17  1  0
M  END
