
     RDKit          3D

 23 22  0  0  0  0  0  0  0  0999 V2000
    1.6863    2.7622   -0.3102 C   0  0  0  0  0  0  0  0  0  0  0  0
    1.0675    1.8027   -0.7190 C   0  0  0  0  0  0  0  0  0  0  0  0
    0.3456    0.6635   -1.2261 C   0  0  0  0  0  0  0  0  0  0  0  0
    0.2954   -0.4925   -0.2697 C   0  0  0  0  0  0  0  0  0  0  0  0
    1.7303   -0.9135    0.0069 C   0  0  0  0  0  0  0  0  0  0  0  0
   -0.3744   -1.6436   -0.9783 C   0  0  0  0  0  0  0  0  0  0  0  0
   -0.3333   -0.1544    1.0440 C   0  0  0  0  0  0  0  0  0  0  0  0
   -1.7540    0.3180    0.9345 C   0  0  0  0  0  0  0  0  0  0  0  0
   -2.1830    0.5882    2.2465 O   0  0  0  0  0  0  0  0  0  0  0  0
    2.2438    3.6076    0.0359 H   0  0  0  0  0  0  0  0  0  0  0  0
   -0.6827    0.9586   -1.4937 H   0  0  0  0  0  0  0  0  0  0  0  0
    0.8417    0.3176   -2.1563 H   0  0  0  0  0  0  0  0  0  0  0  0
    2.1983   -1.1056   -0.9789 H   0  0  0  0  0  0  0  0  0  0  0  0
    2.2240   -0.0964    0.5583 H   0  0  0  0  0  0  0  0  0  0  0  0
    1.7150   -1.8108    0.6577 H   0  0  0  0  0  0  0  0  0  0  0  0
    0.3720   -2.0136   -1.7419 H   0  0  0  0  0  0  0  0  0  0  0  0
   -0.6078   -2.4889   -0.3217 H   0  0  0  0  0  0  0  0  0  0  0  0
   -1.2550   -1.2380   -1.5149 H   0  0  0  0  0  0  0  0  0  0  0  0
   -0.3452   -1.0844    1.6555 H   0  0  0  0  0  0  0  0  0  0  0  0
    0.2613    0.6214    1.5288 H   0  0  0  0  0  0  0  0  0  0  0  0
   -2.4210   -0.4636    0.5069 H   0  0  0  0  0  0  0  0  0  0  0  0
   -1.8528    1.2365    0.3278 H   0  0  0  0  0  0  0  0  0  0  0  0
   -3.1719    0.6291    2.2079 H   0  0  0  0  0  0  0  0  0  0  0  0
  1  2  3  0
  2  3  1  0
  3  4  1  0
  4  5  1  0
  4  6  1  0
  4  7  1  0
  7  8  1  0
  8  9  1  0
  1 10  1  0
  3 11  1  0
  3 12  1  0
  5 13  1  0
  5 14  1  0
  5 15  1  0
  6 16  1  0
  6 17  1  0
  6 18  1  0
  7 19  1  0
  7 20  1  0
  8 21  1  0
  8 22  1  0
  9 23  1  0
M  END
