
     RDKit          3D

 21 21  0  0  0  0  0  0  0  0999 V2000
    0.8496    0.4013    3.2923 C   0  0  0  0  0  0  0  0  0  0  0  0
    1.4971   -0.0178    2.3080 C   0  0  0  0  0  0  0  0  0  0  0  0
    2.2548   -0.5167    1.1888 C   0  0  0  0  0  0  0  0  0  0  0  0
    1.3321   -0.9254    0.0545 C   0  0  0  0  0  0  0  0  0  0  0  0
    0.4985    0.2654   -0.4038 C   0  0  0  0  0  0  0  0  0  0  0  0
   -0.4098   -0.1754   -1.5291 C   0  0  0  0  0  0  0  0  0  0  0  0
   -1.3023    0.7925   -0.8136 C   0  0  0  0  0  0  0  0  0  0  0  0
   -2.7377    0.3941   -0.8963 C   0  0  0  0  0  0  0  0  0  0  0  0
   -0.6383    0.4855    0.3846 O   0  0  0  0  0  0  0  0  0  0  0  0
    0.3479    0.7262    4.0748 H   0  0  0  0  0  0  0  0  0  0  0  0
    2.9783    0.1859    0.7851 H   0  0  0  0  0  0  0  0  0  0  0  0
    2.8207   -1.4578    1.4584 H   0  0  0  0  0  0  0  0  0  0  0  0
    0.6644   -1.7271    0.3748 H   0  0  0  0  0  0  0  0  0  0  0  0
    1.9738   -1.1852   -0.8047 H   0  0  0  0  0  0  0  0  0  0  0  0
    1.0498    1.2023   -0.5405 H   0  0  0  0  0  0  0  0  0  0  0  0
   -0.0122    0.1516   -2.5059 H   0  0  0  0  0  0  0  0  0  0  0  0
   -0.7186   -1.2134   -1.4409 H   0  0  0  0  0  0  0  0  0  0  0  0
   -1.1408    1.8248   -1.1643 H   0  0  0  0  0  0  0  0  0  0  0  0
   -2.8428   -0.4602   -1.5949 H   0  0  0  0  0  0  0  0  0  0  0  0
   -3.0579    0.0551    0.1273 H   0  0  0  0  0  0  0  0  0  0  0  0
   -3.4063    1.1944   -1.2784 H   0  0  0  0  0  0  0  0  0  0  0  0
  1  2  3  0
  2  3  1  0
  3  4  1  0
  4  5  1  0
  5  6  1  0
  6  7  1  0
  7  8  1  0
  7  9  1  0
  9  5  1  0
  1 10  1  0
  3 11  1  0
  3 12  1  0
  4 13  1  0
  4 14  1  0
  5 15  1  0
  6 16  1  0
  6 17  1  0
  7 18  1  0
  8 19  1  0
  8 20  1  0
  8 21  1  0
M  END
