
     RDKit          3D

 17 17  0  0  0  0  0  0  0  0999 V2000
    2.9316    0.4638   -0.6138 C   0  0  0  0  0  0  0  0  0  0  0  0
    1.7103    0.4387   -0.6472 C   0  0  0  0  0  0  0  0  0  0  0  0
    0.2623    0.4304   -0.6990 C   0  0  0  0  0  0  0  0  0  0  0  0
   -0.3378    1.5997   -0.0256 C   0  0  0  0  0  0  0  0  0  0  0  0
   -0.0410    2.7739    0.0363 O   0  0  0  0  0  0  0  0  0  0  0  0
   -1.3929    0.6882    0.4898 C   0  0  0  0  0  0  0  0  0  0  0  0
   -0.3880   -0.4299    0.3918 C   0  0  0  0  0  0  0  0  0  0  0  0
   -0.8711   -1.7083   -0.1999 C   0  0  0  0  0  0  0  0  0  0  0  0
    0.4572   -0.5823    1.4769 O   0  0  0  0  0  0  0  0  0  0  0  0
    3.9914    0.4676   -0.5804 H   0  0  0  0  0  0  0  0  0  0  0  0
   -0.1675    0.2679   -1.7048 H   0  0  0  0  0  0  0  0  0  0  0  0
   -1.7465    0.8927    1.5151 H   0  0  0  0  0  0  0  0  0  0  0  0
   -2.1916    0.5480   -0.2672 H   0  0  0  0  0  0  0  0  0  0  0  0
   -1.5493   -2.2735    0.4630 H   0  0  0  0  0  0  0  0  0  0  0  0
    0.0413   -2.3328   -0.4235 H   0  0  0  0  0  0  0  0  0  0  0  0
   -1.3138   -1.4833   -1.1904 H   0  0  0  0  0  0  0  0  0  0  0  0
    0.6055    0.2391    1.9788 H   0  0  0  0  0  0  0  0  0  0  0  0
  1  2  3  0
  2  3  1  0
  3  4  1  0
  4  5  2  0
  4  6  1  0
  6  7  1  0
  7  8  1  0
  7  9  1  0
  7  3  1  0
  1 10  1  0
  3 11  1  0
  6 12  1  0
  6 13  1  0
  8 14  1  0
  8 15  1  0
  8 16  1  0
  9 17  1  0
M  END
