
     RDKit          3D

 15 15  0  0  0  0  0  0  0  0999 V2000
    2.7986    0.6846    1.1611 C   0  0  0  0  0  0  0  0  0  0  0  0
    2.0921   -0.2234    0.8191 C   0  0  0  0  0  0  0  0  0  0  0  0
    1.2448   -1.2949    0.4029 C   0  0  0  0  0  0  0  0  0  0  0  0
    1.7260   -2.4246    0.1936 O   0  0  0  0  0  0  0  0  0  0  0  0
   -0.2110   -0.9867    0.2359 C   0  0  0  0  0  0  0  0  0  0  0  0
   -0.8496   -0.0397    1.1986 C   0  0  0  0  0  0  0  0  0  0  0  0
   -0.5084    0.4466   -0.1581 C   0  0  0  0  0  0  0  0  0  0  0  0
   -1.5414    0.7478   -1.1060 C   0  0  0  0  0  0  0  0  0  0  0  0
   -2.4473    0.9895   -1.9361 C   0  0  0  0  0  0  0  0  0  0  0  0
    3.4176    1.4959    1.4497 H   0  0  0  0  0  0  0  0  0  0  0  0
   -0.8192   -1.8177   -0.1282 H   0  0  0  0  0  0  0  0  0  0  0  0
   -1.8677   -0.2363    1.5398 H   0  0  0  0  0  0  0  0  0  0  0  0
   -0.1829    0.3122    2.0231 H   0  0  0  0  0  0  0  0  0  0  0  0
    0.3656    1.1450   -0.2343 H   0  0  0  0  0  0  0  0  0  0  0  0
   -3.2172    1.2015   -2.6479 H   0  0  0  0  0  0  0  0  0  0  0  0
  1  2  3  0
  2  3  1  0
  3  4  2  0
  3  5  1  0
  5  6  1  0
  6  7  1  0
  7  8  1  0
  8  9  3  0
  7  5  1  0
  1 10  1  0
  5 11  1  0
  6 12  1  0
  6 13  1  0
  7 14  1  0
  9 15  1  0
M  END
