
     RDKit          3D

 19 19  0  0  0  0  0  0  0  0999 V2000
   -2.5218    1.7221   -0.6611 C   0  0  0  0  0  0  0  0  0  0  0  0
   -1.8474    0.7186   -0.6056 C   0  0  0  0  0  0  0  0  0  0  0  0
   -1.0364   -0.4940   -0.5136 C   0  0  0  0  0  0  0  0  0  0  0  0
   -1.5597   -1.4386    0.5224 C   0  0  0  0  0  0  0  0  0  0  0  0
    0.3652   -0.1003   -0.3303 C   0  0  0  0  0  0  0  0  0  0  0  0
    1.2544   -0.4338    0.5937 C   0  0  0  0  0  0  0  0  0  0  0  0
    2.5123    0.2617    0.2847 C   0  0  0  0  0  0  0  0  0  0  0  0
    2.1437    1.3048   -0.5953 O   0  0  0  0  0  0  0  0  0  0  0  0
    1.0510    0.8322   -1.2694 C   0  0  0  0  0  0  0  0  0  0  0  0
   -3.1283    2.5938   -0.7091 H   0  0  0  0  0  0  0  0  0  0  0  0
   -1.1068   -0.9785   -1.5318 H   0  0  0  0  0  0  0  0  0  0  0  0
   -1.4487   -2.4944    0.1456 H   0  0  0  0  0  0  0  0  0  0  0  0
   -2.6582   -1.2718    0.6101 H   0  0  0  0  0  0  0  0  0  0  0  0
   -1.0638   -1.3617    1.4943 H   0  0  0  0  0  0  0  0  0  0  0  0
    1.0462   -1.1006    1.4086 H   0  0  0  0  0  0  0  0  0  0  0  0
    3.2297   -0.3962   -0.2861 H   0  0  0  0  0  0  0  0  0  0  0  0
    3.0536    0.6425    1.1624 H   0  0  0  0  0  0  0  0  0  0  0  0
    0.3975    1.7138   -1.5096 H   0  0  0  0  0  0  0  0  0  0  0  0
    1.3174    0.2805   -2.2008 H   0  0  0  0  0  0  0  0  0  0  0  0
  1  2  3  0
  2  3  1  0
  3  4  1  0
  3  5  1  0
  5  6  2  0
  6  7  1  0
  7  8  1  0
  8  9  1  0
  9  5  1  0
  1 10  1  0
  3 11  1  0
  4 12  1  0
  4 13  1  0
  4 14  1  0
  6 15  1  0
  7 16  1  0
  7 17  1  0
  9 18  1  0
  9 19  1  0
M  END
