
     RDKit          3D

 21 22  0  0  0  0  0  0  0  0999 V2000
   -2.4434    1.5866   -1.0833 C   0  0  0  0  0  0  0  0  0  0  0  0
   -1.6349    0.8671   -0.6084 C   0  0  0  0  0  0  0  0  0  0  0  0
   -0.6611    0.0317   -0.0439 C   0  0  0  0  0  0  0  0  0  0  0  0
   -0.9561   -1.3991    0.2684 C   0  0  0  0  0  0  0  0  0  0  0  0
    0.4108   -1.7995    0.8640 C   0  0  0  0  0  0  0  0  0  0  0  0
    1.1021   -0.4712    0.7822 C   0  0  0  0  0  0  0  0  0  0  0  0
    0.0200    0.4923    1.2376 C   0  0  0  0  0  0  0  0  0  0  0  0
    0.7231   -0.0288   -0.6382 C   0  0  0  0  0  0  0  0  0  0  0  0
    1.3039    1.2596   -1.0963 C   0  0  0  0  0  0  0  0  0  0  0  0
   -3.1917    2.2315   -1.5284 H   0  0  0  0  0  0  0  0  0  0  0  0
   -1.7396   -1.4264    1.0517 H   0  0  0  0  0  0  0  0  0  0  0  0
   -1.2018   -2.0069   -0.6259 H   0  0  0  0  0  0  0  0  0  0  0  0
    0.8380   -2.5462    0.1502 H   0  0  0  0  0  0  0  0  0  0  0  0
    0.2973   -2.2033    1.8824 H   0  0  0  0  0  0  0  0  0  0  0  0
    2.0908   -0.3426    1.1108 H   0  0  0  0  0  0  0  0  0  0  0  0
    0.2980    1.5432    1.2706 H   0  0  0  0  0  0  0  0  0  0  0  0
   -0.5205    0.1959    2.1581 H   0  0  0  0  0  0  0  0  0  0  0  0
    0.8801   -0.8446   -1.3761 H   0  0  0  0  0  0  0  0  0  0  0  0
    0.6597    2.1499   -0.8634 H   0  0  0  0  0  0  0  0  0  0  0  0
    1.4250    1.2177   -2.2137 H   0  0  0  0  0  0  0  0  0  0  0  0
    2.3002    1.4931   -0.6984 H   0  0  0  0  0  0  0  0  0  0  0  0
  1  2  3  0
  2  3  1  0
  3  4  1  0
  4  5  1  0
  5  6  1  0
  6  7  1  0
  6  8  1  0
  8  9  1  0
  7  3  1  0
  8  3  1  0
  1 10  1  0
  4 11  1  0
  4 12  1  0
  5 13  1  0
  5 14  1  0
  6 15  1  0
  7 16  1  0
  7 17  1  0
  8 18  1  0
  9 19  1  0
  9 20  1  0
  9 21  1  0
M  END
