
     RDKit          3D

 22 21  0  0  0  0  0  0  0  0999 V2000
    0.3229    1.0639   -3.0462 C   0  0  0  0  0  0  0  0  0  0  0  0
    0.0910    0.1275   -2.3925 C   0  0  0  0  0  0  0  0  0  0  0  0
   -0.1547   -0.9098   -1.6622 C   0  0  0  0  0  0  0  0  0  0  0  0
    0.2968   -1.0607   -0.2275 C   0  0  0  0  0  0  0  0  0  0  0  0
    1.8456   -1.0157   -0.3251 C   0  0  0  0  0  0  0  0  0  0  0  0
   -0.2984   -0.2458    0.7936 C   0  0  0  0  0  0  0  0  0  0  0  0
   -0.2951    1.1282    1.2246 C   0  0  0  0  0  0  0  0  0  0  0  0
   -1.3086    1.1986    2.4234 C   0  0  0  0  0  0  0  0  0  0  0  0
    0.6101    2.1681   -3.8119 H   0  0  0  0  0  0  0  0  0  0  0  0
   -1.2646   -1.2669   -1.6889 H   0  0  0  0  0  0  0  0  0  0  0  0
    0.3270   -1.9160   -2.1466 H   0  0  0  0  0  0  0  0  0  0  0  0
    0.1443   -2.1316    0.0208 H   0  0  0  0  0  0  0  0  0  0  0  0
    2.0620   -0.1031   -0.8414 H   0  0  0  0  0  0  0  0  0  0  0  0
    2.2887   -1.0681    0.6876 H   0  0  0  0  0  0  0  0  0  0  0  0
    2.1954   -1.8358   -0.9836 H   0  0  0  0  0  0  0  0  0  0  0  0
   -0.7745   -0.9359    1.5422 H   0  0  0  0  0  0  0  0  0  0  0  0
   -1.4029   -0.1012    0.1308 H   0  0  0  0  0  0  0  0  0  0  0  0
   -0.6241    1.9389    0.6095 H   0  0  0  0  0  0  0  0  0  0  0  0
    0.6579    1.4697    1.7301 H   0  0  0  0  0  0  0  0  0  0  0  0
   -0.8035    0.9064    3.3329 H   0  0  0  0  0  0  0  0  0  0  0  0
   -2.1052    0.4407    2.1622 H   0  0  0  0  0  0  0  0  0  0  0  0
   -1.8102    2.1486    2.4679 H   0  0  0  0  0  0  0  0  0  0  0  0
  1  2  3  0
  2  3  1  0
  3  4  1  0
  4  5  1  0
  4  6  1  0
  6  7  1  0
  7  8  1  0
  1  9  1  0
  3 10  1  0
  3 11  1  0
  4 12  1  0
  5 13  1  0
  5 14  1  0
  5 15  1  0
  6 16  1  0
  6 17  1  0
  7 18  1  0
  7 19  1  0
  8 20  1  0
  8 21  1  0
  8 22  1  0
M  END
