
     RDKit          3D

 17 17  0  0  0  0  0  0  0  0999 V2000
   -0.7117    2.2955   -3.1218 C   0  0  0  0  0  0  0  0  0  0  0  0
   -0.6947    1.2287   -2.5012 C   0  0  0  0  0  0  0  0  0  0  0  0
   -0.6615   -0.0179   -1.7510 C   0  0  0  0  0  0  0  0  0  0  0  0
   -0.0630    0.2816   -0.3967 C   0  0  0  0  0  0  0  0  0  0  0  0
    0.0256   -0.9333    0.4590 C   0  0  0  0  0  0  0  0  0  0  0  0
   -0.3549   -2.0292    0.0808 O   0  0  0  0  0  0  0  0  0  0  0  0
    0.5931   -0.7898    1.8014 C   0  0  0  0  0  0  0  0  0  0  0  0
    0.9601   -1.8717    2.6602 C   0  0  0  0  0  0  0  0  0  0  0  0
   -0.3177   -1.2836    2.8673 O   0  0  0  0  0  0  0  0  0  0  0  0
   -0.7309    3.2292   -3.6475 H   0  0  0  0  0  0  0  0  0  0  0  0
   -0.1310   -0.8153   -2.2837 H   0  0  0  0  0  0  0  0  0  0  0  0
   -1.7271   -0.3353   -1.6174 H   0  0  0  0  0  0  0  0  0  0  0  0
    0.9679    0.6628   -0.5261 H   0  0  0  0  0  0  0  0  0  0  0  0
   -0.6340    1.0577    0.1112 H   0  0  0  0  0  0  0  0  0  0  0  0
    0.9069    0.2294    2.0796 H   0  0  0  0  0  0  0  0  0  0  0  0
    0.8772   -2.9189    2.3093 H   0  0  0  0  0  0  0  0  0  0  0  0
    1.6957   -1.6662    3.4766 H   0  0  0  0  0  0  0  0  0  0  0  0
  1  2  3  0
  2  3  1  0
  3  4  1  0
  4  5  1  0
  5  6  2  0
  5  7  1  0
  7  8  1  0
  8  9  1  0
  9  7  1  0
  1 10  1  0
  3 11  1  0
  3 12  1  0
  4 13  1  0
  4 14  1  0
  7 15  1  0
  8 16  1  0
  8 17  1  0
M  END
