
     RDKit          3D

 19 19  0  0  0  0  0  0  0  0999 V2000
    3.4729   -1.4579   -0.7634 C   0  0  0  0  0  0  0  0  0  0  0  0
    2.4035   -0.9949   -0.4844 C   0  0  0  0  0  0  0  0  0  0  0  0
    1.0914   -0.4297   -0.1683 C   0  0  0  0  0  0  0  0  0  0  0  0
    0.4329   -0.9066    0.8694 C   0  0  0  0  0  0  0  0  0  0  0  0
   -0.8895   -0.4687    1.3409 C   0  0  0  0  0  0  0  0  0  0  0  0
   -1.5912    0.4416    0.3715 C   0  0  0  0  0  0  0  0  0  0  0  0
   -2.4304   -0.2836   -0.4857 O   0  0  0  0  0  0  0  0  0  0  0  0
   -0.6493    1.3323   -0.3782 C   0  0  0  0  0  0  0  0  0  0  0  0
    0.5174    0.6523   -0.9939 C   0  0  0  0  0  0  0  0  0  0  0  0
    4.4399   -1.8589   -1.0238 H   0  0  0  0  0  0  0  0  0  0  0  0
    0.9088   -1.7045    1.4423 H   0  0  0  0  0  0  0  0  0  0  0  0
   -0.7297    0.1108    2.2967 H   0  0  0  0  0  0  0  0  0  0  0  0
   -1.5125   -1.3412    1.5595 H   0  0  0  0  0  0  0  0  0  0  0  0
   -2.2572    1.0986    0.9735 H   0  0  0  0  0  0  0  0  0  0  0  0
   -3.3469    0.1025   -0.5162 H   0  0  0  0  0  0  0  0  0  0  0  0
   -0.3044    2.1553    0.3121 H   0  0  0  0  0  0  0  0  0  0  0  0
   -1.2406    1.7905   -1.2261 H   0  0  0  0  0  0  0  0  0  0  0  0
    1.3394    1.4248   -1.0777 H   0  0  0  0  0  0  0  0  0  0  0  0
    0.3454    0.3372   -2.0480 H   0  0  0  0  0  0  0  0  0  0  0  0
  1  2  3  0
  2  3  1  0
  3  4  2  0
  4  5  1  0
  5  6  1  0
  6  7  1  0
  6  8  1  0
  8  9  1  0
  9  3  1  0
  1 10  1  0
  4 11  1  0
  5 12  1  0
  5 13  1  0
  6 14  1  0
  7 15  1  0
  8 16  1  0
  8 17  1  0
  9 18  1  0
  9 19  1  0
M  END
