
     RDKit          3D

 19 19  0  0  0  0  0  0  0  0999 V2000
    0.1462    3.0930    0.4107 C   0  0  0  0  0  0  0  0  0  0  0  0
    0.3747    1.9122    0.4300 C   0  0  0  0  0  0  0  0  0  0  0  0
    0.6574    0.5051    0.4759 C   0  0  0  0  0  0  0  0  0  0  0  0
    1.6498   -0.0250   -0.5096 C   0  0  0  0  0  0  0  0  0  0  0  0
    2.9133   -0.3105   -0.0028 O   0  0  0  0  0  0  0  0  0  0  0  0
    0.7745   -1.2699   -0.5823 C   0  0  0  0  0  0  0  0  0  0  0  0
   -0.3899   -0.3612   -0.2207 C   0  0  0  0  0  0  0  0  0  0  0  0
   -1.2637   -0.9517    0.6859 O   0  0  0  0  0  0  0  0  0  0  0  0
   -2.5852   -0.8233    0.3208 C   0  0  0  0  0  0  0  0  0  0  0  0
   -0.0507    4.1503    0.4107 H   0  0  0  0  0  0  0  0  0  0  0  0
    0.7997    0.1178    1.5209 H   0  0  0  0  0  0  0  0  0  0  0  0
    1.6519    0.5646   -1.4409 H   0  0  0  0  0  0  0  0  0  0  0  0
    3.4690   -0.6341   -0.7522 H   0  0  0  0  0  0  0  0  0  0  0  0
    0.7144   -1.7223   -1.5878 H   0  0  0  0  0  0  0  0  0  0  0  0
    0.9589   -1.9624    0.2460 H   0  0  0  0  0  0  0  0  0  0  0  0
   -0.8544    0.1188   -1.0878 H   0  0  0  0  0  0  0  0  0  0  0  0
   -2.8310   -1.2804   -0.6555 H   0  0  0  0  0  0  0  0  0  0  0  0
   -3.1915   -1.3648    1.0778 H   0  0  0  0  0  0  0  0  0  0  0  0
   -2.9435    0.2437    0.3729 H   0  0  0  0  0  0  0  0  0  0  0  0
  1  2  3  0
  2  3  1  0
  3  4  1  0
  4  5  1  0
  4  6  1  0
  6  7  1  0
  7  8  1  0
  8  9  1  0
  7  3  1  0
  1 10  1  0
  3 11  1  0
  4 12  1  0
  5 13  1  0
  6 14  1  0
  6 15  1  0
  7 16  1  0
  9 17  1  0
  9 18  1  0
  9 19  1  0
M  END
