
     RDKit          3D

 21 21  0  0  0  0  0  0  0  0999 V2000
    3.8095   -0.3341    0.0171 C   0  0  0  0  0  0  0  0  0  0  0  0
    2.6704   -0.7401   -0.0953 C   0  0  0  0  0  0  0  0  0  0  0  0
    1.2937   -1.2297   -0.2485 C   0  0  0  0  0  0  0  0  0  0  0  0
    0.3712   -0.0821   -0.6096 C   0  0  0  0  0  0  0  0  0  0  0  0
   -1.0808   -0.4895   -0.7902 C   0  0  0  0  0  0  0  0  0  0  0  0
   -1.7699    0.1513   -1.9951 C   0  0  0  0  0  0  0  0  0  0  0  0
   -0.6650    0.3860    0.3317 C   0  0  0  0  0  0  0  0  0  0  0  0
   -0.5896   -0.0999    1.6281 O   0  0  0  0  0  0  0  0  0  0  0  0
   -0.8996    0.9284    2.4991 C   0  0  0  0  0  0  0  0  0  0  0  0
    4.8171    0.0164    0.1328 H   0  0  0  0  0  0  0  0  0  0  0  0
    1.3067   -2.0281   -1.0169 H   0  0  0  0  0  0  0  0  0  0  0  0
    0.9533   -1.7030    0.6973 H   0  0  0  0  0  0  0  0  0  0  0  0
    0.8249    0.6276   -1.3246 H   0  0  0  0  0  0  0  0  0  0  0  0
   -1.3535   -1.5514   -0.6483 H   0  0  0  0  0  0  0  0  0  0  0  0
   -2.0066   -0.6242   -2.7460 H   0  0  0  0  0  0  0  0  0  0  0  0
   -2.6827    0.6608   -1.6502 H   0  0  0  0  0  0  0  0  0  0  0  0
   -1.1127    0.9164   -2.4549 H   0  0  0  0  0  0  0  0  0  0  0  0
   -0.9491    1.4707    0.1989 H   0  0  0  0  0  0  0  0  0  0  0  0
   -0.1492    1.7525    2.3360 H   0  0  0  0  0  0  0  0  0  0  0  0
   -1.8797    1.3503    2.1848 H   0  0  0  0  0  0  0  0  0  0  0  0
   -0.9084    0.6219    3.5539 H   0  0  0  0  0  0  0  0  0  0  0  0
  1  2  3  0
  2  3  1  0
  3  4  1  0
  4  5  1  0
  5  6  1  0
  5  7  1  0
  7  8  1  0
  8  9  1  0
  7  4  1  0
  1 10  1  0
  3 11  1  0
  3 12  1  0
  4 13  1  0
  5 14  1  0
  6 15  1  0
  6 16  1  0
  6 17  1  0
  7 18  1  0
  9 19  1  0
  9 20  1  0
  9 21  1  0
M  END
