
     RDKit          3D

 17 16  0  0  0  0  0  0  0  0999 V2000
    0.7358    2.3653   -1.1184 C   0  0  0  0  0  0  0  0  0  0  0  0
   -0.1780    1.5287   -1.1737 C   0  0  0  0  0  0  0  0  0  0  0  0
   -1.2591    0.5185   -1.2393 C   0  0  0  0  0  0  0  0  0  0  0  0
   -1.4253   -0.0036    0.1531 C   0  0  0  0  0  0  0  0  0  0  0  0
   -2.4704   -0.9583    0.1227 O   0  0  0  0  0  0  0  0  0  0  0  0
   -0.2277   -0.6630    0.6662 C   0  0  0  0  0  0  0  0  0  0  0  0
   -0.2489   -1.8853    1.0958 O   0  0  0  0  0  0  0  0  0  0  0  0
    1.0358   -0.1008    0.7635 O   0  0  0  0  0  0  0  0  0  0  0  0
    2.1371   -0.8041    1.2607 C   0  0  0  0  0  0  0  0  0  0  0  0
    1.4739    3.0485   -1.0818 H   0  0  0  0  0  0  0  0  0  0  0  0
   -0.9586   -0.2217   -1.9931 H   0  0  0  0  0  0  0  0  0  0  0  0
   -2.2153    0.9857   -1.5373 H   0  0  0  0  0  0  0  0  0  0  0  0
   -1.7551    0.8499    0.7729 H   0  0  0  0  0  0  0  0  0  0  0  0
   -2.1028   -1.7219   -0.4191 H   0  0  0  0  0  0  0  0  0  0  0  0
    2.8748   -0.1332    1.7958 H   0  0  0  0  0  0  0  0  0  0  0  0
    2.7129   -1.1352    0.3569 H   0  0  0  0  0  0  0  0  0  0  0  0
    1.8708   -1.6694    1.8697 H   0  0  0  0  0  0  0  0  0  0  0  0
  1  2  3  0
  2  3  1  0
  3  4  1  0
  4  5  1  0
  4  6  1  0
  6  7  2  0
  6  8  1  0
  8  9  1  0
  1 10  1  0
  3 11  1  0
  3 12  1  0
  4 13  1  0
  5 14  1  0
  9 15  1  0
  9 16  1  0
  9 17  1  0
M  END
