
     RDKit          3D

 15 15  0  0  0  0  0  0  0  0999 V2000
   -1.9326    0.2874    2.4286 C   0  0  0  0  0  0  0  0  0  0  0  0
   -1.3864    0.1966    1.6185 C   0  0  0  0  0  0  0  0  0  0  0  0
   -0.5819    0.0650    0.4692 C   0  0  0  0  0  0  0  0  0  0  0  0
    0.9612    0.0318    0.7729 C   0  0  0  0  0  0  0  0  0  0  0  0
    1.7218   -0.1515   -0.5234 C   0  0  0  0  0  0  0  0  0  0  0  0
   -1.0360   -0.3544   -0.8342 C   0  0  0  0  0  0  0  0  0  0  0  0
   -0.7939    1.0689   -0.5567 O   0  0  0  0  0  0  0  0  0  0  0  0
   -2.6798    0.3967    3.5629 H   0  0  0  0  0  0  0  0  0  0  0  0
    1.2066    1.0201    1.2272 H   0  0  0  0  0  0  0  0  0  0  0  0
    1.1358   -0.7935    1.4405 H   0  0  0  0  0  0  0  0  0  0  0  0
    1.2835    0.5595   -1.2459 H   0  0  0  0  0  0  0  0  0  0  0  0
    1.6941   -1.2058   -0.8184 H   0  0  0  0  0  0  0  0  0  0  0  0
    2.7632    0.1593   -0.3635 H   0  0  0  0  0  0  0  0  0  0  0  0
   -2.0873   -0.5457   -1.0899 H   0  0  0  0  0  0  0  0  0  0  0  0
   -0.2682   -0.7344   -1.6022 H   0  0  0  0  0  0  0  0  0  0  0  0
  1  2  3  0
  2  3  1  0
  3  4  1  0
  4  5  1  0
  3  6  1  0
  6  7  1  0
  7  3  1  0
  1  8  1  0
  4  9  1  0
  4 10  1  0
  5 11  1  0
  5 12  1  0
  5 13  1  0
  6 14  1  0
  6 15  1  0
M  END
