
     RDKit          3D

 21 20  0  0  0  0  0  0  0  0999 V2000
   -2.4259    1.6541   -0.2277 C   0  0  0  0  0  0  0  0  0  0  0  0
   -1.7928    0.6857    0.1106 C   0  0  0  0  0  0  0  0  0  0  0  0
   -1.0173   -0.5005    0.5519 C   0  0  0  0  0  0  0  0  0  0  0  0
   -2.0561   -1.6329    0.6180 C   0  0  0  0  0  0  0  0  0  0  0  0
   -0.4387   -0.2689    1.7624 O   0  0  0  0  0  0  0  0  0  0  0  0
   -0.0517   -0.8744   -0.5073 C   0  0  0  0  0  0  0  0  0  0  0  0
    0.9124   -0.0038   -0.8677 O   0  0  0  0  0  0  0  0  0  0  0  0
    1.7921    0.3723    0.0911 C   0  0  0  0  0  0  0  0  0  0  0  0
    2.8665    1.3202   -0.4420 C   0  0  0  0  0  0  0  0  0  0  0  0
   -2.9845    2.5027   -0.5434 H   0  0  0  0  0  0  0  0  0  0  0  0
   -1.7279   -2.3452    1.4111 H   0  0  0  0  0  0  0  0  0  0  0  0
   -2.0712   -2.2018   -0.3368 H   0  0  0  0  0  0  0  0  0  0  0  0
   -3.0666   -1.2279    0.7902 H   0  0  0  0  0  0  0  0  0  0  0  0
   -0.8501    0.5314    2.1896 H   0  0  0  0  0  0  0  0  0  0  0  0
   -0.6359   -1.2787   -1.3891 H   0  0  0  0  0  0  0  0  0  0  0  0
    0.4662   -1.8188   -0.1281 H   0  0  0  0  0  0  0  0  0  0  0  0
    1.3106    0.8709    0.9848 H   0  0  0  0  0  0  0  0  0  0  0  0
    2.3248   -0.5122    0.4893 H   0  0  0  0  0  0  0  0  0  0  0  0
    3.3553    1.8307    0.4146 H   0  0  0  0  0  0  0  0  0  0  0  0
    2.4253    2.1276   -1.0658 H   0  0  0  0  0  0  0  0  0  0  0  0
    3.6654    0.7694   -0.9755 H   0  0  0  0  0  0  0  0  0  0  0  0
  1  2  3  0
  2  3  1  0
  3  4  1  0
  3  5  1  0
  3  6  1  0
  6  7  1  0
  7  8  1  0
  8  9  1  0
  1 10  1  0
  4 11  1  0
  4 12  1  0
  4 13  1  0
  5 14  1  0
  6 15  1  0
  6 16  1  0
  8 17  1  0
  8 18  1  0
  9 19  1  0
  9 20  1  0
  9 21  1  0
M  END
