
     RDKit          3D

 10  9  0  0  0  0  0  0  0  0999 V2000
    4.2752   -1.2749   -0.6005 C   0  0  0  0  0  0  0  0  0  0  0  0
    3.1396   -0.9006   -0.4424 C   0  0  0  0  0  0  0  0  0  0  0  0
    1.8043   -0.4627   -0.2590 C   0  0  0  0  0  0  0  0  0  0  0  0
    0.6602   -0.0739   -0.0978 C   0  0  0  0  0  0  0  0  0  0  0  0
   -0.6629    0.3872    0.0957 C   0  0  0  0  0  0  0  0  0  0  0  0
   -1.8062    0.7817    0.2501 C   0  0  0  0  0  0  0  0  0  0  0  0
   -3.1371    1.2217    0.4408 C   0  0  0  0  0  0  0  0  0  0  0  0
   -4.2789    1.6086    0.6129 C   0  0  0  0  0  0  0  0  0  0  0  0
    5.2845   -1.6243   -0.7455 H   0  0  0  0  0  0  0  0  0  0  0  0
   -5.2787    1.9408    0.7458 H   0  0  0  0  0  0  0  0  0  0  0  0
  1  2  3  0
  2  3  1  0
  3  4  3  0
  4  5  1  0
  5  6  3  0
  6  7  1  0
  7  8  3  0
  1  9  1  0
  8 10  1  0
M  END
