
     RDKit          3D

 15 14  0  0  0  0  0  0  0  0999 V2000
    3.0968   -0.5469   -1.3858 C   0  0  0  0  0  0  0  0  0  0  0  0
    2.1561    0.0289   -0.8621 C   0  0  0  0  0  0  0  0  0  0  0  0
    1.0350    0.7016   -0.2164 C   0  0  0  0  0  0  0  0  0  0  0  0
   -0.1566   -0.2292   -0.0528 C   0  0  0  0  0  0  0  0  0  0  0  0
   -1.2471    0.5736    0.6223 C   0  0  0  0  0  0  0  0  0  0  0  0
   -2.4708   -0.1998    0.8484 C   0  0  0  0  0  0  0  0  0  0  0  0
   -2.5216   -1.3616    0.4993 O   0  0  0  0  0  0  0  0  0  0  0  0
    3.9108   -1.0506   -1.8208 H   0  0  0  0  0  0  0  0  0  0  0  0
    1.2925    1.0648    0.7997 H   0  0  0  0  0  0  0  0  0  0  0  0
    0.7382    1.5546   -0.8479 H   0  0  0  0  0  0  0  0  0  0  0  0
    0.2004   -1.0504    0.6297 H   0  0  0  0  0  0  0  0  0  0  0  0
   -0.4518   -0.6082   -1.0390 H   0  0  0  0  0  0  0  0  0  0  0  0
   -0.8027    0.9823    1.5553 H   0  0  0  0  0  0  0  0  0  0  0  0
   -1.4639    1.4448   -0.0533 H   0  0  0  0  0  0  0  0  0  0  0  0
   -3.3153    0.2719    1.3234 H   0  0  0  0  0  0  0  0  0  0  0  0
  1  2  3  0
  2  3  1  0
  3  4  1  0
  4  5  1  0
  5  6  1  0
  6  7  2  0
  1  8  1  0
  3  9  1  0
  3 10  1  0
  4 11  1  0
  4 12  1  0
  5 13  1  0
  5 14  1  0
  6 15  1  0
M  END
