
     RDKit          3D

 18 17  0  0  0  0  0  0  0  0999 V2000
   -2.2037    1.7031    0.7570 C   0  0  0  0  0  0  0  0  0  0  0  0
   -1.6501    0.6453    0.6130 C   0  0  0  0  0  0  0  0  0  0  0  0
   -0.9643   -0.6269    0.4317 C   0  0  0  0  0  0  0  0  0  0  0  0
   -1.8065   -1.5834   -0.3890 C   0  0  0  0  0  0  0  0  0  0  0  0
    0.3517   -0.3623   -0.1900 C   0  0  0  0  0  0  0  0  0  0  0  0
    0.6292   -0.8478   -1.2638 O   0  0  0  0  0  0  0  0  0  0  0  0
    1.3241    0.4929    0.4994 C   0  0  0  0  0  0  0  0  0  0  0  0
    2.6082    0.6752   -0.2392 C   0  0  0  0  0  0  0  0  0  0  0  0
   -2.6962    2.6407    0.8737 H   0  0  0  0  0  0  0  0  0  0  0  0
   -0.8127   -1.1428    1.4254 H   0  0  0  0  0  0  0  0  0  0  0  0
   -1.5065   -2.6380   -0.2281 H   0  0  0  0  0  0  0  0  0  0  0  0
   -2.8741   -1.4841   -0.1021 H   0  0  0  0  0  0  0  0  0  0  0  0
   -1.7517   -1.2737   -1.4567 H   0  0  0  0  0  0  0  0  0  0  0  0
    1.5622    0.0231    1.4823 H   0  0  0  0  0  0  0  0  0  0  0  0
    0.9251    1.5097    0.7339 H   0  0  0  0  0  0  0  0  0  0  0  0
    2.5406    1.5869   -0.8830 H   0  0  0  0  0  0  0  0  0  0  0  0
    2.9245   -0.2210   -0.8082 H   0  0  0  0  0  0  0  0  0  0  0  0
    3.4001    0.9033    0.5140 H   0  0  0  0  0  0  0  0  0  0  0  0
  1  2  3  0
  2  3  1  0
  3  4  1  0
  3  5  1  0
  5  6  2  0
  5  7  1  0
  7  8  1  0
  1  9  1  0
  3 10  1  0
  4 11  1  0
  4 12  1  0
  4 13  1  0
  7 14  1  0
  7 15  1  0
  8 16  1  0
  8 17  1  0
  8 18  1  0
M  END
