
     RDKit          3D

 10  9  0  0  0  0  0  0  0  0999 V2000
   -1.5257   -1.4933    0.5329 C   0  0  0  0  0  0  0  0  0  0  0  0
   -0.4826   -1.0633    0.0671 C   0  0  0  0  0  0  0  0  0  0  0  0
    0.7809   -0.5522   -0.5149 C   0  0  0  0  0  0  0  0  0  0  0  0
    0.5945    0.7863   -0.8081 O   0  0  0  0  0  0  0  0  0  0  0  0
    0.2633    1.7902    0.0737 C   0  0  0  0  0  0  0  0  0  0  0  0
    0.1063    1.4625    1.2931 O   0  0  0  0  0  0  0  0  0  0  0  0
   -2.4627   -1.8995    0.9601 H   0  0  0  0  0  0  0  0  0  0  0  0
    1.6421   -0.7938    0.1294 H   0  0  0  0  0  0  0  0  0  0  0  0
    0.9523   -1.0812   -1.5077 H   0  0  0  0  0  0  0  0  0  0  0  0
    0.1316    2.8442   -0.2256 H   0  0  0  0  0  0  0  0  0  0  0  0
  1  2  3  0
  2  3  1  0
  3  4  1  0
  4  5  1  0
  5  6  2  0
  1  7  1  0
  3  8  1  0
  3  9  1  0
  5 10  1  0
M  END
