
     RDKit          3D

 19 20  0  0  0  0  0  0  0  0999 V2000
   -0.6402   -1.9866    2.4902 C   0  0  0  0  0  0  0  0  0  0  0  0
   -0.0633   -1.2461    1.7083 C   0  0  0  0  0  0  0  0  0  0  0  0
    0.6499   -0.3595    0.7569 C   0  0  0  0  0  0  0  0  0  0  0  0
    1.8072    0.3549    1.3482 C   0  0  0  0  0  0  0  0  0  0  0  0
    1.0432   -1.0458   -0.4958 O   0  0  0  0  0  0  0  0  0  0  0  0
    0.0592   -0.0544   -0.4338 C   0  0  0  0  0  0  0  0  0  0  0  0
   -1.2957   -0.3818   -0.9343 C   0  0  0  0  0  0  0  0  0  0  0  0
   -1.2336    0.7968   -1.8488 C   0  0  0  0  0  0  0  0  0  0  0  0
    0.1064    1.1447   -1.2886 C   0  0  0  0  0  0  0  0  0  0  0  0
   -1.1515   -2.6312    3.1546 H   0  0  0  0  0  0  0  0  0  0  0  0
    1.9390    0.1118    2.4182 H   0  0  0  0  0  0  0  0  0  0  0  0
    2.7488    0.1103    0.8194 H   0  0  0  0  0  0  0  0  0  0  0  0
    1.6488    1.4612    1.2529 H   0  0  0  0  0  0  0  0  0  0  0  0
   -1.3837   -1.3745   -1.4293 H   0  0  0  0  0  0  0  0  0  0  0  0
   -2.0832   -0.2294   -0.1350 H   0  0  0  0  0  0  0  0  0  0  0  0
   -2.0215    1.5643   -1.7099 H   0  0  0  0  0  0  0  0  0  0  0  0
   -1.1137    0.4480   -2.9039 H   0  0  0  0  0  0  0  0  0  0  0  0
    0.0470    2.1103   -0.7434 H   0  0  0  0  0  0  0  0  0  0  0  0
    0.9370    1.2071   -2.0258 H   0  0  0  0  0  0  0  0  0  0  0  0
  1  2  3  0
  2  3  1  0
  3  4  1  0
  3  5  1  0
  5  6  1  0
  6  7  1  0
  7  8  1  0
  8  9  1  0
  6  3  1  0
  9  6  1  0
  1 10  1  0
  4 11  1  0
  4 12  1  0
  4 13  1  0
  7 14  1  0
  7 15  1  0
  8 16  1  0
  8 17  1  0
  9 18  1  0
  9 19  1  0
M  END
