
     RDKit          3D

 19 18  0  0  0  0  0  0  0  0999 V2000
    2.7040    1.3674    0.3126 C   0  0  0  0  0  0  0  0  0  0  0  0
    1.4865    1.2567    0.2791 C   0  0  0  0  0  0  0  0  0  0  0  0
    0.0276    1.1358    0.2617 C   0  0  0  0  0  0  0  0  0  0  0  0
   -0.3301   -0.2969   -0.0439 C   0  0  0  0  0  0  0  0  0  0  0  0
    0.2370   -0.6708   -1.3881 C   0  0  0  0  0  0  0  0  0  0  0  0
    0.4214   -1.1515    0.9871 C   0  0  0  0  0  0  0  0  0  0  0  0
   -1.6807   -0.5821    0.0942 O   0  0  0  0  0  0  0  0  0  0  0  0
   -2.7010    0.0106   -0.5990 C   0  0  0  0  0  0  0  0  0  0  0  0
   -2.4273    0.8904   -1.4380 O   0  0  0  0  0  0  0  0  0  0  0  0
    3.7579    1.4797    0.3378 H   0  0  0  0  0  0  0  0  0  0  0  0
   -0.4408    1.8541   -0.4373 H   0  0  0  0  0  0  0  0  0  0  0  0
   -0.3531    1.3766    1.2707 H   0  0  0  0  0  0  0  0  0  0  0  0
    0.1943    0.1590   -2.1263 H   0  0  0  0  0  0  0  0  0  0  0  0
   -0.2536   -1.5818   -1.7915 H   0  0  0  0  0  0  0  0  0  0  0  0
    1.3157   -0.8976   -1.2493 H   0  0  0  0  0  0  0  0  0  0  0  0
    0.4003   -2.2098    0.6383 H   0  0  0  0  0  0  0  0  0  0  0  0
   -0.1044   -1.0324    1.9752 H   0  0  0  0  0  0  0  0  0  0  0  0
    1.4599   -0.7877    1.1152 H   0  0  0  0  0  0  0  0  0  0  0  0
   -3.7139   -0.3197   -0.3806 H   0  0  0  0  0  0  0  0  0  0  0  0
  1  2  3  0
  2  3  1  0
  3  4  1  0
  4  5  1  0
  4  6  1  0
  4  7  1  0
  7  8  1  0
  8  9  2  0
  1 10  1  0
  3 11  1  0
  3 12  1  0
  5 13  1  0
  5 14  1  0
  5 15  1  0
  6 16  1  0
  6 17  1  0
  6 18  1  0
  8 19  1  0
M  END
