
     RDKit          3D

 14 13  0  0  0  0  0  0  0  0999 V2000
    3.0451    0.6364   -0.1633 C   0  0  0  0  0  0  0  0  0  0  0  0
    2.1454   -0.2010   -0.0347 C   0  0  0  0  0  0  0  0  0  0  0  0
    1.1151   -1.1724    0.1352 C   0  0  0  0  0  0  0  0  0  0  0  0
    1.3013   -2.2170    0.7465 O   0  0  0  0  0  0  0  0  0  0  0  0
   -0.2050   -0.8742   -0.4576 C   0  0  0  0  0  0  0  0  0  0  0  0
   -0.8038    0.1829    0.4377 C   0  0  0  0  0  0  0  0  0  0  0  0
   -2.0956    0.8403    0.0683 C   0  0  0  0  0  0  0  0  0  0  0  0
   -0.2802    0.5473    1.4768 O   0  0  0  0  0  0  0  0  0  0  0  0
    3.8173    1.3313   -0.2776 H   0  0  0  0  0  0  0  0  0  0  0  0
    0.0186   -0.4533   -1.4739 H   0  0  0  0  0  0  0  0  0  0  0  0
   -0.8855   -1.7461   -0.4985 H   0  0  0  0  0  0  0  0  0  0  0  0
   -2.5180    0.4933   -0.8830 H   0  0  0  0  0  0  0  0  0  0  0  0
   -2.7997    0.6905    0.8836 H   0  0  0  0  0  0  0  0  0  0  0  0
   -1.8552    1.9416    0.0405 H   0  0  0  0  0  0  0  0  0  0  0  0
  1  2  3  0
  2  3  1  0
  3  4  2  0
  3  5  1  0
  5  6  1  0
  6  7  1  0
  6  8  2  0
  1  9  1  0
  5 10  1  0
  5 11  1  0
  7 12  1  0
  7 13  1  0
  7 14  1  0
M  END
