
     RDKit          3D

 13 13  0  0  0  0  0  0  0  0999 V2000
    2.5653    2.7776   -0.0242 C   0  0  0  0  0  0  0  0  0  0  0  0
    1.5983    1.9291   -0.0089 C   0  0  0  0  0  0  0  0  0  0  0  0
    0.5422    0.9976    0.0319 C   0  0  0  0  0  0  0  0  0  0  0  0
    0.2921    0.3463   -1.3137 O   0  0  0  0  0  0  0  0  0  0  0  0
    0.6611   -0.4330   -0.1521 C   0  0  0  0  0  0  0  0  0  0  0  0
   -0.4237   -1.1477    0.5711 C   0  0  0  0  0  0  0  0  0  0  0  0
   -1.3026   -1.7317    1.1366 C   0  0  0  0  0  0  0  0  0  0  0  0
   -2.3958   -2.4300    1.8438 C   0  0  0  0  0  0  0  0  0  0  0  0
   -3.2659   -1.2167    1.9581 O   0  0  0  0  0  0  0  0  0  0  0  0
    3.3596    3.4708   -0.0399 H   0  0  0  0  0  0  0  0  0  0  0  0
   -0.4639    1.4485    0.2758 H   0  0  0  0  0  0  0  0  0  0  0  0
    1.6451   -0.9223   -0.3006 H   0  0  0  0  0  0  0  0  0  0  0  0
   -2.8119   -3.0882    2.2195 H   0  0  0  0  0  0  0  0  0  0  0  0
  1  2  3  0
  2  3  1  0
  3  4  1  0
  4  5  1  0
  5  6  1  0
  6  7  3  0
  7  8  1  0
  8  9  2  0
  5  3  1  0
  1 10  1  0
  3 11  1  0
  5 12  1  0
  8 13  1  0
M  END
