
     RDKit          3D

 21 22  0  0  0  0  0  0  0  0999 V2000
   -3.2809   -0.0718    1.7240 C   0  0  0  0  0  0  0  0  0  0  0  0
   -2.4668   -0.5462    0.9395 C   0  0  0  0  0  0  0  0  0  0  0  0
   -1.5014   -1.1351    0.0132 C   0  0  0  0  0  0  0  0  0  0  0  0
   -0.3631   -1.8985    0.6444 C   0  0  0  0  0  0  0  0  0  0  0  0
   -0.1423   -0.6362   -0.0034 C   0  0  0  0  0  0  0  0  0  0  0  0
    0.3149    0.6268    0.6456 C   0  0  0  0  0  0  0  0  0  0  0  0
    0.7931    1.0774   -0.7439 C   0  0  0  0  0  0  0  0  0  0  0  0
    2.1756    1.6358   -0.7623 C   0  0  0  0  0  0  0  0  0  0  0  0
    0.6767   -0.3807   -1.2112 C   0  0  0  0  0  0  0  0  0  0  0  0
   -3.9790    0.3548    2.3968 H   0  0  0  0  0  0  0  0  0  0  0  0
   -1.8927   -1.5736   -0.9447 H   0  0  0  0  0  0  0  0  0  0  0  0
   -0.0278   -2.8377    0.1503 H   0  0  0  0  0  0  0  0  0  0  0  0
   -0.3636   -1.9682    1.7383 H   0  0  0  0  0  0  0  0  0  0  0  0
    1.2029    0.4851    1.2889 H   0  0  0  0  0  0  0  0  0  0  0  0
   -0.4484    1.2734    1.0939 H   0  0  0  0  0  0  0  0  0  0  0  0
    0.0025    1.6587   -1.2523 H   0  0  0  0  0  0  0  0  0  0  0  0
    2.1949    2.5159   -0.0814 H   0  0  0  0  0  0  0  0  0  0  0  0
    2.8813    0.8503   -0.4797 H   0  0  0  0  0  0  0  0  0  0  0  0
    2.4237    1.9940   -1.7590 H   0  0  0  0  0  0  0  0  0  0  0  0
    0.1605   -0.5001   -2.1818 H   0  0  0  0  0  0  0  0  0  0  0  0
    1.6399   -0.9240   -1.2151 H   0  0  0  0  0  0  0  0  0  0  0  0
  1  2  3  0
  2  3  1  0
  3  4  1  0
  4  5  1  0
  5  6  1  0
  6  7  1  0
  7  8  1  0
  7  9  1  0
  5  3  1  0
  9  5  1  0
  1 10  1  0
  3 11  1  0
  4 12  1  0
  4 13  1  0
  6 14  1  0
  6 15  1  0
  7 16  1  0
  8 17  1  0
  8 18  1  0
  8 19  1  0
  9 20  1  0
  9 21  1  0
M  END
