
     RDKit          3D

 21 21  0  0  0  0  0  0  0  0999 V2000
   -2.8210    0.3683   -0.9054 C   0  0  0  0  0  0  0  0  0  0  0  0
   -1.7944   -0.1302   -0.5251 C   0  0  0  0  0  0  0  0  0  0  0  0
   -0.5444   -0.7413   -0.0879 C   0  0  0  0  0  0  0  0  0  0  0  0
   -0.7336   -2.1228    0.4551 C   0  0  0  0  0  0  0  0  0  0  0  0
    0.4765   -0.6783   -1.2009 C   0  0  0  0  0  0  0  0  0  0  0  0
    0.7738    0.6507   -1.2885 O   0  0  0  0  0  0  0  0  0  0  0  0
    0.6214    1.2481   -0.0677 C   0  0  0  0  0  0  0  0  0  0  0  0
    1.9205    1.8246    0.4644 C   0  0  0  0  0  0  0  0  0  0  0  0
    0.1108    0.1995    0.9028 C   0  0  0  0  0  0  0  0  0  0  0  0
   -3.7319    0.8289   -1.2372 H   0  0  0  0  0  0  0  0  0  0  0  0
   -1.0836   -2.0285    1.5056 H   0  0  0  0  0  0  0  0  0  0  0  0
    0.1761   -2.7185    0.4576 H   0  0  0  0  0  0  0  0  0  0  0  0
   -1.5555   -2.5984   -0.1170 H   0  0  0  0  0  0  0  0  0  0  0  0
    1.3627   -1.2582   -0.9189 H   0  0  0  0  0  0  0  0  0  0  0  0
   -0.0200   -1.0600   -2.1206 H   0  0  0  0  0  0  0  0  0  0  0  0
   -0.1350    2.0463   -0.1563 H   0  0  0  0  0  0  0  0  0  0  0  0
    2.2911    2.5870   -0.2328 H   0  0  0  0  0  0  0  0  0  0  0  0
    1.6883    2.2399    1.4673 H   0  0  0  0  0  0  0  0  0  0  0  0
    2.6162    0.9631    0.5778 H   0  0  0  0  0  0  0  0  0  0  0  0
   -0.6094    0.6127    1.6322 H   0  0  0  0  0  0  0  0  0  0  0  0
    0.9913   -0.2331    1.3956 H   0  0  0  0  0  0  0  0  0  0  0  0
  1  2  3  0
  2  3  1  0
  3  4  1  0
  3  5  1  0
  5  6  1  0
  6  7  1  0
  7  8  1  0
  7  9  1  0
  9  3  1  0
  1 10  1  0
  4 11  1  0
  4 12  1  0
  4 13  1  0
  5 14  1  0
  5 15  1  0
  7 16  1  0
  8 17  1  0
  8 18  1  0
  8 19  1  0
  9 20  1  0
  9 21  1  0
M  END
