
     RDKit          3D

 19 19  0  0  0  0  0  0  0  0999 V2000
    1.0082    3.0001   -0.2722 C   0  0  0  0  0  0  0  0  0  0  0  0
    0.8202    1.8595    0.1189 C   0  0  0  0  0  0  0  0  0  0  0  0
    0.6130    0.4906    0.6021 C   0  0  0  0  0  0  0  0  0  0  0  0
    0.5401    0.3015    1.9791 O   0  0  0  0  0  0  0  0  0  0  0  0
    1.3183   -0.6313   -0.2040 C   0  0  0  0  0  0  0  0  0  0  0  0
   -0.1732   -0.4633   -0.2585 C   0  0  0  0  0  0  0  0  0  0  0  0
   -0.9399   -1.5938    0.4062 C   0  0  0  0  0  0  0  0  0  0  0  0
   -0.7802    0.1716   -1.4773 C   0  0  0  0  0  0  0  0  0  0  0  0
   -1.4884   -0.7707   -2.2190 O   0  0  0  0  0  0  0  0  0  0  0  0
    1.1849    3.9850   -0.6223 H   0  0  0  0  0  0  0  0  0  0  0  0
    1.4228    0.1550    2.4001 H   0  0  0  0  0  0  0  0  0  0  0  0
    1.7459   -1.4548    0.3776 H   0  0  0  0  0  0  0  0  0  0  0  0
    1.8490   -0.2655   -1.1162 H   0  0  0  0  0  0  0  0  0  0  0  0
   -1.9143   -1.2287    0.7830 H   0  0  0  0  0  0  0  0  0  0  0  0
   -1.0636   -2.3818   -0.3716 H   0  0  0  0  0  0  0  0  0  0  0  0
   -0.3092   -2.0358    1.2014 H   0  0  0  0  0  0  0  0  0  0  0  0
    0.0511    0.6147   -2.0653 H   0  0  0  0  0  0  0  0  0  0  0  0
   -1.4516    0.9967   -1.1441 H   0  0  0  0  0  0  0  0  0  0  0  0
   -2.4333   -0.7490   -2.0067 H   0  0  0  0  0  0  0  0  0  0  0  0
  1  2  3  0
  2  3  1  0
  3  4  1  0
  3  5  1  0
  5  6  1  0
  6  7  1  0
  6  8  1  0
  8  9  1  0
  6  3  1  0
  1 10  1  0
  4 11  1  0
  5 12  1  0
  5 13  1  0
  7 14  1  0
  7 15  1  0
  7 16  1  0
  8 17  1  0
  8 18  1  0
  9 19  1  0
M  END
