
     RDKit          3D

 21 22  0  0  0  0  0  0  0  0999 V2000
    1.9836   -2.2553   -1.1617 C   0  0  0  0  0  0  0  0  0  0  0  0
    1.3481   -1.3071   -0.7208 C   0  0  0  0  0  0  0  0  0  0  0  0
    0.5972   -0.1653   -0.1930 C   0  0  0  0  0  0  0  0  0  0  0  0
    1.4263    1.0570   -0.2072 C   0  0  0  0  0  0  0  0  0  0  0  0
    0.1992   -0.5335    1.2525 C   0  0  0  0  0  0  0  0  0  0  0  0
   -1.2990   -0.1681    1.3282 C   0  0  0  0  0  0  0  0  0  0  0  0
   -1.3301    0.8727    0.2796 C   0  0  0  0  0  0  0  0  0  0  0  0
   -1.6702    0.9092   -1.0787 C   0  0  0  0  0  0  0  0  0  0  0  0
   -0.7294   -0.0989   -0.8202 C   0  0  0  0  0  0  0  0  0  0  0  0
    2.5486   -3.0704   -1.5340 H   0  0  0  0  0  0  0  0  0  0  0  0
    1.2366    1.7377   -1.0609 H   0  0  0  0  0  0  0  0  0  0  0  0
    2.5042    0.7511   -0.3082 H   0  0  0  0  0  0  0  0  0  0  0  0
    1.4118    1.6324    0.7655 H   0  0  0  0  0  0  0  0  0  0  0  0
    0.3488   -1.6088    1.4366 H   0  0  0  0  0  0  0  0  0  0  0  0
    0.7504    0.1154    1.9415 H   0  0  0  0  0  0  0  0  0  0  0  0
   -1.8936   -1.0660    1.0487 H   0  0  0  0  0  0  0  0  0  0  0  0
   -1.5586    0.2242    2.3269 H   0  0  0  0  0  0  0  0  0  0  0  0
   -0.6247    1.7021    0.6104 H   0  0  0  0  0  0  0  0  0  0  0  0
   -1.3536    1.7774   -1.7222 H   0  0  0  0  0  0  0  0  0  0  0  0
   -2.7297    0.6446   -1.3684 H   0  0  0  0  0  0  0  0  0  0  0  0
   -1.1659   -1.1507   -0.8145 H   0  0  0  0  0  0  0  0  0  0  0  0
  1  2  3  0
  2  3  1  0
  3  4  1  0
  3  5  1  0
  5  6  1  0
  6  7  1  0
  7  8  1  0
  8  9  1  0
  9  3  1  0
  9  7  1  0
  1 10  1  0
  4 11  1  0
  4 12  1  0
  4 13  1  0
  5 14  1  0
  5 15  1  0
  6 16  1  0
  6 17  1  0
  7 18  1  0
  8 19  1  0
  8 20  1  0
  9 21  1  0
M  END
