
     RDKit          3D

 25 24  0  0  0  0  0  0  0  0999 V2000
   -1.7850   -2.3443    1.2035 C   0  0  0  0  0  0  0  0  0  0  0  0
   -1.1924   -1.7947    0.2986 C   0  0  0  0  0  0  0  0  0  0  0  0
   -0.4738   -1.1409   -0.8091 C   0  0  0  0  0  0  0  0  0  0  0  0
    0.7751   -1.8746   -1.1315 C   0  0  0  0  0  0  0  0  0  0  0  0
   -0.2972    0.3210   -0.5852 C   0  0  0  0  0  0  0  0  0  0  0  0
   -1.7158    0.9309   -0.4788 C   0  0  0  0  0  0  0  0  0  0  0  0
    0.4321    0.7168    0.6535 C   0  0  0  0  0  0  0  0  0  0  0  0
    0.4653    2.2577    0.6434 C   0  0  0  0  0  0  0  0  0  0  0  0
    1.8424    0.2610    0.7703 C   0  0  0  0  0  0  0  0  0  0  0  0
   -2.2987   -2.8187    2.0144 H   0  0  0  0  0  0  0  0  0  0  0  0
   -1.1262   -1.2457   -1.7441 H   0  0  0  0  0  0  0  0  0  0  0  0
    1.4549   -2.0943   -0.3147 H   0  0  0  0  0  0  0  0  0  0  0  0
    0.4996   -2.8067   -1.7136 H   0  0  0  0  0  0  0  0  0  0  0  0
    1.3483   -1.2624   -1.8891 H   0  0  0  0  0  0  0  0  0  0  0  0
    0.1874    0.8036   -1.4542 H   0  0  0  0  0  0  0  0  0  0  0  0
   -1.6425    2.0266   -0.3006 H   0  0  0  0  0  0  0  0  0  0  0  0
   -2.2318    0.7971   -1.4603 H   0  0  0  0  0  0  0  0  0  0  0  0
   -2.3181    0.4087    0.2678 H   0  0  0  0  0  0  0  0  0  0  0  0
   -0.1095    0.3570    1.5771 H   0  0  0  0  0  0  0  0  0  0  0  0
   -0.2886    2.5940    1.3638 H   0  0  0  0  0  0  0  0  0  0  0  0
    0.2997    2.6558   -0.3680 H   0  0  0  0  0  0  0  0  0  0  0  0
    1.4418    2.6374    0.9866 H   0  0  0  0  0  0  0  0  0  0  0  0
    1.9767   -0.6072    1.4481 H   0  0  0  0  0  0  0  0  0  0  0  0
    2.4581    1.0813    1.2469 H   0  0  0  0  0  0  0  0  0  0  0  0
    2.2980    0.1406   -0.2250 H   0  0  0  0  0  0  0  0  0  0  0  0
  1  2  3  0
  2  3  1  0
  3  4  1  0
  3  5  1  0
  5  6  1  0
  5  7  1  0
  7  8  1  0
  7  9  1  0
  1 10  1  0
  3 11  1  0
  4 12  1  0
  4 13  1  0
  4 14  1  0
  5 15  1  0
  6 16  1  0
  6 17  1  0
  6 18  1  0
  7 19  1  0
  8 20  1  0
  8 21  1  0
  8 22  1  0
  9 23  1  0
  9 24  1  0
  9 25  1  0
M  END
