
     RDKit          3D

 19 18  0  0  0  0  0  0  0  0999 V2000
   -2.2241    2.1857   -0.0259 C   0  0  0  0  0  0  0  0  0  0  0  0
   -1.9329    1.0041   -0.4073 C   0  0  0  0  0  0  0  0  0  0  0  0
   -1.5640   -0.4935   -0.8615 C   0  0  0  0  0  0  0  0  0  0  0  0
   -2.5368   -1.2432    0.1064 C   0  0  0  0  0  0  0  0  0  0  0  0
   -0.3384   -0.5635   -0.3183 O   0  0  0  0  0  0  0  0  0  0  0  0
    0.7992    0.1695   -0.2836 C   0  0  0  0  0  0  0  0  0  0  0  0
    0.7786    1.3187   -0.8309 O   0  0  0  0  0  0  0  0  0  0  0  0
    1.9979   -0.4315    0.4217 C   0  0  0  0  0  0  0  0  0  0  0  0
    3.2377    0.3297    0.1256 C   0  0  0  0  0  0  0  0  0  0  0  0
   -2.4628    3.1359    0.2630 H   0  0  0  0  0  0  0  0  0  0  0  0
   -1.9799   -0.4727   -1.7843 H   0  0  0  0  0  0  0  0  0  0  0  0
   -2.2592   -1.0605    1.1649 H   0  0  0  0  0  0  0  0  0  0  0  0
   -3.5838   -0.9312   -0.0854 H   0  0  0  0  0  0  0  0  0  0  0  0
   -2.4583   -2.3234   -0.1139 H   0  0  0  0  0  0  0  0  0  0  0  0
    1.8153   -0.5119    1.4880 H   0  0  0  0  0  0  0  0  0  0  0  0
    2.0308   -1.4267   -0.0049 H   0  0  0  0  0  0  0  0  0  0  0  0
    3.4289    0.3182   -0.9466 H   0  0  0  0  0  0  0  0  0  0  0  0
    3.1878    1.3181    0.5714 H   0  0  0  0  0  0  0  0  0  0  0  0
    4.0640   -0.3216    0.6155 H   0  0  0  0  0  0  0  0  0  0  0  0
  1  2  3  0
  2  3  1  0
  3  4  1  0
  3  5  1  0
  5  6  1  0
  6  7  2  0
  6  8  1  0
  8  9  1  0
  1 10  1  0
  3 11  1  0
  4 12  1  0
  4 13  1  0
  4 14  1  0
  8 15  1  0
  8 16  1  0
  9 17  1  0
  9 18  1  0
  9 19  1  0
M  END
