
     RDKit          3D

 16 15  0  0  0  0  0  0  0  0999 V2000
    3.0797    1.6170    0.2746 C   0  0  0  0  0  0  0  0  0  0  0  0
    1.7387    0.3772   -0.0894 C   0  0  0  0  0  0  0  0  0  0  0  0
    0.8432   -0.4433   -0.3488 C   0  0  0  0  0  0  0  0  0  0  0  0
    0.9184   -0.7007   -1.9071 C   0  0  0  0  0  0  0  0  0  0  0  0
    0.7764   -0.8745   -2.9100 O   0  0  0  0  0  0  0  0  0  0  0  0
   -0.4195    0.1061   -0.0560 O   0  0  0  0  0  0  0  0  0  0  0  0
   -1.0716   -0.3718    0.9728 C   0  0  0  0  0  0  0  0  0  0  0  0
   -2.5575    0.1261    0.8746 C   0  0  0  0  0  0  0  0  0  0  0  0
    3.6833    2.1806    0.4293 H   0  0  0  0  0  0  0  0  0  0  0  0
    1.0203   -1.4220    0.1852 H   0  0  0  0  0  0  0  0  0  0  0  0
    2.2865   -0.5874   -1.8041 H   0  0  0  0  0  0  0  0  0  0  0  0
   -0.7035    0.2719    1.8812 H   0  0  0  0  0  0  0  0  0  0  0  0
   -1.0146   -1.4273    1.3430 H   0  0  0  0  0  0  0  0  0  0  0  0
   -3.0914   -0.1069    1.7609 H   0  0  0  0  0  0  0  0  0  0  0  0
   -2.4196    1.3236    0.8994 H   0  0  0  0  0  0  0  0  0  0  0  0
   -3.0686   -0.0685   -0.0951 H   0  0  0  0  0  0  0  0  0  0  0  0
  1  2  3  0
  2  3  1  0
  3  4  1  0
  4  5  2  0
  3  6  1  0
  6  7  1  0
  7  8  1  0
  1  9  1  0
  3 10  1  0
  4 11  1  0
  7 12  1  0
  7 13  1  0
  8 14  1  0
  8 15  1  0
  8 16  1  0
M  END
