
     RDKit          3D

 19 20  0  0  0  0  0  0  0  0999 V2000
   -2.5752    1.7837    0.2158 C   0  0  0  0  0  0  0  0  0  0  0  0
   -1.6969    0.9782    0.0161 C   0  0  0  0  0  0  0  0  0  0  0  0
   -0.6403   -0.0058   -0.2027 C   0  0  0  0  0  0  0  0  0  0  0  0
    0.6328    0.5609   -0.7368 C   0  0  0  0  0  0  0  0  0  0  0  0
    1.7479   -0.4232   -0.9764 C   0  0  0  0  0  0  0  0  0  0  0  0
    2.6395    0.6223   -0.6377 O   0  0  0  0  0  0  0  0  0  0  0  0
    1.6316    1.0590    0.2556 C   0  0  0  0  0  0  0  0  0  0  0  0
   -0.7290   -1.3036    0.4745 C   0  0  0  0  0  0  0  0  0  0  0  0
   -1.1219   -1.2523   -0.9612 C   0  0  0  0  0  0  0  0  0  0  0  0
   -3.3429    2.5033    0.4069 H   0  0  0  0  0  0  0  0  0  0  0  0
    0.4927    1.2287   -1.5846 H   0  0  0  0  0  0  0  0  0  0  0  0
    1.8176   -1.2006   -0.1775 H   0  0  0  0  0  0  0  0  0  0  0  0
    1.8470   -0.7852   -2.0093 H   0  0  0  0  0  0  0  0  0  0  0  0
    1.6079    2.1460    0.4175 H   0  0  0  0  0  0  0  0  0  0  0  0
    1.7114    0.4648    1.1803 H   0  0  0  0  0  0  0  0  0  0  0  0
    0.1572   -1.8920    0.7860 H   0  0  0  0  0  0  0  0  0  0  0  0
   -1.5951   -1.4511    1.1728 H   0  0  0  0  0  0  0  0  0  0  0  0
   -2.1667   -1.2991   -1.2812 H   0  0  0  0  0  0  0  0  0  0  0  0
   -0.4176   -1.7341   -1.6633 H   0  0  0  0  0  0  0  0  0  0  0  0
  1  2  3  0
  2  3  1  0
  3  4  1  0
  4  5  1  0
  5  6  1  0
  6  7  1  0
  3  8  1  0
  8  9  1  0
  9  3  1  0
  7  4  1  0
  1 10  1  0
  4 11  1  0
  5 12  1  0
  5 13  1  0
  7 14  1  0
  7 15  1  0
  8 16  1  0
  8 17  1  0
  9 18  1  0
  9 19  1  0
M  END
