
     RDKit          3D

 17 18  0  0  0  0  0  0  0  0999 V2000
    2.3951    1.3582    0.4875 C   0  0  0  0  0  0  0  0  0  0  0  0
    1.4459    0.6035    0.3440 C   0  0  0  0  0  0  0  0  0  0  0  0
    0.3094   -0.2866    0.1886 C   0  0  0  0  0  0  0  0  0  0  0  0
    0.5816   -1.6691    0.7116 C   0  0  0  0  0  0  0  0  0  0  0  0
    0.0387   -0.4255   -1.1768 O   0  0  0  0  0  0  0  0  0  0  0  0
   -1.2126    0.1710   -1.3972 C   0  0  0  0  0  0  0  0  0  0  0  0
   -1.1003    1.2940   -0.4105 C   0  0  0  0  0  0  0  0  0  0  0  0
   -1.4738    1.4637    0.8182 O   0  0  0  0  0  0  0  0  0  0  0  0
   -0.9305    0.2805    0.7732 C   0  0  0  0  0  0  0  0  0  0  0  0
    3.2234    2.0067    0.6187 H   0  0  0  0  0  0  0  0  0  0  0  0
    0.0636   -2.4542    0.1216 H   0  0  0  0  0  0  0  0  0  0  0  0
    1.6669   -1.8752    0.7547 H   0  0  0  0  0  0  0  0  0  0  0  0
    0.1945   -1.7672    1.7579 H   0  0  0  0  0  0  0  0  0  0  0  0
   -1.3268    0.5136   -2.4302 H   0  0  0  0  0  0  0  0  0  0  0  0
   -1.9846   -0.5766   -1.1211 H   0  0  0  0  0  0  0  0  0  0  0  0
   -0.1668    1.8948   -0.6554 H   0  0  0  0  0  0  0  0  0  0  0  0
   -1.7235   -0.5317    0.8275 H   0  0  0  0  0  0  0  0  0  0  0  0
  1  2  3  0
  2  3  1  0
  3  4  1  0
  3  5  1  0
  5  6  1  0
  6  7  1  0
  7  8  1  0
  8  9  1  0
  9  3  1  0
  9  7  1  0
  1 10  1  0
  4 11  1  0
  4 12  1  0
  4 13  1  0
  6 14  1  0
  6 15  1  0
  7 16  1  0
  9 17  1  0
M  END
