
     RDKit          3D

 15 14  0  0  0  0  0  0  0  0999 V2000
   -2.5754    0.4531   -1.5209 C   0  0  0  0  0  0  0  0  0  0  0  0
   -2.0404    0.0663   -0.4790 C   0  0  0  0  0  0  0  0  0  0  0  0
   -1.4236   -0.3720    0.7609 C   0  0  0  0  0  0  0  0  0  0  0  0
    0.0384   -0.5766    0.5327 C   0  0  0  0  0  0  0  0  0  0  0  0
    0.7898    0.6331    0.0844 C   0  0  0  0  0  0  0  0  0  0  0  0
    2.1893    0.2339   -0.0802 C   0  0  0  0  0  0  0  0  0  0  0  0
    3.3659   -0.0930   -0.2367 C   0  0  0  0  0  0  0  0  0  0  0  0
   -3.0272    0.7972   -2.4366 H   0  0  0  0  0  0  0  0  0  0  0  0
   -1.8482   -1.3830    0.9894 H   0  0  0  0  0  0  0  0  0  0  0  0
   -1.6469    0.3494    1.5818 H   0  0  0  0  0  0  0  0  0  0  0  0
    0.5078   -0.9008    1.4993 H   0  0  0  0  0  0  0  0  0  0  0  0
    0.1486   -1.3530   -0.2450 H   0  0  0  0  0  0  0  0  0  0  0  0
    0.6949    1.5056    0.7685 H   0  0  0  0  0  0  0  0  0  0  0  0
    0.4524    0.9977   -0.9160 H   0  0  0  0  0  0  0  0  0  0  0  0
    4.3745   -0.3578   -0.3674 H   0  0  0  0  0  0  0  0  0  0  0  0
  1  2  3  0
  2  3  1  0
  3  4  1  0
  4  5  1  0
  5  6  1  0
  6  7  3  0
  1  8  1  0
  3  9  1  0
  3 10  1  0
  4 11  1  0
  4 12  1  0
  5 13  1  0
  5 14  1  0
  7 15  1  0
M  END
