
     RDKit          3D

 19 20  0  0  0  0  0  0  0  0999 V2000
    1.1449    2.4597    0.8119 C   0  0  0  0  0  0  0  0  0  0  0  0
    0.8680    1.2342    0.1066 C   0  0  0  0  0  0  0  0  0  0  0  0
    0.5760    0.0351   -0.5729 C   0  0  0  0  0  0  0  0  0  0  0  0
   -0.7935    0.5527   -1.4831 C   0  0  0  0  0  0  0  0  0  0  0  0
   -1.5499    1.0041   -0.5210 C   0  0  0  0  0  0  0  0  0  0  0  0
   -1.4694    0.5631    0.7840 C   0  0  0  0  0  0  0  0  0  0  0  0
   -0.4127   -0.5008    0.7199 C   0  0  0  0  0  0  0  0  0  0  0  0
    0.1236   -1.2953   -0.2611 C   0  0  0  0  0  0  0  0  0  0  0  0
    1.3078   -2.1957    0.2142 C   0  0  0  0  0  0  0  0  0  0  0  0
    1.3951    3.6733    1.4987 H   0  0  0  0  0  0  0  0  0  0  0  0
   -0.3320    1.3250   -2.1657 H   0  0  0  0  0  0  0  0  0  0  0  0
   -0.9426   -0.3962   -2.0077 H   0  0  0  0  0  0  0  0  0  0  0  0
   -2.3819    1.8466   -0.6511 H   0  0  0  0  0  0  0  0  0  0  0  0
   -2.0138    0.9353    1.5826 H   0  0  0  0  0  0  0  0  0  0  0  0
    0.2758   -0.4465    1.7020 H   0  0  0  0  0  0  0  0  0  0  0  0
   -0.5878   -1.8304   -0.9507 H   0  0  0  0  0  0  0  0  0  0  0  0
    1.1356   -3.2241    0.0369 H   0  0  0  0  0  0  0  0  0  0  0  0
    1.4104   -1.9469    1.3458 H   0  0  0  0  0  0  0  0  0  0  0  0
    2.2464   -1.7932   -0.1894 H   0  0  0  0  0  0  0  0  0  0  0  0
  1  2  3  0
  2  3  1  0
  3  4  1  0
  4  5  1  0
  5  6  2  0
  6  7  1  0
  7  8  1  0
  8  9  1  0
  7  3  1  0
  8  3  1  0
  1 10  1  0
  4 11  1  0
  4 12  1  0
  5 13  1  0
  6 14  1  0
  7 15  1  0
  8 16  1  0
  9 17  1  0
  9 18  1  0
  9 19  1  0
M  END
