
     RDKit          3D

 21 22  0  0  0  0  0  0  0  0999 V2000
   -1.0422   -3.5277    0.8424 C   0  0  0  0  0  0  0  0  0  0  0  0
   -0.4337   -2.3139    0.7193 C   0  0  0  0  0  0  0  0  0  0  0  0
    0.1422   -1.1717    0.6246 C   0  0  0  0  0  0  0  0  0  0  0  0
   -0.4035    0.1142    1.2481 C   0  0  0  0  0  0  0  0  0  0  0  0
    0.6714    1.0979    0.8404 C   0  0  0  0  0  0  0  0  0  0  0  0
    0.8884    0.6531   -0.5996 C   0  0  0  0  0  0  0  0  0  0  0  0
    0.8323    1.7913   -1.5418 C   0  0  0  0  0  0  0  0  0  0  0  0
   -0.1631   -0.3537   -0.7080 C   0  0  0  0  0  0  0  0  0  0  0  0
   -1.3530    0.1657    0.0882 C   0  0  0  0  0  0  0  0  0  0  0  0
   -1.5071   -4.4695    0.9370 H   0  0  0  0  0  0  0  0  0  0  0  0
    1.3140   -1.1218    0.6872 H   0  0  0  0  0  0  0  0  0  0  0  0
   -0.7278    0.0916    2.2539 H   0  0  0  0  0  0  0  0  0  0  0  0
    0.2565    2.1075    0.8827 H   0  0  0  0  0  0  0  0  0  0  0  0
    1.5988    0.9838    1.4332 H   0  0  0  0  0  0  0  0  0  0  0  0
    1.8845    0.1127   -0.6672 H   0  0  0  0  0  0  0  0  0  0  0  0
    0.0144    2.4757   -1.2359 H   0  0  0  0  0  0  0  0  0  0  0  0
    1.7739    2.3514   -1.6497 H   0  0  0  0  0  0  0  0  0  0  0  0
    0.5189    1.3934   -2.5558 H   0  0  0  0  0  0  0  0  0  0  0  0
   -0.3640   -0.9857   -1.5351 H   0  0  0  0  0  0  0  0  0  0  0  0
   -1.7031    1.1807   -0.1677 H   0  0  0  0  0  0  0  0  0  0  0  0
   -2.1976   -0.5750    0.1036 H   0  0  0  0  0  0  0  0  0  0  0  0
  1  2  3  0
  2  3  1  0
  3  4  1  0
  4  5  1  0
  5  6  1  0
  6  7  1  0
  6  8  1  0
  8  9  1  0
  8  3  1  0
  9  4  1  0
  1 10  1  0
  3 11  1  0
  4 12  1  0
  5 13  1  0
  5 14  1  0
  6 15  1  0
  7 16  1  0
  7 17  1  0
  7 18  1  0
  8 19  1  0
  9 20  1  0
  9 21  1  0
M  END
