
     RDKit          3D

 17 17  0  0  0  0  0  0  0  0999 V2000
   -2.7501    1.5856   -1.3429 C   0  0  0  0  0  0  0  0  0  0  0  0
   -2.0811    1.1598   -0.8987 C   0  0  0  0  0  0  0  0  0  0  0  0
   -0.9510    0.4092   -0.1444 C   0  0  0  0  0  0  0  0  0  0  0  0
   -0.7924    0.8448    1.1051 O   0  0  0  0  0  0  0  0  0  0  0  0
   -0.0597   -0.3048   -0.9604 C   0  0  0  0  0  0  0  0  0  0  0  0
   -0.1643   -0.8374   -2.0540 O   0  0  0  0  0  0  0  0  0  0  0  0
    1.3600   -0.4997   -0.4182 C   0  0  0  0  0  0  0  0  0  0  0  0
    1.3959   -1.2804    0.9156 C   0  0  0  0  0  0  0  0  0  0  0  0
    1.8005    0.1512    0.8569 C   0  0  0  0  0  0  0  0  0  0  0  0
   -3.9180    2.3018   -2.1280 H   0  0  0  0  0  0  0  0  0  0  0  0
   -1.7358   -0.6007    0.1718 H   0  0  0  0  0  0  0  0  0  0  0  0
   -1.0805    0.2334    1.8665 H   0  0  0  0  0  0  0  0  0  0  0  0
    2.0502   -0.9525   -1.1334 H   0  0  0  0  0  0  0  0  0  0  0  0
    0.4556   -1.4832    1.4339 H   0  0  0  0  0  0  0  0  0  0  0  0
    2.2437   -1.9978    1.0651 H   0  0  0  0  0  0  0  0  0  0  0  0
    2.9501    0.3386    0.7924 H   0  0  0  0  0  0  0  0  0  0  0  0
    1.2768    0.9320    1.2922 H   0  0  0  0  0  0  0  0  0  0  0  0
  1  2  3  0
  2  3  1  0
  3  4  1  0
  3  5  1  0
  5  6  2  0
  5  7  1  0
  7  8  1  0
  8  9  1  0
  9  7  1  0
  1 10  1  0
  3 11  1  0
  4 12  1  0
  7 13  1  0
  8 14  1  0
  8 15  1  0
  9 16  1  0
  9 17  1  0
M  END
