
     RDKit          3D

 21 20  0  0  0  0  0  0  0  0999 V2000
   -1.5335    2.6158    0.5422 C   0  0  0  0  0  0  0  0  0  0  0  0
   -1.4657    1.6872   -0.2291 C   0  0  0  0  0  0  0  0  0  0  0  0
   -1.4000    0.5972   -1.1599 C   0  0  0  0  0  0  0  0  0  0  0  0
   -0.8358   -0.6854   -0.6307 C   0  0  0  0  0  0  0  0  0  0  0  0
   -0.9193   -1.6681   -1.8314 C   0  0  0  0  0  0  0  0  0  0  0  0
    0.5513   -0.6407   -0.1684 C   0  0  0  0  0  0  0  0  0  0  0  0
    1.4074   -1.3595   -0.6777 O   0  0  0  0  0  0  0  0  0  0  0  0
    0.9734    0.2618    0.9226 C   0  0  0  0  0  0  0  0  0  0  0  0
    2.4589    0.0219    1.2694 C   0  0  0  0  0  0  0  0  0  0  0  0
   -1.5934    3.4549    1.2164 H   0  0  0  0  0  0  0  0  0  0  0  0
   -0.8033    0.8862   -2.0570 H   0  0  0  0  0  0  0  0  0  0  0  0
   -2.4147    0.3301   -1.5811 H   0  0  0  0  0  0  0  0  0  0  0  0
   -1.4897   -1.1426    0.1573 H   0  0  0  0  0  0  0  0  0  0  0  0
   -0.1132   -2.4345   -1.7391 H   0  0  0  0  0  0  0  0  0  0  0  0
   -1.9141   -2.1261   -1.8860 H   0  0  0  0  0  0  0  0  0  0  0  0
   -0.6859   -1.0762   -2.7378 H   0  0  0  0  0  0  0  0  0  0  0  0
    0.3782    0.1258    1.8210 H   0  0  0  0  0  0  0  0  0  0  0  0
    0.9874    1.3368    0.5823 H   0  0  0  0  0  0  0  0  0  0  0  0
    2.9484    0.9488    1.6152 H   0  0  0  0  0  0  0  0  0  0  0  0
    2.4990   -0.7907    2.0119 H   0  0  0  0  0  0  0  0  0  0  0  0
    2.9648   -0.3426    0.3468 H   0  0  0  0  0  0  0  0  0  0  0  0
  1  2  3  0
  2  3  1  0
  3  4  1  0
  4  5  1  0
  4  6  1  0
  6  7  2  0
  6  8  1  0
  8  9  1  0
  1 10  1  0
  3 11  1  0
  3 12  1  0
  4 13  1  0
  5 14  1  0
  5 15  1  0
  5 16  1  0
  8 17  1  0
  8 18  1  0
  9 19  1  0
  9 20  1  0
  9 21  1  0
M  END
