
     RDKit          3D

 19 18  0  0  0  0  0  0  0  0999 V2000
    4.2906    0.8077    1.9466 C   0  0  0  0  0  0  0  0  0  0  0  0
    3.5556    0.6614    1.5505 C   0  0  0  0  0  0  0  0  0  0  0  0
    2.2042    0.4203    0.8270 C   0  0  0  0  0  0  0  0  0  0  0  0
    1.0819    0.2390    0.2136 C   0  0  0  0  0  0  0  0  0  0  0  0
   -0.2742    0.0132   -0.5142 C   0  0  0  0  0  0  0  0  0  0  0  0
   -1.1495    1.1603   -0.0187 C   0  0  0  0  0  0  0  0  0  0  0  0
   -2.4437    1.0770   -0.8034 C   0  0  0  0  0  0  0  0  0  0  0  0
   -0.3615   -1.1250   -0.4577 O   0  0  0  0  0  0  0  0  0  0  0  0
   -0.4599   -2.4612   -0.4118 C   0  0  0  0  0  0  0  0  0  0  0  0
    5.2217    0.9885    2.4514 H   0  0  0  0  0  0  0  0  0  0  0  0
    0.0515    0.4400   -1.6126 H   0  0  0  0  0  0  0  0  0  0  0  0
   -0.5656    2.0660   -0.1508 H   0  0  0  0  0  0  0  0  0  0  0  0
   -1.3242    1.0272    1.0875 H   0  0  0  0  0  0  0  0  0  0  0  0
   -3.2936    1.4417   -0.2979 H   0  0  0  0  0  0  0  0  0  0  0  0
   -2.2969    1.7775   -1.7243 H   0  0  0  0  0  0  0  0  0  0  0  0
   -2.5834    0.0912   -1.3348 H   0  0  0  0  0  0  0  0  0  0  0  0
   -0.3037   -2.8195    0.6651 H   0  0  0  0  0  0  0  0  0  0  0  0
   -1.5384   -2.8307   -0.5843 H   0  0  0  0  0  0  0  0  0  0  0  0
    0.1891   -2.9747   -1.1586 H   0  0  0  0  0  0  0  0  0  0  0  0
  1  2  3  0
  2  3  1  0
  3  4  3  0
  4  5  1  0
  5  6  1  0
  6  7  1  0
  5  8  1  0
  8  9  1  0
  1 10  1  0
  5 11  1  0
  6 12  1  0
  6 13  1  0
  7 14  1  0
  7 15  1  0
  7 16  1  0
  9 17  1  0
  9 18  1  0
  9 19  1  0
M  END
