
     RDKit          3D

 17 18  0  0  0  0  0  0  0  0999 V2000
    3.2165    0.1078    0.6669 C   0  0  0  0  0  0  0  0  0  0  0  0
    2.1528   -0.3488    0.3607 C   0  0  0  0  0  0  0  0  0  0  0  0
    0.8840   -0.8676   -0.0093 C   0  0  0  0  0  0  0  0  0  0  0  0
    0.2609   -0.3489   -1.1701 O   0  0  0  0  0  0  0  0  0  0  0  0
    0.0851    0.7818   -0.3987 C   0  0  0  0  0  0  0  0  0  0  0  0
   -0.7782    1.0496    0.7099 C   0  0  0  0  0  0  0  0  0  0  0  0
   -2.0706    1.5176    0.3621 O   0  0  0  0  0  0  0  0  0  0  0  0
   -0.3541   -0.3124    0.6477 C   0  0  0  0  0  0  0  0  0  0  0  0
   -1.5336   -1.1941    0.1698 C   0  0  0  0  0  0  0  0  0  0  0  0
    4.1693    0.5225    0.9560 H   0  0  0  0  0  0  0  0  0  0  0  0
    0.9184   -1.9613   -0.1056 H   0  0  0  0  0  0  0  0  0  0  0  0
    1.1072    1.2348   -0.2503 H   0  0  0  0  0  0  0  0  0  0  0  0
   -0.4335    1.6168    1.6277 H   0  0  0  0  0  0  0  0  0  0  0  0
   -2.1945    2.4504    0.5845 H   0  0  0  0  0  0  0  0  0  0  0  0
   -1.2462   -2.2657    0.3182 H   0  0  0  0  0  0  0  0  0  0  0  0
   -1.8063   -0.9590   -0.8634 H   0  0  0  0  0  0  0  0  0  0  0  0
   -2.3773   -1.0234    0.8975 H   0  0  0  0  0  0  0  0  0  0  0  0
  1  2  3  0
  2  3  1  0
  3  4  1  0
  4  5  1  0
  5  6  1  0
  6  7  1  0
  6  8  1  0
  8  9  1  0
  8  3  1  0
  8  5  1  0
  1 10  1  0
  3 11  1  0
  5 12  1  0
  6 13  1  0
  7 14  1  0
  9 15  1  0
  9 16  1  0
  9 17  1  0
M  END
