
     RDKit          3D

 21 22  0  0  0  0  0  0  0  0999 V2000
    3.8994    0.5379    0.3082 C   0  0  0  0  0  0  0  0  0  0  0  0
    2.6961    0.6908    0.4242 C   0  0  0  0  0  0  0  0  0  0  0  0
    1.2689    0.8477    0.5566 C   0  0  0  0  0  0  0  0  0  0  0  0
    0.6321   -0.4827    0.9242 C   0  0  0  0  0  0  0  0  0  0  0  0
    0.9473   -0.8945   -0.4802 C   0  0  0  0  0  0  0  0  0  0  0  0
    0.4270    0.4813   -0.6444 C   0  0  0  0  0  0  0  0  0  0  0  0
   -0.6132    0.1454    0.3838 C   0  0  0  0  0  0  0  0  0  0  0  0
   -1.7505   -0.7054   -0.0172 C   0  0  0  0  0  0  0  0  0  0  0  0
   -2.8590    0.2342   -0.5209 C   0  0  0  0  0  0  0  0  0  0  0  0
    4.9427    0.4127    0.2247 H   0  0  0  0  0  0  0  0  0  0  0  0
    0.8862    1.7257    1.0791 H   0  0  0  0  0  0  0  0  0  0  0  0
    0.7712   -1.0042    1.7639 H   0  0  0  0  0  0  0  0  0  0  0  0
    2.0368   -0.9477   -0.7120 H   0  0  0  0  0  0  0  0  0  0  0  0
    0.4223   -1.7429   -0.9021 H   0  0  0  0  0  0  0  0  0  0  0  0
    0.3088    1.0261   -1.4744 H   0  0  0  0  0  0  0  0  0  0  0  0
   -0.9087    0.9862    1.0380 H   0  0  0  0  0  0  0  0  0  0  0  0
   -2.2068   -1.2850    0.8262 H   0  0  0  0  0  0  0  0  0  0  0  0
   -1.5706   -1.4021   -0.8443 H   0  0  0  0  0  0  0  0  0  0  0  0
   -3.4593    0.6179    0.3167 H   0  0  0  0  0  0  0  0  0  0  0  0
   -3.5398   -0.3084   -1.2124 H   0  0  0  0  0  0  0  0  0  0  0  0
   -2.3308    1.0672   -1.0379 H   0  0  0  0  0  0  0  0  0  0  0  0
  1  2  3  0
  2  3  1  0
  3  4  1  0
  4  5  1  0
  5  6  1  0
  6  7  1  0
  7  8  1  0
  8  9  1  0
  6  3  1  0
  7  4  1  0
  1 10  1  0
  3 11  1  0
  4 12  1  0
  5 13  1  0
  5 14  1  0
  6 15  1  0
  7 16  1  0
  8 17  1  0
  8 18  1  0
  9 19  1  0
  9 20  1  0
  9 21  1  0
M  END
