
     RDKit          3D

 15 14  0  0  0  0  0  0  0  0999 V2000
    3.5934   -0.1745   -0.4296 C   0  0  0  0  0  0  0  0  0  0  0  0
    2.6070   -0.6870   -0.9229 C   0  0  0  0  0  0  0  0  0  0  0  0
    1.4003   -1.3039   -1.4980 C   0  0  0  0  0  0  0  0  0  0  0  0
    0.2904   -0.9434   -0.6196 C   0  0  0  0  0  0  0  0  0  0  0  0
   -0.6506   -0.6582    0.1105 C   0  0  0  0  0  0  0  0  0  0  0  0
   -1.7607   -0.3108    0.9521 C   0  0  0  0  0  0  0  0  0  0  0  0
   -2.4994   -1.1921    1.4631 O   0  0  0  0  0  0  0  0  0  0  0  0
   -2.0698    1.0959    1.2441 C   0  0  0  0  0  0  0  0  0  0  0  0
   -1.2117    1.9886    0.6452 O   0  0  0  0  0  0  0  0  0  0  0  0
    4.4480    0.2842    0.0052 H   0  0  0  0  0  0  0  0  0  0  0  0
    1.5551   -2.4102   -1.5515 H   0  0  0  0  0  0  0  0  0  0  0  0
    1.1891   -0.9263   -2.5116 H   0  0  0  0  0  0  0  0  0  0  0  0
   -3.1065    1.2879    0.8908 H   0  0  0  0  0  0  0  0  0  0  0  0
   -2.0843    1.2919    2.3383 H   0  0  0  0  0  0  0  0  0  0  0  0
   -1.7004    2.6578    0.0842 H   0  0  0  0  0  0  0  0  0  0  0  0
  1  2  3  0
  2  3  1  0
  3  4  1  0
  4  5  3  0
  5  6  1  0
  6  7  2  0
  6  8  1  0
  8  9  1  0
  1 10  1  0
  3 11  1  0
  3 12  1  0
  8 13  1  0
  8 14  1  0
  9 15  1  0
M  END
