
     RDKit          3D

 19 18  0  0  0  0  0  0  0  0999 V2000
   -3.2638   -1.5891   -0.7084 C   0  0  0  0  0  0  0  0  0  0  0  0
   -2.4669   -1.0998   -0.1259 C   0  0  0  0  0  0  0  0  0  0  0  0
   -1.4141   -0.4446    0.6753 C   0  0  0  0  0  0  0  0  0  0  0  0
   -0.1588   -0.4837   -0.1290 C   0  0  0  0  0  0  0  0  0  0  0  0
    0.8642   -0.5119   -0.8027 C   0  0  0  0  0  0  0  0  0  0  0  0
    2.1019   -0.5249   -1.6013 C   0  0  0  0  0  0  0  0  0  0  0  0
    3.1192    0.4356   -1.0665 C   0  0  0  0  0  0  0  0  0  0  0  0
   -1.6883    0.9072    0.8314 O   0  0  0  0  0  0  0  0  0  0  0  0
   -1.5799    1.3835    2.1099 C   0  0  0  0  0  0  0  0  0  0  0  0
   -4.1187   -2.1127   -1.3089 H   0  0  0  0  0  0  0  0  0  0  0  0
   -1.2006   -0.9785    1.6031 H   0  0  0  0  0  0  0  0  0  0  0  0
    2.4963   -1.5622   -1.5994 H   0  0  0  0  0  0  0  0  0  0  0  0
    1.8451   -0.2837   -2.6470 H   0  0  0  0  0  0  0  0  0  0  0  0
    3.7216   -0.1238   -0.2911 H   0  0  0  0  0  0  0  0  0  0  0  0
    3.7690    0.9064   -1.8121 H   0  0  0  0  0  0  0  0  0  0  0  0
    2.5734    1.2390   -0.5211 H   0  0  0  0  0  0  0  0  0  0  0  0
   -2.2234    0.9390    2.8610 H   0  0  0  0  0  0  0  0  0  0  0  0
   -0.5076    1.4274    2.4567 H   0  0  0  0  0  0  0  0  0  0  0  0
   -1.8686    2.4767    2.0761 H   0  0  0  0  0  0  0  0  0  0  0  0
  1  2  3  0
  2  3  1  0
  3  4  1  0
  4  5  3  0
  5  6  1  0
  6  7  1  0
  3  8  1  0
  8  9  1  0
  1 10  1  0
  3 11  1  0
  6 12  1  0
  6 13  1  0
  7 14  1  0
  7 15  1  0
  7 16  1  0
  9 17  1  0
  9 18  1  0
  9 19  1  0
M  END
