
     RDKit          3D

 21 22  0  0  0  0  0  0  0  0999 V2000
    3.3373   -0.2668   -1.3549 C   0  0  0  0  0  0  0  0  0  0  0  0
    2.2443   -0.6265   -1.4992 C   0  0  0  0  0  0  0  0  0  0  0  0
    0.8888   -1.0941   -1.6853 C   0  0  0  0  0  0  0  0  0  0  0  0
    0.1345   -1.0826   -0.4030 C   0  0  0  0  0  0  0  0  0  0  0  0
    0.0564    0.2224    0.2797 C   0  0  0  0  0  0  0  0  0  0  0  0
   -0.6836    0.1848    1.5736 C   0  0  0  0  0  0  0  0  0  0  0  0
   -0.7862    1.6962    1.4127 C   0  0  0  0  0  0  0  0  0  0  0  0
   -1.0894    1.1270    0.0334 C   0  0  0  0  0  0  0  0  0  0  0  0
   -1.9565    0.1901    0.7763 C   0  0  0  0  0  0  0  0  0  0  0  0
    4.4180    0.0913   -1.2317 H   0  0  0  0  0  0  0  0  0  0  0  0
    0.8850   -2.1383   -2.1004 H   0  0  0  0  0  0  0  0  0  0  0  0
    0.4308   -0.4291   -2.4557 H   0  0  0  0  0  0  0  0  0  0  0  0
   -0.9288   -1.3603   -0.7175 H   0  0  0  0  0  0  0  0  0  0  0  0
    0.4617   -1.9063    0.2987 H   0  0  0  0  0  0  0  0  0  0  0  0
    1.0231    0.8015    0.3434 H   0  0  0  0  0  0  0  0  0  0  0  0
   -0.4598   -0.2903    2.4230 H   0  0  0  0  0  0  0  0  0  0  0  0
   -1.7216    2.0913    1.8692 H   0  0  0  0  0  0  0  0  0  0  0  0
    0.1377    2.2463    1.5205 H   0  0  0  0  0  0  0  0  0  0  0  0
   -1.2906    1.6730   -0.7885 H   0  0  0  0  0  0  0  0  0  0  0  0
   -2.7464    0.7785    1.3358 H   0  0  0  0  0  0  0  0  0  0  0  0
   -2.3544   -0.7136    0.3698 H   0  0  0  0  0  0  0  0  0  0  0  0
  1  2  3  0
  2  3  1  0
  3  4  1  0
  4  5  1  0
  5  6  1  0
  6  7  1  0
  7  8  1  0
  8  9  1  0
  8  5  1  0
  9  6  1  0
  1 10  1  0
  3 11  1  0
  3 12  1  0
  4 13  1  0
  4 14  1  0
  5 15  1  0
  6 16  1  0
  7 17  1  0
  7 18  1  0
  8 19  1  0
  9 20  1  0
  9 21  1  0
M  END
