
     RDKit          3D

 23 22  0  0  0  0  0  0  0  0999 V2000
    4.5228    0.3105   -2.0380 C   0  0  0  0  0  0  0  0  0  0  0  0
    3.7170    0.2087   -1.1477 C   0  0  0  0  0  0  0  0  0  0  0  0
    2.7395    0.0919   -0.0421 C   0  0  0  0  0  0  0  0  0  0  0  0
    1.4546    0.2551   -0.5577 O   0  0  0  0  0  0  0  0  0  0  0  0
    0.5650    0.1390    0.5094 C   0  0  0  0  0  0  0  0  0  0  0  0
   -0.8750    0.3019    0.0559 C   0  0  0  0  0  0  0  0  0  0  0  0
   -1.1775   -0.7791   -0.9594 C   0  0  0  0  0  0  0  0  0  0  0  0
   -1.7479    0.0596    1.2725 C   0  0  0  0  0  0  0  0  0  0  0  0
   -3.2169    0.1948    0.9453 C   0  0  0  0  0  0  0  0  0  0  0  0
    5.2420    0.4170   -2.8267 H   0  0  0  0  0  0  0  0  0  0  0  0
    2.8801   -0.9089    0.4201 H   0  0  0  0  0  0  0  0  0  0  0  0
    2.9932    0.8571    0.7195 H   0  0  0  0  0  0  0  0  0  0  0  0
    0.6879   -0.8454    0.9741 H   0  0  0  0  0  0  0  0  0  0  0  0
    0.8483    0.9074    1.2528 H   0  0  0  0  0  0  0  0  0  0  0  0
   -1.0734    1.2955   -0.3568 H   0  0  0  0  0  0  0  0  0  0  0  0
   -1.0907   -1.7638   -0.4352 H   0  0  0  0  0  0  0  0  0  0  0  0
   -2.2095   -0.6943   -1.3432 H   0  0  0  0  0  0  0  0  0  0  0  0
   -0.4605   -0.7968   -1.7983 H   0  0  0  0  0  0  0  0  0  0  0  0
   -1.5096   -0.9373    1.6764 H   0  0  0  0  0  0  0  0  0  0  0  0
   -1.4933    0.8545    2.0035 H   0  0  0  0  0  0  0  0  0  0  0  0
   -3.7186   -0.7668    0.7719 H   0  0  0  0  0  0  0  0  0  0  0  0
   -3.7414    0.6921    1.8007 H   0  0  0  0  0  0  0  0  0  0  0  0
   -3.3362    0.9075    0.0836 H   0  0  0  0  0  0  0  0  0  0  0  0
  1  2  3  0
  2  3  1  0
  3  4  1  0
  4  5  1  0
  5  6  1  0
  6  7  1  0
  6  8  1  0
  8  9  1  0
  1 10  1  0
  3 11  1  0
  3 12  1  0
  5 13  1  0
  5 14  1  0
  6 15  1  0
  7 16  1  0
  7 17  1  0
  7 18  1  0
  8 19  1  0
  8 20  1  0
  9 21  1  0
  9 22  1  0
  9 23  1  0
M  END
