
     RDKit          3D

 18 18  0  0  0  0  0  0  0  0999 V2000
   -2.4448   -3.0406    0.0249 C   0  0  0  0  0  0  0  0  0  0  0  0
   -1.6106   -2.2882   -0.1153 C   0  0  0  0  0  0  0  0  0  0  0  0
   -0.5274   -1.3120   -0.2718 C   0  0  0  0  0  0  0  0  0  0  0  0
   -1.0412    0.0819   -0.2887 C   0  0  0  0  0  0  0  0  0  0  0  0
    0.1107    1.0835   -0.5003 C   0  0  0  0  0  0  0  0  0  0  0  0
    1.0645    1.0533    0.6151 C   0  0  0  0  0  0  0  0  0  0  0  0
    2.2580    1.8682    0.6415 C   0  0  0  0  0  0  0  0  0  0  0  0
    2.2988    0.3762    0.4932 O   0  0  0  0  0  0  0  0  0  0  0  0
   -3.2993   -3.8126    0.1891 H   0  0  0  0  0  0  0  0  0  0  0  0
    0.1360   -1.5705   -1.0967 H   0  0  0  0  0  0  0  0  0  0  0  0
    0.0958   -1.4774    0.6641 H   0  0  0  0  0  0  0  0  0  0  0  0
   -1.3838    0.2775    0.7983 H   0  0  0  0  0  0  0  0  0  0  0  0
   -1.9052    0.2965   -0.9223 H   0  0  0  0  0  0  0  0  0  0  0  0
    0.6059    0.8785   -1.4803 H   0  0  0  0  0  0  0  0  0  0  0  0
   -0.2883    2.1291   -0.6107 H   0  0  0  0  0  0  0  0  0  0  0  0
    0.5524    0.9348    1.6276 H   0  0  0  0  0  0  0  0  0  0  0  0
    2.6343    2.1796    1.6156 H   0  0  0  0  0  0  0  0  0  0  0  0
    2.7442    2.3422   -0.2264 H   0  0  0  0  0  0  0  0  0  0  0  0
  1  2  3  0
  2  3  1  0
  3  4  1  0
  4  5  1  0
  5  6  1  0
  6  7  1  0
  7  8  1  0
  8  6  1  0
  1  9  1  0
  3 10  1  0
  3 11  1  0
  4 12  1  0
  4 13  1  0
  5 14  1  0
  5 15  1  0
  6 16  1  0
  7 17  1  0
  7 18  1  0
M  END
