
     RDKit          3D

 21 21  0  0  0  0  0  0  0  0999 V2000
   -1.7665    1.4952    2.5630 C   0  0  0  0  0  0  0  0  0  0  0  0
   -1.2247    1.0475    1.6752 C   0  0  0  0  0  0  0  0  0  0  0  0
   -0.3970    0.4012    0.3449 C   0  0  0  0  0  0  0  0  0  0  0  0
   -1.0750   -0.8740    0.3436 C   0  0  0  0  0  0  0  0  0  0  0  0
   -0.9098   -1.9736   -0.5819 C   0  0  0  0  0  0  0  0  0  0  0  0
    0.2219    1.5043   -0.1512 C   0  0  0  0  0  0  0  0  0  0  0  0
    1.5929    0.7822    0.0897 C   0  0  0  0  0  0  0  0  0  0  0  0
    1.8921   -0.1239   -1.0527 C   0  0  0  0  0  0  0  0  0  0  0  0
    0.8729    0.1314    1.0966 O   0  0  0  0  0  0  0  0  0  0  0  0
   -2.2523    1.8955    3.3870 H   0  0  0  0  0  0  0  0  0  0  0  0
   -2.2176   -0.7144    0.4485 H   0  0  0  0  0  0  0  0  0  0  0  0
   -0.9514   -1.3621    1.4353 H   0  0  0  0  0  0  0  0  0  0  0  0
   -0.6533   -1.6905   -1.6249 H   0  0  0  0  0  0  0  0  0  0  0  0
   -1.8573   -2.5836   -0.7220 H   0  0  0  0  0  0  0  0  0  0  0  0
   -0.1324   -2.6955   -0.2995 H   0  0  0  0  0  0  0  0  0  0  0  0
    0.2704    1.9441   -1.1257 H   0  0  0  0  0  0  0  0  0  0  0  0
    0.2468    2.4243    0.5865 H   0  0  0  0  0  0  0  0  0  0  0  0
    2.3694    1.4446    0.3984 H   0  0  0  0  0  0  0  0  0  0  0  0
    1.2458    0.0829   -1.9413 H   0  0  0  0  0  0  0  0  0  0  0  0
    1.7802   -1.2022   -0.7955 H   0  0  0  0  0  0  0  0  0  0  0  0
    2.9449    0.0667   -1.3474 H   0  0  0  0  0  0  0  0  0  0  0  0
  1  2  3  0
  2  3  1  0
  3  4  1  0
  4  5  1  0
  3  6  1  0
  6  7  1  0
  7  8  1  0
  7  9  1  0
  9  3  1  0
  1 10  1  0
  4 11  1  0
  4 12  1  0
  5 13  1  0
  5 14  1  0
  5 15  1  0
  6 16  1  0
  6 17  1  0
  7 18  1  0
  8 19  1  0
  8 20  1  0
  8 21  1  0
M  END
