
     RDKit          3D

 17 16  0  0  0  0  0  0  0  0999 V2000
    2.7339   -0.3209   -2.3356 C   0  0  0  0  0  0  0  0  0  0  0  0
    1.5396   -0.0855   -1.8744 C   0  0  0  0  0  0  0  0  0  0  0  0
    0.2830    0.1877   -1.3907 C   0  0  0  0  0  0  0  0  0  0  0  0
   -0.6409    0.4844   -2.1917 O   0  0  0  0  0  0  0  0  0  0  0  0
   -0.1266    0.1441    0.0391 C   0  0  0  0  0  0  0  0  0  0  0  0
    0.1749    1.4169    0.7943 C   0  0  0  0  0  0  0  0  0  0  0  0
   -0.2573    1.0963    2.1300 O   0  0  0  0  0  0  0  0  0  0  0  0
   -1.5149   -0.0510    0.1455 O   0  0  0  0  0  0  0  0  0  0  0  0
   -1.8274   -1.3447    0.6168 C   0  0  0  0  0  0  0  0  0  0  0  0
    3.6769   -0.4920   -2.6887 H   0  0  0  0  0  0  0  0  0  0  0  0
    0.4147   -0.6801    0.5051 H   0  0  0  0  0  0  0  0  0  0  0  0
   -0.4387    2.2835    0.5865 H   0  0  0  0  0  0  0  0  0  0  0  0
    1.2729    1.6137    0.8734 H   0  0  0  0  0  0  0  0  0  0  0  0
    0.5127    0.7643    2.6414 H   0  0  0  0  0  0  0  0  0  0  0  0
   -2.9160   -1.4085    0.6703 H   0  0  0  0  0  0  0  0  0  0  0  0
   -1.4743   -2.1070   -0.1301 H   0  0  0  0  0  0  0  0  0  0  0  0
   -1.4124   -1.5013    1.6086 H   0  0  0  0  0  0  0  0  0  0  0  0
  1  2  3  0
  2  3  1  0
  3  4  2  0
  3  5  1  0
  5  6  1  0
  6  7  1  0
  5  8  1  0
  8  9  1  0
  1 10  1  0
  5 11  1  0
  6 12  1  0
  6 13  1  0
  7 14  1  0
  9 15  1  0
  9 16  1  0
  9 17  1  0
M  END
