
     RDKit          3D

 19 18  0  0  0  0  0  0  0  0999 V2000
    2.7281    0.9895    1.4242 C   0  0  0  0  0  0  0  0  0  0  0  0
    1.8878    0.2033    1.0061 C   0  0  0  0  0  0  0  0  0  0  0  0
    0.9047   -0.7137    0.4916 C   0  0  0  0  0  0  0  0  0  0  0  0
    1.1698   -1.9544    0.5533 O   0  0  0  0  0  0  0  0  0  0  0  0
   -0.3636   -0.2024   -0.0843 C   0  0  0  0  0  0  0  0  0  0  0  0
   -1.1444    0.5918    0.9480 C   0  0  0  0  0  0  0  0  0  0  0  0
   -1.1890   -1.3940   -0.5084 C   0  0  0  0  0  0  0  0  0  0  0  0
   -0.0989    0.6473   -1.3030 C   0  0  0  0  0  0  0  0  0  0  0  0
    0.5514   -0.0784   -2.2879 O   0  0  0  0  0  0  0  0  0  0  0  0
    3.4575    1.6639    1.8038 H   0  0  0  0  0  0  0  0  0  0  0  0
   -0.4049    1.2383    1.4670 H   0  0  0  0  0  0  0  0  0  0  0  0
   -1.5615   -0.1264    1.6617 H   0  0  0  0  0  0  0  0  0  0  0  0
   -1.9504    1.1742    0.5014 H   0  0  0  0  0  0  0  0  0  0  0  0
   -1.8941   -1.6224    0.3277 H   0  0  0  0  0  0  0  0  0  0  0  0
   -0.5060   -2.2377   -0.7165 H   0  0  0  0  0  0  0  0  0  0  0  0
   -1.7238   -1.1161   -1.4248 H   0  0  0  0  0  0  0  0  0  0  0  0
    0.5339    1.5066   -0.9912 H   0  0  0  0  0  0  0  0  0  0  0  0
   -1.0838    0.9813   -1.6878 H   0  0  0  0  0  0  0  0  0  0  0  0
    0.6870    0.4494   -3.0870 H   0  0  0  0  0  0  0  0  0  0  0  0
  1  2  3  0
  2  3  1  0
  3  4  2  0
  3  5  1  0
  5  6  1  0
  5  7  1  0
  5  8  1  0
  8  9  1  0
  1 10  1  0
  6 11  1  0
  6 12  1  0
  6 13  1  0
  7 14  1  0
  7 15  1  0
  7 16  1  0
  8 17  1  0
  8 18  1  0
  9 19  1  0
M  END
