
     RDKit          3D

 14 15  0  0  0  0  0  0  0  0999 V2000
    2.7564    0.1096   -0.1561 C   0  0  0  0  0  0  0  0  0  0  0  0
    1.5712    0.1477   -0.3867 C   0  0  0  0  0  0  0  0  0  0  0  0
    0.1340    0.1775   -0.6863 C   0  0  0  0  0  0  0  0  0  0  0  0
   -0.4653    1.3655   -1.0126 O   0  0  0  0  0  0  0  0  0  0  0  0
   -1.1824    1.4224    0.2026 C   0  0  0  0  0  0  0  0  0  0  0  0
   -0.7808    0.0102    0.5464 C   0  0  0  0  0  0  0  0  0  0  0  0
   -0.6909   -1.0340   -0.4918 C   0  0  0  0  0  0  0  0  0  0  0  0
   -0.0130   -2.1950   -0.1302 O   0  0  0  0  0  0  0  0  0  0  0  0
    3.8157    0.0800    0.0314 H   0  0  0  0  0  0  0  0  0  0  0  0
   -2.2522    1.6032    0.1023 H   0  0  0  0  0  0  0  0  0  0  0  0
   -0.7036    2.1561    0.8871 H   0  0  0  0  0  0  0  0  0  0  0  0
   -0.2685   -0.1536    1.5144 H   0  0  0  0  0  0  0  0  0  0  0  0
   -1.5438   -1.2227   -1.1788 H   0  0  0  0  0  0  0  0  0  0  0  0
   -0.3768   -2.4668    0.7583 H   0  0  0  0  0  0  0  0  0  0  0  0
  1  2  3  0
  2  3  1  0
  3  4  1  0
  4  5  1  0
  5  6  1  0
  6  7  1  0
  7  8  1  0
  6  3  1  0
  7  3  1  0
  1  9  1  0
  5 10  1  0
  5 11  1  0
  6 12  1  0
  7 13  1  0
  8 14  1  0
M  END
