
     RDKit          3D

 12 12  0  0  0  0  0  0  0  0999 V2000
    2.1099    0.4759   -1.3789 C   0  0  0  0  0  0  0  0  0  0  0  0
    1.0635   -0.1275   -1.1759 C   0  0  0  0  0  0  0  0  0  0  0  0
   -0.1983   -0.8349   -0.9515 C   0  0  0  0  0  0  0  0  0  0  0  0
   -0.1774   -1.6210    0.2574 O   0  0  0  0  0  0  0  0  0  0  0  0
   -0.9915   -0.4899    0.1790 C   0  0  0  0  0  0  0  0  0  0  0  0
   -0.5938    0.6974    1.0330 C   0  0  0  0  0  0  0  0  0  0  0  0
    3.0059    1.0107   -1.5591 H   0  0  0  0  0  0  0  0  0  0  0  0
   -0.6220   -1.4208   -1.7885 H   0  0  0  0  0  0  0  0  0  0  0  0
   -2.1015   -0.6326    0.1241 H   0  0  0  0  0  0  0  0  0  0  0  0
    0.3233    0.4383    1.6051 H   0  0  0  0  0  0  0  0  0  0  0  0
   -1.4180    0.9633    1.7460 H   0  0  0  0  0  0  0  0  0  0  0  0
   -0.4002    1.5412    0.3364 H   0  0  0  0  0  0  0  0  0  0  0  0
  1  2  3  0
  2  3  1  0
  3  4  1  0
  4  5  1  0
  5  6  1  0
  5  3  1  0
  1  7  1  0
  3  8  1  0
  5  9  1  0
  6 10  1  0
  6 11  1  0
  6 12  1  0
M  END
