
     RDKit          3D

 15 16  0  0  0  0  0  0  0  0999 V2000
    2.6155    1.0863    0.7826 C   0  0  0  0  0  0  0  0  0  0  0  0
    1.4431    0.8980    0.5484 C   0  0  0  0  0  0  0  0  0  0  0  0
    0.0280    0.6743    0.2915 C   0  0  0  0  0  0  0  0  0  0  0  0
   -0.9002    0.2303    1.3278 C   0  0  0  0  0  0  0  0  0  0  0  0
   -0.4156   -0.8169    0.4310 C   0  0  0  0  0  0  0  0  0  0  0  0
   -0.4875   -0.7650   -1.0543 C   0  0  0  0  0  0  0  0  0  0  0  0
   -1.5803   -1.3940   -1.6300 O   0  0  0  0  0  0  0  0  0  0  0  0
   -0.4783    0.6996   -1.0970 C   0  0  0  0  0  0  0  0  0  0  0  0
   -0.7538    1.5583   -1.8921 O   0  0  0  0  0  0  0  0  0  0  0  0
    3.6453    1.2350    0.9857 H   0  0  0  0  0  0  0  0  0  0  0  0
   -0.5624    0.2243    2.3631 H   0  0  0  0  0  0  0  0  0  0  0  0
   -1.9653    0.5353    1.2117 H   0  0  0  0  0  0  0  0  0  0  0  0
    0.3497   -1.5119    0.8350 H   0  0  0  0  0  0  0  0  0  0  0  0
    0.4528   -1.1518   -1.5514 H   0  0  0  0  0  0  0  0  0  0  0  0
   -1.3910   -1.5018   -2.5830 H   0  0  0  0  0  0  0  0  0  0  0  0
  1  2  3  0
  2  3  1  0
  3  4  1  0
  4  5  1  0
  5  6  1  0
  6  7  1  0
  6  8  1  0
  8  9  2  0
  5  3  1  0
  8  3  1  0
  1 10  1  0
  4 11  1  0
  4 12  1  0
  5 13  1  0
  6 14  1  0
  7 15  1  0
M  END
