
     RDKit          3D

 23 22  0  0  0  0  0  0  0  0999 V2000
   -2.7752    2.0196   -0.0527 C   0  0  0  0  0  0  0  0  0  0  0  0
   -1.7417    1.4970   -0.3266 C   0  0  0  0  0  0  0  0  0  0  0  0
   -0.4539    0.8411   -0.6916 C   0  0  0  0  0  0  0  0  0  0  0  0
   -0.3030   -0.4558    0.0781 C   0  0  0  0  0  0  0  0  0  0  0  0
   -1.5362   -1.2904   -0.3639 C   0  0  0  0  0  0  0  0  0  0  0  0
   -0.5488   -0.1820    1.5258 C   0  0  0  0  0  0  0  0  0  0  0  0
    0.7431   -1.1505   -0.2882 O   0  0  0  0  0  0  0  0  0  0  0  0
    2.0219   -0.8655   -0.2588 C   0  0  0  0  0  0  0  0  0  0  0  0
    2.5180    0.3146   -1.0632 C   0  0  0  0  0  0  0  0  0  0  0  0
   -3.6935    2.5009    0.1888 H   0  0  0  0  0  0  0  0  0  0  0  0
   -0.4460    0.6671   -1.7956 H   0  0  0  0  0  0  0  0  0  0  0  0
    0.3417    1.5780   -0.4824 H   0  0  0  0  0  0  0  0  0  0  0  0
   -1.6934   -2.0776    0.3974 H   0  0  0  0  0  0  0  0  0  0  0  0
   -1.2784   -1.8029   -1.3136 H   0  0  0  0  0  0  0  0  0  0  0  0
   -2.4290   -0.6444   -0.4411 H   0  0  0  0  0  0  0  0  0  0  0  0
   -0.6721   -1.1197    2.1080 H   0  0  0  0  0  0  0  0  0  0  0  0
   -1.5255    0.3492    1.6011 H   0  0  0  0  0  0  0  0  0  0  0  0
    0.1954    0.4321    2.0280 H   0  0  0  0  0  0  0  0  0  0  0  0
    2.5736   -1.7558   -0.7090 H   0  0  0  0  0  0  0  0  0  0  0  0
    2.5208   -0.7587    0.7282 H   0  0  0  0  0  0  0  0  0  0  0  0
    1.9270    0.5646   -1.9390 H   0  0  0  0  0  0  0  0  0  0  0  0
    2.6783    1.2277   -0.4131 H   0  0  0  0  0  0  0  0  0  0  0  0
    3.5769    0.1112   -1.4290 H   0  0  0  0  0  0  0  0  0  0  0  0
  1  2  3  0
  2  3  1  0
  3  4  1  0
  4  5  1  0
  4  6  1  0
  4  7  1  0
  7  8  1  0
  8  9  1  0
  1 10  1  0
  3 11  1  0
  3 12  1  0
  5 13  1  0
  5 14  1  0
  5 15  1  0
  6 16  1  0
  6 17  1  0
  6 18  1  0
  8 19  1  0
  8 20  1  0
  9 21  1  0
  9 22  1  0
  9 23  1  0
M  END
