
     RDKit          3D

 15 14  0  0  0  0  0  0  0  0999 V2000
   -0.0698   -2.8180    0.0035 C   0  0  0  0  0  0  0  0  0  0  0  0
   -0.0036   -1.4498    0.0353 C   0  0  0  0  0  0  0  0  0  0  0  0
    0.0622   -0.1457    0.0866 C   0  0  0  0  0  0  0  0  0  0  0  0
    1.3361    0.3231   -0.7161 C   0  0  0  0  0  0  0  0  0  0  0  0
    1.3981    1.5349   -0.7266 O   0  0  0  0  0  0  0  0  0  0  0  0
    0.4604    0.3443    1.5140 C   0  0  0  0  0  0  0  0  0  0  0  0
    1.1889    0.9743    2.0538 O   0  0  0  0  0  0  0  0  0  0  0  0
   -1.1174    0.6110   -0.4052 C   0  0  0  0  0  0  0  0  0  0  0  0
   -0.9765    1.9930   -0.3201 O   0  0  0  0  0  0  0  0  0  0  0  0
   -0.1015   -3.8381   -0.0174 H   0  0  0  0  0  0  0  0  0  0  0  0
    1.9963   -0.3670   -1.1463 H   0  0  0  0  0  0  0  0  0  0  0  0
   -0.3160   -0.1768    2.2876 H   0  0  0  0  0  0  0  0  0  0  0  0
   -2.0403    0.2671    0.0753 H   0  0  0  0  0  0  0  0  0  0  0  0
   -1.2361    0.4287   -1.5472 H   0  0  0  0  0  0  0  0  0  0  0  0
   -0.5808    2.3189   -1.1772 H   0  0  0  0  0  0  0  0  0  0  0  0
  1  2  3  0
  2  3  1  0
  3  4  1  0
  4  5  2  0
  3  6  1  0
  6  7  2  0
  3  8  1  0
  8  9  1  0
  1 10  1  0
  4 11  1  0
  6 12  1  0
  8 13  1  0
  8 14  1  0
  9 15  1  0
M  END
