
     RDKit          3D

 20 19  0  0  0  0  0  0  0  0999 V2000
    1.1373    2.3637   -0.2050 C   0  0  0  0  0  0  0  0  0  0  0  0
    0.4640    1.3474   -0.2323 C   0  0  0  0  0  0  0  0  0  0  0  0
   -0.3443    0.1221   -0.2844 C   0  0  0  0  0  0  0  0  0  0  0  0
   -0.6410   -0.1436   -1.7513 C   0  0  0  0  0  0  0  0  0  0  0  0
   -1.6331    0.3720    0.4297 C   0  0  0  0  0  0  0  0  0  0  0  0
    0.4181   -1.0572    0.2420 C   0  0  0  0  0  0  0  0  0  0  0  0
    0.8468   -0.8731    1.6802 C   0  0  0  0  0  0  0  0  0  0  0  0
    1.5672   -1.2075   -0.5333 O   0  0  0  0  0  0  0  0  0  0  0  0
    1.7189    3.2496   -0.1959 H   0  0  0  0  0  0  0  0  0  0  0  0
   -1.0959    0.7211   -2.2539 H   0  0  0  0  0  0  0  0  0  0  0  0
   -1.3914   -0.9811   -1.7582 H   0  0  0  0  0  0  0  0  0  0  0  0
    0.2679   -0.5205   -2.2625 H   0  0  0  0  0  0  0  0  0  0  0  0
   -2.2104   -0.5249    0.6694 H   0  0  0  0  0  0  0  0  0  0  0  0
   -2.2790    0.9764   -0.2728 H   0  0  0  0  0  0  0  0  0  0  0  0
   -1.4953    1.0221    1.3397 H   0  0  0  0  0  0  0  0  0  0  0  0
   -0.2017   -1.9504    0.1133 H   0  0  0  0  0  0  0  0  0  0  0  0
    0.0272   -0.9823    2.3983 H   0  0  0  0  0  0  0  0  0  0  0  0
    1.4260    0.0647    1.7906 H   0  0  0  0  0  0  0  0  0  0  0  0
    1.5769   -1.7038    1.8925 H   0  0  0  0  0  0  0  0  0  0  0  0
    1.8415   -0.2947   -0.8060 H   0  0  0  0  0  0  0  0  0  0  0  0
  1  2  3  0
  2  3  1  0
  3  4  1  0
  3  5  1  0
  3  6  1  0
  6  7  1  0
  6  8  1  0
  1  9  1  0
  4 10  1  0
  4 11  1  0
  4 12  1  0
  5 13  1  0
  5 14  1  0
  5 15  1  0
  6 16  1  0
  7 17  1  0
  7 18  1  0
  7 19  1  0
  8 20  1  0
M  END
