
     RDKit          3D

 23 22  0  0  0  0  0  0  0  0999 V2000
   -0.7538    2.7494   -0.3598 C   0  0  0  0  0  0  0  0  0  0  0  0
   -0.5538    1.6129   -0.0075 C   0  0  0  0  0  0  0  0  0  0  0  0
   -0.2858    0.2355    0.4249 C   0  0  0  0  0  0  0  0  0  0  0  0
   -0.7401    0.0557    1.8583 C   0  0  0  0  0  0  0  0  0  0  0  0
   -1.0237   -0.6925   -0.4739 C   0  0  0  0  0  0  0  0  0  0  0  0
   -0.8448   -2.1404   -0.1525 C   0  0  0  0  0  0  0  0  0  0  0  0
    1.2105    0.0463    0.3912 C   0  0  0  0  0  0  0  0  0  0  0  0
    1.7901    0.2561   -0.9843 C   0  0  0  0  0  0  0  0  0  0  0  0
    1.5489    1.5270   -1.4675 O   0  0  0  0  0  0  0  0  0  0  0  0
   -0.9366    3.7651   -0.6560 H   0  0  0  0  0  0  0  0  0  0  0  0
   -1.8491    0.0748    1.9148 H   0  0  0  0  0  0  0  0  0  0  0  0
   -0.2945   -0.8391    2.3229 H   0  0  0  0  0  0  0  0  0  0  0  0
   -0.3840    0.9699    2.4063 H   0  0  0  0  0  0  0  0  0  0  0  0
   -0.7782   -0.4903   -1.5368 H   0  0  0  0  0  0  0  0  0  0  0  0
   -2.1111   -0.4616   -0.3710 H   0  0  0  0  0  0  0  0  0  0  0  0
   -1.2002   -2.7200   -1.0513 H   0  0  0  0  0  0  0  0  0  0  0  0
    0.1817   -2.4282    0.1223 H   0  0  0  0  0  0  0  0  0  0  0  0
   -1.5244   -2.3956    0.7041 H   0  0  0  0  0  0  0  0  0  0  0  0
    1.7134    0.7501    1.0751 H   0  0  0  0  0  0  0  0  0  0  0  0
    1.4777   -0.9749    0.7292 H   0  0  0  0  0  0  0  0  0  0  0  0
    2.8904    0.1433   -0.8899 H   0  0  0  0  0  0  0  0  0  0  0  0
    1.4661   -0.5209   -1.7082 H   0  0  0  0  0  0  0  0  0  0  0  0
    1.0014    1.4775   -2.2902 H   0  0  0  0  0  0  0  0  0  0  0  0
  1  2  3  0
  2  3  1  0
  3  4  1  0
  3  5  1  0
  5  6  1  0
  3  7  1  0
  7  8  1  0
  8  9  1  0
  1 10  1  0
  4 11  1  0
  4 12  1  0
  4 13  1  0
  5 14  1  0
  5 15  1  0
  6 16  1  0
  6 17  1  0
  6 18  1  0
  7 19  1  0
  7 20  1  0
  8 21  1  0
  8 22  1  0
  9 23  1  0
M  END
