
     RDKit          3D

 23 22  0  0  0  0  0  0  0  0999 V2000
    3.8038   -0.4094    0.0838 C   0  0  0  0  0  0  0  0  0  0  0  0
    2.6176   -0.6469    0.3130 C   0  0  0  0  0  0  0  0  0  0  0  0
    1.2112   -0.9482    0.5689 C   0  0  0  0  0  0  0  0  0  0  0  0
    0.2923   -0.0794   -0.2103 C   0  0  0  0  0  0  0  0  0  0  0  0
    0.5366   -0.2697   -1.6924 C   0  0  0  0  0  0  0  0  0  0  0  0
   -1.1427   -0.1430    0.1545 C   0  0  0  0  0  0  0  0  0  0  0  0
   -1.9760    0.7934   -0.7121 C   0  0  0  0  0  0  0  0  0  0  0  0
   -1.4682    0.1605    1.5781 C   0  0  0  0  0  0  0  0  0  0  0  0
   -1.0933    1.4228    1.9928 O   0  0  0  0  0  0  0  0  0  0  0  0
    4.8360   -0.1909   -0.1014 H   0  0  0  0  0  0  0  0  0  0  0  0
    1.0493   -0.9569    1.6550 H   0  0  0  0  0  0  0  0  0  0  0  0
    1.0796   -2.0231    0.2427 H   0  0  0  0  0  0  0  0  0  0  0  0
    0.6311    0.9843   -0.0095 H   0  0  0  0  0  0  0  0  0  0  0  0
    0.5339    0.7034   -2.2467 H   0  0  0  0  0  0  0  0  0  0  0  0
    1.4909   -0.7898   -1.8948 H   0  0  0  0  0  0  0  0  0  0  0  0
   -0.3000   -0.8652   -2.1459 H   0  0  0  0  0  0  0  0  0  0  0  0
   -1.5115   -1.1691   -0.0627 H   0  0  0  0  0  0  0  0  0  0  0  0
   -1.5618    0.7083   -1.7477 H   0  0  0  0  0  0  0  0  0  0  0  0
   -1.8465    1.8487   -0.4003 H   0  0  0  0  0  0  0  0  0  0  0  0
   -3.0312    0.4803   -0.7787 H   0  0  0  0  0  0  0  0  0  0  0  0
   -1.1188   -0.6408    2.2867 H   0  0  0  0  0  0  0  0  0  0  0  0
   -2.5782    0.1404    1.6807 H   0  0  0  0  0  0  0  0  0  0  0  0
   -0.4540    1.8902    1.4462 H   0  0  0  0  0  0  0  0  0  0  0  0
  1  2  3  0
  2  3  1  0
  3  4  1  0
  4  5  1  0
  4  6  1  0
  6  7  1  0
  6  8  1  0
  8  9  1  0
  1 10  1  0
  3 11  1  0
  3 12  1  0
  4 13  1  0
  5 14  1  0
  5 15  1  0
  5 16  1  0
  6 17  1  0
  7 18  1  0
  7 19  1  0
  7 20  1  0
  8 21  1  0
  8 22  1  0
  9 23  1  0
M  END
