
     RDKit          3D

 15 16  0  0  0  0  0  0  0  0999 V2000
    2.1380   -2.0126    0.1662 C   0  0  0  0  0  0  0  0  0  0  0  0
    1.3792   -0.9547    0.1174 C   0  0  0  0  0  0  0  0  0  0  0  0
    0.5864    0.1583    0.0892 C   0  0  0  0  0  0  0  0  0  0  0  0
   -0.0697    0.9186    1.1043 C   0  0  0  0  0  0  0  0  0  0  0  0
   -0.7118    0.5625   -0.2022 C   0  0  0  0  0  0  0  0  0  0  0  0
   -1.9448   -0.3286   -0.1524 C   0  0  0  0  0  0  0  0  0  0  0  0
   -0.3246    1.0704   -1.4412 O   0  0  0  0  0  0  0  0  0  0  0  0
    0.9550    1.1595   -1.0962 C   0  0  0  0  0  0  0  0  0  0  0  0
    2.0359    1.6980   -1.4133 O   0  0  0  0  0  0  0  0  0  0  0  0
    2.7231   -2.8399    0.2082 H   0  0  0  0  0  0  0  0  0  0  0  0
   -0.4140    0.4140    2.0019 H   0  0  0  0  0  0  0  0  0  0  0  0
    0.2301    2.0155    1.2396 H   0  0  0  0  0  0  0  0  0  0  0  0
   -2.4899   -0.2339   -1.1490 H   0  0  0  0  0  0  0  0  0  0  0  0
   -1.5316   -1.3957   -0.1726 H   0  0  0  0  0  0  0  0  0  0  0  0
   -2.5612   -0.2314    0.7002 H   0  0  0  0  0  0  0  0  0  0  0  0
  1  2  3  0
  2  3  1  0
  3  4  1  0
  4  5  1  0
  5  6  1  0
  5  7  1  0
  7  8  1  0
  8  9  2  0
  5  3  1  0
  8  3  1  0
  1 10  1  0
  4 11  1  0
  4 12  1  0
  6 13  1  0
  6 14  1  0
  6 15  1  0
M  END
