
     RDKit          3D

 23 22  0  0  0  0  0  0  0  0999 V2000
    4.3401   -0.2228    0.1707 C   0  0  0  0  0  0  0  0  0  0  0  0
    3.2540   -0.7283   -0.0736 C   0  0  0  0  0  0  0  0  0  0  0  0
    1.9474   -1.3324   -0.3414 C   0  0  0  0  0  0  0  0  0  0  0  0
    0.9295   -0.8609    0.6591 C   0  0  0  0  0  0  0  0  0  0  0  0
    0.7342    0.6196    0.6465 C   0  0  0  0  0  0  0  0  0  0  0  0
    0.3091    1.1219   -0.5544 O   0  0  0  0  0  0  0  0  0  0  0  0
   -0.8928    0.6388   -1.0101 C   0  0  0  0  0  0  0  0  0  0  0  0
   -2.0618    0.9042   -0.0740 C   0  0  0  0  0  0  0  0  0  0  0  0
   -3.2896    0.2933   -0.7655 C   0  0  0  0  0  0  0  0  0  0  0  0
    5.2880    0.2122    0.3657 H   0  0  0  0  0  0  0  0  0  0  0  0
    1.9841   -2.4488   -0.2600 H   0  0  0  0  0  0  0  0  0  0  0  0
    1.6191   -1.0964   -1.3531 H   0  0  0  0  0  0  0  0  0  0  0  0
    1.1877   -1.1828    1.6911 H   0  0  0  0  0  0  0  0  0  0  0  0
   -0.0369   -1.3471    0.4279 H   0  0  0  0  0  0  0  0  0  0  0  0
    1.6258    1.1728    1.0478 H   0  0  0  0  0  0  0  0  0  0  0  0
   -0.0651    0.8403    1.4129 H   0  0  0  0  0  0  0  0  0  0  0  0
   -1.0811    1.1590   -1.9961 H   0  0  0  0  0  0  0  0  0  0  0  0
   -0.8761   -0.4576   -1.1901 H   0  0  0  0  0  0  0  0  0  0  0  0
   -1.9562    0.3341    0.8642 H   0  0  0  0  0  0  0  0  0  0  0  0
   -2.2536    1.9606    0.0972 H   0  0  0  0  0  0  0  0  0  0  0  0
   -4.2262    0.7446   -0.3697 H   0  0  0  0  0  0  0  0  0  0  0  0
   -3.2908   -0.8100   -0.6446 H   0  0  0  0  0  0  0  0  0  0  0  0
   -3.1888    0.4859   -1.8702 H   0  0  0  0  0  0  0  0  0  0  0  0
  1  2  3  0
  2  3  1  0
  3  4  1  0
  4  5  1  0
  5  6  1  0
  6  7  1  0
  7  8  1  0
  8  9  1  0
  1 10  1  0
  3 11  1  0
  3 12  1  0
  4 13  1  0
  4 14  1  0
  5 15  1  0
  5 16  1  0
  7 17  1  0
  7 18  1  0
  8 19  1  0
  8 20  1  0
  9 21  1  0
  9 22  1  0
  9 23  1  0
M  END
