
     RDKit          3D

 21 22  0  0  0  0  0  0  0  0999 V2000
    2.0364    1.1858    2.1812 C   0  0  0  0  0  0  0  0  0  0  0  0
    1.3511    1.1753    0.6331 C   0  0  0  0  0  0  0  0  0  0  0  0
    0.9336    1.1571   -0.2948 C   0  0  0  0  0  0  0  0  0  0  0  0
   -0.6842    1.4533   -0.3233 C   0  0  0  0  0  0  0  0  0  0  0  0
   -0.8338   -0.0645   -0.2818 C   0  0  0  0  0  0  0  0  0  0  0  0
   -1.4764   -0.7474    0.7954 C   0  0  0  0  0  0  0  0  0  0  0  0
   -2.0714   -0.7882   -0.6704 C   0  0  0  0  0  0  0  0  0  0  0  0
    0.4701   -0.2591   -0.9874 C   0  0  0  0  0  0  0  0  0  0  0  0
    1.4157   -1.2918   -0.4070 C   0  0  0  0  0  0  0  0  0  0  0  0
    2.4810    1.1995    3.2300 H   0  0  0  0  0  0  0  0  0  0  0  0
    1.2929    1.7573   -1.2581 H   0  0  0  0  0  0  0  0  0  0  0  0
   -1.0260    1.9223   -1.1848 H   0  0  0  0  0  0  0  0  0  0  0  0
   -0.9960    1.8422    0.6683 H   0  0  0  0  0  0  0  0  0  0  0  0
   -1.2511   -1.7312    1.2127 H   0  0  0  0  0  0  0  0  0  0  0  0
   -2.1413   -0.0942    1.4866 H   0  0  0  0  0  0  0  0  0  0  0  0
   -1.9632   -1.7939   -1.1329 H   0  0  0  0  0  0  0  0  0  0  0  0
   -2.8857   -0.1547   -0.9625 H   0  0  0  0  0  0  0  0  0  0  0  0
    0.4854   -0.1509   -2.0708 H   0  0  0  0  0  0  0  0  0  0  0  0
    1.6543   -0.9400    0.6527 H   0  0  0  0  0  0  0  0  0  0  0  0
    0.8932   -2.2588   -0.3181 H   0  0  0  0  0  0  0  0  0  0  0  0
    2.3156   -1.4182   -0.9681 H   0  0  0  0  0  0  0  0  0  0  0  0
  1  2  3  0
  2  3  1  0
  3  4  1  0
  4  5  1  0
  5  6  1  0
  6  7  1  0
  5  8  1  0
  8  9  1  0
  8  3  1  0
  7  5  1  0
  1 10  1  0
  3 11  1  0
  4 12  1  0
  4 13  1  0
  6 14  1  0
  6 15  1  0
  7 16  1  0
  7 17  1  0
  8 18  1  0
  9 19  1  0
  9 20  1  0
  9 21  1  0
M  END
