
     RDKit          3D

 21 21  0  0  0  0  0  0  0  0999 V2000
    3.7187    0.6130   -0.3394 C   0  0  0  0  0  0  0  0  0  0  0  0
    2.7589   -0.0376   -0.0159 C   0  0  0  0  0  0  0  0  0  0  0  0
    1.6078   -0.8293    0.3902 C   0  0  0  0  0  0  0  0  0  0  0  0
    0.3486   -0.4427   -0.3302 C   0  0  0  0  0  0  0  0  0  0  0  0
   -0.7559   -1.3576    0.2037 C   0  0  0  0  0  0  0  0  0  0  0  0
   -2.0035   -0.5283    0.2586 C   0  0  0  0  0  0  0  0  0  0  0  0
   -1.6516    0.8337   -0.3212 C   0  0  0  0  0  0  0  0  0  0  0  0
   -2.3316    1.8430    0.3529 O   0  0  0  0  0  0  0  0  0  0  0  0
   -0.1545    0.9185    0.0003 C   0  0  0  0  0  0  0  0  0  0  0  0
    4.5724    1.2000   -0.6381 H   0  0  0  0  0  0  0  0  0  0  0  0
    1.8318   -1.8854    0.1088 H   0  0  0  0  0  0  0  0  0  0  0  0
    1.4113   -0.8034    1.4622 H   0  0  0  0  0  0  0  0  0  0  0  0
    0.4340   -0.5197   -1.4350 H   0  0  0  0  0  0  0  0  0  0  0  0
   -0.5122   -1.6771    1.2521 H   0  0  0  0  0  0  0  0  0  0  0  0
   -0.8162   -2.2441   -0.4240 H   0  0  0  0  0  0  0  0  0  0  0  0
   -2.8027   -1.0020   -0.3535 H   0  0  0  0  0  0  0  0  0  0  0  0
   -2.3706   -0.3796    1.3152 H   0  0  0  0  0  0  0  0  0  0  0  0
   -1.8007    0.8771   -1.4103 H   0  0  0  0  0  0  0  0  0  0  0  0
   -1.7132    2.4792    0.7773 H   0  0  0  0  0  0  0  0  0  0  0  0
    0.2440    1.7191   -0.6597 H   0  0  0  0  0  0  0  0  0  0  0  0
   -0.0150    1.2233    1.0515 H   0  0  0  0  0  0  0  0  0  0  0  0
  1  2  3  0
  2  3  1  0
  3  4  1  0
  4  5  1  0
  5  6  1  0
  6  7  1  0
  7  8  1  0
  7  9  1  0
  9  4  1  0
  1 10  1  0
  3 11  1  0
  3 12  1  0
  4 13  1  0
  5 14  1  0
  5 15  1  0
  6 16  1  0
  6 17  1  0
  7 18  1  0
  8 19  1  0
  9 20  1  0
  9 21  1  0
M  END
