
     RDKit          3D

 21 21  0  0  0  0  0  0  0  0999 V2000
    2.1533    2.4269    1.1896 C   0  0  0  0  0  0  0  0  0  0  0  0
    2.3845    1.3457    0.7174 C   0  0  0  0  0  0  0  0  0  0  0  0
    2.6463    0.0026    0.1415 C   0  0  0  0  0  0  0  0  0  0  0  0
    1.6249   -0.3040   -0.7700 O   0  0  0  0  0  0  0  0  0  0  0  0
    0.3766   -0.2629   -0.1552 C   0  0  0  0  0  0  0  0  0  0  0  0
   -0.6743    0.4903   -0.9227 C   0  0  0  0  0  0  0  0  0  0  0  0
   -1.6319   -0.6476   -0.6754 C   0  0  0  0  0  0  0  0  0  0  0  0
   -2.5468   -0.3383    0.4579 C   0  0  0  0  0  0  0  0  0  0  0  0
   -0.4286   -1.5077   -0.3902 C   0  0  0  0  0  0  0  0  0  0  0  0
    1.9279    3.3939    1.6187 H   0  0  0  0  0  0  0  0  0  0  0  0
    2.6245   -0.7975    0.9094 H   0  0  0  0  0  0  0  0  0  0  0  0
    3.6262    0.0073   -0.3667 H   0  0  0  0  0  0  0  0  0  0  0  0
    0.4891    0.0161    0.9101 H   0  0  0  0  0  0  0  0  0  0  0  0
   -0.4022    0.5610   -1.9871 H   0  0  0  0  0  0  0  0  0  0  0  0
   -0.9467    1.4473   -0.4384 H   0  0  0  0  0  0  0  0  0  0  0  0
   -2.1897   -0.9874   -1.5774 H   0  0  0  0  0  0  0  0  0  0  0  0
   -2.6956   -1.1951    1.1438 H   0  0  0  0  0  0  0  0  0  0  0  0
   -2.1862    0.5303    1.0452 H   0  0  0  0  0  0  0  0  0  0  0  0
   -3.5263   -0.0059    0.0006 H   0  0  0  0  0  0  0  0  0  0  0  0
   -0.0866   -1.9868   -1.3304 H   0  0  0  0  0  0  0  0  0  0  0  0
   -0.5384   -2.1884    0.4792 H   0  0  0  0  0  0  0  0  0  0  0  0
  1  2  3  0
  2  3  1  0
  3  4  1  0
  4  5  1  0
  5  6  1  0
  6  7  1  0
  7  8  1  0
  7  9  1  0
  9  5  1  0
  1 10  1  0
  3 11  1  0
  3 12  1  0
  5 13  1  0
  6 14  1  0
  6 15  1  0
  7 16  1  0
  8 17  1  0
  8 18  1  0
  8 19  1  0
  9 20  1  0
  9 21  1  0
M  END
