
     RDKit          3D

 15 17  0  0  0  0  0  0  0  0999 V2000
    2.1767    0.2718    1.9201 C   0  0  0  0  0  0  0  0  0  0  0  0
    1.4290    0.1393    1.1755 C   0  0  0  0  0  0  0  0  0  0  0  0
    0.4255   -0.0349    0.1416 C   0  0  0  0  0  0  0  0  0  0  0  0
   -0.5908   -1.1138    0.1366 C   0  0  0  0  0  0  0  0  0  0  0  0
   -1.8421   -0.2693    0.0131 C   0  0  0  0  0  0  0  0  0  0  0  0
   -1.5126    0.8791   -0.5556 C   0  0  0  0  0  0  0  0  0  0  0  0
   -0.0470    0.9071   -0.8509 C   0  0  0  0  0  0  0  0  0  0  0  0
    0.6655   -0.3799   -1.2088 C   0  0  0  0  0  0  0  0  0  0  0  0
   -0.1399   -1.5065   -1.1500 O   0  0  0  0  0  0  0  0  0  0  0  0
    2.9608    0.4218    2.7260 H   0  0  0  0  0  0  0  0  0  0  0  0
   -0.5785   -1.8734    0.8989 H   0  0  0  0  0  0  0  0  0  0  0  0
   -2.7963   -0.6357    0.3699 H   0  0  0  0  0  0  0  0  0  0  0  0
   -2.1882    1.6762   -0.7779 H   0  0  0  0  0  0  0  0  0  0  0  0
    0.4480    1.8500   -1.0447 H   0  0  0  0  0  0  0  0  0  0  0  0
    1.5898   -0.3318   -1.7939 H   0  0  0  0  0  0  0  0  0  0  0  0
  1  2  3  0
  2  3  1  0
  3  4  1  0
  4  5  1  0
  5  6  2  0
  6  7  1  0
  7  8  1  0
  8  9  1  0
  7  3  1  0
  8  3  1  0
  9  4  1  0
  1 10  1  0
  4 11  1  0
  5 12  1  0
  6 13  1  0
  7 14  1  0
  8 15  1  0
M  END
