
     RDKit          3D

 21 21  0  0  0  0  0  0  0  0999 V2000
    3.9685    2.2360   -1.0531 C   0  0  0  0  0  0  0  0  0  0  0  0
    3.0816    1.6687   -0.9367 C   0  0  0  0  0  0  0  0  0  0  0  0
    1.9118    0.9131   -0.8053 C   0  0  0  0  0  0  0  0  0  0  0  0
    1.6581   -0.4247   -0.3845 C   0  0  0  0  0  0  0  0  0  0  0  0
    0.1238   -0.3789   -0.2487 C   0  0  0  0  0  0  0  0  0  0  0  0
   -0.5547   -1.4620    0.2351 O   0  0  0  0  0  0  0  0  0  0  0  0
   -2.0071   -1.0930   -0.0442 C   0  0  0  0  0  0  0  0  0  0  0  0
   -3.0534   -1.4945    0.8591 C   0  0  0  0  0  0  0  0  0  0  0  0
   -2.4086   -0.2099    1.1438 C   0  0  0  0  0  0  0  0  0  0  0  0
    4.9891    2.9033   -1.2040 H   0  0  0  0  0  0  0  0  0  0  0  0
    1.0220    1.6346   -0.5240 H   0  0  0  0  0  0  0  0  0  0  0  0
    1.5657    0.8551   -2.0531 H   0  0  0  0  0  0  0  0  0  0  0  0
    2.0654   -0.9672    0.4494 H   0  0  0  0  0  0  0  0  0  0  0  0
    1.7648   -1.1563   -1.3461 H   0  0  0  0  0  0  0  0  0  0  0  0
   -0.0801    0.5117    0.5009 H   0  0  0  0  0  0  0  0  0  0  0  0
   -0.2430    0.0589   -1.2461 H   0  0  0  0  0  0  0  0  0  0  0  0
   -2.0345   -0.4322   -0.9097 H   0  0  0  0  0  0  0  0  0  0  0  0
   -2.9327   -2.3392    1.6344 H   0  0  0  0  0  0  0  0  0  0  0  0
   -4.1528   -1.4756    0.5643 H   0  0  0  0  0  0  0  0  0  0  0  0
   -2.8594    0.8006    0.8710 H   0  0  0  0  0  0  0  0  0  0  0  0
   -1.8247   -0.1486    2.0321 H   0  0  0  0  0  0  0  0  0  0  0  0
  1  2  3  0
  2  3  1  0
  3  4  1  0
  4  5  1  0
  5  6  1  0
  6  7  1  0
  7  8  1  0
  8  9  1  0
  9  7  1  0
  1 10  1  0
  3 11  1  0
  3 12  1  0
  4 13  1  0
  4 14  1  0
  5 15  1  0
  5 16  1  0
  7 17  1  0
  8 18  1  0
  8 19  1  0
  9 20  1  0
  9 21  1  0
M  END
