
     RDKit          3D

 17 16  0  0  0  0  0  0  0  0999 V2000
    2.8160   -1.4886    0.5536 C   0  0  0  0  0  0  0  0  0  0  0  0
    2.0223   -0.5664    0.5108 C   0  0  0  0  0  0  0  0  0  0  0  0
    1.0550    0.5201    0.4666 C   0  0  0  0  0  0  0  0  0  0  0  0
    1.4281    1.7039    0.5772 O   0  0  0  0  0  0  0  0  0  0  0  0
   -0.3639    0.2034    0.2902 C   0  0  0  0  0  0  0  0  0  0  0  0
   -1.1642    1.4854    0.2758 C   0  0  0  0  0  0  0  0  0  0  0  0
   -0.5064   -0.4425   -1.0910 C   0  0  0  0  0  0  0  0  0  0  0  0
   -0.8934   -0.6926    1.3483 C   0  0  0  0  0  0  0  0  0  0  0  0
   -2.0419   -0.5369    1.7033 O   0  0  0  0  0  0  0  0  0  0  0  0
    3.5046   -2.2893    0.6051 H   0  0  0  0  0  0  0  0  0  0  0  0
   -0.5965    2.2073    0.9253 H   0  0  0  0  0  0  0  0  0  0  0  0
   -2.1931    1.3046    0.6654 H   0  0  0  0  0  0  0  0  0  0  0  0
   -1.1884    1.8570   -0.7772 H   0  0  0  0  0  0  0  0  0  0  0  0
   -1.4912   -0.9707   -1.1445 H   0  0  0  0  0  0  0  0  0  0  0  0
   -0.4728    0.3103   -1.8894 H   0  0  0  0  0  0  0  0  0  0  0  0
    0.3103   -1.1630   -1.2860 H   0  0  0  0  0  0  0  0  0  0  0  0
   -0.2243   -1.4420    1.7504 H   0  0  0  0  0  0  0  0  0  0  0  0
  1  2  3  0
  2  3  1  0
  3  4  2  0
  3  5  1  0
  5  6  1  0
  5  7  1  0
  5  8  1  0
  8  9  2  0
  1 10  1  0
  6 11  1  0
  6 12  1  0
  6 13  1  0
  7 14  1  0
  7 15  1  0
  7 16  1  0
  8 17  1  0
M  END
