
     RDKit          3D

 19 19  0  0  0  0  0  0  0  0999 V2000
    1.4090    2.9238    0.6144 C   0  0  0  0  0  0  0  0  0  0  0  0
    0.9797    1.9526    0.0781 C   0  0  0  0  0  0  0  0  0  0  0  0
    0.4491    0.7489   -0.5629 C   0  0  0  0  0  0  0  0  0  0  0  0
    1.4765   -0.2179   -0.9823 C   0  0  0  0  0  0  0  0  0  0  0  0
    1.3718   -1.3269   -0.2831 C   0  0  0  0  0  0  0  0  0  0  0  0
    0.2659   -1.2484    0.6918 C   0  0  0  0  0  0  0  0  0  0  0  0
   -0.4947   -0.0362    0.2746 C   0  0  0  0  0  0  0  0  0  0  0  0
   -1.7824   -0.3729   -0.4512 C   0  0  0  0  0  0  0  0  0  0  0  0
   -2.5986   -1.1093    0.4182 O   0  0  0  0  0  0  0  0  0  0  0  0
    1.7911    3.7653    1.0977 H   0  0  0  0  0  0  0  0  0  0  0  0
   -0.0778    1.0631   -1.5104 H   0  0  0  0  0  0  0  0  0  0  0  0
    2.2166   -0.0466   -1.7544 H   0  0  0  0  0  0  0  0  0  0  0  0
    2.0004   -2.2168   -0.3773 H   0  0  0  0  0  0  0  0  0  0  0  0
   -0.3638   -2.1892    0.6008 H   0  0  0  0  0  0  0  0  0  0  0  0
    0.6408   -1.1752    1.7457 H   0  0  0  0  0  0  0  0  0  0  0  0
   -0.7196    0.5290    1.2189 H   0  0  0  0  0  0  0  0  0  0  0  0
   -2.3330    0.5305   -0.7602 H   0  0  0  0  0  0  0  0  0  0  0  0
   -1.5369   -0.9984   -1.3054 H   0  0  0  0  0  0  0  0  0  0  0  0
   -2.6939   -0.5754    1.2469 H   0  0  0  0  0  0  0  0  0  0  0  0
  1  2  3  0
  2  3  1  0
  3  4  1  0
  4  5  2  0
  5  6  1  0
  6  7  1  0
  7  8  1  0
  8  9  1  0
  7  3  1  0
  1 10  1  0
  3 11  1  0
  4 12  1  0
  5 13  1  0
  6 14  1  0
  6 15  1  0
  7 16  1  0
  8 17  1  0
  8 18  1  0
  9 19  1  0
M  END
