
     RDKit          3D

 19 19  0  0  0  0  0  0  0  0999 V2000
   -1.4884    2.1840   -1.2889 C   0  0  0  0  0  0  0  0  0  0  0  0
   -1.2906    0.8557   -0.4062 C   0  0  0  0  0  0  0  0  0  0  0  0
   -1.1105   -0.2213    0.3269 C   0  0  0  0  0  0  0  0  0  0  0  0
   -1.4862   -1.4803   -0.5237 C   0  0  0  0  0  0  0  0  0  0  0  0
    0.2248   -0.3042    0.9584 C   0  0  0  0  0  0  0  0  0  0  0  0
    1.4421   -0.6321    0.0707 C   0  0  0  0  0  0  0  0  0  0  0  0
    2.1577    0.3366    0.9650 C   0  0  0  0  0  0  0  0  0  0  0  0
    0.8563    1.1431    0.8145 C   0  0  0  0  0  0  0  0  0  0  0  0
    0.4933    2.2799    0.6748 O   0  0  0  0  0  0  0  0  0  0  0  0
   -1.6164    3.0795   -1.8897 H   0  0  0  0  0  0  0  0  0  0  0  0
   -1.8720   -0.2536    1.1453 H   0  0  0  0  0  0  0  0  0  0  0  0
   -0.5686   -1.9770   -0.8920 H   0  0  0  0  0  0  0  0  0  0  0  0
   -2.1096   -2.1484    0.0314 H   0  0  0  0  0  0  0  0  0  0  0  0
   -2.1128   -1.0576   -1.3908 H   0  0  0  0  0  0  0  0  0  0  0  0
    0.3170   -0.6149    1.9598 H   0  0  0  0  0  0  0  0  0  0  0  0
    1.2351   -0.3084   -1.0043 H   0  0  0  0  0  0  0  0  0  0  0  0
    1.8434   -1.6521    0.1699 H   0  0  0  0  0  0  0  0  0  0  0  0
    3.0509    0.8378    0.7778 H   0  0  0  0  0  0  0  0  0  0  0  0
    2.0347   -0.0667    2.0441 H   0  0  0  0  0  0  0  0  0  0  0  0
  1  2  3  0
  2  3  1  0
  3  4  1  0
  3  5  1  0
  5  6  1  0
  6  7  1  0
  7  8  1  0
  8  9  2  0
  8  5  1  0
  1 10  1  0
  3 11  1  0
  4 12  1  0
  4 13  1  0
  4 14  1  0
  5 15  1  0
  6 16  1  0
  6 17  1  0
  7 18  1  0
  7 19  1  0
M  END
