
     RDKit          3D

 16 16  0  0  0  0  0  0  0  0999 V2000
   -1.1509    2.4837   -0.0021 C   0  0  0  0  0  0  0  0  0  0  0  0
   -0.7873    1.3679   -0.3372 C   0  0  0  0  0  0  0  0  0  0  0  0
   -0.3458    0.0225   -0.7157 C   0  0  0  0  0  0  0  0  0  0  0  0
   -0.2358   -0.9564    0.4286 C   0  0  0  0  0  0  0  0  0  0  0  0
    0.2918   -0.2292    1.6182 C   0  0  0  0  0  0  0  0  0  0  0  0
    0.5792   -2.0395    0.0728 O   0  0  0  0  0  0  0  0  0  0  0  0
    0.5433   -0.0974   -1.8753 C   0  0  0  0  0  0  0  0  0  0  0  0
   -0.8835   -0.4762   -1.8878 O   0  0  0  0  0  0  0  0  0  0  0  0
   -1.4795    3.4538    0.2758 H   0  0  0  0  0  0  0  0  0  0  0  0
   -1.2208   -1.3923    0.6909 H   0  0  0  0  0  0  0  0  0  0  0  0
   -0.5564    0.0902    2.2493 H   0  0  0  0  0  0  0  0  0  0  0  0
    0.9562   -0.8718    2.2592 H   0  0  0  0  0  0  0  0  0  0  0  0
    0.9007    0.6752    1.3283 H   0  0  0  0  0  0  0  0  0  0  0  0
    1.4979   -1.8806    0.3687 H   0  0  0  0  0  0  0  0  0  0  0  0
    1.2242   -0.9511   -1.9722 H   0  0  0  0  0  0  0  0  0  0  0  0
    0.6666    0.8010   -2.5015 H   0  0  0  0  0  0  0  0  0  0  0  0
  1  2  3  0
  2  3  1  0
  3  4  1  0
  4  5  1  0
  4  6  1  0
  3  7  1  0
  7  8  1  0
  8  3  1  0
  1  9  1  0
  4 10  1  0
  5 11  1  0
  5 12  1  0
  5 13  1  0
  6 14  1  0
  7 15  1  0
  7 16  1  0
M  END
