
     RDKit          3D

 17 18  0  0  0  0  0  0  0  0999 V2000
   -2.0155    1.5505    1.3789 C   0  0  0  0  0  0  0  0  0  0  0  0
   -0.9835    1.3909    0.6949 C   0  0  0  0  0  0  0  0  0  0  0  0
    0.2448    1.2036   -0.0958 C   0  0  0  0  0  0  0  0  0  0  0  0
    0.8634    2.3828   -0.4561 O   0  0  0  0  0  0  0  0  0  0  0  0
    1.1148    0.0682    0.2551 C   0  0  0  0  0  0  0  0  0  0  0  0
    1.4393   -0.0343   -1.0932 O   0  0  0  0  0  0  0  0  0  0  0  0
    0.0950    0.1620   -1.1735 C   0  0  0  0  0  0  0  0  0  0  0  0
   -0.0317   -0.8402   -0.0600 C   0  0  0  0  0  0  0  0  0  0  0  0
    0.3525   -2.2507   -0.4481 C   0  0  0  0  0  0  0  0  0  0  0  0
   -2.8546    1.6806    1.9140 H   0  0  0  0  0  0  0  0  0  0  0  0
    0.1151    2.9518   -0.8335 H   0  0  0  0  0  0  0  0  0  0  0  0
    1.7675   -0.0074    1.0311 H   0  0  0  0  0  0  0  0  0  0  0  0
   -0.5157    0.2385   -1.9756 H   0  0  0  0  0  0  0  0  0  0  0  0
   -0.9051   -0.7782    0.5740 H   0  0  0  0  0  0  0  0  0  0  0  0
   -0.5463   -2.8669   -0.6119 H   0  0  0  0  0  0  0  0  0  0  0  0
    0.9767   -2.6910    0.3321 H   0  0  0  0  0  0  0  0  0  0  0  0
    0.8832   -2.1601   -1.4419 H   0  0  0  0  0  0  0  0  0  0  0  0
  1  2  3  0
  2  3  1  0
  3  4  1  0
  3  5  1  0
  5  6  1  0
  6  7  1  0
  7  8  1  0
  8  9  1  0
  7  3  1  0
  8  5  1  0
  1 10  1  0
  4 11  1  0
  5 12  1  0
  7 13  1  0
  8 14  1  0
  9 15  1  0
  9 16  1  0
  9 17  1  0
M  END
