
     RDKit          3D

 19 21  0  0  0  0  0  0  0  0999 V2000
    2.6287    0.4402    1.8772 C   0  0  0  0  0  0  0  0  0  0  0  0
    1.9627    0.4905    0.9522 C   0  0  0  0  0  0  0  0  0  0  0  0
    1.0990    0.5743   -0.2229 C   0  0  0  0  0  0  0  0  0  0  0  0
   -0.1326    1.4536    0.1356 C   0  0  0  0  0  0  0  0  0  0  0  0
   -1.2077    0.4789   -0.1872 C   0  0  0  0  0  0  0  0  0  0  0  0
   -0.7619   -0.2574   -1.4336 C   0  0  0  0  0  0  0  0  0  0  0  0
   -1.4829   -1.4384   -0.8731 C   0  0  0  0  0  0  0  0  0  0  0  0
   -0.7760   -0.8382    0.3220 C   0  0  0  0  0  0  0  0  0  0  0  0
    0.4082   -0.6806   -0.5967 C   0  0  0  0  0  0  0  0  0  0  0  0
    3.3020    0.3952    2.7794 H   0  0  0  0  0  0  0  0  0  0  0  0
    1.6116    1.0189   -1.0947 H   0  0  0  0  0  0  0  0  0  0  0  0
   -0.0988    2.3444   -0.5187 H   0  0  0  0  0  0  0  0  0  0  0  0
   -0.1151    1.6747    1.2075 H   0  0  0  0  0  0  0  0  0  0  0  0
   -2.2412    0.7729   -0.1133 H   0  0  0  0  0  0  0  0  0  0  0  0
   -0.7827    0.0981   -2.3655 H   0  0  0  0  0  0  0  0  0  0  0  0
   -1.0083   -2.3704   -1.1728 H   0  0  0  0  0  0  0  0  0  0  0  0
   -2.5918   -1.3804   -0.8745 H   0  0  0  0  0  0  0  0  0  0  0  0
   -0.7686   -1.2054    1.2498 H   0  0  0  0  0  0  0  0  0  0  0  0
    0.9555   -1.5709   -0.8665 H   0  0  0  0  0  0  0  0  0  0  0  0
  1  2  3  0
  2  3  1  0
  3  4  1  0
  4  5  1  0
  5  6  1  0
  6  7  1  0
  7  8  1  0
  8  9  1  0
  9  3  1  0
  8  5  1  0
  9  6  1  0
  1 10  1  0
  3 11  1  0
  4 12  1  0
  4 13  1  0
  5 14  1  0
  6 15  1  0
  7 16  1  0
  7 17  1  0
  8 18  1  0
  9 19  1  0
M  END
