
     RDKit          3D

 23 22  0  0  0  0  0  0  0  0999 V2000
   -0.2497   -2.5076    1.8496 C   0  0  0  0  0  0  0  0  0  0  0  0
   -0.1705   -1.4340    1.1522 C   0  0  0  0  0  0  0  0  0  0  0  0
   -0.0748   -0.1021    0.3118 C   0  0  0  0  0  0  0  0  0  0  0  0
    0.8002    0.8012    1.1973 C   0  0  0  0  0  0  0  0  0  0  0  0
    1.9604    0.3752    1.6617 O   0  0  0  0  0  0  0  0  0  0  0  0
    3.0093    0.1169    0.7597 C   0  0  0  0  0  0  0  0  0  0  0  0
   -0.9844    0.3467   -0.5235 C   0  0  0  0  0  0  0  0  0  0  0  0
   -1.2707   -0.4659   -1.8329 C   0  0  0  0  0  0  0  0  0  0  0  0
   -2.4225    0.7903   -0.0726 C   0  0  0  0  0  0  0  0  0  0  0  0
   -0.3379   -3.4425    2.4595 H   0  0  0  0  0  0  0  0  0  0  0  0
    0.8538   -0.5488   -0.3992 H   0  0  0  0  0  0  0  0  0  0  0  0
    1.1395    1.6186    0.3077 H   0  0  0  0  0  0  0  0  0  0  0  0
    0.2139    1.4447    1.7763 H   0  0  0  0  0  0  0  0  0  0  0  0
    3.8997   -0.2017    1.4655 H   0  0  0  0  0  0  0  0  0  0  0  0
    2.8051   -0.6401    0.0138 H   0  0  0  0  0  0  0  0  0  0  0  0
    3.3120    1.0753    0.2450 H   0  0  0  0  0  0  0  0  0  0  0  0
   -0.5371    1.3706   -0.9584 H   0  0  0  0  0  0  0  0  0  0  0  0
   -2.0629    0.1741   -2.4299 H   0  0  0  0  0  0  0  0  0  0  0  0
   -0.3074   -0.2811   -2.4321 H   0  0  0  0  0  0  0  0  0  0  0  0
   -1.5673   -1.4426   -1.7989 H   0  0  0  0  0  0  0  0  0  0  0  0
   -2.6785    0.3505    0.8622 H   0  0  0  0  0  0  0  0  0  0  0  0
   -2.2793    1.9254    0.1057 H   0  0  0  0  0  0  0  0  0  0  0  0
   -3.0510    0.6770   -0.9542 H   0  0  0  0  0  0  0  0  0  0  0  0
  1  2  3  0
  2  3  1  0
  3  4  1  0
  4  5  1  0
  5  6  1  0
  3  7  1  0
  7  8  1  0
  7  9  1  0
  1 10  1  0
  3 11  1  0
  4 12  1  0
  4 13  1  0
  6 14  1  0
  6 15  1  0
  6 16  1  0
  7 17  1  0
  8 18  1  0
  8 19  1  0
  8 20  1  0
  9 21  1  0
  9 22  1  0
  9 23  1  0
M  END
