
     RDKit          3D

 16 16  0  0  0  0  0  0  0  0999 V2000
    2.1666    1.1572    0.8504 C   0  0  0  0  0  0  0  0  0  0  0  0
    1.6741    0.1204    0.4510 C   0  0  0  0  0  0  0  0  0  0  0  0
    1.0659   -1.1091   -0.0135 C   0  0  0  0  0  0  0  0  0  0  0  0
   -0.3061   -0.8724   -0.5473 C   0  0  0  0  0  0  0  0  0  0  0  0
   -1.2784   -0.2957    0.4336 C   0  0  0  0  0  0  0  0  0  0  0  0
   -1.1564    0.9916   -0.3180 C   0  0  0  0  0  0  0  0  0  0  0  0
   -0.5355    0.2555   -1.4341 C   0  0  0  0  0  0  0  0  0  0  0  0
   -0.3565    0.6018   -2.6039 O   0  0  0  0  0  0  0  0  0  0  0  0
    2.6090    2.0649    1.2181 H   0  0  0  0  0  0  0  0  0  0  0  0
    1.6958   -1.4738   -0.8783 H   0  0  0  0  0  0  0  0  0  0  0  0
    1.0651   -1.9045    0.7597 H   0  0  0  0  0  0  0  0  0  0  0  0
   -0.7868   -1.8357   -0.9417 H   0  0  0  0  0  0  0  0  0  0  0  0
   -2.2917   -0.7445    0.4605 H   0  0  0  0  0  0  0  0  0  0  0  0
   -0.8524   -0.1314    1.4687 H   0  0  0  0  0  0  0  0  0  0  0  0
   -2.1767    1.3900   -0.5454 H   0  0  0  0  0  0  0  0  0  0  0  0
   -0.5359    1.7858    0.1556 H   0  0  0  0  0  0  0  0  0  0  0  0
  1  2  3  0
  2  3  1  0
  3  4  1  0
  4  5  1  0
  5  6  1  0
  6  7  1  0
  7  8  2  0
  7  4  1  0
  1  9  1  0
  3 10  1  0
  3 11  1  0
  4 12  1  0
  5 13  1  0
  5 14  1  0
  6 15  1  0
  6 16  1  0
M  END
