
     RDKit          3D

 19 20  0  0  0  0  0  0  0  0999 V2000
    3.0456    1.2787   -1.4261 C   0  0  0  0  0  0  0  0  0  0  0  0
    2.0564    0.6029   -1.6047 C   0  0  0  0  0  0  0  0  0  0  0  0
    0.8734   -0.2211   -1.7985 C   0  0  0  0  0  0  0  0  0  0  0  0
    0.4609   -0.7636   -0.4224 C   0  0  0  0  0  0  0  0  0  0  0  0
    0.1275    0.1241    0.6104 C   0  0  0  0  0  0  0  0  0  0  0  0
   -0.5985    0.0169    1.8954 C   0  0  0  0  0  0  0  0  0  0  0  0
   -2.0357    0.2013    1.3610 C   0  0  0  0  0  0  0  0  0  0  0  0
   -1.9084    0.1194   -0.0535 O   0  0  0  0  0  0  0  0  0  0  0  0
   -0.9138   -0.8024   -0.1444 C   0  0  0  0  0  0  0  0  0  0  0  0
    3.9146    1.8559   -1.2818 H   0  0  0  0  0  0  0  0  0  0  0  0
    1.0168   -1.0539   -2.4994 H   0  0  0  0  0  0  0  0  0  0  0  0
    0.0382    0.4038   -2.2201 H   0  0  0  0  0  0  0  0  0  0  0  0
    1.1161   -1.6430   -0.1710 H   0  0  0  0  0  0  0  0  0  0  0  0
    0.1026    1.2164    0.2951 H   0  0  0  0  0  0  0  0  0  0  0  0
   -0.3435    0.8332    2.5921 H   0  0  0  0  0  0  0  0  0  0  0  0
   -0.5700   -0.9756    2.3763 H   0  0  0  0  0  0  0  0  0  0  0  0
   -2.6774   -0.6415    1.6446 H   0  0  0  0  0  0  0  0  0  0  0  0
   -2.4523    1.1687    1.6610 H   0  0  0  0  0  0  0  0  0  0  0  0
   -1.2524   -1.7202    0.4340 H   0  0  0  0  0  0  0  0  0  0  0  0
  1  2  3  0
  2  3  1  0
  3  4  1  0
  4  5  1  0
  5  6  1  0
  6  7  1  0
  7  8  1  0
  8  9  1  0
  9  4  1  0
  9  5  1  0
  1 10  1  0
  3 11  1  0
  3 12  1  0
  4 13  1  0
  5 14  1  0
  6 15  1  0
  6 16  1  0
  7 17  1  0
  7 18  1  0
  9 19  1  0
M  END
