
     RDKit          3D

 15 15  0  0  0  0  0  0  0  0999 V2000
   -2.1100   -1.9785   -0.3389 C   0  0  0  0  0  0  0  0  0  0  0  0
   -1.3054   -1.0942   -0.1748 C   0  0  0  0  0  0  0  0  0  0  0  0
   -0.3348    0.0105    0.0225 C   0  0  0  0  0  0  0  0  0  0  0  0
   -1.1602    1.2714    0.1614 C   0  0  0  0  0  0  0  0  0  0  0  0
    0.5120    0.1219   -1.0559 O   0  0  0  0  0  0  0  0  0  0  0  0
    1.8009   -0.1438   -0.6259 C   0  0  0  0  0  0  0  0  0  0  0  0
    1.7412    0.0673    0.8648 C   0  0  0  0  0  0  0  0  0  0  0  0
    2.6906    0.4112    1.6100 O   0  0  0  0  0  0  0  0  0  0  0  0
    0.4170   -0.2073    1.1800 O   0  0  0  0  0  0  0  0  0  0  0  0
   -2.8250   -2.7552   -0.4945 H   0  0  0  0  0  0  0  0  0  0  0  0
   -0.6304    2.1636   -0.2764 H   0  0  0  0  0  0  0  0  0  0  0  0
   -1.2323    1.4981    1.2584 H   0  0  0  0  0  0  0  0  0  0  0  0
   -2.1822    1.1583   -0.2003 H   0  0  0  0  0  0  0  0  0  0  0  0
    2.1571   -1.1549   -0.8679 H   0  0  0  0  0  0  0  0  0  0  0  0
    2.4614    0.6317   -1.0625 H   0  0  0  0  0  0  0  0  0  0  0  0
  1  2  3  0
  2  3  1  0
  3  4  1  0
  3  5  1  0
  5  6  1  0
  6  7  1  0
  7  8  2  0
  7  9  1  0
  9  3  1  0
  1 10  1  0
  4 11  1  0
  4 12  1  0
  4 13  1  0
  6 14  1  0
  6 15  1  0
M  END
