
     RDKit          3D

 23 22  0  0  0  0  0  0  0  0999 V2000
   -1.6273   -2.0879    1.0552 C   0  0  0  0  0  0  0  0  0  0  0  0
   -1.5361   -0.8722    0.9227 C   0  0  0  0  0  0  0  0  0  0  0  0
   -1.4402    0.5726    0.7876 C   0  0  0  0  0  0  0  0  0  0  0  0
   -2.4950    0.9917   -0.2380 C   0  0  0  0  0  0  0  0  0  0  0  0
   -0.1066    1.0971    0.4785 C   0  0  0  0  0  0  0  0  0  0  0  0
    0.5744    0.7129   -0.7692 C   0  0  0  0  0  0  0  0  0  0  0  0
    0.8396   -0.7514   -0.9745 C   0  0  0  0  0  0  0  0  0  0  0  0
    1.6040   -1.3335    0.0254 O   0  0  0  0  0  0  0  0  0  0  0  0
    2.8477   -0.7785    0.1646 C   0  0  0  0  0  0  0  0  0  0  0  0
   -1.7044   -3.1368    1.1835 H   0  0  0  0  0  0  0  0  0  0  0  0
   -1.7893    1.0879    1.7374 H   0  0  0  0  0  0  0  0  0  0  0  0
   -2.4779    2.1019   -0.2422 H   0  0  0  0  0  0  0  0  0  0  0  0
   -3.4752    0.6730    0.1633 H   0  0  0  0  0  0  0  0  0  0  0  0
   -2.2932    0.5588   -1.2345 H   0  0  0  0  0  0  0  0  0  0  0  0
   -0.1610    2.2242    0.5995 H   0  0  0  0  0  0  0  0  0  0  0  0
    0.5827    0.8051    1.3375 H   0  0  0  0  0  0  0  0  0  0  0  0
    1.5783    1.2382   -0.7691 H   0  0  0  0  0  0  0  0  0  0  0  0
    0.0514    1.0711   -1.6942 H   0  0  0  0  0  0  0  0  0  0  0  0
    1.4108   -0.8230   -1.9526 H   0  0  0  0  0  0  0  0  0  0  0  0
   -0.0895   -1.3149   -1.1423 H   0  0  0  0  0  0  0  0  0  0  0  0
    2.8839    0.2888    0.4218 H   0  0  0  0  0  0  0  0  0  0  0  0
    3.3961   -1.4016    0.9290 H   0  0  0  0  0  0  0  0  0  0  0  0
    3.4270   -0.9234   -0.7895 H   0  0  0  0  0  0  0  0  0  0  0  0
  1  2  3  0
  2  3  1  0
  3  4  1  0
  3  5  1  0
  5  6  1  0
  6  7  1  0
  7  8  1  0
  8  9  1  0
  1 10  1  0
  3 11  1  0
  4 12  1  0
  4 13  1  0
  4 14  1  0
  5 15  1  0
  5 16  1  0
  6 17  1  0
  6 18  1  0
  7 19  1  0
  7 20  1  0
  9 21  1  0
  9 22  1  0
  9 23  1  0
M  END
