
     RDKit          3D

 15 14  0  0  0  0  0  0  0  0999 V2000
    1.0174    2.0856    2.4897 C   0  0  0  0  0  0  0  0  0  0  0  0
    1.1838    1.2168    1.6330 C   0  0  0  0  0  0  0  0  0  0  0  0
    1.3871    0.1971    0.5943 C   0  0  0  0  0  0  0  0  0  0  0  0
    0.6334    0.6220   -0.6036 C   0  0  0  0  0  0  0  0  0  0  0  0
    0.9854    1.6188   -1.2338 O   0  0  0  0  0  0  0  0  0  0  0  0
   -0.5588   -0.0972   -1.1136 C   0  0  0  0  0  0  0  0  0  0  0  0
   -0.7862   -1.2043   -0.2405 O   0  0  0  0  0  0  0  0  0  0  0  0
   -1.8606   -2.0749   -0.4776 C   0  0  0  0  0  0  0  0  0  0  0  0
   -2.5694   -1.7974   -1.4850 O   0  0  0  0  0  0  0  0  0  0  0  0
    0.8644    2.8320    3.2060 H   0  0  0  0  0  0  0  0  0  0  0  0
    2.4636    0.2147    0.3077 H   0  0  0  0  0  0  0  0  0  0  0  0
    1.0610   -0.7848    0.9516 H   0  0  0  0  0  0  0  0  0  0  0  0
   -0.3288   -0.4722   -2.1437 H   0  0  0  0  0  0  0  0  0  0  0  0
   -1.4358    0.5631   -1.1822 H   0  0  0  0  0  0  0  0  0  0  0  0
   -2.0565   -2.9193    0.1640 H   0  0  0  0  0  0  0  0  0  0  0  0
  1  2  3  0
  2  3  1  0
  3  4  1  0
  4  5  2  0
  4  6  1  0
  6  7  1  0
  7  8  1  0
  8  9  2  0
  1 10  1  0
  3 11  1  0
  3 12  1  0
  6 13  1  0
  6 14  1  0
  8 15  1  0
M  END
