
     RDKit          3D

 23 23  0  0  0  0  0  0  0  0999 V2000
    0.5167    2.3977   -1.6288 C   0  0  0  0  0  0  0  0  0  0  0  0
    0.3080    1.4172   -0.9325 C   0  0  0  0  0  0  0  0  0  0  0  0
    0.0478    0.2285   -0.1171 C   0  0  0  0  0  0  0  0  0  0  0  0
   -0.0497    0.7059    1.3157 C   0  0  0  0  0  0  0  0  0  0  0  0
    1.2159   -0.6981   -0.3058 C   0  0  0  0  0  0  0  0  0  0  0  0
    2.5263   -0.1033    0.1140 C   0  0  0  0  0  0  0  0  0  0  0  0
   -1.1844   -0.4311   -0.6053 C   0  0  0  0  0  0  0  0  0  0  0  0
   -1.7647   -1.6523   -0.0363 C   0  0  0  0  0  0  0  0  0  0  0  0
   -2.3880   -0.3093    0.3428 C   0  0  0  0  0  0  0  0  0  0  0  0
    0.6928    3.2485   -2.2471 H   0  0  0  0  0  0  0  0  0  0  0  0
   -0.8278    1.4705    1.4521 H   0  0  0  0  0  0  0  0  0  0  0  0
   -0.3035   -0.1232    2.0172 H   0  0  0  0  0  0  0  0  0  0  0  0
    0.9036    1.1649    1.6495 H   0  0  0  0  0  0  0  0  0  0  0  0
    1.0211   -1.6501    0.2013 H   0  0  0  0  0  0  0  0  0  0  0  0
    1.2868   -0.9103   -1.3990 H   0  0  0  0  0  0  0  0  0  0  0  0
    3.3027   -0.9018   -0.0714 H   0  0  0  0  0  0  0  0  0  0  0  0
    2.6049    0.1480    1.1715 H   0  0  0  0  0  0  0  0  0  0  0  0
    2.8171    0.7262   -0.5757 H   0  0  0  0  0  0  0  0  0  0  0  0
   -1.4248   -0.2143   -1.6783 H   0  0  0  0  0  0  0  0  0  0  0  0
   -2.4279   -2.2492   -0.6939 H   0  0  0  0  0  0  0  0  0  0  0  0
   -1.2909   -2.2440    0.7565 H   0  0  0  0  0  0  0  0  0  0  0  0
   -2.2335   -0.0028    1.3732 H   0  0  0  0  0  0  0  0  0  0  0  0
   -3.3485   -0.0174   -0.1025 H   0  0  0  0  0  0  0  0  0  0  0  0
  1  2  3  0
  2  3  1  0
  3  4  1  0
  3  5  1  0
  5  6  1  0
  3  7  1  0
  7  8  1  0
  8  9  1  0
  9  7  1  0
  1 10  1  0
  4 11  1  0
  4 12  1  0
  4 13  1  0
  5 14  1  0
  5 15  1  0
  6 16  1  0
  6 17  1  0
  6 18  1  0
  7 19  1  0
  8 20  1  0
  8 21  1  0
  9 22  1  0
  9 23  1  0
M  END
