
     RDKit          3D

 19 19  0  0  0  0  0  0  0  0999 V2000
   -3.7669    0.1451   -0.3351 C   0  0  0  0  0  0  0  0  0  0  0  0
   -2.2764   -0.2221   -0.0282 C   0  0  0  0  0  0  0  0  0  0  0  0
   -0.8505   -0.5694    0.2897 C   0  0  0  0  0  0  0  0  0  0  0  0
   -0.2731    0.4453    1.0400 O   0  0  0  0  0  0  0  0  0  0  0  0
    0.0792    0.4716   -0.3180 C   0  0  0  0  0  0  0  0  0  0  0  0
   -0.6067    1.5313   -1.1718 C   0  0  0  0  0  0  0  0  0  0  0  0
    1.4842    0.1467   -0.5521 C   0  0  0  0  0  0  0  0  0  0  0  0
    1.8697   -1.1314   -0.2093 O   0  0  0  0  0  0  0  0  0  0  0  0
    1.8827   -1.3816    1.1350 C   0  0  0  0  0  0  0  0  0  0  0  0
   -4.2846    0.2800   -0.4404 H   0  0  0  0  0  0  0  0  0  0  0  0
   -0.6527   -1.5924    0.1322 H   0  0  0  0  0  0  0  0  0  0  0  0
   -0.4141    1.2745   -2.2341 H   0  0  0  0  0  0  0  0  0  0  0  0
   -0.3262    2.5825   -0.9366 H   0  0  0  0  0  0  0  0  0  0  0  0
   -1.7180    1.3704   -1.0250 H   0  0  0  0  0  0  0  0  0  0  0  0
    2.2149    0.8808   -0.0884 H   0  0  0  0  0  0  0  0  0  0  0  0
    1.7033    0.2602   -1.6731 H   0  0  0  0  0  0  0  0  0  0  0  0
    2.1779   -2.4685    1.2579 H   0  0  0  0  0  0  0  0  0  0  0  0
    2.7414   -0.8624    1.6735 H   0  0  0  0  0  0  0  0  0  0  0  0
    1.0159   -1.1606    1.7295 H   0  0  0  0  0  0  0  0  0  0  0  0
  1  2  3  0
  2  3  1  0
  3  4  1  0
  4  5  1  0
  5  6  1  0
  5  7  1  0
  7  8  1  0
  8  9  1  0
  5  3  1  0
  1 10  1  0
  3 11  1  0
  6 12  1  0
  6 13  1  0
  6 14  1  0
  7 15  1  0
  7 16  1  0
  9 17  1  0
  9 18  1  0
  9 19  1  0
M  END
