
     RDKit          3D

 17 16  0  0  0  0  0  0  0  0999 V2000
    2.1108   -1.3310   -0.7058 C   0  0  0  0  0  0  0  0  0  0  0  0
    1.2525   -0.5042   -0.5739 C   0  0  0  0  0  0  0  0  0  0  0  0
    0.2177    0.5207   -0.4281 C   0  0  0  0  0  0  0  0  0  0  0  0
    0.8114    1.8152    0.0749 C   0  0  0  0  0  0  0  0  0  0  0  0
   -0.9230    0.0484    0.4441 C   0  0  0  0  0  0  0  0  0  0  0  0
   -1.5409   -1.1789   -0.1907 C   0  0  0  0  0  0  0  0  0  0  0  0
   -0.5688   -0.1558    1.7540 O   0  0  0  0  0  0  0  0  0  0  0  0
    2.8698   -2.0704   -0.8063 H   0  0  0  0  0  0  0  0  0  0  0  0
   -0.2483    0.7684   -1.4261 H   0  0  0  0  0  0  0  0  0  0  0  0
    1.2871    2.4057   -0.7273 H   0  0  0  0  0  0  0  0  0  0  0  0
    1.5456    1.6290    0.8951 H   0  0  0  0  0  0  0  0  0  0  0  0
   -0.0435    2.4318    0.4432 H   0  0  0  0  0  0  0  0  0  0  0  0
   -1.6963    0.8421    0.4159 H   0  0  0  0  0  0  0  0  0  0  0  0
   -2.3002   -1.5848    0.5319 H   0  0  0  0  0  0  0  0  0  0  0  0
   -0.7985   -1.9326   -0.4773 H   0  0  0  0  0  0  0  0  0  0  0  0
   -2.0986   -0.8752   -1.1149 H   0  0  0  0  0  0  0  0  0  0  0  0
    0.1233   -0.8285    1.8912 H   0  0  0  0  0  0  0  0  0  0  0  0
  1  2  3  0
  2  3  1  0
  3  4  1  0
  3  5  1  0
  5  6  1  0
  5  7  1  0
  1  8  1  0
  3  9  1  0
  4 10  1  0
  4 11  1  0
  4 12  1  0
  5 13  1  0
  6 14  1  0
  6 15  1  0
  6 16  1  0
  7 17  1  0
M  END
