
     RDKit          3D

 15 14  0  0  0  0  0  0  0  0999 V2000
    0.5593    0.2800    2.4051 C   0  0  0  0  0  0  0  0  0  0  0  0
    0.0584    0.1772    1.4607 C   0  0  0  0  0  0  0  0  0  0  0  0
   -0.6354    0.0549    0.1304 C   0  0  0  0  0  0  0  0  0  0  0  0
   -1.7899    0.8269    0.2073 O   0  0  0  0  0  0  0  0  0  0  0  0
   -0.9345   -1.3569   -0.1182 C   0  0  0  0  0  0  0  0  0  0  0  0
   -2.1171   -1.7147   -0.2287 O   0  0  0  0  0  0  0  0  0  0  0  0
    0.2734    0.7003   -0.9086 C   0  0  0  0  0  0  0  0  0  0  0  0
    1.5980    0.0433   -0.9925 C   0  0  0  0  0  0  0  0  0  0  0  0
    1.6226   -1.1504   -1.1405 O   0  0  0  0  0  0  0  0  0  0  0  0
    1.1305    0.3903    3.4464 H   0  0  0  0  0  0  0  0  0  0  0  0
   -2.2915    0.7920   -0.6383 H   0  0  0  0  0  0  0  0  0  0  0  0
   -0.1741   -2.0995   -0.2053 H   0  0  0  0  0  0  0  0  0  0  0  0
    0.4400    1.7519   -0.5898 H   0  0  0  0  0  0  0  0  0  0  0  0
   -0.2502    0.6910   -1.9069 H   0  0  0  0  0  0  0  0  0  0  0  0
    2.5104    0.6137   -0.9210 H   0  0  0  0  0  0  0  0  0  0  0  0
  1  2  3  0
  2  3  1  0
  3  4  1  0
  3  5  1  0
  5  6  2  0
  3  7  1  0
  7  8  1  0
  8  9  2  0
  1 10  1  0
  4 11  1  0
  5 12  1  0
  7 13  1  0
  7 14  1  0
  8 15  1  0
M  END
