
     RDKit          3D

 17 20  0  0  0  0  0  0  0  0999 V2000
    3.2673    1.2475   -0.8414 C   0  0  0  0  0  0  0  0  0  0  0  0
    2.2033    0.7610   -0.6500 C   0  0  0  0  0  0  0  0  0  0  0  0
    0.9425    0.1721   -0.4446 C   0  0  0  0  0  0  0  0  0  0  0  0
    0.3667   -0.9955   -1.0381 C   0  0  0  0  0  0  0  0  0  0  0  0
   -0.9754   -0.4110   -0.9702 C   0  0  0  0  0  0  0  0  0  0  0  0
   -0.3720    0.8371   -0.4771 C   0  0  0  0  0  0  0  0  0  0  0  0
   -0.8814   -0.1831    0.4322 C   0  0  0  0  0  0  0  0  0  0  0  0
   -1.8731   -0.0653    1.4623 C   0  0  0  0  0  0  0  0  0  0  0  0
    0.4719   -0.7476    0.5066 C   0  0  0  0  0  0  0  0  0  0  0  0
    4.2221    1.6677   -1.0231 H   0  0  0  0  0  0  0  0  0  0  0  0
    0.6984   -1.9416   -1.3233 H   0  0  0  0  0  0  0  0  0  0  0  0
   -1.7898   -0.5273   -1.6309 H   0  0  0  0  0  0  0  0  0  0  0  0
   -0.6429    1.8242   -0.6494 H   0  0  0  0  0  0  0  0  0  0  0  0
   -2.4245   -1.0227    1.6232 H   0  0  0  0  0  0  0  0  0  0  0  0
   -1.4209    0.1869    2.4488 H   0  0  0  0  0  0  0  0  0  0  0  0
   -2.6589    0.6909    1.1734 H   0  0  0  0  0  0  0  0  0  0  0  0
    0.8666   -1.4932    1.1252 H   0  0  0  0  0  0  0  0  0  0  0  0
  1  2  3  0
  2  3  1  0
  3  4  1  0
  4  5  1  0
  5  6  1  0
  6  7  1  0
  7  8  1  0
  7  9  1  0
  6  3  1  0
  9  3  1  0
  9  4  1  0
  7  5  1  0
  1 10  1  0
  4 11  1  0
  5 12  1  0
  6 13  1  0
  8 14  1  0
  8 15  1  0
  8 16  1  0
  9 17  1  0
M  END
