
     RDKit          3D

 18 19  0  0  0  0  0  0  0  0999 V2000
    2.3716    1.9901   -0.7297 C   0  0  0  0  0  0  0  0  0  0  0  0
    1.5113    1.1427   -0.5383 C   0  0  0  0  0  0  0  0  0  0  0  0
    0.4825    0.1183   -0.3328 C   0  0  0  0  0  0  0  0  0  0  0  0
   -0.8691    0.6428    0.0284 C   0  0  0  0  0  0  0  0  0  0  0  0
   -2.0291   -0.2088    0.2750 C   0  0  0  0  0  0  0  0  0  0  0  0
   -1.3055    0.2754    1.4520 C   0  0  0  0  0  0  0  0  0  0  0  0
    0.9697   -1.1595    0.2552 C   0  0  0  0  0  0  0  0  0  0  0  0
    0.6341   -1.0802   -1.2177 C   0  0  0  0  0  0  0  0  0  0  0  0
    3.1128    2.7343   -0.8805 H   0  0  0  0  0  0  0  0  0  0  0  0
   -1.0828    1.6913   -0.3060 H   0  0  0  0  0  0  0  0  0  0  0  0
   -3.0490    0.2100    0.0526 H   0  0  0  0  0  0  0  0  0  0  0  0
   -1.9660   -1.2779   -0.0140 H   0  0  0  0  0  0  0  0  0  0  0  0
   -1.6733    1.1320    2.0516 H   0  0  0  0  0  0  0  0  0  0  0  0
   -0.6853   -0.4235    2.0287 H   0  0  0  0  0  0  0  0  0  0  0  0
    2.0575   -1.2448    0.5489 H   0  0  0  0  0  0  0  0  0  0  0  0
    0.2740   -1.7878    0.8539 H   0  0  0  0  0  0  0  0  0  0  0  0
   -0.2519   -1.6181   -1.6068 H   0  0  0  0  0  0  0  0  0  0  0  0
    1.4985   -1.1362   -1.9202 H   0  0  0  0  0  0  0  0  0  0  0  0
  1  2  3  0
  2  3  1  0
  3  4  1  0
  4  5  1  0
  5  6  1  0
  3  7  1  0
  7  8  1  0
  8  3  1  0
  6  4  1  0
  1  9  1  0
  4 10  1  0
  5 11  1  0
  5 12  1  0
  6 13  1  0
  6 14  1  0
  7 15  1  0
  7 16  1  0
  8 17  1  0
  8 18  1  0
M  END
