
     RDKit          3D

 17 17  0  0  0  0  0  0  0  0999 V2000
    0.1602    0.0406   -2.5325 C   0  0  0  0  0  0  0  0  0  0  0  0
    0.3216    0.6032   -1.4070 C   0  0  0  0  0  0  0  0  0  0  0  0
    0.4822    1.1739   -0.2256 C   0  0  0  0  0  0  0  0  0  0  0  0
   -0.5270    1.6765    0.5704 O   0  0  0  0  0  0  0  0  0  0  0  0
   -0.5109    0.5273    1.3190 C   0  0  0  0  0  0  0  0  0  0  0  0
   -1.5334   -0.5154    0.9130 C   0  0  0  0  0  0  0  0  0  0  0  0
    0.9001    0.2710    0.9427 C   0  0  0  0  0  0  0  0  0  0  0  0
    1.1597   -1.1365    0.5294 C   0  0  0  0  0  0  0  0  0  0  0  0
    0.7031   -1.6976   -0.4478 O   0  0  0  0  0  0  0  0  0  0  0  0
    0.0310   -0.4757   -3.5487 H   0  0  0  0  0  0  0  0  0  0  0  0
    1.2944    2.0410   -0.2108 H   0  0  0  0  0  0  0  0  0  0  0  0
   -0.5799    0.7736    2.4248 H   0  0  0  0  0  0  0  0  0  0  0  0
   -2.4185   -0.4215    1.6132 H   0  0  0  0  0  0  0  0  0  0  0  0
   -1.8852   -0.2951   -0.1182 H   0  0  0  0  0  0  0  0  0  0  0  0
   -1.1527   -1.5465    1.0668 H   0  0  0  0  0  0  0  0  0  0  0  0
    1.7139    0.7113    1.5167 H   0  0  0  0  0  0  0  0  0  0  0  0
    1.8414   -1.7301    1.1785 H   0  0  0  0  0  0  0  0  0  0  0  0
  1  2  3  0
  2  3  1  0
  3  4  1  0
  4  5  1  0
  5  6  1  0
  5  7  1  0
  7  8  1  0
  8  9  2  0
  7  3  1  0
  1 10  1  0
  3 11  1  0
  5 12  1  0
  6 13  1  0
  6 14  1  0
  6 15  1  0
  7 16  1  0
  8 17  1  0
M  END
