
     RDKit          3D

 19 20  0  0  0  0  0  0  0  0999 V2000
   -2.5677   -1.5167   -0.5333 C   0  0  0  0  0  0  0  0  0  0  0  0
   -1.6757   -0.7115   -0.3825 C   0  0  0  0  0  0  0  0  0  0  0  0
   -0.6065    0.2779   -0.1811 C   0  0  0  0  0  0  0  0  0  0  0  0
   -0.8935    1.6896   -0.6391 C   0  0  0  0  0  0  0  0  0  0  0  0
    0.1549    0.0652    1.1074 C   0  0  0  0  0  0  0  0  0  0  0  0
    1.3214    0.9637    1.4260 C   0  0  0  0  0  0  0  0  0  0  0  0
    1.7501    0.7955    0.1112 O   0  0  0  0  0  0  0  0  0  0  0  0
    0.7903   -0.1471   -0.2170 C   0  0  0  0  0  0  0  0  0  0  0  0
    1.2044   -1.5076   -0.6889 C   0  0  0  0  0  0  0  0  0  0  0  0
   -3.3632   -2.2206   -0.6524 H   0  0  0  0  0  0  0  0  0  0  0  0
   -0.3443    2.4522   -0.0889 H   0  0  0  0  0  0  0  0  0  0  0  0
   -1.9912    1.8386   -0.5986 H   0  0  0  0  0  0  0  0  0  0  0  0
   -0.5989    1.7784   -1.7212 H   0  0  0  0  0  0  0  0  0  0  0  0
   -0.0906   -0.7794    1.7673 H   0  0  0  0  0  0  0  0  0  0  0  0
    1.9630    0.5534    2.2084 H   0  0  0  0  0  0  0  0  0  0  0  0
    0.9540    1.9806    1.6708 H   0  0  0  0  0  0  0  0  0  0  0  0
    0.6741   -1.6911   -1.6643 H   0  0  0  0  0  0  0  0  0  0  0  0
    2.2953   -1.5242   -0.9665 H   0  0  0  0  0  0  0  0  0  0  0  0
    1.0241   -2.2969    0.0427 H   0  0  0  0  0  0  0  0  0  0  0  0
  1  2  3  0
  2  3  1  0
  3  4  1  0
  3  5  1  0
  5  6  1  0
  6  7  1  0
  7  8  1  0
  8  9  1  0
  8  3  1  0
  8  5  1  0
  1 10  1  0
  4 11  1  0
  4 12  1  0
  4 13  1  0
  5 14  1  0
  6 15  1  0
  6 16  1  0
  9 17  1  0
  9 18  1  0
  9 19  1  0
M  END
