
     RDKit          3D

 19 19  0  0  0  0  0  0  0  0999 V2000
    3.0630    0.2730   -2.0486 C   0  0  0  0  0  0  0  0  0  0  0  0
    1.9398   -0.2954   -1.4937 C   0  0  0  0  0  0  0  0  0  0  0  0
    0.7696   -0.8783   -0.8916 C   0  0  0  0  0  0  0  0  0  0  0  0
   -0.4221   -0.2566   -1.2381 O   0  0  0  0  0  0  0  0  0  0  0  0
   -0.8142    0.0284    0.0509 C   0  0  0  0  0  0  0  0  0  0  0  0
   -1.9318   -0.8101    0.6023 C   0  0  0  0  0  0  0  0  0  0  0  0
   -1.0407    1.5014    0.3240 C   0  0  0  0  0  0  0  0  0  0  0  0
    0.5244   -0.4654    0.5387 C   0  0  0  0  0  0  0  0  0  0  0  0
    1.2994    0.5943    0.9809 O   0  0  0  0  0  0  0  0  0  0  0  0
    3.6846    0.5767   -2.3450 H   0  0  0  0  0  0  0  0  0  0  0  0
    0.7424   -1.9634   -1.0756 H   0  0  0  0  0  0  0  0  0  0  0  0
   -2.3587   -1.4533   -0.1864 H   0  0  0  0  0  0  0  0  0  0  0  0
   -2.7503   -0.1435    0.9771 H   0  0  0  0  0  0  0  0  0  0  0  0
   -1.5378   -1.4674    1.3873 H   0  0  0  0  0  0  0  0  0  0  0  0
   -1.1154    1.6288    1.4324 H   0  0  0  0  0  0  0  0  0  0  0  0
   -0.1488    2.0833    0.0009 H   0  0  0  0  0  0  0  0  0  0  0  0
   -1.9703    1.8696   -0.1113 H   0  0  0  0  0  0  0  0  0  0  0  0
    0.4387   -1.3283    1.1940 H   0  0  0  0  0  0  0  0  0  0  0  0
    1.6280    0.5062    1.9017 H   0  0  0  0  0  0  0  0  0  0  0  0
  1  2  3  0
  2  3  1  0
  3  4  1  0
  4  5  1  0
  5  6  1  0
  5  7  1  0
  5  8  1  0
  8  9  1  0
  8  3  1  0
  1 10  1  0
  3 11  1  0
  6 12  1  0
  6 13  1  0
  6 14  1  0
  7 15  1  0
  7 16  1  0
  7 17  1  0
  8 18  1  0
  9 19  1  0
M  END
