
     RDKit          3D

 16 15  0  0  0  0  0  0  0  0999 V2000
    3.1937    0.8516    0.1659 C   0  0  0  0  0  0  0  0  0  0  0  0
    2.4568   -0.1204    0.2036 C   0  0  0  0  0  0  0  0  0  0  0  0
    1.6478   -1.1584    0.2292 C   0  0  0  0  0  0  0  0  0  0  0  0
    0.4254   -0.8669   -0.7618 C   0  0  0  0  0  0  0  0  0  0  0  0
    0.3133   -1.3920   -1.7504 O   0  0  0  0  0  0  0  0  0  0  0  0
   -0.5879    0.1526   -0.1901 C   0  0  0  0  0  0  0  0  0  0  0  0
   -1.5478    0.3600   -1.0994 O   0  0  0  0  0  0  0  0  0  0  0  0
   -2.7084    0.7108   -0.4676 C   0  0  0  0  0  0  0  0  0  0  0  0
    3.8300    1.6629    0.1276 H   0  0  0  0  0  0  0  0  0  0  0  0
    2.0010   -2.1422    0.0345 H   0  0  0  0  0  0  0  0  0  0  0  0
    1.0752   -1.2520    1.2878 H   0  0  0  0  0  0  0  0  0  0  0  0
   -0.0334    1.1150   -0.0488 H   0  0  0  0  0  0  0  0  0  0  0  0
   -0.9247   -0.2454    0.7266 H   0  0  0  0  0  0  0  0  0  0  0  0
   -3.2437   -0.2248   -0.0623 H   0  0  0  0  0  0  0  0  0  0  0  0
   -3.4652    1.3127   -1.0051 H   0  0  0  0  0  0  0  0  0  0  0  0
   -2.4322    1.2365    0.4902 H   0  0  0  0  0  0  0  0  0  0  0  0
  1  2  3  0
  2  3  1  0
  3  4  1  0
  4  5  2  0
  4  6  1  0
  6  7  1  0
  7  8  1  0
  1  9  1  0
  3 10  1  0
  3 11  1  0
  6 12  1  0
  6 13  1  0
  8 14  1  0
  8 15  1  0
  8 16  1  0
M  END
