
     RDKit          3D

 21 20  0  0  0  0  0  0  0  0999 V2000
    3.7739    0.0461    1.3337 C   0  0  0  0  0  0  0  0  0  0  0  0
    2.5728    0.1410    1.0224 C   0  0  0  0  0  0  0  0  0  0  0  0
    1.1367    0.2371    0.6531 C   0  0  0  0  0  0  0  0  0  0  0  0
    0.6758    1.6347    0.9613 C   0  0  0  0  0  0  0  0  0  0  0  0
    0.9742   -0.0797   -0.7847 C   0  0  0  0  0  0  0  0  0  0  0  0
   -0.3199   -0.0063   -1.2461 O   0  0  0  0  0  0  0  0  0  0  0  0
   -1.1692   -0.8603   -0.5615 C   0  0  0  0  0  0  0  0  0  0  0  0
   -2.5787   -0.7518   -1.1467 C   0  0  0  0  0  0  0  0  0  0  0  0
   -3.4821   -1.5723   -0.4585 O   0  0  0  0  0  0  0  0  0  0  0  0
    4.8043   -0.0513    1.6000 H   0  0  0  0  0  0  0  0  0  0  0  0
    0.5722   -0.5013    1.2798 H   0  0  0  0  0  0  0  0  0  0  0  0
    1.1750    1.9021    1.9174 H   0  0  0  0  0  0  0  0  0  0  0  0
    0.8710    2.3421    0.1364 H   0  0  0  0  0  0  0  0  0  0  0  0
   -0.4295    1.5926    1.1898 H   0  0  0  0  0  0  0  0  0  0  0  0
    1.3281   -1.1182   -1.0285 H   0  0  0  0  0  0  0  0  0  0  0  0
    1.6182    0.6481   -1.3535 H   0  0  0  0  0  0  0  0  0  0  0  0
   -0.8057   -1.9251   -0.6548 H   0  0  0  0  0  0  0  0  0  0  0  0
   -1.2120   -0.5552    0.4902 H   0  0  0  0  0  0  0  0  0  0  0  0
   -2.5376   -1.1028   -2.2329 H   0  0  0  0  0  0  0  0  0  0  0  0
   -2.8832    0.2898   -1.1617 H   0  0  0  0  0  0  0  0  0  0  0  0
   -4.0842   -0.9275    0.0447 H   0  0  0  0  0  0  0  0  0  0  0  0
  1  2  3  0
  2  3  1  0
  3  4  1  0
  3  5  1  0
  5  6  1  0
  6  7  1  0
  7  8  1  0
  8  9  1  0
  1 10  1  0
  3 11  1  0
  4 12  1  0
  4 13  1  0
  4 14  1  0
  5 15  1  0
  5 16  1  0
  7 17  1  0
  7 18  1  0
  8 19  1  0
  8 20  1  0
  9 21  1  0
M  END
