
     RDKit          3D

 17 16  0  0  0  0  0  0  0  0999 V2000
   -2.9179    1.7088    1.5968 C   0  0  0  0  0  0  0  0  0  0  0  0
   -2.4891    0.5655    1.0215 C   0  0  0  0  0  0  0  0  0  0  0  0
   -2.0496   -0.5504    0.4442 C   0  0  0  0  0  0  0  0  0  0  0  0
   -0.5906   -0.1803   -0.0025 C   0  0  0  0  0  0  0  0  0  0  0  0
    0.3771   -1.5058   -0.3997 C   0  0  0  0  0  0  0  0  0  0  0  0
    1.5034   -0.6548   -0.7722 C   0  0  0  0  0  0  0  0  0  0  0  0
    2.5190    0.1071   -1.1277 C   0  0  0  0  0  0  0  0  0  0  0  0
    3.5889    0.9282   -1.5018 C   0  0  0  0  0  0  0  0  0  0  0  0
    4.7456    0.1432   -1.5416 O   0  0  0  0  0  0  0  0  0  0  0  0
   -3.3230    2.8451    2.1665 H   0  0  0  0  0  0  0  0  0  0  0  0
   -2.0256   -1.4713    1.0337 H   0  0  0  0  0  0  0  0  0  0  0  0
   -2.5777   -0.7004   -0.5479 H   0  0  0  0  0  0  0  0  0  0  0  0
   -0.6740    0.4280   -0.9523 H   0  0  0  0  0  0  0  0  0  0  0  0
   -0.0785    0.3665    0.7697 H   0  0  0  0  0  0  0  0  0  0  0  0
    0.4868   -1.9643    0.5662 H   0  0  0  0  0  0  0  0  0  0  0  0
   -0.1423   -1.9648   -1.1184 H   0  0  0  0  0  0  0  0  0  0  0  0
    3.6476    1.8998   -1.7071 H   0  0  0  0  0  0  0  0  0  0  0  0
  1  2  3  0
  2  3  1  0
  3  4  1  0
  4  5  1  0
  5  6  1  0
  6  7  3  0
  7  8  1  0
  8  9  2  0
  1 10  1  0
  3 11  1  0
  3 12  1  0
  4 13  1  0
  4 14  1  0
  5 15  1  0
  5 16  1  0
  8 17  1  0
M  END
