
     RDKit          3D

 17 18  0  0  0  0  0  0  0  0999 V2000
    0.5288    2.6650    0.6017 C   0  0  0  0  0  0  0  0  0  0  0  0
    0.3145    1.6605   -0.0117 C   0  0  0  0  0  0  0  0  0  0  0  0
    0.0755    0.4264   -0.7523 C   0  0  0  0  0  0  0  0  0  0  0  0
   -0.6502    0.5384   -1.9092 O   0  0  0  0  0  0  0  0  0  0  0  0
    1.2127   -0.5447   -0.7377 C   0  0  0  0  0  0  0  0  0  0  0  0
    0.9883   -0.7056    0.7352 C   0  0  0  0  0  0  0  0  0  0  0  0
   -0.3437   -0.7525    0.0746 C   0  0  0  0  0  0  0  0  0  0  0  0
   -1.5745   -0.9915    0.6275 C   0  0  0  0  0  0  0  0  0  0  0  0
    0.2748   -1.5429   -0.9238 O   0  0  0  0  0  0  0  0  0  0  0  0
    0.7050    3.5766    1.1493 H   0  0  0  0  0  0  0  0  0  0  0  0
   -0.0981    0.8906   -2.6494 H   0  0  0  0  0  0  0  0  0  0  0  0
    2.1014   -0.4482   -1.2074 H   0  0  0  0  0  0  0  0  0  0  0  0
    1.2724   -1.6977    1.1611 H   0  0  0  0  0  0  0  0  0  0  0  0
    1.2137    0.1475    1.3756 H   0  0  0  0  0  0  0  0  0  0  0  0
   -1.5718   -1.1741    1.7428 H   0  0  0  0  0  0  0  0  0  0  0  0
   -2.1229   -1.8918    0.2194 H   0  0  0  0  0  0  0  0  0  0  0  0
   -2.3260   -0.1560    0.5046 H   0  0  0  0  0  0  0  0  0  0  0  0
  1  2  3  0
  2  3  1  0
  3  4  1  0
  3  5  1  0
  5  6  1  0
  6  7  1  0
  7  8  1  0
  7  9  1  0
  7  3  1  0
  9  5  1  0
  1 10  1  0
  4 11  1  0
  5 12  1  0
  6 13  1  0
  6 14  1  0
  8 15  1  0
  8 16  1  0
  8 17  1  0
M  END
