
     RDKit          3D

 21 20  0  0  0  0  0  0  0  0999 V2000
    2.9938    2.5001   -0.5676 C   0  0  0  0  0  0  0  0  0  0  0  0
    1.5570    1.4974   -0.7958 C   0  0  0  0  0  0  0  0  0  0  0  0
    0.4584    0.7386   -0.9630 C   0  0  0  0  0  0  0  0  0  0  0  0
    1.4803   -0.7092   -1.2898 C   0  0  0  0  0  0  0  0  0  0  0  0
    0.1518    0.3027    0.4439 C   0  0  0  0  0  0  0  0  0  0  0  0
   -1.2473   -0.3973    0.6872 C   0  0  0  0  0  0  0  0  0  0  0  0
   -1.5406   -1.6221   -0.1266 C   0  0  0  0  0  0  0  0  0  0  0  0
   -1.8457    0.1254    1.3506 C   0  0  0  0  0  0  0  0  0  0  0  0
   -2.6528    0.8626    2.2562 C   0  0  0  0  0  0  0  0  0  0  0  0
    3.7696    3.0416   -0.4428 H   0  0  0  0  0  0  0  0  0  0  0  0
   -0.1774    0.6769   -1.6964 H   0  0  0  0  0  0  0  0  0  0  0  0
    2.4075   -0.3128   -1.6814 H   0  0  0  0  0  0  0  0  0  0  0  0
    0.9103   -1.3225   -1.8677 H   0  0  0  0  0  0  0  0  0  0  0  0
    1.7136   -1.0490   -0.2423 H   0  0  0  0  0  0  0  0  0  0  0  0
    0.9933   -0.3307    0.8667 H   0  0  0  0  0  0  0  0  0  0  0  0
    0.1765    1.1835    1.0819 H   0  0  0  0  0  0  0  0  0  0  0  0
   -0.5119   -1.1876    1.6110 H   0  0  0  0  0  0  0  0  0  0  0  0
   -1.1493   -1.4363   -1.1858 H   0  0  0  0  0  0  0  0  0  0  0  0
   -1.3510   -2.5919    0.2908 H   0  0  0  0  0  0  0  0  0  0  0  0
   -2.6944   -1.5648   -0.2628 H   0  0  0  0  0  0  0  0  0  0  0  0
   -3.4419    1.5955    3.1188 H   0  0  0  0  0  0  0  0  0  0  0  0
  1  2  3  0
  2  3  1  0
  3  4  1  0
  3  5  1  0
  5  6  1  0
  6  7  1  0
  6  8  1  0
  8  9  3  0
  1 10  1  0
  3 11  1  0
  4 12  1  0
  4 13  1  0
  4 14  1  0
  5 15  1  0
  5 16  1  0
  6 17  1  0
  7 18  1  0
  7 19  1  0
  7 20  1  0
  9 21  1  0
M  END
