
     RDKit          3D

 19 20  0  0  0  0  0  0  0  0999 V2000
    0.0067    2.5718    0.9354 C   0  0  0  0  0  0  0  0  0  0  0  0
    0.4083    1.5560    0.2172 C   0  0  0  0  0  0  0  0  0  0  0  0
    0.8682    0.4336   -0.6000 C   0  0  0  0  0  0  0  0  0  0  0  0
    0.1872    0.5531   -1.8435 C   0  0  0  0  0  0  0  0  0  0  0  0
   -0.4677   -0.7700   -1.9010 O   0  0  0  0  0  0  0  0  0  0  0  0
   -1.2593   -0.5887   -0.6718 C   0  0  0  0  0  0  0  0  0  0  0  0
   -0.1730   -0.5655    0.2322 C   0  0  0  0  0  0  0  0  0  0  0  0
    0.1337   -0.6037    1.6277 C   0  0  0  0  0  0  0  0  0  0  0  0
    0.5625   -1.7724    0.6899 C   0  0  0  0  0  0  0  0  0  0  0  0
   -0.4650    3.7737    1.8167 H   0  0  0  0  0  0  0  0  0  0  0  0
    1.7771    0.1360   -0.1755 H   0  0  0  0  0  0  0  0  0  0  0  0
   -0.6792    1.2765   -1.8372 H   0  0  0  0  0  0  0  0  0  0  0  0
    0.8276    0.6229   -2.7198 H   0  0  0  0  0  0  0  0  0  0  0  0
   -1.9258   -1.4874   -0.7407 H   0  0  0  0  0  0  0  0  0  0  0  0
   -1.8387    0.3377   -0.8430 H   0  0  0  0  0  0  0  0  0  0  0  0
    0.9697   -0.0370    2.0783 H   0  0  0  0  0  0  0  0  0  0  0  0
   -0.6473   -0.9149    2.3868 H   0  0  0  0  0  0  0  0  0  0  0  0
    1.6602   -1.7866    0.5036 H   0  0  0  0  0  0  0  0  0  0  0  0
    0.0548   -2.7352    0.8447 H   0  0  0  0  0  0  0  0  0  0  0  0
  1  2  3  0
  2  3  1  0
  3  4  1  0
  4  5  1  0
  5  6  1  0
  6  7  1  0
  7  8  1  0
  8  9  1  0
  7  3  1  0
  9  7  1  0
  1 10  1  0
  3 11  1  0
  4 12  1  0
  4 13  1  0
  6 14  1  0
  6 15  1  0
  8 16  1  0
  8 17  1  0
  9 18  1  0
  9 19  1  0
M  END
