
     RDKit          3D

 17 17  0  0  0  0  0  0  0  0999 V2000
   -2.9315    0.6128    2.1739 C   0  0  0  0  0  0  0  0  0  0  0  0
   -1.8450    0.5567    1.1322 C   0  0  0  0  0  0  0  0  0  0  0  0
   -1.0397    0.5129    0.3422 C   0  0  0  0  0  0  0  0  0  0  0  0
   -0.0078   -0.8163    0.5150 C   0  0  0  0  0  0  0  0  0  0  0  0
    0.9083   -0.4480    0.0791 C   0  0  0  0  0  0  0  0  0  0  0  0
    2.2770    0.1304   -0.5687 C   0  0  0  0  0  0  0  0  0  0  0  0
    3.3737    0.6182   -1.0979 C   0  0  0  0  0  0  0  0  0  0  0  0
   -1.8460    0.2919   -1.1281 C   0  0  0  0  0  0  0  0  0  0  0  0
   -0.7487    0.9604   -0.9460 O   0  0  0  0  0  0  0  0  0  0  0  0
   -4.0971    0.6912    3.3024 H   0  0  0  0  0  0  0  0  0  0  0  0
   -0.1871   -1.2281    1.6096 H   0  0  0  0  0  0  0  0  0  0  0  0
   -0.6649   -1.6415   -0.1051 H   0  0  0  0  0  0  0  0  0  0  0  0
    3.4137    1.7543   -1.0857 H   0  0  0  0  0  0  0  0  0  0  0  0
    3.9729    0.1517   -1.8237 H   0  0  0  0  0  0  0  0  0  0  0  0
    4.1688    0.4495   -0.0639 H   0  0  0  0  0  0  0  0  0  0  0  0
   -2.8256    0.8485   -1.0026 H   0  0  0  0  0  0  0  0  0  0  0  0
   -1.9210   -0.7445   -1.3327 H   0  0  0  0  0  0  0  0  0  0  0  0
  1  2  3  0
  2  3  1  0
  3  4  1  0
  4  5  1  0
  5  6  3  0
  6  7  1  0
  3  8  1  0
  8  9  1  0
  9  3  1  0
  1 10  1  0
  4 11  1  0
  4 12  1  0
  7 13  1  0
  7 14  1  0
  7 15  1  0
  8 16  1  0
  8 17  1  0
M  END
