
     RDKit          3D

 17 18  0  0  0  0  0  0  0  0999 V2000
    1.7195   -1.9591    0.5535 C   0  0  0  0  0  0  0  0  0  0  0  0
    1.2678   -0.8997    0.2956 C   0  0  0  0  0  0  0  0  0  0  0  0
    0.6360    0.5219   -0.0400 C   0  0  0  0  0  0  0  0  0  0  0  0
    1.6726    1.3028    0.1799 C   0  0  0  0  0  0  0  0  0  0  0  0
    2.6314    2.0434    0.3859 C   0  0  0  0  0  0  0  0  0  0  0  0
   -0.7641    0.5827   -0.5973 C   0  0  0  0  0  0  0  0  0  0  0  0
   -1.9844    0.0444   -0.3081 C   0  0  0  0  0  0  0  0  0  0  0  0
   -1.3043   -0.8653    0.7822 C   0  0  0  0  0  0  0  0  0  0  0  0
   -0.5147    0.5491    0.7729 C   0  0  0  0  0  0  0  0  0  0  0  0
    2.2761   -3.3263    0.8738 H   0  0  0  0  0  0  0  0  0  0  0  0
    3.5161    2.7434    0.5731 H   0  0  0  0  0  0  0  0  0  0  0  0
   -0.4237    0.6577   -1.6639 H   0  0  0  0  0  0  0  0  0  0  0  0
   -2.4645   -0.6594   -1.1296 H   0  0  0  0  0  0  0  0  0  0  0  0
   -2.6670    0.7348    0.1997 H   0  0  0  0  0  0  0  0  0  0  0  0
   -1.9972   -1.1126    1.5838 H   0  0  0  0  0  0  0  0  0  0  0  0
   -0.6112   -1.6542    0.3460 H   0  0  0  0  0  0  0  0  0  0  0  0
   -0.9883    1.2963    1.3772 H   0  0  0  0  0  0  0  0  0  0  0  0
  1  2  3  0
  2  3  1  0
  3  4  1  0
  4  5  3  0
  3  6  1  0
  6  7  1  0
  7  8  1  0
  8  9  1  0
  9  3  1  0
  9  6  1  0
  1 10  1  0
  5 11  1  0
  6 12  1  0
  7 13  1  0
  7 14  1  0
  8 15  1  0
  8 16  1  0
  9 17  1  0
M  END
