
     RDKit          3D

 21 21  0  0  0  0  0  0  0  0999 V2000
   -0.8168    2.3783    0.4529 C   0  0  0  0  0  0  0  0  0  0  0  0
   -0.5345    1.2225    0.1403 C   0  0  0  0  0  0  0  0  0  0  0  0
   -0.2241   -0.1529   -0.2359 C   0  0  0  0  0  0  0  0  0  0  0  0
    1.1494   -0.3756   -0.7524 C   0  0  0  0  0  0  0  0  0  0  0  0
    2.2017   -0.1119    0.0523 O   0  0  0  0  0  0  0  0  0  0  0  0
    2.3795    1.1366    0.5512 C   0  0  0  0  0  0  0  0  0  0  0  0
   -1.3058   -0.7891   -1.1232 C   0  0  0  0  0  0  0  0  0  0  0  0
   -2.0247   -1.3115    0.1171 C   0  0  0  0  0  0  0  0  0  0  0  0
   -0.6743   -1.1723    0.8215 C   0  0  0  0  0  0  0  0  0  0  0  0
   -1.0422    3.3775    0.7185 H   0  0  0  0  0  0  0  0  0  0  0  0
    1.1974   -1.4781   -1.0341 H   0  0  0  0  0  0  0  0  0  0  0  0
    1.2049    0.1296   -1.7504 H   0  0  0  0  0  0  0  0  0  0  0  0
    3.3503    1.0912    1.1519 H   0  0  0  0  0  0  0  0  0  0  0  0
    1.6412    1.3869    1.3784 H   0  0  0  0  0  0  0  0  0  0  0  0
    2.3532    1.9746   -0.1458 H   0  0  0  0  0  0  0  0  0  0  0  0
   -1.8976   -0.0475   -1.6918 H   0  0  0  0  0  0  0  0  0  0  0  0
   -0.9145   -1.6072   -1.7633 H   0  0  0  0  0  0  0  0  0  0  0  0
   -2.3911   -2.3478    0.0366 H   0  0  0  0  0  0  0  0  0  0  0  0
   -2.7758   -0.5731    0.4545 H   0  0  0  0  0  0  0  0  0  0  0  0
   -0.7996   -0.6400    1.7868 H   0  0  0  0  0  0  0  0  0  0  0  0
   -0.0768   -2.0902    0.8350 H   0  0  0  0  0  0  0  0  0  0  0  0
  1  2  3  0
  2  3  1  0
  3  4  1  0
  4  5  1  0
  5  6  1  0
  3  7  1  0
  7  8  1  0
  8  9  1  0
  9  3  1  0
  1 10  1  0
  4 11  1  0
  4 12  1  0
  6 13  1  0
  6 14  1  0
  6 15  1  0
  7 16  1  0
  7 17  1  0
  8 18  1  0
  8 19  1  0
  9 20  1  0
  9 21  1  0
M  END
