
     RDKit          3D

 19 18  0  0  0  0  0  0  0  0999 V2000
   -2.4302    2.2352    0.6019 C   0  0  0  0  0  0  0  0  0  0  0  0
   -1.7089    1.2541    0.4534 C   0  0  0  0  0  0  0  0  0  0  0  0
   -0.8854    0.0942    0.2732 C   0  0  0  0  0  0  0  0  0  0  0  0
   -1.0334   -0.8812    1.4740 C   0  0  0  0  0  0  0  0  0  0  0  0
   -1.6041   -0.7406   -0.8949 C   0  0  0  0  0  0  0  0  0  0  0  0
    0.4504    0.1923   -0.0265 C   0  0  0  0  0  0  0  0  0  0  0  0
    1.7293    0.2759   -0.3345 C   0  0  0  0  0  0  0  0  0  0  0  0
    3.1511    0.3464   -0.6638 C   0  0  0  0  0  0  0  0  0  0  0  0
    3.4739   -0.8437   -1.3114 O   0  0  0  0  0  0  0  0  0  0  0  0
   -3.0741    3.1004    0.7169 H   0  0  0  0  0  0  0  0  0  0  0  0
   -0.6736   -1.9012    1.1059 H   0  0  0  0  0  0  0  0  0  0  0  0
   -0.3696   -0.6092    2.2948 H   0  0  0  0  0  0  0  0  0  0  0  0
   -2.0629   -0.9238    1.7717 H   0  0  0  0  0  0  0  0  0  0  0  0
   -0.8874   -1.4391   -1.3283 H   0  0  0  0  0  0  0  0  0  0  0  0
   -1.9028   -0.0052   -1.6436 H   0  0  0  0  0  0  0  0  0  0  0  0
   -2.4914   -1.2192   -0.4714 H   0  0  0  0  0  0  0  0  0  0  0  0
    3.7564    0.5808    0.1930 H   0  0  0  0  0  0  0  0  0  0  0  0
    3.3352    1.1658   -1.4133 H   0  0  0  0  0  0  0  0  0  0  0  0
    3.2275   -0.6817   -2.2628 H   0  0  0  0  0  0  0  0  0  0  0  0
  1  2  3  0
  2  3  1  0
  3  4  1  0
  3  5  1  0
  3  6  1  0
  6  7  3  0
  7  8  1  0
  8  9  1  0
  1 10  1  0
  4 11  1  0
  4 12  1  0
  4 13  1  0
  5 14  1  0
  5 15  1  0
  5 16  1  0
  8 17  1  0
  8 18  1  0
  9 19  1  0
M  END
