
     RDKit          3D

 20 19  0  0  0  0  0  0  0  0999 V2000
    1.6985    1.7735   -2.9262 C   0  0  0  0  0  0  0  0  0  0  0  0
    1.4804    1.0691   -1.9466 C   0  0  0  0  0  0  0  0  0  0  0  0
    1.2099    0.2109   -0.7928 C   0  0  0  0  0  0  0  0  0  0  0  0
    1.1916   -1.2318   -1.2468 C   0  0  0  0  0  0  0  0  0  0  0  0
   -0.1414    0.5757   -0.1716 C   0  0  0  0  0  0  0  0  0  0  0  0
   -0.3909   -0.3373    1.0271 C   0  0  0  0  0  0  0  0  0  0  0  0
   -1.7345    0.0265    1.6428 C   0  0  0  0  0  0  0  0  0  0  0  0
   -2.7394   -0.1486    0.6952 O   0  0  0  0  0  0  0  0  0  0  0  0
    1.8706    2.3892   -3.7668 H   0  0  0  0  0  0  0  0  0  0  0  0
    1.9699    0.3649   -0.0158 H   0  0  0  0  0  0  0  0  0  0  0  0
    0.3051   -1.4727   -1.8567 H   0  0  0  0  0  0  0  0  0  0  0  0
    1.2579   -1.9267   -0.3700 H   0  0  0  0  0  0  0  0  0  0  0  0
    2.0917   -1.4002   -1.8689 H   0  0  0  0  0  0  0  0  0  0  0  0
   -0.0261    1.6172    0.2017 H   0  0  0  0  0  0  0  0  0  0  0  0
   -0.9567    0.5457   -0.8899 H   0  0  0  0  0  0  0  0  0  0  0  0
   -0.4430   -1.3700    0.6260 H   0  0  0  0  0  0  0  0  0  0  0  0
    0.3997   -0.2144    1.7814 H   0  0  0  0  0  0  0  0  0  0  0  0
   -1.7242    1.0599    2.0208 H   0  0  0  0  0  0  0  0  0  0  0  0
   -1.9217   -0.7122    2.4517 H   0  0  0  0  0  0  0  0  0  0  0  0
   -3.3975   -0.8188    0.9657 H   0  0  0  0  0  0  0  0  0  0  0  0
  1  2  3  0
  2  3  1  0
  3  4  1  0
  3  5  1  0
  5  6  1  0
  6  7  1  0
  7  8  1  0
  1  9  1  0
  3 10  1  0
  4 11  1  0
  4 12  1  0
  4 13  1  0
  5 14  1  0
  5 15  1  0
  6 16  1  0
  6 17  1  0
  7 18  1  0
  7 19  1  0
  8 20  1  0
M  END
