
     RDKit          3D

 17 18  0  0  0  0  0  0  0  0999 V2000
    1.9469    2.2331    1.0074 C   0  0  0  0  0  0  0  0  0  0  0  0
    1.1985    1.2041    0.9601 C   0  0  0  0  0  0  0  0  0  0  0  0
    0.3606    0.0484    0.8819 C   0  0  0  0  0  0  0  0  0  0  0  0
    0.7776   -1.0824   -0.0245 C   0  0  0  0  0  0  0  0  0  0  0  0
    1.9352   -0.8727   -0.7500 O   0  0  0  0  0  0  0  0  0  0  0  0
   -0.4802   -0.8795   -0.8544 C   0  0  0  0  0  0  0  0  0  0  0  0
   -1.7671   -0.8960   -0.1381 C   0  0  0  0  0  0  0  0  0  0  0  0
   -0.8538    0.2385    0.0473 C   0  0  0  0  0  0  0  0  0  0  0  0
   -1.1423    1.4960   -0.4945 O   0  0  0  0  0  0  0  0  0  0  0  0
    2.5444    3.0383    1.0300 H   0  0  0  0  0  0  0  0  0  0  0  0
    0.0626   -0.3264    1.9155 H   0  0  0  0  0  0  0  0  0  0  0  0
    0.8104   -2.0404    0.5297 H   0  0  0  0  0  0  0  0  0  0  0  0
    1.6924   -0.5999   -1.6900 H   0  0  0  0  0  0  0  0  0  0  0  0
   -0.3990   -0.7126   -1.9452 H   0  0  0  0  0  0  0  0  0  0  0  0
   -2.7232   -0.6922   -0.5847 H   0  0  0  0  0  0  0  0  0  0  0  0
   -1.8112   -1.6942    0.6692 H   0  0  0  0  0  0  0  0  0  0  0  0
   -2.1521    1.5380   -0.5599 H   0  0  0  0  0  0  0  0  0  0  0  0
  1  2  3  0
  2  3  1  0
  3  4  1  0
  4  5  1  0
  4  6  1  0
  6  7  1  0
  7  8  1  0
  8  9  1  0
  8  3  1  0
  8  6  1  0
  1 10  1  0
  3 11  1  0
  4 12  1  0
  5 13  1  0
  6 14  1  0
  7 15  1  0
  7 16  1  0
  9 17  1  0
M  END
