
     RDKit          3D

 19 20  0  0  0  0  0  0  0  0999 V2000
    2.6750   -0.5177   -1.9348 C   0  0  0  0  0  0  0  0  0  0  0  0
    1.6070   -0.0698   -1.5587 C   0  0  0  0  0  0  0  0  0  0  0  0
    0.3295    0.4928   -1.1022 C   0  0  0  0  0  0  0  0  0  0  0  0
    0.3614    1.7587   -0.3280 C   0  0  0  0  0  0  0  0  0  0  0  0
   -0.5951    1.1714    0.7085 C   0  0  0  0  0  0  0  0  0  0  0  0
   -0.3656   -0.1710    0.0231 C   0  0  0  0  0  0  0  0  0  0  0  0
    0.1827   -1.2120    0.7187 O   0  0  0  0  0  0  0  0  0  0  0  0
   -0.7438   -1.5937    1.7098 C   0  0  0  0  0  0  0  0  0  0  0  0
   -0.9120   -0.2827   -1.3345 C   0  0  0  0  0  0  0  0  0  0  0  0
    3.6098   -0.9087   -2.2522 H   0  0  0  0  0  0  0  0  0  0  0  0
   -0.0078    2.6730   -0.8205 H   0  0  0  0  0  0  0  0  0  0  0  0
    1.3647    1.9024    0.1663 H   0  0  0  0  0  0  0  0  0  0  0  0
   -1.6158    1.5654    0.5029 H   0  0  0  0  0  0  0  0  0  0  0  0
   -0.2573    1.2215    1.7425 H   0  0  0  0  0  0  0  0  0  0  0  0
   -1.6710   -1.8943    1.1431 H   0  0  0  0  0  0  0  0  0  0  0  0
   -0.3709   -2.4327    2.3230 H   0  0  0  0  0  0  0  0  0  0  0  0
   -0.9425   -0.6774    2.3177 H   0  0  0  0  0  0  0  0  0  0  0  0
   -0.7702   -1.2361   -1.8849 H   0  0  0  0  0  0  0  0  0  0  0  0
   -1.8781    0.2108   -1.5706 H   0  0  0  0  0  0  0  0  0  0  0  0
  1  2  3  0
  2  3  1  0
  3  4  1  0
  4  5  1  0
  5  6  1  0
  6  7  1  0
  7  8  1  0
  6  9  1  0
  6  3  1  0
  9  3  1  0
  1 10  1  0
  4 11  1  0
  4 12  1  0
  5 13  1  0
  5 14  1  0
  8 15  1  0
  8 16  1  0
  8 17  1  0
  9 18  1  0
  9 19  1  0
M  END
