
     RDKit          3D

 17 18  0  0  0  0  0  0  0  0999 V2000
   -2.3602    0.9153   -1.4019 C   0  0  0  0  0  0  0  0  0  0  0  0
   -1.4651    0.4275   -0.7564 C   0  0  0  0  0  0  0  0  0  0  0  0
   -0.3874   -0.1451    0.0396 C   0  0  0  0  0  0  0  0  0  0  0  0
   -0.7474   -1.4955    0.6193 C   0  0  0  0  0  0  0  0  0  0  0  0
    0.0809    0.7925    1.1072 C   0  0  0  0  0  0  0  0  0  0  0  0
    1.3650    1.0803    0.9309 C   0  0  0  0  0  0  0  0  0  0  0  0
    1.8807    0.3576   -0.2795 C   0  0  0  0  0  0  0  0  0  0  0  0
    1.3490    0.8240   -1.4630 O   0  0  0  0  0  0  0  0  0  0  0  0
    0.8528   -0.3604   -0.8188 C   0  0  0  0  0  0  0  0  0  0  0  0
   -3.1472    1.3358   -1.9871 H   0  0  0  0  0  0  0  0  0  0  0  0
   -1.3229   -1.3067    1.5601 H   0  0  0  0  0  0  0  0  0  0  0  0
   -1.4425   -2.0476   -0.0444 H   0  0  0  0  0  0  0  0  0  0  0  0
    0.1425   -2.1172    0.7694 H   0  0  0  0  0  0  0  0  0  0  0  0
   -0.4895    1.2108    1.9279 H   0  0  0  0  0  0  0  0  0  0  0  0
    1.9617    1.7337    1.5555 H   0  0  0  0  0  0  0  0  0  0  0  0
    2.9439    0.0032   -0.2602 H   0  0  0  0  0  0  0  0  0  0  0  0
    0.7857   -1.2080   -1.4986 H   0  0  0  0  0  0  0  0  0  0  0  0
  1  2  3  0
  2  3  1  0
  3  4  1  0
  3  5  1  0
  5  6  2  0
  6  7  1  0
  7  8  1  0
  8  9  1  0
  9  3  1  0
  9  7  1  0
  1 10  1  0
  4 11  1  0
  4 12  1  0
  4 13  1  0
  5 14  1  0
  6 15  1  0
  7 16  1  0
  9 17  1  0
M  END
