
     RDKit          3D

 19 19  0  0  0  0  0  0  0  0999 V2000
    2.6630   -1.6489   -1.4194 C   0  0  0  0  0  0  0  0  0  0  0  0
    1.9723   -1.1328   -0.5623 C   0  0  0  0  0  0  0  0  0  0  0  0
    1.1265   -0.5249    0.4775 C   0  0  0  0  0  0  0  0  0  0  0  0
   -0.3009   -0.9913    0.3689 C   0  0  0  0  0  0  0  0  0  0  0  0
   -0.9259   -1.0419    1.5967 O   0  0  0  0  0  0  0  0  0  0  0  0
   -0.5909    0.2325   -0.4663 C   0  0  0  0  0  0  0  0  0  0  0  0
   -1.8210    1.0059   -0.0812 C   0  0  0  0  0  0  0  0  0  0  0  0
    0.6439    0.8832    0.1167 C   0  0  0  0  0  0  0  0  0  0  0  0
    0.4243    1.6959    1.2123 O   0  0  0  0  0  0  0  0  0  0  0  0
    3.2791   -2.0900   -2.1606 H   0  0  0  0  0  0  0  0  0  0  0  0
    1.5366   -0.6065    1.4901 H   0  0  0  0  0  0  0  0  0  0  0  0
   -0.3884   -1.9053   -0.2567 H   0  0  0  0  0  0  0  0  0  0  0  0
   -1.8571   -1.3186    1.5678 H   0  0  0  0  0  0  0  0  0  0  0  0
   -0.4780    0.0902   -1.5512 H   0  0  0  0  0  0  0  0  0  0  0  0
   -2.7488    0.5533   -0.5060 H   0  0  0  0  0  0  0  0  0  0  0  0
   -1.7437    2.0118   -0.5373 H   0  0  0  0  0  0  0  0  0  0  0  0
   -1.8638    1.1049    1.0245 H   0  0  0  0  0  0  0  0  0  0  0  0
    1.3380    1.2982   -0.6505 H   0  0  0  0  0  0  0  0  0  0  0  0
   -0.2651    2.3843    1.0397 H   0  0  0  0  0  0  0  0  0  0  0  0
  1  2  3  0
  2  3  1  0
  3  4  1  0
  4  5  1  0
  4  6  1  0
  6  7  1  0
  6  8  1  0
  8  9  1  0
  8  3  1  0
  1 10  1  0
  3 11  1  0
  4 12  1  0
  5 13  1  0
  6 14  1  0
  7 15  1  0
  7 16  1  0
  7 17  1  0
  8 18  1  0
  9 19  1  0
M  END
