
     RDKit          3D

 15 16  0  0  0  0  0  0  0  0999 V2000
    2.8647   -0.7791   -0.6408 C   0  0  0  0  0  0  0  0  0  0  0  0
    1.7193   -0.5088   -0.3868 C   0  0  0  0  0  0  0  0  0  0  0  0
    0.4075   -0.2000   -0.0718 C   0  0  0  0  0  0  0  0  0  0  0  0
   -0.2154   -0.6766    1.1884 C   0  0  0  0  0  0  0  0  0  0  0  0
   -1.4497   -0.1724    1.1003 C   0  0  0  0  0  0  0  0  0  0  0  0
   -1.4237    0.5341   -0.1986 C   0  0  0  0  0  0  0  0  0  0  0  0
   -0.0675    1.2472   -0.0939 C   0  0  0  0  0  0  0  0  0  0  0  0
   -0.6880   -0.4502   -1.0414 C   0  0  0  0  0  0  0  0  0  0  0  0
   -0.9738   -1.0747   -2.0196 O   0  0  0  0  0  0  0  0  0  0  0  0
    3.8834   -1.0177   -0.8856 H   0  0  0  0  0  0  0  0  0  0  0  0
    0.2543   -1.2799    1.9558 H   0  0  0  0  0  0  0  0  0  0  0  0
   -2.2859   -0.2369    1.7779 H   0  0  0  0  0  0  0  0  0  0  0  0
   -2.2495    1.0551   -0.5702 H   0  0  0  0  0  0  0  0  0  0  0  0
    0.0905    1.7493    0.8864 H   0  0  0  0  0  0  0  0  0  0  0  0
    0.1338    1.8105   -1.0001 H   0  0  0  0  0  0  0  0  0  0  0  0
  1  2  3  0
  2  3  1  0
  3  4  1  0
  4  5  2  0
  5  6  1  0
  6  7  1  0
  6  8  1  0
  8  9  2  0
  7  3  1  0
  8  3  1  0
  1 10  1  0
  4 11  1  0
  5 12  1  0
  6 13  1  0
  7 14  1  0
  7 15  1  0
M  END
