
     RDKit          3D

 12 12  0  0  0  0  0  0  0  0999 V2000
    0.1956    2.3442    0.5777 C   0  0  0  0  0  0  0  0  0  0  0  0
    0.2178    1.1438    0.6859 C   0  0  0  0  0  0  0  0  0  0  0  0
    0.2590   -0.3242    0.7965 C   0  0  0  0  0  0  0  0  0  0  0  0
    0.8390   -0.8347   -0.5268 C   0  0  0  0  0  0  0  0  0  0  0  0
   -0.2539   -0.5299   -1.4045 O   0  0  0  0  0  0  0  0  0  0  0  0
   -1.3965   -0.7638   -0.6243 C   0  0  0  0  0  0  0  0  0  0  0  0
   -2.5509   -0.8647   -1.0922 O   0  0  0  0  0  0  0  0  0  0  0  0
   -1.0516   -0.8625    0.7118 O   0  0  0  0  0  0  0  0  0  0  0  0
    0.1938    3.4190    0.4861 H   0  0  0  0  0  0  0  0  0  0  0  0
    0.8207   -0.6519    1.6608 H   0  0  0  0  0  0  0  0  0  0  0  0
    1.0577   -1.9017   -0.5041 H   0  0  0  0  0  0  0  0  0  0  0  0
    1.6694   -0.1735   -0.7670 H   0  0  0  0  0  0  0  0  0  0  0  0
  1  2  3  0
  2  3  1  0
  3  4  1  0
  4  5  1  0
  5  6  1  0
  6  7  2  0
  6  8  1  0
  8  3  1  0
  1  9  1  0
  3 10  1  0
  4 11  1  0
  4 12  1  0
M  END
