
     RDKit          3D

 13 12  0  0  0  0  0  0  0  0999 V2000
    3.6573    3.6571    1.4099 C   0  0  0  0  0  0  0  0  0  0  0  0
    2.5093    2.1145    1.0949 C   0  0  0  0  0  0  0  0  0  0  0  0
    1.8963    1.2635    0.9322 C   0  0  0  0  0  0  0  0  0  0  0  0
    1.3359    0.4684    0.7765 C   0  0  0  0  0  0  0  0  0  0  0  0
    0.5172   -0.6815    0.5529 C   0  0  0  0  0  0  0  0  0  0  0  0
   -0.3201    0.7532   -0.3406 O   0  0  0  0  0  0  0  0  0  0  0  0
   -0.3206   -1.0973    0.1379 C   0  0  0  0  0  0  0  0  0  0  0  0
   -1.5246   -1.6817   -0.4425 C   0  0  0  0  0  0  0  0  0  0  0  0
   -2.7149   -2.2506   -0.9904 C   0  0  0  0  0  0  0  0  0  0  0  0
    4.2017    4.3980    1.5573 H   0  0  0  0  0  0  0  0  0  0  0  0
   -3.5123   -1.4405   -0.8862 H   0  0  0  0  0  0  0  0  0  0  0  0
   -2.6721   -2.4427   -2.0737 H   0  0  0  0  0  0  0  0  0  0  0  0
   -3.0532   -3.0603   -0.3170 H   0  0  0  0  0  0  0  0  0  0  0  0
  1  2  3  0
  2  3  1  0
  3  4  3  0
  4  5  1  0
  5  6  2  0
  5  7  1  0
  7  8  3  0
  8  9  1  0
  1 10  1  0
  9 11  1  0
  9 12  1  0
  9 13  1  0
M  END
