
     RDKit          3D

 17 18  0  0  0  0  0  0  0  0999 V2000
    2.4335   -0.1919   -1.6763 C   0  0  0  0  0  0  0  0  0  0  0  0
    1.7537   -0.1801   -0.7033 C   0  0  0  0  0  0  0  0  0  0  0  0
    0.9118   -0.1616    0.4901 C   0  0  0  0  0  0  0  0  0  0  0  0
    0.0180   -1.3667    0.6491 C   0  0  0  0  0  0  0  0  0  0  0  0
   -0.8783   -0.4494    1.4692 C   0  0  0  0  0  0  0  0  0  0  0  0
   -0.4695    0.3751    0.3104 C   0  0  0  0  0  0  0  0  0  0  0  0
   -0.8180    1.6254    0.0253 C   0  0  0  0  0  0  0  0  0  0  0  0
   -1.1329    2.7526   -0.2104 C   0  0  0  0  0  0  0  0  0  0  0  0
   -0.7463   -0.8359   -0.5296 C   0  0  0  0  0  0  0  0  0  0  0  0
    3.0253   -0.2060   -2.5547 H   0  0  0  0  0  0  0  0  0  0  0  0
    1.4386    0.1125    1.4153 H   0  0  0  0  0  0  0  0  0  0  0  0
    0.2716   -2.3019    0.8666 H   0  0  0  0  0  0  0  0  0  0  0  0
   -1.9342   -0.7795    1.5108 H   0  0  0  0  0  0  0  0  0  0  0  0
   -0.4400   -0.0958    2.4124 H   0  0  0  0  0  0  0  0  0  0  0  0
   -1.4043    3.7777   -0.4339 H   0  0  0  0  0  0  0  0  0  0  0  0
   -0.2540   -0.8646   -1.4984 H   0  0  0  0  0  0  0  0  0  0  0  0
   -1.7751   -1.2098   -0.5371 H   0  0  0  0  0  0  0  0  0  0  0  0
  1  2  3  0
  2  3  1  0
  3  4  1  0
  4  5  1  0
  5  6  1  0
  6  7  1  0
  7  8  3  0
  6  9  1  0
  6  3  1  0
  9  4  1  0
  1 10  1  0
  3 11  1  0
  4 12  1  0
  5 13  1  0
  5 14  1  0
  8 15  1  0
  9 16  1  0
  9 17  1  0
M  END
