
     RDKit          3D

 15 15  0  0  0  0  0  0  0  0999 V2000
    2.2780    1.3995    2.0352 C   0  0  0  0  0  0  0  0  0  0  0  0
    1.8231    0.8692    0.8078 C   0  0  0  0  0  0  0  0  0  0  0  0
    1.4071    0.3946   -0.3433 C   0  0  0  0  0  0  0  0  0  0  0  0
    0.0017   -0.1843   -0.2914 C   0  0  0  0  0  0  0  0  0  0  0  0
   -0.9805    0.2159   -1.0186 C   0  0  0  0  0  0  0  0  0  0  0  0
   -2.1828   -0.5828   -0.6988 C   0  0  0  0  0  0  0  0  0  0  0  0
   -1.7971   -1.3758    0.3828 O   0  0  0  0  0  0  0  0  0  0  0  0
   -0.4672   -1.2055    0.6230 C   0  0  0  0  0  0  0  0  0  0  0  0
    0.3051   -1.7646    1.4480 O   0  0  0  0  0  0  0  0  0  0  0  0
    2.5879    1.7713    2.8811 H   0  0  0  0  0  0  0  0  0  0  0  0
    1.4259    1.1641   -1.1900 H   0  0  0  0  0  0  0  0  0  0  0  0
    2.0275   -0.4941   -0.7476 H   0  0  0  0  0  0  0  0  0  0  0  0
   -1.0030    1.0190   -1.7755 H   0  0  0  0  0  0  0  0  0  0  0  0
   -2.3943   -1.3050   -1.5675 H   0  0  0  0  0  0  0  0  0  0  0  0
   -3.0313    0.0787   -0.5453 H   0  0  0  0  0  0  0  0  0  0  0  0
  1  2  3  0
  2  3  1  0
  3  4  1  0
  4  5  2  0
  5  6  1  0
  6  7  1  0
  7  8  1  0
  8  9  2  0
  8  4  1  0
  1 10  1  0
  3 11  1  0
  3 12  1  0
  5 13  1  0
  6 14  1  0
  6 15  1  0
M  END
