
     RDKit          3D

 15 15  0  0  0  0  0  0  0  0999 V2000
    2.5894   -0.8687    1.2266 C   0  0  0  0  0  0  0  0  0  0  0  0
    1.7590   -0.5454    0.4000 C   0  0  0  0  0  0  0  0  0  0  0  0
    0.7694   -0.1859   -0.5856 C   0  0  0  0  0  0  0  0  0  0  0  0
    0.0242   -1.3223   -0.9667 O   0  0  0  0  0  0  0  0  0  0  0  0
   -1.2370   -0.7239   -0.7415 C   0  0  0  0  0  0  0  0  0  0  0  0
   -0.5092    0.3251    0.0683 C   0  0  0  0  0  0  0  0  0  0  0  0
   -0.5164    0.1136    1.4335 O   0  0  0  0  0  0  0  0  0  0  0  0
   -0.7625    1.7218   -0.3313 C   0  0  0  0  0  0  0  0  0  0  0  0
   -0.9508    2.5459    0.5336 O   0  0  0  0  0  0  0  0  0  0  0  0
    3.3144   -1.1354    1.9545 H   0  0  0  0  0  0  0  0  0  0  0  0
    1.1248    0.4189   -1.4384 H   0  0  0  0  0  0  0  0  0  0  0  0
   -1.8617   -1.4261   -0.1743 H   0  0  0  0  0  0  0  0  0  0  0  0
   -1.7305   -0.3591   -1.6598 H   0  0  0  0  0  0  0  0  0  0  0  0
   -1.2386   -0.5348    1.6542 H   0  0  0  0  0  0  0  0  0  0  0  0
   -0.7745    1.9763   -1.3732 H   0  0  0  0  0  0  0  0  0  0  0  0
  1  2  3  0
  2  3  1  0
  3  4  1  0
  4  5  1  0
  5  6  1  0
  6  7  1  0
  6  8  1  0
  8  9  2  0
  6  3  1  0
  1 10  1  0
  3 11  1  0
  5 12  1  0
  5 13  1  0
  7 14  1  0
  8 15  1  0
M  END
