
     RDKit          3D

 21 21  0  0  0  0  0  0  0  0999 V2000
    3.0626    1.6438   -0.0840 C   0  0  0  0  0  0  0  0  0  0  0  0
    2.5984    0.6691   -0.7108 C   0  0  0  0  0  0  0  0  0  0  0  0
    2.0468   -0.4612   -1.4203 C   0  0  0  0  0  0  0  0  0  0  0  0
    0.9290   -0.9989   -0.7857 O   0  0  0  0  0  0  0  0  0  0  0  0
   -0.0843   -0.0806   -0.6661 C   0  0  0  0  0  0  0  0  0  0  0  0
   -1.4568   -0.6240   -0.9447 C   0  0  0  0  0  0  0  0  0  0  0  0
   -1.0621   -0.1491    0.4323 C   0  0  0  0  0  0  0  0  0  0  0  0
   -0.7511   -1.1628    1.5061 C   0  0  0  0  0  0  0  0  0  0  0  0
   -1.8176    1.0673    0.9014 C   0  0  0  0  0  0  0  0  0  0  0  0
    3.4706    2.4601    0.4392 H   0  0  0  0  0  0  0  0  0  0  0  0
    2.8160   -1.2868   -1.5019 H   0  0  0  0  0  0  0  0  0  0  0  0
    1.8231   -0.1484   -2.4600 H   0  0  0  0  0  0  0  0  0  0  0  0
    0.1673    0.9206   -1.0787 H   0  0  0  0  0  0  0  0  0  0  0  0
   -2.0772    0.0109   -1.5777 H   0  0  0  0  0  0  0  0  0  0  0  0
   -1.5852   -1.7081   -1.1462 H   0  0  0  0  0  0  0  0  0  0  0  0
    0.1089   -1.8089    1.2339 H   0  0  0  0  0  0  0  0  0  0  0  0
   -1.5910   -1.8212    1.7402 H   0  0  0  0  0  0  0  0  0  0  0  0
   -0.4907   -0.5996    2.4243 H   0  0  0  0  0  0  0  0  0  0  0  0
   -2.8885    0.9145    0.6418 H   0  0  0  0  0  0  0  0  0  0  0  0
   -1.7497    1.1988    1.9968 H   0  0  0  0  0  0  0  0  0  0  0  0
   -1.4683    1.9644    0.3480 H   0  0  0  0  0  0  0  0  0  0  0  0
  1  2  3  0
  2  3  1  0
  3  4  1  0
  4  5  1  0
  5  6  1  0
  6  7  1  0
  7  8  1  0
  7  9  1  0
  7  5  1  0
  1 10  1  0
  3 11  1  0
  3 12  1  0
  5 13  1  0
  6 14  1  0
  6 15  1  0
  8 16  1  0
  8 17  1  0
  8 18  1  0
  9 19  1  0
  9 20  1  0
  9 21  1  0
M  END
