
     RDKit          3D

 21 21  0  0  0  0  0  0  0  0999 V2000
   -1.5884    1.8976   -2.0741 C   0  0  0  0  0  0  0  0  0  0  0  0
   -1.2245    0.8179   -1.2310 C   0  0  0  0  0  0  0  0  0  0  0  0
   -0.8685   -0.2552   -0.3676 C   0  0  0  0  0  0  0  0  0  0  0  0
   -1.8765   -1.2912   -0.0632 C   0  0  0  0  0  0  0  0  0  0  0  0
    0.6062   -0.5294   -0.4631 C   0  0  0  0  0  0  0  0  0  0  0  0
    1.1296   -1.8904   -0.4419 C   0  0  0  0  0  0  0  0  0  0  0  0
    0.0620    0.1945    0.7681 C   0  0  0  0  0  0  0  0  0  0  0  0
    0.3301    1.5730    0.7216 O   0  0  0  0  0  0  0  0  0  0  0  0
    1.2979    1.9958    1.5781 C   0  0  0  0  0  0  0  0  0  0  0  0
   -1.9022    2.8109   -2.8014 H   0  0  0  0  0  0  0  0  0  0  0  0
   -1.9369   -1.3683    1.0656 H   0  0  0  0  0  0  0  0  0  0  0  0
   -1.6178   -2.3329   -0.3966 H   0  0  0  0  0  0  0  0  0  0  0  0
   -2.8460   -1.0922   -0.5685 H   0  0  0  0  0  0  0  0  0  0  0  0
    1.2215    0.1762   -1.0845 H   0  0  0  0  0  0  0  0  0  0  0  0
    0.5394   -2.5934   -1.1236 H   0  0  0  0  0  0  0  0  0  0  0  0
    1.1791   -2.4099    0.5476 H   0  0  0  0  0  0  0  0  0  0  0  0
    2.1890   -1.8988   -0.8536 H   0  0  0  0  0  0  0  0  0  0  0  0
    0.3785   -0.3608    1.6117 H   0  0  0  0  0  0  0  0  0  0  0  0
    2.2623    1.4111    1.3841 H   0  0  0  0  0  0  0  0  0  0  0  0
    1.0827    2.0910    2.6087 H   0  0  0  0  0  0  0  0  0  0  0  0
    1.5825    3.0546    1.1838 H   0  0  0  0  0  0  0  0  0  0  0  0
  1  2  3  0
  2  3  1  0
  3  4  1  0
  3  5  1  0
  5  6  1  0
  5  7  1  0
  7  8  1  0
  8  9  1  0
  7  3  1  0
  1 10  1  0
  4 11  1  0
  4 12  1  0
  4 13  1  0
  5 14  1  0
  6 15  1  0
  6 16  1  0
  6 17  1  0
  7 18  1  0
  9 19  1  0
  9 20  1  0
  9 21  1  0
M  END
