
     RDKit          3D

 15 17  0  0  0  0  0  0  0  0999 V2000
    2.7543   -0.1774    0.5679 C   0  0  0  0  0  0  0  0  0  0  0  0
    1.7292    0.1763    0.0270 C   0  0  0  0  0  0  0  0  0  0  0  0
    0.4849    0.6139   -0.6295 C   0  0  0  0  0  0  0  0  0  0  0  0
    0.6906    1.5931   -1.5830 O   0  0  0  0  0  0  0  0  0  0  0  0
   -0.5269   -0.4131   -0.9040 C   0  0  0  0  0  0  0  0  0  0  0  0
   -0.9334   -1.3766    0.1931 C   0  0  0  0  0  0  0  0  0  0  0  0
   -2.2647   -1.2425    0.5689 O   0  0  0  0  0  0  0  0  0  0  0  0
   -1.2019   -0.3871    1.0793 C   0  0  0  0  0  0  0  0  0  0  0  0
   -0.7452    0.7102    0.1651 C   0  0  0  0  0  0  0  0  0  0  0  0
    3.6517   -0.5029    1.0320 H   0  0  0  0  0  0  0  0  0  0  0  0
    0.7442    2.4920   -1.1271 H   0  0  0  0  0  0  0  0  0  0  0  0
   -1.2000   -0.3857   -1.7760 H   0  0  0  0  0  0  0  0  0  0  0  0
   -0.3855   -2.2987    0.3600 H   0  0  0  0  0  0  0  0  0  0  0  0
   -1.2917   -0.2659    2.1463 H   0  0  0  0  0  0  0  0  0  0  0  0
   -1.5055    1.4645   -0.1200 H   0  0  0  0  0  0  0  0  0  0  0  0
  1  2  3  0
  2  3  1  0
  3  4  1  0
  3  5  1  0
  5  6  1  0
  6  7  1  0
  7  8  1  0
  8  9  1  0
  9  3  1  0
  9  5  1  0
  8  6  1  0
  1 10  1  0
  4 11  1  0
  5 12  1  0
  6 13  1  0
  8 14  1  0
  9 15  1  0
M  END
