
     RDKit          3D

 21 22  0  0  0  0  0  0  0  0999 V2000
    3.5664    1.0813   -0.3032 C   0  0  0  0  0  0  0  0  0  0  0  0
    2.6727    0.3386    0.0572 C   0  0  0  0  0  0  0  0  0  0  0  0
    1.6101   -0.5351    0.5092 C   0  0  0  0  0  0  0  0  0  0  0  0
    0.7627   -1.2498   -0.5498 C   0  0  0  0  0  0  0  0  0  0  0  0
    0.2207   -0.1702    0.3854 C   0  0  0  0  0  0  0  0  0  0  0  0
   -0.8809   -0.6498    1.2754 C   0  0  0  0  0  0  0  0  0  0  0  0
   -2.0878   -0.4916    0.3384 C   0  0  0  0  0  0  0  0  0  0  0  0
   -1.8354    0.8738   -0.2358 C   0  0  0  0  0  0  0  0  0  0  0  0
   -0.3148    1.0653   -0.2269 C   0  0  0  0  0  0  0  0  0  0  0  0
    4.3456    1.7333   -0.6131 H   0  0  0  0  0  0  0  0  0  0  0  0
    1.8967   -1.1600    1.4041 H   0  0  0  0  0  0  0  0  0  0  0  0
    1.0144   -0.9419   -1.5843 H   0  0  0  0  0  0  0  0  0  0  0  0
    0.4720   -2.2882   -0.3725 H   0  0  0  0  0  0  0  0  0  0  0  0
   -0.7523   -1.7037    1.5905 H   0  0  0  0  0  0  0  0  0  0  0  0
   -1.0186    0.0348    2.1605 H   0  0  0  0  0  0  0  0  0  0  0  0
   -3.0351   -0.5807    0.8723 H   0  0  0  0  0  0  0  0  0  0  0  0
   -1.9470   -1.2335   -0.4732 H   0  0  0  0  0  0  0  0  0  0  0  0
   -2.2516    1.0033   -1.2514 H   0  0  0  0  0  0  0  0  0  0  0  0
   -2.3310    1.6427    0.4095 H   0  0  0  0  0  0  0  0  0  0  0  0
   -0.0103    1.2509   -1.2627 H   0  0  0  0  0  0  0  0  0  0  0  0
   -0.0965    1.9804    0.3979 H   0  0  0  0  0  0  0  0  0  0  0  0
  1  2  3  0
  2  3  1  0
  3  4  1  0
  4  5  1  0
  5  6  1  0
  6  7  1  0
  7  8  1  0
  8  9  1  0
  5  3  1  0
  9  5  1  0
  1 10  1  0
  3 11  1  0
  4 12  1  0
  4 13  1  0
  6 14  1  0
  6 15  1  0
  7 16  1  0
  7 17  1  0
  8 18  1  0
  8 19  1  0
  9 20  1  0
  9 21  1  0
M  END
