
     RDKit          3D

 21 21  0  0  0  0  0  0  0  0999 V2000
    2.1546   -0.1950   -2.3739 C   0  0  0  0  0  0  0  0  0  0  0  0
    1.2148   -0.0844   -1.5381 C   0  0  0  0  0  0  0  0  0  0  0  0
    0.1339    0.0216   -0.5972 C   0  0  0  0  0  0  0  0  0  0  0  0
   -0.7506    1.2013   -0.8709 C   0  0  0  0  0  0  0  0  0  0  0  0
   -1.8046    1.3544   -0.0052 O   0  0  0  0  0  0  0  0  0  0  0  0
   -0.6785   -1.2359   -0.3966 C   0  0  0  0  0  0  0  0  0  0  0  0
    0.3395   -1.6061    0.6931 C   0  0  0  0  0  0  0  0  0  0  0  0
    0.6051   -0.1288    0.8215 C   0  0  0  0  0  0  0  0  0  0  0  0
   -0.1750    0.5847    1.8728 C   0  0  0  0  0  0  0  0  0  0  0  0
    2.9263   -0.2949   -3.0403 H   0  0  0  0  0  0  0  0  0  0  0  0
   -0.1646    2.1591   -0.8761 H   0  0  0  0  0  0  0  0  0  0  0  0
   -1.1614    1.0886   -1.8954 H   0  0  0  0  0  0  0  0  0  0  0  0
   -1.9720    2.3209    0.1646 H   0  0  0  0  0  0  0  0  0  0  0  0
   -0.5708   -1.9796   -1.2177 H   0  0  0  0  0  0  0  0  0  0  0  0
   -1.6821   -1.0867   -0.0043 H   0  0  0  0  0  0  0  0  0  0  0  0
   -0.0797   -2.1146    1.5635 H   0  0  0  0  0  0  0  0  0  0  0  0
    1.2099   -2.1868    0.3129 H   0  0  0  0  0  0  0  0  0  0  0  0
    1.6860    0.0796    0.9069 H   0  0  0  0  0  0  0  0  0  0  0  0
   -1.2044    0.1218    1.8850 H   0  0  0  0  0  0  0  0  0  0  0  0
    0.2459    0.3244    2.8679 H   0  0  0  0  0  0  0  0  0  0  0  0
   -0.2722    1.6564    1.7274 H   0  0  0  0  0  0  0  0  0  0  0  0
  1  2  3  0
  2  3  1  0
  3  4  1  0
  4  5  1  0
  3  6  1  0
  6  7  1  0
  7  8  1  0
  8  9  1  0
  8  3  1  0
  1 10  1  0
  4 11  1  0
  4 12  1  0
  5 13  1  0
  6 14  1  0
  6 15  1  0
  7 16  1  0
  7 17  1  0
  8 18  1  0
  9 19  1  0
  9 20  1  0
  9 21  1  0
M  END
