
     RDKit          3D

 15 15  0  0  0  0  0  0  0  0999 V2000
    2.5892    1.3660   -0.9135 C   0  0  0  0  0  0  0  0  0  0  0  0
    1.5796    0.8189   -1.2839 C   0  0  0  0  0  0  0  0  0  0  0  0
    0.3487    0.1297   -1.7210 C   0  0  0  0  0  0  0  0  0  0  0  0
   -0.4464   -0.2099   -0.5076 C   0  0  0  0  0  0  0  0  0  0  0  0
    0.1805   -1.0276    0.3904 O   0  0  0  0  0  0  0  0  0  0  0  0
   -0.7568   -1.0814    1.4416 C   0  0  0  0  0  0  0  0  0  0  0  0
   -1.2675    0.3240    1.4806 C   0  0  0  0  0  0  0  0  0  0  0  0
   -1.9212    0.8674    2.3972 O   0  0  0  0  0  0  0  0  0  0  0  0
   -0.8447    0.8847    0.2581 O   0  0  0  0  0  0  0  0  0  0  0  0
    3.4963    1.8363   -0.5828 H   0  0  0  0  0  0  0  0  0  0  0  0
   -0.2676    0.7919   -2.3630 H   0  0  0  0  0  0  0  0  0  0  0  0
    0.6252   -0.8142   -2.2272 H   0  0  0  0  0  0  0  0  0  0  0  0
   -1.3815   -0.7434   -0.8485 H   0  0  0  0  0  0  0  0  0  0  0  0
   -1.6129   -1.7367    1.1361 H   0  0  0  0  0  0  0  0  0  0  0  0
   -0.3209   -1.4059    2.3846 H   0  0  0  0  0  0  0  0  0  0  0  0
  1  2  3  0
  2  3  1  0
  3  4  1  0
  4  5  1  0
  5  6  1  0
  6  7  1  0
  7  8  2  0
  7  9  1  0
  9  4  1  0
  1 10  1  0
  3 11  1  0
  3 12  1  0
  4 13  1  0
  6 14  1  0
  6 15  1  0
M  END
