
     RDKit          3D

 16 15  0  0  0  0  0  0  0  0999 V2000
   -2.5204    0.2707   -0.7712 C   0  0  0  0  0  0  0  0  0  0  0  0
   -1.5125   -0.1613   -0.2709 C   0  0  0  0  0  0  0  0  0  0  0  0
   -0.2719   -0.6651    0.3392 C   0  0  0  0  0  0  0  0  0  0  0  0
   -0.6166   -1.3352    1.5232 O   0  0  0  0  0  0  0  0  0  0  0  0
    0.4643   -1.5692   -0.5702 C   0  0  0  0  0  0  0  0  0  0  0  0
    0.8331   -1.1323   -1.6429 O   0  0  0  0  0  0  0  0  0  0  0  0
    0.5651    0.5173    0.7323 C   0  0  0  0  0  0  0  0  0  0  0  0
    0.9320    1.3974   -0.4337 C   0  0  0  0  0  0  0  0  0  0  0  0
   -3.4135    0.6363   -1.2221 H   0  0  0  0  0  0  0  0  0  0  0  0
    0.1658   -1.4257    2.1272 H   0  0  0  0  0  0  0  0  0  0  0  0
    0.6563   -2.6032   -0.2536 H   0  0  0  0  0  0  0  0  0  0  0  0
    0.0823    1.1445    1.4858 H   0  0  0  0  0  0  0  0  0  0  0  0
    1.5168    0.1354    1.1572 H   0  0  0  0  0  0  0  0  0  0  0  0
    0.1087    1.4155   -1.1760 H   0  0  0  0  0  0  0  0  0  0  0  0
    1.8239    0.9489   -0.9184 H   0  0  0  0  0  0  0  0  0  0  0  0
    1.1864    2.4260   -0.1060 H   0  0  0  0  0  0  0  0  0  0  0  0
  1  2  3  0
  2  3  1  0
  3  4  1  0
  3  5  1  0
  5  6  2  0
  3  7  1  0
  7  8  1  0
  1  9  1  0
  4 10  1  0
  5 11  1  0
  7 12  1  0
  7 13  1  0
  8 14  1  0
  8 15  1  0
  8 16  1  0
M  END
