
     RDKit          3D

 19 20  0  0  0  0  0  0  0  0999 V2000
    3.5047    1.5224   -0.4646 C   0  0  0  0  0  0  0  0  0  0  0  0
    2.5815    0.9333    0.0876 C   0  0  0  0  0  0  0  0  0  0  0  0
    1.4948    0.2284    0.7668 C   0  0  0  0  0  0  0  0  0  0  0  0
    0.1463    0.6001    0.1967 C   0  0  0  0  0  0  0  0  0  0  0  0
    0.1094    0.2700   -1.1442 O   0  0  0  0  0  0  0  0  0  0  0  0
   -1.1862   -0.0311   -1.4895 C   0  0  0  0  0  0  0  0  0  0  0  0
   -1.9408   -0.3684   -0.2254 C   0  0  0  0  0  0  0  0  0  0  0  0
   -1.3984   -1.4494    0.6082 C   0  0  0  0  0  0  0  0  0  0  0  0
   -0.9919   -0.0546    0.8807 C   0  0  0  0  0  0  0  0  0  0  0  0
    4.2886    2.0340   -0.9194 H   0  0  0  0  0  0  0  0  0  0  0  0
    1.6561   -0.8714    0.5865 H   0  0  0  0  0  0  0  0  0  0  0  0
    1.5380    0.3555    1.8638 H   0  0  0  0  0  0  0  0  0  0  0  0
    0.0379    1.7000    0.2921 H   0  0  0  0  0  0  0  0  0  0  0  0
   -1.6756    0.7934   -2.0624 H   0  0  0  0  0  0  0  0  0  0  0  0
   -1.1530   -0.8980   -2.1815 H   0  0  0  0  0  0  0  0  0  0  0  0
   -2.9752    0.0312   -0.1032 H   0  0  0  0  0  0  0  0  0  0  0  0
   -1.9890   -1.9557    1.3949 H   0  0  0  0  0  0  0  0  0  0  0  0
   -0.6870   -2.1390    0.1021 H   0  0  0  0  0  0  0  0  0  0  0  0
   -1.3603    0.4279    1.8109 H   0  0  0  0  0  0  0  0  0  0  0  0
  1  2  3  0
  2  3  1  0
  3  4  1  0
  4  5  1  0
  5  6  1  0
  6  7  1  0
  7  8  1  0
  8  9  1  0
  9  4  1  0
  9  7  1  0
  1 10  1  0
  3 11  1  0
  3 12  1  0
  4 13  1  0
  6 14  1  0
  6 15  1  0
  7 16  1  0
  8 17  1  0
  8 18  1  0
  9 19  1  0
M  END
