
     RDKit          3D

 19 19  0  0  0  0  0  0  0  0999 V2000
   -2.6792   -2.5927   -0.5679 C   0  0  0  0  0  0  0  0  0  0  0  0
   -2.0431   -1.7076   -0.0530 C   0  0  0  0  0  0  0  0  0  0  0  0
   -1.2616   -0.6116    0.5601 C   0  0  0  0  0  0  0  0  0  0  0  0
   -1.7818    0.6568    0.2583 O   0  0  0  0  0  0  0  0  0  0  0  0
   -1.1155    0.5742   -0.9682 C   0  0  0  0  0  0  0  0  0  0  0  0
   -0.0519   -0.2371   -0.2698 C   0  0  0  0  0  0  0  0  0  0  0  0
    0.9518    0.5887    0.4942 C   0  0  0  0  0  0  0  0  0  0  0  0
    2.1217    0.9156   -0.4080 C   0  0  0  0  0  0  0  0  0  0  0  0
    3.0684    1.6784    0.2660 O   0  0  0  0  0  0  0  0  0  0  0  0
   -3.2363   -3.3973   -1.0215 H   0  0  0  0  0  0  0  0  0  0  0  0
   -1.0890   -0.7400    1.6275 H   0  0  0  0  0  0  0  0  0  0  0  0
   -0.7454    1.5192   -1.3782 H   0  0  0  0  0  0  0  0  0  0  0  0
   -1.6813   -0.0318   -1.6710 H   0  0  0  0  0  0  0  0  0  0  0  0
    0.3571   -1.0382   -0.8923 H   0  0  0  0  0  0  0  0  0  0  0  0
    1.3282   -0.0084    1.3509 H   0  0  0  0  0  0  0  0  0  0  0  0
    0.4747    1.4853    0.9082 H   0  0  0  0  0  0  0  0  0  0  0  0
    1.8012    1.4531   -1.3110 H   0  0  0  0  0  0  0  0  0  0  0  0
    2.6141   -0.0620   -0.6586 H   0  0  0  0  0  0  0  0  0  0  0  0
    2.9679    1.5552    1.2421 H   0  0  0  0  0  0  0  0  0  0  0  0
  1  2  3  0
  2  3  1  0
  3  4  1  0
  4  5  1  0
  5  6  1  0
  6  7  1  0
  7  8  1  0
  8  9  1  0
  6  3  1  0
  1 10  1  0
  3 11  1  0
  5 12  1  0
  5 13  1  0
  6 14  1  0
  7 15  1  0
  7 16  1  0
  8 17  1  0
  8 18  1  0
  9 19  1  0
M  END
