
     RDKit          3D

 20 20  0  0  0  0  0  0  0  0999 V2000
   -1.7979    2.5122    0.1861 C   0  0  0  0  0  0  0  0  0  0  0  0
   -1.1060    1.5256    0.1139 C   0  0  0  0  0  0  0  0  0  0  0  0
   -0.2670    0.3103    0.0392 C   0  0  0  0  0  0  0  0  0  0  0  0
   -0.8650   -0.8014    0.8648 C   0  0  0  0  0  0  0  0  0  0  0  0
   -0.0746   -2.0654    0.8415 C   0  0  0  0  0  0  0  0  0  0  0  0
    1.1585    0.6361    0.3174 C   0  0  0  0  0  0  0  0  0  0  0  0
    1.4371    0.5857   -1.1611 C   0  0  0  0  0  0  0  0  0  0  0  0
    0.0695   -0.0012   -1.3663 C   0  0  0  0  0  0  0  0  0  0  0  0
   -2.4038    3.3810    0.2622 H   0  0  0  0  0  0  0  0  0  0  0  0
   -1.9012   -0.9419    0.5060 H   0  0  0  0  0  0  0  0  0  0  0  0
   -0.8626   -0.4151    1.9214 H   0  0  0  0  0  0  0  0  0  0  0  0
    0.4706   -2.2164    1.8074 H   0  0  0  0  0  0  0  0  0  0  0  0
    0.5976   -2.1673   -0.0209 H   0  0  0  0  0  0  0  0  0  0  0  0
   -0.8021   -2.9131    0.7718 H   0  0  0  0  0  0  0  0  0  0  0  0
    1.7160   -0.1091    0.9290 H   0  0  0  0  0  0  0  0  0  0  0  0
    1.2865    1.6458    0.7740 H   0  0  0  0  0  0  0  0  0  0  0  0
    1.5097    1.6205   -1.5624 H   0  0  0  0  0  0  0  0  0  0  0  0
    2.2818   -0.0782   -1.4538 H   0  0  0  0  0  0  0  0  0  0  0  0
   -0.5436    0.5814   -2.1163 H   0  0  0  0  0  0  0  0  0  0  0  0
    0.0964   -1.0895   -1.6540 H   0  0  0  0  0  0  0  0  0  0  0  0
  1  2  3  0
  2  3  1  0
  3  4  1  0
  4  5  1  0
  3  6  1  0
  6  7  1  0
  7  8  1  0
  8  3  1  0
  1  9  1  0
  4 10  1  0
  4 11  1  0
  5 12  1  0
  5 13  1  0
  5 14  1  0
  6 15  1  0
  6 16  1  0
  7 17  1  0
  7 18  1  0
  8 19  1  0
  8 20  1  0
M  END
