
     RDKit          3D

 17 17  0  0  0  0  0  0  0  0999 V2000
    3.6698    1.2416    0.7353 C   0  0  0  0  0  0  0  0  0  0  0  0
    2.5398   -0.0873    0.5250 C   0  0  0  0  0  0  0  0  0  0  0  0
    1.9488   -0.7994    0.4256 C   0  0  0  0  0  0  0  0  0  0  0  0
    0.7051   -0.8950   -0.4283 C   0  0  0  0  0  0  0  0  0  0  0  0
    0.5437   -2.0771   -1.0771 O   0  0  0  0  0  0  0  0  0  0  0  0
   -0.3414   -0.0023   -0.7191 C   0  0  0  0  0  0  0  0  0  0  0  0
   -1.4075   -0.2960   -1.6486 O   0  0  0  0  0  0  0  0  0  0  0  0
   -1.8400   -0.3231   -0.3527 C   0  0  0  0  0  0  0  0  0  0  0  0
   -2.7411    0.9253   -0.0748 C   0  0  0  0  0  0  0  0  0  0  0  0
    4.3431    2.0203    0.8447 H   0  0  0  0  0  0  0  0  0  0  0  0
    2.3426   -2.0395    0.5002 H   0  0  0  0  0  0  0  0  0  0  0  0
    1.2580   -1.2213    1.5169 H   0  0  0  0  0  0  0  0  0  0  0  0
   -0.2249    1.0501   -0.2369 H   0  0  0  0  0  0  0  0  0  0  0  0
   -2.1817   -1.2570    0.0422 H   0  0  0  0  0  0  0  0  0  0  0  0
   -2.0348    1.6493    0.4866 H   0  0  0  0  0  0  0  0  0  0  0  0
   -2.9833    1.4682   -1.0475 H   0  0  0  0  0  0  0  0  0  0  0  0
   -3.5963    0.6431    0.5241 H   0  0  0  0  0  0  0  0  0  0  0  0
  1  2  3  0
  2  3  1  0
  3  4  1  0
  4  5  2  0
  4  6  1  0
  6  7  1  0
  7  8  1  0
  8  9  1  0
  8  6  1  0
  1 10  1  0
  3 11  1  0
  3 12  1  0
  6 13  1  0
  8 14  1  0
  9 15  1  0
  9 16  1  0
  9 17  1  0
M  END
