
     RDKit          3D

 19 19  0  0  0  0  0  0  0  0999 V2000
    0.3810    2.5203   -0.9312 C   0  0  0  0  0  0  0  0  0  0  0  0
   -0.0437    1.6575   -0.2308 C   0  0  0  0  0  0  0  0  0  0  0  0
   -0.5373    0.6076    0.6281 C   0  0  0  0  0  0  0  0  0  0  0  0
    0.5549   -0.3547    1.0057 C   0  0  0  0  0  0  0  0  0  0  0  0
    1.9326    0.2279    0.8821 C   0  0  0  0  0  0  0  0  0  0  0  0
    0.3515   -1.4404    0.0032 C   0  0  0  0  0  0  0  0  0  0  0  0
   -0.8443   -1.3764   -0.5621 C   0  0  0  0  0  0  0  0  0  0  0  0
   -1.6078   -0.2401   -0.0167 C   0  0  0  0  0  0  0  0  0  0  0  0
   -2.5399   -0.6293    0.9428 O   0  0  0  0  0  0  0  0  0  0  0  0
    0.7568    3.3046   -1.5448 H   0  0  0  0  0  0  0  0  0  0  0  0
   -0.9818    1.0418    1.5530 H   0  0  0  0  0  0  0  0  0  0  0  0
    0.3404   -0.7885    2.0006 H   0  0  0  0  0  0  0  0  0  0  0  0
    1.9386    1.3335    0.8076 H   0  0  0  0  0  0  0  0  0  0  0  0
    2.4694   -0.1577   -0.0259 H   0  0  0  0  0  0  0  0  0  0  0  0
    2.5532   -0.1069    1.7439 H   0  0  0  0  0  0  0  0  0  0  0  0
    1.1131   -2.2093   -0.2387 H   0  0  0  0  0  0  0  0  0  0  0  0
   -1.1703   -2.1039   -1.3324 H   0  0  0  0  0  0  0  0  0  0  0  0
   -2.1069    0.3192   -0.8575 H   0  0  0  0  0  0  0  0  0  0  0  0
   -2.5595   -1.6051    0.9486 H   0  0  0  0  0  0  0  0  0  0  0  0
  1  2  3  0
  2  3  1  0
  3  4  1  0
  4  5  1  0
  4  6  1  0
  6  7  2  0
  7  8  1  0
  8  9  1  0
  8  3  1  0
  1 10  1  0
  3 11  1  0
  4 12  1  0
  5 13  1  0
  5 14  1  0
  5 15  1  0
  6 16  1  0
  7 17  1  0
  8 18  1  0
  9 19  1  0
M  END
