
     RDKit          3D

 17 18  0  0  0  0  0  0  0  0999 V2000
    3.1596   -0.4890   -0.4607 C   0  0  0  0  0  0  0  0  0  0  0  0
    2.1153   -0.0565   -0.0317 C   0  0  0  0  0  0  0  0  0  0  0  0
    0.8666    0.4357    0.4882 C   0  0  0  0  0  0  0  0  0  0  0  0
    0.1316    1.3255   -0.5247 C   0  0  0  0  0  0  0  0  0  0  0  0
   -1.1357    1.3851    0.0239 O   0  0  0  0  0  0  0  0  0  0  0  0
   -1.4415    0.1720    0.5737 C   0  0  0  0  0  0  0  0  0  0  0  0
   -1.8631   -0.8878   -0.4090 C   0  0  0  0  0  0  0  0  0  0  0  0
   -0.5199   -1.2287   -0.5484 O   0  0  0  0  0  0  0  0  0  0  0  0
   -0.1807   -0.6464    0.6623 C   0  0  0  0  0  0  0  0  0  0  0  0
    4.0797   -0.8900   -0.8455 H   0  0  0  0  0  0  0  0  0  0  0  0
    1.0402    1.0234    1.3896 H   0  0  0  0  0  0  0  0  0  0  0  0
    0.5918    2.3129   -0.5948 H   0  0  0  0  0  0  0  0  0  0  0  0
    0.1121    0.7915   -1.5028 H   0  0  0  0  0  0  0  0  0  0  0  0
   -2.0717    0.1844    1.4831 H   0  0  0  0  0  0  0  0  0  0  0  0
   -2.4691   -1.6819    0.0625 H   0  0  0  0  0  0  0  0  0  0  0  0
   -2.3513   -0.4495   -1.2832 H   0  0  0  0  0  0  0  0  0  0  0  0
   -0.0638   -1.3008    1.5177 H   0  0  0  0  0  0  0  0  0  0  0  0
  1  2  3  0
  2  3  1  0
  3  4  1  0
  4  5  1  0
  5  6  1  0
  6  7  1  0
  7  8  1  0
  8  9  1  0
  9  3  1  0
  9  6  1  0
  1 10  1  0
  3 11  1  0
  4 12  1  0
  4 13  1  0
  6 14  1  0
  7 15  1  0
  7 16  1  0
  9 17  1  0
M  END
