
     RDKit          3D

 15 15  0  0  0  0  0  0  0  0999 V2000
    3.2925   -1.1797   -1.3950 C   0  0  0  0  0  0  0  0  0  0  0  0
    2.3775   -0.6889   -0.6986 C   0  0  0  0  0  0  0  0  0  0  0  0
    1.3930   -0.1753    0.0668 C   0  0  0  0  0  0  0  0  0  0  0  0
    1.9634    0.3333    1.2422 O   0  0  0  0  0  0  0  0  0  0  0  0
    0.0036    0.0447    0.1147 C   0  0  0  0  0  0  0  0  0  0  0  0
   -0.9875   -0.2015   -0.7336 C   0  0  0  0  0  0  0  0  0  0  0  0
   -2.2376    0.2758   -0.1220 C   0  0  0  0  0  0  0  0  0  0  0  0
   -1.9484   -0.0393    1.2627 O   0  0  0  0  0  0  0  0  0  0  0  0
   -0.7043    0.6686    1.2985 C   0  0  0  0  0  0  0  0  0  0  0  0
    4.1272   -1.6057   -2.0178 H   0  0  0  0  0  0  0  0  0  0  0  0
   -0.8762   -0.6653   -1.7286 H   0  0  0  0  0  0  0  0  0  0  0  0
   -3.1475   -0.2563   -0.3656 H   0  0  0  0  0  0  0  0  0  0  0  0
   -2.2898    1.3957   -0.1931 H   0  0  0  0  0  0  0  0  0  0  0  0
   -0.1372    0.3639    2.1761 H   0  0  0  0  0  0  0  0  0  0  0  0
   -0.8287    1.7300    1.0933 H   0  0  0  0  0  0  0  0  0  0  0  0
  1  2  3  0
  2  3  1  0
  3  4  2  0
  3  5  1  0
  5  6  2  0
  6  7  1  0
  7  8  1  0
  8  9  1  0
  9  5  1  0
  1 10  1  0
  6 11  1  0
  7 12  1  0
  7 13  1  0
  9 14  1  0
  9 15  1  0
M  END
