
     RDKit          3D

 19 19  0  0  0  0  0  0  0  0999 V2000
    3.1751    0.2355    0.6237 C   0  0  0  0  0  0  0  0  0  0  0  0
    2.1923    0.6122    0.0361 C   0  0  0  0  0  0  0  0  0  0  0  0
    1.0032    1.0790   -0.6571 C   0  0  0  0  0  0  0  0  0  0  0  0
    0.4836    0.0152   -1.5511 C   0  0  0  0  0  0  0  0  0  0  0  0
   -0.4107   -0.7368   -0.9330 C   0  0  0  0  0  0  0  0  0  0  0  0
   -0.5672   -0.2340    0.4477 C   0  0  0  0  0  0  0  0  0  0  0  0
   -1.9772   -0.4052    0.9642 C   0  0  0  0  0  0  0  0  0  0  0  0
   -0.1195    1.1781    0.3947 C   0  0  0  0  0  0  0  0  0  0  0  0
   -1.0544    2.0757   -0.0661 O   0  0  0  0  0  0  0  0  0  0  0  0
    4.0467   -0.1158    1.1377 H   0  0  0  0  0  0  0  0  0  0  0  0
    1.1311    2.0191   -1.1966 H   0  0  0  0  0  0  0  0  0  0  0  0
    0.7882   -0.1382   -2.5800 H   0  0  0  0  0  0  0  0  0  0  0  0
   -0.9601   -1.6007   -1.3595 H   0  0  0  0  0  0  0  0  0  0  0  0
    0.1673   -0.7916    1.0923 H   0  0  0  0  0  0  0  0  0  0  0  0
   -2.2966    0.5501    1.4241 H   0  0  0  0  0  0  0  0  0  0  0  0
   -2.6352   -0.6987    0.1184 H   0  0  0  0  0  0  0  0  0  0  0  0
   -1.9589   -1.2226    1.7248 H   0  0  0  0  0  0  0  0  0  0  0  0
    0.3222    1.4561    1.3561 H   0  0  0  0  0  0  0  0  0  0  0  0
   -1.3300    1.8245   -0.9764 H   0  0  0  0  0  0  0  0  0  0  0  0
  1  2  3  0
  2  3  1  0
  3  4  1  0
  4  5  2  0
  5  6  1  0
  6  7  1  0
  6  8  1  0
  8  9  1  0
  8  3  1  0
  1 10  1  0
  3 11  1  0
  4 12  1  0
  5 13  1  0
  6 14  1  0
  7 15  1  0
  7 16  1  0
  7 17  1  0
  8 18  1  0
  9 19  1  0
M  END
