
     RDKit          3D

 17 16  0  0  0  0  0  0  0  0999 V2000
    3.1277   -0.8604   -0.4686 C   0  0  0  0  0  0  0  0  0  0  0  0
    1.9572   -0.9834   -0.1975 C   0  0  0  0  0  0  0  0  0  0  0  0
    0.5601   -1.1364    0.1512 C   0  0  0  0  0  0  0  0  0  0  0  0
    0.1830   -2.1517    0.7759 O   0  0  0  0  0  0  0  0  0  0  0  0
   -0.4056   -0.0823   -0.2396 C   0  0  0  0  0  0  0  0  0  0  0  0
   -0.0528    1.2466    0.3652 C   0  0  0  0  0  0  0  0  0  0  0  0
    1.2239    1.5915   -0.0951 O   0  0  0  0  0  0  0  0  0  0  0  0
   -1.7903   -0.5403    0.1448 C   0  0  0  0  0  0  0  0  0  0  0  0
   -2.7303    0.4236   -0.2055 O   0  0  0  0  0  0  0  0  0  0  0  0
    4.1639   -0.7503   -0.6920 H   0  0  0  0  0  0  0  0  0  0  0  0
   -0.3249    0.0265   -1.3400 H   0  0  0  0  0  0  0  0  0  0  0  0
   -0.7880    1.9821    0.0241 H   0  0  0  0  0  0  0  0  0  0  0  0
   -0.0750    1.2428    1.4700 H   0  0  0  0  0  0  0  0  0  0  0  0
    1.7066    1.9965    0.6557 H   0  0  0  0  0  0  0  0  0  0  0  0
   -1.9753   -1.5060   -0.3938 H   0  0  0  0  0  0  0  0  0  0  0  0
   -1.8652   -0.7855    1.2207 H   0  0  0  0  0  0  0  0  0  0  0  0
   -2.9150    0.2866   -1.1755 H   0  0  0  0  0  0  0  0  0  0  0  0
  1  2  3  0
  2  3  1  0
  3  4  2  0
  3  5  1  0
  5  6  1  0
  6  7  1  0
  5  8  1  0
  8  9  1  0
  1 10  1  0
  5 11  1  0
  6 12  1  0
  6 13  1  0
  7 14  1  0
  8 15  1  0
  8 16  1  0
  9 17  1  0
M  END
