
     RDKit          3D

 17 20  0  0  0  0  0  0  0  0999 V2000
    3.1079    0.7152    0.5010 C   0  0  0  0  0  0  0  0  0  0  0  0
    2.0403    0.1760    0.5456 C   0  0  0  0  0  0  0  0  0  0  0  0
    0.7446   -0.4707    0.5751 C   0  0  0  0  0  0  0  0  0  0  0  0
   -0.3625    0.4012    1.0734 C   0  0  0  0  0  0  0  0  0  0  0  0
   -1.0199    1.0252   -0.0641 C   0  0  0  0  0  0  0  0  0  0  0  0
   -1.5880   -0.1931    0.5226 C   0  0  0  0  0  0  0  0  0  0  0  0
   -1.1903   -0.9844   -0.6498 C   0  0  0  0  0  0  0  0  0  0  0  0
    0.2594   -0.8308   -0.8241 C   0  0  0  0  0  0  0  0  0  0  0  0
   -0.5483    0.2998   -1.2635 C   0  0  0  0  0  0  0  0  0  0  0  0
    4.0624    1.1808    0.4539 H   0  0  0  0  0  0  0  0  0  0  0  0
    0.7476   -1.4289    1.1581 H   0  0  0  0  0  0  0  0  0  0  0  0
   -0.3005    0.9309    2.0251 H   0  0  0  0  0  0  0  0  0  0  0  0
   -1.5760    1.9448   -0.0743 H   0  0  0  0  0  0  0  0  0  0  0  0
   -2.5351   -0.2635    1.0377 H   0  0  0  0  0  0  0  0  0  0  0  0
   -1.8458   -1.5672   -1.2722 H   0  0  0  0  0  0  0  0  0  0  0  0
    0.8760   -1.4461   -1.4725 H   0  0  0  0  0  0  0  0  0  0  0  0
   -0.8719    0.5108   -2.2720 H   0  0  0  0  0  0  0  0  0  0  0  0
  1  2  3  0
  2  3  1  0
  3  4  1  0
  4  5  1  0
  5  6  1  0
  6  7  1  0
  7  8  1  0
  8  9  1  0
  8  3  1  0
  6  4  1  0
  9  7  1  0
  9  5  1  0
  1 10  1  0
  3 11  1  0
  4 12  1  0
  5 13  1  0
  6 14  1  0
  7 15  1  0
  8 16  1  0
  9 17  1  0
M  END
