
     RDKit          3D

 23 23  0  0  0  0  0  0  0  0999 V2000
   -0.7830    3.2108   -0.2847 C   0  0  0  0  0  0  0  0  0  0  0  0
   -0.7353    2.0486    0.0283 C   0  0  0  0  0  0  0  0  0  0  0  0
   -0.6619    0.6119    0.4364 C   0  0  0  0  0  0  0  0  0  0  0  0
   -2.0520    0.0518    0.2242 C   0  0  0  0  0  0  0  0  0  0  0  0
   -2.2035   -1.3901    0.5861 C   0  0  0  0  0  0  0  0  0  0  0  0
    0.3932    0.0013   -0.4235 C   0  0  0  0  0  0  0  0  0  0  0  0
    0.8290   -1.3895   -0.3759 C   0  0  0  0  0  0  0  0  0  0  0  0
    1.6860   -0.3880    0.3157 C   0  0  0  0  0  0  0  0  0  0  0  0
    2.9761    0.0709   -0.2757 C   0  0  0  0  0  0  0  0  0  0  0  0
   -0.8147    4.2282   -0.5746 H   0  0  0  0  0  0  0  0  0  0  0  0
   -0.4416    0.5871    1.5061 H   0  0  0  0  0  0  0  0  0  0  0  0
   -2.4098    0.2435   -0.8168 H   0  0  0  0  0  0  0  0  0  0  0  0
   -2.7339    0.6354    0.8792 H   0  0  0  0  0  0  0  0  0  0  0  0
   -1.9780   -1.9986   -0.2913 H   0  0  0  0  0  0  0  0  0  0  0  0
   -1.6121   -1.7049    1.4508 H   0  0  0  0  0  0  0  0  0  0  0  0
   -3.2653   -1.6236    0.8478 H   0  0  0  0  0  0  0  0  0  0  0  0
    0.5705    0.5406   -1.3954 H   0  0  0  0  0  0  0  0  0  0  0  0
    0.3385   -2.1714    0.1937 H   0  0  0  0  0  0  0  0  0  0  0  0
    1.3054   -1.8111   -1.3107 H   0  0  0  0  0  0  0  0  0  0  0  0
    1.6473   -0.4192    1.4191 H   0  0  0  0  0  0  0  0  0  0  0  0
    3.7745    0.0749    0.4956 H   0  0  0  0  0  0  0  0  0  0  0  0
    3.3046   -0.5529   -1.1137 H   0  0  0  0  0  0  0  0  0  0  0  0
    2.8661    1.1443   -0.5916 H   0  0  0  0  0  0  0  0  0  0  0  0
  1  2  3  0
  2  3  1  0
  3  4  1  0
  4  5  1  0
  3  6  1  0
  6  7  1  0
  7  8  1  0
  8  9  1  0
  8  6  1  0
  1 10  1  0
  3 11  1  0
  4 12  1  0
  4 13  1  0
  5 14  1  0
  5 15  1  0
  5 16  1  0
  6 17  1  0
  7 18  1  0
  7 19  1  0
  8 20  1  0
  9 21  1  0
  9 22  1  0
  9 23  1  0
M  END
