
     RDKit          3D

 17 17  0  0  0  0  0  0  0  0999 V2000
    2.6249    0.5528    1.2760 C   0  0  0  0  0  0  0  0  0  0  0  0
    1.7401    0.2048    0.5347 C   0  0  0  0  0  0  0  0  0  0  0  0
    0.6887   -0.2343   -0.3457 C   0  0  0  0  0  0  0  0  0  0  0  0
    0.0143   -1.5290    0.1225 C   0  0  0  0  0  0  0  0  0  0  0  0
   -1.2583   -0.9520   -0.5154 C   0  0  0  0  0  0  0  0  0  0  0  0
   -0.6661    0.4166   -0.1409 C   0  0  0  0  0  0  0  0  0  0  0  0
   -0.9277    0.7243    1.1826 O   0  0  0  0  0  0  0  0  0  0  0  0
   -0.9871    1.4922   -1.1040 C   0  0  0  0  0  0  0  0  0  0  0  0
   -0.7712    1.2631   -2.2876 O   0  0  0  0  0  0  0  0  0  0  0  0
    3.4144    0.8540    1.9140 H   0  0  0  0  0  0  0  0  0  0  0  0
    0.9589   -0.2738   -1.4332 H   0  0  0  0  0  0  0  0  0  0  0  0
   -0.1051   -1.5106    1.2099 H   0  0  0  0  0  0  0  0  0  0  0  0
    0.3774   -2.4391   -0.3472 H   0  0  0  0  0  0  0  0  0  0  0  0
   -1.3254   -1.0833   -1.5983 H   0  0  0  0  0  0  0  0  0  0  0  0
   -2.1453   -1.2326    0.0819 H   0  0  0  0  0  0  0  0  0  0  0  0
   -0.2368    1.2902    1.6042 H   0  0  0  0  0  0  0  0  0  0  0  0
   -1.3957    2.4567   -0.8300 H   0  0  0  0  0  0  0  0  0  0  0  0
  1  2  3  0
  2  3  1  0
  3  4  1  0
  4  5  1  0
  5  6  1  0
  6  7  1  0
  6  8  1  0
  8  9  2  0
  6  3  1  0
  1 10  1  0
  3 11  1  0
  4 12  1  0
  4 13  1  0
  5 14  1  0
  5 15  1  0
  7 16  1  0
  8 17  1  0
M  END
