
     RDKit          3D

 16 15  0  0  0  0  0  0  0  0999 V2000
   -1.8972    2.2388    0.0999 C   0  0  0  0  0  0  0  0  0  0  0  0
   -1.5203    1.0928    0.1057 C   0  0  0  0  0  0  0  0  0  0  0  0
   -1.0419   -0.2931    0.1210 C   0  0  0  0  0  0  0  0  0  0  0  0
   -1.2327   -0.8349    1.4858 C   0  0  0  0  0  0  0  0  0  0  0  0
   -1.4059   -1.2651    2.5996 C   0  0  0  0  0  0  0  0  0  0  0  0
    0.4168   -0.3788   -0.1873 C   0  0  0  0  0  0  0  0  0  0  0  0
    0.7561    0.1247   -1.4238 O   0  0  0  0  0  0  0  0  0  0  0  0
    2.1392   -0.0156   -1.5844 C   0  0  0  0  0  0  0  0  0  0  0  0
   -2.2233    3.2660    0.1099 H   0  0  0  0  0  0  0  0  0  0  0  0
   -1.6649   -0.8572   -0.5807 H   0  0  0  0  0  0  0  0  0  0  0  0
   -1.5733   -1.6330    3.5817 H   0  0  0  0  0  0  0  0  0  0  0  0
    0.9533    0.2427    0.5759 H   0  0  0  0  0  0  0  0  0  0  0  0
    0.7109   -1.4547   -0.1063 H   0  0  0  0  0  0  0  0  0  0  0  0
    2.6995    0.5427   -0.7909 H   0  0  0  0  0  0  0  0  0  0  0  0
    2.4890    0.3083   -2.5788 H   0  0  0  0  0  0  0  0  0  0  0  0
    2.3947   -1.0836   -1.4273 H   0  0  0  0  0  0  0  0  0  0  0  0
  1  2  3  0
  2  3  1  0
  3  4  1  0
  4  5  3  0
  3  6  1  0
  6  7  1  0
  7  8  1  0
  1  9  1  0
  3 10  1  0
  5 11  1  0
  6 12  1  0
  6 13  1  0
  8 14  1  0
  8 15  1  0
  8 16  1  0
M  END
