
     RDKit          3D

 18 19  0  0  0  0  0  0  0  0999 V2000
    1.8270   -1.9001    0.4760 C   0  0  0  0  0  0  0  0  0  0  0  0
    0.8314   -1.4868   -0.1080 C   0  0  0  0  0  0  0  0  0  0  0  0
   -0.2594   -1.0175   -0.7724 C   0  0  0  0  0  0  0  0  0  0  0  0
    0.0545    0.3268   -1.5151 C   0  0  0  0  0  0  0  0  0  0  0  0
    0.8057    0.8698   -0.3236 C   0  0  0  0  0  0  0  0  0  0  0  0
   -0.4467    0.4034    0.2311 C   0  0  0  0  0  0  0  0  0  0  0  0
   -0.8198    0.1826    1.5535 C   0  0  0  0  0  0  0  0  0  0  0  0
   -1.1626    0.9366   -0.9180 C   0  0  0  0  0  0  0  0  0  0  0  0
    3.0430   -2.3780    1.1785 H   0  0  0  0  0  0  0  0  0  0  0  0
   -1.1505   -1.4568   -0.6795 H   0  0  0  0  0  0  0  0  0  0  0  0
    0.3478    0.5511   -2.4878 H   0  0  0  0  0  0  0  0  0  0  0  0
    0.9404    1.9887   -0.4454 H   0  0  0  0  0  0  0  0  0  0  0  0
    1.7801    0.4007   -0.1439 H   0  0  0  0  0  0  0  0  0  0  0  0
    0.1477   -0.2463    2.0943 H   0  0  0  0  0  0  0  0  0  0  0  0
   -1.5621   -0.6110    1.7190 H   0  0  0  0  0  0  0  0  0  0  0  0
   -0.9669    1.1147    2.1327 H   0  0  0  0  0  0  0  0  0  0  0  0
   -1.2980    2.0096   -0.9733 H   0  0  0  0  0  0  0  0  0  0  0  0
   -2.1115    0.3126   -1.0179 H   0  0  0  0  0  0  0  0  0  0  0  0
  1  2  3  0
  2  3  1  0
  3  4  1  0
  4  5  1  0
  5  6  1  0
  6  7  1  0
  6  8  1  0
  6  3  1  0
  8  4  1  0
  1  9  1  0
  3 10  1  0
  4 11  1  0
  5 12  1  0
  5 13  1  0
  7 14  1  0
  7 15  1  0
  7 16  1  0
  8 17  1  0
  8 18  1  0
M  END
