
     RDKit          3D

 19 19  0  0  0  0  0  0  0  0999 V2000
    2.8212    0.8824    0.2040 C   0  0  0  0  0  0  0  0  0  0  0  0
    1.6206    0.4064    0.2335 C   0  0  0  0  0  0  0  0  0  0  0  0
    0.1872   -0.1367    0.2554 C   0  0  0  0  0  0  0  0  0  0  0  0
    0.1592   -1.2072    1.2804 C   0  0  0  0  0  0  0  0  0  0  0  0
    0.5446   -0.8598    2.5372 O   0  0  0  0  0  0  0  0  0  0  0  0
   -0.7398    0.9318    0.2296 C   0  0  0  0  0  0  0  0  0  0  0  0
   -1.6450    0.5432   -0.9840 C   0  0  0  0  0  0  0  0  0  0  0  0
   -0.5733   -0.0343   -1.8854 C   0  0  0  0  0  0  0  0  0  0  0  0
    0.0961   -0.8328   -1.0149 O   0  0  0  0  0  0  0  0  0  0  0  0
    3.9965    1.3312    0.1601 H   0  0  0  0  0  0  0  0  0  0  0  0
    0.9025   -1.9998    0.8643 H   0  0  0  0  0  0  0  0  0  0  0  0
   -0.8647   -1.6465    1.2786 H   0  0  0  0  0  0  0  0  0  0  0  0
    1.0661   -1.6026    3.0027 H   0  0  0  0  0  0  0  0  0  0  0  0
   -1.5475    0.9786    1.0517 H   0  0  0  0  0  0  0  0  0  0  0  0
   -0.4045    1.9748    0.0282 H   0  0  0  0  0  0  0  0  0  0  0  0
   -2.0842    1.4275   -1.4461 H   0  0  0  0  0  0  0  0  0  0  0  0
   -2.3791   -0.2337   -0.7428 H   0  0  0  0  0  0  0  0  0  0  0  0
   -1.1609   -0.6411   -2.6462 H   0  0  0  0  0  0  0  0  0  0  0  0
    0.0051    0.7186   -2.4062 H   0  0  0  0  0  0  0  0  0  0  0  0
  1  2  3  0
  2  3  1  0
  3  4  1  0
  4  5  1  0
  3  6  1  0
  6  7  1  0
  7  8  1  0
  8  9  1  0
  9  3  1  0
  1 10  1  0
  4 11  1  0
  4 12  1  0
  5 13  1  0
  6 14  1  0
  6 15  1  0
  7 16  1  0
  7 17  1  0
  8 18  1  0
  8 19  1  0
M  END
