
     RDKit          3D

 19 18  0  0  0  0  0  0  0  0999 V2000
    5.3263    0.1236    0.6742 C   0  0  0  0  0  0  0  0  0  0  0  0
    4.1352   -0.1270    0.7970 C   0  0  0  0  0  0  0  0  0  0  0  0
    2.7596   -0.4162    0.9513 C   0  0  0  0  0  0  0  0  0  0  0  0
    1.5767   -0.6524    1.0663 C   0  0  0  0  0  0  0  0  0  0  0  0
    0.1460   -0.9386    1.1821 C   0  0  0  0  0  0  0  0  0  0  0  0
   -0.5212   -0.3160   -0.0309 C   0  0  0  0  0  0  0  0  0  0  0  0
   -2.0007   -0.5381   -0.0350 C   0  0  0  0  0  0  0  0  0  0  0  0
   -2.6346    0.0153   -1.1344 O   0  0  0  0  0  0  0  0  0  0  0  0
   -2.4856    1.3713   -1.2455 C   0  0  0  0  0  0  0  0  0  0  0  0
    6.3598    0.3299    0.5823 H   0  0  0  0  0  0  0  0  0  0  0  0
   -0.2819   -0.4851    2.0954 H   0  0  0  0  0  0  0  0  0  0  0  0
    0.0060   -2.0212    1.2467 H   0  0  0  0  0  0  0  0  0  0  0  0
   -0.0359   -0.6447   -0.9505 H   0  0  0  0  0  0  0  0  0  0  0  0
   -0.3276    0.7937    0.0562 H   0  0  0  0  0  0  0  0  0  0  0  0
   -2.4133   -0.1240    0.9317 H   0  0  0  0  0  0  0  0  0  0  0  0
   -2.2231   -1.6316   -0.0049 H   0  0  0  0  0  0  0  0  0  0  0  0
   -3.0491    1.7018   -2.1699 H   0  0  0  0  0  0  0  0  0  0  0  0
   -1.4273    1.6898   -1.3827 H   0  0  0  0  0  0  0  0  0  0  0  0
   -2.9093    1.8695   -0.3533 H   0  0  0  0  0  0  0  0  0  0  0  0
  1  2  3  0
  2  3  1  0
  3  4  3  0
  4  5  1  0
  5  6  1  0
  6  7  1  0
  7  8  1  0
  8  9  1  0
  1 10  1  0
  5 11  1  0
  5 12  1  0
  6 13  1  0
  6 14  1  0
  7 15  1  0
  7 16  1  0
  9 17  1  0
  9 18  1  0
  9 19  1  0
M  END
