
     RDKit          3D

 21 21  0  0  0  0  0  0  0  0999 V2000
   -0.2740    2.4564   -2.0148 C   0  0  0  0  0  0  0  0  0  0  0  0
   -0.2154    1.2160   -1.8313 C   0  0  0  0  0  0  0  0  0  0  0  0
   -0.1215   -0.2281   -1.6186 C   0  0  0  0  0  0  0  0  0  0  0  0
   -1.1211   -0.7743   -0.5589 C   0  0  0  0  0  0  0  0  0  0  0  0
   -2.1328    0.2395   -0.1290 C   0  0  0  0  0  0  0  0  0  0  0  0
    0.2958   -0.7478   -0.2770 C   0  0  0  0  0  0  0  0  0  0  0  0
    0.9843    0.2288    0.6235 C   0  0  0  0  0  0  0  0  0  0  0  0
    1.3105   -0.5175    1.9148 C   0  0  0  0  0  0  0  0  0  0  0  0
    2.1438   -1.5728    1.5791 O   0  0  0  0  0  0  0  0  0  0  0  0
   -0.3298    3.4441   -2.1457 H   0  0  0  0  0  0  0  0  0  0  0  0
    0.0631   -0.8415   -2.5136 H   0  0  0  0  0  0  0  0  0  0  0  0
   -1.5749   -1.7635   -0.8527 H   0  0  0  0  0  0  0  0  0  0  0  0
   -2.0090    1.1362   -0.8054 H   0  0  0  0  0  0  0  0  0  0  0  0
   -2.0038    0.6318    0.8974 H   0  0  0  0  0  0  0  0  0  0  0  0
   -3.1765   -0.1288   -0.2384 H   0  0  0  0  0  0  0  0  0  0  0  0
    0.8467   -1.7293   -0.3295 H   0  0  0  0  0  0  0  0  0  0  0  0
    2.0015    0.4315    0.1755 H   0  0  0  0  0  0  0  0  0  0  0  0
    0.4262    1.1513    0.7764 H   0  0  0  0  0  0  0  0  0  0  0  0
    1.8023    0.1110    2.6504 H   0  0  0  0  0  0  0  0  0  0  0  0
    0.3722   -0.9079    2.3413 H   0  0  0  0  0  0  0  0  0  0  0  0
    2.7123   -1.8351    2.3563 H   0  0  0  0  0  0  0  0  0  0  0  0
  1  2  3  0
  2  3  1  0
  3  4  1  0
  4  5  1  0
  4  6  1  0
  6  7  1  0
  7  8  1  0
  8  9  1  0
  6  3  1  0
  1 10  1  0
  3 11  1  0
  4 12  1  0
  5 13  1  0
  5 14  1  0
  5 15  1  0
  6 16  1  0
  7 17  1  0
  7 18  1  0
  8 19  1  0
  8 20  1  0
  9 21  1  0
M  END
