
     RDKit          3D

 15 17  0  0  0  0  0  0  0  0999 V2000
    2.9002   -0.6510    0.9013 C   0  0  0  0  0  0  0  0  0  0  0  0
    1.7858   -0.4491    0.4973 C   0  0  0  0  0  0  0  0  0  0  0  0
    0.4792   -0.1914    0.0365 C   0  0  0  0  0  0  0  0  0  0  0  0
    0.0783    1.1917   -0.3404 C   0  0  0  0  0  0  0  0  0  0  0  0
   -0.8795    0.3796   -1.1671 C   0  0  0  0  0  0  0  0  0  0  0  0
    0.1738   -0.5554   -1.2974 O   0  0  0  0  0  0  0  0  0  0  0  0
   -1.7843   -0.3563   -0.2017 C   0  0  0  0  0  0  0  0  0  0  0  0
   -1.4999   -1.6804    0.1209 O   0  0  0  0  0  0  0  0  0  0  0  0
   -0.6865   -0.7968    0.7886 C   0  0  0  0  0  0  0  0  0  0  0  0
    3.8830   -0.8129    1.2635 H   0  0  0  0  0  0  0  0  0  0  0  0
   -0.3874    1.8191    0.4446 H   0  0  0  0  0  0  0  0  0  0  0  0
    0.8182    1.6788   -0.9781 H   0  0  0  0  0  0  0  0  0  0  0  0
   -1.2910    0.7868   -2.0590 H   0  0  0  0  0  0  0  0  0  0  0  0
   -2.6896    0.1066    0.1839 H   0  0  0  0  0  0  0  0  0  0  0  0
   -0.9003   -0.4693    1.8070 H   0  0  0  0  0  0  0  0  0  0  0  0
  1  2  3  0
  2  3  1  0
  3  4  1  0
  4  5  1  0
  5  6  1  0
  5  7  1  0
  7  8  1  0
  8  9  1  0
  6  3  1  0
  9  7  1  0
  9  3  1  0
  1 10  1  0
  4 11  1  0
  4 12  1  0
  5 13  1  0
  7 14  1  0
  9 15  1  0
M  END
