
     RDKit          3D

 17 16  0  0  0  0  0  0  0  0999 V2000
    4.7739   -0.0046    1.1225 C   0  0  0  0  0  0  0  0  0  0  0  0
    3.5590   -0.0158    0.9597 C   0  0  0  0  0  0  0  0  0  0  0  0
    2.1766   -0.0337    0.7985 C   0  0  0  0  0  0  0  0  0  0  0  0
    0.9580   -0.0675    0.6681 C   0  0  0  0  0  0  0  0  0  0  0  0
   -0.4982   -0.1124    0.5376 C   0  0  0  0  0  0  0  0  0  0  0  0
   -0.8158   -1.4519   -0.1401 C   0  0  0  0  0  0  0  0  0  0  0  0
   -1.0114    0.9876   -0.2672 C   0  0  0  0  0  0  0  0  0  0  0  0
   -2.4872    1.0996   -0.5694 C   0  0  0  0  0  0  0  0  0  0  0  0
   -0.3011    1.8492   -0.7253 O   0  0  0  0  0  0  0  0  0  0  0  0
    5.8595    0.0017    1.2871 H   0  0  0  0  0  0  0  0  0  0  0  0
   -0.9618   -0.1881    1.5640 H   0  0  0  0  0  0  0  0  0  0  0  0
   -1.0751   -1.2123   -1.2038 H   0  0  0  0  0  0  0  0  0  0  0  0
   -1.7068   -1.9022    0.3075 H   0  0  0  0  0  0  0  0  0  0  0  0
    0.0271   -2.1634   -0.0416 H   0  0  0  0  0  0  0  0  0  0  0  0
   -2.9811    1.8839   -0.0095 H   0  0  0  0  0  0  0  0  0  0  0  0
   -2.5681    1.2381   -1.6640 H   0  0  0  0  0  0  0  0  0  0  0  0
   -2.9477    0.0920   -0.3731 H   0  0  0  0  0  0  0  0  0  0  0  0
  1  2  3  0
  2  3  1  0
  3  4  3  0
  4  5  1  0
  5  6  1  0
  5  7  1  0
  7  8  1  0
  7  9  2  0
  1 10  1  0
  5 11  1  0
  6 12  1  0
  6 13  1  0
  6 14  1  0
  8 15  1  0
  8 16  1  0
  8 17  1  0
M  END
