
     RDKit          3D

 15 15  0  0  0  0  0  0  0  0999 V2000
   -3.1705   -0.9283   -0.2800 C   0  0  0  0  0  0  0  0  0  0  0  0
   -1.7026   -0.4390    0.2462 C   0  0  0  0  0  0  0  0  0  0  0  0
   -0.5301   -0.0404    0.6809 C   0  0  0  0  0  0  0  0  0  0  0  0
    0.0436    1.3272    0.5880 C   0  0  0  0  0  0  0  0  0  0  0  0
    1.1286    1.5679    1.4833 O   0  0  0  0  0  0  0  0  0  0  0  0
    0.5627    0.4136   -0.5320 C   0  0  0  0  0  0  0  0  0  0  0  0
   -0.3938    0.5104   -1.7123 O   0  0  0  0  0  0  0  0  0  0  0  0
    1.3944   -0.2360   -0.5316 C   0  0  0  0  0  0  0  0  0  0  0  0
    2.6576   -1.2072   -0.5058 C   0  0  0  0  0  0  0  0  0  0  0  0
   -3.9216   -1.1642   -0.5508 H   0  0  0  0  0  0  0  0  0  0  0  0
    0.0496   -0.7639    1.3858 H   0  0  0  0  0  0  0  0  0  0  0  0
   -0.5544    2.1690    0.3669 H   0  0  0  0  0  0  0  0  0  0  0  0
    1.0361    0.8848    2.2178 H   0  0  0  0  0  0  0  0  0  0  0  0
   -0.1811   -0.1613   -2.3628 H   0  0  0  0  0  0  0  0  0  0  0  0
    3.5813   -1.9325   -0.4935 H   0  0  0  0  0  0  0  0  0  0  0  0
  1  2  3  0
  2  3  1  0
  3  4  1  0
  4  5  1  0
  4  6  1  0
  6  7  1  0
  6  8  1  0
  8  9  3  0
  6  3  1  0
  1 10  1  0
  3 11  1  0
  4 12  1  0
  5 13  1  0
  7 14  1  0
  9 15  1  0
M  END
