
     RDKit          3D

 17 17  0  0  0  0  0  0  0  0999 V2000
    3.2496    0.1100    1.2641 C   0  0  0  0  0  0  0  0  0  0  0  0
    2.2091   -0.3949    0.9175 C   0  0  0  0  0  0  0  0  0  0  0  0
    0.9548   -1.0219    0.4768 C   0  0  0  0  0  0  0  0  0  0  0  0
    0.6154   -0.7154   -0.9848 C   0  0  0  0  0  0  0  0  0  0  0  0
   -0.7568   -0.7223   -0.3639 C   0  0  0  0  0  0  0  0  0  0  0  0
   -1.6601    0.2498   -1.0219 C   0  0  0  0  0  0  0  0  0  0  0  0
   -1.9172    1.5998   -0.4442 C   0  0  0  0  0  0  0  0  0  0  0  0
   -2.1894   -0.1017   -2.0639 O   0  0  0  0  0  0  0  0  0  0  0  0
   -0.1756   -0.2801    0.8195 O   0  0  0  0  0  0  0  0  0  0  0  0
    4.1714    0.5433    1.5558 H   0  0  0  0  0  0  0  0  0  0  0  0
    0.8885   -2.1041    0.7254 H   0  0  0  0  0  0  0  0  0  0  0  0
    0.8393   -1.5349   -1.6753 H   0  0  0  0  0  0  0  0  0  0  0  0
    1.0115    0.2711   -1.2617 H   0  0  0  0  0  0  0  0  0  0  0  0
   -1.1409   -1.7446   -0.2494 H   0  0  0  0  0  0  0  0  0  0  0  0
   -2.1901    1.5397    0.6272 H   0  0  0  0  0  0  0  0  0  0  0  0
   -2.8273    2.0347   -0.9507 H   0  0  0  0  0  0  0  0  0  0  0  0
   -1.0821    2.2715   -0.6275 H   0  0  0  0  0  0  0  0  0  0  0  0
  1  2  3  0
  2  3  1  0
  3  4  1  0
  4  5  1  0
  5  6  1  0
  6  7  1  0
  6  8  2  0
  5  9  1  0
  9  3  1  0
  1 10  1  0
  3 11  1  0
  4 12  1  0
  4 13  1  0
  5 14  1  0
  7 15  1  0
  7 16  1  0
  7 17  1  0
M  END
