
     RDKit          3D

 21 22  0  0  0  0  0  0  0  0999 V2000
    2.5309   -0.2585    1.8479 C   0  0  0  0  0  0  0  0  0  0  0  0
    1.8717   -0.6482    0.8871 C   0  0  0  0  0  0  0  0  0  0  0  0
    1.1156   -1.1206   -0.2516 C   0  0  0  0  0  0  0  0  0  0  0  0
   -0.0907   -0.3019   -0.5445 C   0  0  0  0  0  0  0  0  0  0  0  0
   -0.7666   -0.9245   -1.7988 C   0  0  0  0  0  0  0  0  0  0  0  0
    0.1256    1.1641   -0.6797 C   0  0  0  0  0  0  0  0  0  0  0  0
   -0.9364    1.4686    0.3568 C   0  0  0  0  0  0  0  0  0  0  0  0
   -0.8980    0.7792    1.6584 C   0  0  0  0  0  0  0  0  0  0  0  0
   -1.1191   -0.0704    0.4950 C   0  0  0  0  0  0  0  0  0  0  0  0
    3.1139    0.0733    2.6659 H   0  0  0  0  0  0  0  0  0  0  0  0
    0.8321   -2.2045   -0.1354 H   0  0  0  0  0  0  0  0  0  0  0  0
    1.7765   -1.0418   -1.1749 H   0  0  0  0  0  0  0  0  0  0  0  0
   -1.7901   -0.5504   -1.9125 H   0  0  0  0  0  0  0  0  0  0  0  0
   -0.8171   -2.0011   -1.5871 H   0  0  0  0  0  0  0  0  0  0  0  0
   -0.0911   -0.6939   -2.6378 H   0  0  0  0  0  0  0  0  0  0  0  0
   -0.1854    1.5280   -1.6762 H   0  0  0  0  0  0  0  0  0  0  0  0
    1.1504    1.4454   -0.3685 H   0  0  0  0  0  0  0  0  0  0  0  0
   -1.8149    2.0376    0.0482 H   0  0  0  0  0  0  0  0  0  0  0  0
   -1.8256    0.9566    2.2795 H   0  0  0  0  0  0  0  0  0  0  0  0
   -0.0136    0.7825    2.2758 H   0  0  0  0  0  0  0  0  0  0  0  0
   -2.1681   -0.4193    0.2524 H   0  0  0  0  0  0  0  0  0  0  0  0
  1  2  3  0
  2  3  1  0
  3  4  1  0
  4  5  1  0
  4  6  1  0
  6  7  1  0
  7  8  1  0
  8  9  1  0
  9  4  1  0
  9  7  1  0
  1 10  1  0
  3 11  1  0
  3 12  1  0
  5 13  1  0
  5 14  1  0
  5 15  1  0
  6 16  1  0
  6 17  1  0
  7 18  1  0
  8 19  1  0
  8 20  1  0
  9 21  1  0
M  END
