
     RDKit          3D

 19 19  0  0  0  0  0  0  0  0999 V2000
   -1.4706    2.7502   -0.7044 C   0  0  0  0  0  0  0  0  0  0  0  0
   -0.9527    1.7007   -0.4050 C   0  0  0  0  0  0  0  0  0  0  0  0
   -0.3179    0.4281   -0.0668 C   0  0  0  0  0  0  0  0  0  0  0  0
    0.5736   -0.0706   -1.1424 C   0  0  0  0  0  0  0  0  0  0  0  0
    1.2514   -1.3727   -0.8499 C   0  0  0  0  0  0  0  0  0  0  0  0
    0.4330    0.4528    1.2682 C   0  0  0  0  0  0  0  0  0  0  0  0
   -0.1365   -0.9253    1.5067 C   0  0  0  0  0  0  0  0  0  0  0  0
    0.1893   -1.8981    2.1606 O   0  0  0  0  0  0  0  0  0  0  0  0
   -1.2526   -0.5240    0.5819 C   0  0  0  0  0  0  0  0  0  0  0  0
   -1.9105    3.6789   -0.9590 H   0  0  0  0  0  0  0  0  0  0  0  0
    1.3410    0.7031   -1.3501 H   0  0  0  0  0  0  0  0  0  0  0  0
   -0.0168   -0.1782   -2.0750 H   0  0  0  0  0  0  0  0  0  0  0  0
    0.5854   -2.2203   -0.7230 H   0  0  0  0  0  0  0  0  0  0  0  0
    1.9785   -1.6234   -1.6486 H   0  0  0  0  0  0  0  0  0  0  0  0
    1.8636   -1.2492    0.0779 H   0  0  0  0  0  0  0  0  0  0  0  0
    1.5156    0.4874    1.1323 H   0  0  0  0  0  0  0  0  0  0  0  0
    0.0139    1.1612    2.0084 H   0  0  0  0  0  0  0  0  0  0  0  0
   -1.6803   -1.3325   -0.0089 H   0  0  0  0  0  0  0  0  0  0  0  0
   -2.0076    0.0319    1.1970 H   0  0  0  0  0  0  0  0  0  0  0  0
  1  2  3  0
  2  3  1  0
  3  4  1  0
  4  5  1  0
  3  6  1  0
  6  7  1  0
  7  8  2  0
  7  9  1  0
  9  3  1  0
  1 10  1  0
  4 11  1  0
  4 12  1  0
  5 13  1  0
  5 14  1  0
  5 15  1  0
  6 16  1  0
  6 17  1  0
  9 18  1  0
  9 19  1  0
M  END
