
     RDKit          3D

 19 20  0  0  0  0  0  0  0  0999 V2000
    3.7369   -0.4979    0.1215 C   0  0  0  0  0  0  0  0  0  0  0  0
    2.6033   -0.2572   -0.1927 C   0  0  0  0  0  0  0  0  0  0  0  0
    1.2165    0.0600   -0.5701 C   0  0  0  0  0  0  0  0  0  0  0  0
    0.5150   -0.9667   -1.1609 O   0  0  0  0  0  0  0  0  0  0  0  0
   -0.3446   -1.0636   -0.0790 C   0  0  0  0  0  0  0  0  0  0  0  0
   -1.7465   -0.6035   -0.2895 C   0  0  0  0  0  0  0  0  0  0  0  0
   -1.9472    0.5252    0.7161 C   0  0  0  0  0  0  0  0  0  0  0  0
   -0.5991    1.2249    0.6437 C   0  0  0  0  0  0  0  0  0  0  0  0
    0.3420    0.0534    0.6364 C   0  0  0  0  0  0  0  0  0  0  0  0
    4.7518   -0.7309    0.4029 H   0  0  0  0  0  0  0  0  0  0  0  0
    1.1668    0.9769   -1.2142 H   0  0  0  0  0  0  0  0  0  0  0  0
   -0.2100   -2.0425    0.4156 H   0  0  0  0  0  0  0  0  0  0  0  0
   -1.9174   -0.1428   -1.2939 H   0  0  0  0  0  0  0  0  0  0  0  0
   -2.5109   -1.3692   -0.0423 H   0  0  0  0  0  0  0  0  0  0  0  0
   -2.6942    1.2457    0.3409 H   0  0  0  0  0  0  0  0  0  0  0  0
   -2.1447    0.1529    1.7300 H   0  0  0  0  0  0  0  0  0  0  0  0
   -0.4792    1.8532    1.5364 H   0  0  0  0  0  0  0  0  0  0  0  0
   -0.5461    1.7985   -0.3101 H   0  0  0  0  0  0  0  0  0  0  0  0
    0.8076   -0.2164    1.5942 H   0  0  0  0  0  0  0  0  0  0  0  0
  1  2  3  0
  2  3  1  0
  3  4  1  0
  4  5  1  0
  5  6  1  0
  6  7  1  0
  7  8  1  0
  8  9  1  0
  9  3  1  0
  9  5  1  0
  1 10  1  0
  3 11  1  0
  5 12  1  0
  6 13  1  0
  6 14  1  0
  7 15  1  0
  7 16  1  0
  8 17  1  0
  8 18  1  0
  9 19  1  0
M  END
