
     RDKit          3D

 15 14  0  0  0  0  0  0  0  0999 V2000
    5.0056    0.3297    0.6617 C   0  0  0  0  0  0  0  0  0  0  0  0
    3.4093   -0.2706    0.0988 C   0  0  0  0  0  0  0  0  0  0  0  0
    2.3489   -0.6647   -0.2963 C   0  0  0  0  0  0  0  0  0  0  0  0
    1.0814   -0.4115   -0.1966 C   0  0  0  0  0  0  0  0  0  0  0  0
    0.1447   -0.2163   -0.1244 C   0  0  0  0  0  0  0  0  0  0  0  0
   -1.0111    0.0127   -0.0366 C   0  0  0  0  0  0  0  0  0  0  0  0
   -2.4125    0.3100    0.0653 C   0  0  0  0  0  0  0  0  0  0  0  0
   -3.6982    0.5698    0.1780 C   0  0  0  0  0  0  0  0  0  0  0  0
   -4.1150    0.2845    1.5801 O   0  0  0  0  0  0  0  0  0  0  0  0
    5.8903    0.6662    0.9743 H   0  0  0  0  0  0  0  0  0  0  0  0
    2.5715   -0.2781   -1.6203 H   0  0  0  0  0  0  0  0  0  0  0  0
    2.5991   -1.8187   -0.7938 H   0  0  0  0  0  0  0  0  0  0  0  0
   -4.3707   -0.1674   -0.4375 H   0  0  0  0  0  0  0  0  0  0  0  0
   -4.1802    1.5360    0.0353 H   0  0  0  0  0  0  0  0  0  0  0  0
   -3.2632    0.1183    2.0139 H   0  0  0  0  0  0  0  0  0  0  0  0
  1  2  3  0
  2  3  1  0
  3  4  1  0
  4  5  3  0
  5  6  1  0
  6  7  3  0
  7  8  1  0
  8  9  1  0
  1 10  1  0
  3 11  1  0
  3 12  1  0
  8 13  1  0
  8 14  1  0
  9 15  1  0
M  END
