
     RDKit          3D

 15 17  0  0  0  0  0  0  0  0999 V2000
    2.1351   -1.2044    1.6934 C   0  0  0  0  0  0  0  0  0  0  0  0
    1.6360   -0.7327    0.7024 C   0  0  0  0  0  0  0  0  0  0  0  0
    1.0381   -0.1589   -0.4650 C   0  0  0  0  0  0  0  0  0  0  0  0
    1.4589    1.0043   -1.0354 O   0  0  0  0  0  0  0  0  0  0  0  0
    0.3688    1.1993   -0.2108 C   0  0  0  0  0  0  0  0  0  0  0  0
   -0.7525    0.2354   -0.0770 C   0  0  0  0  0  0  0  0  0  0  0  0
   -0.8587   -0.2707    1.2513 O   0  0  0  0  0  0  0  0  0  0  0  0
   -1.6449   -0.2364   -1.0037 C   0  0  0  0  0  0  0  0  0  0  0  0
   -0.2607   -0.7222   -1.0306 C   0  0  0  0  0  0  0  0  0  0  0  0
    2.5830   -1.6304    2.5769 H   0  0  0  0  0  0  0  0  0  0  0  0
    0.6626    1.7752    0.7036 H   0  0  0  0  0  0  0  0  0  0  0  0
   -1.8240   -0.1988    1.4585 H   0  0  0  0  0  0  0  0  0  0  0  0
   -2.0939    0.4597   -1.7733 H   0  0  0  0  0  0  0  0  0  0  0  0
   -2.4079   -1.0144   -0.7264 H   0  0  0  0  0  0  0  0  0  0  0  0
   -0.0401   -0.8742   -2.0639 H   0  0  0  0  0  0  0  0  0  0  0  0
  1  2  3  0
  2  3  1  0
  3  4  1  0
  4  5  1  0
  5  6  1  0
  6  7  1  0
  6  8  1  0
  8  9  1  0
  5  3  1  0
  9  6  1  0
  9  3  1  0
  1 10  1  0
  5 11  1  0
  7 12  1  0
  8 13  1  0
  8 14  1  0
  9 15  1  0
M  END
