
     RDKit          3D

 19 19  0  0  0  0  0  0  0  0999 V2000
   -2.3407   -1.1063    2.6613 C   0  0  0  0  0  0  0  0  0  0  0  0
   -1.8024   -1.0796    1.6130 C   0  0  0  0  0  0  0  0  0  0  0  0
   -1.1721   -1.0465    0.3661 C   0  0  0  0  0  0  0  0  0  0  0  0
   -1.8072   -0.0674   -0.6080 C   0  0  0  0  0  0  0  0  0  0  0  0
   -0.7518    0.1433   -1.5248 O   0  0  0  0  0  0  0  0  0  0  0  0
    0.4247   -0.1393   -0.9041 C   0  0  0  0  0  0  0  0  0  0  0  0
    1.2955    1.1103   -0.9159 C   0  0  0  0  0  0  0  0  0  0  0  0
    2.6391    0.8134   -0.2608 C   0  0  0  0  0  0  0  0  0  0  0  0
    0.1567   -0.5230    0.4182 O   0  0  0  0  0  0  0  0  0  0  0  0
   -2.8597   -1.1426    3.6989 H   0  0  0  0  0  0  0  0  0  0  0  0
   -1.1327   -2.0575   -0.1151 H   0  0  0  0  0  0  0  0  0  0  0  0
   -2.6950   -0.4806   -1.1022 H   0  0  0  0  0  0  0  0  0  0  0  0
   -2.0855    0.8734   -0.1055 H   0  0  0  0  0  0  0  0  0  0  0  0
    0.9440   -0.9334   -1.4798 H   0  0  0  0  0  0  0  0  0  0  0  0
    0.8090    1.9200   -0.3512 H   0  0  0  0  0  0  0  0  0  0  0  0
    1.4910    1.4618   -1.9430 H   0  0  0  0  0  0  0  0  0  0  0  0
    3.0132    1.7542    0.2432 H   0  0  0  0  0  0  0  0  0  0  0  0
    2.5031    0.0411    0.5214 H   0  0  0  0  0  0  0  0  0  0  0  0
    3.3708    0.4589   -1.0360 H   0  0  0  0  0  0  0  0  0  0  0  0
  1  2  3  0
  2  3  1  0
  3  4  1  0
  4  5  1  0
  5  6  1  0
  6  7  1  0
  7  8  1  0
  6  9  1  0
  9  3  1  0
  1 10  1  0
  3 11  1  0
  4 12  1  0
  4 13  1  0
  6 14  1  0
  7 15  1  0
  7 16  1  0
  8 17  1  0
  8 18  1  0
  8 19  1  0
M  END
