
     RDKit          3D

 15 14  0  0  0  0  0  0  0  0999 V2000
   -3.0638   -1.0797    0.4109 C   0  0  0  0  0  0  0  0  0  0  0  0
   -1.9257   -0.8669    0.0680 C   0  0  0  0  0  0  0  0  0  0  0  0
   -0.5501   -0.5850   -0.3412 C   0  0  0  0  0  0  0  0  0  0  0  0
   -0.1283    0.7189    0.3213 C   0  0  0  0  0  0  0  0  0  0  0  0
   -0.9649    1.7391   -0.0833 O   0  0  0  0  0  0  0  0  0  0  0  0
    1.2820    0.9488   -0.0270 C   0  0  0  0  0  0  0  0  0  0  0  0
    1.6070    1.9850   -0.6265 O   0  0  0  0  0  0  0  0  0  0  0  0
    2.2658   -0.0112    0.3218 C   0  0  0  0  0  0  0  0  0  0  0  0
    3.1177   -0.8139    0.6132 C   0  0  0  0  0  0  0  0  0  0  0  0
   -4.0719   -1.2721    0.7337 H   0  0  0  0  0  0  0  0  0  0  0  0
   -0.4794   -0.4305   -1.4464 H   0  0  0  0  0  0  0  0  0  0  0  0
    0.1518   -1.3922   -0.0637 H   0  0  0  0  0  0  0  0  0  0  0  0
   -0.2590    0.6238    1.4333 H   0  0  0  0  0  0  0  0  0  0  0  0
   -0.8721    1.9530   -1.0482 H   0  0  0  0  0  0  0  0  0  0  0  0
    3.8909   -1.5170    0.8763 H   0  0  0  0  0  0  0  0  0  0  0  0
  1  2  3  0
  2  3  1  0
  3  4  1  0
  4  5  1  0
  4  6  1  0
  6  7  2  0
  6  8  1  0
  8  9  3  0
  1 10  1  0
  3 11  1  0
  3 12  1  0
  4 13  1  0
  5 14  1  0
  9 15  1  0
M  END
