
     RDKit          3D

 16 16  0  0  0  0  0  0  0  0999 V2000
   -1.6795    1.8629    0.0689 C   0  0  0  0  0  0  0  0  0  0  0  0
   -0.8989    0.9697   -0.1545 C   0  0  0  0  0  0  0  0  0  0  0  0
    0.0621   -0.1146   -0.4225 C   0  0  0  0  0  0  0  0  0  0  0  0
    1.3451    0.3335   -0.6451 O   0  0  0  0  0  0  0  0  0  0  0  0
    1.8719    1.0364    0.4313 C   0  0  0  0  0  0  0  0  0  0  0  0
   -0.4013   -1.2468   -1.3414 C   0  0  0  0  0  0  0  0  0  0  0  0
   -0.2018   -1.4470    0.1848 C   0  0  0  0  0  0  0  0  0  0  0  0
   -1.3814   -1.5234    0.9476 O   0  0  0  0  0  0  0  0  0  0  0  0
   -2.3783    2.6507    0.2846 H   0  0  0  0  0  0  0  0  0  0  0  0
    1.9116    0.3995    1.3589 H   0  0  0  0  0  0  0  0  0  0  0  0
    2.9482    1.2306    0.1860 H   0  0  0  0  0  0  0  0  0  0  0  0
    1.3803    1.9920    0.6231 H   0  0  0  0  0  0  0  0  0  0  0  0
   -1.4327   -1.2251   -1.7029 H   0  0  0  0  0  0  0  0  0  0  0  0
    0.3605   -1.7653   -1.9470 H   0  0  0  0  0  0  0  0  0  0  0  0
    0.5889   -2.1211    0.5112 H   0  0  0  0  0  0  0  0  0  0  0  0
   -2.0946   -1.0321    0.4317 H   0  0  0  0  0  0  0  0  0  0  0  0
  1  2  3  0
  2  3  1  0
  3  4  1  0
  4  5  1  0
  3  6  1  0
  6  7  1  0
  7  8  1  0
  7  3  1  0
  1  9  1  0
  5 10  1  0
  5 11  1  0
  5 12  1  0
  6 13  1  0
  6 14  1  0
  7 15  1  0
  8 16  1  0
M  END
