
     RDKit          3D

 17 17  0  0  0  0  0  0  0  0999 V2000
    0.0904    2.7191   -0.4731 C   0  0  0  0  0  0  0  0  0  0  0  0
    0.2779    1.5309   -0.5792 C   0  0  0  0  0  0  0  0  0  0  0  0
    0.5134    0.0935   -0.7152 C   0  0  0  0  0  0  0  0  0  0  0  0
    1.8780   -0.2248   -0.2935 C   0  0  0  0  0  0  0  0  0  0  0  0
    3.0159   -0.5002    0.0677 C   0  0  0  0  0  0  0  0  0  0  0  0
   -0.4892   -0.6881    0.1027 C   0  0  0  0  0  0  0  0  0  0  0  0
   -1.9282   -0.4916   -0.2442 C   0  0  0  0  0  0  0  0  0  0  0  0
   -0.2144   -0.8743    1.5847 C   0  0  0  0  0  0  0  0  0  0  0  0
   -0.0293   -1.8657    0.6379 O   0  0  0  0  0  0  0  0  0  0  0  0
   -0.0935    3.7663   -0.3824 H   0  0  0  0  0  0  0  0  0  0  0  0
    0.3694   -0.1931   -1.7967 H   0  0  0  0  0  0  0  0  0  0  0  0
    3.9931   -0.7488    0.3907 H   0  0  0  0  0  0  0  0  0  0  0  0
   -2.5990   -0.6349    0.6356 H   0  0  0  0  0  0  0  0  0  0  0  0
   -2.2562   -1.1287   -1.1079 H   0  0  0  0  0  0  0  0  0  0  0  0
   -2.0619    0.5566   -0.5869 H   0  0  0  0  0  0  0  0  0  0  0  0
    0.6158   -0.2761    1.9646 H   0  0  0  0  0  0  0  0  0  0  0  0
   -1.0821   -1.0400    2.2549 H   0  0  0  0  0  0  0  0  0  0  0  0
  1  2  3  0
  2  3  1  0
  3  4  1  0
  4  5  3  0
  3  6  1  0
  6  7  1  0
  6  8  1  0
  8  9  1  0
  9  6  1  0
  1 10  1  0
  3 11  1  0
  5 12  1  0
  7 13  1  0
  7 14  1  0
  7 15  1  0
  8 16  1  0
  8 17  1  0
M  END
