
     RDKit          3D

 17 17  0  0  0  0  0  0  0  0999 V2000
    3.2338    1.3367   -0.4547 C   0  0  0  0  0  0  0  0  0  0  0  0
    2.2817    0.6167   -0.2130 C   0  0  0  0  0  0  0  0  0  0  0  0
    1.1338   -0.2426    0.0639 C   0  0  0  0  0  0  0  0  0  0  0  0
   -0.1792    0.3992    0.1297 C   0  0  0  0  0  0  0  0  0  0  0  0
   -0.3147    1.5035   -0.3697 O   0  0  0  0  0  0  0  0  0  0  0  0
   -1.3580   -0.2210    0.7726 C   0  0  0  0  0  0  0  0  0  0  0  0
   -2.5636    0.6706    0.6851 C   0  0  0  0  0  0  0  0  0  0  0  0
    1.2417   -1.6333   -0.2018 C   0  0  0  0  0  0  0  0  0  0  0  0
    1.4640   -1.1442    1.1894 O   0  0  0  0  0  0  0  0  0  0  0  0
    4.0584    1.9785   -0.6782 H   0  0  0  0  0  0  0  0  0  0  0  0
   -1.1117   -0.3541    1.8644 H   0  0  0  0  0  0  0  0  0  0  0  0
   -1.6110   -1.2204    0.4054 H   0  0  0  0  0  0  0  0  0  0  0  0
   -2.6515    1.3424    1.5699 H   0  0  0  0  0  0  0  0  0  0  0  0
   -2.5569    1.3156   -0.2190 H   0  0  0  0  0  0  0  0  0  0  0  0
   -3.5145    0.0836    0.6151 H   0  0  0  0  0  0  0  0  0  0  0  0
    2.1071   -2.1291   -0.6363 H   0  0  0  0  0  0  0  0  0  0  0  0
    0.3405   -2.3023   -0.1640 H   0  0  0  0  0  0  0  0  0  0  0  0
  1  2  3  0
  2  3  1  0
  3  4  1  0
  4  5  2  0
  4  6  1  0
  6  7  1  0
  3  8  1  0
  8  9  1  0
  9  3  1  0
  1 10  1  0
  6 11  1  0
  6 12  1  0
  7 13  1  0
  7 14  1  0
  7 15  1  0
  8 16  1  0
  8 17  1  0
M  END
