
     RDKit          3D

 21 20  0  0  0  0  0  0  0  0999 V2000
    4.3729   -0.4164    0.8320 C   0  0  0  0  0  0  0  0  0  0  0  0
    3.2175   -0.1735    1.1070 C   0  0  0  0  0  0  0  0  0  0  0  0
    1.8161    0.1345    1.4514 C   0  0  0  0  0  0  0  0  0  0  0  0
    0.9728   -0.3069    0.2895 C   0  0  0  0  0  0  0  0  0  0  0  0
   -0.4580    0.0052    0.6361 C   0  0  0  0  0  0  0  0  0  0  0  0
   -0.7805    0.5204    1.6863 O   0  0  0  0  0  0  0  0  0  0  0  0
   -1.5108   -0.3321   -0.3475 C   0  0  0  0  0  0  0  0  0  0  0  0
   -2.8467    0.0736    0.2258 C   0  0  0  0  0  0  0  0  0  0  0  0
   -1.1958    0.4549   -1.6145 C   0  0  0  0  0  0  0  0  0  0  0  0
    5.3906   -0.6149    0.5848 H   0  0  0  0  0  0  0  0  0  0  0  0
    1.4966   -0.4052    2.3438 H   0  0  0  0  0  0  0  0  0  0  0  0
    1.7025    1.2174    1.5639 H   0  0  0  0  0  0  0  0  0  0  0  0
    1.0905   -1.3644    0.0294 H   0  0  0  0  0  0  0  0  0  0  0  0
    1.2336    0.2787   -0.6190 H   0  0  0  0  0  0  0  0  0  0  0  0
   -1.5578   -1.4216   -0.5566 H   0  0  0  0  0  0  0  0  0  0  0  0
   -2.7974    0.9792    0.8540 H   0  0  0  0  0  0  0  0  0  0  0  0
   -3.1830   -0.7635    0.9044 H   0  0  0  0  0  0  0  0  0  0  0  0
   -3.6293    0.1904   -0.5466 H   0  0  0  0  0  0  0  0  0  0  0  0
   -0.6647   -0.2199   -2.3410 H   0  0  0  0  0  0  0  0  0  0  0  0
   -2.1087    0.8277   -2.1037 H   0  0  0  0  0  0  0  0  0  0  0  0
   -0.5605    1.3365   -1.3840 H   0  0  0  0  0  0  0  0  0  0  0  0
  1  2  3  0
  2  3  1  0
  3  4  1  0
  4  5  1  0
  5  6  2  0
  5  7  1  0
  7  8  1  0
  7  9  1  0
  1 10  1  0
  3 11  1  0
  3 12  1  0
  4 13  1  0
  4 14  1  0
  7 15  1  0
  8 16  1  0
  8 17  1  0
  8 18  1  0
  9 19  1  0
  9 20  1  0
  9 21  1  0
M  END
