
     RDKit          3D

 13 12  0  0  0  0  0  0  0  0999 V2000
   -2.0010   -1.0410   -1.4371 C   0  0  0  0  0  0  0  0  0  0  0  0
   -0.7632   -0.6673   -0.6975 C   0  0  0  0  0  0  0  0  0  0  0  0
    0.4808   -0.2966    0.0770 C   0  0  0  0  0  0  0  0  0  0  0  0
    0.8818   -1.5848    0.2495 C   0  0  0  0  0  0  0  0  0  0  0  0
    1.1452   -2.7591    0.6784 O   0  0  0  0  0  0  0  0  0  0  0  0
   -0.0726    0.6139    1.0425 O   0  0  0  0  0  0  0  0  0  0  0  0
    0.3722    1.8688    0.5521 C   0  0  0  0  0  0  0  0  0  0  0  0
   -2.9207   -1.3395   -1.9840 H   0  0  0  0  0  0  0  0  0  0  0  0
    1.0597    0.2437   -0.7381 H   0  0  0  0  0  0  0  0  0  0  0  0
    0.2779   -1.5381    1.5841 H   0  0  0  0  0  0  0  0  0  0  0  0
    1.4324    2.0664    0.7226 H   0  0  0  0  0  0  0  0  0  0  0  0
   -0.2421    2.7620    0.5864 H   0  0  0  0  0  0  0  0  0  0  0  0
    0.3497    1.6716   -0.6359 H   0  0  0  0  0  0  0  0  0  0  0  0
  1  2  3  0
  2  3  1  0
  3  4  1  0
  4  5  2  0
  3  6  1  0
  6  7  1  0
  1  8  1  0
  3  9  1  0
  4 10  1  0
  7 11  1  0
  7 12  1  0
  7 13  1  0
M  END
