
     RDKit          3D

 19 20  0  0  0  0  0  0  0  0999 V2000
    2.6704   -1.0252    0.7751 C   0  0  0  0  0  0  0  0  0  0  0  0
    1.7316   -0.2357    0.8062 C   0  0  0  0  0  0  0  0  0  0  0  0
    0.6016    0.7479    0.8380 C   0  0  0  0  0  0  0  0  0  0  0  0
   -0.6176    0.0091    1.0569 C   0  0  0  0  0  0  0  0  0  0  0  0
   -0.9470   -0.5585   -0.0874 C   0  0  0  0  0  0  0  0  0  0  0  0
   -2.0986   -1.4178   -0.3913 C   0  0  0  0  0  0  0  0  0  0  0  0
    0.0981   -0.1151   -1.1045 C   0  0  0  0  0  0  0  0  0  0  0  0
    0.1729    1.2917   -0.5897 C   0  0  0  0  0  0  0  0  0  0  0  0
    0.9488    2.0011    0.3305 C   0  0  0  0  0  0  0  0  0  0  0  0
    3.4881   -1.6911    0.7559 H   0  0  0  0  0  0  0  0  0  0  0  0
   -1.1800   -0.0864    1.9604 H   0  0  0  0  0  0  0  0  0  0  0  0
   -3.0725   -0.9626   -0.0925 H   0  0  0  0  0  0  0  0  0  0  0  0
   -1.9868   -2.4076    0.1038 H   0  0  0  0  0  0  0  0  0  0  0  0
   -2.1785   -1.5892   -1.4882 H   0  0  0  0  0  0  0  0  0  0  0  0
   -0.3278   -0.0905   -2.1113 H   0  0  0  0  0  0  0  0  0  0  0  0
    1.0163   -0.6949   -1.0231 H   0  0  0  0  0  0  0  0  0  0  0  0
   -0.8908    1.6942   -0.6541 H   0  0  0  0  0  0  0  0  0  0  0  0
    2.0150    2.2315    0.0376 H   0  0  0  0  0  0  0  0  0  0  0  0
    0.5566    2.8991    0.8778 H   0  0  0  0  0  0  0  0  0  0  0  0
  1  2  3  0
  2  3  1  0
  3  4  1  0
  4  5  2  0
  5  6  1  0
  5  7  1  0
  7  8  1  0
  8  9  1  0
  8  3  1  0
  9  3  1  0
  1 10  1  0
  4 11  1  0
  6 12  1  0
  6 13  1  0
  6 14  1  0
  7 15  1  0
  7 16  1  0
  8 17  1  0
  9 18  1  0
  9 19  1  0
M  END
