
     RDKit          3D

 14 14  0  0  0  0  0  0  0  0999 V2000
    2.0620    1.5369    0.3756 C   0  0  0  0  0  0  0  0  0  0  0  0
    1.0845    0.8344    0.2552 C   0  0  0  0  0  0  0  0  0  0  0  0
   -0.0794    0.0002    0.0868 C   0  0  0  0  0  0  0  0  0  0  0  0
    0.1724   -1.4085    0.5574 C   0  0  0  0  0  0  0  0  0  0  0  0
   -0.7370    0.0571   -1.2859 C   0  0  0  0  0  0  0  0  0  0  0  0
   -1.9586   -0.1337   -0.5533 O   0  0  0  0  0  0  0  0  0  0  0  0
   -1.3636    0.5976    0.4936 C   0  0  0  0  0  0  0  0  0  0  0  0
   -1.7928    1.3989    1.3669 O   0  0  0  0  0  0  0  0  0  0  0  0
    2.9233    2.1448    0.4898 H   0  0  0  0  0  0  0  0  0  0  0  0
   -0.3988   -2.0979   -0.1066 H   0  0  0  0  0  0  0  0  0  0  0  0
    1.2516   -1.6258    0.3495 H   0  0  0  0  0  0  0  0  0  0  0  0
   -0.0745   -1.5608    1.6273 H   0  0  0  0  0  0  0  0  0  0  0  0
   -0.6285    1.0593   -1.7292 H   0  0  0  0  0  0  0  0  0  0  0  0
   -0.4606   -0.8025   -1.9271 H   0  0  0  0  0  0  0  0  0  0  0  0
  1  2  3  0
  2  3  1  0
  3  4  1  0
  3  5  1  0
  5  6  1  0
  6  7  1  0
  7  8  2  0
  7  3  1  0
  1  9  1  0
  4 10  1  0
  4 11  1  0
  4 12  1  0
  5 13  1  0
  5 14  1  0
M  END
