
     RDKit          3D

 10  9  0  0  0  0  0  0  0  0999 V2000
    2.1720   -2.6182   -0.1358 C   0  0  0  0  0  0  0  0  0  0  0  0
    1.6681   -2.0824   -0.2604 C   0  0  0  0  0  0  0  0  0  0  0  0
    0.5553   -0.8930   -0.5403 C   0  0  0  0  0  0  0  0  0  0  0  0
   -0.2102   -0.0693   -0.7170 C   0  0  0  0  0  0  0  0  0  0  0  0
   -1.3134    1.1122   -0.9761 C   0  0  0  0  0  0  0  0  0  0  0  0
   -1.6732    1.3545   -1.9492 O   0  0  0  0  0  0  0  0  0  0  0  0
   -1.3766    1.4156    0.5862 C   0  0  0  0  0  0  0  0  0  0  0  0
   -1.4036    1.5935    1.4893 C   0  0  0  0  0  0  0  0  0  0  0  0
    3.0023   -3.5112    0.0750 H   0  0  0  0  0  0  0  0  0  0  0  0
   -1.4208    1.7911    2.4281 H   0  0  0  0  0  0  0  0  0  0  0  0
  1  2  3  0
  2  3  1  0
  3  4  3  0
  4  5  1  0
  5  6  2  0
  5  7  1  0
  7  8  3  0
  1  9  1  0
  8 10  1  0
M  END
