
     RDKit          3D

 21 21  0  0  0  0  0  0  0  0999 V2000
   -2.0571    2.3683    0.4104 C   0  0  0  0  0  0  0  0  0  0  0  0
   -1.6947    1.2174    0.3183 C   0  0  0  0  0  0  0  0  0  0  0  0
   -1.2719   -0.1958    0.2177 C   0  0  0  0  0  0  0  0  0  0  0  0
   -1.6752   -1.0898    1.3698 C   0  0  0  0  0  0  0  0  0  0  0  0
   -1.1214   -0.7042   -1.1509 C   0  0  0  0  0  0  0  0  0  0  0  0
    0.0961   -0.4104   -0.2994 C   0  0  0  0  0  0  0  0  0  0  0  0
    0.9514    0.7678   -0.6211 C   0  0  0  0  0  0  0  0  0  0  0  0
    2.2060    0.4709   -1.0968 O   0  0  0  0  0  0  0  0  0  0  0  0
    3.0150   -0.2455   -0.2335 C   0  0  0  0  0  0  0  0  0  0  0  0
   -2.3649    3.3777    0.5068 H   0  0  0  0  0  0  0  0  0  0  0  0
   -1.6112   -2.1465    1.0275 H   0  0  0  0  0  0  0  0  0  0  0  0
   -2.6743   -0.8024    1.7274 H   0  0  0  0  0  0  0  0  0  0  0  0
   -0.9136   -0.9206    2.1768 H   0  0  0  0  0  0  0  0  0  0  0  0
   -1.3249   -0.0303   -2.0058 H   0  0  0  0  0  0  0  0  0  0  0  0
   -1.4008   -1.7696   -1.3121 H   0  0  0  0  0  0  0  0  0  0  0  0
    0.6384   -1.3131    0.0373 H   0  0  0  0  0  0  0  0  0  0  0  0
    1.0207    1.3660    0.3293 H   0  0  0  0  0  0  0  0  0  0  0  0
    0.3702    1.4073   -1.3212 H   0  0  0  0  0  0  0  0  0  0  0  0
    4.0121   -0.4089   -0.7297 H   0  0  0  0  0  0  0  0  0  0  0  0
    2.6141   -1.2632   -0.0531 H   0  0  0  0  0  0  0  0  0  0  0  0
    3.1859    0.3250    0.7024 H   0  0  0  0  0  0  0  0  0  0  0  0
  1  2  3  0
  2  3  1  0
  3  4  1  0
  3  5  1  0
  5  6  1  0
  6  7  1  0
  7  8  1  0
  8  9  1  0
  6  3  1  0
  1 10  1  0
  4 11  1  0
  4 12  1  0
  4 13  1  0
  5 14  1  0
  5 15  1  0
  6 16  1  0
  7 17  1  0
  7 18  1  0
  9 19  1  0
  9 20  1  0
  9 21  1  0
M  END
