
     RDKit          3D

 21 20  0  0  0  0  0  0  0  0999 V2000
    3.8857    0.4934   -0.3657 C   0  0  0  0  0  0  0  0  0  0  0  0
    2.7007   -0.0642    0.1476 C   0  0  0  0  0  0  0  0  0  0  0  0
    1.3206   -0.6923    0.7279 C   0  0  0  0  0  0  0  0  0  0  0  0
    1.1785   -1.8973    0.3270 O   0  0  0  0  0  0  0  0  0  0  0  0
    0.4083    0.2844   -0.2725 C   0  0  0  0  0  0  0  0  0  0  0  0
   -1.0352   -0.0444   -0.3415 C   0  0  0  0  0  0  0  0  0  0  0  0
   -1.6358    0.9201   -1.3793 C   0  0  0  0  0  0  0  0  0  0  0  0
   -1.6428    0.0399    1.0105 C   0  0  0  0  0  0  0  0  0  0  0  0
   -1.0219   -0.9044    1.8649 O   0  0  0  0  0  0  0  0  0  0  0  0
    4.6105    0.8256   -0.6920 H   0  0  0  0  0  0  0  0  0  0  0  0
    1.3858   -0.2333    1.6028 H   0  0  0  0  0  0  0  0  0  0  0  0
    0.3093   -2.0540   -0.2295 H   0  0  0  0  0  0  0  0  0  0  0  0
    0.4038    1.3096    0.3181 H   0  0  0  0  0  0  0  0  0  0  0  0
    0.9054    0.5518   -1.2526 H   0  0  0  0  0  0  0  0  0  0  0  0
   -1.1635   -1.0828   -0.7749 H   0  0  0  0  0  0  0  0  0  0  0  0
   -1.7299    1.8720   -0.8181 H   0  0  0  0  0  0  0  0  0  0  0  0
   -2.6161    0.5742   -1.7607 H   0  0  0  0  0  0  0  0  0  0  0  0
   -0.9280    1.0068   -2.2132 H   0  0  0  0  0  0  0  0  0  0  0  0
   -2.6969   -0.1275    1.0099 H   0  0  0  0  0  0  0  0  0  0  0  0
   -1.3906    1.0229    1.4855 H   0  0  0  0  0  0  0  0  0  0  0  0
   -1.2477   -1.8005    1.6058 H   0  0  0  0  0  0  0  0  0  0  0  0
  1  2  3  0
  2  3  1  0
  3  4  1  0
  3  5  1  0
  5  6  1  0
  6  7  1  0
  6  8  1  0
  8  9  1  0
  1 10  1  0
  3 11  1  0
  4 12  1  0
  5 13  1  0
  5 14  1  0
  6 15  1  0
  7 16  1  0
  7 17  1  0
  7 18  1  0
  8 19  1  0
  8 20  1  0
  9 21  1  0
M  END
