
     RDKit          3D

 21 21  0  0  0  0  0  0  0  0999 V2000
    3.1254   -1.4591    0.4401 C   0  0  0  0  0  0  0  0  0  0  0  0
    2.4895   -0.4128    0.4592 C   0  0  0  0  0  0  0  0  0  0  0  0
    1.7637    0.8218    0.4952 C   0  0  0  0  0  0  0  0  0  0  0  0
    0.2936    0.6953    0.5489 C   0  0  0  0  0  0  0  0  0  0  0  0
   -0.3841    0.0232   -0.5811 C   0  0  0  0  0  0  0  0  0  0  0  0
    0.0846   -1.3914   -0.7308 C   0  0  0  0  0  0  0  0  0  0  0  0
   -1.8919   -0.0266   -0.4287 C   0  0  0  0  0  0  0  0  0  0  0  0
   -2.6789    1.1821   -0.3213 C   0  0  0  0  0  0  0  0  0  0  0  0
   -2.6107    0.5181   -1.6125 O   0  0  0  0  0  0  0  0  0  0  0  0
    3.6576   -2.3688    0.4263 H   0  0  0  0  0  0  0  0  0  0  0  0
    2.0698    1.4693    1.3733 H   0  0  0  0  0  0  0  0  0  0  0  0
    2.1074    1.4321   -0.3846 H   0  0  0  0  0  0  0  0  0  0  0  0
   -0.1490    1.7330    0.6580 H   0  0  0  0  0  0  0  0  0  0  0  0
    0.0368    0.2029    1.5223 H   0  0  0  0  0  0  0  0  0  0  0  0
   -0.1120    0.5946   -1.5141 H   0  0  0  0  0  0  0  0  0  0  0  0
    0.2969   -1.7735    0.2815 H   0  0  0  0  0  0  0  0  0  0  0  0
    0.9430   -1.5124   -1.3896 H   0  0  0  0  0  0  0  0  0  0  0  0
   -0.7215   -2.0439   -1.1901 H   0  0  0  0  0  0  0  0  0  0  0  0
   -2.3799   -0.9911   -0.1821 H   0  0  0  0  0  0  0  0  0  0  0  0
   -2.2504    2.1906   -0.3167 H   0  0  0  0  0  0  0  0  0  0  0  0
   -3.6899    1.1169    0.0983 H   0  0  0  0  0  0  0  0  0  0  0  0
  1  2  3  0
  2  3  1  0
  3  4  1  0
  4  5  1  0
  5  6  1  0
  5  7  1  0
  7  8  1  0
  8  9  1  0
  9  7  1  0
  1 10  1  0
  3 11  1  0
  3 12  1  0
  4 13  1  0
  4 14  1  0
  5 15  1  0
  6 16  1  0
  6 17  1  0
  6 18  1  0
  7 19  1  0
  8 20  1  0
  8 21  1  0
M  END
