
     RDKit          3D

 13 12  0  0  0  0  0  0  0  0999 V2000
   -2.2707   -1.1195    0.4119 C   0  0  0  0  0  0  0  0  0  0  0  0
   -1.1162   -0.4579   -0.0204 C   0  0  0  0  0  0  0  0  0  0  0  0
    0.2167    0.2800   -0.5294 C   0  0  0  0  0  0  0  0  0  0  0  0
    0.6137    1.0075    0.7974 C   0  0  0  0  0  0  0  0  0  0  0  0
   -0.3462    1.3041   -1.4162 O   0  0  0  0  0  0  0  0  0  0  0  0
    0.8629   -0.5524   -0.9234 C   0  0  0  0  0  0  0  0  0  0  0  0
    1.7909   -1.7132   -1.4981 C   0  0  0  0  0  0  0  0  0  0  0  0
   -3.0796   -1.5895    0.7326 H   0  0  0  0  0  0  0  0  0  0  0  0
    1.4508    0.4894    1.2091 H   0  0  0  0  0  0  0  0  0  0  0  0
   -0.3525    0.9136    1.3985 H   0  0  0  0  0  0  0  0  0  0  0  0
    0.7596    2.0632    0.5443 H   0  0  0  0  0  0  0  0  0  0  0  0
   -0.9073    1.8015   -0.7068 H   0  0  0  0  0  0  0  0  0  0  0  0
    2.3780   -2.4269   -1.8431 H   0  0  0  0  0  0  0  0  0  0  0  0
  1  2  3  0
  2  3  1  0
  3  4  1  0
  3  5  1  0
  3  6  1  0
  6  7  3  0
  1  8  1  0
  4  9  1  0
  4 10  1  0
  4 11  1  0
  5 12  1  0
  7 13  1  0
M  END
