
     RDKit          3D

 18 18  0  0  0  0  0  0  0  0999 V2000
   -0.1763   -2.1634    2.4266 C   0  0  0  0  0  0  0  0  0  0  0  0
   -0.1884   -1.4614    1.4472 C   0  0  0  0  0  0  0  0  0  0  0  0
   -0.1823   -0.5767    0.2267 C   0  0  0  0  0  0  0  0  0  0  0  0
    0.9565   -0.8635   -0.6900 C   0  0  0  0  0  0  0  0  0  0  0  0
    0.9086    0.0044   -1.9102 C   0  0  0  0  0  0  0  0  0  0  0  0
   -1.4284   -0.4167   -0.4348 O   0  0  0  0  0  0  0  0  0  0  0  0
   -0.9803    0.6162    0.3458 C   0  0  0  0  0  0  0  0  0  0  0  0
   -0.7222    1.9638   -0.2095 C   0  0  0  0  0  0  0  0  0  0  0  0
   -0.1777   -2.7847    3.2753 H   0  0  0  0  0  0  0  0  0  0  0  0
    1.9248   -0.7705   -0.1393 H   0  0  0  0  0  0  0  0  0  0  0  0
    0.9366   -1.9399   -1.0132 H   0  0  0  0  0  0  0  0  0  0  0  0
    1.4383   -0.5043   -2.7660 H   0  0  0  0  0  0  0  0  0  0  0  0
    1.4012    0.9767   -1.7414 H   0  0  0  0  0  0  0  0  0  0  0  0
   -0.1540    0.1630   -2.1515 H   0  0  0  0  0  0  0  0  0  0  0  0
   -1.5517    0.6971    1.3469 H   0  0  0  0  0  0  0  0  0  0  0  0
   -1.0951    2.0467   -1.2306 H   0  0  0  0  0  0  0  0  0  0  0  0
   -1.2607    2.7735    0.3776 H   0  0  0  0  0  0  0  0  0  0  0  0
    0.3512    2.2397   -0.0967 H   0  0  0  0  0  0  0  0  0  0  0  0
  1  2  3  0
  2  3  1  0
  3  4  1  0
  4  5  1  0
  3  6  1  0
  6  7  1  0
  7  8  1  0
  7  3  1  0
  1  9  1  0
  4 10  1  0
  4 11  1  0
  5 12  1  0
  5 13  1  0
  5 14  1  0
  7 15  1  0
  8 16  1  0
  8 17  1  0
  8 18  1  0
M  END
