
     RDKit          3D

 21 22  0  0  0  0  0  0  0  0999 V2000
   -1.4771    2.5228   -0.2896 C   0  0  0  0  0  0  0  0  0  0  0  0
   -0.9611    1.5484   -0.5321 C   0  0  0  0  0  0  0  0  0  0  0  0
   -0.3384    0.3369   -0.8499 C   0  0  0  0  0  0  0  0  0  0  0  0
   -0.8926   -0.8135    0.1219 C   0  0  0  0  0  0  0  0  0  0  0  0
   -1.8802   -1.6153   -0.6232 C   0  0  0  0  0  0  0  0  0  0  0  0
    0.5268   -1.3406    0.1881 C   0  0  0  0  0  0  0  0  0  0  0  0
    0.9564    0.0590   -0.0700 C   0  0  0  0  0  0  0  0  0  0  0  0
    1.4886    0.9357    0.9547 C   0  0  0  0  0  0  0  0  0  0  0  0
    2.2422    0.5901   -0.3528 C   0  0  0  0  0  0  0  0  0  0  0  0
   -2.0065    3.5655   -0.0379 H   0  0  0  0  0  0  0  0  0  0  0  0
   -0.2422   -0.0346   -1.8704 H   0  0  0  0  0  0  0  0  0  0  0  0
   -1.2137   -0.3950    1.0893 H   0  0  0  0  0  0  0  0  0  0  0  0
   -2.7862   -1.0291   -0.9049 H   0  0  0  0  0  0  0  0  0  0  0  0
   -2.2475   -2.4754    0.0059 H   0  0  0  0  0  0  0  0  0  0  0  0
   -1.3884   -2.0197   -1.5427 H   0  0  0  0  0  0  0  0  0  0  0  0
    0.8314   -2.0059   -0.6364 H   0  0  0  0  0  0  0  0  0  0  0  0
    0.7972   -1.7694    1.1861 H   0  0  0  0  0  0  0  0  0  0  0  0
    1.9932    0.5739    1.8755 H   0  0  0  0  0  0  0  0  0  0  0  0
    1.1566    1.9882    1.0575 H   0  0  0  0  0  0  0  0  0  0  0  0
    2.3198    1.4496   -1.0808 H   0  0  0  0  0  0  0  0  0  0  0  0
    3.1219   -0.0715   -0.2794 H   0  0  0  0  0  0  0  0  0  0  0  0
  1  2  3  0
  2  3  1  0
  3  4  1  0
  4  5  1  0
  4  6  1  0
  6  7  1  0
  7  8  1  0
  8  9  1  0
  7  3  1  0
  9  7  1  0
  1 10  1  0
  3 11  1  0
  4 12  1  0
  5 13  1  0
  5 14  1  0
  5 15  1  0
  6 16  1  0
  6 17  1  0
  8 18  1  0
  8 19  1  0
  9 20  1  0
  9 21  1  0
M  END
