
     RDKit          3D

 21 21  0  0  0  0  0  0  0  0999 V2000
    3.4608    1.2426    0.1244 C   0  0  0  0  0  0  0  0  0  0  0  0
    2.5620    0.4738    0.4095 C   0  0  0  0  0  0  0  0  0  0  0  0
    1.4895   -0.4205    0.7647 C   0  0  0  0  0  0  0  0  0  0  0  0
    0.1745    0.2576    1.0756 C   0  0  0  0  0  0  0  0  0  0  0  0
   -0.5568   -0.6174    0.1000 C   0  0  0  0  0  0  0  0  0  0  0  0
   -1.2462   -1.6873    0.6281 O   0  0  0  0  0  0  0  0  0  0  0  0
   -1.3016    0.0990   -0.9912 C   0  0  0  0  0  0  0  0  0  0  0  0
   -2.3635    1.0320   -0.4716 C   0  0  0  0  0  0  0  0  0  0  0  0
    0.7947   -1.0792   -0.4258 C   0  0  0  0  0  0  0  0  0  0  0  0
    4.2397    1.9308   -0.1177 H   0  0  0  0  0  0  0  0  0  0  0  0
    1.8272   -1.1617    1.5297 H   0  0  0  0  0  0  0  0  0  0  0  0
   -0.1491   -0.0097    2.1206 H   0  0  0  0  0  0  0  0  0  0  0  0
    0.1442    1.3366    0.8874 H   0  0  0  0  0  0  0  0  0  0  0  0
   -0.7638   -2.5480    0.5526 H   0  0  0  0  0  0  0  0  0  0  0  0
   -1.8167   -0.6712   -1.6010 H   0  0  0  0  0  0  0  0  0  0  0  0
   -0.5891    0.6623   -1.5884 H   0  0  0  0  0  0  0  0  0  0  0  0
   -1.9654    1.8064    0.2065 H   0  0  0  0  0  0  0  0  0  0  0  0
   -3.2001    0.5052   -0.0012 H   0  0  0  0  0  0  0  0  0  0  0  0
   -2.7753    1.5724   -1.3526 H   0  0  0  0  0  0  0  0  0  0  0  0
    0.9217   -2.1704   -0.4871 H   0  0  0  0  0  0  0  0  0  0  0  0
    1.1129   -0.5535   -1.3627 H   0  0  0  0  0  0  0  0  0  0  0  0
  1  2  3  0
  2  3  1  0
  3  4  1  0
  4  5  1  0
  5  6  1  0
  5  7  1  0
  7  8  1  0
  5  9  1  0
  9  3  1  0
  1 10  1  0
  3 11  1  0
  4 12  1  0
  4 13  1  0
  6 14  1  0
  7 15  1  0
  7 16  1  0
  8 17  1  0
  8 18  1  0
  8 19  1  0
  9 20  1  0
  9 21  1  0
M  END
