
     RDKit          3D

 16 15  0  0  0  0  0  0  0  0999 V2000
    3.0641    0.4800   -2.2736 C   0  0  0  0  0  0  0  0  0  0  0  0
    1.9359    0.5664   -1.7684 C   0  0  0  0  0  0  0  0  0  0  0  0
    0.6394    0.6814   -1.1703 C   0  0  0  0  0  0  0  0  0  0  0  0
    0.5705   -0.3191   -0.0033 C   0  0  0  0  0  0  0  0  0  0  0  0
   -0.8178   -0.0849    0.5739 C   0  0  0  0  0  0  0  0  0  0  0  0
   -1.1164   -0.8841    1.6630 O   0  0  0  0  0  0  0  0  0  0  0  0
   -2.3781   -0.7621    2.2966 C   0  0  0  0  0  0  0  0  0  0  0  0
   -3.2122    0.0729    1.8652 O   0  0  0  0  0  0  0  0  0  0  0  0
    4.0172    0.4082   -2.6805 H   0  0  0  0  0  0  0  0  0  0  0  0
   -0.1983    0.4460   -1.8340 H   0  0  0  0  0  0  0  0  0  0  0  0
    0.4602    1.6958   -0.7147 H   0  0  0  0  0  0  0  0  0  0  0  0
    1.3174   -0.1240    0.7537 H   0  0  0  0  0  0  0  0  0  0  0  0
    0.6420   -1.3435   -0.4593 H   0  0  0  0  0  0  0  0  0  0  0  0
   -0.7885    0.9937    0.9016 H   0  0  0  0  0  0  0  0  0  0  0  0
   -1.5171   -0.1882   -0.2937 H   0  0  0  0  0  0  0  0  0  0  0  0
   -2.6183   -1.3834    3.1438 H   0  0  0  0  0  0  0  0  0  0  0  0
  1  2  3  0
  2  3  1  0
  3  4  1  0
  4  5  1  0
  5  6  1  0
  6  7  1  0
  7  8  2  0
  1  9  1  0
  3 10  1  0
  3 11  1  0
  4 12  1  0
  4 13  1  0
  5 14  1  0
  5 15  1  0
  7 16  1  0
M  END
