
     RDKit          3D

 19 20  0  0  0  0  0  0  0  0999 V2000
    1.5936    1.2439    1.9154 C   0  0  0  0  0  0  0  0  0  0  0  0
    1.1090    0.6488    0.9869 C   0  0  0  0  0  0  0  0  0  0  0  0
    0.5229   -0.0908   -0.1274 C   0  0  0  0  0  0  0  0  0  0  0  0
    1.5329   -0.9544   -0.8632 C   0  0  0  0  0  0  0  0  0  0  0  0
    2.0604   -1.8711    0.0488 O   0  0  0  0  0  0  0  0  0  0  0  0
   -0.5555    0.4862   -0.9476 C   0  0  0  0  0  0  0  0  0  0  0  0
   -1.7337    1.1782   -0.3524 C   0  0  0  0  0  0  0  0  0  0  0  0
   -1.8587    0.1497    0.7536 C   0  0  0  0  0  0  0  0  0  0  0  0
   -0.8108   -0.6686    0.0278 C   0  0  0  0  0  0  0  0  0  0  0  0
    2.0363    1.7699    2.7401 H   0  0  0  0  0  0  0  0  0  0  0  0
    1.1049   -1.4329   -1.7391 H   0  0  0  0  0  0  0  0  0  0  0  0
    2.3679   -0.2936   -1.1613 H   0  0  0  0  0  0  0  0  0  0  0  0
    2.9066   -2.2650   -0.2394 H   0  0  0  0  0  0  0  0  0  0  0  0
   -0.5545    0.2912   -2.0192 H   0  0  0  0  0  0  0  0  0  0  0  0
   -2.6077    1.1101   -1.0349 H   0  0  0  0  0  0  0  0  0  0  0  0
   -1.6039    2.1982    0.0131 H   0  0  0  0  0  0  0  0  0  0  0  0
   -1.5490    0.5126    1.7551 H   0  0  0  0  0  0  0  0  0  0  0  0
   -2.8299   -0.4170    0.7489 H   0  0  0  0  0  0  0  0  0  0  0  0
   -1.1308   -1.5954   -0.5054 H   0  0  0  0  0  0  0  0  0  0  0  0
  1  2  3  0
  2  3  1  0
  3  4  1  0
  4  5  1  0
  3  6  1  0
  6  7  1  0
  7  8  1  0
  8  9  1  0
  9  3  1  0
  9  6  1  0
  1 10  1  0
  4 11  1  0
  4 12  1  0
  5 13  1  0
  6 14  1  0
  7 15  1  0
  7 16  1  0
  8 17  1  0
  8 18  1  0
  9 19  1  0
M  END
