
     RDKit          3D

 19 19  0  0  0  0  0  0  0  0999 V2000
    2.6371   -2.1067   -2.6704 C   0  0  0  0  0  0  0  0  0  0  0  0
    1.5775   -1.4833   -2.5474 C   0  0  0  0  0  0  0  0  0  0  0  0
    0.3711   -0.8010   -2.4039 C   0  0  0  0  0  0  0  0  0  0  0  0
   -0.8535   -1.4685   -2.3890 O   0  0  0  0  0  0  0  0  0  0  0  0
   -0.4383   -1.1232   -1.1299 C   0  0  0  0  0  0  0  0  0  0  0  0
   -0.9172    0.0736   -0.3906 C   0  0  0  0  0  0  0  0  0  0  0  0
   -0.2821    0.1607    0.8635 O   0  0  0  0  0  0  0  0  0  0  0  0
   -0.7863    1.2750    1.5421 C   0  0  0  0  0  0  0  0  0  0  0  0
   -0.0981    1.4161    2.8853 C   0  0  0  0  0  0  0  0  0  0  0  0
    3.6159   -2.6912   -2.7659 H   0  0  0  0  0  0  0  0  0  0  0  0
    0.2403    0.2453   -2.8153 H   0  0  0  0  0  0  0  0  0  0  0  0
   -0.0797   -2.0040   -0.5454 H   0  0  0  0  0  0  0  0  0  0  0  0
   -0.6519    0.9890   -0.9553 H   0  0  0  0  0  0  0  0  0  0  0  0
   -2.0062    0.0575   -0.1795 H   0  0  0  0  0  0  0  0  0  0  0  0
   -1.8774    1.0606    1.6628 H   0  0  0  0  0  0  0  0  0  0  0  0
   -0.6778    2.1483    0.8981 H   0  0  0  0  0  0  0  0  0  0  0  0
   -0.2924    0.4493    3.4186 H   0  0  0  0  0  0  0  0  0  0  0  0
   -0.4776    2.2817    3.4132 H   0  0  0  0  0  0  0  0  0  0  0  0
    0.9964    1.5209    2.6226 H   0  0  0  0  0  0  0  0  0  0  0  0
  1  2  3  0
  2  3  1  0
  3  4  1  0
  4  5  1  0
  5  6  1  0
  6  7  1  0
  7  8  1  0
  8  9  1  0
  5  3  1  0
  1 10  1  0
  3 11  1  0
  5 12  1  0
  6 13  1  0
  6 14  1  0
  8 15  1  0
  8 16  1  0
  9 17  1  0
  9 18  1  0
  9 19  1  0
M  END
