
     RDKit          3D

 18 18  0  0  0  0  0  0  0  0999 V2000
    1.9641   -2.1023   -0.4882 C   0  0  0  0  0  0  0  0  0  0  0  0
    1.7469   -0.8933   -0.4313 C   0  0  0  0  0  0  0  0  0  0  0  0
    1.4935    0.5472   -0.3887 C   0  0  0  0  0  0  0  0  0  0  0  0
    0.0434    0.8805   -0.3187 C   0  0  0  0  0  0  0  0  0  0  0  0
   -0.6790    0.3331   -1.5365 C   0  0  0  0  0  0  0  0  0  0  0  0
   -1.7883    0.1536   -0.7140 O   0  0  0  0  0  0  0  0  0  0  0  0
   -0.8600   -0.0960    0.3229 C   0  0  0  0  0  0  0  0  0  0  0  0
   -1.4602    0.2459    1.6493 C   0  0  0  0  0  0  0  0  0  0  0  0
    2.1651   -3.1246   -0.5423 H   0  0  0  0  0  0  0  0  0  0  0  0
    1.8966    0.9937   -1.3419 H   0  0  0  0  0  0  0  0  0  0  0  0
    2.0888    0.9916    0.4343 H   0  0  0  0  0  0  0  0  0  0  0  0
   -0.1936    1.9514   -0.2157 H   0  0  0  0  0  0  0  0  0  0  0  0
   -0.8041    1.0162   -2.3710 H   0  0  0  0  0  0  0  0  0  0  0  0
   -0.3265   -0.6613   -1.8875 H   0  0  0  0  0  0  0  0  0  0  0  0
   -0.4794   -1.1189    0.2727 H   0  0  0  0  0  0  0  0  0  0  0  0
   -2.5155    0.5684    1.5850 H   0  0  0  0  0  0  0  0  0  0  0  0
   -0.8488    0.9875    2.1527 H   0  0  0  0  0  0  0  0  0  0  0  0
   -1.4428   -0.6727    2.2707 H   0  0  0  0  0  0  0  0  0  0  0  0
  1  2  3  0
  2  3  1  0
  3  4  1  0
  4  5  1  0
  5  6  1  0
  6  7  1  0
  7  8  1  0
  7  4  1  0
  1  9  1  0
  3 10  1  0
  3 11  1  0
  4 12  1  0
  5 13  1  0
  5 14  1  0
  7 15  1  0
  8 16  1  0
  8 17  1  0
  8 18  1  0
M  END
