
     RDKit          3D

 16 16  0  0  0  0  0  0  0  0999 V2000
    2.3221    1.8586   -0.9734 C   0  0  0  0  0  0  0  0  0  0  0  0
    1.5066    1.1508   -0.4042 C   0  0  0  0  0  0  0  0  0  0  0  0
    0.6320    0.4113    0.2191 C   0  0  0  0  0  0  0  0  0  0  0  0
   -0.7862    0.6871   -0.2634 C   0  0  0  0  0  0  0  0  0  0  0  0
   -1.6875   -0.1883   -0.2250 C   0  0  0  0  0  0  0  0  0  0  0  0
   -1.1761   -1.5493    0.3985 C   0  0  0  0  0  0  0  0  0  0  0  0
   -0.4264   -1.3511    1.4863 O   0  0  0  0  0  0  0  0  0  0  0  0
    0.4430   -0.2486    1.5016 C   0  0  0  0  0  0  0  0  0  0  0  0
    3.1209    2.5801   -1.5418 H   0  0  0  0  0  0  0  0  0  0  0  0
    0.7890   -0.6798   -0.5384 H   0  0  0  0  0  0  0  0  0  0  0  0
   -0.9820    1.6809   -0.7519 H   0  0  0  0  0  0  0  0  0  0  0  0
   -2.7392   -0.1886   -0.4631 H   0  0  0  0  0  0  0  0  0  0  0  0
   -0.4986   -1.8541   -0.5000 H   0  0  0  0  0  0  0  0  0  0  0  0
   -1.9805   -2.3091    0.3219 H   0  0  0  0  0  0  0  0  0  0  0  0
    0.0224    0.5427    2.2268 H   0  0  0  0  0  0  0  0  0  0  0  0
    1.4405   -0.5426    1.9732 H   0  0  0  0  0  0  0  0  0  0  0  0
  1  2  3  0
  2  3  1  0
  3  4  1  0
  4  5  2  0
  5  6  1  0
  6  7  1  0
  7  8  1  0
  8  3  1  0
  1  9  1  0
  3 10  1  0
  4 11  1  0
  5 12  1  0
  6 13  1  0
  6 14  1  0
  8 15  1  0
  8 16  1  0
M  END
