
     RDKit          3D

 19 20  0  0  0  0  0  0  0  0999 V2000
    2.7720    0.9621    0.6824 C   0  0  0  0  0  0  0  0  0  0  0  0
    1.6220    0.6139    0.8526 C   0  0  0  0  0  0  0  0  0  0  0  0
    0.2256    0.1938    1.0346 C   0  0  0  0  0  0  0  0  0  0  0  0
    0.1768   -1.3349    1.1434 C   0  0  0  0  0  0  0  0  0  0  0  0
   -1.0145   -1.9856    0.9258 O   0  0  0  0  0  0  0  0  0  0  0  0
   -0.2092   -1.4591   -0.1358 C   0  0  0  0  0  0  0  0  0  0  0  0
   -0.4803    0.0275   -0.2922 C   0  0  0  0  0  0  0  0  0  0  0  0
    0.2264    0.7153   -1.3930 C   0  0  0  0  0  0  0  0  0  0  0  0
   -1.9680    0.2758   -0.2532 C   0  0  0  0  0  0  0  0  0  0  0  0
    3.7819    1.2532    0.5366 H   0  0  0  0  0  0  0  0  0  0  0  0
   -0.3310    0.7269    1.8105 H   0  0  0  0  0  0  0  0  0  0  0  0
    0.8647   -1.7683    1.8489 H   0  0  0  0  0  0  0  0  0  0  0  0
   -0.0224   -2.0860   -0.9947 H   0  0  0  0  0  0  0  0  0  0  0  0
    1.0700    0.0908   -1.7778 H   0  0  0  0  0  0  0  0  0  0  0  0
   -0.3781    0.9995   -2.2566 H   0  0  0  0  0  0  0  0  0  0  0  0
    0.7111    1.6419   -0.9756 H   0  0  0  0  0  0  0  0  0  0  0  0
   -2.1151    1.3642   -0.4118 H   0  0  0  0  0  0  0  0  0  0  0  0
   -2.4307    0.0226    0.7131 H   0  0  0  0  0  0  0  0  0  0  0  0
   -2.5013   -0.2535   -1.0570 H   0  0  0  0  0  0  0  0  0  0  0  0
  1  2  3  0
  2  3  1  0
  3  4  1  0
  4  5  1  0
  5  6  1  0
  6  7  1  0
  7  8  1  0
  7  9  1  0
  7  3  1  0
  6  4  1  0
  1 10  1  0
  3 11  1  0
  4 12  1  0
  6 13  1  0
  8 14  1  0
  8 15  1  0
  8 16  1  0
  9 17  1  0
  9 18  1  0
  9 19  1  0
M  END
