
     RDKit          3D

 19 19  0  0  0  0  0  0  0  0999 V2000
    2.0503   -1.8922    0.3713 C   0  0  0  0  0  0  0  0  0  0  0  0
    1.5695   -0.9959   -0.2538 C   0  0  0  0  0  0  0  0  0  0  0  0
    0.9671    0.0838   -1.0315 C   0  0  0  0  0  0  0  0  0  0  0  0
    1.8639    0.6786   -1.9209 O   0  0  0  0  0  0  0  0  0  0  0  0
   -0.4192   -0.1356   -1.5426 C   0  0  0  0  0  0  0  0  0  0  0  0
   -0.0961    0.9123   -0.4867 C   0  0  0  0  0  0  0  0  0  0  0  0
   -0.7863    0.7487    0.7975 C   0  0  0  0  0  0  0  0  0  0  0  0
   -1.5124   -0.5509    0.9928 C   0  0  0  0  0  0  0  0  0  0  0  0
    0.1573    0.8466    1.8379 O   0  0  0  0  0  0  0  0  0  0  0  0
    2.4980   -2.6908    0.9432 H   0  0  0  0  0  0  0  0  0  0  0  0
    2.3927    1.3893   -1.5016 H   0  0  0  0  0  0  0  0  0  0  0  0
   -0.6336    0.1870   -2.5769 H   0  0  0  0  0  0  0  0  0  0  0  0
   -0.9995   -1.0267   -1.2390 H   0  0  0  0  0  0  0  0  0  0  0  0
   -0.1613    1.9577   -0.8984 H   0  0  0  0  0  0  0  0  0  0  0  0
   -1.5425    1.5494    0.9265 H   0  0  0  0  0  0  0  0  0  0  0  0
   -0.8968   -1.4326    0.7574 H   0  0  0  0  0  0  0  0  0  0  0  0
   -2.3749   -0.5548    0.2927 H   0  0  0  0  0  0  0  0  0  0  0  0
   -1.9410   -0.5673    2.0070 H   0  0  0  0  0  0  0  0  0  0  0  0
   -0.1351    1.4937    2.5251 H   0  0  0  0  0  0  0  0  0  0  0  0
  1  2  3  0
  2  3  1  0
  3  4  1  0
  3  5  1  0
  5  6  1  0
  6  7  1  0
  7  8  1  0
  7  9  1  0
  6  3  1  0
  1 10  1  0
  4 11  1  0
  5 12  1  0
  5 13  1  0
  6 14  1  0
  7 15  1  0
  8 16  1  0
  8 17  1  0
  8 18  1  0
  9 19  1  0
M  END
