
     RDKit          3D

 12 11  0  0  0  0  0  0  0  0999 V2000
    2.7943    0.7284    0.3119 C   0  0  0  0  0  0  0  0  0  0  0  0
    1.4572    0.5707   -0.0537 C   0  0  0  0  0  0  0  0  0  0  0  0
    0.2248    0.4337   -0.3684 C   0  0  0  0  0  0  0  0  0  0  0  0
   -0.5635   -0.4018    0.7131 C   0  0  0  0  0  0  0  0  0  0  0  0
   -1.8960   -0.6841    0.2319 C   0  0  0  0  0  0  0  0  0  0  0  0
   -2.1017   -1.3241   -0.7661 O   0  0  0  0  0  0  0  0  0  0  0  0
    3.7685    0.8553    0.5690 H   0  0  0  0  0  0  0  0  0  0  0  0
    0.0875   -0.2747   -1.3107 H   0  0  0  0  0  0  0  0  0  0  0  0
   -0.3984    1.3189   -0.6481 H   0  0  0  0  0  0  0  0  0  0  0  0
   -0.6361    0.3044    1.5771 H   0  0  0  0  0  0  0  0  0  0  0  0
    0.0694   -1.2369    0.9889 H   0  0  0  0  0  0  0  0  0  0  0  0
   -2.8061   -0.2899    0.8052 H   0  0  0  0  0  0  0  0  0  0  0  0
  1  2  3  0
  2  3  1  0
  3  4  1  0
  4  5  1  0
  5  6  2  0
  1  7  1  0
  3  8  1  0
  3  9  1  0
  4 10  1  0
  4 11  1  0
  5 12  1  0
M  END
