
     RDKit          3D

 18 18  0  0  0  0  0  0  0  0999 V2000
    2.7635    1.3259    0.6559 C   0  0  0  0  0  0  0  0  0  0  0  0
    1.8364    0.7325    0.1719 C   0  0  0  0  0  0  0  0  0  0  0  0
    0.6860    0.0084   -0.4443 C   0  0  0  0  0  0  0  0  0  0  0  0
   -0.6545    0.3971    0.0767 C   0  0  0  0  0  0  0  0  0  0  0  0
   -1.7660   -0.3682   -0.6024 C   0  0  0  0  0  0  0  0  0  0  0  0
   -0.7903    0.1387    1.5555 C   0  0  0  0  0  0  0  0  0  0  0  0
    0.9904   -1.0603   -1.3502 C   0  0  0  0  0  0  0  0  0  0  0  0
    0.7016    0.1812   -1.9124 O   0  0  0  0  0  0  0  0  0  0  0  0
    3.5721    1.8592    1.0679 H   0  0  0  0  0  0  0  0  0  0  0  0
   -0.8492    1.4840   -0.0612 H   0  0  0  0  0  0  0  0  0  0  0  0
   -2.6179    0.3308   -0.7959 H   0  0  0  0  0  0  0  0  0  0  0  0
   -2.1528   -1.1766    0.0601 H   0  0  0  0  0  0  0  0  0  0  0  0
   -1.4314   -0.7864   -1.5900 H   0  0  0  0  0  0  0  0  0  0  0  0
   -0.4263    0.9826    2.1802 H   0  0  0  0  0  0  0  0  0  0  0  0
   -0.3081   -0.8187    1.8525 H   0  0  0  0  0  0  0  0  0  0  0  0
   -1.8808    0.0415    1.7724 H   0  0  0  0  0  0  0  0  0  0  0  0
    2.0655   -1.4064   -1.3666 H   0  0  0  0  0  0  0  0  0  0  0  0
    0.2618   -1.8653   -1.5422 H   0  0  0  0  0  0  0  0  0  0  0  0
  1  2  3  0
  2  3  1  0
  3  4  1  0
  4  5  1  0
  4  6  1  0
  3  7  1  0
  7  8  1  0
  8  3  1  0
  1  9  1  0
  4 10  1  0
  5 11  1  0
  5 12  1  0
  5 13  1  0
  6 14  1  0
  6 15  1  0
  6 16  1  0
  7 17  1  0
  7 18  1  0
M  END
