
     RDKit          3D

 21 21  0  0  0  0  0  0  0  0999 V2000
   -1.2508    1.6867   -2.0977 C   0  0  0  0  0  0  0  0  0  0  0  0
   -1.0417    0.9122   -1.1929 C   0  0  0  0  0  0  0  0  0  0  0  0
   -0.7747   -0.0502   -0.1037 C   0  0  0  0  0  0  0  0  0  0  0  0
   -1.9985   -0.0798    0.7881 C   0  0  0  0  0  0  0  0  0  0  0  0
   -0.4553   -1.4141   -0.6642 C   0  0  0  0  0  0  0  0  0  0  0  0
    0.4423    0.4171    0.6693 C   0  0  0  0  0  0  0  0  0  0  0  0
    1.6443    0.4950   -0.2288 C   0  0  0  0  0  0  0  0  0  0  0  0
    2.2998   -0.2937    0.8722 C   0  0  0  0  0  0  0  0  0  0  0  0
    1.0585   -0.5604    1.4283 O   0  0  0  0  0  0  0  0  0  0  0  0
   -1.4464    2.3674   -2.8862 H   0  0  0  0  0  0  0  0  0  0  0  0
   -2.7251   -0.8489    0.4812 H   0  0  0  0  0  0  0  0  0  0  0  0
   -2.5227    0.9073    0.7074 H   0  0  0  0  0  0  0  0  0  0  0  0
   -1.7132   -0.1622    1.8659 H   0  0  0  0  0  0  0  0  0  0  0  0
   -1.3678   -2.0416   -0.7828 H   0  0  0  0  0  0  0  0  0  0  0  0
    0.2196   -1.9375    0.0553 H   0  0  0  0  0  0  0  0  0  0  0  0
    0.0209   -1.2470   -1.6519 H   0  0  0  0  0  0  0  0  0  0  0  0
    0.1891    1.3537    1.2030 H   0  0  0  0  0  0  0  0  0  0  0  0
    2.0542    1.5142   -0.3877 H   0  0  0  0  0  0  0  0  0  0  0  0
    1.6178   -0.0798   -1.1537 H   0  0  0  0  0  0  0  0  0  0  0  0
    2.9578    0.2789    1.5503 H   0  0  0  0  0  0  0  0  0  0  0  0
    2.7919   -1.2174    0.5289 H   0  0  0  0  0  0  0  0  0  0  0  0
  1  2  3  0
  2  3  1  0
  3  4  1  0
  3  5  1  0
  3  6  1  0
  6  7  1  0
  7  8  1  0
  8  9  1  0
  9  6  1  0
  1 10  1  0
  4 11  1  0
  4 12  1  0
  4 13  1  0
  5 14  1  0
  5 15  1  0
  5 16  1  0
  6 17  1  0
  7 18  1  0
  7 19  1  0
  8 20  1  0
  8 21  1  0
M  END
