
     RDKit          3D

 14 13  0  0  0  0  0  0  0  0999 V2000
    2.4376   -1.1104   -0.3417 C   0  0  0  0  0  0  0  0  0  0  0  0
    1.6131   -0.2872   -0.6154 C   0  0  0  0  0  0  0  0  0  0  0  0
    0.6119    0.7373   -0.9502 C   0  0  0  0  0  0  0  0  0  0  0  0
    0.1024    1.2692    0.2132 O   0  0  0  0  0  0  0  0  0  0  0  0
   -0.5136    0.3620    1.0368 C   0  0  0  0  0  0  0  0  0  0  0  0
   -1.6649   -0.2581    0.2759 C   0  0  0  0  0  0  0  0  0  0  0  0
    3.1555   -1.8476   -0.0884 H   0  0  0  0  0  0  0  0  0  0  0  0
   -0.1740    0.3039   -1.5970 H   0  0  0  0  0  0  0  0  0  0  0  0
    1.0918    1.5785   -1.5095 H   0  0  0  0  0  0  0  0  0  0  0  0
    0.1680   -0.4072    1.4538 H   0  0  0  0  0  0  0  0  0  0  0  0
   -0.9544    0.9217    1.8877 H   0  0  0  0  0  0  0  0  0  0  0  0
   -1.9593    0.3962   -0.5881 H   0  0  0  0  0  0  0  0  0  0  0  0
   -2.5225   -0.4008    0.9517 H   0  0  0  0  0  0  0  0  0  0  0  0
   -1.3915   -1.2574   -0.1287 H   0  0  0  0  0  0  0  0  0  0  0  0
  1  2  3  0
  2  3  1  0
  3  4  1  0
  4  5  1  0
  5  6  1  0
  1  7  1  0
  3  8  1  0
  3  9  1  0
  5 10  1  0
  5 11  1  0
  6 12  1  0
  6 13  1  0
  6 14  1  0
M  END
