
     RDKit          3D

 16 17  0  0  0  0  0  0  0  0999 V2000
    2.7399   -1.1631   -0.4890 C   0  0  0  0  0  0  0  0  0  0  0  0
    1.6758   -0.6080   -0.7275 C   0  0  0  0  0  0  0  0  0  0  0  0
    0.3928    0.0329   -1.0082 C   0  0  0  0  0  0  0  0  0  0  0  0
    0.3293    1.4855   -0.5207 C   0  0  0  0  0  0  0  0  0  0  0  0
   -0.6133    1.0546    0.5989 C   0  0  0  0  0  0  0  0  0  0  0  0
   -0.6613   -0.2979   -0.0160 C   0  0  0  0  0  0  0  0  0  0  0  0
   -1.7187   -1.1442   -0.2369 C   0  0  0  0  0  0  0  0  0  0  0  0
   -0.6607   -1.4482    0.7173 O   0  0  0  0  0  0  0  0  0  0  0  0
    3.6699   -1.6279   -0.2832 H   0  0  0  0  0  0  0  0  0  0  0  0
    0.0259   -0.1010   -2.0530 H   0  0  0  0  0  0  0  0  0  0  0  0
   -0.1829    2.0984   -1.2653 H   0  0  0  0  0  0  0  0  0  0  0  0
    1.2799    1.8728   -0.1342 H   0  0  0  0  0  0  0  0  0  0  0  0
   -1.6120    1.5636    0.5157 H   0  0  0  0  0  0  0  0  0  0  0  0
   -0.1917    1.1437    1.6128 H   0  0  0  0  0  0  0  0  0  0  0  0
   -1.7482   -1.8486   -1.1156 H   0  0  0  0  0  0  0  0  0  0  0  0
   -2.7248   -1.0125    0.2150 H   0  0  0  0  0  0  0  0  0  0  0  0
  1  2  3  0
  2  3  1  0
  3  4  1  0
  4  5  1  0
  5  6  1  0
  6  7  1  0
  7  8  1  0
  6  3  1  0
  8  6  1  0
  1  9  1  0
  3 10  1  0
  4 11  1  0
  4 12  1  0
  5 13  1  0
  5 14  1  0
  7 15  1  0
  7 16  1  0
M  END
