
     RDKit          3D

 19 19  0  0  0  0  0  0  0  0999 V2000
    3.3023    2.3203    0.6783 C   0  0  0  0  0  0  0  0  0  0  0  0
    2.4396    1.4519    0.6024 C   0  0  0  0  0  0  0  0  0  0  0  0
    1.4254    0.4550    0.5323 C   0  0  0  0  0  0  0  0  0  0  0  0
    1.7706   -0.7000    0.7864 O   0  0  0  0  0  0  0  0  0  0  0  0
    0.0519    0.9081    0.1413 C   0  0  0  0  0  0  0  0  0  0  0  0
   -0.2597    0.5212   -1.3795 C   0  0  0  0  0  0  0  0  0  0  0  0
   -1.0843    0.0973   -0.1910 C   0  0  0  0  0  0  0  0  0  0  0  0
   -1.2762   -1.3410    0.0857 C   0  0  0  0  0  0  0  0  0  0  0  0
   -1.3118   -1.7465    1.5221 C   0  0  0  0  0  0  0  0  0  0  0  0
    4.0950    3.1194    0.7679 H   0  0  0  0  0  0  0  0  0  0  0  0
   -0.0487    2.0419    0.1855 H   0  0  0  0  0  0  0  0  0  0  0  0
   -0.6650    1.3682   -1.9879 H   0  0  0  0  0  0  0  0  0  0  0  0
    0.4786   -0.1063   -1.8584 H   0  0  0  0  0  0  0  0  0  0  0  0
   -2.1002    0.6565   -0.1086 H   0  0  0  0  0  0  0  0  0  0  0  0
   -2.2609   -1.6872   -0.3559 H   0  0  0  0  0  0  0  0  0  0  0  0
   -0.4921   -1.9285   -0.4624 H   0  0  0  0  0  0  0  0  0  0  0  0
   -0.3248   -1.7727    2.0227 H   0  0  0  0  0  0  0  0  0  0  0  0
   -1.8983   -0.9449    2.0606 H   0  0  0  0  0  0  0  0  0  0  0  0
   -1.8414   -2.7126    1.6848 H   0  0  0  0  0  0  0  0  0  0  0  0
  1  2  3  0
  2  3  1  0
  3  4  2  0
  3  5  1  0
  5  6  1  0
  6  7  1  0
  7  8  1  0
  8  9  1  0
  7  5  1  0
  1 10  1  0
  5 11  1  0
  6 12  1  0
  6 13  1  0
  7 14  1  0
  8 15  1  0
  8 16  1  0
  9 17  1  0
  9 18  1  0
  9 19  1  0
M  END
