
     RDKit          3D

 21 20  0  0  0  0  0  0  0  0999 V2000
    3.4586   -0.0194    0.9965 C   0  0  0  0  0  0  0  0  0  0  0  0
    2.4224   -0.5307    0.6376 C   0  0  0  0  0  0  0  0  0  0  0  0
    1.1437   -1.1324    0.1967 C   0  0  0  0  0  0  0  0  0  0  0  0
   -0.1677   -0.6574    0.3540 C   0  0  0  0  0  0  0  0  0  0  0  0
   -0.8325   -1.9481    0.0342 O   0  0  0  0  0  0  0  0  0  0  0  0
   -0.5621    0.4136   -0.6154 C   0  0  0  0  0  0  0  0  0  0  0  0
   -0.9041    1.6681    0.0501 C   0  0  0  0  0  0  0  0  0  0  0  0
   -1.9078   -0.0757   -1.3613 C   0  0  0  0  0  0  0  0  0  0  0  0
    0.3497    0.3813   -1.6516 O   0  0  0  0  0  0  0  0  0  0  0  0
    4.4898    0.4861    1.3636 H   0  0  0  0  0  0  0  0  0  0  0  0
    1.3364   -1.0852   -1.0342 H   0  0  0  0  0  0  0  0  0  0  0  0
    1.2635   -2.2655    0.2846 H   0  0  0  0  0  0  0  0  0  0  0  0
   -0.4591   -0.3399    1.3606 H   0  0  0  0  0  0  0  0  0  0  0  0
   -0.9334   -1.9449   -1.0155 H   0  0  0  0  0  0  0  0  0  0  0  0
   -1.9321    1.7324    0.4805 H   0  0  0  0  0  0  0  0  0  0  0  0
   -0.9341    2.5199   -0.6954 H   0  0  0  0  0  0  0  0  0  0  0  0
   -0.1974    1.9238    0.9052 H   0  0  0  0  0  0  0  0  0  0  0  0
   -1.7515    0.0276   -2.4500 H   0  0  0  0  0  0  0  0  0  0  0  0
   -2.3948   -0.8859   -0.9365 H   0  0  0  0  0  0  0  0  0  0  0  0
   -2.6813    0.8156   -1.2034 H   0  0  0  0  0  0  0  0  0  0  0  0
    1.1937    0.9170   -1.1648 H   0  0  0  0  0  0  0  0  0  0  0  0
  1  2  3  0
  2  3  1  0
  3  4  1  0
  4  5  1  0
  4  6  1  0
  6  7  1  0
  6  8  1  0
  6  9  1  0
  1 10  1  0
  3 11  1  0
  3 12  1  0
  4 13  1  0
  5 14  1  0
  7 15  1  0
  7 16  1  0
  7 17  1  0
  8 18  1  0
  8 19  1  0
  8 20  1  0
  9 21  1  0
M  END
