
     RDKit          3D

 20 20  0  0  0  0  0  0  0  0999 V2000
   -0.6721    2.4715    0.1725 C   0  0  0  0  0  0  0  0  0  0  0  0
   -0.5850    1.4007    0.4220 C   0  0  0  0  0  0  0  0  0  0  0  0
   -0.4833   -0.1491    0.7724 C   0  0  0  0  0  0  0  0  0  0  0  0
   -1.6135   -0.6478   -0.1609 C   0  0  0  0  0  0  0  0  0  0  0  0
   -1.3464   -0.4054   -1.6183 C   0  0  0  0  0  0  0  0  0  0  0  0
    0.7762   -0.8047    0.5381 C   0  0  0  0  0  0  0  0  0  0  0  0
    2.1150   -0.6708    1.2591 C   0  0  0  0  0  0  0  0  0  0  0  0
    1.9628    0.0483    0.0014 C   0  0  0  0  0  0  0  0  0  0  0  0
   -0.7651    3.6441   -0.1217 H   0  0  0  0  0  0  0  0  0  0  0  0
   -0.8358   -0.2452    1.7971 H   0  0  0  0  0  0  0  0  0  0  0  0
   -2.4020    0.2914    0.0712 H   0  0  0  0  0  0  0  0  0  0  0  0
   -2.1299   -1.4687    0.1168 H   0  0  0  0  0  0  0  0  0  0  0  0
   -0.3205   -0.0966   -1.7363 H   0  0  0  0  0  0  0  0  0  0  0  0
   -2.0190    0.5017   -1.9518 H   0  0  0  0  0  0  0  0  0  0  0  0
   -1.5608   -1.1961   -2.3199 H   0  0  0  0  0  0  0  0  0  0  0  0
    0.6924   -1.7887   -0.1018 H   0  0  0  0  0  0  0  0  0  0  0  0
    2.7509   -1.6151    1.3676 H   0  0  0  0  0  0  0  0  0  0  0  0
    2.1785   -0.1315    2.2753 H   0  0  0  0  0  0  0  0  0  0  0  0
    1.7773    1.1533    0.0956 H   0  0  0  0  0  0  0  0  0  0  0  0
    2.4801   -0.2915   -0.8786 H   0  0  0  0  0  0  0  0  0  0  0  0
  1  2  3  0
  2  3  1  0
  3  4  1  0
  4  5  1  0
  3  6  1  0
  6  7  1  0
  7  8  1  0
  8  6  1  0
  1  9  1  0
  3 10  1  0
  4 11  1  0
  4 12  1  0
  5 13  1  0
  5 14  1  0
  5 15  1  0
  6 16  1  0
  7 17  1  0
  7 18  1  0
  8 19  1  0
  8 20  1  0
M  END
