
     RDKit          3D

 15 15  0  0  0  0  0  0  0  0999 V2000
    1.9091   -2.1165   -0.4716 C   0  0  0  0  0  0  0  0  0  0  0  0
    1.2638   -1.2158   -0.1967 C   0  0  0  0  0  0  0  0  0  0  0  0
    0.3200    0.0616    0.2150 C   0  0  0  0  0  0  0  0  0  0  0  0
    1.0938    0.6680    1.0358 C   0  0  0  0  0  0  0  0  0  0  0  0
    1.7485    1.1908    1.7563 C   0  0  0  0  0  0  0  0  0  0  0  0
    0.0856    0.5790   -1.0928 O   0  0  0  0  0  0  0  0  0  0  0  0
   -1.2631    0.2575   -1.3825 C   0  0  0  0  0  0  0  0  0  0  0  0
   -1.8009    0.4279    0.0690 C   0  0  0  0  0  0  0  0  0  0  0  0
   -0.8643   -0.4327    0.6855 O   0  0  0  0  0  0  0  0  0  0  0  0
    2.5474   -3.0320   -0.7363 H   0  0  0  0  0  0  0  0  0  0  0  0
    2.5573    1.8065    2.6327 H   0  0  0  0  0  0  0  0  0  0  0  0
   -1.3910   -0.7845   -1.6530 H   0  0  0  0  0  0  0  0  0  0  0  0
   -1.7346    1.0014   -2.0336 H   0  0  0  0  0  0  0  0  0  0  0  0
   -2.8243    0.0901    0.1721 H   0  0  0  0  0  0  0  0  0  0  0  0
   -1.6472    1.4987    0.2576 H   0  0  0  0  0  0  0  0  0  0  0  0
  1  2  3  0
  2  3  1  0
  3  4  1  0
  4  5  3  0
  3  6  1  0
  6  7  1  0
  7  8  1  0
  8  9  1  0
  9  3  1  0
  1 10  1  0
  5 11  1  0
  7 12  1  0
  7 13  1  0
  8 14  1  0
  8 15  1  0
M  END
