
     RDKit          3D

 17 17  0  0  0  0  0  0  0  0999 V2000
   -3.2634    1.0564    0.4513 C   0  0  0  0  0  0  0  0  0  0  0  0
   -2.2893    0.4714    0.0098 C   0  0  0  0  0  0  0  0  0  0  0  0
   -1.1116   -0.2492   -0.5019 C   0  0  0  0  0  0  0  0  0  0  0  0
   -1.2391   -0.3578   -1.9722 C   0  0  0  0  0  0  0  0  0  0  0  0
   -0.3633    0.1006   -2.6760 O   0  0  0  0  0  0  0  0  0  0  0  0
    0.0574    0.3961   -0.1952 O   0  0  0  0  0  0  0  0  0  0  0  0
    0.9388   -0.3176    0.5706 C   0  0  0  0  0  0  0  0  0  0  0  0
    2.3951   -0.1878    0.1634 C   0  0  0  0  0  0  0  0  0  0  0  0
    1.9195    0.3438    1.4662 C   0  0  0  0  0  0  0  0  0  0  0  0
   -4.1140    1.5584    0.8209 H   0  0  0  0  0  0  0  0  0  0  0  0
   -1.1777   -1.2759   -0.0782 H   0  0  0  0  0  0  0  0  0  0  0  0
   -2.0761   -0.8267   -2.4504 H   0  0  0  0  0  0  0  0  0  0  0  0
    0.5867   -1.3494    0.8512 H   0  0  0  0  0  0  0  0  0  0  0  0
    2.6687    0.5686   -0.6012 H   0  0  0  0  0  0  0  0  0  0  0  0
    3.0205   -1.0996    0.1140 H   0  0  0  0  0  0  0  0  0  0  0  0
    1.8262    1.4188    1.6586 H   0  0  0  0  0  0  0  0  0  0  0  0
    2.2214   -0.2500    2.3691 H   0  0  0  0  0  0  0  0  0  0  0  0
  1  2  3  0
  2  3  1  0
  3  4  1  0
  4  5  2  0
  3  6  1  0
  6  7  1  0
  7  8  1  0
  8  9  1  0
  9  7  1  0
  1 10  1  0
  3 11  1  0
  4 12  1  0
  7 13  1  0
  8 14  1  0
  8 15  1  0
  9 16  1  0
  9 17  1  0
M  END
