
     RDKit          3D

 21 21  0  0  0  0  0  0  0  0999 V2000
    4.0179   -0.5566    0.7901 C   0  0  0  0  0  0  0  0  0  0  0  0
    2.8800   -0.1516    0.7838 C   0  0  0  0  0  0  0  0  0  0  0  0
    1.4826    0.3376    0.7982 C   0  0  0  0  0  0  0  0  0  0  0  0
    1.3003    1.6384   -0.0147 C   0  0  0  0  0  0  0  0  0  0  0  0
    0.6815    0.3233   -0.4279 C   0  0  0  0  0  0  0  0  0  0  0  0
   -0.8208    0.2884   -0.3204 C   0  0  0  0  0  0  0  0  0  0  0  0
   -1.3272   -0.9399    0.4149 C   0  0  0  0  0  0  0  0  0  0  0  0
   -2.8532   -0.8149    0.4312 C   0  0  0  0  0  0  0  0  0  0  0  0
   -0.9193   -0.9512    1.7473 O   0  0  0  0  0  0  0  0  0  0  0  0
    5.0266   -0.9023    0.7894 H   0  0  0  0  0  0  0  0  0  0  0  0
    1.0425    0.3112    1.8036 H   0  0  0  0  0  0  0  0  0  0  0  0
    2.1659    2.0281   -0.5639 H   0  0  0  0  0  0  0  0  0  0  0  0
    0.6741    2.4166    0.4449 H   0  0  0  0  0  0  0  0  0  0  0  0
    1.1217   -0.1613   -1.3399 H   0  0  0  0  0  0  0  0  0  0  0  0
   -1.2976    0.2566   -1.3405 H   0  0  0  0  0  0  0  0  0  0  0  0
   -1.2108    1.2112    0.1476 H   0  0  0  0  0  0  0  0  0  0  0  0
   -0.9830   -1.8444   -0.0801 H   0  0  0  0  0  0  0  0  0  0  0  0
   -3.1531    0.2476    0.3225 H   0  0  0  0  0  0  0  0  0  0  0  0
   -3.2104   -1.4047   -0.4303 H   0  0  0  0  0  0  0  0  0  0  0  0
   -3.2758   -1.1528    1.4018 H   0  0  0  0  0  0  0  0  0  0  0  0
   -1.3418   -0.1793    2.2307 H   0  0  0  0  0  0  0  0  0  0  0  0
  1  2  3  0
  2  3  1  0
  3  4  1  0
  4  5  1  0
  5  6  1  0
  6  7  1  0
  7  8  1  0
  7  9  1  0
  5  3  1  0
  1 10  1  0
  3 11  1  0
  4 12  1  0
  4 13  1  0
  5 14  1  0
  6 15  1  0
  6 16  1  0
  7 17  1  0
  8 18  1  0
  8 19  1  0
  8 20  1  0
  9 21  1  0
M  END
