
     RDKit          3D

 23 22  0  0  0  0  0  0  0  0999 V2000
   -2.5624    2.1043   -0.6229 C   0  0  0  0  0  0  0  0  0  0  0  0
   -1.4892    2.1199   -0.0713 C   0  0  0  0  0  0  0  0  0  0  0  0
   -0.1849    2.1143    0.5915 C   0  0  0  0  0  0  0  0  0  0  0  0
    0.0051    0.9273    1.4755 C   0  0  0  0  0  0  0  0  0  0  0  0
   -0.0762   -0.3909    0.7886 C   0  0  0  0  0  0  0  0  0  0  0  0
    0.1461   -1.4475    1.8793 C   0  0  0  0  0  0  0  0  0  0  0  0
    0.9170   -0.5924   -0.1527 O   0  0  0  0  0  0  0  0  0  0  0  0
    0.4162   -1.0188   -1.3753 C   0  0  0  0  0  0  0  0  0  0  0  0
    1.4904   -1.2398   -2.4029 C   0  0  0  0  0  0  0  0  0  0  0  0
   -3.5144    2.0817   -1.0938 H   0  0  0  0  0  0  0  0  0  0  0  0
   -0.1556    3.0203    1.2312 H   0  0  0  0  0  0  0  0  0  0  0  0
    0.5745    2.2426   -0.1832 H   0  0  0  0  0  0  0  0  0  0  0  0
   -0.8257    0.9525    2.2341 H   0  0  0  0  0  0  0  0  0  0  0  0
    0.9375    0.9609    2.0700 H   0  0  0  0  0  0  0  0  0  0  0  0
   -1.0942   -0.6105    0.3834 H   0  0  0  0  0  0  0  0  0  0  0  0
   -0.4482   -1.1634    2.7908 H   0  0  0  0  0  0  0  0  0  0  0  0
   -0.3142   -2.4086    1.5313 H   0  0  0  0  0  0  0  0  0  0  0  0
    1.2008   -1.6170    2.0800 H   0  0  0  0  0  0  0  0  0  0  0  0
   -0.1433   -1.9460   -1.2490 H   0  0  0  0  0  0  0  0  0  0  0  0
   -0.2213   -0.1709   -1.7599 H   0  0  0  0  0  0  0  0  0  0  0  0
    1.4470   -0.4958   -3.2413 H   0  0  0  0  0  0  0  0  0  0  0  0
    1.3780   -2.2376   -2.9145 H   0  0  0  0  0  0  0  0  0  0  0  0
    2.5171   -1.1847   -1.9891 H   0  0  0  0  0  0  0  0  0  0  0  0
  1  2  3  0
  2  3  1  0
  3  4  1  0
  4  5  1  0
  5  6  1  0
  5  7  1  0
  7  8  1  0
  8  9  1  0
  1 10  1  0
  3 11  1  0
  3 12  1  0
  4 13  1  0
  4 14  1  0
  5 15  1  0
  6 16  1  0
  6 17  1  0
  6 18  1  0
  8 19  1  0
  8 20  1  0
  9 21  1  0
  9 22  1  0
  9 23  1  0
M  END
