
     RDKit          3D

 17 18  0  0  0  0  0  0  0  0999 V2000
    2.8954   -1.3713   -0.3329 C   0  0  0  0  0  0  0  0  0  0  0  0
    1.7711   -1.1892    0.2930 C   0  0  0  0  0  0  0  0  0  0  0  0
    0.5819   -1.0019    0.9755 C   0  0  0  0  0  0  0  0  0  0  0  0
    0.3710    0.4181    1.1473 O   0  0  0  0  0  0  0  0  0  0  0  0
    0.4463    0.7529   -0.2056 C   0  0  0  0  0  0  0  0  0  0  0  0
   -0.8037    0.9810   -0.9615 C   0  0  0  0  0  0  0  0  0  0  0  0
   -2.1338    1.0248   -0.2368 C   0  0  0  0  0  0  0  0  0  0  0  0
   -0.1608   -0.4031   -0.9282 C   0  0  0  0  0  0  0  0  0  0  0  0
   -0.5581   -1.2209    0.1559 O   0  0  0  0  0  0  0  0  0  0  0  0
    3.7984   -1.5340   -0.8390 H   0  0  0  0  0  0  0  0  0  0  0  0
    0.5004   -1.4855    1.9663 H   0  0  0  0  0  0  0  0  0  0  0  0
    1.3652    1.2507   -0.5244 H   0  0  0  0  0  0  0  0  0  0  0  0
   -0.7162    1.5077   -1.9044 H   0  0  0  0  0  0  0  0  0  0  0  0
   -2.1909    0.3544    0.6238 H   0  0  0  0  0  0  0  0  0  0  0  0
   -2.4250    2.0491    0.0808 H   0  0  0  0  0  0  0  0  0  0  0  0
   -2.9368    0.7139   -0.9634 H   0  0  0  0  0  0  0  0  0  0  0  0
    0.1955   -0.8467   -1.8397 H   0  0  0  0  0  0  0  0  0  0  0  0
  1  2  3  0
  2  3  1  0
  3  4  1  0
  4  5  1  0
  5  6  1  0
  6  7  1  0
  6  8  1  0
  8  9  1  0
  9  3  1  0
  8  5  1  0
  1 10  1  0
  3 11  1  0
  5 12  1  0
  6 13  1  0
  7 14  1  0
  7 15  1  0
  7 16  1  0
  8 17  1  0
M  END
