
     RDKit          3D

 15 14  0  0  0  0  0  0  0  0999 V2000
    1.2530   -2.2788    0.2860 C   0  0  0  0  0  0  0  0  0  0  0  0
    0.7483   -1.2271   -0.0925 C   0  0  0  0  0  0  0  0  0  0  0  0
    0.1690    0.0390   -0.5436 C   0  0  0  0  0  0  0  0  0  0  0  0
    1.2523    0.9094   -1.0839 C   0  0  0  0  0  0  0  0  0  0  0  0
   -0.6159    0.6912    0.5335 C   0  0  0  0  0  0  0  0  0  0  0  0
   -1.7826    0.0937    1.1911 C   0  0  0  0  0  0  0  0  0  0  0  0
   -0.2471    1.8048    0.8824 O   0  0  0  0  0  0  0  0  0  0  0  0
    1.6965   -3.1887    0.5961 H   0  0  0  0  0  0  0  0  0  0  0  0
   -0.5612   -0.1577   -1.3829 H   0  0  0  0  0  0  0  0  0  0  0  0
    0.7682    1.7201   -1.6819 H   0  0  0  0  0  0  0  0  0  0  0  0
    1.8882    0.3169   -1.7592 H   0  0  0  0  0  0  0  0  0  0  0  0
    1.7905    1.3690   -0.2402 H   0  0  0  0  0  0  0  0  0  0  0  0
   -1.9615    0.5870    2.1760 H   0  0  0  0  0  0  0  0  0  0  0  0
   -2.6739    0.3280    0.5617 H   0  0  0  0  0  0  0  0  0  0  0  0
   -1.7240   -1.0069    1.2772 H   0  0  0  0  0  0  0  0  0  0  0  0
  1  2  3  0
  2  3  1  0
  3  4  1  0
  3  5  1  0
  5  6  1  0
  5  7  2  0
  1  8  1  0
  3  9  1  0
  4 10  1  0
  4 11  1  0
  4 12  1  0
  6 13  1  0
  6 14  1  0
  6 15  1  0
M  END
