
     RDKit          3D

 16 16  0  0  0  0  0  0  0  0999 V2000
    3.0715    0.5583    0.2414 C   0  0  0  0  0  0  0  0  0  0  0  0
    1.9792    0.0469    0.2472 C   0  0  0  0  0  0  0  0  0  0  0  0
    0.6440   -0.5980    0.2446 C   0  0  0  0  0  0  0  0  0  0  0  0
   -0.1520   -0.1458    1.2562 O   0  0  0  0  0  0  0  0  0  0  0  0
   -1.2536    0.4796    0.7540 C   0  0  0  0  0  0  0  0  0  0  0  0
   -1.0726    0.6493   -0.7351 C   0  0  0  0  0  0  0  0  0  0  0  0
   -0.0539   -0.4185   -1.0610 C   0  0  0  0  0  0  0  0  0  0  0  0
   -0.7954   -1.5890   -1.3357 O   0  0  0  0  0  0  0  0  0  0  0  0
    4.0462    0.9958    0.2441 H   0  0  0  0  0  0  0  0  0  0  0  0
    0.8656   -1.6925    0.3855 H   0  0  0  0  0  0  0  0  0  0  0  0
   -1.3548    1.4759    1.2316 H   0  0  0  0  0  0  0  0  0  0  0  0
   -2.1426   -0.1448    0.9713 H   0  0  0  0  0  0  0  0  0  0  0  0
   -0.7469    1.6570   -1.0122 H   0  0  0  0  0  0  0  0  0  0  0  0
   -2.0568    0.4646   -1.2122 H   0  0  0  0  0  0  0  0  0  0  0  0
    0.5887   -0.1584   -1.9053 H   0  0  0  0  0  0  0  0  0  0  0  0
   -1.5666   -1.5807   -0.7028 H   0  0  0  0  0  0  0  0  0  0  0  0
  1  2  3  0
  2  3  1  0
  3  4  1  0
  4  5  1  0
  5  6  1  0
  6  7  1  0
  7  8  1  0
  7  3  1  0
  1  9  1  0
  3 10  1  0
  5 11  1  0
  5 12  1  0
  6 13  1  0
  6 14  1  0
  7 15  1  0
  8 16  1  0
M  END
