
     RDKit          3D

 17 18  0  0  0  0  0  0  0  0999 V2000
   -0.8047   -2.3495   -1.2222 C   0  0  0  0  0  0  0  0  0  0  0  0
   -0.2700   -1.3349   -0.9298 C   0  0  0  0  0  0  0  0  0  0  0  0
    0.3689   -0.0687   -0.5640 C   0  0  0  0  0  0  0  0  0  0  0  0
    1.3892   -0.1426    0.5109 C   0  0  0  0  0  0  0  0  0  0  0  0
    0.5229    0.0638    1.7774 C   0  0  0  0  0  0  0  0  0  0  0  0
   -0.4885    1.0269    1.2622 C   0  0  0  0  0  0  0  0  0  0  0  0
   -0.6025    0.9822   -0.0697 C   0  0  0  0  0  0  0  0  0  0  0  0
   -0.8545    1.0634   -1.5242 C   0  0  0  0  0  0  0  0  0  0  0  0
    0.5276    0.7301   -1.6548 O   0  0  0  0  0  0  0  0  0  0  0  0
   -1.3031   -3.2599   -1.4781 H   0  0  0  0  0  0  0  0  0  0  0  0
    2.1942    0.5899    0.4451 H   0  0  0  0  0  0  0  0  0  0  0  0
    1.7602   -1.1634    0.5759 H   0  0  0  0  0  0  0  0  0  0  0  0
    0.0949   -0.8614    2.1477 H   0  0  0  0  0  0  0  0  0  0  0  0
    1.1392    0.6229    2.5369 H   0  0  0  0  0  0  0  0  0  0  0  0
   -1.0692    1.6877    1.8813 H   0  0  0  0  0  0  0  0  0  0  0  0
   -1.5557    0.2989   -1.8588 H   0  0  0  0  0  0  0  0  0  0  0  0
   -1.0487    2.1144   -1.8357 H   0  0  0  0  0  0  0  0  0  0  0  0
  1  2  3  0
  2  3  1  0
  3  4  1  0
  4  5  1  0
  5  6  1  0
  6  7  2  0
  7  8  1  0
  8  9  1  0
  7  3  1  0
  9  3  1  0
  1 10  1  0
  4 11  1  0
  4 12  1  0
  5 13  1  0
  5 14  1  0
  6 15  1  0
  8 16  1  0
  8 17  1  0
M  END
