
     RDKit          3D

 17 17  0  0  0  0  0  0  0  0999 V2000
   -0.3951    2.7445   -0.3271 C   0  0  0  0  0  0  0  0  0  0  0  0
   -0.5018    1.5351   -0.4086 C   0  0  0  0  0  0  0  0  0  0  0  0
   -0.6091    0.0788   -0.5209 C   0  0  0  0  0  0  0  0  0  0  0  0
    0.5445   -0.6722    0.0539 C   0  0  0  0  0  0  0  0  0  0  0  0
    0.2706   -2.0239    0.1344 O   0  0  0  0  0  0  0  0  0  0  0  0
    0.9777   -0.1165    1.3945 C   0  0  0  0  0  0  0  0  0  0  0  0
    2.1386   -0.8058    1.7904 O   0  0  0  0  0  0  0  0  0  0  0  0
   -1.9171   -0.5021   -0.7078 C   0  0  0  0  0  0  0  0  0  0  0  0
   -0.9353   -0.3652   -1.8376 O   0  0  0  0  0  0  0  0  0  0  0  0
   -0.2848    3.8039   -0.2613 H   0  0  0  0  0  0  0  0  0  0  0  0
    1.4166   -0.5171   -0.6412 H   0  0  0  0  0  0  0  0  0  0  0  0
   -0.2149   -2.2728   -0.7097 H   0  0  0  0  0  0  0  0  0  0  0  0
    0.2194   -0.2331    2.1774 H   0  0  0  0  0  0  0  0  0  0  0  0
    1.2178    0.9625    1.2970 H   0  0  0  0  0  0  0  0  0  0  0  0
    2.9480   -0.2436    1.7091 H   0  0  0  0  0  0  0  0  0  0  0  0
   -2.7536    0.1891   -0.9696 H   0  0  0  0  0  0  0  0  0  0  0  0
   -2.1215   -1.5616   -0.5678 H   0  0  0  0  0  0  0  0  0  0  0  0
  1  2  3  0
  2  3  1  0
  3  4  1  0
  4  5  1  0
  4  6  1  0
  6  7  1  0
  3  8  1  0
  8  9  1  0
  9  3  1  0
  1 10  1  0
  4 11  1  0
  5 12  1  0
  6 13  1  0
  6 14  1  0
  7 15  1  0
  8 16  1  0
  8 17  1  0
M  END
