
     RDKit          3D

 19 18  0  0  0  0  0  0  0  0999 V2000
   -3.3544    0.8812    1.7827 C   0  0  0  0  0  0  0  0  0  0  0  0
   -2.3869    0.8787    0.9897 C   0  0  0  0  0  0  0  0  0  0  0  0
   -1.2821    0.8644    0.0941 C   0  0  0  0  0  0  0  0  0  0  0  0
   -0.6414   -0.4798   -0.0905 C   0  0  0  0  0  0  0  0  0  0  0  0
   -0.2130   -1.0524    1.2511 C   0  0  0  0  0  0  0  0  0  0  0  0
   -1.2497   -1.2683   -0.9419 O   0  0  0  0  0  0  0  0  0  0  0  0
    0.7738   -0.1322   -0.6871 C   0  0  0  0  0  0  0  0  0  0  0  0
    1.8728    0.1298   -1.1285 C   0  0  0  0  0  0  0  0  0  0  0  0
    3.1543    0.4476   -1.6242 C   0  0  0  0  0  0  0  0  0  0  0  0
   -4.1570    0.8799    2.4553 H   0  0  0  0  0  0  0  0  0  0  0  0
   -0.5154    1.6191    0.4525 H   0  0  0  0  0  0  0  0  0  0  0  0
   -1.5585    1.3068   -0.9223 H   0  0  0  0  0  0  0  0  0  0  0  0
    0.7092   -1.6772    1.0929 H   0  0  0  0  0  0  0  0  0  0  0  0
    0.0729   -0.1890    1.8841 H   0  0  0  0  0  0  0  0  0  0  0  0
   -1.0420   -1.6374    1.6463 H   0  0  0  0  0  0  0  0  0  0  0  0
   -0.8362   -2.1954   -0.9053 H   0  0  0  0  0  0  0  0  0  0  0  0
    3.7209   -0.4706   -1.8957 H   0  0  0  0  0  0  0  0  0  0  0  0
    3.8098    1.0043   -0.8948 H   0  0  0  0  0  0  0  0  0  0  0  0
    3.1229    1.0905   -2.5582 H   0  0  0  0  0  0  0  0  0  0  0  0
  1  2  3  0
  2  3  1  0
  3  4  1  0
  4  5  1  0
  4  6  1  0
  4  7  1  0
  7  8  3  0
  8  9  1  0
  1 10  1  0
  3 11  1  0
  3 12  1  0
  5 13  1  0
  5 14  1  0
  5 15  1  0
  6 16  1  0
  9 17  1  0
  9 18  1  0
  9 19  1  0
M  END
