
     RDKit          3D

 17 17  0  0  0  0  0  0  0  0999 V2000
    3.8779   -0.0946    0.3581 C   0  0  0  0  0  0  0  0  0  0  0  0
    3.0329    0.7766   -0.1115 C   0  0  0  0  0  0  0  0  0  0  0  0
    2.0012    1.8192   -0.6669 C   0  0  0  0  0  0  0  0  0  0  0  0
    0.8098    0.7934   -0.2245 C   0  0  0  0  0  0  0  0  0  0  0  0
   -0.0376    0.0419    0.1066 C   0  0  0  0  0  0  0  0  0  0  0  0
   -1.1831   -1.0109    0.5543 C   0  0  0  0  0  0  0  0  0  0  0  0
   -2.5045   -0.2653    0.6001 C   0  0  0  0  0  0  0  0  0  0  0  0
   -2.1693   -1.2688   -0.4265 C   0  0  0  0  0  0  0  0  0  0  0  0
   -1.9457   -0.7997   -1.7512 O   0  0  0  0  0  0  0  0  0  0  0  0
    4.5905   -0.8034    0.7435 H   0  0  0  0  0  0  0  0  0  0  0  0
    1.8533    2.5044    0.2295 H   0  0  0  0  0  0  0  0  0  0  0  0
    1.9051    1.9596   -1.5863 H   0  0  0  0  0  0  0  0  0  0  0  0
   -0.8876   -1.4152    1.5324 H   0  0  0  0  0  0  0  0  0  0  0  0
   -3.1283   -0.4951    1.5003 H   0  0  0  0  0  0  0  0  0  0  0  0
   -2.4587    0.8144    0.3604 H   0  0  0  0  0  0  0  0  0  0  0  0
   -2.6663   -2.2598   -0.3970 H   0  0  0  0  0  0  0  0  0  0  0  0
   -1.0896   -0.2968   -1.7171 H   0  0  0  0  0  0  0  0  0  0  0  0
  1  2  3  0
  2  3  1  0
  3  4  1  0
  4  5  3  0
  5  6  1  0
  6  7  1  0
  7  8  1  0
  8  9  1  0
  8  6  1  0
  1 10  1  0
  3 11  1  0
  3 12  1  0
  6 13  1  0
  7 14  1  0
  7 15  1  0
  8 16  1  0
  9 17  1  0
M  END
