
     RDKit          3D

 19 20  0  0  0  0  0  0  0  0999 V2000
    0.9453    2.7692    1.4044 C   0  0  0  0  0  0  0  0  0  0  0  0
    0.5528    1.8488   -0.1363 C   0  0  0  0  0  0  0  0  0  0  0  0
    0.3609    1.4051   -0.9008 C   0  0  0  0  0  0  0  0  0  0  0  0
    0.3571   -0.2092   -0.8880 C   0  0  0  0  0  0  0  0  0  0  0  0
    1.3491   -0.8267    0.0111 C   0  0  0  0  0  0  0  0  0  0  0  0
   -0.1511   -1.0136    0.1182 C   0  0  0  0  0  0  0  0  0  0  0  0
   -0.8622   -0.6489    1.3358 C   0  0  0  0  0  0  0  0  0  0  0  0
   -0.8893   -1.6146   -1.0706 C   0  0  0  0  0  0  0  0  0  0  0  0
   -0.0503   -0.8717   -1.9413 O   0  0  0  0  0  0  0  0  0  0  0  0
    1.1234    3.2284    2.1595 H   0  0  0  0  0  0  0  0  0  0  0  0
    0.6167    1.5983   -2.0479 H   0  0  0  0  0  0  0  0  0  0  0  0
   -0.9427    1.4462   -1.2449 H   0  0  0  0  0  0  0  0  0  0  0  0
    1.9513   -1.6998   -0.1417 H   0  0  0  0  0  0  0  0  0  0  0  0
    1.7428   -0.1896    0.8697 H   0  0  0  0  0  0  0  0  0  0  0  0
   -1.9745   -0.5801    1.0515 H   0  0  0  0  0  0  0  0  0  0  0  0
   -0.6632    0.4718    1.5271 H   0  0  0  0  0  0  0  0  0  0  0  0
   -0.7155   -1.1996    2.2483 H   0  0  0  0  0  0  0  0  0  0  0  0
   -0.8371   -2.6829   -1.2354 H   0  0  0  0  0  0  0  0  0  0  0  0
   -1.9136   -1.2311   -1.1188 H   0  0  0  0  0  0  0  0  0  0  0  0
  1  2  3  0
  2  3  1  0
  3  4  1  0
  4  5  1  0
  5  6  1  0
  6  7  1  0
  6  8  1  0
  8  9  1  0
  6  4  1  0
  9  4  1  0
  1 10  1  0
  3 11  1  0
  3 12  1  0
  5 13  1  0
  5 14  1  0
  7 15  1  0
  7 16  1  0
  7 17  1  0
  8 18  1  0
  8 19  1  0
M  END
