
     RDKit          3D

 17 17  0  0  0  0  0  0  0  0999 V2000
   -0.0210    3.0753    0.2750 C   0  0  0  0  0  0  0  0  0  0  0  0
   -0.0512    1.8742    0.3049 C   0  0  0  0  0  0  0  0  0  0  0  0
   -0.1021    0.3802    0.3199 C   0  0  0  0  0  0  0  0  0  0  0  0
    0.2064   -0.2635   -0.8880 C   0  0  0  0  0  0  0  0  0  0  0  0
    0.4816   -0.8333   -1.9691 C   0  0  0  0  0  0  0  0  0  0  0  0
    0.8099   -1.5328   -3.2426 C   0  0  0  0  0  0  0  0  0  0  0  0
    0.5366   -0.2564    1.5682 C   0  0  0  0  0  0  0  0  0  0  0  0
   -0.9269   -0.2240    1.3694 C   0  0  0  0  0  0  0  0  0  0  0  0
   -1.7010    0.4856    2.2684 O   0  0  0  0  0  0  0  0  0  0  0  0
   -0.0023    4.1486    0.2650 H   0  0  0  0  0  0  0  0  0  0  0  0
    0.5652   -0.8632   -4.0919 H   0  0  0  0  0  0  0  0  0  0  0  0
    0.2005   -2.4476   -3.2484 H   0  0  0  0  0  0  0  0  0  0  0  0
    1.8899   -1.7403   -3.3044 H   0  0  0  0  0  0  0  0  0  0  0  0
    1.1084   -1.2132    1.4108 H   0  0  0  0  0  0  0  0  0  0  0  0
    1.0321    0.4306    2.2824 H   0  0  0  0  0  0  0  0  0  0  0  0
   -1.3521   -1.2466    1.1150 H   0  0  0  0  0  0  0  0  0  0  0  0
   -2.6743    0.2262    2.1793 H   0  0  0  0  0  0  0  0  0  0  0  0
  1  2  3  0
  2  3  1  0
  3  4  1  0
  4  5  3  0
  5  6  1  0
  3  7  1  0
  7  8  1  0
  8  9  1  0
  8  3  1  0
  1 10  1  0
  6 11  1  0
  6 12  1  0
  6 13  1  0
  7 14  1  0
  7 15  1  0
  8 16  1  0
  9 17  1  0
M  END
