
     RDKit          3D

 25 24  0  0  0  0  0  0  0  0999 V2000
   -2.6666    2.4273    1.3357 C   0  0  0  0  0  0  0  0  0  0  0  0
   -2.1741    1.8741    0.5739 C   0  0  0  0  0  0  0  0  0  0  0  0
   -1.4787    1.0630   -0.5479 C   0  0  0  0  0  0  0  0  0  0  0  0
   -0.3025    0.3757    0.1665 C   0  0  0  0  0  0  0  0  0  0  0  0
    0.6017    1.4119    0.6783 C   0  0  0  0  0  0  0  0  0  0  0  0
    0.1872   -0.7843   -0.5899 C   0  0  0  0  0  0  0  0  0  0  0  0
   -0.9993   -1.7610   -0.7022 C   0  0  0  0  0  0  0  0  0  0  0  0
    1.3021   -1.5271    0.0337 C   0  0  0  0  0  0  0  0  0  0  0  0
    2.5878   -0.7955    0.2301 C   0  0  0  0  0  0  0  0  0  0  0  0
   -3.1846    3.0239    2.1299 H   0  0  0  0  0  0  0  0  0  0  0  0
   -2.1939    0.3308   -0.9268 H   0  0  0  0  0  0  0  0  0  0  0  0
   -1.1310    1.7778   -1.2830 H   0  0  0  0  0  0  0  0  0  0  0  0
   -0.8018   -0.0781    1.1100 H   0  0  0  0  0  0  0  0  0  0  0  0
   -0.0718    2.2392    1.0906 H   0  0  0  0  0  0  0  0  0  0  0  0
    1.0897    1.9553   -0.1823 H   0  0  0  0  0  0  0  0  0  0  0  0
    1.2857    1.1387    1.4873 H   0  0  0  0  0  0  0  0  0  0  0  0
    0.4699   -0.5251   -1.6470 H   0  0  0  0  0  0  0  0  0  0  0  0
   -1.5873   -1.4711   -1.6128 H   0  0  0  0  0  0  0  0  0  0  0  0
   -0.6876   -2.7990   -0.7239 H   0  0  0  0  0  0  0  0  0  0  0  0
   -1.6719   -1.5926    0.1667 H   0  0  0  0  0  0  0  0  0  0  0  0
    1.0161   -1.9314    1.0705 H   0  0  0  0  0  0  0  0  0  0  0  0
    1.5270   -2.4753   -0.5304 H   0  0  0  0  0  0  0  0  0  0  0  0
    2.6294    0.2128   -0.2575 H   0  0  0  0  0  0  0  0  0  0  0  0
    3.4211   -1.4353   -0.1755 H   0  0  0  0  0  0  0  0  0  0  0  0
    2.8333   -0.6547    1.2941 H   0  0  0  0  0  0  0  0  0  0  0  0
  1  2  3  0
  2  3  1  0
  3  4  1  0
  4  5  1  0
  4  6  1  0
  6  7  1  0
  6  8  1  0
  8  9  1  0
  1 10  1  0
  3 11  1  0
  3 12  1  0
  4 13  1  0
  5 14  1  0
  5 15  1  0
  5 16  1  0
  6 17  1  0
  7 18  1  0
  7 19  1  0
  7 20  1  0
  8 21  1  0
  8 22  1  0
  9 23  1  0
  9 24  1  0
  9 25  1  0
M  END
