
     RDKit          3D

 17 18  0  0  0  0  0  0  0  0999 V2000
    3.2667    1.0536   -0.2197 C   0  0  0  0  0  0  0  0  0  0  0  0
    2.0780    1.0582   -0.3744 C   0  0  0  0  0  0  0  0  0  0  0  0
    0.6481    1.0628   -0.5859 C   0  0  0  0  0  0  0  0  0  0  0  0
    0.1445   -0.0567   -1.3932 C   0  0  0  0  0  0  0  0  0  0  0  0
    0.4132   -0.5402   -2.4793 O   0  0  0  0  0  0  0  0  0  0  0  0
   -0.8477   -0.3982   -0.3676 C   0  0  0  0  0  0  0  0  0  0  0  0
   -1.0908   -1.8355    0.0079 C   0  0  0  0  0  0  0  0  0  0  0  0
   -1.6348    0.6185    0.3486 C   0  0  0  0  0  0  0  0  0  0  0  0
   -0.1773    0.5376    0.5701 C   0  0  0  0  0  0  0  0  0  0  0  0
    4.3339    1.0548   -0.0647 H   0  0  0  0  0  0  0  0  0  0  0  0
    0.2172    2.0578   -0.8878 H   0  0  0  0  0  0  0  0  0  0  0  0
   -1.0119   -2.0189    1.0822 H   0  0  0  0  0  0  0  0  0  0  0  0
   -0.3039   -2.4580   -0.5062 H   0  0  0  0  0  0  0  0  0  0  0  0
   -2.0600   -2.1733   -0.4095 H   0  0  0  0  0  0  0  0  0  0  0  0
   -2.2775    0.2855    1.1591 H   0  0  0  0  0  0  0  0  0  0  0  0
   -1.9837    1.5506   -0.1647 H   0  0  0  0  0  0  0  0  0  0  0  0
    0.2861    0.2014    1.4880 H   0  0  0  0  0  0  0  0  0  0  0  0
  1  2  3  0
  2  3  1  0
  3  4  1  0
  4  5  2  0
  4  6  1  0
  6  7  1  0
  6  8  1  0
  8  9  1  0
  9  3  1  0
  9  6  1  0
  1 10  1  0
  3 11  1  0
  7 12  1  0
  7 13  1  0
  7 14  1  0
  8 15  1  0
  8 16  1  0
  9 17  1  0
M  END
