
     RDKit          3D

 21 21  0  0  0  0  0  0  0  0999 V2000
    3.8345   -0.3539    0.5901 C   0  0  0  0  0  0  0  0  0  0  0  0
    2.7280   -0.5387    0.1474 C   0  0  0  0  0  0  0  0  0  0  0  0
    1.3788   -0.7434   -0.4080 C   0  0  0  0  0  0  0  0  0  0  0  0
    0.6274    0.5660   -0.3745 C   0  0  0  0  0  0  0  0  0  0  0  0
   -0.7630    0.1794    0.0117 C   0  0  0  0  0  0  0  0  0  0  0  0
   -1.7550    0.4359   -1.1214 C   0  0  0  0  0  0  0  0  0  0  0  0
   -1.2760    0.9286    1.2182 C   0  0  0  0  0  0  0  0  0  0  0  0
   -0.6877   -1.2959    0.2143 C   0  0  0  0  0  0  0  0  0  0  0  0
    0.6371   -1.6021    0.4056 O   0  0  0  0  0  0  0  0  0  0  0  0
    4.8229   -0.2059    0.9932 H   0  0  0  0  0  0  0  0  0  0  0  0
    1.4096   -1.1815   -1.4251 H   0  0  0  0  0  0  0  0  0  0  0  0
    0.6084    1.0534   -1.3709 H   0  0  0  0  0  0  0  0  0  0  0  0
    1.0759    1.2788    0.3668 H   0  0  0  0  0  0  0  0  0  0  0  0
   -2.7599    0.5367   -0.6625 H   0  0  0  0  0  0  0  0  0  0  0  0
   -1.5349    1.4348   -1.5750 H   0  0  0  0  0  0  0  0  0  0  0  0
   -1.7082   -0.3734   -1.8761 H   0  0  0  0  0  0  0  0  0  0  0  0
   -0.5740    0.9555    2.0493 H   0  0  0  0  0  0  0  0  0  0  0  0
   -2.2354    0.4593    1.5062 H   0  0  0  0  0  0  0  0  0  0  0  0
   -1.5370    1.9609    0.8634 H   0  0  0  0  0  0  0  0  0  0  0  0
   -1.2511   -1.6386    1.1242 H   0  0  0  0  0  0  0  0  0  0  0  0
   -1.0405   -1.8557   -0.6768 H   0  0  0  0  0  0  0  0  0  0  0  0
  1  2  3  0
  2  3  1  0
  3  4  1  0
  4  5  1  0
  5  6  1  0
  5  7  1  0
  5  8  1  0
  8  9  1  0
  9  3  1  0
  1 10  1  0
  3 11  1  0
  4 12  1  0
  4 13  1  0
  6 14  1  0
  6 15  1  0
  6 16  1  0
  7 17  1  0
  7 18  1  0
  7 19  1  0
  8 20  1  0
  8 21  1  0
M  END
