
     RDKit          3D

 17 18  0  0  0  0  0  0  0  0999 V2000
    2.5659    1.2176   -1.6866 C   0  0  0  0  0  0  0  0  0  0  0  0
    2.1323    0.4097   -1.1914 C   0  0  0  0  0  0  0  0  0  0  0  0
    1.5155   -0.7944   -0.4678 C   0  0  0  0  0  0  0  0  0  0  0  0
    0.1361   -0.3824   -0.1218 C   0  0  0  0  0  0  0  0  0  0  0  0
   -1.0234   -0.8873   -0.5626 C   0  0  0  0  0  0  0  0  0  0  0  0
   -1.9970   -0.0054    0.1823 C   0  0  0  0  0  0  0  0  0  0  0  0
   -1.3959   -0.0529    1.5788 C   0  0  0  0  0  0  0  0  0  0  0  0
   -0.3510    0.6991    0.8150 C   0  0  0  0  0  0  0  0  0  0  0  0
   -1.4148    1.2713    0.1111 O   0  0  0  0  0  0  0  0  0  0  0  0
    3.0875    2.1666   -2.2913 H   0  0  0  0  0  0  0  0  0  0  0  0
    1.4208   -1.5842   -1.2812 H   0  0  0  0  0  0  0  0  0  0  0  0
    2.1887   -1.0389    0.3210 H   0  0  0  0  0  0  0  0  0  0  0  0
   -1.2497   -1.7043   -1.2624 H   0  0  0  0  0  0  0  0  0  0  0  0
   -3.0320   -0.0980    0.0170 H   0  0  0  0  0  0  0  0  0  0  0  0
   -1.0071   -1.0503    1.8654 H   0  0  0  0  0  0  0  0  0  0  0  0
   -1.9336    0.5293    2.3301 H   0  0  0  0  0  0  0  0  0  0  0  0
    0.3578    1.3046    1.3319 H   0  0  0  0  0  0  0  0  0  0  0  0
  1  2  3  0
  2  3  1  0
  3  4  1  0
  4  5  2  0
  5  6  1  0
  6  7  1  0
  7  8  1  0
  8  9  1  0
  8  4  1  0
  9  6  1  0
  1 10  1  0
  3 11  1  0
  3 12  1  0
  5 13  1  0
  6 14  1  0
  7 15  1  0
  7 16  1  0
  8 17  1  0
M  END
