
     RDKit          3D

 19 19  0  0  0  0  0  0  0  0999 V2000
   -3.1819    1.3740    0.1704 C   0  0  0  0  0  0  0  0  0  0  0  0
   -2.4405    0.4231    0.1380 C   0  0  0  0  0  0  0  0  0  0  0  0
   -1.5265   -0.7313    0.0844 C   0  0  0  0  0  0  0  0  0  0  0  0
   -0.1780   -0.2074   -0.4234 C   0  0  0  0  0  0  0  0  0  0  0  0
    0.8455   -1.2888   -0.5243 C   0  0  0  0  0  0  0  0  0  0  0  0
    1.9013   -0.9518    0.3355 O   0  0  0  0  0  0  0  0  0  0  0  0
    2.4300    0.2836    0.0006 C   0  0  0  0  0  0  0  0  0  0  0  0
    1.5295    1.3283    0.1589 O   0  0  0  0  0  0  0  0  0  0  0  0
    0.3056    0.8143    0.5830 C   0  0  0  0  0  0  0  0  0  0  0  0
   -3.8478    2.2167    0.2165 H   0  0  0  0  0  0  0  0  0  0  0  0
   -1.3593   -1.1233    1.0927 H   0  0  0  0  0  0  0  0  0  0  0  0
   -1.8472   -1.4924   -0.6393 H   0  0  0  0  0  0  0  0  0  0  0  0
   -0.4062    0.2721   -1.4020 H   0  0  0  0  0  0  0  0  0  0  0  0
    0.4163   -2.2376   -0.1784 H   0  0  0  0  0  0  0  0  0  0  0  0
    1.2143   -1.3325   -1.5805 H   0  0  0  0  0  0  0  0  0  0  0  0
    3.2688    0.4735    0.7232 H   0  0  0  0  0  0  0  0  0  0  0  0
    2.7921    0.3230   -1.0575 H   0  0  0  0  0  0  0  0  0  0  0  0
    0.5140    0.2497    1.5221 H   0  0  0  0  0  0  0  0  0  0  0  0
   -0.4301    1.6069    0.7800 H   0  0  0  0  0  0  0  0  0  0  0  0
  1  2  3  0
  2  3  1  0
  3  4  1  0
  4  5  1  0
  5  6  1  0
  6  7  1  0
  7  8  1  0
  8  9  1  0
  9  4  1  0
  1 10  1  0
  3 11  1  0
  3 12  1  0
  4 13  1  0
  5 14  1  0
  5 15  1  0
  7 16  1  0
  7 17  1  0
  9 18  1  0
  9 19  1  0
M  END
