
     RDKit          3D

 15 14  0  0  0  0  0  0  0  0999 V2000
    0.9396   -0.5191    2.2093 C   0  0  0  0  0  0  0  0  0  0  0  0
    0.4541   -0.1076    1.2305 C   0  0  0  0  0  0  0  0  0  0  0  0
   -0.1935    0.4447   -0.1300 C   0  0  0  0  0  0  0  0  0  0  0  0
    0.1118    1.8663   -0.2760 C   0  0  0  0  0  0  0  0  0  0  0  0
    0.7103   -0.3344   -1.0872 C   0  0  0  0  0  0  0  0  0  0  0  0
    1.4793   -1.0249   -1.9157 C   0  0  0  0  0  0  0  0  0  0  0  0
   -1.4856    0.0934   -0.1363 O   0  0  0  0  0  0  0  0  0  0  0  0
   -1.8795   -1.2867    0.2045 C   0  0  0  0  0  0  0  0  0  0  0  0
   -0.9592   -2.0147    0.4633 O   0  0  0  0  0  0  0  0  0  0  0  0
    1.3762   -0.8998    3.0706 H   0  0  0  0  0  0  0  0  0  0  0  0
    0.9453    1.9844   -1.0762 H   0  0  0  0  0  0  0  0  0  0  0  0
   -0.8238    2.3089   -0.7843 H   0  0  0  0  0  0  0  0  0  0  0  0
    0.2706    2.4540    0.5956 H   0  0  0  0  0  0  0  0  0  0  0  0
    2.0298   -1.5218   -2.5268 H   0  0  0  0  0  0  0  0  0  0  0  0
   -2.9754   -1.4427    0.1587 H   0  0  0  0  0  0  0  0  0  0  0  0
  1  2  3  0
  2  3  1  0
  3  4  1  0
  3  5  1  0
  5  6  3  0
  3  7  1  0
  7  8  1  0
  8  9  2  0
  1 10  1  0
  4 11  1  0
  4 12  1  0
  4 13  1  0
  6 14  1  0
  8 15  1  0
M  END
