
     RDKit          3D

 18 19  0  0  0  0  0  0  0  0999 V2000
   -0.4006    2.9204    1.1475 C   0  0  0  0  0  0  0  0  0  0  0  0
   -0.0329    1.7138    1.0028 C   0  0  0  0  0  0  0  0  0  0  0  0
    0.4203    0.3051    0.8334 C   0  0  0  0  0  0  0  0  0  0  0  0
   -0.7532   -0.5727    0.8689 C   0  0  0  0  0  0  0  0  0  0  0  0
   -1.1450   -0.8850   -0.5220 C   0  0  0  0  0  0  0  0  0  0  0  0
   -0.0561   -0.3477   -1.4087 C   0  0  0  0  0  0  0  0  0  0  0  0
    1.3109   -1.0620   -1.2356 C   0  0  0  0  0  0  0  0  0  0  0  0
    1.0543    0.1696   -0.5170 C   0  0  0  0  0  0  0  0  0  0  0  0
   -0.7138    3.8883    1.2603 H   0  0  0  0  0  0  0  0  0  0  0  0
    1.1211    0.0636    1.6843 H   0  0  0  0  0  0  0  0  0  0  0  0
   -0.4137   -1.5453    1.3746 H   0  0  0  0  0  0  0  0  0  0  0  0
   -1.5864   -0.1574    1.5112 H   0  0  0  0  0  0  0  0  0  0  0  0
   -1.0645   -2.0180   -0.6579 H   0  0  0  0  0  0  0  0  0  0  0  0
   -2.1615   -0.5447   -0.8302 H   0  0  0  0  0  0  0  0  0  0  0  0
   -0.2614    0.1232   -2.3734 H   0  0  0  0  0  0  0  0  0  0  0  0
    1.9107   -1.0641   -2.1428 H   0  0  0  0  0  0  0  0  0  0  0  0
    1.1829   -2.0712   -0.7810 H   0  0  0  0  0  0  0  0  0  0  0  0
    1.5888    1.0841   -0.8756 H   0  0  0  0  0  0  0  0  0  0  0  0
  1  2  3  0
  2  3  1  0
  3  4  1  0
  4  5  1  0
  5  6  1  0
  6  7  1  0
  7  8  1  0
  8  3  1  0
  8  6  1  0
  1  9  1  0
  3 10  1  0
  4 11  1  0
  4 12  1  0
  5 13  1  0
  5 14  1  0
  6 15  1  0
  7 16  1  0
  7 17  1  0
  8 18  1  0
M  END
