
     RDKit          3D

 15 14  0  0  0  0  0  0  0  0999 V2000
    2.3203    1.3306    0.2193 C   0  0  0  0  0  0  0  0  0  0  0  0
    1.6625    0.3483   -0.1035 C   0  0  0  0  0  0  0  0  0  0  0  0
    0.8717   -0.7907   -0.4742 C   0  0  0  0  0  0  0  0  0  0  0  0
    1.2489   -1.4998   -1.4660 O   0  0  0  0  0  0  0  0  0  0  0  0
   -0.3701   -1.1522    0.2750 C   0  0  0  0  0  0  0  0  0  0  0  0
   -0.9217   -2.2773   -0.2910 O   0  0  0  0  0  0  0  0  0  0  0  0
   -1.2953   -0.0035    0.2002 C   0  0  0  0  0  0  0  0  0  0  0  0
   -0.9767    1.3446    0.7328 C   0  0  0  0  0  0  0  0  0  0  0  0
   -2.3822   -0.1654   -0.3269 O   0  0  0  0  0  0  0  0  0  0  0  0
    2.8809    2.1790    0.5138 H   0  0  0  0  0  0  0  0  0  0  0  0
   -0.0542   -1.3816    1.3096 H   0  0  0  0  0  0  0  0  0  0  0  0
   -0.2453   -3.0023   -0.2887 H   0  0  0  0  0  0  0  0  0  0  0  0
   -0.5700    1.9332   -0.1407 H   0  0  0  0  0  0  0  0  0  0  0  0
   -0.2447    1.3020    1.5688 H   0  0  0  0  0  0  0  0  0  0  0  0
   -1.9241    1.8350    1.0348 H   0  0  0  0  0  0  0  0  0  0  0  0
  1  2  3  0
  2  3  1  0
  3  4  2  0
  3  5  1  0
  5  6  1  0
  5  7  1  0
  7  8  1  0
  7  9  2  0
  1 10  1  0
  5 11  1  0
  6 12  1  0
  8 13  1  0
  8 14  1  0
  8 15  1  0
M  END
