
     RDKit          3D

 19 20  0  0  0  0  0  0  0  0999 V2000
    1.6714    2.7857    0.6476 C   0  0  0  0  0  0  0  0  0  0  0  0
    1.3793    1.6425    0.8952 C   0  0  0  0  0  0  0  0  0  0  0  0
    1.0320    0.2530    1.2056 C   0  0  0  0  0  0  0  0  0  0  0  0
   -0.2725    0.2470    1.9406 O   0  0  0  0  0  0  0  0  0  0  0  0
   -0.0750   -0.3765    0.7419 C   0  0  0  0  0  0  0  0  0  0  0  0
   -0.2473   -1.8747    0.6349 C   0  0  0  0  0  0  0  0  0  0  0  0
   -0.6634   -1.6479   -0.8223 C   0  0  0  0  0  0  0  0  0  0  0  0
   -0.9335   -0.2059   -0.4384 C   0  0  0  0  0  0  0  0  0  0  0  0
   -0.5292    0.8166   -1.4666 C   0  0  0  0  0  0  0  0  0  0  0  0
    1.9363    3.7928    0.4117 H   0  0  0  0  0  0  0  0  0  0  0  0
    1.7961   -0.2470    1.8542 H   0  0  0  0  0  0  0  0  0  0  0  0
   -1.0424   -2.2159    1.2985 H   0  0  0  0  0  0  0  0  0  0  0  0
    0.7351   -2.3713    0.7459 H   0  0  0  0  0  0  0  0  0  0  0  0
    0.1960   -1.7002   -1.5026 H   0  0  0  0  0  0  0  0  0  0  0  0
   -1.5668   -2.2227   -1.1144 H   0  0  0  0  0  0  0  0  0  0  0  0
   -2.0076   -0.0419   -0.1556 H   0  0  0  0  0  0  0  0  0  0  0  0
   -1.3201    0.8897   -2.2381 H   0  0  0  0  0  0  0  0  0  0  0  0
   -0.5548    1.8139   -0.9350 H   0  0  0  0  0  0  0  0  0  0  0  0
    0.4665    0.6627   -1.8816 H   0  0  0  0  0  0  0  0  0  0  0  0
  1  2  3  0
  2  3  1  0
  3  4  1  0
  4  5  1  0
  5  6  1  0
  6  7  1  0
  7  8  1  0
  8  9  1  0
  5  3  1  0
  8  5  1  0
  1 10  1  0
  3 11  1  0
  6 12  1  0
  6 13  1  0
  7 14  1  0
  7 15  1  0
  8 16  1  0
  9 17  1  0
  9 18  1  0
  9 19  1  0
M  END
