
     RDKit          3D

 17 18  0  0  0  0  0  0  0  0999 V2000
    3.6226    0.2481    0.1818 C   0  0  0  0  0  0  0  0  0  0  0  0
    2.4254    0.1633   -0.0301 C   0  0  0  0  0  0  0  0  0  0  0  0
    1.0048    0.0699   -0.2577 C   0  0  0  0  0  0  0  0  0  0  0  0
    0.2400    0.9210   -0.9241 C   0  0  0  0  0  0  0  0  0  0  0  0
   -1.1702    0.4778   -0.9387 C   0  0  0  0  0  0  0  0  0  0  0  0
   -1.9434    0.3448    0.3197 C   0  0  0  0  0  0  0  0  0  0  0  0
   -1.4608    0.8947    1.5085 O   0  0  0  0  0  0  0  0  0  0  0  0
   -1.2039   -0.8151   -0.2311 C   0  0  0  0  0  0  0  0  0  0  0  0
    0.1928   -1.0601    0.2617 C   0  0  0  0  0  0  0  0  0  0  0  0
    4.6648    0.3321    0.3513 H   0  0  0  0  0  0  0  0  0  0  0  0
    0.6243    1.8190   -1.3891 H   0  0  0  0  0  0  0  0  0  0  0  0
   -1.7595    0.6574   -1.8640 H   0  0  0  0  0  0  0  0  0  0  0  0
   -3.0497    0.3995    0.2460 H   0  0  0  0  0  0  0  0  0  0  0  0
   -1.2200    0.2348    2.1796 H   0  0  0  0  0  0  0  0  0  0  0  0
   -1.7462   -1.6378   -0.7452 H   0  0  0  0  0  0  0  0  0  0  0  0
    0.1886   -0.9997    1.3709 H   0  0  0  0  0  0  0  0  0  0  0  0
    0.5905   -2.0498   -0.0393 H   0  0  0  0  0  0  0  0  0  0  0  0
  1  2  3  0
  2  3  1  0
  3  4  2  0
  4  5  1  0
  5  6  1  0
  6  7  1  0
  6  8  1  0
  8  9  1  0
  9  3  1  0
  8  5  1  0
  1 10  1  0
  4 11  1  0
  5 12  1  0
  6 13  1  0
  7 14  1  0
  8 15  1  0
  9 16  1  0
  9 17  1  0
M  END
