
     RDKit          3D

 23 23  0  0  0  0  0  0  0  0999 V2000
    2.3710   -0.3553    1.9587 C   0  0  0  0  0  0  0  0  0  0  0  0
    1.7492   -0.2822    0.9578 C   0  0  0  0  0  0  0  0  0  0  0  0
    0.9202   -0.1732   -0.3327 C   0  0  0  0  0  0  0  0  0  0  0  0
    1.3596   -1.1211   -1.3587 C   0  0  0  0  0  0  0  0  0  0  0  0
    0.2347    1.1335   -0.4802 C   0  0  0  0  0  0  0  0  0  0  0  0
    0.4306    1.7843   -1.8147 C   0  0  0  0  0  0  0  0  0  0  0  0
   -0.5634   -0.0748   -0.2134 C   0  0  0  0  0  0  0  0  0  0  0  0
   -1.1563   -0.4622    1.0975 C   0  0  0  0  0  0  0  0  0  0  0  0
   -2.6596   -0.4220    1.1615 C   0  0  0  0  0  0  0  0  0  0  0  0
    2.8883   -0.4301    2.8145 H   0  0  0  0  0  0  0  0  0  0  0  0
    0.7580   -0.9708   -2.2972 H   0  0  0  0  0  0  0  0  0  0  0  0
    2.4242   -1.0556   -1.5896 H   0  0  0  0  0  0  0  0  0  0  0  0
    1.2038   -2.1789   -0.9744 H   0  0  0  0  0  0  0  0  0  0  0  0
    0.4682    1.8744    0.3756 H   0  0  0  0  0  0  0  0  0  0  0  0
    0.7564    1.0426   -2.5987 H   0  0  0  0  0  0  0  0  0  0  0  0
   -0.4663    2.2908   -2.1993 H   0  0  0  0  0  0  0  0  0  0  0  0
    1.3124    2.4907   -1.7277 H   0  0  0  0  0  0  0  0  0  0  0  0
   -1.1692   -0.4238   -1.0778 H   0  0  0  0  0  0  0  0  0  0  0  0
   -0.8791   -1.4920    1.3865 H   0  0  0  0  0  0  0  0  0  0  0  0
   -0.8219    0.2531    1.9133 H   0  0  0  0  0  0  0  0  0  0  0  0
   -3.1357    0.3372    0.5737 H   0  0  0  0  0  0  0  0  0  0  0  0
   -3.1232   -1.4214    0.9063 H   0  0  0  0  0  0  0  0  0  0  0  0
   -2.9018   -0.3433    2.2690 H   0  0  0  0  0  0  0  0  0  0  0  0
  1  2  3  0
  2  3  1  0
  3  4  1  0
  3  5  1  0
  5  6  1  0
  5  7  1  0
  7  8  1  0
  8  9  1  0
  7  3  1  0
  1 10  1  0
  4 11  1  0
  4 12  1  0
  4 13  1  0
  5 14  1  0
  6 15  1  0
  6 16  1  0
  6 17  1  0
  7 18  1  0
  8 19  1  0
  8 20  1  0
  9 21  1  0
  9 22  1  0
  9 23  1  0
M  END
