
     RDKit          3D

 16 17  0  0  0  0  0  0  0  0999 V2000
    2.4549    0.7277    1.3474 C   0  0  0  0  0  0  0  0  0  0  0  0
    1.5709    0.5099    0.5673 C   0  0  0  0  0  0  0  0  0  0  0  0
    0.5267    0.2525   -0.3867 C   0  0  0  0  0  0  0  0  0  0  0  0
    0.3547   -1.1393   -0.9596 C   0  0  0  0  0  0  0  0  0  0  0  0
   -0.9369   -1.2355   -0.1722 C   0  0  0  0  0  0  0  0  0  0  0  0
   -0.8683    0.2140    0.1993 C   0  0  0  0  0  0  0  0  0  0  0  0
   -1.0890    0.6180    1.4918 O   0  0  0  0  0  0  0  0  0  0  0  0
   -0.4514    1.2497   -0.7875 C   0  0  0  0  0  0  0  0  0  0  0  0
    3.2391    0.9366    2.0571 H   0  0  0  0  0  0  0  0  0  0  0  0
    0.1163   -1.0911   -2.0374 H   0  0  0  0  0  0  0  0  0  0  0  0
    1.1531   -1.8260   -0.6624 H   0  0  0  0  0  0  0  0  0  0  0  0
   -1.8211   -1.5357   -0.7383 H   0  0  0  0  0  0  0  0  0  0  0  0
   -0.7532   -1.8625    0.7315 H   0  0  0  0  0  0  0  0  0  0  0  0
   -2.0721    0.7748    1.5877 H   0  0  0  0  0  0  0  0  0  0  0  0
   -0.9472    1.1252   -1.7958 H   0  0  0  0  0  0  0  0  0  0  0  0
   -0.4766    2.2816   -0.4422 H   0  0  0  0  0  0  0  0  0  0  0  0
  1  2  3  0
  2  3  1  0
  3  4  1  0
  4  5  1  0
  5  6  1  0
  6  7  1  0
  6  8  1  0
  6  3  1  0
  8  3  1  0
  1  9  1  0
  4 10  1  0
  4 11  1  0
  5 12  1  0
  5 13  1  0
  7 14  1  0
  8 15  1  0
  8 16  1  0
M  END
