
     RDKit          3D

 17 19  0  0  0  0  0  0  0  0999 V2000
    2.9000   -1.9591   -0.2236 C   0  0  0  0  0  0  0  0  0  0  0  0
    2.3181   -0.9494    0.1270 C   0  0  0  0  0  0  0  0  0  0  0  0
    1.5922    0.2608    0.5443 C   0  0  0  0  0  0  0  0  0  0  0  0
    0.7377    0.1660    1.6410 O   0  0  0  0  0  0  0  0  0  0  0  0
    0.2240    0.3635    0.3876 C   0  0  0  0  0  0  0  0  0  0  0  0
   -0.5499    1.5837    0.0255 C   0  0  0  0  0  0  0  0  0  0  0  0
   -1.5815    0.6840   -0.6473 C   0  0  0  0  0  0  0  0  0  0  0  0
   -2.1728   -0.4483    0.1472 C   0  0  0  0  0  0  0  0  0  0  0  0
   -0.7452   -0.5652   -0.2433 C   0  0  0  0  0  0  0  0  0  0  0  0
    3.4167   -2.8349   -0.5190 H   0  0  0  0  0  0  0  0  0  0  0  0
    2.2628    1.1544    0.5641 H   0  0  0  0  0  0  0  0  0  0  0  0
   -0.0055    2.1804   -0.7356 H   0  0  0  0  0  0  0  0  0  0  0  0
   -0.9535    2.1634    0.8780 H   0  0  0  0  0  0  0  0  0  0  0  0
   -1.7509    0.7637   -1.7232 H   0  0  0  0  0  0  0  0  0  0  0  0
   -2.9046   -1.0508   -0.3901 H   0  0  0  0  0  0  0  0  0  0  0  0
   -2.3721   -0.2855    1.2213 H   0  0  0  0  0  0  0  0  0  0  0  0
   -0.4155   -1.2267   -1.0539 H   0  0  0  0  0  0  0  0  0  0  0  0
  1  2  3  0
  2  3  1  0
  3  4  1  0
  4  5  1  0
  5  6  1  0
  6  7  1  0
  7  8  1  0
  8  9  1  0
  5  3  1  0
  9  7  1  0
  9  5  1  0
  1 10  1  0
  3 11  1  0
  6 12  1  0
  6 13  1  0
  7 14  1  0
  8 15  1  0
  8 16  1  0
  9 17  1  0
M  END
