
     RDKit          3D

 19 19  0  0  0  0  0  0  0  0999 V2000
    2.6072    1.7343    0.0085 C   0  0  0  0  0  0  0  0  0  0  0  0
    2.0955    0.9032    0.7082 C   0  0  0  0  0  0  0  0  0  0  0  0
    1.4766   -0.0796    1.5681 C   0  0  0  0  0  0  0  0  0  0  0  0
    0.0965   -0.4773    1.0950 C   0  0  0  0  0  0  0  0  0  0  0  0
   -0.8424    0.7050    1.0445 C   0  0  0  0  0  0  0  0  0  0  0  0
   -1.7899    0.2467    0.1005 O   0  0  0  0  0  0  0  0  0  0  0  0
   -0.9120   -0.2335   -0.8910 C   0  0  0  0  0  0  0  0  0  0  0  0
   -1.5925   -1.2021   -1.8087 C   0  0  0  0  0  0  0  0  0  0  0  0
    0.0884   -0.9162   -0.2084 O   0  0  0  0  0  0  0  0  0  0  0  0
    3.0755    2.4670   -0.6018 H   0  0  0  0  0  0  0  0  0  0  0  0
    2.0876   -1.0111    1.5928 H   0  0  0  0  0  0  0  0  0  0  0  0
    1.4034    0.3126    2.5964 H   0  0  0  0  0  0  0  0  0  0  0  0
   -0.3568   -1.2554    1.7215 H   0  0  0  0  0  0  0  0  0  0  0  0
   -0.3198    1.5695    0.5788 H   0  0  0  0  0  0  0  0  0  0  0  0
   -1.3038    0.9471    2.0063 H   0  0  0  0  0  0  0  0  0  0  0  0
   -0.5208    0.6249   -1.4681 H   0  0  0  0  0  0  0  0  0  0  0  0
   -1.4320   -0.8741   -2.8519 H   0  0  0  0  0  0  0  0  0  0  0  0
   -2.6979   -1.2417   -1.6705 H   0  0  0  0  0  0  0  0  0  0  0  0
   -1.1629   -2.2194   -1.7330 H   0  0  0  0  0  0  0  0  0  0  0  0
  1  2  3  0
  2  3  1  0
  3  4  1  0
  4  5  1  0
  5  6  1  0
  6  7  1  0
  7  8  1  0
  7  9  1  0
  9  4  1  0
  1 10  1  0
  3 11  1  0
  3 12  1  0
  4 13  1  0
  5 14  1  0
  5 15  1  0
  7 16  1  0
  8 17  1  0
  8 18  1  0
  8 19  1  0
M  END
