
     RDKit          3D

 13 12  0  0  0  0  0  0  0  0999 V2000
    2.2645    2.1017    0.1395 C   0  0  0  0  0  0  0  0  0  0  0  0
    1.3921    0.7631   -0.2366 C   0  0  0  0  0  0  0  0  0  0  0  0
    0.7928   -0.1257   -0.4987 C   0  0  0  0  0  0  0  0  0  0  0  0
   -0.5174   -0.7177   -1.1666 C   0  0  0  0  0  0  0  0  0  0  0  0
   -0.1899   -2.1253   -0.8280 O   0  0  0  0  0  0  0  0  0  0  0  0
   -1.3799   -0.2217   -0.4461 C   0  0  0  0  0  0  0  0  0  0  0  0
   -2.5114    0.3989    0.4869 C   0  0  0  0  0  0  0  0  0  0  0  0
    2.7655    2.8859    0.3618 H   0  0  0  0  0  0  0  0  0  0  0  0
    1.1736   -1.1640    0.2276 H   0  0  0  0  0  0  0  0  0  0  0  0
   -0.0917    0.0016    0.6662 H   0  0  0  0  0  0  0  0  0  0  0  0
   -0.3103   -0.5677   -2.2493 H   0  0  0  0  0  0  0  0  0  0  0  0
   -0.1744   -1.9995    0.1948 H   0  0  0  0  0  0  0  0  0  0  0  0
   -3.2135    0.7705    1.0471 H   0  0  0  0  0  0  0  0  0  0  0  0
  1  2  3  0
  2  3  1  0
  3  4  1  0
  4  5  1  0
  4  6  1  0
  6  7  3  0
  1  8  1  0
  3  9  1  0
  3 10  1  0
  4 11  1  0
  5 12  1  0
  7 13  1  0
M  END
