
     RDKit          3D

 14 14  0  0  0  0  0  0  0  0999 V2000
    2.2590    1.7227    0.4727 C   0  0  0  0  0  0  0  0  0  0  0  0
    1.6730    0.7414    0.7802 C   0  0  0  0  0  0  0  0  0  0  0  0
    0.9530   -0.5015    1.1493 C   0  0  0  0  0  0  0  0  0  0  0  0
   -0.4359   -0.3272    0.6556 C   0  0  0  0  0  0  0  0  0  0  0  0
   -1.1749    0.3559    1.3341 O   0  0  0  0  0  0  0  0  0  0  0  0
   -0.9096   -0.9430   -0.5911 C   0  0  0  0  0  0  0  0  0  0  0  0
   -1.7198    0.0093   -1.4774 C   0  0  0  0  0  0  0  0  0  0  0  0
   -2.2381   -1.1103   -0.8636 O   0  0  0  0  0  0  0  0  0  0  0  0
    2.7933    2.5901    0.2013 H   0  0  0  0  0  0  0  0  0  0  0  0
    0.9796   -0.5725    2.2629 H   0  0  0  0  0  0  0  0  0  0  0  0
    1.4507   -1.3826    0.7189 H   0  0  0  0  0  0  0  0  0  0  0  0
   -0.1334   -1.5660   -1.1164 H   0  0  0  0  0  0  0  0  0  0  0  0
   -1.4172    0.0165   -2.5216 H   0  0  0  0  0  0  0  0  0  0  0  0
   -2.0797    0.9672   -1.0051 H   0  0  0  0  0  0  0  0  0  0  0  0
  1  2  3  0
  2  3  1  0
  3  4  1  0
  4  5  2  0
  4  6  1  0
  6  7  1  0
  7  8  1  0
  8  6  1  0
  1  9  1  0
  3 10  1  0
  3 11  1  0
  6 12  1  0
  7 13  1  0
  7 14  1  0
M  END
