
     RDKit          3D

 17 17  0  0  0  0  0  0  0  0999 V2000
   -2.8624    0.1639   -1.1146 C   0  0  0  0  0  0  0  0  0  0  0  0
   -1.7223   -0.2735   -0.9623 C   0  0  0  0  0  0  0  0  0  0  0  0
   -0.3600   -0.7691   -0.7773 C   0  0  0  0  0  0  0  0  0  0  0  0
   -0.2760   -1.3159    0.6345 C   0  0  0  0  0  0  0  0  0  0  0  0
    0.0005   -0.2650    1.4489 O   0  0  0  0  0  0  0  0  0  0  0  0
    0.5697    0.7814    0.7374 C   0  0  0  0  0  0  0  0  0  0  0  0
    1.8857    1.0628    1.3136 C   0  0  0  0  0  0  0  0  0  0  0  0
    2.3576    0.3251    2.1465 O   0  0  0  0  0  0  0  0  0  0  0  0
    0.6376    0.3906   -0.7221 C   0  0  0  0  0  0  0  0  0  0  0  0
   -3.8325    0.5491   -1.2451 H   0  0  0  0  0  0  0  0  0  0  0  0
   -0.0671   -1.5195   -1.5247 H   0  0  0  0  0  0  0  0  0  0  0  0
    0.6237   -2.0100    0.6457 H   0  0  0  0  0  0  0  0  0  0  0  0
   -1.1440   -1.8972    0.9478 H   0  0  0  0  0  0  0  0  0  0  0  0
   -0.1090    1.6750    0.8440 H   0  0  0  0  0  0  0  0  0  0  0  0
    2.5052    1.9344    1.0386 H   0  0  0  0  0  0  0  0  0  0  0  0
    1.6033    0.0059   -1.0501 H   0  0  0  0  0  0  0  0  0  0  0  0
    0.1901    1.1620   -1.4060 H   0  0  0  0  0  0  0  0  0  0  0  0
  1  2  3  0
  2  3  1  0
  3  4  1  0
  4  5  1  0
  5  6  1  0
  6  7  1  0
  7  8  2  0
  6  9  1  0
  9  3  1  0
  1 10  1  0
  3 11  1  0
  4 12  1  0
  4 13  1  0
  6 14  1  0
  7 15  1  0
  9 16  1  0
  9 17  1  0
M  END
