
     RDKit          3D

 17 17  0  0  0  0  0  0  0  0999 V2000
    0.6542    2.4067    1.8838 C   0  0  0  0  0  0  0  0  0  0  0  0
    1.0355    1.8219    1.1527 C   0  0  0  0  0  0  0  0  0  0  0  0
    1.6020    0.9214    0.0656 C   0  0  0  0  0  0  0  0  0  0  0  0
    2.4371    1.3551   -0.7259 O   0  0  0  0  0  0  0  0  0  0  0  0
    1.0294   -0.4316    0.1122 C   0  0  0  0  0  0  0  0  0  0  0  0
   -0.2451   -0.6095   -0.6799 C   0  0  0  0  0  0  0  0  0  0  0  0
   -0.8726   -1.9867   -0.6855 C   0  0  0  0  0  0  0  0  0  0  0  0
   -1.2709    0.4924   -0.6510 C   0  0  0  0  0  0  0  0  0  0  0  0
   -0.4837    0.2799   -1.7652 O   0  0  0  0  0  0  0  0  0  0  0  0
    0.1824    3.1020    2.7522 H   0  0  0  0  0  0  0  0  0  0  0  0
    0.8656   -0.6998    1.1954 H   0  0  0  0  0  0  0  0  0  0  0  0
    1.8234   -1.1773   -0.1951 H   0  0  0  0  0  0  0  0  0  0  0  0
   -1.8927   -1.9166   -1.1790 H   0  0  0  0  0  0  0  0  0  0  0  0
   -1.1447   -2.1909    0.4136 H   0  0  0  0  0  0  0  0  0  0  0  0
   -0.2877   -2.8108   -1.0549 H   0  0  0  0  0  0  0  0  0  0  0  0
   -2.3450    0.1845   -0.7327 H   0  0  0  0  0  0  0  0  0  0  0  0
   -1.0870    1.2592    0.0940 H   0  0  0  0  0  0  0  0  0  0  0  0
  1  2  3  0
  2  3  1  0
  3  4  2  0
  3  5  1  0
  5  6  1  0
  6  7  1  0
  6  8  1  0
  8  9  1  0
  9  6  1  0
  1 10  1  0
  5 11  1  0
  5 12  1  0
  7 13  1  0
  7 14  1  0
  7 15  1  0
  8 16  1  0
  8 17  1  0
M  END
