
     RDKit          3D

 19 18  0  0  0  0  0  0  0  0999 V2000
   -3.1529    0.2126   -0.6063 C   0  0  0  0  0  0  0  0  0  0  0  0
   -2.0602   -0.3427   -0.7200 C   0  0  0  0  0  0  0  0  0  0  0  0
   -0.7698   -1.0270   -0.8533 C   0  0  0  0  0  0  0  0  0  0  0  0
   -0.1409   -0.6153   -2.0518 O   0  0  0  0  0  0  0  0  0  0  0  0
    0.1364   -0.6689    0.3101 C   0  0  0  0  0  0  0  0  0  0  0  0
    1.3571   -1.3221    0.1645 O   0  0  0  0  0  0  0  0  0  0  0  0
    0.3550    0.8203    0.3847 C   0  0  0  0  0  0  0  0  0  0  0  0
    1.2465    1.2148    1.5220 C   0  0  0  0  0  0  0  0  0  0  0  0
    0.7148    0.8230    2.7629 O   0  0  0  0  0  0  0  0  0  0  0  0
   -4.0749    0.7011   -0.5052 H   0  0  0  0  0  0  0  0  0  0  0  0
   -0.9451   -2.1090   -0.9264 H   0  0  0  0  0  0  0  0  0  0  0  0
    0.6114   -1.2777   -2.1801 H   0  0  0  0  0  0  0  0  0  0  0  0
   -0.3590   -1.0469    1.2352 H   0  0  0  0  0  0  0  0  0  0  0  0
    1.9214   -1.2043    0.9627 H   0  0  0  0  0  0  0  0  0  0  0  0
   -0.6397    1.2878    0.5668 H   0  0  0  0  0  0  0  0  0  0  0  0
    0.7452    1.2145   -0.5468 H   0  0  0  0  0  0  0  0  0  0  0  0
    1.4042    2.3062    1.5428 H   0  0  0  0  0  0  0  0  0  0  0  0
    2.2679    0.7608    1.3779 H   0  0  0  0  0  0  0  0  0  0  0  0
    1.3825    0.2730    3.2784 H   0  0  0  0  0  0  0  0  0  0  0  0
  1  2  3  0
  2  3  1  0
  3  4  1  0
  3  5  1  0
  5  6  1  0
  5  7  1  0
  7  8  1  0
  8  9  1  0
  1 10  1  0
  3 11  1  0
  4 12  1  0
  5 13  1  0
  6 14  1  0
  7 15  1  0
  7 16  1  0
  8 17  1  0
  8 18  1  0
  9 19  1  0
M  END
