
     RDKit          3D

 19 19  0  0  0  0  0  0  0  0999 V2000
    2.4980   -0.9564   -0.5639 C   0  0  0  0  0  0  0  0  0  0  0  0
    1.5663   -0.2716   -0.2279 C   0  0  0  0  0  0  0  0  0  0  0  0
    0.4449    0.5557    0.1509 C   0  0  0  0  0  0  0  0  0  0  0  0
    0.3726    1.8967   -0.5269 C   0  0  0  0  0  0  0  0  0  0  0  0
    0.2097    0.6556    1.6496 C   0  0  0  0  0  0  0  0  0  0  0  0
   -0.5208   -0.5477    1.5383 O   0  0  0  0  0  0  0  0  0  0  0  0
   -0.8714   -0.1429    0.2619 C   0  0  0  0  0  0  0  0  0  0  0  0
   -1.1438   -1.2358   -0.7225 C   0  0  0  0  0  0  0  0  0  0  0  0
   -2.2081   -1.9942   -0.2160 O   0  0  0  0  0  0  0  0  0  0  0  0
    3.3325   -1.5792   -0.8494 H   0  0  0  0  0  0  0  0  0  0  0  0
   -0.6222    2.0877   -0.9866 H   0  0  0  0  0  0  0  0  0  0  0  0
    0.5285    2.6733    0.2459 H   0  0  0  0  0  0  0  0  0  0  0  0
    1.1996    1.9240   -1.2748 H   0  0  0  0  0  0  0  0  0  0  0  0
   -0.4533    1.4919    1.9231 H   0  0  0  0  0  0  0  0  0  0  0  0
    1.1208    0.5414    2.2653 H   0  0  0  0  0  0  0  0  0  0  0  0
   -1.7025    0.5766    0.3038 H   0  0  0  0  0  0  0  0  0  0  0  0
   -1.4570   -0.8110   -1.6726 H   0  0  0  0  0  0  0  0  0  0  0  0
   -0.2715   -1.8961   -0.8929 H   0  0  0  0  0  0  0  0  0  0  0  0
   -2.0222   -2.9680   -0.4053 H   0  0  0  0  0  0  0  0  0  0  0  0
  1  2  3  0
  2  3  1  0
  3  4  1  0
  3  5  1  0
  5  6  1  0
  6  7  1  0
  7  8  1  0
  8  9  1  0
  7  3  1  0
  1 10  1  0
  4 11  1  0
  4 12  1  0
  4 13  1  0
  5 14  1  0
  5 15  1  0
  7 16  1  0
  8 17  1  0
  8 18  1  0
  9 19  1  0
M  END
