
     RDKit          3D

 21 21  0  0  0  0  0  0  0  0999 V2000
    0.4080    2.4080   -1.7185 C   0  0  0  0  0  0  0  0  0  0  0  0
    0.2355    1.6677   -0.7857 C   0  0  0  0  0  0  0  0  0  0  0  0
    0.0449    0.7648    0.3297 C   0  0  0  0  0  0  0  0  0  0  0  0
   -1.3965    0.2361    0.3513 C   0  0  0  0  0  0  0  0  0  0  0  0
   -1.6860   -0.2359   -1.0503 C   0  0  0  0  0  0  0  0  0  0  0  0
   -1.2030   -0.9408    1.2367 C   0  0  0  0  0  0  0  0  0  0  0  0
    0.0409   -1.3935    1.1600 C   0  0  0  0  0  0  0  0  0  0  0  0
    0.7954   -0.5283    0.1890 C   0  0  0  0  0  0  0  0  0  0  0  0
    2.2468   -0.4038    0.5568 C   0  0  0  0  0  0  0  0  0  0  0  0
    0.5520    3.0825   -2.5482 H   0  0  0  0  0  0  0  0  0  0  0  0
    0.2674    1.1968    1.3042 H   0  0  0  0  0  0  0  0  0  0  0  0
   -2.0965    0.9694    0.7285 H   0  0  0  0  0  0  0  0  0  0  0  0
   -1.2491   -1.2384   -1.2369 H   0  0  0  0  0  0  0  0  0  0  0  0
   -1.2661    0.4374   -1.8299 H   0  0  0  0  0  0  0  0  0  0  0  0
   -2.7914   -0.3623   -1.2229 H   0  0  0  0  0  0  0  0  0  0  0  0
   -1.9654   -1.3737    1.8597 H   0  0  0  0  0  0  0  0  0  0  0  0
    0.5115   -2.2271    1.6684 H   0  0  0  0  0  0  0  0  0  0  0  0
    0.7272   -0.9952   -0.7927 H   0  0  0  0  0  0  0  0  0  0  0  0
    2.6811    0.3761   -0.1028 H   0  0  0  0  0  0  0  0  0  0  0  0
    2.7351   -1.3630    0.3071 H   0  0  0  0  0  0  0  0  0  0  0  0
    2.4081   -0.0769    1.5965 H   0  0  0  0  0  0  0  0  0  0  0  0
  1  2  3  0
  2  3  1  0
  3  4  1  0
  4  5  1  0
  4  6  1  0
  6  7  2  0
  7  8  1  0
  8  9  1  0
  8  3  1  0
  1 10  1  0
  3 11  1  0
  4 12  1  0
  5 13  1  0
  5 14  1  0
  5 15  1  0
  6 16  1  0
  7 17  1  0
  8 18  1  0
  9 19  1  0
  9 20  1  0
  9 21  1  0
M  END
