
     RDKit          3D

 19 20  0  0  0  0  0  0  0  0999 V2000
    0.1114    3.4745   -0.7169 C   0  0  0  0  0  0  0  0  0  0  0  0
    0.1072    2.2067   -0.9157 C   0  0  0  0  0  0  0  0  0  0  0  0
    0.0792    0.7931   -1.1327 C   0  0  0  0  0  0  0  0  0  0  0  0
    1.3563    0.2744   -1.1334 O   0  0  0  0  0  0  0  0  0  0  0  0
    1.4160   -0.0811    0.1926 C   0  0  0  0  0  0  0  0  0  0  0  0
    0.6740    0.5162    1.2903 C   0  0  0  0  0  0  0  0  0  0  0  0
   -0.1135    0.0116    0.1717 C   0  0  0  0  0  0  0  0  0  0  0  0
   -0.7962   -1.3191    0.1700 C   0  0  0  0  0  0  0  0  0  0  0  0
   -0.8759   -1.8834    1.5573 C   0  0  0  0  0  0  0  0  0  0  0  0
    0.1255    4.4711   -0.5575 H   0  0  0  0  0  0  0  0  0  0  0  0
   -0.6248    0.4529   -1.9325 H   0  0  0  0  0  0  0  0  0  0  0  0
    1.8861   -1.0770    0.3608 H   0  0  0  0  0  0  0  0  0  0  0  0
    0.6436    1.6090    1.4499 H   0  0  0  0  0  0  0  0  0  0  0  0
    0.6365   -0.0813    2.2283 H   0  0  0  0  0  0  0  0  0  0  0  0
   -0.1758   -2.0461   -0.4401 H   0  0  0  0  0  0  0  0  0  0  0  0
   -1.7943   -1.3080   -0.2735 H   0  0  0  0  0  0  0  0  0  0  0  0
    0.1680   -2.0300    1.9469 H   0  0  0  0  0  0  0  0  0  0  0  0
   -1.3679   -1.1627    2.2338 H   0  0  0  0  0  0  0  0  0  0  0  0
   -1.4555   -2.8207    1.5977 H   0  0  0  0  0  0  0  0  0  0  0  0
  1  2  3  0
  2  3  1  0
  3  4  1  0
  4  5  1  0
  5  6  1  0
  6  7  1  0
  7  8  1  0
  8  9  1  0
  7  3  1  0
  7  5  1  0
  1 10  1  0
  3 11  1  0
  5 12  1  0
  6 13  1  0
  6 14  1  0
  8 15  1  0
  8 16  1  0
  9 17  1  0
  9 18  1  0
  9 19  1  0
M  END
