
     RDKit          3D

 18 19  0  0  0  0  0  0  0  0999 V2000
    1.4378    0.7765    3.5794 C   0  0  0  0  0  0  0  0  0  0  0  0
    1.1324    0.0908    2.6374 C   0  0  0  0  0  0  0  0  0  0  0  0
    0.7613   -0.7327    1.4648 C   0  0  0  0  0  0  0  0  0  0  0  0
    0.6338    0.1620    0.2183 C   0  0  0  0  0  0  0  0  0  0  0  0
    0.2838   -0.4192   -1.0278 C   0  0  0  0  0  0  0  0  0  0  0  0
   -0.5877    0.1817   -2.1409 C   0  0  0  0  0  0  0  0  0  0  0  0
   -1.6522   -0.2001   -1.0883 C   0  0  0  0  0  0  0  0  0  0  0  0
   -0.6547    0.5729   -0.2133 C   0  0  0  0  0  0  0  0  0  0  0  0
    1.6974    1.3851    4.4232 H   0  0  0  0  0  0  0  0  0  0  0  0
   -0.1718   -1.2619    1.6820 H   0  0  0  0  0  0  0  0  0  0  0  0
    1.6194   -1.4153    1.2970 H   0  0  0  0  0  0  0  0  0  0  0  0
    1.5164    0.8748    0.2060 H   0  0  0  0  0  0  0  0  0  0  0  0
   -0.0403   -1.5077   -0.9535 H   0  0  0  0  0  0  0  0  0  0  0  0
   -0.5953   -0.4373   -3.0360 H   0  0  0  0  0  0  0  0  0  0  0  0
   -0.4149    1.2457   -2.2409 H   0  0  0  0  0  0  0  0  0  0  0  0
   -1.6939   -1.2702   -0.8962 H   0  0  0  0  0  0  0  0  0  0  0  0
   -2.6029    0.3230   -1.1979 H   0  0  0  0  0  0  0  0  0  0  0  0
   -0.6688    1.6320   -0.6326 H   0  0  0  0  0  0  0  0  0  0  0  0
  1  2  3  0
  2  3  1  0
  3  4  1  0
  4  5  1  0
  5  6  1  0
  6  7  1  0
  7  8  1  0
  8  4  1  0
  8  5  1  0
  1  9  1  0
  3 10  1  0
  3 11  1  0
  4 12  1  0
  5 13  1  0
  6 14  1  0
  6 15  1  0
  7 16  1  0
  7 17  1  0
  8 18  1  0
M  END
