
     RDKit          3D

 17 17  0  0  0  0  0  0  0  0999 V2000
    1.0972    2.3893   -0.0058 C   0  0  0  0  0  0  0  0  0  0  0  0
    0.5108    1.5275   -0.1055 C   0  0  0  0  0  0  0  0  0  0  0  0
   -0.2460    0.4232   -0.2096 C   0  0  0  0  0  0  0  0  0  0  0  0
    0.3814   -0.4872   -1.0659 O   0  0  0  0  0  0  0  0  0  0  0  0
    1.6105   -0.9773   -0.7453 C   0  0  0  0  0  0  0  0  0  0  0  0
   -0.4836   -0.2653    1.1763 C   0  0  0  0  0  0  0  0  0  0  0  0
   -1.7083   -0.8643    0.3889 C   0  0  0  0  0  0  0  0  0  0  0  0
   -1.7081    0.4891   -0.3208 C   0  0  0  0  0  0  0  0  0  0  0  0
   -2.5578    1.2110   -0.7397 O   0  0  0  0  0  0  0  0  0  0  0  0
    1.8794    3.5737    0.1138 H   0  0  0  0  0  0  0  0  0  0  0  0
    1.9750   -1.4820   -1.7126 H   0  0  0  0  0  0  0  0  0  0  0  0
    2.3827   -0.3118   -0.4172 H   0  0  0  0  0  0  0  0  0  0  0  0
    1.5350   -1.8849   -0.0809 H   0  0  0  0  0  0  0  0  0  0  0  0
   -0.8482    0.4549    1.9189 H   0  0  0  0  0  0  0  0  0  0  0  0
    0.0920   -1.0819    1.4936 H   0  0  0  0  0  0  0  0  0  0  0  0
   -2.5905   -1.0487    0.9589 H   0  0  0  0  0  0  0  0  0  0  0  0
   -1.3214   -1.6656   -0.2894 H   0  0  0  0  0  0  0  0  0  0  0  0
  1  2  3  0
  2  3  1  0
  3  4  1  0
  4  5  1  0
  3  6  1  0
  6  7  1  0
  7  8  1  0
  8  9  2  0
  8  3  1  0
  1 10  1  0
  5 11  1  0
  5 12  1  0
  5 13  1  0
  6 14  1  0
  6 15  1  0
  7 16  1  0
  7 17  1  0
M  END
