
     RDKit          3D

 21 21  0  0  0  0  0  0  0  0999 V2000
    0.7762    2.5769   -0.3157 C   0  0  0  0  0  0  0  0  0  0  0  0
    0.5927    1.3735   -0.2848 C   0  0  0  0  0  0  0  0  0  0  0  0
    0.3636   -0.0491   -0.2643 C   0  0  0  0  0  0  0  0  0  0  0  0
    1.3824   -0.8301   -1.0400 C   0  0  0  0  0  0  0  0  0  0  0  0
    1.4322   -0.4894   -2.3806 O   0  0  0  0  0  0  0  0  0  0  0  0
    0.3703   -0.5124    1.1783 C   0  0  0  0  0  0  0  0  0  0  0  0
   -0.8672    0.1743    1.6965 C   0  0  0  0  0  0  0  0  0  0  0  0
   -1.8575   -0.0663    0.5752 C   0  0  0  0  0  0  0  0  0  0  0  0
   -1.0514   -0.3321   -0.6683 C   0  0  0  0  0  0  0  0  0  0  0  0
    0.9440    3.6167   -0.3497 H   0  0  0  0  0  0  0  0  0  0  0  0
    1.1788   -1.9173   -0.9857 H   0  0  0  0  0  0  0  0  0  0  0  0
    2.3738   -0.6647   -0.6111 H   0  0  0  0  0  0  0  0  0  0  0  0
    2.2899   -0.8459   -2.7312 H   0  0  0  0  0  0  0  0  0  0  0  0
    1.2880   -0.2145    1.7138 H   0  0  0  0  0  0  0  0  0  0  0  0
    0.1889   -1.6078    1.1958 H   0  0  0  0  0  0  0  0  0  0  0  0
   -0.6551    1.2486    1.8573 H   0  0  0  0  0  0  0  0  0  0  0  0
   -1.2328   -0.2757    2.6406 H   0  0  0  0  0  0  0  0  0  0  0  0
   -2.5050    0.8263    0.4503 H   0  0  0  0  0  0  0  0  0  0  0  0
   -2.4161   -0.9827    0.8227 H   0  0  0  0  0  0  0  0  0  0  0  0
   -1.1797   -1.3688   -1.0294 H   0  0  0  0  0  0  0  0  0  0  0  0
   -1.4157    0.3403   -1.4698 H   0  0  0  0  0  0  0  0  0  0  0  0
  1  2  3  0
  2  3  1  0
  3  4  1  0
  4  5  1  0
  3  6  1  0
  6  7  1  0
  7  8  1  0
  8  9  1  0
  9  3  1  0
  1 10  1  0
  4 11  1  0
  4 12  1  0
  5 13  1  0
  6 14  1  0
  6 15  1  0
  7 16  1  0
  7 17  1  0
  8 18  1  0
  8 19  1  0
  9 20  1  0
  9 21  1  0
M  END
