
     RDKit          3D

 19 19  0  0  0  0  0  0  0  0999 V2000
    2.5274    2.3987    0.9601 C   0  0  0  0  0  0  0  0  0  0  0  0
    1.6194    1.7184    0.5362 C   0  0  0  0  0  0  0  0  0  0  0  0
    0.5676    0.9006    0.0448 C   0  0  0  0  0  0  0  0  0  0  0  0
    0.2772    0.8399   -1.1780 C   0  0  0  0  0  0  0  0  0  0  0  0
   -0.8217   -0.0099   -1.7950 C   0  0  0  0  0  0  0  0  0  0  0  0
   -1.7534   -0.2883   -0.8103 O   0  0  0  0  0  0  0  0  0  0  0  0
   -1.4286   -1.4193   -0.1376 C   0  0  0  0  0  0  0  0  0  0  0  0
   -0.3120   -1.2864    0.8477 C   0  0  0  0  0  0  0  0  0  0  0  0
    0.0016    0.1088    1.2471 C   0  0  0  0  0  0  0  0  0  0  0  0
    3.4039    3.0507    1.3469 H   0  0  0  0  0  0  0  0  0  0  0  0
    0.8131    1.4358   -1.9205 H   0  0  0  0  0  0  0  0  0  0  0  0
   -0.2683   -0.9630   -2.0657 H   0  0  0  0  0  0  0  0  0  0  0  0
   -1.2053    0.4284   -2.7102 H   0  0  0  0  0  0  0  0  0  0  0  0
   -1.1893   -2.2434   -0.8249 H   0  0  0  0  0  0  0  0  0  0  0  0
   -2.3479   -1.7232    0.4390 H   0  0  0  0  0  0  0  0  0  0  0  0
    0.5974   -1.8155    0.5026 H   0  0  0  0  0  0  0  0  0  0  0  0
   -0.6067   -1.8183    1.8019 H   0  0  0  0  0  0  0  0  0  0  0  0
    0.8883    0.0208    1.9394 H   0  0  0  0  0  0  0  0  0  0  0  0
   -0.7628    0.6652    1.7766 H   0  0  0  0  0  0  0  0  0  0  0  0
  1  2  3  0
  2  3  1  0
  3  4  2  0
  4  5  1  0
  5  6  1  0
  6  7  1  0
  7  8  1  0
  8  9  1  0
  9  3  1  0
  1 10  1  0
  4 11  1  0
  5 12  1  0
  5 13  1  0
  7 14  1  0
  7 15  1  0
  8 16  1  0
  8 17  1  0
  9 18  1  0
  9 19  1  0
M  END
