
     RDKit          3D

 17 19  0  0  0  0  0  0  0  0999 V2000
    3.5873    0.0697    1.1048 C   0  0  0  0  0  0  0  0  0  0  0  0
    2.3352   -0.0151    1.1989 C   0  0  0  0  0  0  0  0  0  0  0  0
    0.8541   -0.0977    1.3058 C   0  0  0  0  0  0  0  0  0  0  0  0
    0.2425   -0.3094   -0.0347 C   0  0  0  0  0  0  0  0  0  0  0  0
    0.4497   -1.4277   -0.7488 O   0  0  0  0  0  0  0  0  0  0  0  0
   -0.8159   -1.2763   -0.1652 C   0  0  0  0  0  0  0  0  0  0  0  0
   -1.7240   -0.0861   -0.0911 C   0  0  0  0  0  0  0  0  0  0  0  0
   -2.0338    0.6763   -1.2324 C   0  0  0  0  0  0  0  0  0  0  0  0
   -0.6588    0.7878   -0.6309 C   0  0  0  0  0  0  0  0  0  0  0  0
    4.7115    0.1347    1.0378 H   0  0  0  0  0  0  0  0  0  0  0  0
    0.4798    0.7668    1.8690 H   0  0  0  0  0  0  0  0  0  0  0  0
    0.6860   -1.0846    1.9270 H   0  0  0  0  0  0  0  0  0  0  0  0
   -0.9901   -2.0302    0.7246 H   0  0  0  0  0  0  0  0  0  0  0  0
   -2.0673    0.2554    0.9858 H   0  0  0  0  0  0  0  0  0  0  0  0
   -2.6586    1.6759   -0.9718 H   0  0  0  0  0  0  0  0  0  0  0  0
   -2.2976    0.3883   -2.2333 H   0  0  0  0  0  0  0  0  0  0  0  0
   -0.0999    1.5722   -1.0376 H   0  0  0  0  0  0  0  0  0  0  0  0
  1  2  3  0
  2  3  1  0
  3  4  1  0
  4  5  1  0
  5  6  1  0
  6  7  1  0
  7  8  1  0
  8  9  1  0
  6  4  1  0
  9  7  1  0
  9  4  1  0
  1 10  1  0
  3 11  1  0
  3 12  1  0
  6 13  1  0
  7 14  1  0
  8 15  1  0
  8 16  1  0
  9 17  1  0
M  END
