
     RDKit          3D

 18 18  0  0  0  0  0  0  0  0999 V2000
    2.8884   -0.8463    1.0194 C   0  0  0  0  0  0  0  0  0  0  0  0
    1.9796   -0.4729    0.3213 C   0  0  0  0  0  0  0  0  0  0  0  0
    0.8564   -0.0090   -0.5141 C   0  0  0  0  0  0  0  0  0  0  0  0
   -0.0858   -1.1471   -0.7285 C   0  0  0  0  0  0  0  0  0  0  0  0
   -1.3221   -1.0886    0.0495 C   0  0  0  0  0  0  0  0  0  0  0  0
   -1.8801    0.0588    0.4223 C   0  0  0  0  0  0  0  0  0  0  0  0
   -1.2224    1.3069    0.0329 C   0  0  0  0  0  0  0  0  0  0  0  0
    0.2724    1.2448   -0.0115 C   0  0  0  0  0  0  0  0  0  0  0  0
    3.6907   -1.1950    1.6491 H   0  0  0  0  0  0  0  0  0  0  0  0
    1.3263    0.2043   -1.5205 H   0  0  0  0  0  0  0  0  0  0  0  0
   -0.3837   -1.2346   -1.8141 H   0  0  0  0  0  0  0  0  0  0  0  0
    0.4259   -2.1034   -0.4919 H   0  0  0  0  0  0  0  0  0  0  0  0
   -1.8064   -2.0209    0.3348 H   0  0  0  0  0  0  0  0  0  0  0  0
   -2.8177    0.0589    1.0116 H   0  0  0  0  0  0  0  0  0  0  0  0
   -1.6151    1.5939   -0.9826 H   0  0  0  0  0  0  0  0  0  0  0  0
   -1.5743    2.1061    0.7212 H   0  0  0  0  0  0  0  0  0  0  0  0
    0.6290    1.3907    1.0520 H   0  0  0  0  0  0  0  0  0  0  0  0
    0.6389    2.1536   -0.5510 H   0  0  0  0  0  0  0  0  0  0  0  0
  1  2  3  0
  2  3  1  0
  3  4  1  0
  4  5  1  0
  5  6  2  0
  6  7  1  0
  7  8  1  0
  8  3  1  0
  1  9  1  0
  3 10  1  0
  4 11  1  0
  4 12  1  0
  5 13  1  0
  6 14  1  0
  7 15  1  0
  7 16  1  0
  8 17  1  0
  8 18  1  0
M  END
