
     RDKit          3D

 17 17  0  0  0  0  0  0  0  0999 V2000
   -3.8757   -0.0318    0.5002 C   0  0  0  0  0  0  0  0  0  0  0  0
   -2.7459    0.1036    0.0780 C   0  0  0  0  0  0  0  0  0  0  0  0
   -1.4149    0.2860   -0.4319 C   0  0  0  0  0  0  0  0  0  0  0  0
   -0.6015    1.2973    0.3835 C   0  0  0  0  0  0  0  0  0  0  0  0
   -0.5079    0.2871    1.3667 O   0  0  0  0  0  0  0  0  0  0  0  0
   -0.4314   -0.6158    0.2835 C   0  0  0  0  0  0  0  0  0  0  0  0
    0.9024   -0.6240   -0.3455 C   0  0  0  0  0  0  0  0  0  0  0  0
    2.0032   -0.6104   -0.8581 C   0  0  0  0  0  0  0  0  0  0  0  0
    3.3371   -0.5732   -1.4628 C   0  0  0  0  0  0  0  0  0  0  0  0
   -4.8607   -0.1547    0.8692 H   0  0  0  0  0  0  0  0  0  0  0  0
   -1.2745    0.3491   -1.5118 H   0  0  0  0  0  0  0  0  0  0  0  0
   -1.1714    2.1366    0.7774 H   0  0  0  0  0  0  0  0  0  0  0  0
    0.3743    1.5205   -0.0769 H   0  0  0  0  0  0  0  0  0  0  0  0
   -0.7683   -1.6257    0.4992 H   0  0  0  0  0  0  0  0  0  0  0  0
    3.3229   -0.1078   -2.4709 H   0  0  0  0  0  0  0  0  0  0  0  0
    3.6636   -1.6247   -1.6049 H   0  0  0  0  0  0  0  0  0  0  0  0
    4.0488   -0.0122   -0.8182 H   0  0  0  0  0  0  0  0  0  0  0  0
  1  2  3  0
  2  3  1  0
  3  4  1  0
  4  5  1  0
  5  6  1  0
  6  7  1  0
  7  8  3  0
  8  9  1  0
  6  3  1  0
  1 10  1  0
  3 11  1  0
  4 12  1  0
  4 13  1  0
  6 14  1  0
  9 15  1  0
  9 16  1  0
  9 17  1  0
M  END
