
     RDKit          3D

 21 22  0  0  0  0  0  0  0  0999 V2000
   -2.1445    2.2227    1.0722 C   0  0  0  0  0  0  0  0  0  0  0  0
   -1.7939    1.3782    0.3076 C   0  0  0  0  0  0  0  0  0  0  0  0
   -1.3598    0.3293   -0.6085 C   0  0  0  0  0  0  0  0  0  0  0  0
   -1.8026   -1.0392   -0.0725 C   0  0  0  0  0  0  0  0  0  0  0  0
   -0.3317   -1.3336    0.1320 C   0  0  0  0  0  0  0  0  0  0  0  0
    0.4708   -1.3616   -1.1190 C   0  0  0  0  0  0  0  0  0  0  0  0
    0.0623   -0.0846   -0.5192 C   0  0  0  0  0  0  0  0  0  0  0  0
    1.1125    0.8353    0.0248 C   0  0  0  0  0  0  0  0  0  0  0  0
    2.4589    0.1913    0.0109 C   0  0  0  0  0  0  0  0  0  0  0  0
   -2.4456    2.9703    1.7613 H   0  0  0  0  0  0  0  0  0  0  0  0
   -1.6928    0.5479   -1.6248 H   0  0  0  0  0  0  0  0  0  0  0  0
   -2.2012   -1.7080   -0.8599 H   0  0  0  0  0  0  0  0  0  0  0  0
   -2.4069   -0.9936    0.8386 H   0  0  0  0  0  0  0  0  0  0  0  0
    0.0539   -1.6325    1.1013 H   0  0  0  0  0  0  0  0  0  0  0  0
   -0.0732   -1.6573   -2.0596 H   0  0  0  0  0  0  0  0  0  0  0  0
    1.4654   -1.7952   -1.0225 H   0  0  0  0  0  0  0  0  0  0  0  0
    1.1534    1.7233   -0.6433 H   0  0  0  0  0  0  0  0  0  0  0  0
    0.9108    1.1937    1.0489 H   0  0  0  0  0  0  0  0  0  0  0  0
    3.2112    0.9943    0.2601 H   0  0  0  0  0  0  0  0  0  0  0  0
    2.5934   -0.5747    0.8050 H   0  0  0  0  0  0  0  0  0  0  0  0
    2.7597   -0.2062   -0.9656 H   0  0  0  0  0  0  0  0  0  0  0  0
  1  2  3  0
  2  3  1  0
  3  4  1  0
  4  5  1  0
  5  6  1  0
  6  7  1  0
  7  8  1  0
  8  9  1  0
  7  3  1  0
  7  5  1  0
  1 10  1  0
  3 11  1  0
  4 12  1  0
  4 13  1  0
  5 14  1  0
  6 15  1  0
  6 16  1  0
  8 17  1  0
  8 18  1  0
  9 19  1  0
  9 20  1  0
  9 21  1  0
M  END
