
     RDKit          3D

 17 16  0  0  0  0  0  0  0  0999 V2000
   -4.1149   -0.7953    0.7070 C   0  0  0  0  0  0  0  0  0  0  0  0
   -2.8392   -0.6044    0.8462 C   0  0  0  0  0  0  0  0  0  0  0  0
   -1.4351   -0.3775    0.9814 C   0  0  0  0  0  0  0  0  0  0  0  0
   -0.9145    0.5026   -0.1368 C   0  0  0  0  0  0  0  0  0  0  0  0
   -1.2044   -0.0758   -1.4033 O   0  0  0  0  0  0  0  0  0  0  0  0
    0.5758    0.4017   -0.0594 C   0  0  0  0  0  0  0  0  0  0  0  0
    1.7874    0.3218    0.0206 C   0  0  0  0  0  0  0  0  0  0  0  0
    3.2723    0.2390    0.0972 C   0  0  0  0  0  0  0  0  0  0  0  0
    3.7950    0.0572   -1.1893 O   0  0  0  0  0  0  0  0  0  0  0  0
   -5.0650   -0.9536    0.5971 H   0  0  0  0  0  0  0  0  0  0  0  0
   -1.2830    0.2075    1.9388 H   0  0  0  0  0  0  0  0  0  0  0  0
   -0.8401   -1.2875    1.1049 H   0  0  0  0  0  0  0  0  0  0  0  0
   -1.2706    1.5159   -0.1263 H   0  0  0  0  0  0  0  0  0  0  0  0
   -2.2155   -0.2149   -1.3398 H   0  0  0  0  0  0  0  0  0  0  0  0
    3.7280    1.1100    0.5652 H   0  0  0  0  0  0  0  0  0  0  0  0
    3.4483   -0.6682    0.7223 H   0  0  0  0  0  0  0  0  0  0  0  0
    4.5756    0.6215   -1.3316 H   0  0  0  0  0  0  0  0  0  0  0  0
  1  2  3  0
  2  3  1  0
  3  4  1  0
  4  5  1  0
  4  6  1  0
  6  7  3  0
  7  8  1  0
  8  9  1  0
  1 10  1  0
  3 11  1  0
  3 12  1  0
  4 13  1  0
  5 14  1  0
  8 15  1  0
  8 16  1  0
  9 17  1  0
M  END
