
     RDKit          3D

 15 15  0  0  0  0  0  0  0  0999 V2000
    2.2470   -1.4138   -0.8026 C   0  0  0  0  0  0  0  0  0  0  0  0
    1.2643   -0.7375   -0.6372 C   0  0  0  0  0  0  0  0  0  0  0  0
    0.0630    0.0873   -0.4605 C   0  0  0  0  0  0  0  0  0  0  0  0
    0.3526    1.5510   -0.4682 C   0  0  0  0  0  0  0  0  0  0  0  0
   -0.9217   -0.3447   -1.4068 O   0  0  0  0  0  0  0  0  0  0  0  0
   -1.4828   -1.1128   -0.4079 C   0  0  0  0  0  0  0  0  0  0  0  0
   -2.3082   -2.0613   -0.3939 O   0  0  0  0  0  0  0  0  0  0  0  0
   -0.7642   -0.4253    0.6891 C   0  0  0  0  0  0  0  0  0  0  0  0
   -1.5890    0.4927    1.3021 O   0  0  0  0  0  0  0  0  0  0  0  0
    3.1086   -2.0056   -0.9297 H   0  0  0  0  0  0  0  0  0  0  0  0
    1.4275    1.7170   -0.1696 H   0  0  0  0  0  0  0  0  0  0  0  0
    0.1855    2.0296   -1.4627 H   0  0  0  0  0  0  0  0  0  0  0  0
   -0.2447    2.1233    0.2583 H   0  0  0  0  0  0  0  0  0  0  0  0
   -0.1985   -1.0758    1.3707 H   0  0  0  0  0  0  0  0  0  0  0  0
   -1.1393    1.1758    1.8279 H   0  0  0  0  0  0  0  0  0  0  0  0
  1  2  3  0
  2  3  1  0
  3  4  1  0
  3  5  1  0
  5  6  1  0
  6  7  2  0
  6  8  1  0
  8  9  1  0
  8  3  1  0
  1 10  1  0
  4 11  1  0
  4 12  1  0
  4 13  1  0
  8 14  1  0
  9 15  1  0
M  END
