
     RDKit          3D

 17 18  0  0  0  0  0  0  0  0999 V2000
    3.3234   -0.2414    0.7225 C   0  0  0  0  0  0  0  0  0  0  0  0
    2.1232   -0.0802    0.6339 C   0  0  0  0  0  0  0  0  0  0  0  0
    0.6975    0.1282    0.5254 C   0  0  0  0  0  0  0  0  0  0  0  0
    0.2556    0.8705   -0.7438 C   0  0  0  0  0  0  0  0  0  0  0  0
   -1.1295    1.3310   -0.4647 C   0  0  0  0  0  0  0  0  0  0  0  0
   -1.9779    0.4392    0.0190 C   0  0  0  0  0  0  0  0  0  0  0  0
   -1.4769   -0.9775    0.0566 C   0  0  0  0  0  0  0  0  0  0  0  0
    0.0114   -0.9692   -0.2169 C   0  0  0  0  0  0  0  0  0  0  0  0
    0.2164   -0.3335   -1.4517 O   0  0  0  0  0  0  0  0  0  0  0  0
    4.3689   -0.3897    0.8075 H   0  0  0  0  0  0  0  0  0  0  0  0
    0.2085    0.4868    1.4446 H   0  0  0  0  0  0  0  0  0  0  0  0
    0.9581    1.6150   -1.1092 H   0  0  0  0  0  0  0  0  0  0  0  0
   -1.3662    2.3594   -0.6700 H   0  0  0  0  0  0  0  0  0  0  0  0
   -2.9767    0.6949    0.3714 H   0  0  0  0  0  0  0  0  0  0  0  0
   -2.0098   -1.4993   -0.7894 H   0  0  0  0  0  0  0  0  0  0  0  0
   -1.7072   -1.4636    1.0194 H   0  0  0  0  0  0  0  0  0  0  0  0
    0.4812   -1.9704   -0.1546 H   0  0  0  0  0  0  0  0  0  0  0  0
  1  2  3  0
  2  3  1  0
  3  4  1  0
  4  5  1  0
  5  6  2  0
  6  7  1  0
  7  8  1  0
  8  9  1  0
  8  3  1  0
  9  4  1  0
  1 10  1  0
  3 11  1  0
  4 12  1  0
  5 13  1  0
  6 14  1  0
  7 15  1  0
  7 16  1  0
  8 17  1  0
M  END
