
     RDKit          3D

 17 18  0  0  0  0  0  0  0  0999 V2000
    2.1848   -1.6126    0.7787 C   0  0  0  0  0  0  0  0  0  0  0  0
    1.3509   -0.9512    0.2206 C   0  0  0  0  0  0  0  0  0  0  0  0
    0.3387   -0.1496   -0.4643 C   0  0  0  0  0  0  0  0  0  0  0  0
   -0.9894   -0.7988   -0.6643 C   0  0  0  0  0  0  0  0  0  0  0  0
   -1.2022   -1.7574    0.3500 O   0  0  0  0  0  0  0  0  0  0  0  0
   -1.7405    0.4726   -0.2465 C   0  0  0  0  0  0  0  0  0  0  0  0
   -0.3943    0.9243    0.3325 C   0  0  0  0  0  0  0  0  0  0  0  0
    0.5997    1.2687   -0.6797 C   0  0  0  0  0  0  0  0  0  0  0  0
    1.8261    1.7537   -0.2477 O   0  0  0  0  0  0  0  0  0  0  0  0
    2.9313   -2.2044    1.2740 H   0  0  0  0  0  0  0  0  0  0  0  0
   -1.2094   -1.1428   -1.6767 H   0  0  0  0  0  0  0  0  0  0  0  0
   -1.0793   -1.2530    1.2105 H   0  0  0  0  0  0  0  0  0  0  0  0
   -2.0269    1.0244   -1.1660 H   0  0  0  0  0  0  0  0  0  0  0  0
   -2.5265    0.3181    0.4955 H   0  0  0  0  0  0  0  0  0  0  0  0
   -0.2205    0.8594    1.4015 H   0  0  0  0  0  0  0  0  0  0  0  0
    0.2027    1.7989   -1.5893 H   0  0  0  0  0  0  0  0  0  0  0  0
    1.9547    1.4496    0.6713 H   0  0  0  0  0  0  0  0  0  0  0  0
  1  2  3  0
  2  3  1  0
  3  4  1  0
  4  5  1  0
  4  6  1  0
  6  7  1  0
  7  8  1  0
  8  9  1  0
  7  3  1  0
  8  3  1  0
  1 10  1  0
  4 11  1  0
  5 12  1  0
  6 13  1  0
  6 14  1  0
  7 15  1  0
  8 16  1  0
  9 17  1  0
M  END
