
     RDKit          3D

 15 16  0  0  0  0  0  0  0  0999 V2000
    2.5222   -1.1447   -0.6167 C   0  0  0  0  0  0  0  0  0  0  0  0
    1.4609   -0.6418   -0.3443 C   0  0  0  0  0  0  0  0  0  0  0  0
    0.1958   -0.0266    0.0034 C   0  0  0  0  0  0  0  0  0  0  0  0
    0.3341    1.3042    0.6760 C   0  0  0  0  0  0  0  0  0  0  0  0
   -0.8621   -0.9325    0.5302 C   0  0  0  0  0  0  0  0  0  0  0  0
   -0.9427   -1.4737   -0.7425 O   0  0  0  0  0  0  0  0  0  0  0  0
   -0.8862   -0.1168   -1.0254 C   0  0  0  0  0  0  0  0  0  0  0  0
   -1.8559    0.0602    0.0660 C   0  0  0  0  0  0  0  0  0  0  0  0
   -2.8496    0.6462    0.3950 O   0  0  0  0  0  0  0  0  0  0  0  0
    3.4757   -1.5841   -0.8561 H   0  0  0  0  0  0  0  0  0  0  0  0
   -0.6096    1.8843    0.6639 H   0  0  0  0  0  0  0  0  0  0  0  0
    0.7359    1.2318    1.7157 H   0  0  0  0  0  0  0  0  0  0  0  0
    1.0583    1.9124    0.0665 H   0  0  0  0  0  0  0  0  0  0  0  0
   -0.8752   -1.4307    1.4039 H   0  0  0  0  0  0  0  0  0  0  0  0
   -0.9017    0.3119   -1.9357 H   0  0  0  0  0  0  0  0  0  0  0  0
  1  2  3  0
  2  3  1  0
  3  4  1  0
  3  5  1  0
  5  6  1  0
  6  7  1  0
  7  8  1  0
  8  9  2  0
  7  3  1  0
  8  5  1  0
  1 10  1  0
  4 11  1  0
  4 12  1  0
  4 13  1  0
  5 14  1  0
  7 15  1  0
M  END
