
     RDKit          3D

 17 17  0  0  0  0  0  0  0  0999 V2000
    2.1203    1.6358   -2.4047 C   0  0  0  0  0  0  0  0  0  0  0  0
    1.5904    1.0591   -1.5075 C   0  0  0  0  0  0  0  0  0  0  0  0
    0.9651    0.3472   -0.4009 C   0  0  0  0  0  0  0  0  0  0  0  0
   -0.2097    0.7290    0.0688 C   0  0  0  0  0  0  0  0  0  0  0  0
   -0.5368   -0.2016    1.1683 C   0  0  0  0  0  0  0  0  0  0  0  0
   -1.8062   -0.9491    0.7361 C   0  0  0  0  0  0  0  0  0  0  0  0
   -2.8277   -0.0027    0.6181 O   0  0  0  0  0  0  0  0  0  0  0  0
    0.5216   -1.0613    1.3117 O   0  0  0  0  0  0  0  0  0  0  0  0
    1.4630   -0.8109    0.3366 C   0  0  0  0  0  0  0  0  0  0  0  0
    2.5874    2.1610   -3.2328 H   0  0  0  0  0  0  0  0  0  0  0  0
   -0.8562    1.5373   -0.2302 H   0  0  0  0  0  0  0  0  0  0  0  0
   -0.7272    0.3534    2.1119 H   0  0  0  0  0  0  0  0  0  0  0  0
   -1.5967   -1.3466   -0.2814 H   0  0  0  0  0  0  0  0  0  0  0  0
   -2.0345   -1.7529    1.4526 H   0  0  0  0  0  0  0  0  0  0  0  0
   -2.7188    0.4723   -0.2487 H   0  0  0  0  0  0  0  0  0  0  0  0
    1.6391   -1.6419   -0.3533 H   0  0  0  0  0  0  0  0  0  0  0  0
    2.4266   -0.5280    0.8555 H   0  0  0  0  0  0  0  0  0  0  0  0
  1  2  3  0
  2  3  1  0
  3  4  2  0
  4  5  1  0
  5  6  1  0
  6  7  1  0
  5  8  1  0
  8  9  1  0
  9  3  1  0
  1 10  1  0
  4 11  1  0
  5 12  1  0
  6 13  1  0
  6 14  1  0
  7 15  1  0
  9 16  1  0
  9 17  1  0
M  END
