
     RDKit          3D

 19 20  0  0  0  0  0  0  0  0999 V2000
    2.2542   -1.4801    1.3896 C   0  0  0  0  0  0  0  0  0  0  0  0
    1.4676   -0.7184    0.8729 C   0  0  0  0  0  0  0  0  0  0  0  0
    0.5481    0.2064    0.2529 C   0  0  0  0  0  0  0  0  0  0  0  0
    0.1408    1.3426    1.1408 C   0  0  0  0  0  0  0  0  0  0  0  0
    0.8694    0.4907   -1.1591 C   0  0  0  0  0  0  0  0  0  0  0  0
   -0.5684    0.8389   -1.3891 C   0  0  0  0  0  0  0  0  0  0  0  0
   -0.5340   -0.4100   -0.5860 C   0  0  0  0  0  0  0  0  0  0  0  0
   -1.5926   -1.1771   -0.1485 C   0  0  0  0  0  0  0  0  0  0  0  0
    0.4947   -0.8337   -1.4308 O   0  0  0  0  0  0  0  0  0  0  0  0
    2.9533   -2.1539    1.8530 H   0  0  0  0  0  0  0  0  0  0  0  0
    0.3274    1.0819    2.2198 H   0  0  0  0  0  0  0  0  0  0  0  0
    0.6558    2.2834    0.9273 H   0  0  0  0  0  0  0  0  0  0  0  0
   -0.9489    1.5030    1.0731 H   0  0  0  0  0  0  0  0  0  0  0  0
    1.6736    0.9438   -1.5641 H   0  0  0  0  0  0  0  0  0  0  0  0
   -0.9417    1.7583   -0.9452 H   0  0  0  0  0  0  0  0  0  0  0  0
   -0.8845    0.6735   -2.4589 H   0  0  0  0  0  0  0  0  0  0  0  0
   -1.6814   -1.3779    0.9617 H   0  0  0  0  0  0  0  0  0  0  0  0
   -2.6094   -0.7554   -0.4120 H   0  0  0  0  0  0  0  0  0  0  0  0
   -1.6241   -2.2159   -0.5974 H   0  0  0  0  0  0  0  0  0  0  0  0
  1  2  3  0
  2  3  1  0
  3  4  1  0
  3  5  1  0
  5  6  1  0
  6  7  1  0
  7  8  1  0
  7  9  1  0
  7  3  1  0
  9  5  1  0
  1 10  1  0
  4 11  1  0
  4 12  1  0
  4 13  1  0
  5 14  1  0
  6 15  1  0
  6 16  1  0
  8 17  1  0
  8 18  1  0
  8 19  1  0
M  END
