
     RDKit          3D

 15 16  0  0  0  0  0  0  0  0999 V2000
    2.7738   -0.1278   -0.8367 C   0  0  0  0  0  0  0  0  0  0  0  0
    1.6216    0.0126   -0.5185 C   0  0  0  0  0  0  0  0  0  0  0  0
    0.2927    0.1703   -0.1753 C   0  0  0  0  0  0  0  0  0  0  0  0
   -0.1441    0.0615    1.2706 C   0  0  0  0  0  0  0  0  0  0  0  0
   -1.5116   -0.1867    0.6129 C   0  0  0  0  0  0  0  0  0  0  0  0
   -0.6946   -0.9791   -0.4195 C   0  0  0  0  0  0  0  0  0  0  0  0
   -1.7751    0.9963   -0.0942 O   0  0  0  0  0  0  0  0  0  0  0  0
   -0.5039    1.3136   -0.6431 C   0  0  0  0  0  0  0  0  0  0  0  0
   -0.1903    2.3073   -1.3322 O   0  0  0  0  0  0  0  0  0  0  0  0
    3.8056   -0.2405   -1.1356 H   0  0  0  0  0  0  0  0  0  0  0  0
   -0.1117    1.0525    1.7402 H   0  0  0  0  0  0  0  0  0  0  0  0
    0.2315   -0.7909    1.8325 H   0  0  0  0  0  0  0  0  0  0  0  0
   -2.2500   -0.6902    1.1632 H   0  0  0  0  0  0  0  0  0  0  0  0
   -1.1922   -0.9454   -1.4025 H   0  0  0  0  0  0  0  0  0  0  0  0
   -0.3516   -1.9535   -0.0618 H   0  0  0  0  0  0  0  0  0  0  0  0
  1  2  3  0
  2  3  1  0
  3  4  1  0
  4  5  1  0
  5  6  1  0
  5  7  1  0
  7  8  1  0
  8  9  2  0
  6  3  1  0
  8  3  1  0
  1 10  1  0
  4 11  1  0
  4 12  1  0
  5 13  1  0
  6 14  1  0
  6 15  1  0
M  END
