
     RDKit          3D

 19 19  0  0  0  0  0  0  0  0999 V2000
   -2.3806    0.1024    2.4684 C   0  0  0  0  0  0  0  0  0  0  0  0
   -1.4675   -0.1731    1.7329 C   0  0  0  0  0  0  0  0  0  0  0  0
   -0.3634   -0.5300    0.8234 C   0  0  0  0  0  0  0  0  0  0  0  0
    0.9659   -0.5956    1.5869 C   0  0  0  0  0  0  0  0  0  0  0  0
    1.2095    0.7048    1.1035 O   0  0  0  0  0  0  0  0  0  0  0  0
    0.1985    0.6564    0.1193 C   0  0  0  0  0  0  0  0  0  0  0  0
    0.8254    0.4294   -1.2197 C   0  0  0  0  0  0  0  0  0  0  0  0
   -0.1597    0.4586   -2.3500 C   0  0  0  0  0  0  0  0  0  0  0  0
    1.5451   -0.7565   -1.2974 O   0  0  0  0  0  0  0  0  0  0  0  0
   -3.1937    0.3352    3.1376 H   0  0  0  0  0  0  0  0  0  0  0  0
   -0.5759   -1.4231    0.2397 H   0  0  0  0  0  0  0  0  0  0  0  0
    1.6582   -1.3645    1.2394 H   0  0  0  0  0  0  0  0  0  0  0  0
    0.8226   -0.5629    2.6942 H   0  0  0  0  0  0  0  0  0  0  0  0
   -0.4243    1.5498    0.1224 H   0  0  0  0  0  0  0  0  0  0  0  0
    1.5544    1.2518   -1.3901 H   0  0  0  0  0  0  0  0  0  0  0  0
   -0.5371   -0.5615   -2.6210 H   0  0  0  0  0  0  0  0  0  0  0  0
    0.3632    0.8263   -3.2569 H   0  0  0  0  0  0  0  0  0  0  0  0
   -1.0175    1.1577   -2.1403 H   0  0  0  0  0  0  0  0  0  0  0  0
    0.9772   -1.5053   -1.6036 H   0  0  0  0  0  0  0  0  0  0  0  0
  1  2  3  0
  2  3  1  0
  3  4  1  0
  4  5  1  0
  5  6  1  0
  6  7  1  0
  7  8  1  0
  7  9  1  0
  6  3  1  0
  1 10  1  0
  3 11  1  0
  4 12  1  0
  4 13  1  0
  6 14  1  0
  7 15  1  0
  8 16  1  0
  8 17  1  0
  8 18  1  0
  9 19  1  0
M  END
