
     RDKit          3D

 17 18  0  0  0  0  0  0  0  0999 V2000
    2.5869   -1.9456    0.6867 C   0  0  0  0  0  0  0  0  0  0  0  0
    1.4258   -1.6926    0.4466 C   0  0  0  0  0  0  0  0  0  0  0  0
    0.0171   -1.3844    0.1780 C   0  0  0  0  0  0  0  0  0  0  0  0
   -0.4028   -0.5053    1.1578 O   0  0  0  0  0  0  0  0  0  0  0  0
   -0.2310    0.7823    0.6893 C   0  0  0  0  0  0  0  0  0  0  0  0
   -1.4019    1.6498    1.1003 C   0  0  0  0  0  0  0  0  0  0  0  0
   -0.2386    0.7155   -0.8221 C   0  0  0  0  0  0  0  0  0  0  0  0
    0.9275    0.2185   -1.4344 O   0  0  0  0  0  0  0  0  0  0  0  0
   -0.1255   -0.6554   -1.1477 C   0  0  0  0  0  0  0  0  0  0  0  0
    3.6166   -2.1693    0.8815 H   0  0  0  0  0  0  0  0  0  0  0  0
   -0.6047   -2.3008    0.1145 H   0  0  0  0  0  0  0  0  0  0  0  0
    0.6990    1.2603    1.0050 H   0  0  0  0  0  0  0  0  0  0  0  0
   -1.0373    2.7072    1.0339 H   0  0  0  0  0  0  0  0  0  0  0  0
   -1.6875    1.4518    2.1515 H   0  0  0  0  0  0  0  0  0  0  0  0
   -2.2689    1.5422    0.4031 H   0  0  0  0  0  0  0  0  0  0  0  0
   -0.7421    1.5160   -1.3873 H   0  0  0  0  0  0  0  0  0  0  0  0
   -0.5326   -1.1903   -2.0123 H   0  0  0  0  0  0  0  0  0  0  0  0
  1  2  3  0
  2  3  1  0
  3  4  1  0
  4  5  1  0
  5  6  1  0
  5  7  1  0
  7  8  1  0
  8  9  1  0
  9  3  1  0
  9  7  1  0
  1 10  1  0
  3 11  1  0
  5 12  1  0
  6 13  1  0
  6 14  1  0
  6 15  1  0
  7 16  1  0
  9 17  1  0
M  END
