
     RDKit          3D

 21 21  0  0  0  0  0  0  0  0999 V2000
    2.7211   -1.8344   -0.1937 C   0  0  0  0  0  0  0  0  0  0  0  0
    1.8974   -0.9626   -0.4460 C   0  0  0  0  0  0  0  0  0  0  0  0
    0.9242    0.0916   -0.7366 C   0  0  0  0  0  0  0  0  0  0  0  0
    1.6334    1.4350   -0.9110 C   0  0  0  0  0  0  0  0  0  0  0  0
   -0.0755    0.1572    0.3794 C   0  0  0  0  0  0  0  0  0  0  0  0
   -1.1257    1.2338    0.1513 C   0  0  0  0  0  0  0  0  0  0  0  0
   -1.8025    0.3260   -0.6604 O   0  0  0  0  0  0  0  0  0  0  0  0
   -1.2963   -0.6911    0.1089 C   0  0  0  0  0  0  0  0  0  0  0  0
   -2.0978   -1.0640    1.3285 C   0  0  0  0  0  0  0  0  0  0  0  0
    3.4202   -2.5967    0.0341 H   0  0  0  0  0  0  0  0  0  0  0  0
    0.3597   -0.1346   -1.6681 H   0  0  0  0  0  0  0  0  0  0  0  0
    1.5577    2.0128    0.0191 H   0  0  0  0  0  0  0  0  0  0  0  0
    2.7086    1.2080   -1.0615 H   0  0  0  0  0  0  0  0  0  0  0  0
    1.1991    1.9650   -1.7861 H   0  0  0  0  0  0  0  0  0  0  0  0
    0.2995    0.1733    1.3997 H   0  0  0  0  0  0  0  0  0  0  0  0
   -1.6472    1.5908    1.0361 H   0  0  0  0  0  0  0  0  0  0  0  0
   -0.6767    2.0285   -0.5000 H   0  0  0  0  0  0  0  0  0  0  0  0
   -1.0382   -1.5720   -0.4804 H   0  0  0  0  0  0  0  0  0  0  0  0
   -2.2803   -0.1326    1.9240 H   0  0  0  0  0  0  0  0  0  0  0  0
   -1.5947   -1.7896    1.9748 H   0  0  0  0  0  0  0  0  0  0  0  0
   -3.0861   -1.4442    0.9980 H   0  0  0  0  0  0  0  0  0  0  0  0
  1  2  3  0
  2  3  1  0
  3  4  1  0
  3  5  1  0
  5  6  1  0
  6  7  1  0
  7  8  1  0
  8  9  1  0
  8  5  1  0
  1 10  1  0
  3 11  1  0
  4 12  1  0
  4 13  1  0
  4 14  1  0
  5 15  1  0
  6 16  1  0
  6 17  1  0
  8 18  1  0
  9 19  1  0
  9 20  1  0
  9 21  1  0
M  END
