
     RDKit          3D

 19 19  0  0  0  0  0  0  0  0999 V2000
    3.0078    0.2692    0.0126 C   0  0  0  0  0  0  0  0  0  0  0  0
    1.8883    0.6193    0.3293 C   0  0  0  0  0  0  0  0  0  0  0  0
    0.5582    1.0282    0.7035 C   0  0  0  0  0  0  0  0  0  0  0  0
   -0.4482    0.0403    0.2220 C   0  0  0  0  0  0  0  0  0  0  0  0
   -1.8907    0.3933    0.5745 C   0  0  0  0  0  0  0  0  0  0  0  0
   -2.1544    1.6195   -0.0175 O   0  0  0  0  0  0  0  0  0  0  0  0
   -0.0563   -1.4252    0.3199 C   0  0  0  0  0  0  0  0  0  0  0  0
   -0.2773   -0.7855   -0.9739 C   0  0  0  0  0  0  0  0  0  0  0  0
    0.7700   -0.4303   -1.8260 O   0  0  0  0  0  0  0  0  0  0  0  0
    3.9849   -0.0284   -0.2517 H   0  0  0  0  0  0  0  0  0  0  0  0
    0.3560    2.0499    0.2819 H   0  0  0  0  0  0  0  0  0  0  0  0
    0.4342    1.1402    1.8144 H   0  0  0  0  0  0  0  0  0  0  0  0
   -2.0367    0.4875    1.6692 H   0  0  0  0  0  0  0  0  0  0  0  0
   -2.5808   -0.3704    0.1607 H   0  0  0  0  0  0  0  0  0  0  0  0
   -1.8937    1.5455   -0.9680 H   0  0  0  0  0  0  0  0  0  0  0  0
   -0.8274   -2.1470    0.6879 H   0  0  0  0  0  0  0  0  0  0  0  0
    0.9815   -1.6731    0.6622 H   0  0  0  0  0  0  0  0  0  0  0  0
   -1.1861   -1.1083   -1.5436 H   0  0  0  0  0  0  0  0  0  0  0  0
    1.3707   -1.2246   -1.8578 H   0  0  0  0  0  0  0  0  0  0  0  0
  1  2  3  0
  2  3  1  0
  3  4  1  0
  4  5  1  0
  5  6  1  0
  4  7  1  0
  7  8  1  0
  8  9  1  0
  8  4  1  0
  1 10  1  0
  3 11  1  0
  3 12  1  0
  5 13  1  0
  5 14  1  0
  6 15  1  0
  7 16  1  0
  7 17  1  0
  8 18  1  0
  9 19  1  0
M  END
