
     RDKit          3D

 21 21  0  0  0  0  0  0  0  0999 V2000
   -1.6894    1.5931   -1.3311 C   0  0  0  0  0  0  0  0  0  0  0  0
   -1.4710    0.4474   -1.1964 C   0  0  0  0  0  0  0  0  0  0  0  0
   -1.1930   -0.9504   -1.0255 C   0  0  0  0  0  0  0  0  0  0  0  0
   -0.4536   -1.6316   -2.0971 C   0  0  0  0  0  0  0  0  0  0  0  0
   -1.8753   -1.6289    0.0374 O   0  0  0  0  0  0  0  0  0  0  0  0
   -0.5228   -1.2578    0.3039 C   0  0  0  0  0  0  0  0  0  0  0  0
   -0.0557   -0.2658    1.2391 C   0  0  0  0  0  0  0  0  0  0  0  0
    1.0640    0.5693    0.6157 C   0  0  0  0  0  0  0  0  0  0  0  0
    1.5210    1.6603    1.5472 C   0  0  0  0  0  0  0  0  0  0  0  0
   -1.9259    2.7596   -1.4596 H   0  0  0  0  0  0  0  0  0  0  0  0
   -0.5293   -1.0280   -3.0619 H   0  0  0  0  0  0  0  0  0  0  0  0
   -0.7907   -2.6422   -2.3288 H   0  0  0  0  0  0  0  0  0  0  0  0
    0.6622   -1.6335   -1.8360 H   0  0  0  0  0  0  0  0  0  0  0  0
    0.1013   -2.2069    0.2901 H   0  0  0  0  0  0  0  0  0  0  0  0
   -0.8930    0.3904    1.6016 H   0  0  0  0  0  0  0  0  0  0  0  0
    0.4372   -0.7041    2.1650 H   0  0  0  0  0  0  0  0  0  0  0  0
    1.9172   -0.1884    0.4927 H   0  0  0  0  0  0  0  0  0  0  0  0
    0.7438    0.9921   -0.3137 H   0  0  0  0  0  0  0  0  0  0  0  0
    0.7023    1.9973    2.2207 H   0  0  0  0  0  0  0  0  0  0  0  0
    1.9443    2.4900    0.9160 H   0  0  0  0  0  0  0  0  0  0  0  0
    2.3064    1.2383    2.2003 H   0  0  0  0  0  0  0  0  0  0  0  0
  1  2  3  0
  2  3  1  0
  3  4  1  0
  3  5  1  0
  5  6  1  0
  6  7  1  0
  7  8  1  0
  8  9  1  0
  6  3  1  0
  1 10  1  0
  4 11  1  0
  4 12  1  0
  4 13  1  0
  6 14  1  0
  7 15  1  0
  7 16  1  0
  8 17  1  0
  8 18  1  0
  9 19  1  0
  9 20  1  0
  9 21  1  0
M  END
