
     RDKit          3D

 21 21  0  0  0  0  0  0  0  0999 V2000
    3.3335   -1.4230   -0.2304 C   0  0  0  0  0  0  0  0  0  0  0  0
    2.1188   -1.5506   -0.3086 C   0  0  0  0  0  0  0  0  0  0  0  0
    0.6635   -1.6948   -0.3868 C   0  0  0  0  0  0  0  0  0  0  0  0
    0.0766   -0.3498    0.0656 C   0  0  0  0  0  0  0  0  0  0  0  0
    0.4649    0.0340    1.4777 C   0  0  0  0  0  0  0  0  0  0  0  0
    0.1208    0.6923   -1.0091 C   0  0  0  0  0  0  0  0  0  0  0  0
   -1.1955    0.0414   -0.5286 C   0  0  0  0  0  0  0  0  0  0  0  0
   -2.1396    1.0101    0.1241 C   0  0  0  0  0  0  0  0  0  0  0  0
   -1.5405    2.2637    0.3188 O   0  0  0  0  0  0  0  0  0  0  0  0
    4.3828   -1.3087   -0.1447 H   0  0  0  0  0  0  0  0  0  0  0  0
    0.3808   -1.9330   -1.4164 H   0  0  0  0  0  0  0  0  0  0  0  0
    0.2842   -2.5080    0.2589 H   0  0  0  0  0  0  0  0  0  0  0  0
    1.2500   -0.6415    1.8873 H   0  0  0  0  0  0  0  0  0  0  0  0
    0.9006    1.0540    1.4275 H   0  0  0  0  0  0  0  0  0  0  0  0
   -0.3832   -0.0214    2.1867 H   0  0  0  0  0  0  0  0  0  0  0  0
    0.3415    1.7107   -0.6554 H   0  0  0  0  0  0  0  0  0  0  0  0
    0.3993    0.4430   -2.0424 H   0  0  0  0  0  0  0  0  0  0  0  0
   -1.6827   -0.6753   -1.2295 H   0  0  0  0  0  0  0  0  0  0  0  0
   -2.5248    0.6800    1.0944 H   0  0  0  0  0  0  0  0  0  0  0  0
   -3.0179    1.1839   -0.5312 H   0  0  0  0  0  0  0  0  0  0  0  0
   -2.2333    2.9929    0.2589 H   0  0  0  0  0  0  0  0  0  0  0  0
  1  2  3  0
  2  3  1  0
  3  4  1  0
  4  5  1  0
  4  6  1  0
  6  7  1  0
  7  8  1  0
  8  9  1  0
  7  4  1  0
  1 10  1  0
  3 11  1  0
  3 12  1  0
  5 13  1  0
  5 14  1  0
  5 15  1  0
  6 16  1  0
  6 17  1  0
  7 18  1  0
  8 19  1  0
  8 20  1  0
  9 21  1  0
M  END
