
     RDKit          3D

 18 17  0  0  0  0  0  0  0  0999 V2000
    0.5465    2.1220    1.1933 C   0  0  0  0  0  0  0  0  0  0  0  0
   -0.0609    1.3068    0.6500 C   0  0  0  0  0  0  0  0  0  0  0  0
   -0.9046    0.1714   -0.1008 C   0  0  0  0  0  0  0  0  0  0  0  0
   -2.1708    0.5608   -0.0535 O   0  0  0  0  0  0  0  0  0  0  0  0
   -0.1663    0.0993   -1.3720 C   0  0  0  0  0  0  0  0  0  0  0  0
    1.3088   -0.3347   -1.1783 C   0  0  0  0  0  0  0  0  0  0  0  0
   -0.6667   -1.0375    0.8024 C   0  0  0  0  0  0  0  0  0  0  0  0
    0.6150   -1.5253    0.8213 O   0  0  0  0  0  0  0  0  0  0  0  0
    1.1634    2.9833    1.7666 H   0  0  0  0  0  0  0  0  0  0  0  0
   -2.4228    0.5714    0.9450 H   0  0  0  0  0  0  0  0  0  0  0  0
   -0.6128   -0.3917   -2.2314 H   0  0  0  0  0  0  0  0  0  0  0  0
   -0.0339    1.2091   -1.7151 H   0  0  0  0  0  0  0  0  0  0  0  0
    1.8857    0.0703   -2.0596 H   0  0  0  0  0  0  0  0  0  0  0  0
    1.6901    0.1264   -0.2914 H   0  0  0  0  0  0  0  0  0  0  0  0
    1.4087   -1.4189   -1.2753 H   0  0  0  0  0  0  0  0  0  0  0  0
   -0.8316   -0.6299    1.8519 H   0  0  0  0  0  0  0  0  0  0  0  0
   -1.4538   -1.7769    0.6083 H   0  0  0  0  0  0  0  0  0  0  0  0
    0.7061   -2.1058    1.6385 H   0  0  0  0  0  0  0  0  0  0  0  0
  1  2  3  0
  2  3  1  0
  3  4  1  0
  3  5  1  0
  5  6  1  0
  3  7  1  0
  7  8  1  0
  1  9  1  0
  4 10  1  0
  5 11  1  0
  5 12  1  0
  6 13  1  0
  6 14  1  0
  6 15  1  0
  7 16  1  0
  7 17  1  0
  8 18  1  0
M  END
