
     RDKit          3D

 19 20  0  0  0  0  0  0  0  0999 V2000
    2.8075    0.9545   -0.8464 C   0  0  0  0  0  0  0  0  0  0  0  0
    1.8361    0.2674   -0.7158 C   0  0  0  0  0  0  0  0  0  0  0  0
    0.5846   -0.5867   -0.5562 C   0  0  0  0  0  0  0  0  0  0  0  0
    0.8098   -1.9143   -0.4792 O   0  0  0  0  0  0  0  0  0  0  0  0
   -0.3422   -0.1421   -1.6771 C   0  0  0  0  0  0  0  0  0  0  0  0
   -1.2193    0.5147   -0.6544 C   0  0  0  0  0  0  0  0  0  0  0  0
   -0.6659    1.4711    0.2991 C   0  0  0  0  0  0  0  0  0  0  0  0
   -0.3156    0.0315    0.4688 C   0  0  0  0  0  0  0  0  0  0  0  0
   -0.8509   -0.7770    1.5901 C   0  0  0  0  0  0  0  0  0  0  0  0
    3.6705    1.5715   -0.9678 H   0  0  0  0  0  0  0  0  0  0  0  0
    0.9108   -2.3428    0.3710 H   0  0  0  0  0  0  0  0  0  0  0  0
   -0.7654   -1.0402   -2.1791 H   0  0  0  0  0  0  0  0  0  0  0  0
    0.1017    0.6009   -2.3990 H   0  0  0  0  0  0  0  0  0  0  0  0
   -2.2803    0.1241   -0.5417 H   0  0  0  0  0  0  0  0  0  0  0  0
   -1.3528    1.8451    1.0991 H   0  0  0  0  0  0  0  0  0  0  0  0
    0.0575    2.1994   -0.0766 H   0  0  0  0  0  0  0  0  0  0  0  0
   -1.9173   -0.5077    1.7443 H   0  0  0  0  0  0  0  0  0  0  0  0
   -0.7221   -1.8632    1.4986 H   0  0  0  0  0  0  0  0  0  0  0  0
   -0.3468   -0.4063    2.5318 H   0  0  0  0  0  0  0  0  0  0  0  0
  1  2  3  0
  2  3  1  0
  3  4  1  0
  3  5  1  0
  5  6  1  0
  6  7  1  0
  7  8  1  0
  8  9  1  0
  8  3  1  0
  8  6  1  0
  1 10  1  0
  4 11  1  0
  5 12  1  0
  5 13  1  0
  6 14  1  0
  7 15  1  0
  7 16  1  0
  9 17  1  0
  9 18  1  0
  9 19  1  0
M  END
