
     RDKit          3D

 17 17  0  0  0  0  0  0  0  0999 V2000
    3.2520   -0.8154    0.2651 C   0  0  0  0  0  0  0  0  0  0  0  0
    1.9780   -0.3323   -0.4913 C   0  0  0  0  0  0  0  0  0  0  0  0
    0.5814    0.1778   -1.3447 C   0  0  0  0  0  0  0  0  0  0  0  0
    0.6069    0.9612   -0.4357 C   0  0  0  0  0  0  0  0  0  0  0  0
    0.6615    2.1331    0.9407 C   0  0  0  0  0  0  0  0  0  0  0  0
   -0.1990   -1.1943   -0.5960 C   0  0  0  0  0  0  0  0  0  0  0  0
   -1.4617   -1.3726   -1.1929 O   0  0  0  0  0  0  0  0  0  0  0  0
   -1.3509   -0.8248    0.1608 C   0  0  0  0  0  0  0  0  0  0  0  0
   -2.0579    0.5261    0.3543 C   0  0  0  0  0  0  0  0  0  0  0  0
    4.0879   -1.1517    0.7655 H   0  0  0  0  0  0  0  0  0  0  0  0
    0.9690    0.0191   -2.2176 H   0  0  0  0  0  0  0  0  0  0  0  0
    0.7001    2.7904    1.7180 H   0  0  0  0  0  0  0  0  0  0  0  0
    0.4716   -1.9624   -0.3251 H   0  0  0  0  0  0  0  0  0  0  0  0
   -1.5644   -1.4804    1.0033 H   0  0  0  0  0  0  0  0  0  0  0  0
   -1.6515    1.2934   -0.3152 H   0  0  0  0  0  0  0  0  0  0  0  0
   -1.8759    0.8555    1.4266 H   0  0  0  0  0  0  0  0  0  0  0  0
   -3.1470    0.3773    0.2842 H   0  0  0  0  0  0  0  0  0  0  0  0
  1  2  3  0
  2  3  1  0
  3  4  1  0
  4  5  3  0
  3  6  1  0
  6  7  1  0
  7  8  1  0
  8  9  1  0
  8  6  1  0
  1 10  1  0
  3 11  1  0
  5 12  1  0
  6 13  1  0
  8 14  1  0
  9 15  1  0
  9 16  1  0
  9 17  1  0
M  END
