
     RDKit          3D

 18 18  0  0  0  0  0  0  0  0999 V2000
    1.0896    0.3155    2.5893 C   0  0  0  0  0  0  0  0  0  0  0  0
    0.8783    0.0096    1.4414 C   0  0  0  0  0  0  0  0  0  0  0  0
    0.6007   -0.3475    0.0485 C   0  0  0  0  0  0  0  0  0  0  0  0
    1.8020   -0.5785   -0.8542 C   0  0  0  0  0  0  0  0  0  0  0  0
   -0.5633   -1.2382   -0.2542 C   0  0  0  0  0  0  0  0  0  0  0  0
   -0.6572    0.2417   -0.5726 C   0  0  0  0  0  0  0  0  0  0  0  0
   -1.6148    0.9931    0.2997 C   0  0  0  0  0  0  0  0  0  0  0  0
   -0.4765    0.6628   -1.8820 O   0  0  0  0  0  0  0  0  0  0  0  0
    1.2694    0.5729    3.6198 H   0  0  0  0  0  0  0  0  0  0  0  0
    1.4358   -0.7832   -1.8701 H   0  0  0  0  0  0  0  0  0  0  0  0
    2.3179   -1.4868   -0.4953 H   0  0  0  0  0  0  0  0  0  0  0  0
    2.4799    0.2911   -0.8796 H   0  0  0  0  0  0  0  0  0  0  0  0
   -0.5381   -1.8727   -1.1606 H   0  0  0  0  0  0  0  0  0  0  0  0
   -1.1503   -1.6552    0.5680 H   0  0  0  0  0  0  0  0  0  0  0  0
   -2.5995    0.4595    0.2410 H   0  0  0  0  0  0  0  0  0  0  0  0
   -1.3352    1.0289    1.3553 H   0  0  0  0  0  0  0  0  0  0  0  0
   -1.8278    2.0133   -0.1251 H   0  0  0  0  0  0  0  0  0  0  0  0
   -1.1108    1.3736   -2.0694 H   0  0  0  0  0  0  0  0  0  0  0  0
  1  2  3  0
  2  3  1  0
  3  4  1  0
  3  5  1  0
  5  6  1  0
  6  7  1  0
  6  8  1  0
  6  3  1  0
  1  9  1  0
  4 10  1  0
  4 11  1  0
  4 12  1  0
  5 13  1  0
  5 14  1  0
  7 15  1  0
  7 16  1  0
  7 17  1  0
  8 18  1  0
M  END
