
     RDKit          3D

 21 22  0  0  0  0  0  0  0  0999 V2000
   -1.9026    2.4565   -0.3292 C   0  0  0  0  0  0  0  0  0  0  0  0
   -1.0916    1.5809   -0.0573 C   0  0  0  0  0  0  0  0  0  0  0  0
   -0.1466    0.5259    0.2732 C   0  0  0  0  0  0  0  0  0  0  0  0
   -0.6718   -0.5264    1.2176 C   0  0  0  0  0  0  0  0  0  0  0  0
   -1.0159   -1.6530    0.2515 C   0  0  0  0  0  0  0  0  0  0  0  0
    0.2056   -1.6287   -0.6559 C   0  0  0  0  0  0  0  0  0  0  0  0
    0.3664   -0.1722   -0.9407 C   0  0  0  0  0  0  0  0  0  0  0  0
    1.7342    0.4108   -0.6513 C   0  0  0  0  0  0  0  0  0  0  0  0
    1.2072    1.0805    0.6123 C   0  0  0  0  0  0  0  0  0  0  0  0
   -2.5982    3.2245   -0.5518 H   0  0  0  0  0  0  0  0  0  0  0  0
   -1.5592   -0.1149    1.7204 H   0  0  0  0  0  0  0  0  0  0  0  0
    0.1246   -0.8551    1.9118 H   0  0  0  0  0  0  0  0  0  0  0  0
   -1.9353   -1.3520   -0.2917 H   0  0  0  0  0  0  0  0  0  0  0  0
   -1.1484   -2.6130    0.7642 H   0  0  0  0  0  0  0  0  0  0  0  0
    0.0005   -2.2461   -1.5457 H   0  0  0  0  0  0  0  0  0  0  0  0
    1.0469   -2.0450   -0.0433 H   0  0  0  0  0  0  0  0  0  0  0  0
   -0.0710    0.1456   -1.9106 H   0  0  0  0  0  0  0  0  0  0  0  0
    2.5353   -0.3134   -0.5007 H   0  0  0  0  0  0  0  0  0  0  0  0
    1.9895    1.1938   -1.3960 H   0  0  0  0  0  0  0  0  0  0  0  0
    1.6812    0.7123    1.5281 H   0  0  0  0  0  0  0  0  0  0  0  0
    1.2491    2.1889    0.5953 H   0  0  0  0  0  0  0  0  0  0  0  0
  1  2  3  0
  2  3  1  0
  3  4  1  0
  4  5  1  0
  5  6  1  0
  6  7  1  0
  7  8  1  0
  8  9  1  0
  7  3  1  0
  9  3  1  0
  1 10  1  0
  4 11  1  0
  4 12  1  0
  5 13  1  0
  5 14  1  0
  6 15  1  0
  6 16  1  0
  7 17  1  0
  8 18  1  0
  8 19  1  0
  9 20  1  0
  9 21  1  0
M  END
