
     RDKit          3D

 16 16  0  0  0  0  0  0  0  0999 V2000
    2.8219    2.2362    0.3029 C   0  0  0  0  0  0  0  0  0  0  0  0
    1.3204    1.5922   -0.4641 C   0  0  0  0  0  0  0  0  0  0  0  0
    0.2676    1.1573   -1.0162 C   0  0  0  0  0  0  0  0  0  0  0  0
   -0.0056    0.0388   -0.1513 O   0  0  0  0  0  0  0  0  0  0  0  0
   -0.8981   -0.8209   -0.6382 C   0  0  0  0  0  0  0  0  0  0  0  0
   -1.2785   -1.8999    0.3742 C   0  0  0  0  0  0  0  0  0  0  0  0
   -0.8511   -1.9844    1.6992 C   0  0  0  0  0  0  0  0  0  0  0  0
   -0.0715   -2.8097    0.7037 O   0  0  0  0  0  0  0  0  0  0  0  0
    3.8119    2.6535    0.8038 H   0  0  0  0  0  0  0  0  0  0  0  0
    0.8358    0.4090   -1.9180 H   0  0  0  0  0  0  0  0  0  0  0  0
   -0.2152    1.8673   -1.5697 H   0  0  0  0  0  0  0  0  0  0  0  0
   -1.7794   -0.3102   -1.0718 H   0  0  0  0  0  0  0  0  0  0  0  0
   -0.4732   -1.5026   -1.4942 H   0  0  0  0  0  0  0  0  0  0  0  0
   -1.8668   -2.6977   -0.2059 H   0  0  0  0  0  0  0  0  0  0  0  0
   -1.4579   -2.7286    2.3523 H   0  0  0  0  0  0  0  0  0  0  0  0
   -0.1602   -1.3399    2.2934 H   0  0  0  0  0  0  0  0  0  0  0  0
  1  2  3  0
  2  3  1  0
  3  4  1  0
  4  5  1  0
  5  6  1  0
  6  7  1  0
  7  8  1  0
  8  6  1  0
  1  9  1  0
  3 10  1  0
  3 11  1  0
  5 12  1  0
  5 13  1  0
  6 14  1  0
  7 15  1  0
  7 16  1  0
M  END
