
     RDKit          3D

 19 19  0  0  0  0  0  0  0  0999 V2000
    2.1287    1.5333    1.8972 C   0  0  0  0  0  0  0  0  0  0  0  0
    1.7938    0.8640    0.9685 C   0  0  0  0  0  0  0  0  0  0  0  0
    1.4026    0.0573   -0.1802 C   0  0  0  0  0  0  0  0  0  0  0  0
    2.1055   -1.1227   -0.3995 O   0  0  0  0  0  0  0  0  0  0  0  0
    0.6749    0.6089   -1.2958 C   0  0  0  0  0  0  0  0  0  0  0  0
   -0.1648   -0.0528   -0.3143 C   0  0  0  0  0  0  0  0  0  0  0  0
   -0.6316   -1.4644   -0.2944 C   0  0  0  0  0  0  0  0  0  0  0  0
   -0.8996    0.8205    0.5103 O   0  0  0  0  0  0  0  0  0  0  0  0
   -2.2376    0.5788    0.2282 C   0  0  0  0  0  0  0  0  0  0  0  0
    2.4229    2.1540    2.7586 H   0  0  0  0  0  0  0  0  0  0  0  0
    2.0041   -1.8076    0.2828 H   0  0  0  0  0  0  0  0  0  0  0  0
    0.6335    1.7239   -1.3706 H   0  0  0  0  0  0  0  0  0  0  0  0
    0.8609    0.1700   -2.3020 H   0  0  0  0  0  0  0  0  0  0  0  0
   -1.4680   -1.6520   -1.0291 H   0  0  0  0  0  0  0  0  0  0  0  0
    0.1830   -2.1640   -0.6130 H   0  0  0  0  0  0  0  0  0  0  0  0
   -0.9461   -1.7882    0.7226 H   0  0  0  0  0  0  0  0  0  0  0  0
   -2.8850    1.2521    0.8445 H   0  0  0  0  0  0  0  0  0  0  0  0
   -2.5061    0.7770   -0.8332 H   0  0  0  0  0  0  0  0  0  0  0  0
   -2.4713   -0.4882    0.4194 H   0  0  0  0  0  0  0  0  0  0  0  0
  1  2  3  0
  2  3  1  0
  3  4  1  0
  3  5  1  0
  5  6  1  0
  6  7  1  0
  6  8  1  0
  8  9  1  0
  6  3  1  0
  1 10  1  0
  4 11  1  0
  5 12  1  0
  5 13  1  0
  7 14  1  0
  7 15  1  0
  7 16  1  0
  9 17  1  0
  9 18  1  0
  9 19  1  0
M  END
