
     RDKit          3D

 17 16  0  0  0  0  0  0  0  0999 V2000
   -2.4636    1.1822   -0.0917 C   0  0  0  0  0  0  0  0  0  0  0  0
   -1.6619    0.5310    0.2106 C   0  0  0  0  0  0  0  0  0  0  0  0
   -0.2950   -0.6005    0.7599 C   0  0  0  0  0  0  0  0  0  0  0  0
   -1.4569   -1.6078    1.0421 C   0  0  0  0  0  0  0  0  0  0  0  0
   -2.3431   -1.7044    1.7522 O   0  0  0  0  0  0  0  0  0  0  0  0
    0.1073   -0.7673   -0.3464 O   0  0  0  0  0  0  0  0  0  0  0  0
    0.5029    0.1946   -1.1455 C   0  0  0  0  0  0  0  0  0  0  0  0
    1.9596    0.8793   -0.6167 C   0  0  0  0  0  0  0  0  0  0  0  0
    2.9360   -0.1723   -0.8432 O   0  0  0  0  0  0  0  0  0  0  0  0
   -3.3407    1.8694   -0.4133 H   0  0  0  0  0  0  0  0  0  0  0  0
   -0.2499    0.2530    1.5083 H   0  0  0  0  0  0  0  0  0  0  0  0
   -1.2338   -2.4681    0.1971 H   0  0  0  0  0  0  0  0  0  0  0  0
    1.2387   -0.4424   -1.9735 H   0  0  0  0  0  0  0  0  0  0  0  0
    0.0174    0.9497   -1.6809 H   0  0  0  0  0  0  0  0  0  0  0  0
    2.0155    1.8368   -1.0547 H   0  0  0  0  0  0  0  0  0  0  0  0
    1.8080    0.9557    0.5436 H   0  0  0  0  0  0  0  0  0  0  0  0
    2.4593   -0.8891   -0.2582 H   0  0  0  0  0  0  0  0  0  0  0  0
  1  2  3  0
  2  3  1  0
  3  4  1  0
  4  5  2  0
  3  6  1  0
  6  7  1  0
  7  8  1  0
  8  9  1  0
  1 10  1  0
  3 11  1  0
  4 12  1  0
  7 13  1  0
  7 14  1  0
  8 15  1  0
  8 16  1  0
  9 17  1  0
M  END
