
     RDKit          3D

 12 13  0  0  0  0  0  0  0  0999 V2000
    2.2956   -0.8626   -0.9478 C   0  0  0  0  0  0  0  0  0  0  0  0
    1.2968   -0.8175   -0.2483 C   0  0  0  0  0  0  0  0  0  0  0  0
    0.0982   -0.7657    0.5927 C   0  0  0  0  0  0  0  0  0  0  0  0
   -0.3231    0.6140    1.0445 C   0  0  0  0  0  0  0  0  0  0  0  0
   -0.1718    1.7051    0.1573 O   0  0  0  0  0  0  0  0  0  0  0  0
   -1.0302    1.0692   -0.7221 C   0  0  0  0  0  0  0  0  0  0  0  0
   -1.5418    1.4121   -1.8282 O   0  0  0  0  0  0  0  0  0  0  0  0
   -1.1446   -0.1552    0.0795 C   0  0  0  0  0  0  0  0  0  0  0  0
    3.1690   -0.8850   -1.5501 H   0  0  0  0  0  0  0  0  0  0  0  0
    0.1032   -1.5062    1.4130 H   0  0  0  0  0  0  0  0  0  0  0  0
   -0.6390    0.7835    2.0848 H   0  0  0  0  0  0  0  0  0  0  0  0
   -2.1123   -0.5918    0.3262 H   0  0  0  0  0  0  0  0  0  0  0  0
  1  2  3  0
  2  3  1  0
  3  4  1  0
  4  5  1  0
  5  6  1  0
  6  7  2  0
  6  8  1  0
  8  3  1  0
  8  4  1  0
  1  9  1  0
  3 10  1  0
  4 11  1  0
  8 12  1  0
M  END
