
     RDKit          3D

 17 16  0  0  0  0  0  0  0  0999 V2000
    5.5126   -2.5699   -1.1678 C   0  0  0  0  0  0  0  0  0  0  0  0
    4.1693   -1.9114   -0.9280 C   0  0  0  0  0  0  0  0  0  0  0  0
    2.8455   -1.2492   -0.6838 C   0  0  0  0  0  0  0  0  0  0  0  0
    2.0651   -0.8728   -0.5316 C   0  0  0  0  0  0  0  0  0  0  0  0
    0.6463   -0.1611   -0.2483 C   0  0  0  0  0  0  0  0  0  0  0  0
   -0.1145    0.2343   -0.1042 C   0  0  0  0  0  0  0  0  0  0  0  0
   -1.2579    0.8313    0.1353 C   0  0  0  0  0  0  0  0  0  0  0  0
   -1.9757    2.0607   -0.0839 C   0  0  0  0  0  0  0  0  0  0  0  0
   -2.3503   -0.2974    0.5055 C   0  0  0  0  0  0  0  0  0  0  0  0
    5.9040   -2.7604   -1.2336 H   0  0  0  0  0  0  0  0  0  0  0  0
   -0.9564    1.1234    1.4628 H   0  0  0  0  0  0  0  0  0  0  0  0
   -1.5924    2.8743    0.6983 H   0  0  0  0  0  0  0  0  0  0  0  0
   -3.0670    1.8263    0.4408 H   0  0  0  0  0  0  0  0  0  0  0  0
   -2.2574    2.4125   -0.9925 H   0  0  0  0  0  0  0  0  0  0  0  0
   -3.2944   -0.1629    0.0508 H   0  0  0  0  0  0  0  0  0  0  0  0
   -2.4437   -0.1023    1.6812 H   0  0  0  0  0  0  0  0  0  0  0  0
   -1.8331   -1.2752    0.4463 H   0  0  0  0  0  0  0  0  0  0  0  0
  1  2  3  0
  2  3  1  0
  3  4  3  0
  4  5  1  0
  5  6  3  0
  6  7  1  0
  7  8  1  0
  7  9  1  0
  1 10  1  0
  7 11  1  0
  8 12  1  0
  8 13  1  0
  8 14  1  0
  9 15  1  0
  9 16  1  0
  9 17  1  0
M  END
