
     RDKit          3D

 19 19  0  0  0  0  0  0  0  0999 V2000
   -2.3419    0.5737    0.7689 C   0  0  0  0  0  0  0  0  0  0  0  0
   -1.4017   -0.0988    0.4416 C   0  0  0  0  0  0  0  0  0  0  0  0
   -0.2616   -0.9350    0.0593 C   0  0  0  0  0  0  0  0  0  0  0  0
    0.2583   -1.7353    1.0486 O   0  0  0  0  0  0  0  0  0  0  0  0
   -0.4195   -1.5930   -1.2890 C   0  0  0  0  0  0  0  0  0  0  0  0
    0.2851   -0.5316   -1.8433 O   0  0  0  0  0  0  0  0  0  0  0  0
    0.8398   -0.1754   -0.6404 C   0  0  0  0  0  0  0  0  0  0  0  0
    0.7662    1.2897   -0.2714 C   0  0  0  0  0  0  0  0  0  0  0  0
    0.9292    1.4289    1.2267 C   0  0  0  0  0  0  0  0  0  0  0  0
   -3.1974    1.1625    1.0643 H   0  0  0  0  0  0  0  0  0  0  0  0
   -0.1420   -2.6523    0.9169 H   0  0  0  0  0  0  0  0  0  0  0  0
    0.0530   -2.5893   -1.3799 H   0  0  0  0  0  0  0  0  0  0  0  0
   -1.5060   -1.6189   -1.5541 H   0  0  0  0  0  0  0  0  0  0  0  0
    1.8546   -0.5918   -0.4419 H   0  0  0  0  0  0  0  0  0  0  0  0
    1.5262    1.8958   -0.8187 H   0  0  0  0  0  0  0  0  0  0  0  0
   -0.2328    1.6957   -0.5272 H   0  0  0  0  0  0  0  0  0  0  0  0
    0.5659    0.5453    1.7750 H   0  0  0  0  0  0  0  0  0  0  0  0
    2.0323    1.5778    1.3923 H   0  0  0  0  0  0  0  0  0  0  0  0
    0.3922    2.3521    1.5284 H   0  0  0  0  0  0  0  0  0  0  0  0
  1  2  3  0
  2  3  1  0
  3  4  1  0
  3  5  1  0
  5  6  1  0
  6  7  1  0
  7  8  1  0
  8  9  1  0
  7  3  1  0
  1 10  1  0
  4 11  1  0
  5 12  1  0
  5 13  1  0
  7 14  1  0
  8 15  1  0
  8 16  1  0
  9 17  1  0
  9 18  1  0
  9 19  1  0
M  END
