
     RDKit          3D

 19 18  0  0  0  0  0  0  0  0999 V2000
    0.0690   -0.9929    3.0877 C   0  0  0  0  0  0  0  0  0  0  0  0
    0.2617   -1.0662    1.9097 C   0  0  0  0  0  0  0  0  0  0  0  0
    0.4854   -1.1319    0.4801 C   0  0  0  0  0  0  0  0  0  0  0  0
    0.2318    0.1911   -0.1980 C   0  0  0  0  0  0  0  0  0  0  0  0
   -1.1913    0.6673   -0.0032 C   0  0  0  0  0  0  0  0  0  0  0  0
   -2.1731   -0.2824   -0.5498 C   0  0  0  0  0  0  0  0  0  0  0  0
   -2.3333   -0.3814   -1.7482 O   0  0  0  0  0  0  0  0  0  0  0  0
    0.6065    0.0695   -1.5106 O   0  0  0  0  0  0  0  0  0  0  0  0
    1.6446    0.9536   -1.8105 C   0  0  0  0  0  0  0  0  0  0  0  0
   -0.1171   -0.9077    4.1756 H   0  0  0  0  0  0  0  0  0  0  0  0
   -0.2211   -1.9069    0.0582 H   0  0  0  0  0  0  0  0  0  0  0  0
    1.4837   -1.5157    0.2529 H   0  0  0  0  0  0  0  0  0  0  0  0
    0.8717    0.9634    0.2770 H   0  0  0  0  0  0  0  0  0  0  0  0
   -1.2813    1.6304   -0.5723 H   0  0  0  0  0  0  0  0  0  0  0  0
   -1.3105    0.9186    1.0529 H   0  0  0  0  0  0  0  0  0  0  0  0
   -2.7553   -0.8946    0.1139 H   0  0  0  0  0  0  0  0  0  0  0  0
    2.5516    0.7607   -1.1813 H   0  0  0  0  0  0  0  0  0  0  0  0
    1.9117    0.9614   -2.8889 H   0  0  0  0  0  0  0  0  0  0  0  0
    1.2652    1.9635   -1.4711 H   0  0  0  0  0  0  0  0  0  0  0  0
  1  2  3  0
  2  3  1  0
  3  4  1  0
  4  5  1  0
  5  6  1  0
  6  7  2  0
  4  8  1  0
  8  9  1  0
  1 10  1  0
  3 11  1  0
  3 12  1  0
  4 13  1  0
  5 14  1  0
  5 15  1  0
  6 16  1  0
  9 17  1  0
  9 18  1  0
  9 19  1  0
M  END
