
     RDKit          3D

 17 17  0  0  0  0  0  0  0  0999 V2000
   -1.7019    2.3703   -0.8273 C   0  0  0  0  0  0  0  0  0  0  0  0
   -1.2105    1.6052   -0.0362 C   0  0  0  0  0  0  0  0  0  0  0  0
   -0.5915    0.6849    0.9425 C   0  0  0  0  0  0  0  0  0  0  0  0
    0.7439    0.3384    0.4485 C   0  0  0  0  0  0  0  0  0  0  0  0
    1.8349    0.0415    0.0277 C   0  0  0  0  0  0  0  0  0  0  0  0
    3.1710   -0.3090   -0.5099 C   0  0  0  0  0  0  0  0  0  0  0  0
   -1.4262   -0.5471    1.1562 C   0  0  0  0  0  0  0  0  0  0  0  0
   -1.7604   -1.4720    0.0904 C   0  0  0  0  0  0  0  0  0  0  0  0
   -0.7409   -1.7975    1.1003 O   0  0  0  0  0  0  0  0  0  0  0  0
   -2.1165    3.0484   -1.5259 H   0  0  0  0  0  0  0  0  0  0  0  0
   -0.5283    1.2719    1.8909 H   0  0  0  0  0  0  0  0  0  0  0  0
    3.8448   -0.6623    0.3185 H   0  0  0  0  0  0  0  0  0  0  0  0
    3.6069    0.5688   -1.0403 H   0  0  0  0  0  0  0  0  0  0  0  0
    3.0196   -1.1822   -1.1714 H   0  0  0  0  0  0  0  0  0  0  0  0
   -2.0922   -0.5234    2.0612 H   0  0  0  0  0  0  0  0  0  0  0  0
   -1.3667   -1.3627   -0.9273 H   0  0  0  0  0  0  0  0  0  0  0  0
   -2.6860   -2.0730    0.2024 H   0  0  0  0  0  0  0  0  0  0  0  0
  1  2  3  0
  2  3  1  0
  3  4  1  0
  4  5  3  0
  5  6  1  0
  3  7  1  0
  7  8  1  0
  8  9  1  0
  9  7  1  0
  1 10  1  0
  3 11  1  0
  6 12  1  0
  6 13  1  0
  6 14  1  0
  7 15  1  0
  8 16  1  0
  8 17  1  0
M  END
