
     RDKit          3D

 21 21  0  0  0  0  0  0  0  0999 V2000
   -1.5656    2.2637   -0.0857 C   0  0  0  0  0  0  0  0  0  0  0  0
   -0.8271    1.3693    0.2248 C   0  0  0  0  0  0  0  0  0  0  0  0
    0.1040    0.2805    0.6005 C   0  0  0  0  0  0  0  0  0  0  0  0
    1.5486    0.6058    0.4319 C   0  0  0  0  0  0  0  0  0  0  0  0
    1.9101    0.9473   -0.9965 C   0  0  0  0  0  0  0  0  0  0  0  0
   -0.2319   -0.4907    1.8852 C   0  0  0  0  0  0  0  0  0  0  0  0
   -0.4115   -1.1041    0.5595 C   0  0  0  0  0  0  0  0  0  0  0  0
   -1.8690   -1.2480    0.1106 C   0  0  0  0  0  0  0  0  0  0  0  0
    0.3741   -2.1666    0.1337 O   0  0  0  0  0  0  0  0  0  0  0  0
   -2.2167    3.0586   -0.3796 H   0  0  0  0  0  0  0  0  0  0  0  0
    2.1576   -0.2608    0.7448 H   0  0  0  0  0  0  0  0  0  0  0  0
    1.7647    1.5167    1.0370 H   0  0  0  0  0  0  0  0  0  0  0  0
    1.8423    0.0699   -1.6737 H   0  0  0  0  0  0  0  0  0  0  0  0
    3.0002    1.2247   -0.9752 H   0  0  0  0  0  0  0  0  0  0  0  0
    1.3002    1.7672   -1.3905 H   0  0  0  0  0  0  0  0  0  0  0  0
    0.6186   -0.8694    2.4940 H   0  0  0  0  0  0  0  0  0  0  0  0
   -1.0843   -0.1071    2.4805 H   0  0  0  0  0  0  0  0  0  0  0  0
   -2.2444   -2.2254    0.4893 H   0  0  0  0  0  0  0  0  0  0  0  0
   -1.9121   -1.1774   -0.9916 H   0  0  0  0  0  0  0  0  0  0  0  0
   -2.4935   -0.4581    0.5648 H   0  0  0  0  0  0  0  0  0  0  0  0
    0.2355   -2.9959    0.6368 H   0  0  0  0  0  0  0  0  0  0  0  0
  1  2  3  0
  2  3  1  0
  3  4  1  0
  4  5  1  0
  3  6  1  0
  6  7  1  0
  7  8  1  0
  7  9  1  0
  7  3  1  0
  1 10  1  0
  4 11  1  0
  4 12  1  0
  5 13  1  0
  5 14  1  0
  5 15  1  0
  6 16  1  0
  6 17  1  0
  8 18  1  0
  8 19  1  0
  8 20  1  0
  9 21  1  0
M  END
