
     RDKit          3D

 13 14  0  0  0  0  0  0  0  0999 V2000
    1.1890    1.4422   -1.9091 C   0  0  0  0  0  0  0  0  0  0  0  0
    0.3983    0.7303   -1.2930 C   0  0  0  0  0  0  0  0  0  0  0  0
   -0.5514   -0.1258   -0.5821 C   0  0  0  0  0  0  0  0  0  0  0  0
   -0.8869    0.3999    0.7902 C   0  0  0  0  0  0  0  0  0  0  0  0
    0.1612   -0.4985    1.3539 C   0  0  0  0  0  0  0  0  0  0  0  0
    1.3697   -0.7195    0.7362 O   0  0  0  0  0  0  0  0  0  0  0  0
    0.2404   -1.2130    0.1580 C   0  0  0  0  0  0  0  0  0  0  0  0
    1.8713    2.0421   -2.4516 H   0  0  0  0  0  0  0  0  0  0  0  0
   -1.3635   -0.4936   -1.1930 H   0  0  0  0  0  0  0  0  0  0  0  0
   -1.8990    0.0668    1.0985 H   0  0  0  0  0  0  0  0  0  0  0  0
   -0.6876    1.4798    0.9336 H   0  0  0  0  0  0  0  0  0  0  0  0
    0.1118   -0.8537    2.3988 H   0  0  0  0  0  0  0  0  0  0  0  0
    0.0467   -2.2568   -0.0404 H   0  0  0  0  0  0  0  0  0  0  0  0
  1  2  3  0
  2  3  1  0
  3  4  1  0
  4  5  1  0
  5  6  1  0
  6  7  1  0
  7  3  1  0
  7  5  1  0
  1  8  1  0
  3  9  1  0
  4 10  1  0
  4 11  1  0
  5 12  1  0
  7 13  1  0
M  END
