
     RDKit          3D

 16 16  0  0  0  0  0  0  0  0999 V2000
    3.2782   -0.3717    0.1603 C   0  0  0  0  0  0  0  0  0  0  0  0
    2.1661   -0.7758   -0.0693 C   0  0  0  0  0  0  0  0  0  0  0  0
    0.8252   -1.2895   -0.3509 C   0  0  0  0  0  0  0  0  0  0  0  0
   -0.1742   -0.3566    0.2802 C   0  0  0  0  0  0  0  0  0  0  0  0
   -0.0777    1.0141   -0.2418 C   0  0  0  0  0  0  0  0  0  0  0  0
   -1.3195    1.4439   -0.4205 C   0  0  0  0  0  0  0  0  0  0  0  0
   -2.2424    0.3313   -0.0067 C   0  0  0  0  0  0  0  0  0  0  0  0
   -1.4527   -0.7888   -0.1126 O   0  0  0  0  0  0  0  0  0  0  0  0
    4.2694   -0.0069    0.3769 H   0  0  0  0  0  0  0  0  0  0  0  0
    0.6843   -2.2931    0.0859 H   0  0  0  0  0  0  0  0  0  0  0  0
    0.6250   -1.2815   -1.4517 H   0  0  0  0  0  0  0  0  0  0  0  0
   -0.1454   -0.3692    1.3799 H   0  0  0  0  0  0  0  0  0  0  0  0
    0.8376    1.5462   -0.4342 H   0  0  0  0  0  0  0  0  0  0  0  0
   -1.5895    2.4234   -0.7975 H   0  0  0  0  0  0  0  0  0  0  0  0
   -3.0904    0.3163   -0.7242 H   0  0  0  0  0  0  0  0  0  0  0  0
   -2.5940    0.4580    1.0382 H   0  0  0  0  0  0  0  0  0  0  0  0
  1  2  3  0
  2  3  1  0
  3  4  1  0
  4  5  1  0
  5  6  2  0
  6  7  1  0
  7  8  1  0
  8  4  1  0
  1  9  1  0
  3 10  1  0
  3 11  1  0
  4 12  1  0
  5 13  1  0
  6 14  1  0
  7 15  1  0
  7 16  1  0
M  END
