
     RDKit          3D

 21 21  0  0  0  0  0  0  0  0999 V2000
    2.9427   -0.8289    0.3108 C   0  0  0  0  0  0  0  0  0  0  0  0
    1.8079   -0.5371    0.7301 C   0  0  0  0  0  0  0  0  0  0  0  0
    0.5577   -0.2094    1.1700 C   0  0  0  0  0  0  0  0  0  0  0  0
    0.4061   -0.2060    2.7346 C   0  0  0  0  0  0  0  0  0  0  0  0
   -0.6012   -1.0687    0.6804 O   0  0  0  0  0  0  0  0  0  0  0  0
   -0.5067    0.3583    0.4120 C   0  0  0  0  0  0  0  0  0  0  0  0
   -0.4115    0.6218   -1.0983 C   0  0  0  0  0  0  0  0  0  0  0  0
   -0.1375   -0.6934   -1.8169 C   0  0  0  0  0  0  0  0  0  0  0  0
   -1.7061    1.1891   -1.6105 C   0  0  0  0  0  0  0  0  0  0  0  0
    3.9707   -1.1071   -0.0781 H   0  0  0  0  0  0  0  0  0  0  0  0
    1.4317   -0.0228    3.1292 H   0  0  0  0  0  0  0  0  0  0  0  0
   -0.0291   -1.1567    3.0715 H   0  0  0  0  0  0  0  0  0  0  0  0
   -0.3223    0.6048    3.0166 H   0  0  0  0  0  0  0  0  0  0  0  0
   -1.3329    0.8918    0.8770 H   0  0  0  0  0  0  0  0  0  0  0  0
    0.3968    1.3497   -1.2693 H   0  0  0  0  0  0  0  0  0  0  0  0
    0.5926   -0.6190   -2.6358 H   0  0  0  0  0  0  0  0  0  0  0  0
   -1.0621   -1.1467   -2.2536 H   0  0  0  0  0  0  0  0  0  0  0  0
    0.2286   -1.3642   -0.9758 H   0  0  0  0  0  0  0  0  0  0  0  0
   -1.5878    2.0768   -2.2574 H   0  0  0  0  0  0  0  0  0  0  0  0
   -2.2275    0.4152   -2.2349 H   0  0  0  0  0  0  0  0  0  0  0  0
   -2.4102    1.4523   -0.7830 H   0  0  0  0  0  0  0  0  0  0  0  0
  1  2  3  0
  2  3  1  0
  3  4  1  0
  3  5  1  0
  5  6  1  0
  6  7  1  0
  7  8  1  0
  7  9  1  0
  6  3  1  0
  1 10  1  0
  4 11  1  0
  4 12  1  0
  4 13  1  0
  6 14  1  0
  7 15  1  0
  8 16  1  0
  8 17  1  0
  8 18  1  0
  9 19  1  0
  9 20  1  0
  9 21  1  0
M  END
