
     RDKit          3D

 19 20  0  0  0  0  0  0  0  0999 V2000
    2.8344   -1.3864   -0.3666 C   0  0  0  0  0  0  0  0  0  0  0  0
    1.8312   -0.7300   -0.2196 C   0  0  0  0  0  0  0  0  0  0  0  0
    0.6158    0.0462   -0.0437 C   0  0  0  0  0  0  0  0  0  0  0  0
   -0.0155    0.0038    1.3104 C   0  0  0  0  0  0  0  0  0  0  0  0
   -1.4789    0.1573    1.0364 C   0  0  0  0  0  0  0  0  0  0  0  0
   -1.6677   -0.5506   -0.2708 C   0  0  0  0  0  0  0  0  0  0  0  0
   -0.4589   -0.1726   -1.0688 C   0  0  0  0  0  0  0  0  0  0  0  0
   -0.4716    1.1895   -1.3805 O   0  0  0  0  0  0  0  0  0  0  0  0
    0.7107    1.3927   -0.6548 C   0  0  0  0  0  0  0  0  0  0  0  0
    3.7191   -1.9637   -0.5048 H   0  0  0  0  0  0  0  0  0  0  0  0
    0.2454   -0.9803    1.7638 H   0  0  0  0  0  0  0  0  0  0  0  0
    0.3652    0.8591    1.8931 H   0  0  0  0  0  0  0  0  0  0  0  0
   -1.7213    1.2296    0.9331 H   0  0  0  0  0  0  0  0  0  0  0  0
   -2.0557   -0.3433    1.8348 H   0  0  0  0  0  0  0  0  0  0  0  0
   -1.8164   -1.6365   -0.1706 H   0  0  0  0  0  0  0  0  0  0  0  0
   -2.5693   -0.1458   -0.8118 H   0  0  0  0  0  0  0  0  0  0  0  0
   -0.2037   -0.8076   -1.9245 H   0  0  0  0  0  0  0  0  0  0  0  0
    1.5340    1.5700   -1.3697 H   0  0  0  0  0  0  0  0  0  0  0  0
    0.6033    2.2685    0.0143 H   0  0  0  0  0  0  0  0  0  0  0  0
  1  2  3  0
  2  3  1  0
  3  4  1  0
  4  5  1  0
  5  6  1  0
  6  7  1  0
  7  8  1  0
  8  9  1  0
  7  3  1  0
  9  3  1  0
  1 10  1  0
  4 11  1  0
  4 12  1  0
  5 13  1  0
  5 14  1  0
  6 15  1  0
  6 16  1  0
  7 17  1  0
  9 18  1  0
  9 19  1  0
M  END
