
     RDKit          3D

 17 17  0  0  0  0  0  0  0  0999 V2000
   -2.1076   -2.3387    0.8352 C   0  0  0  0  0  0  0  0  0  0  0  0
   -1.8621   -1.1643    0.7069 C   0  0  0  0  0  0  0  0  0  0  0  0
   -1.5829    0.2535    0.5333 C   0  0  0  0  0  0  0  0  0  0  0  0
   -2.4038    0.9097   -0.5201 C   0  0  0  0  0  0  0  0  0  0  0  0
   -0.1564    0.3717    0.1870 C   0  0  0  0  0  0  0  0  0  0  0  0
    1.0134    0.4851   -0.0867 C   0  0  0  0  0  0  0  0  0  0  0  0
    2.4414    0.6212   -0.4229 C   0  0  0  0  0  0  0  0  0  0  0  0
    3.3689   -0.3696    0.0932 C   0  0  0  0  0  0  0  0  0  0  0  0
    3.2756    0.8390    0.8085 O   0  0  0  0  0  0  0  0  0  0  0  0
   -2.3319   -3.3674    0.9586 H   0  0  0  0  0  0  0  0  0  0  0  0
   -1.7905    0.7463    1.5250 H   0  0  0  0  0  0  0  0  0  0  0  0
   -2.9102    0.2126   -1.2134 H   0  0  0  0  0  0  0  0  0  0  0  0
   -1.7925    1.5868   -1.1721 H   0  0  0  0  0  0  0  0  0  0  0  0
   -3.1732    1.5638   -0.0571 H   0  0  0  0  0  0  0  0  0  0  0  0
    2.7055    1.4117   -1.1312 H   0  0  0  0  0  0  0  0  0  0  0  0
    4.3686   -0.4971   -0.3712 H   0  0  0  0  0  0  0  0  0  0  0  0
    2.9378   -1.2645    0.5850 H   0  0  0  0  0  0  0  0  0  0  0  0
  1  2  3  0
  2  3  1  0
  3  4  1  0
  3  5  1  0
  5  6  3  0
  6  7  1  0
  7  8  1  0
  8  9  1  0
  9  7  1  0
  1 10  1  0
  3 11  1  0
  4 12  1  0
  4 13  1  0
  4 14  1  0
  7 15  1  0
  8 16  1  0
  8 17  1  0
M  END
