
     RDKit          3D

 17 17  0  0  0  0  0  0  0  0999 V2000
    3.9590    0.5124   -0.4117 C   0  0  0  0  0  0  0  0  0  0  0  0
    2.9387   -0.0195   -0.1676 C   0  0  0  0  0  0  0  0  0  0  0  0
    1.6824   -0.6588    0.1530 C   0  0  0  0  0  0  0  0  0  0  0  0
    1.6008   -1.2980    1.2177 O   0  0  0  0  0  0  0  0  0  0  0  0
    0.5077   -0.5632   -0.7381 C   0  0  0  0  0  0  0  0  0  0  0  0
   -0.8069   -0.3584    0.0190 C   0  0  0  0  0  0  0  0  0  0  0  0
   -2.0163   -0.2912   -0.8276 C   0  0  0  0  0  0  0  0  0  0  0  0
   -2.1419    1.0829   -0.2462 C   0  0  0  0  0  0  0  0  0  0  0  0
   -0.9501    0.9870    0.4273 O   0  0  0  0  0  0  0  0  0  0  0  0
    4.9064    1.0183   -0.6232 H   0  0  0  0  0  0  0  0  0  0  0  0
    0.4477   -1.4651   -1.4010 H   0  0  0  0  0  0  0  0  0  0  0  0
    0.6469    0.3105   -1.3893 H   0  0  0  0  0  0  0  0  0  0  0  0
   -0.8397   -1.0130    0.8988 H   0  0  0  0  0  0  0  0  0  0  0  0
   -1.9205   -0.3560   -1.9205 H   0  0  0  0  0  0  0  0  0  0  0  0
   -2.8562   -0.9815   -0.5186 H   0  0  0  0  0  0  0  0  0  0  0  0
   -2.1145    1.9293   -0.9914 H   0  0  0  0  0  0  0  0  0  0  0  0
   -3.0437    1.1642    0.4525 H   0  0  0  0  0  0  0  0  0  0  0  0
  1  2  3  0
  2  3  1  0
  3  4  2  0
  3  5  1  0
  5  6  1  0
  6  7  1  0
  7  8  1  0
  8  9  1  0
  9  6  1  0
  1 10  1  0
  5 11  1  0
  5 12  1  0
  6 13  1  0
  7 14  1  0
  7 15  1  0
  8 16  1  0
  8 17  1  0
M  END
