
     RDKit          3D

 17 18  0  0  0  0  0  0  0  0999 V2000
    2.8243    0.5099    1.2643 C   0  0  0  0  0  0  0  0  0  0  0  0
    2.1539   -0.0670    0.4427 C   0  0  0  0  0  0  0  0  0  0  0  0
    1.3515   -0.7898   -0.5714 C   0  0  0  0  0  0  0  0  0  0  0  0
    0.1453   -1.4857   -0.0987 C   0  0  0  0  0  0  0  0  0  0  0  0
   -0.8251   -0.8530    0.8110 C   0  0  0  0  0  0  0  0  0  0  0  0
   -1.5308   -1.2816    1.7027 O   0  0  0  0  0  0  0  0  0  0  0  0
   -0.6296    0.5088    0.2421 C   0  0  0  0  0  0  0  0  0  0  0  0
   -1.8823    1.2478   -0.1207 C   0  0  0  0  0  0  0  0  0  0  0  0
    0.0786   -0.1607   -0.9231 C   0  0  0  0  0  0  0  0  0  0  0  0
    3.4181    1.0289    1.9729 H   0  0  0  0  0  0  0  0  0  0  0  0
    1.9342   -1.2454   -1.3673 H   0  0  0  0  0  0  0  0  0  0  0  0
   -0.1404   -2.4103   -0.6486 H   0  0  0  0  0  0  0  0  0  0  0  0
    0.0524    1.0818    0.8910 H   0  0  0  0  0  0  0  0  0  0  0  0
   -2.5390    0.5301   -0.6728 H   0  0  0  0  0  0  0  0  0  0  0  0
   -1.6044    2.1092   -0.7586 H   0  0  0  0  0  0  0  0  0  0  0  0
   -2.3790    1.5463    0.8254 H   0  0  0  0  0  0  0  0  0  0  0  0
   -0.4278   -0.2693   -1.8780 H   0  0  0  0  0  0  0  0  0  0  0  0
  1  2  3  0
  2  3  1  0
  3  4  1  0
  4  5  1  0
  5  6  2  0
  5  7  1  0
  7  8  1  0
  7  9  1  0
  9  3  1  0
  9  4  1  0
  1 10  1  0
  3 11  1  0
  4 12  1  0
  7 13  1  0
  8 14  1  0
  8 15  1  0
  8 16  1  0
  9 17  1  0
M  END
