
     RDKit          3D

 21 21  0  0  0  0  0  0  0  0999 V2000
   -1.5071    2.9997   -1.1032 C   0  0  0  0  0  0  0  0  0  0  0  0
   -1.0418    1.8435   -0.8944 C   0  0  0  0  0  0  0  0  0  0  0  0
   -0.4838    0.4976   -0.6297 C   0  0  0  0  0  0  0  0  0  0  0  0
   -0.4830   -0.4174   -1.6092 O   0  0  0  0  0  0  0  0  0  0  0  0
   -1.5639   -0.9004   -2.2111 C   0  0  0  0  0  0  0  0  0  0  0  0
   -0.8498    0.1052    0.8045 C   0  0  0  0  0  0  0  0  0  0  0  0
    0.5689    0.3421    0.3970 C   0  0  0  0  0  0  0  0  0  0  0  0
    1.4127   -0.9171    0.4077 C   0  0  0  0  0  0  0  0  0  0  0  0
    2.3355   -0.7456    1.6227 C   0  0  0  0  0  0  0  0  0  0  0  0
   -1.9220    4.0342   -1.2963 H   0  0  0  0  0  0  0  0  0  0  0  0
   -1.2299   -1.6798   -2.9788 H   0  0  0  0  0  0  0  0  0  0  0  0
   -2.2573   -1.4644   -1.5358 H   0  0  0  0  0  0  0  0  0  0  0  0
   -2.0972   -0.1485   -2.8451 H   0  0  0  0  0  0  0  0  0  0  0  0
   -1.2509   -0.8843    1.0402 H   0  0  0  0  0  0  0  0  0  0  0  0
   -1.2188    0.8816    1.4974 H   0  0  0  0  0  0  0  0  0  0  0  0
    1.0912    1.2562    0.7482 H   0  0  0  0  0  0  0  0  0  0  0  0
    0.7898   -1.8111    0.5520 H   0  0  0  0  0  0  0  0  0  0  0  0
    1.9936   -0.9905   -0.5477 H   0  0  0  0  0  0  0  0  0  0  0  0
    3.1593   -0.0270    1.3681 H   0  0  0  0  0  0  0  0  0  0  0  0
    2.7991   -1.6924    1.9095 H   0  0  0  0  0  0  0  0  0  0  0  0
    1.7555   -0.2814    2.4549 H   0  0  0  0  0  0  0  0  0  0  0  0
  1  2  3  0
  2  3  1  0
  3  4  1  0
  4  5  1  0
  3  6  1  0
  6  7  1  0
  7  8  1  0
  8  9  1  0
  7  3  1  0
  1 10  1  0
  5 11  1  0
  5 12  1  0
  5 13  1  0
  6 14  1  0
  6 15  1  0
  7 16  1  0
  8 17  1  0
  8 18  1  0
  9 19  1  0
  9 20  1  0
  9 21  1  0
M  END
