
     RDKit          3D

 21 20  0  0  0  0  0  0  0  0999 V2000
    2.5750    0.8677    0.8220 C   0  0  0  0  0  0  0  0  0  0  0  0
    1.3177   -0.2472    0.5205 C   0  0  0  0  0  0  0  0  0  0  0  0
   -0.3245   -1.6589    0.1558 C   0  0  0  0  0  0  0  0  0  0  0  0
    0.6810   -1.9035    1.7800 C   0  0  0  0  0  0  0  0  0  0  0  0
   -0.6242   -0.2331    0.0533 C   0  0  0  0  0  0  0  0  0  0  0  0
    0.6389   -0.0202   -0.9927 O   0  0  0  0  0  0  0  0  0  0  0  0
   -1.5062    0.1826   -1.0445 C   0  0  0  0  0  0  0  0  0  0  0  0
   -1.8635    1.8914   -0.7622 C   0  0  0  0  0  0  0  0  0  0  0  0
   -0.7228    2.3802   -1.2596 O   0  0  0  0  0  0  0  0  0  0  0  0
    3.6210    1.7810    1.0865 H   0  0  0  0  0  0  0  0  0  0  0  0
    0.7669   -2.0152   -0.2449 H   0  0  0  0  0  0  0  0  0  0  0  0
    0.2253   -2.4985    2.5874 H   0  0  0  0  0  0  0  0  0  0  0  0
    1.2785   -0.9871    2.3130 H   0  0  0  0  0  0  0  0  0  0  0  0
    1.6566   -2.4648    1.5909 H   0  0  0  0  0  0  0  0  0  0  0  0
   -0.3843    0.4729    0.8357 H   0  0  0  0  0  0  0  0  0  0  0  0
    0.3093   -0.8188   -1.6210 H   0  0  0  0  0  0  0  0  0  0  0  0
   -2.2343   -0.2596   -1.6904 H   0  0  0  0  0  0  0  0  0  0  0  0
   -0.7960    0.5132   -2.0482 H   0  0  0  0  0  0  0  0  0  0  0  0
   -2.9144    1.7548   -1.2008 H   0  0  0  0  0  0  0  0  0  0  0  0
   -1.7151    1.6735    0.4480 H   0  0  0  0  0  0  0  0  0  0  0  0
    0.0153    1.5899   -1.3290 H   0  0  0  0  0  0  0  0  0  0  0  0
  1  2  3  0
  2  3  1  0
  3  4  1  0
  3  5  1  0
  5  6  1  0
  5  7  1  0
  7  8  1  0
  8  9  1  0
  1 10  1  0
  3 11  1  0
  4 12  1  0
  4 13  1  0
  4 14  1  0
  5 15  1  0
  6 16  1  0
  7 17  1  0
  7 18  1  0
  8 19  1  0
  8 20  1  0
  9 21  1  0
M  END
