
     RDKit          3D

 15 17  0  0  0  0  0  0  0  0999 V2000
    3.1902    0.1113    0.3401 C   0  0  0  0  0  0  0  0  0  0  0  0
    2.0566    0.1053   -0.0835 C   0  0  0  0  0  0  0  0  0  0  0  0
    0.6646    0.0933   -0.5791 C   0  0  0  0  0  0  0  0  0  0  0  0
   -0.2914    0.8257    0.2986 C   0  0  0  0  0  0  0  0  0  0  0  0
   -1.7536    0.7365    0.0085 C   0  0  0  0  0  0  0  0  0  0  0  0
   -2.0343    0.0560   -1.2827 O   0  0  0  0  0  0  0  0  0  0  0  0
   -1.7673   -0.6124   -0.0715 C   0  0  0  0  0  0  0  0  0  0  0  0
   -0.2740   -0.7360    0.1915 C   0  0  0  0  0  0  0  0  0  0  0  0
    0.1674   -1.4371    1.2821 O   0  0  0  0  0  0  0  0  0  0  0  0
    4.1921    0.0982    0.7130 H   0  0  0  0  0  0  0  0  0  0  0  0
    0.5524    0.2723   -1.6723 H   0  0  0  0  0  0  0  0  0  0  0  0
   -0.0271    1.1776    1.2876 H   0  0  0  0  0  0  0  0  0  0  0  0
   -2.4414    1.5559    0.1141 H   0  0  0  0  0  0  0  0  0  0  0  0
   -2.4399   -1.4076    0.2602 H   0  0  0  0  0  0  0  0  0  0  0  0
    0.2057   -0.8391    2.0526 H   0  0  0  0  0  0  0  0  0  0  0  0
  1  2  3  0
  2  3  1  0
  3  4  1  0
  4  5  1  0
  5  6  1  0
  6  7  1  0
  7  8  1  0
  8  9  1  0
  8  3  1  0
  8  4  1  0
  7  5  1  0
  1 10  1  0
  3 11  1  0
  4 12  1  0
  5 13  1  0
  7 14  1  0
  9 15  1  0
M  END
