
     RDKit          3D

 19 20  0  0  0  0  0  0  0  0999 V2000
    3.2978   -1.0656    0.3029 C   0  0  0  0  0  0  0  0  0  0  0  0
    2.4677   -0.2866   -0.0290 C   0  0  0  0  0  0  0  0  0  0  0  0
    1.4587    0.6767   -0.4124 C   0  0  0  0  0  0  0  0  0  0  0  0
    0.1030    0.1766   -0.3127 C   0  0  0  0  0  0  0  0  0  0  0  0
   -0.3780   -0.2859    1.0718 C   0  0  0  0  0  0  0  0  0  0  0  0
   -1.7229   -0.0005    0.4620 C   0  0  0  0  0  0  0  0  0  0  0  0
   -1.7324   -0.9076   -0.7268 C   0  0  0  0  0  0  0  0  0  0  0  0
   -0.3931   -0.7528   -1.1726 O   0  0  0  0  0  0  0  0  0  0  0  0
   -1.0231    1.2154   -0.1739 C   0  0  0  0  0  0  0  0  0  0  0  0
    4.0404   -1.7495    0.6137 H   0  0  0  0  0  0  0  0  0  0  0  0
    1.5711    1.5729    0.2622 H   0  0  0  0  0  0  0  0  0  0  0  0
    1.6490    1.0350   -1.4405 H   0  0  0  0  0  0  0  0  0  0  0  0
   -0.1374   -1.3181    1.2944 H   0  0  0  0  0  0  0  0  0  0  0  0
   -0.1194    0.4777    1.8423 H   0  0  0  0  0  0  0  0  0  0  0  0
   -2.5722    0.1659    1.0538 H   0  0  0  0  0  0  0  0  0  0  0  0
   -2.3596   -0.4977   -1.5445 H   0  0  0  0  0  0  0  0  0  0  0  0
   -1.9494   -1.9583   -0.4922 H   0  0  0  0  0  0  0  0  0  0  0  0
   -0.7853    1.9979    0.5482 H   0  0  0  0  0  0  0  0  0  0  0  0
   -1.4147    1.5043   -1.1467 H   0  0  0  0  0  0  0  0  0  0  0  0
  1  2  3  0
  2  3  1  0
  3  4  1  0
  4  5  1  0
  5  6  1  0
  6  7  1  0
  7  8  1  0
  6  9  1  0
  8  4  1  0
  9  4  1  0
  1 10  1  0
  3 11  1  0
  3 12  1  0
  5 13  1  0
  5 14  1  0
  6 15  1  0
  7 16  1  0
  7 17  1  0
  9 18  1  0
  9 19  1  0
M  END
