
     RDKit          3D

 14 13  0  0  0  0  0  0  0  0999 V2000
   -1.1866    2.7696    0.6059 C   0  0  0  0  0  0  0  0  0  0  0  0
   -0.7437    1.7964    0.1317 C   0  0  0  0  0  0  0  0  0  0  0  0
   -0.0646    0.2755   -0.5786 C   0  0  0  0  0  0  0  0  0  0  0  0
    1.5473    0.0845    0.1653 C   0  0  0  0  0  0  0  0  0  0  0  0
    2.8676   -0.0801    0.7579 C   0  0  0  0  0  0  0  0  0  0  0  0
   -0.8604   -0.6518   -0.3173 C   0  0  0  0  0  0  0  0  0  0  0  0
   -0.3355   -1.9924   -0.0367 C   0  0  0  0  0  0  0  0  0  0  0  0
   -0.8820   -2.9382   -0.5541 O   0  0  0  0  0  0  0  0  0  0  0  0
   -1.5184    3.4791    0.9647 H   0  0  0  0  0  0  0  0  0  0  0  0
    0.3187    0.7220   -1.4723 H   0  0  0  0  0  0  0  0  0  0  0  0
    3.4936   -0.1674    1.0309 H   0  0  0  0  0  0  0  0  0  0  0  0
   -1.5653   -0.6286   -1.1418 H   0  0  0  0  0  0  0  0  0  0  0  0
   -1.5599   -0.5204    0.6341 H   0  0  0  0  0  0  0  0  0  0  0  0
    0.4892   -2.1480    0.6195 H   0  0  0  0  0  0  0  0  0  0  0  0
  1  2  3  0
  2  3  1  0
  3  4  1  0
  4  5  3  0
  3  6  1  0
  6  7  1  0
  7  8  2  0
  1  9  1  0
  3 10  1  0
  5 11  1  0
  6 12  1  0
  6 13  1  0
  7 14  1  0
M  END
