
     RDKit          3D

 17 17  0  0  0  0  0  0  0  0999 V2000
    2.9859    0.7709   -1.1572 C   0  0  0  0  0  0  0  0  0  0  0  0
    1.8731    0.2604   -1.1093 C   0  0  0  0  0  0  0  0  0  0  0  0
    0.5620   -0.3675   -1.0605 C   0  0  0  0  0  0  0  0  0  0  0  0
    0.0614   -0.5295    0.3511 C   0  0  0  0  0  0  0  0  0  0  0  0
    0.8642   -1.3113    1.1863 O   0  0  0  0  0  0  0  0  0  0  0  0
   -1.4171   -0.7695    0.5428 C   0  0  0  0  0  0  0  0  0  0  0  0
   -2.1703   -0.7230   -0.6160 O   0  0  0  0  0  0  0  0  0  0  0  0
   -0.7334    0.5090    1.0222 C   0  0  0  0  0  0  0  0  0  0  0  0
   -1.1851    1.6401    0.3585 O   0  0  0  0  0  0  0  0  0  0  0  0
    3.9531    1.1995   -1.2095 H   0  0  0  0  0  0  0  0  0  0  0  0
    0.6245   -1.3607   -1.5517 H   0  0  0  0  0  0  0  0  0  0  0  0
   -0.1892    0.2177   -1.6535 H   0  0  0  0  0  0  0  0  0  0  0  0
    1.5641   -0.7531    1.6440 H   0  0  0  0  0  0  0  0  0  0  0  0
   -1.7569   -1.4738    1.3267 H   0  0  0  0  0  0  0  0  0  0  0  0
   -2.2915    0.1958   -0.9607 H   0  0  0  0  0  0  0  0  0  0  0  0
   -0.6686    0.6274    2.1116 H   0  0  0  0  0  0  0  0  0  0  0  0
   -2.0764    1.8677    0.7753 H   0  0  0  0  0  0  0  0  0  0  0  0
  1  2  3  0
  2  3  1  0
  3  4  1  0
  4  5  1  0
  4  6  1  0
  6  7  1  0
  6  8  1  0
  8  9  1  0
  8  4  1  0
  1 10  1  0
  3 11  1  0
  3 12  1  0
  5 13  1  0
  6 14  1  0
  7 15  1  0
  8 16  1  0
  9 17  1  0
M  END
