
     RDKit          3D

 16 17  0  0  0  0  0  0  0  0999 V2000
    2.9220    0.1690    0.1900 C   0  0  0  0  0  0  0  0  0  0  0  0
    1.7570    0.2307    0.4967 C   0  0  0  0  0  0  0  0  0  0  0  0
    0.3409    0.2807    0.8650 C   0  0  0  0  0  0  0  0  0  0  0  0
   -0.4139   -0.9824    0.6033 C   0  0  0  0  0  0  0  0  0  0  0  0
   -1.6368   -0.1243    0.4590 C   0  0  0  0  0  0  0  0  0  0  0  0
   -0.5713    0.6467   -0.2751 C   0  0  0  0  0  0  0  0  0  0  0  0
   -0.6761    1.7452   -0.8628 O   0  0  0  0  0  0  0  0  0  0  0  0
   -0.1815   -0.6869   -0.8633 C   0  0  0  0  0  0  0  0  0  0  0  0
    3.9628    0.0988   -0.0731 H   0  0  0  0  0  0  0  0  0  0  0  0
    0.1827    0.7826    1.8144 H   0  0  0  0  0  0  0  0  0  0  0  0
   -0.3310   -1.8682    1.0530 H   0  0  0  0  0  0  0  0  0  0  0  0
   -2.0254    0.3518    1.3664 H   0  0  0  0  0  0  0  0  0  0  0  0
   -2.3722   -0.5217   -0.2505 H   0  0  0  0  0  0  0  0  0  0  0  0
   -0.8354    1.7452   -1.8160 H   0  0  0  0  0  0  0  0  0  0  0  0
   -0.9771   -1.0892   -1.4933 H   0  0  0  0  0  0  0  0  0  0  0  0
    0.8554   -0.7778   -1.2138 H   0  0  0  0  0  0  0  0  0  0  0  0
  1  2  3  0
  2  3  1  0
  3  4  1  0
  4  5  1  0
  5  6  1  0
  6  7  1  0
  6  8  1  0
  6  3  1  0
  8  4  1  0
  1  9  1  0
  3 10  1  0
  4 11  1  0
  5 12  1  0
  5 13  1  0
  7 14  1  0
  8 15  1  0
  8 16  1  0
M  END
