
     RDKit          3D

 21 21  0  0  0  0  0  0  0  0999 V2000
    2.5359   -1.7627    0.3719 C   0  0  0  0  0  0  0  0  0  0  0  0
    1.9537   -0.7094    0.2711 C   0  0  0  0  0  0  0  0  0  0  0  0
    1.2210    0.5635    0.1515 C   0  0  0  0  0  0  0  0  0  0  0  0
    2.1234    1.6756   -0.2614 C   0  0  0  0  0  0  0  0  0  0  0  0
    0.0793    0.3352   -0.8099 C   0  0  0  0  0  0  0  0  0  0  0  0
   -0.8463   -0.7471   -0.2967 C   0  0  0  0  0  0  0  0  0  0  0  0
   -2.0280   -1.1129   -1.1053 C   0  0  0  0  0  0  0  0  0  0  0  0
   -2.2008   -0.3594    0.1679 C   0  0  0  0  0  0  0  0  0  0  0  0
   -2.6362    0.9601    0.0206 O   0  0  0  0  0  0  0  0  0  0  0  0
    3.0603   -2.6787    0.4699 H   0  0  0  0  0  0  0  0  0  0  0  0
    0.7691    0.8021    1.1443 H   0  0  0  0  0  0  0  0  0  0  0  0
    2.2524    1.7863   -1.3459 H   0  0  0  0  0  0  0  0  0  0  0  0
    1.7730    2.6638    0.1417 H   0  0  0  0  0  0  0  0  0  0  0  0
    3.1323    1.4864    0.2047 H   0  0  0  0  0  0  0  0  0  0  0  0
    0.4216    0.0397   -1.8152 H   0  0  0  0  0  0  0  0  0  0  0  0
   -0.5043    1.2791   -0.8477 H   0  0  0  0  0  0  0  0  0  0  0  0
   -0.3041   -1.5400    0.2847 H   0  0  0  0  0  0  0  0  0  0  0  0
   -2.3714   -2.1841   -1.0842 H   0  0  0  0  0  0  0  0  0  0  0  0
   -2.2318   -0.6045   -2.0712 H   0  0  0  0  0  0  0  0  0  0  0  0
   -2.5708   -0.8431    1.0825 H   0  0  0  0  0  0  0  0  0  0  0  0
   -3.6284    0.9502   -0.1212 H   0  0  0  0  0  0  0  0  0  0  0  0
  1  2  3  0
  2  3  1  0
  3  4  1  0
  3  5  1  0
  5  6  1  0
  6  7  1  0
  7  8  1  0
  8  9  1  0
  8  6  1  0
  1 10  1  0
  3 11  1  0
  4 12  1  0
  4 13  1  0
  4 14  1  0
  5 15  1  0
  5 16  1  0
  6 17  1  0
  7 18  1  0
  7 19  1  0
  8 20  1  0
  9 21  1  0
M  END
