
     RDKit          3D

 21 22  0  0  0  0  0  0  0  0999 V2000
    2.7921    1.6943   -0.9047 C   0  0  0  0  0  0  0  0  0  0  0  0
    1.7253    1.1750   -1.1226 C   0  0  0  0  0  0  0  0  0  0  0  0
    0.3970    0.5510   -1.3758 C   0  0  0  0  0  0  0  0  0  0  0  0
    0.0228   -0.2278   -0.1766 C   0  0  0  0  0  0  0  0  0  0  0  0
    0.9981   -1.3436    0.1812 C   0  0  0  0  0  0  0  0  0  0  0  0
   -1.3903   -0.6652   -0.1013 C   0  0  0  0  0  0  0  0  0  0  0  0
   -1.7405    0.7425    0.2409 C   0  0  0  0  0  0  0  0  0  0  0  0
   -0.4824    0.5141    0.9977 C   0  0  0  0  0  0  0  0  0  0  0  0
   -1.1293   -0.7990    1.3920 C   0  0  0  0  0  0  0  0  0  0  0  0
    3.7241    2.1592   -0.6975 H   0  0  0  0  0  0  0  0  0  0  0  0
   -0.3314    1.2872   -1.6562 H   0  0  0  0  0  0  0  0  0  0  0  0
    0.6299   -0.1717   -2.2224 H   0  0  0  0  0  0  0  0  0  0  0  0
    1.3946   -1.2230    1.2007 H   0  0  0  0  0  0  0  0  0  0  0  0
    1.8154   -1.3583   -0.5632 H   0  0  0  0  0  0  0  0  0  0  0  0
    0.4576   -2.2978    0.0944 H   0  0  0  0  0  0  0  0  0  0  0  0
   -1.8919   -1.3184   -0.6638 H   0  0  0  0  0  0  0  0  0  0  0  0
   -2.6080    0.8573    0.9484 H   0  0  0  0  0  0  0  0  0  0  0  0
   -1.8148    1.5016   -0.5132 H   0  0  0  0  0  0  0  0  0  0  0  0
   -0.0034    1.1402    1.6145 H   0  0  0  0  0  0  0  0  0  0  0  0
   -0.5049   -1.6114    1.7184 H   0  0  0  0  0  0  0  0  0  0  0  0
   -2.0600   -0.6062    1.9803 H   0  0  0  0  0  0  0  0  0  0  0  0
  1  2  3  0
  2  3  1  0
  3  4  1  0
  4  5  1  0
  4  6  1  0
  6  7  1  0
  7  8  1  0
  8  9  1  0
  8  4  1  0
  9  6  1  0
  1 10  1  0
  3 11  1  0
  3 12  1  0
  5 13  1  0
  5 14  1  0
  5 15  1  0
  6 16  1  0
  7 17  1  0
  7 18  1  0
  8 19  1  0
  9 20  1  0
  9 21  1  0
M  END
