
     RDKit          3D

 21 21  0  0  0  0  0  0  0  0999 V2000
   -3.4959    1.3206   -0.6110 C   0  0  0  0  0  0  0  0  0  0  0  0
   -3.0087    0.5552   -0.2555 C   0  0  0  0  0  0  0  0  0  0  0  0
   -2.1778   -0.6973    0.3260 C   0  0  0  0  0  0  0  0  0  0  0  0
   -0.8697   -0.4507   -0.5303 C   0  0  0  0  0  0  0  0  0  0  0  0
    0.2573   -1.3235   -0.2827 C   0  0  0  0  0  0  0  0  0  0  0  0
    1.1507   -0.1487   -0.1367 C   0  0  0  0  0  0  0  0  0  0  0  0
    1.9372   -0.0260    1.0269 O   0  0  0  0  0  0  0  0  0  0  0  0
    3.2768    0.2086    0.7639 C   0  0  0  0  0  0  0  0  0  0  0  0
   -0.0841    0.7409   -0.1105 C   0  0  0  0  0  0  0  0  0  0  0  0
   -4.2878    2.6165   -1.2151 H   0  0  0  0  0  0  0  0  0  0  0  0
   -2.6216   -1.5850   -0.0961 H   0  0  0  0  0  0  0  0  0  0  0  0
   -2.0075   -0.5232    1.3118 H   0  0  0  0  0  0  0  0  0  0  0  0
   -1.0844   -0.3047   -1.6370 H   0  0  0  0  0  0  0  0  0  0  0  0
    0.1400   -1.9403    0.6355 H   0  0  0  0  0  0  0  0  0  0  0  0
    0.5537   -1.9992   -1.1642 H   0  0  0  0  0  0  0  0  0  0  0  0
    1.7753   -0.0157   -1.0784 H   0  0  0  0  0  0  0  0  0  0  0  0
    3.3196    1.1519    0.0637 H   0  0  0  0  0  0  0  0  0  0  0  0
    3.7770    0.4113    1.7187 H   0  0  0  0  0  0  0  0  0  0  0  0
    3.7862   -0.5799    0.2428 H   0  0  0  0  0  0  0  0  0  0  0  0
   -0.0369    1.5711   -0.8583 H   0  0  0  0  0  0  0  0  0  0  0  0
   -0.2993    1.0180    0.9463 H   0  0  0  0  0  0  0  0  0  0  0  0
  1  2  3  0
  2  3  1  0
  3  4  1  0
  4  5  1  0
  5  6  1  0
  6  7  1  0
  7  8  1  0
  6  9  1  0
  9  4  1  0
  1 10  1  0
  3 11  1  0
  3 12  1  0
  4 13  1  0
  5 14  1  0
  5 15  1  0
  6 16  1  0
  8 17  1  0
  8 18  1  0
  8 19  1  0
  9 20  1  0
  9 21  1  0
M  END
