
     RDKit          3D

 19 19  0  0  0  0  0  0  0  0999 V2000
   -2.8736    0.2841   -1.6454 C   0  0  0  0  0  0  0  0  0  0  0  0
   -2.1149    0.0179   -0.7938 C   0  0  0  0  0  0  0  0  0  0  0  0
   -1.1769   -0.3123    0.2234 C   0  0  0  0  0  0  0  0  0  0  0  0
   -1.7752   -1.3028    1.2732 C   0  0  0  0  0  0  0  0  0  0  0  0
   -0.1613   -1.1357   -0.5711 O   0  0  0  0  0  0  0  0  0  0  0  0
    0.2571   -0.0172    0.2570 C   0  0  0  0  0  0  0  0  0  0  0  0
    0.9283    1.0715   -0.5234 C   0  0  0  0  0  0  0  0  0  0  0  0
    2.4000    1.0398   -0.0329 C   0  0  0  0  0  0  0  0  0  0  0  0
    2.7781   -0.3092   -0.2719 O   0  0  0  0  0  0  0  0  0  0  0  0
   -3.6457    0.5357   -2.4918 H   0  0  0  0  0  0  0  0  0  0  0  0
   -2.4981   -0.7863    1.8882 H   0  0  0  0  0  0  0  0  0  0  0  0
   -2.2552   -2.1418    0.6990 H   0  0  0  0  0  0  0  0  0  0  0  0
   -0.9600   -1.7277    1.8866 H   0  0  0  0  0  0  0  0  0  0  0  0
    0.9361   -0.5020    1.0392 H   0  0  0  0  0  0  0  0  0  0  0  0
    0.9653    0.8265   -1.5854 H   0  0  0  0  0  0  0  0  0  0  0  0
    0.5480    2.0887   -0.3517 H   0  0  0  0  0  0  0  0  0  0  0  0
    3.0016    1.7194   -0.6267 H   0  0  0  0  0  0  0  0  0  0  0  0
    2.4266    1.3231    1.0207 H   0  0  0  0  0  0  0  0  0  0  0  0
    3.2197   -0.6715    0.5473 H   0  0  0  0  0  0  0  0  0  0  0  0
  1  2  3  0
  2  3  1  0
  3  4  1  0
  3  5  1  0
  5  6  1  0
  6  7  1  0
  7  8  1  0
  8  9  1  0
  6  3  1  0
  1 10  1  0
  4 11  1  0
  4 12  1  0
  4 13  1  0
  6 14  1  0
  7 15  1  0
  7 16  1  0
  8 17  1  0
  8 18  1  0
  9 19  1  0
M  END
