
     RDKit          3D

 15 14  0  0  0  0  0  0  0  0999 V2000
   -2.5901    1.5449   -1.6528 C   0  0  0  0  0  0  0  0  0  0  0  0
   -1.9641    0.5672   -1.4929 C   0  0  0  0  0  0  0  0  0  0  0  0
   -1.1854   -0.6376   -1.3186 C   0  0  0  0  0  0  0  0  0  0  0  0
   -0.9252   -1.3306   -2.3058 O   0  0  0  0  0  0  0  0  0  0  0  0
   -0.6974   -1.0426    0.0244 C   0  0  0  0  0  0  0  0  0  0  0  0
    0.5326   -0.2828    0.3857 C   0  0  0  0  0  0  0  0  0  0  0  0
    0.9771    0.5344   -0.4507 O   0  0  0  0  0  0  0  0  0  0  0  0
    1.1234   -0.5106    1.6189 O   0  0  0  0  0  0  0  0  0  0  0  0
    2.3093    0.2551    1.9211 C   0  0  0  0  0  0  0  0  0  0  0  0
   -3.1749    2.4609   -1.8042 H   0  0  0  0  0  0  0  0  0  0  0  0
   -1.5089   -0.8260    0.7444 H   0  0  0  0  0  0  0  0  0  0  0  0
   -0.4978   -2.1376    0.0528 H   0  0  0  0  0  0  0  0  0  0  0  0
    3.0965    0.0617    1.1828 H   0  0  0  0  0  0  0  0  0  0  0  0
    2.5554    0.0263    2.9605 H   0  0  0  0  0  0  0  0  0  0  0  0
    1.9495    1.3171    1.9243 H   0  0  0  0  0  0  0  0  0  0  0  0
  1  2  3  0
  2  3  1  0
  3  4  2  0
  3  5  1  0
  5  6  1  0
  6  7  2  0
  6  8  1  0
  8  9  1  0
  1 10  1  0
  5 11  1  0
  5 12  1  0
  9 13  1  0
  9 14  1  0
  9 15  1  0
M  END
