
     RDKit          3D

 19 18  0  0  0  0  0  0  0  0999 V2000
    2.6566    1.4511    0.0598 C   0  0  0  0  0  0  0  0  0  0  0  0
    1.6782    0.9691    0.6218 C   0  0  0  0  0  0  0  0  0  0  0  0
    0.4981    0.3968    1.2718 C   0  0  0  0  0  0  0  0  0  0  0  0
   -0.2666   -0.4990    0.3322 C   0  0  0  0  0  0  0  0  0  0  0  0
    0.5834   -1.6408   -0.1478 C   0  0  0  0  0  0  0  0  0  0  0  0
   -0.9230    0.2413   -0.8079 C   0  0  0  0  0  0  0  0  0  0  0  0
   -1.5905   -0.7095   -1.5885 O   0  0  0  0  0  0  0  0  0  0  0  0
   -1.8632    1.2619   -0.2854 C   0  0  0  0  0  0  0  0  0  0  0  0
   -3.0371    1.1554   -0.5701 O   0  0  0  0  0  0  0  0  0  0  0  0
    3.5091    1.8675   -0.4086 H   0  0  0  0  0  0  0  0  0  0  0  0
   -0.1627    1.2082    1.6368 H   0  0  0  0  0  0  0  0  0  0  0  0
    0.7687   -0.2175    2.1551 H   0  0  0  0  0  0  0  0  0  0  0  0
   -1.1007   -0.9324    0.9380 H   0  0  0  0  0  0  0  0  0  0  0  0
    0.8777   -1.3897   -1.2045 H   0  0  0  0  0  0  0  0  0  0  0  0
    1.5144   -1.7288    0.4456 H   0  0  0  0  0  0  0  0  0  0  0  0
   -0.0319   -2.5620   -0.1483 H   0  0  0  0  0  0  0  0  0  0  0  0
   -0.1127    0.6887   -1.4269 H   0  0  0  0  0  0  0  0  0  0  0  0
   -1.5304   -1.6168   -1.1984 H   0  0  0  0  0  0  0  0  0  0  0  0
   -1.4672    2.0564    0.3253 H   0  0  0  0  0  0  0  0  0  0  0  0
  1  2  3  0
  2  3  1  0
  3  4  1  0
  4  5  1  0
  4  6  1  0
  6  7  1  0
  6  8  1  0
  8  9  2  0
  1 10  1  0
  3 11  1  0
  3 12  1  0
  4 13  1  0
  5 14  1  0
  5 15  1  0
  5 16  1  0
  6 17  1  0
  7 18  1  0
  8 19  1  0
M  END
