
     RDKit          3D

 23 22  0  0  0  0  0  0  0  0999 V2000
    1.4297    2.5834    0.4556 C   0  0  0  0  0  0  0  0  0  0  0  0
    0.8419    1.9277   -0.0985 C   0  0  0  0  0  0  0  0  0  0  0  0
    0.0354    1.0356   -0.8286 C   0  0  0  0  0  0  0  0  0  0  0  0
    0.3272   -0.4160   -0.1321 C   0  0  0  0  0  0  0  0  0  0  0  0
   -0.1567   -0.1764    1.2964 C   0  0  0  0  0  0  0  0  0  0  0  0
   -1.5038    0.5024    1.2128 C   0  0  0  0  0  0  0  0  0  0  0  0
   -0.6068   -1.6552    1.7617 C   0  0  0  0  0  0  0  0  0  0  0  0
    0.9587    0.7103   -2.0227 O   0  0  0  0  0  0  0  0  0  0  0  0
    0.6922   -0.5493   -2.5046 C   0  0  0  0  0  0  0  0  0  0  0  0
    2.2041    3.4460    1.2102 H   0  0  0  0  0  0  0  0  0  0  0  0
   -0.9096    0.9665   -1.0823 H   0  0  0  0  0  0  0  0  0  0  0  0
   -0.2595   -1.0991   -0.6426 H   0  0  0  0  0  0  0  0  0  0  0  0
    1.4194   -0.4003   -0.2630 H   0  0  0  0  0  0  0  0  0  0  0  0
    0.6210    0.1657    1.8391 H   0  0  0  0  0  0  0  0  0  0  0  0
   -2.1241    0.2791    2.0638 H   0  0  0  0  0  0  0  0  0  0  0  0
   -2.0418   -0.0880    0.3043 H   0  0  0  0  0  0  0  0  0  0  0  0
   -1.4536    1.5462    0.9761 H   0  0  0  0  0  0  0  0  0  0  0  0
    0.2719   -2.1065    2.2483 H   0  0  0  0  0  0  0  0  0  0  0  0
   -0.7158   -2.1843    0.7304 H   0  0  0  0  0  0  0  0  0  0  0  0
   -1.4938   -1.5475    2.2951 H   0  0  0  0  0  0  0  0  0  0  0  0
    1.3966   -0.7191   -3.3727 H   0  0  0  0  0  0  0  0  0  0  0  0
   -0.2137   -1.0546   -2.6373 H   0  0  0  0  0  0  0  0  0  0  0  0
    1.2812   -1.1663   -1.6276 H   0  0  0  0  0  0  0  0  0  0  0  0
  1  2  3  0
  2  3  1  0
  3  4  1  0
  4  5  1  0
  5  6  1  0
  5  7  1  0
  3  8  1  0
  8  9  1  0
  1 10  1  0
  3 11  1  0
  4 12  1  0
  4 13  1  0
  5 14  1  0
  6 15  1  0
  6 16  1  0
  6 17  1  0
  7 18  1  0
  7 19  1  0
  7 20  1  0
  9 21  1  0
  9 22  1  0
  9 23  1  0
M  END
