
     RDKit          3D

 17 17  0  0  0  0  0  0  0  0999 V2000
   -2.0249    1.9829    0.3566 C   0  0  0  0  0  0  0  0  0  0  0  0
   -1.2187    1.1807   -0.1004 C   0  0  0  0  0  0  0  0  0  0  0  0
   -0.2564    0.2251   -0.6192 C   0  0  0  0  0  0  0  0  0  0  0  0
   -0.9751   -0.7966   -1.4491 C   0  0  0  0  0  0  0  0  0  0  0  0
    0.4341   -0.5173    0.4972 C   0  0  0  0  0  0  0  0  0  0  0  0
    1.2033    0.3231    1.4639 C   0  0  0  0  0  0  0  0  0  0  0  0
    2.1117   -0.7832    1.5188 O   0  0  0  0  0  0  0  0  0  0  0  0
    1.7868   -1.0172    0.2002 C   0  0  0  0  0  0  0  0  0  0  0  0
    2.4063   -1.4604   -0.7768 O   0  0  0  0  0  0  0  0  0  0  0  0
   -2.7087    2.6894    0.7515 H   0  0  0  0  0  0  0  0  0  0  0  0
    0.5375    0.7480   -1.1897 H   0  0  0  0  0  0  0  0  0  0  0  0
   -0.7742   -1.8348   -1.1238 H   0  0  0  0  0  0  0  0  0  0  0  0
   -2.0454   -0.5472   -1.4730 H   0  0  0  0  0  0  0  0  0  0  0  0
   -0.6292   -0.6464   -2.5158 H   0  0  0  0  0  0  0  0  0  0  0  0
   -0.2245   -1.2319    1.0431 H   0  0  0  0  0  0  0  0  0  0  0  0
    0.6286    0.4989    2.3742 H   0  0  0  0  0  0  0  0  0  0  0  0
    1.7487    1.1869    1.0420 H   0  0  0  0  0  0  0  0  0  0  0  0
  1  2  3  0
  2  3  1  0
  3  4  1  0
  3  5  1  0
  5  6  1  0
  6  7  1  0
  7  8  1  0
  8  9  2  0
  8  5  1  0
  1 10  1  0
  3 11  1  0
  4 12  1  0
  4 13  1  0
  4 14  1  0
  5 15  1  0
  6 16  1  0
  6 17  1  0
M  END
