
     RDKit          3D

 17 16  0  0  0  0  0  0  0  0999 V2000
    2.9445    0.9112    0.6524 C   0  0  0  0  0  0  0  0  0  0  0  0
    2.0161    0.5118   -0.0319 C   0  0  0  0  0  0  0  0  0  0  0  0
    0.8913    0.0540   -0.8569 C   0  0  0  0  0  0  0  0  0  0  0  0
   -0.3087   -0.0213    0.0568 C   0  0  0  0  0  0  0  0  0  0  0  0
   -0.5776    1.2317    0.5999 O   0  0  0  0  0  0  0  0  0  0  0  0
   -0.1755   -1.0067    1.1212 C   0  0  0  0  0  0  0  0  0  0  0  0
   -0.2991   -0.6792    2.2829 O   0  0  0  0  0  0  0  0  0  0  0  0
   -1.4916   -0.4343   -0.8235 C   0  0  0  0  0  0  0  0  0  0  0  0
   -2.6603   -0.4955   -0.0645 O   0  0  0  0  0  0  0  0  0  0  0  0
    3.7486    1.2429    1.2571 H   0  0  0  0  0  0  0  0  0  0  0  0
    1.0832   -0.9572   -1.2753 H   0  0  0  0  0  0  0  0  0  0  0  0
    0.6350    0.7824   -1.6577 H   0  0  0  0  0  0  0  0  0  0  0  0
    0.2822    1.6728    0.8877 H   0  0  0  0  0  0  0  0  0  0  0  0
    0.0345   -2.0417    0.8983 H   0  0  0  0  0  0  0  0  0  0  0  0
   -1.6346    0.3158   -1.6164 H   0  0  0  0  0  0  0  0  0  0  0  0
   -1.3287   -1.4391   -1.2571 H   0  0  0  0  0  0  0  0  0  0  0  0
   -3.1595    0.3525   -0.1732 H   0  0  0  0  0  0  0  0  0  0  0  0
  1  2  3  0
  2  3  1  0
  3  4  1  0
  4  5  1  0
  4  6  1  0
  6  7  2  0
  4  8  1  0
  8  9  1  0
  1 10  1  0
  3 11  1  0
  3 12  1  0
  5 13  1  0
  6 14  1  0
  8 15  1  0
  8 16  1  0
  9 17  1  0
M  END
