
     RDKit          3D

 19 18  0  0  0  0  0  0  0  0999 V2000
   -0.8873    2.8835   -0.8298 C   0  0  0  0  0  0  0  0  0  0  0  0
   -0.2956    2.0047   -0.1069 C   0  0  0  0  0  0  0  0  0  0  0  0
    0.3650    1.0120    0.6775 C   0  0  0  0  0  0  0  0  0  0  0  0
    1.8125    0.8323    0.2442 C   0  0  0  0  0  0  0  0  0  0  0  0
    2.4158   -0.1319    1.0347 O   0  0  0  0  0  0  0  0  0  0  0  0
   -0.3857   -0.2567    0.6845 C   0  0  0  0  0  0  0  0  0  0  0  0
   -0.8137   -0.7546    1.7132 O   0  0  0  0  0  0  0  0  0  0  0  0
   -0.6594   -1.0040   -0.5799 C   0  0  0  0  0  0  0  0  0  0  0  0
   -1.3361   -2.3009   -0.2483 C   0  0  0  0  0  0  0  0  0  0  0  0
   -1.3540    3.5982   -1.3960 H   0  0  0  0  0  0  0  0  0  0  0  0
    0.4071    1.3694    1.7332 H   0  0  0  0  0  0  0  0  0  0  0  0
    1.8795    0.5487   -0.8412 H   0  0  0  0  0  0  0  0  0  0  0  0
    2.3349    1.8001    0.3768 H   0  0  0  0  0  0  0  0  0  0  0  0
    1.9869   -0.1128    1.9238 H   0  0  0  0  0  0  0  0  0  0  0  0
   -1.2344   -0.4037   -1.3048 H   0  0  0  0  0  0  0  0  0  0  0  0
    0.3376   -1.2362   -1.0505 H   0  0  0  0  0  0  0  0  0  0  0  0
   -0.6311   -3.1363   -0.0472 H   0  0  0  0  0  0  0  0  0  0  0  0
   -1.9588   -2.0819    0.6639 H   0  0  0  0  0  0  0  0  0  0  0  0
   -1.9834   -2.6299   -1.0787 H   0  0  0  0  0  0  0  0  0  0  0  0
  1  2  3  0
  2  3  1  0
  3  4  1  0
  4  5  1  0
  3  6  1  0
  6  7  2  0
  6  8  1  0
  8  9  1  0
  1 10  1  0
  3 11  1  0
  4 12  1  0
  4 13  1  0
  5 14  1  0
  8 15  1  0
  8 16  1  0
  9 17  1  0
  9 18  1  0
  9 19  1  0
M  END
