
     RDKit          3D

 18 18  0  0  0  0  0  0  0  0999 V2000
    3.1197   -1.0393    0.9578 C   0  0  0  0  0  0  0  0  0  0  0  0
    2.0018   -1.4733    0.7536 C   0  0  0  0  0  0  0  0  0  0  0  0
    0.6756   -2.0061    0.4909 C   0  0  0  0  0  0  0  0  0  0  0  0
   -0.3222   -1.0590    0.6539 O   0  0  0  0  0  0  0  0  0  0  0  0
   -0.0938   -0.0167   -0.2236 C   0  0  0  0  0  0  0  0  0  0  0  0
   -1.3175    0.4324   -0.9728 C   0  0  0  0  0  0  0  0  0  0  0  0
   -0.6255    1.3400    0.0301 C   0  0  0  0  0  0  0  0  0  0  0  0
   -1.3349    1.6662    1.3151 C   0  0  0  0  0  0  0  0  0  0  0  0
    4.0920   -0.6461    1.1457 H   0  0  0  0  0  0  0  0  0  0  0  0
    0.5090   -2.8353    1.2098 H   0  0  0  0  0  0  0  0  0  0  0  0
    0.6809   -2.4236   -0.5484 H   0  0  0  0  0  0  0  0  0  0  0  0
    0.8002   -0.1112   -0.8729 H   0  0  0  0  0  0  0  0  0  0  0  0
   -2.3234    0.0590   -0.6402 H   0  0  0  0  0  0  0  0  0  0  0  0
   -1.2544    0.6568   -2.0445 H   0  0  0  0  0  0  0  0  0  0  0  0
   -0.0812    2.1786   -0.4308 H   0  0  0  0  0  0  0  0  0  0  0  0
   -1.4039    0.7974    2.0002 H   0  0  0  0  0  0  0  0  0  0  0  0
   -2.3781    2.0316    1.0919 H   0  0  0  0  0  0  0  0  0  0  0  0
   -0.7442    2.4487    1.8296 H   0  0  0  0  0  0  0  0  0  0  0  0
  1  2  3  0
  2  3  1  0
  3  4  1  0
  4  5  1  0
  5  6  1  0
  6  7  1  0
  7  8  1  0
  7  5  1  0
  1  9  1  0
  3 10  1  0
  3 11  1  0
  5 12  1  0
  6 13  1  0
  6 14  1  0
  7 15  1  0
  8 16  1  0
  8 17  1  0
  8 18  1  0
M  END
