
     RDKit          3D

 17 18  0  0  0  0  0  0  0  0999 V2000
    3.1404   -0.0918   -1.0645 C   0  0  0  0  0  0  0  0  0  0  0  0
    1.9908   -0.0073   -0.7277 C   0  0  0  0  0  0  0  0  0  0  0  0
    0.6282    0.0878   -0.3191 C   0  0  0  0  0  0  0  0  0  0  0  0
   -0.0656    1.3277   -0.7205 C   0  0  0  0  0  0  0  0  0  0  0  0
   -1.0422    1.5003    0.1654 C   0  0  0  0  0  0  0  0  0  0  0  0
   -0.9375    0.3179    1.0783 C   0  0  0  0  0  0  0  0  0  0  0  0
   -1.3770   -0.9155    0.3533 C   0  0  0  0  0  0  0  0  0  0  0  0
   -0.2031   -1.1426   -0.6140 C   0  0  0  0  0  0  0  0  0  0  0  0
    0.4684    0.1453    1.0884 O   0  0  0  0  0  0  0  0  0  0  0  0
    4.1643   -0.1823   -1.3538 H   0  0  0  0  0  0  0  0  0  0  0  0
    0.2184    1.9268   -1.5771 H   0  0  0  0  0  0  0  0  0  0  0  0
   -1.7237    2.3188    0.1791 H   0  0  0  0  0  0  0  0  0  0  0  0
   -1.3579    0.4727    2.0561 H   0  0  0  0  0  0  0  0  0  0  0  0
   -2.2916   -0.7645   -0.2547 H   0  0  0  0  0  0  0  0  0  0  0  0
   -1.4903   -1.7616    1.0508 H   0  0  0  0  0  0  0  0  0  0  0  0
    0.4120   -2.0190   -0.2794 H   0  0  0  0  0  0  0  0  0  0  0  0
   -0.5334   -1.2126   -1.6510 H   0  0  0  0  0  0  0  0  0  0  0  0
  1  2  3  0
  2  3  1  0
  3  4  1  0
  4  5  2  0
  5  6  1  0
  6  7  1  0
  7  8  1  0
  6  9  1  0
  8  3  1  0
  9  3  1  0
  1 10  1  0
  4 11  1  0
  5 12  1  0
  6 13  1  0
  7 14  1  0
  7 15  1  0
  8 16  1  0
  8 17  1  0
M  END
