
     RDKit          3D

 17 17  0  0  0  0  0  0  0  0999 V2000
    2.6674    2.4953    0.8365 C   0  0  0  0  0  0  0  0  0  0  0  0
    1.8786    1.6616    0.4985 C   0  0  0  0  0  0  0  0  0  0  0  0
    0.9439    0.6400    0.0955 C   0  0  0  0  0  0  0  0  0  0  0  0
   -0.3245    0.8060   -0.2472 C   0  0  0  0  0  0  0  0  0  0  0  0
   -0.9268   -0.5291   -0.5950 C   0  0  0  0  0  0  0  0  0  0  0  0
   -2.3515   -0.6270   -0.1967 C   0  0  0  0  0  0  0  0  0  0  0  0
   -0.0172   -1.4402    0.1119 C   0  0  0  0  0  0  0  0  0  0  0  0
   -0.2661   -2.4740    0.6547 O   0  0  0  0  0  0  0  0  0  0  0  0
    1.3100   -0.8004    0.0131 C   0  0  0  0  0  0  0  0  0  0  0  0
    3.3713    3.2605    1.1305 H   0  0  0  0  0  0  0  0  0  0  0  0
   -0.9009    1.7195   -0.2930 H   0  0  0  0  0  0  0  0  0  0  0  0
   -0.8577   -0.6070   -1.6976 H   0  0  0  0  0  0  0  0  0  0  0  0
   -2.8674    0.3171   -0.5030 H   0  0  0  0  0  0  0  0  0  0  0  0
   -2.5286   -0.8762    0.8605 H   0  0  0  0  0  0  0  0  0  0  0  0
   -2.8318   -1.4402   -0.7902 H   0  0  0  0  0  0  0  0  0  0  0  0
    1.7011   -0.9936   -1.0003 H   0  0  0  0  0  0  0  0  0  0  0  0
    2.0003   -1.1121    0.8150 H   0  0  0  0  0  0  0  0  0  0  0  0
  1  2  3  0
  2  3  1  0
  3  4  2  0
  4  5  1  0
  5  6  1  0
  5  7  1  0
  7  8  2  0
  7  9  1  0
  9  3  1  0
  1 10  1  0
  4 11  1  0
  5 12  1  0
  6 13  1  0
  6 14  1  0
  6 15  1  0
  9 16  1  0
  9 17  1  0
M  END
