
     RDKit          3D

 17 17  0  0  0  0  0  0  0  0999 V2000
   -2.1836    0.8313   -1.8476 C   0  0  0  0  0  0  0  0  0  0  0  0
   -1.3866    0.1004   -1.0478 C   0  0  0  0  0  0  0  0  0  0  0  0
   -0.6105   -0.6096   -0.2411 C   0  0  0  0  0  0  0  0  0  0  0  0
   -1.3030   -1.4148    0.7977 O   0  0  0  0  0  0  0  0  0  0  0  0
    0.7596   -1.1205   -0.5274 C   0  0  0  0  0  0  0  0  0  0  0  0
    0.6439    0.1253    0.2904 C   0  0  0  0  0  0  0  0  0  0  0  0
    0.8025    0.1460    1.7541 C   0  0  0  0  0  0  0  0  0  0  0  0
    1.0098    1.3931   -0.4106 C   0  0  0  0  0  0  0  0  0  0  0  0
    0.2125    2.0020   -1.1496 O   0  0  0  0  0  0  0  0  0  0  0  0
   -2.9122    1.4775   -2.5561 H   0  0  0  0  0  0  0  0  0  0  0  0
   -1.6154   -2.2131    0.3074 H   0  0  0  0  0  0  0  0  0  0  0  0
    1.1038   -2.0153    0.0217 H   0  0  0  0  0  0  0  0  0  0  0  0
    1.1652   -1.0600   -1.5605 H   0  0  0  0  0  0  0  0  0  0  0  0
   -0.0314    0.7974    2.2208 H   0  0  0  0  0  0  0  0  0  0  0  0
    1.7538    0.5809    2.0688 H   0  0  0  0  0  0  0  0  0  0  0  0
    0.6184   -0.8457    2.2080 H   0  0  0  0  0  0  0  0  0  0  0  0
    1.9732    1.8250   -0.3281 H   0  0  0  0  0  0  0  0  0  0  0  0
  1  2  3  0
  2  3  1  0
  3  4  1  0
  3  5  1  0
  5  6  1  0
  6  7  1  0
  6  8  1  0
  8  9  2  0
  6  3  1  0
  1 10  1  0
  4 11  1  0
  5 12  1  0
  5 13  1  0
  7 14  1  0
  7 15  1  0
  7 16  1  0
  8 17  1  0
M  END
