
     RDKit          3D

 18 18  0  0  0  0  0  0  0  0999 V2000
    2.1527   -0.6728    1.8857 C   0  0  0  0  0  0  0  0  0  0  0  0
    1.5848   -0.6324    0.8212 C   0  0  0  0  0  0  0  0  0  0  0  0
    0.8950   -0.5582   -0.4886 C   0  0  0  0  0  0  0  0  0  0  0  0
    1.5651    0.3667   -1.2901 O   0  0  0  0  0  0  0  0  0  0  0  0
   -0.5013   -0.0193   -0.2721 C   0  0  0  0  0  0  0  0  0  0  0  0
   -1.3204    0.1087   -1.5340 C   0  0  0  0  0  0  0  0  0  0  0  0
   -0.5511    1.1202    0.7325 C   0  0  0  0  0  0  0  0  0  0  0  0
   -1.1991   -0.2148    1.0104 C   0  0  0  0  0  0  0  0  0  0  0  0
    2.6455   -0.6934    2.8321 H   0  0  0  0  0  0  0  0  0  0  0  0
    0.8945   -1.5608   -0.9637 H   0  0  0  0  0  0  0  0  0  0  0  0
    2.3034   -0.0927   -1.7916 H   0  0  0  0  0  0  0  0  0  0  0  0
   -1.3000    1.1853   -1.8231 H   0  0  0  0  0  0  0  0  0  0  0  0
   -0.9159   -0.4862   -2.3604 H   0  0  0  0  0  0  0  0  0  0  0  0
   -2.3727   -0.2136   -1.3852 H   0  0  0  0  0  0  0  0  0  0  0  0
   -1.1885    2.0012    0.5038 H   0  0  0  0  0  0  0  0  0  0  0  0
    0.3499    1.3648    1.3136 H   0  0  0  0  0  0  0  0  0  0  0  0
   -0.7338   -0.8227    1.8316 H   0  0  0  0  0  0  0  0  0  0  0  0
   -2.3080   -0.1799    0.9779 H   0  0  0  0  0  0  0  0  0  0  0  0
  1  2  3  0
  2  3  1  0
  3  4  1  0
  3  5  1  0
  5  6  1  0
  5  7  1  0
  7  8  1  0
  8  5  1  0
  1  9  1  0
  3 10  1  0
  4 11  1  0
  6 12  1  0
  6 13  1  0
  6 14  1  0
  7 15  1  0
  7 16  1  0
  8 17  1  0
  8 18  1  0
M  END
