
     RDKit          3D

 17 17  0  0  0  0  0  0  0  0999 V2000
    4.9329   -0.5034    0.9938 C   0  0  0  0  0  0  0  0  0  0  0  0
    3.6753   -0.4794    0.8627 C   0  0  0  0  0  0  0  0  0  0  0  0
    2.2842   -0.4506    0.6937 C   0  0  0  0  0  0  0  0  0  0  0  0
    1.2252   -0.4447    0.5736 C   0  0  0  0  0  0  0  0  0  0  0  0
   -0.3225   -0.4247    0.4224 C   0  0  0  0  0  0  0  0  0  0  0  0
   -0.6742   -0.8937   -1.0454 C   0  0  0  0  0  0  0  0  0  0  0  0
   -0.8490    0.5035   -0.5595 C   0  0  0  0  0  0  0  0  0  0  0  0
   -2.3478    0.8759   -0.3102 C   0  0  0  0  0  0  0  0  0  0  0  0
   -3.1045   -0.3167   -0.3509 O   0  0  0  0  0  0  0  0  0  0  0  0
    5.9732   -0.5172    1.1140 H   0  0  0  0  0  0  0  0  0  0  0  0
   -0.8760   -0.8815    1.2359 H   0  0  0  0  0  0  0  0  0  0  0  0
    0.1768   -1.1256   -1.7000 H   0  0  0  0  0  0  0  0  0  0  0  0
   -1.5225   -1.5847   -1.0967 H   0  0  0  0  0  0  0  0  0  0  0  0
   -0.2892    1.3356   -0.9790 H   0  0  0  0  0  0  0  0  0  0  0  0
   -2.7070    1.5367   -1.0980 H   0  0  0  0  0  0  0  0  0  0  0  0
   -2.4588    1.3677    0.6447 H   0  0  0  0  0  0  0  0  0  0  0  0
   -3.1160   -0.6695    0.5989 H   0  0  0  0  0  0  0  0  0  0  0  0
  1  2  3  0
  2  3  1  0
  3  4  3  0
  4  5  1  0
  5  6  1  0
  6  7  1  0
  7  8  1  0
  8  9  1  0
  7  5  1  0
  1 10  1  0
  5 11  1  0
  6 12  1  0
  6 13  1  0
  7 14  1  0
  8 15  1  0
  8 16  1  0
  9 17  1  0
M  END
