
     RDKit          3D

 19 19  0  0  0  0  0  0  0  0999 V2000
    3.0960   -0.7590    0.4161 C   0  0  0  0  0  0  0  0  0  0  0  0
    1.9581   -0.3415    0.3360 C   0  0  0  0  0  0  0  0  0  0  0  0
    0.6026    0.1349    0.2547 C   0  0  0  0  0  0  0  0  0  0  0  0
    0.4465    1.5121    0.7759 C   0  0  0  0  0  0  0  0  0  0  0  0
   -0.6231    1.8948    1.1722 O   0  0  0  0  0  0  0  0  0  0  0  0
   -0.3862   -0.8285    0.8747 C   0  0  0  0  0  0  0  0  0  0  0  0
   -1.6824   -0.4495    0.2233 C   0  0  0  0  0  0  0  0  0  0  0  0
   -1.3476    0.1919   -1.0925 C   0  0  0  0  0  0  0  0  0  0  0  0
    0.1687    0.1389   -1.1893 C   0  0  0  0  0  0  0  0  0  0  0  0
    4.0900   -1.1258    0.5043 H   0  0  0  0  0  0  0  0  0  0  0  0
    1.2763    2.2090    0.8169 H   0  0  0  0  0  0  0  0  0  0  0  0
   -0.0885   -1.8474    0.5164 H   0  0  0  0  0  0  0  0  0  0  0  0
   -0.3998   -0.7937    1.9680 H   0  0  0  0  0  0  0  0  0  0  0  0
   -2.2949    0.2546    0.8367 H   0  0  0  0  0  0  0  0  0  0  0  0
   -2.2872   -1.3697    0.0638 H   0  0  0  0  0  0  0  0  0  0  0  0
   -1.8147   -0.3507   -1.9277 H   0  0  0  0  0  0  0  0  0  0  0  0
   -1.6882    1.2657   -1.1144 H   0  0  0  0  0  0  0  0  0  0  0  0
    0.5347    1.0307   -1.6958 H   0  0  0  0  0  0  0  0  0  0  0  0
    0.4397   -0.7669   -1.7394 H   0  0  0  0  0  0  0  0  0  0  0  0
  1  2  3  0
  2  3  1  0
  3  4  1  0
  4  5  2  0
  3  6  1  0
  6  7  1  0
  7  8  1  0
  8  9  1  0
  9  3  1  0
  1 10  1  0
  4 11  1  0
  6 12  1  0
  6 13  1  0
  7 14  1  0
  7 15  1  0
  8 16  1  0
  8 17  1  0
  9 18  1  0
  9 19  1  0
M  END
