
     RDKit          3D

 13 13  0  0  0  0  0  0  0  0999 V2000
    2.2186    2.1246    1.0382 C   0  0  0  0  0  0  0  0  0  0  0  0
    1.3980    1.3431    0.6689 C   0  0  0  0  0  0  0  0  0  0  0  0
    0.3948    0.3903    0.1913 C   0  0  0  0  0  0  0  0  0  0  0  0
    0.3336   -0.8889    0.4812 C   0  0  0  0  0  0  0  0  0  0  0  0
   -0.8025   -1.5767   -0.1619 C   0  0  0  0  0  0  0  0  0  0  0  0
   -1.4889   -0.5078   -0.9343 C   0  0  0  0  0  0  0  0  0  0  0  0
   -2.5208   -0.6183   -1.6482 O   0  0  0  0  0  0  0  0  0  0  0  0
   -0.7168    0.7068   -0.6944 C   0  0  0  0  0  0  0  0  0  0  0  0
   -0.9613    1.8540   -1.1712 O   0  0  0  0  0  0  0  0  0  0  0  0
    2.9531    2.8502    1.3774 H   0  0  0  0  0  0  0  0  0  0  0  0
    1.0898   -1.3421    1.1474 H   0  0  0  0  0  0  0  0  0  0  0  0
   -1.4383   -2.0160    0.6189 H   0  0  0  0  0  0  0  0  0  0  0  0
   -0.4594   -2.3192   -0.9133 H   0  0  0  0  0  0  0  0  0  0  0  0
  1  2  3  0
  2  3  1  0
  3  4  2  0
  4  5  1  0
  5  6  1  0
  6  7  2  0
  6  8  1  0
  8  9  2  0
  8  3  1  0
  1 10  1  0
  4 11  1  0
  5 12  1  0
  5 13  1  0
M  END
