
     RDKit          3D

 17 17  0  0  0  0  0  0  0  0999 V2000
    1.8867    2.2249    0.9627 C   0  0  0  0  0  0  0  0  0  0  0  0
    1.2651    1.2053    0.7836 C   0  0  0  0  0  0  0  0  0  0  0  0
    0.4926   -0.0278    0.5468 C   0  0  0  0  0  0  0  0  0  0  0  0
    0.4060   -0.7541    1.7496 O   0  0  0  0  0  0  0  0  0  0  0  0
    1.1593   -0.8555   -0.4584 C   0  0  0  0  0  0  0  0  0  0  0  0
    1.7281   -1.5348   -1.3037 C   0  0  0  0  0  0  0  0  0  0  0  0
   -0.8887    0.3530    0.1131 C   0  0  0  0  0  0  0  0  0  0  0  0
   -1.8998   -0.7009   -0.1990 C   0  0  0  0  0  0  0  0  0  0  0  0
   -1.3753    0.2101   -1.2576 C   0  0  0  0  0  0  0  0  0  0  0  0
    2.4354    3.1126    1.1361 H   0  0  0  0  0  0  0  0  0  0  0  0
    1.2968   -0.7544    2.2022 H   0  0  0  0  0  0  0  0  0  0  0  0
    2.2111   -2.1126   -2.0478 H   0  0  0  0  0  0  0  0  0  0  0  0
   -1.3162    1.2079    0.7144 H   0  0  0  0  0  0  0  0  0  0  0  0
   -1.5838   -1.7661   -0.3256 H   0  0  0  0  0  0  0  0  0  0  0  0
   -2.9610   -0.5841    0.1253 H   0  0  0  0  0  0  0  0  0  0  0  0
   -0.7387   -0.1897   -2.0873 H   0  0  0  0  0  0  0  0  0  0  0  0
   -2.1177    0.9661   -1.6370 H   0  0  0  0  0  0  0  0  0  0  0  0
  1  2  3  0
  2  3  1  0
  3  4  1  0
  3  5  1  0
  5  6  3  0
  3  7  1  0
  7  8  1  0
  8  9  1  0
  9  7  1  0
  1 10  1  0
  4 11  1  0
  6 12  1  0
  7 13  1  0
  8 14  1  0
  8 15  1  0
  9 16  1  0
  9 17  1  0
M  END
