
     RDKit          3D

 17 17  0  0  0  0  0  0  0  0999 V2000
    1.5969   -0.8159   -2.9374 C   0  0  0  0  0  0  0  0  0  0  0  0
    1.1530   -0.8357   -1.7425 C   0  0  0  0  0  0  0  0  0  0  0  0
    0.6172   -0.8712   -0.3627 C   0  0  0  0  0  0  0  0  0  0  0  0
   -0.8676   -0.5797   -0.3452 C   0  0  0  0  0  0  0  0  0  0  0  0
   -0.5922    0.6499    0.4569 C   0  0  0  0  0  0  0  0  0  0  0  0
   -1.0927    0.5560    1.8716 C   0  0  0  0  0  0  0  0  0  0  0  0
    0.8883    0.4238    0.3312 C   0  0  0  0  0  0  0  0  0  0  0  0
    1.9435   -0.8119   -3.8340 H   0  0  0  0  0  0  0  0  0  0  0  0
    0.9118   -1.7986    0.1619 H   0  0  0  0  0  0  0  0  0  0  0  0
   -1.4011   -1.4007    0.1616 H   0  0  0  0  0  0  0  0  0  0  0  0
   -1.2868   -0.4184   -1.3703 H   0  0  0  0  0  0  0  0  0  0  0  0
   -0.9470    1.5756   -0.0558 H   0  0  0  0  0  0  0  0  0  0  0  0
   -1.9570   -0.1576    1.8537 H   0  0  0  0  0  0  0  0  0  0  0  0
   -1.4662    1.5510    2.1995 H   0  0  0  0  0  0  0  0  0  0  0  0
   -0.2988    0.1434    2.5147 H   0  0  0  0  0  0  0  0  0  0  0  0
    1.4526    1.1870   -0.2437 H   0  0  0  0  0  0  0  0  0  0  0  0
    1.3461    0.2234    1.3406 H   0  0  0  0  0  0  0  0  0  0  0  0
  1  2  3  0
  2  3  1  0
  3  4  1  0
  4  5  1  0
  5  6  1  0
  5  7  1  0
  7  3  1  0
  1  8  1  0
  3  9  1  0
  4 10  1  0
  4 11  1  0
  5 12  1  0
  6 13  1  0
  6 14  1  0
  6 15  1  0
  7 16  1  0
  7 17  1  0
M  END
