
     RDKit          3D

 17 17  0  0  0  0  0  0  0  0999 V2000
   -1.5852    2.2143   -1.3459 C   0  0  0  0  0  0  0  0  0  0  0  0
   -1.1809    1.2206   -0.7363 C   0  0  0  0  0  0  0  0  0  0  0  0
   -0.6461   -0.0747    0.0923 C   0  0  0  0  0  0  0  0  0  0  0  0
   -1.3884   -1.2673    0.0494 C   0  0  0  0  0  0  0  0  0  0  0  0
    0.1218    0.5330    1.2648 C   0  0  0  0  0  0  0  0  0  0  0  0
    0.8534   -0.0321    0.0145 C   0  0  0  0  0  0  0  0  0  0  0  0
    1.3546    0.9959   -0.8290 O   0  0  0  0  0  0  0  0  0  0  0  0
    1.7728   -1.0959    0.2225 C   0  0  0  0  0  0  0  0  0  0  0  0
    1.6100   -2.3121    0.0949 O   0  0  0  0  0  0  0  0  0  0  0  0
   -1.8544    2.8809   -1.7381 H   0  0  0  0  0  0  0  0  0  0  0  0
   -0.7051   -2.1538    0.3139 H   0  0  0  0  0  0  0  0  0  0  0  0
   -2.2514   -1.4754    0.7242 H   0  0  0  0  0  0  0  0  0  0  0  0
   -1.7321   -1.4525   -0.9876 H   0  0  0  0  0  0  0  0  0  0  0  0
    0.2121    1.6750    1.2947 H   0  0  0  0  0  0  0  0  0  0  0  0
    0.3252    0.1146    2.2403 H   0  0  0  0  0  0  0  0  0  0  0  0
    2.2973    1.0781   -0.8062 H   0  0  0  0  0  0  0  0  0  0  0  0
    2.7966   -0.8484    0.5419 H   0  0  0  0  0  0  0  0  0  0  0  0
  1  2  3  0
  2  3  1  0
  3  4  1  0
  3  5  1  0
  5  6  1  0
  6  7  1  0
  6  8  1  0
  8  9  2  0
  6  3  1  0
  1 10  1  0
  4 11  1  0
  4 12  1  0
  4 13  1  0
  5 14  1  0
  5 15  1  0
  7 16  1  0
  8 17  1  0
M  END
