
     RDKit          3D

 17 18  0  0  0  0  0  0  0  0999 V2000
    2.1549    1.6175    0.8408 C   0  0  0  0  0  0  0  0  0  0  0  0
    1.5038    0.9970    0.2484 C   0  0  0  0  0  0  0  0  0  0  0  0
    0.5998    0.1621   -0.5788 C   0  0  0  0  0  0  0  0  0  0  0  0
    1.3508   -1.2361   -0.6874 C   0  0  0  0  0  0  0  0  0  0  0  0
    0.0252   -1.7936   -0.4490 O   0  0  0  0  0  0  0  0  0  0  0  0
   -0.1429   -0.7003    0.4648 C   0  0  0  0  0  0  0  0  0  0  0  0
   -1.5399   -0.5148    0.7956 C   0  0  0  0  0  0  0  0  0  0  0  0
   -2.2274    0.8793    0.5432 C   0  0  0  0  0  0  0  0  0  0  0  0
   -1.8475    0.4414    1.7770 O   0  0  0  0  0  0  0  0  0  0  0  0
    3.0867    2.5191    1.6851 H   0  0  0  0  0  0  0  0  0  0  0  0
    0.2699    0.5276   -1.4476 H   0  0  0  0  0  0  0  0  0  0  0  0
    1.7914   -1.3828   -1.6285 H   0  0  0  0  0  0  0  0  0  0  0  0
    1.9122   -1.3843    0.2279 H   0  0  0  0  0  0  0  0  0  0  0  0
    0.5090   -0.9680    1.3638 H   0  0  0  0  0  0  0  0  0  0  0  0
   -2.2723   -1.3172    0.4286 H   0  0  0  0  0  0  0  0  0  0  0  0
   -1.8096    1.2521   -0.3488 H   0  0  0  0  0  0  0  0  0  0  0  0
   -3.3638    0.9010    0.4435 H   0  0  0  0  0  0  0  0  0  0  0  0
  1  2  3  0
  2  3  1  0
  3  4  1  0
  4  5  1  0
  5  6  1  0
  6  7  1  0
  7  8  1  0
  8  9  1  0
  6  3  1  0
  9  7  1  0
  1 10  1  0
  3 11  1  0
  4 12  1  0
  4 13  1  0
  6 14  1  0
  7 15  1  0
  8 16  1  0
  8 17  1  0
M  END
