
     RDKit          3D

 21 21  0  0  0  0  0  0  0  0999 V2000
    2.9177    1.6828    0.0019 C   0  0  0  0  0  0  0  0  0  0  0  0
    2.3240    0.6377   -0.2036 C   0  0  0  0  0  0  0  0  0  0  0  0
    1.6158   -0.6155   -0.4278 C   0  0  0  0  0  0  0  0  0  0  0  0
    2.3342   -1.7930   -0.2541 O   0  0  0  0  0  0  0  0  0  0  0  0
    0.4902   -0.5890   -1.4524 C   0  0  0  0  0  0  0  0  0  0  0  0
    0.1856   -0.7102   -0.0112 C   0  0  0  0  0  0  0  0  0  0  0  0
   -0.3200    0.4364    0.7952 C   0  0  0  0  0  0  0  0  0  0  0  0
   -1.7836    0.2444    1.1684 C   0  0  0  0  0  0  0  0  0  0  0  0
   -2.6381    0.1332   -0.0898 C   0  0  0  0  0  0  0  0  0  0  0  0
    3.4257    2.5857    0.1821 H   0  0  0  0  0  0  0  0  0  0  0  0
    3.2945   -1.5888   -0.3525 H   0  0  0  0  0  0  0  0  0  0  0  0
    0.3609    0.3504   -2.0144 H   0  0  0  0  0  0  0  0  0  0  0  0
    0.4674   -1.4993   -2.0785 H   0  0  0  0  0  0  0  0  0  0  0  0
   -0.2334   -1.7024    0.3018 H   0  0  0  0  0  0  0  0  0  0  0  0
    0.2500    0.4735    1.7466 H   0  0  0  0  0  0  0  0  0  0  0  0
   -0.1446    1.4054    0.2896 H   0  0  0  0  0  0  0  0  0  0  0  0
   -1.8416   -0.7075    1.7354 H   0  0  0  0  0  0  0  0  0  0  0  0
   -2.1312    1.0459    1.8248 H   0  0  0  0  0  0  0  0  0  0  0  0
   -3.6965    0.0726    0.2617 H   0  0  0  0  0  0  0  0  0  0  0  0
   -2.4744    0.9806   -0.7581 H   0  0  0  0  0  0  0  0  0  0  0  0
   -2.4028   -0.8428   -0.5866 H   0  0  0  0  0  0  0  0  0  0  0  0
  1  2  3  0
  2  3  1  0
  3  4  1  0
  3  5  1  0
  5  6  1  0
  6  7  1  0
  7  8  1  0
  8  9  1  0
  6  3  1  0
  1 10  1  0
  4 11  1  0
  5 12  1  0
  5 13  1  0
  6 14  1  0
  7 15  1  0
  7 16  1  0
  8 17  1  0
  8 18  1  0
  9 19  1  0
  9 20  1  0
  9 21  1  0
M  END
