
     RDKit          3D

 19 20  0  0  0  0  0  0  0  0999 V2000
    2.2470   -1.5584    0.6450 C   0  0  0  0  0  0  0  0  0  0  0  0
    1.4468   -0.7404    0.2597 C   0  0  0  0  0  0  0  0  0  0  0  0
    0.4693    0.2277   -0.2170 C   0  0  0  0  0  0  0  0  0  0  0  0
    0.9931    1.4507   -0.8501 C   0  0  0  0  0  0  0  0  0  0  0  0
   -0.6251    0.4053    0.8208 C   0  0  0  0  0  0  0  0  0  0  0  0
   -0.8760   -1.0435    1.1438 C   0  0  0  0  0  0  0  0  0  0  0  0
   -0.8826   -1.5750   -0.1752 O   0  0  0  0  0  0  0  0  0  0  0  0
   -0.6619   -0.4853   -0.9706 C   0  0  0  0  0  0  0  0  0  0  0  0
   -1.5636    0.5945   -0.3522 C   0  0  0  0  0  0  0  0  0  0  0  0
    2.9675   -2.2750    1.0002 H   0  0  0  0  0  0  0  0  0  0  0  0
    1.0320    1.3657   -1.9690 H   0  0  0  0  0  0  0  0  0  0  0  0
    2.0771    1.5622   -0.5516 H   0  0  0  0  0  0  0  0  0  0  0  0
    0.5126    2.3947   -0.5534 H   0  0  0  0  0  0  0  0  0  0  0  0
   -0.5390    1.1337    1.5657 H   0  0  0  0  0  0  0  0  0  0  0  0
   -1.8664   -1.1689    1.5762 H   0  0  0  0  0  0  0  0  0  0  0  0
   -0.0504   -1.4637    1.7315 H   0  0  0  0  0  0  0  0  0  0  0  0
   -0.6037   -0.5421   -2.0173 H   0  0  0  0  0  0  0  0  0  0  0  0
   -1.5023    1.5599   -0.8659 H   0  0  0  0  0  0  0  0  0  0  0  0
   -2.5745    0.1580   -0.2205 H   0  0  0  0  0  0  0  0  0  0  0  0
  1  2  3  0
  2  3  1  0
  3  4  1  0
  3  5  1  0
  5  6  1  0
  6  7  1  0
  7  8  1  0
  8  9  1  0
  8  3  1  0
  9  5  1  0
  1 10  1  0
  4 11  1  0
  4 12  1  0
  4 13  1  0
  5 14  1  0
  6 15  1  0
  6 16  1  0
  8 17  1  0
  9 18  1  0
  9 19  1  0
M  END
