
     RDKit          3D

 19 20  0  0  0  0  0  0  0  0999 V2000
    2.9418    0.7998    1.6671 C   0  0  0  0  0  0  0  0  0  0  0  0
    2.2721    0.2179    0.8484 C   0  0  0  0  0  0  0  0  0  0  0  0
    1.4274   -0.4857   -0.1493 C   0  0  0  0  0  0  0  0  0  0  0  0
    0.4247    0.2685   -0.7961 C   0  0  0  0  0  0  0  0  0  0  0  0
   -0.5241    1.3055   -0.3541 C   0  0  0  0  0  0  0  0  0  0  0  0
   -1.8316    0.5277   -0.1016 C   0  0  0  0  0  0  0  0  0  0  0  0
   -1.8942   -0.6331   -0.8627 O   0  0  0  0  0  0  0  0  0  0  0  0
   -0.9627   -1.6075   -0.4367 C   0  0  0  0  0  0  0  0  0  0  0  0
    0.1229   -0.8777    0.2318 C   0  0  0  0  0  0  0  0  0  0  0  0
    3.5289    1.3274    2.3795 H   0  0  0  0  0  0  0  0  0  0  0  0
    2.0522   -1.1872   -0.7395 H   0  0  0  0  0  0  0  0  0  0  0  0
    0.2437    0.0219   -1.8848 H   0  0  0  0  0  0  0  0  0  0  0  0
   -0.1942    1.6874    0.6520 H   0  0  0  0  0  0  0  0  0  0  0  0
   -0.6838    2.1457   -1.0344 H   0  0  0  0  0  0  0  0  0  0  0  0
   -2.6474    1.1795   -0.4749 H   0  0  0  0  0  0  0  0  0  0  0  0
   -2.0025    0.3643    0.9673 H   0  0  0  0  0  0  0  0  0  0  0  0
   -1.4448   -2.3795    0.1874 H   0  0  0  0  0  0  0  0  0  0  0  0
   -0.6218   -2.1178   -1.3621 H   0  0  0  0  0  0  0  0  0  0  0  0
   -0.2066   -0.5570    1.2625 H   0  0  0  0  0  0  0  0  0  0  0  0
  1  2  3  0
  2  3  1  0
  3  4  1  0
  4  5  1  0
  5  6  1  0
  6  7  1  0
  7  8  1  0
  8  9  1  0
  9  3  1  0
  9  4  1  0
  1 10  1  0
  3 11  1  0
  4 12  1  0
  5 13  1  0
  5 14  1  0
  6 15  1  0
  6 16  1  0
  8 17  1  0
  8 18  1  0
  9 19  1  0
M  END
