
     RDKit          3D

 21 20  0  0  0  0  0  0  0  0999 V2000
    3.3058   -2.3794   -0.4373 C   0  0  0  0  0  0  0  0  0  0  0  0
    2.4990   -1.4695   -0.3331 C   0  0  0  0  0  0  0  0  0  0  0  0
    1.5315   -0.4157   -0.2067 C   0  0  0  0  0  0  0  0  0  0  0  0
    1.8803    0.6426    0.3743 O   0  0  0  0  0  0  0  0  0  0  0  0
    0.1800   -0.6337   -0.7662 C   0  0  0  0  0  0  0  0  0  0  0  0
   -0.7338    0.5345   -0.5722 C   0  0  0  0  0  0  0  0  0  0  0  0
   -0.2252    1.7963   -1.2221 C   0  0  0  0  0  0  0  0  0  0  0  0
   -1.0509    0.7935    0.8821 C   0  0  0  0  0  0  0  0  0  0  0  0
   -1.7263   -0.4321    1.4715 C   0  0  0  0  0  0  0  0  0  0  0  0
    4.0170   -3.1624   -0.5415 H   0  0  0  0  0  0  0  0  0  0  0  0
   -0.2584   -1.4946   -0.2195 H   0  0  0  0  0  0  0  0  0  0  0  0
    0.2055   -0.9076   -1.8264 H   0  0  0  0  0  0  0  0  0  0  0  0
   -1.6984    0.2870   -1.0666 H   0  0  0  0  0  0  0  0  0  0  0  0
    0.5337    2.3259   -0.5825 H   0  0  0  0  0  0  0  0  0  0  0  0
    0.2849    1.5869   -2.1846 H   0  0  0  0  0  0  0  0  0  0  0  0
   -1.0748    2.4988   -1.3749 H   0  0  0  0  0  0  0  0  0  0  0  0
   -0.1672    1.0721    1.4739 H   0  0  0  0  0  0  0  0  0  0  0  0
   -1.8054    1.6090    0.9109 H   0  0  0  0  0  0  0  0  0  0  0  0
   -2.3359   -0.9497    0.6827 H   0  0  0  0  0  0  0  0  0  0  0  0
   -0.9710   -1.1796    1.7980 H   0  0  0  0  0  0  0  0  0  0  0  0
   -2.3905   -0.1222    2.3037 H   0  0  0  0  0  0  0  0  0  0  0  0
  1  2  3  0
  2  3  1  0
  3  4  2  0
  3  5  1  0
  5  6  1  0
  6  7  1  0
  6  8  1  0
  8  9  1  0
  1 10  1  0
  5 11  1  0
  5 12  1  0
  6 13  1  0
  7 14  1  0
  7 15  1  0
  7 16  1  0
  8 17  1  0
  8 18  1  0
  9 19  1  0
  9 20  1  0
  9 21  1  0
M  END
