
     RDKit          3D

 17 17  0  0  0  0  0  0  0  0999 V2000
    2.4280    0.0547   -1.1870 C   0  0  0  0  0  0  0  0  0  0  0  0
    1.4997    0.4313   -0.5098 C   0  0  0  0  0  0  0  0  0  0  0  0
    0.3620    0.8657    0.3089 C   0  0  0  0  0  0  0  0  0  0  0  0
    0.7023    1.5699    1.4496 O   0  0  0  0  0  0  0  0  0  0  0  0
   -0.7627    1.4392   -0.4860 C   0  0  0  0  0  0  0  0  0  0  0  0
   -1.6516    0.6735    0.2429 O   0  0  0  0  0  0  0  0  0  0  0  0
   -0.6247   -0.2386    0.4731 C   0  0  0  0  0  0  0  0  0  0  0  0
   -0.5688   -1.2943   -0.6007 C   0  0  0  0  0  0  0  0  0  0  0  0
   -1.7433   -2.0346   -0.6943 O   0  0  0  0  0  0  0  0  0  0  0  0
    3.2355   -0.2929   -1.7813 H   0  0  0  0  0  0  0  0  0  0  0  0
    1.3384    1.0560    1.9813 H   0  0  0  0  0  0  0  0  0  0  0  0
   -0.8862    2.5342   -0.3712 H   0  0  0  0  0  0  0  0  0  0  0  0
   -0.6587    1.1918   -1.5600 H   0  0  0  0  0  0  0  0  0  0  0  0
   -0.6804   -0.6018    1.5034 H   0  0  0  0  0  0  0  0  0  0  0  0
   -0.3916   -0.8282   -1.5914 H   0  0  0  0  0  0  0  0  0  0  0  0
    0.3273   -1.9513   -0.4232 H   0  0  0  0  0  0  0  0  0  0  0  0
   -1.9253   -2.5746    0.1113 H   0  0  0  0  0  0  0  0  0  0  0  0
  1  2  3  0
  2  3  1  0
  3  4  1  0
  3  5  1  0
  5  6  1  0
  6  7  1  0
  7  8  1  0
  8  9  1  0
  7  3  1  0
  1 10  1  0
  4 11  1  0
  5 12  1  0
  5 13  1  0
  7 14  1  0
  8 15  1  0
  8 16  1  0
  9 17  1  0
M  END
