
     RDKit          3D

 19 20  0  0  0  0  0  0  0  0999 V2000
    2.8443   -1.4731   -0.4423 C   0  0  0  0  0  0  0  0  0  0  0  0
    1.7942   -0.8729   -0.4545 C   0  0  0  0  0  0  0  0  0  0  0  0
    0.5470   -0.1323   -0.4766 C   0  0  0  0  0  0  0  0  0  0  0  0
    0.6929    1.2993   -0.0381 C   0  0  0  0  0  0  0  0  0  0  0  0
   -0.7395    1.6987    0.2451 C   0  0  0  0  0  0  0  0  0  0  0  0
   -0.4689    0.7428    1.3786 C   0  0  0  0  0  0  0  0  0  0  0  0
    0.8436    1.2403    1.3666 O   0  0  0  0  0  0  0  0  0  0  0  0
   -0.2968   -0.6045    0.7262 C   0  0  0  0  0  0  0  0  0  0  0  0
   -1.5789   -1.1977    0.2441 C   0  0  0  0  0  0  0  0  0  0  0  0
    3.7667   -1.9939   -0.4140 H   0  0  0  0  0  0  0  0  0  0  0  0
   -0.0161   -0.2140   -1.4092 H   0  0  0  0  0  0  0  0  0  0  0  0
    1.3194    1.9631   -0.5778 H   0  0  0  0  0  0  0  0  0  0  0  0
   -0.7959    2.7370    0.6015 H   0  0  0  0  0  0  0  0  0  0  0  0
   -1.4845    1.3814   -0.4890 H   0  0  0  0  0  0  0  0  0  0  0  0
   -1.0333    0.8242    2.2792 H   0  0  0  0  0  0  0  0  0  0  0  0
    0.2429   -1.3293    1.3319 H   0  0  0  0  0  0  0  0  0  0  0  0
   -1.4215   -1.5248   -0.8169 H   0  0  0  0  0  0  0  0  0  0  0  0
   -1.8161   -2.0936    0.8186 H   0  0  0  0  0  0  0  0  0  0  0  0
   -2.3996   -0.4508    0.2279 H   0  0  0  0  0  0  0  0  0  0  0  0
  1  2  3  0
  2  3  1  0
  3  4  1  0
  4  5  1  0
  5  6  1  0
  6  7  1  0
  6  8  1  0
  8  9  1  0
  8  3  1  0
  7  4  1  0
  1 10  1  0
  3 11  1  0
  4 12  1  0
  5 13  1  0
  5 14  1  0
  6 15  1  0
  8 16  1  0
  9 17  1  0
  9 18  1  0
  9 19  1  0
M  END
