
     RDKit          3D

 19 20  0  0  0  0  0  0  0  0999 V2000
    1.7250    1.7811    2.0502 C   0  0  0  0  0  0  0  0  0  0  0  0
    1.3858    0.9363    1.1172 C   0  0  0  0  0  0  0  0  0  0  0  0
    1.0288   -0.0020    0.0903 C   0  0  0  0  0  0  0  0  0  0  0  0
    0.3051   -1.2293    0.5202 C   0  0  0  0  0  0  0  0  0  0  0  0
   -0.8861   -0.9382   -0.3761 C   0  0  0  0  0  0  0  0  0  0  0  0
   -2.2075   -0.7919    0.3806 C   0  0  0  0  0  0  0  0  0  0  0  0
   -0.2582    0.3742   -0.7259 C   0  0  0  0  0  0  0  0  0  0  0  0
    1.0599    0.3797   -1.3427 C   0  0  0  0  0  0  0  0  0  0  0  0
    1.6509    1.5872   -1.6188 O   0  0  0  0  0  0  0  0  0  0  0  0
    1.9830    2.3919    2.7212 H   0  0  0  0  0  0  0  0  0  0  0  0
   -0.0259   -1.2914    1.5532 H   0  0  0  0  0  0  0  0  0  0  0  0
    0.7637   -2.2026    0.2229 H   0  0  0  0  0  0  0  0  0  0  0  0
   -0.9722   -1.6047   -1.2266 H   0  0  0  0  0  0  0  0  0  0  0  0
   -1.9905   -0.3520    1.3811 H   0  0  0  0  0  0  0  0  0  0  0  0
   -2.6838   -1.7728    0.4022 H   0  0  0  0  0  0  0  0  0  0  0  0
   -2.8410   -0.1069   -0.2164 H   0  0  0  0  0  0  0  0  0  0  0  0
   -0.7231    1.3121   -0.3151 H   0  0  0  0  0  0  0  0  0  0  0  0
    1.2478   -0.4328   -2.0918 H   0  0  0  0  0  0  0  0  0  0  0  0
    1.4385    1.9622   -2.5255 H   0  0  0  0  0  0  0  0  0  0  0  0
  1  2  3  0
  2  3  1  0
  3  4  1  0
  4  5  1  0
  5  6  1  0
  5  7  1  0
  7  8  1  0
  8  9  1  0
  7  3  1  0
  8  3  1  0
  1 10  1  0
  4 11  1  0
  4 12  1  0
  5 13  1  0
  6 14  1  0
  6 15  1  0
  6 16  1  0
  7 17  1  0
  8 18  1  0
  9 19  1  0
M  END
