
     RDKit          3D

 15 14  0  0  0  0  0  0  0  0999 V2000
    2.7527   -0.9048   -0.2224 C   0  0  0  0  0  0  0  0  0  0  0  0
    1.7821   -0.4148    0.3039 C   0  0  0  0  0  0  0  0  0  0  0  0
    0.6009    0.1942    0.9246 C   0  0  0  0  0  0  0  0  0  0  0  0
   -0.4468    0.4659   -0.1330 C   0  0  0  0  0  0  0  0  0  0  0  0
   -0.8536   -0.8213   -0.8051 C   0  0  0  0  0  0  0  0  0  0  0  0
   -1.5780    1.2505    0.3787 C   0  0  0  0  0  0  0  0  0  0  0  0
   -1.6637    2.4646    0.1481 O   0  0  0  0  0  0  0  0  0  0  0  0
    3.6190   -1.3242   -0.6991 H   0  0  0  0  0  0  0  0  0  0  0  0
    0.9134    1.1398    1.4008 H   0  0  0  0  0  0  0  0  0  0  0  0
    0.1712   -0.5269    1.6427 H   0  0  0  0  0  0  0  0  0  0  0  0
    0.0718    1.0765   -0.9272 H   0  0  0  0  0  0  0  0  0  0  0  0
   -0.9908   -1.6568   -0.0865 H   0  0  0  0  0  0  0  0  0  0  0  0
   -1.8617   -0.6625   -1.2870 H   0  0  0  0  0  0  0  0  0  0  0  0
   -0.1300   -1.1158   -1.6103 H   0  0  0  0  0  0  0  0  0  0  0  0
   -2.3864    0.8355    0.9718 H   0  0  0  0  0  0  0  0  0  0  0  0
  1  2  3  0
  2  3  1  0
  3  4  1  0
  4  5  1  0
  4  6  1  0
  6  7  2  0
  1  8  1  0
  3  9  1  0
  3 10  1  0
  4 11  1  0
  5 12  1  0
  5 13  1  0
  5 14  1  0
  6 15  1  0
M  END
