
     RDKit          3D

 19 19  0  0  0  0  0  0  0  0999 V2000
    0.5452    0.5774   -3.9050 C   0  0  0  0  0  0  0  0  0  0  0  0
    0.5143   -0.2658   -2.8748 C   0  0  0  0  0  0  0  0  0  0  0  0
    0.4616   -1.1821   -1.7806 C   0  0  0  0  0  0  0  0  0  0  0  0
    1.2991   -0.8960   -0.6603 O   0  0  0  0  0  0  0  0  0  0  0  0
   -0.0595   -0.8332   -0.4277 C   0  0  0  0  0  0  0  0  0  0  0  0
   -0.7546    0.4311   -0.1392 C   0  0  0  0  0  0  0  0  0  0  0  0
   -1.0568    0.4020    1.4194 C   0  0  0  0  0  0  0  0  0  0  0  0
    0.3302    0.2964    2.0186 C   0  0  0  0  0  0  0  0  0  0  0  0
    0.3207    0.3151    3.3899 O   0  0  0  0  0  0  0  0  0  0  0  0
    0.5808    1.1326   -4.5871 H   0  0  0  0  0  0  0  0  0  0  0  0
    0.3482   -2.2746   -2.0183 H   0  0  0  0  0  0  0  0  0  0  0  0
   -0.4823   -1.7015    0.1829 H   0  0  0  0  0  0  0  0  0  0  0  0
   -1.7510    0.5814   -0.5775 H   0  0  0  0  0  0  0  0  0  0  0  0
   -0.1447    1.3644   -0.2532 H   0  0  0  0  0  0  0  0  0  0  0  0
   -1.5757    1.3051    1.7088 H   0  0  0  0  0  0  0  0  0  0  0  0
   -1.5793   -0.5520    1.5787 H   0  0  0  0  0  0  0  0  0  0  0  0
    0.9513    1.0505    1.5285 H   0  0  0  0  0  0  0  0  0  0  0  0
    0.7527   -0.7315    1.7435 H   0  0  0  0  0  0  0  0  0  0  0  0
    1.2999    0.4333    3.6534 H   0  0  0  0  0  0  0  0  0  0  0  0
  1  2  3  0
  2  3  1  0
  3  4  1  0
  4  5  1  0
  5  6  1  0
  6  7  1  0
  7  8  1  0
  8  9  1  0
  5  3  1  0
  1 10  1  0
  3 11  1  0
  5 12  1  0
  6 13  1  0
  6 14  1  0
  7 15  1  0
  7 16  1  0
  8 17  1  0
  8 18  1  0
  9 19  1  0
M  END
