
     RDKit          3D

 17 18  0  0  0  0  0  0  0  0999 V2000
   -2.4365    1.8353    0.3993 C   0  0  0  0  0  0  0  0  0  0  0  0
   -1.9648    1.0098    0.3873 C   0  0  0  0  0  0  0  0  0  0  0  0
   -1.2356   -0.2220    0.3809 C   0  0  0  0  0  0  0  0  0  0  0  0
   -0.2266   -0.3714    1.5522 C   0  0  0  0  0  0  0  0  0  0  0  0
    0.8866   -0.2572    0.5314 C   0  0  0  0  0  0  0  0  0  0  0  0
    2.0281   -0.1094   -0.0998 C   0  0  0  0  0  0  0  0  0  0  0  0
    1.6568   -0.2855   -1.5435 C   0  0  0  0  0  0  0  0  0  0  0  0
    0.3670    0.3675   -1.4680 O   0  0  0  0  0  0  0  0  0  0  0  0
   -0.1757   -0.5272   -0.5235 C   0  0  0  0  0  0  0  0  0  0  0  0
   -3.0798    2.9969    0.4306 H   0  0  0  0  0  0  0  0  0  0  0  0
   -1.9957   -1.0749    0.4301 H   0  0  0  0  0  0  0  0  0  0  0  0
   -0.3311   -1.3442    2.0064 H   0  0  0  0  0  0  0  0  0  0  0  0
   -0.2340    0.5336    2.1967 H   0  0  0  0  0  0  0  0  0  0  0  0
    3.0109    0.1014    0.2835 H   0  0  0  0  0  0  0  0  0  0  0  0
    2.3425    0.2530   -2.2043 H   0  0  0  0  0  0  0  0  0  0  0  0
    1.4213   -1.3338   -1.7991 H   0  0  0  0  0  0  0  0  0  0  0  0
   -0.0334   -1.5720   -0.9605 H   0  0  0  0  0  0  0  0  0  0  0  0
  1  2  3  0
  2  3  1  0
  3  4  1  0
  4  5  1  0
  5  6  2  0
  6  7  1  0
  7  8  1  0
  8  9  1  0
  9  3  1  0
  9  5  1  0
  1 10  1  0
  3 11  1  0
  4 12  1  0
  4 13  1  0
  6 14  1  0
  7 15  1  0
  7 16  1  0
  9 17  1  0
M  END
