
     RDKit          3D

 21 22  0  0  0  0  0  0  0  0999 V2000
    3.4762   -0.1588    1.0978 C   0  0  0  0  0  0  0  0  0  0  0  0
    2.3623   -0.4918    0.7333 C   0  0  0  0  0  0  0  0  0  0  0  0
    1.0132   -0.8696    0.3016 C   0  0  0  0  0  0  0  0  0  0  0  0
   -0.0742   -0.4828    1.2189 C   0  0  0  0  0  0  0  0  0  0  0  0
   -1.4735   -0.8890    0.7573 C   0  0  0  0  0  0  0  0  0  0  0  0
   -1.3190    0.0855   -0.3693 C   0  0  0  0  0  0  0  0  0  0  0  0
   -1.7309   -0.3660   -1.7256 C   0  0  0  0  0  0  0  0  0  0  0  0
    0.1478    0.2389   -0.1408 C   0  0  0  0  0  0  0  0  0  0  0  0
    0.6963    1.6234   -0.1116 C   0  0  0  0  0  0  0  0  0  0  0  0
    4.4477    0.1214    1.4314 H   0  0  0  0  0  0  0  0  0  0  0  0
    0.9053   -1.8967   -0.1564 H   0  0  0  0  0  0  0  0  0  0  0  0
    0.0433    0.1882    2.0664 H   0  0  0  0  0  0  0  0  0  0  0  0
   -2.2424   -0.6557    1.5163 H   0  0  0  0  0  0  0  0  0  0  0  0
   -1.4505   -1.9679    0.4397 H   0  0  0  0  0  0  0  0  0  0  0  0
   -1.8527    1.0408   -0.1030 H   0  0  0  0  0  0  0  0  0  0  0  0
   -1.6210   -1.4688   -1.8005 H   0  0  0  0  0  0  0  0  0  0  0  0
   -1.0390    0.0510   -2.5129 H   0  0  0  0  0  0  0  0  0  0  0  0
   -2.7433   -0.0311   -2.0236 H   0  0  0  0  0  0  0  0  0  0  0  0
    0.7657    1.9307    0.9680 H   0  0  0  0  0  0  0  0  0  0  0  0
   -0.0112    2.3131   -0.6236 H   0  0  0  0  0  0  0  0  0  0  0  0
    1.7000    1.6850   -0.6043 H   0  0  0  0  0  0  0  0  0  0  0  0
  1  2  3  0
  2  3  1  0
  3  4  1  0
  4  5  1  0
  5  6  1  0
  6  7  1  0
  6  8  1  0
  8  9  1  0
  8  3  1  0
  8  4  1  0
  1 10  1  0
  3 11  1  0
  4 12  1  0
  5 13  1  0
  5 14  1  0
  6 15  1  0
  7 16  1  0
  7 17  1  0
  7 18  1  0
  9 19  1  0
  9 20  1  0
  9 21  1  0
M  END
