
     RDKit          3D

 19 20  0  0  0  0  0  0  0  0999 V2000
   -1.5665   -1.4986    2.7257 C   0  0  0  0  0  0  0  0  0  0  0  0
   -1.4123   -1.0338    1.5809 C   0  0  0  0  0  0  0  0  0  0  0  0
   -1.2317   -0.5118    0.2269 C   0  0  0  0  0  0  0  0  0  0  0  0
    0.1026    0.1834    0.0637 C   0  0  0  0  0  0  0  0  0  0  0  0
    1.1059   -0.6068   -0.7357 C   0  0  0  0  0  0  0  0  0  0  0  0
    2.3853    0.2193   -0.8020 C   0  0  0  0  0  0  0  0  0  0  0  0
   -0.6017    1.3132   -0.5801 C   0  0  0  0  0  0  0  0  0  0  0  0
   -1.7197    1.2096   -1.3637 O   0  0  0  0  0  0  0  0  0  0  0  0
   -1.8420    0.8272   -0.0355 C   0  0  0  0  0  0  0  0  0  0  0  0
   -1.6892   -1.8815    3.6231 H   0  0  0  0  0  0  0  0  0  0  0  0
   -1.4953   -1.2143   -0.5802 H   0  0  0  0  0  0  0  0  0  0  0  0
    0.4879    0.5000    1.0581 H   0  0  0  0  0  0  0  0  0  0  0  0
    1.2950   -1.5876   -0.2519 H   0  0  0  0  0  0  0  0  0  0  0  0
    0.7459   -0.7778   -1.7753 H   0  0  0  0  0  0  0  0  0  0  0  0
    2.1932    1.2939   -0.8967 H   0  0  0  0  0  0  0  0  0  0  0  0
    3.0402   -0.0418    0.0651 H   0  0  0  0  0  0  0  0  0  0  0  0
    2.9433   -0.0719   -1.7367 H   0  0  0  0  0  0  0  0  0  0  0  0
   -0.2244    2.3602   -0.4522 H   0  0  0  0  0  0  0  0  0  0  0  0
   -2.5163    1.3191    0.6456 H   0  0  0  0  0  0  0  0  0  0  0  0
  1  2  3  0
  2  3  1  0
  3  4  1  0
  4  5  1  0
  5  6  1  0
  4  7  1  0
  7  8  1  0
  8  9  1  0
  9  3  1  0
  9  7  1  0
  1 10  1  0
  3 11  1  0
  4 12  1  0
  5 13  1  0
  5 14  1  0
  6 15  1  0
  6 16  1  0
  6 17  1  0
  7 18  1  0
  9 19  1  0
M  END
