
     RDKit          3D

 17 18  0  0  0  0  0  0  0  0999 V2000
    3.6292   -0.3677   -0.8698 C   0  0  0  0  0  0  0  0  0  0  0  0
    2.4863   -0.2014   -0.5267 C   0  0  0  0  0  0  0  0  0  0  0  0
    1.0920    0.0263   -0.1152 C   0  0  0  0  0  0  0  0  0  0  0  0
    0.7047    0.7957    0.8772 C   0  0  0  0  0  0  0  0  0  0  0  0
   -0.7556    0.8454    1.0728 C   0  0  0  0  0  0  0  0  0  0  0  0
   -1.3278   -0.1871    1.8056 O   0  0  0  0  0  0  0  0  0  0  0  0
   -2.1650   -0.4882    0.7233 C   0  0  0  0  0  0  0  0  0  0  0  0
   -1.2344    0.2340   -0.2383 C   0  0  0  0  0  0  0  0  0  0  0  0
   -0.0975   -0.5764   -0.7478 C   0  0  0  0  0  0  0  0  0  0  0  0
    4.6335   -0.5042   -1.1643 H   0  0  0  0  0  0  0  0  0  0  0  0
    1.4430    1.3463    1.4944 H   0  0  0  0  0  0  0  0  0  0  0  0
   -1.1820    1.8481    1.2556 H   0  0  0  0  0  0  0  0  0  0  0  0
   -2.2153   -1.5805    0.6013 H   0  0  0  0  0  0  0  0  0  0  0  0
   -3.1207    0.0569    0.7766 H   0  0  0  0  0  0  0  0  0  0  0  0
   -1.7094    0.9284   -0.9285 H   0  0  0  0  0  0  0  0  0  0  0  0
   -0.2019   -1.6568   -0.4658 H   0  0  0  0  0  0  0  0  0  0  0  0
    0.0211   -0.5189   -1.8485 H   0  0  0  0  0  0  0  0  0  0  0  0
  1  2  3  0
  2  3  1  0
  3  4  2  0
  4  5  1  0
  5  6  1  0
  6  7  1  0
  7  8  1  0
  8  9  1  0
  9  3  1  0
  8  5  1  0
  1 10  1  0
  4 11  1  0
  5 12  1  0
  7 13  1  0
  7 14  1  0
  8 15  1  0
  9 16  1  0
  9 17  1  0
M  END
