
     RDKit          3D

 21 21  0  0  0  0  0  0  0  0999 V2000
   -2.5169   -1.6012   -0.8342 C   0  0  0  0  0  0  0  0  0  0  0  0
   -1.6260   -0.8734   -0.4346 C   0  0  0  0  0  0  0  0  0  0  0  0
   -0.5448   -0.0038    0.0387 C   0  0  0  0  0  0  0  0  0  0  0  0
   -0.6591    0.0629    1.5444 C   0  0  0  0  0  0  0  0  0  0  0  0
   -0.7727    1.3577   -0.5392 C   0  0  0  0  0  0  0  0  0  0  0  0
   -0.7741    1.3678   -1.9152 O   0  0  0  0  0  0  0  0  0  0  0  0
    0.7988   -0.5039   -0.4206 C   0  0  0  0  0  0  0  0  0  0  0  0
    2.0082    0.2657   -0.0257 C   0  0  0  0  0  0  0  0  0  0  0  0
    1.7761   -1.0921    0.5144 C   0  0  0  0  0  0  0  0  0  0  0  0
   -3.2950   -2.2281   -1.1996 H   0  0  0  0  0  0  0  0  0  0  0  0
   -0.8501   -0.9642    1.9666 H   0  0  0  0  0  0  0  0  0  0  0  0
   -1.5823    0.6448    1.7707 H   0  0  0  0  0  0  0  0  0  0  0  0
    0.2204    0.5472    1.9799 H   0  0  0  0  0  0  0  0  0  0  0  0
   -1.7425    1.7952   -0.1984 H   0  0  0  0  0  0  0  0  0  0  0  0
    0.0188    2.0302   -0.1073 H   0  0  0  0  0  0  0  0  0  0  0  0
    0.0509    1.7035   -2.3159 H   0  0  0  0  0  0  0  0  0  0  0  0
    0.7775   -0.9425   -1.4452 H   0  0  0  0  0  0  0  0  0  0  0  0
    2.7647    0.4560   -0.8173 H   0  0  0  0  0  0  0  0  0  0  0  0
    1.9461    1.0939    0.7086 H   0  0  0  0  0  0  0  0  0  0  0  0
    1.5471   -1.2293    1.5957 H   0  0  0  0  0  0  0  0  0  0  0  0
    2.4547   -1.8863    0.1342 H   0  0  0  0  0  0  0  0  0  0  0  0
  1  2  3  0
  2  3  1  0
  3  4  1  0
  3  5  1  0
  5  6  1  0
  3  7  1  0
  7  8  1  0
  8  9  1  0
  9  7  1  0
  1 10  1  0
  4 11  1  0
  4 12  1  0
  4 13  1  0
  5 14  1  0
  5 15  1  0
  6 16  1  0
  7 17  1  0
  8 18  1  0
  8 19  1  0
  9 20  1  0
  9 21  1  0
M  END
