
     RDKit          3D

 15 14  0  0  0  0  0  0  0  0999 V2000
    2.9002   -0.0383    0.0140 C   0  0  0  0  0  0  0  0  0  0  0  0
    1.7568    0.0933    0.3721 C   0  0  0  0  0  0  0  0  0  0  0  0
    0.3877    0.2755    0.7963 C   0  0  0  0  0  0  0  0  0  0  0  0
    0.1723    1.6194    1.0680 O   0  0  0  0  0  0  0  0  0  0  0  0
   -0.5825   -0.2126   -0.2854 C   0  0  0  0  0  0  0  0  0  0  0  0
   -2.0129   -0.0884    0.1996 C   0  0  0  0  0  0  0  0  0  0  0  0
   -0.3317   -1.5630   -0.5265 O   0  0  0  0  0  0  0  0  0  0  0  0
    3.9090   -0.1471   -0.3196 H   0  0  0  0  0  0  0  0  0  0  0  0
    0.2201   -0.2826    1.7398 H   0  0  0  0  0  0  0  0  0  0  0  0
    1.0420    2.0465    1.2564 H   0  0  0  0  0  0  0  0  0  0  0  0
   -0.3912    0.3728   -1.1972 H   0  0  0  0  0  0  0  0  0  0  0  0
   -2.3805   -1.0459    0.6513 H   0  0  0  0  0  0  0  0  0  0  0  0
   -2.6305    0.1688   -0.7082 H   0  0  0  0  0  0  0  0  0  0  0  0
   -2.0930    0.7492    0.9256 H   0  0  0  0  0  0  0  0  0  0  0  0
    0.0341   -1.9477    0.3288 H   0  0  0  0  0  0  0  0  0  0  0  0
  1  2  3  0
  2  3  1  0
  3  4  1  0
  3  5  1  0
  5  6  1  0
  5  7  1  0
  1  8  1  0
  3  9  1  0
  4 10  1  0
  5 11  1  0
  6 12  1  0
  6 13  1  0
  6 14  1  0
  7 15  1  0
M  END
