
     RDKit          3D

 19 18  0  0  0  0  0  0  0  0999 V2000
   -1.0941    2.6781    0.9133 C   0  0  0  0  0  0  0  0  0  0  0  0
   -0.9054    1.4894    0.1710 C   0  0  0  0  0  0  0  0  0  0  0  0
   -0.7432    0.3567   -0.5501 C   0  0  0  0  0  0  0  0  0  0  0  0
   -1.1794   -0.7588    0.4761 C   0  0  0  0  0  0  0  0  0  0  0  0
   -2.5334   -0.6263    0.9169 C   0  0  0  0  0  0  0  0  0  0  0  0
   -3.4426    0.1149    0.6485 O   0  0  0  0  0  0  0  0  0  0  0  0
    0.8509    0.1147   -0.5155 C   0  0  0  0  0  0  0  0  0  0  0  0
    1.3135   -0.8957   -1.2105 O   0  0  0  0  0  0  0  0  0  0  0  0
    2.7401   -0.9395   -1.0257 C   0  0  0  0  0  0  0  0  0  0  0  0
   -1.2097    3.4885    1.4172 H   0  0  0  0  0  0  0  0  0  0  0  0
   -1.0886    0.2546   -1.5180 H   0  0  0  0  0  0  0  0  0  0  0  0
   -0.7637   -1.7018    0.3099 H   0  0  0  0  0  0  0  0  0  0  0  0
   -0.5183   -0.3729    1.3921 H   0  0  0  0  0  0  0  0  0  0  0  0
   -2.8512   -1.3868    1.7163 H   0  0  0  0  0  0  0  0  0  0  0  0
    0.9985    0.0039    0.6173 H   0  0  0  0  0  0  0  0  0  0  0  0
    1.2522    1.1058   -0.7326 H   0  0  0  0  0  0  0  0  0  0  0  0
    3.0053   -1.8868   -1.5864 H   0  0  0  0  0  0  0  0  0  0  0  0
    3.2113   -0.0725   -1.4918 H   0  0  0  0  0  0  0  0  0  0  0  0
    2.9577   -0.9655    0.0519 H   0  0  0  0  0  0  0  0  0  0  0  0
  1  2  3  0
  2  3  1  0
  3  4  1  0
  4  5  1  0
  5  6  2  0
  3  7  1  0
  7  8  1  0
  8  9  1  0
  1 10  1  0
  3 11  1  0
  4 12  1  0
  4 13  1  0
  5 14  1  0
  7 15  1  0
  7 16  1  0
  9 17  1  0
  9 18  1  0
  9 19  1  0
M  END
