
     RDKit          3D

 16 17  0  0  0  0  0  0  0  0999 V2000
    2.9301    0.7666    1.9330 C   0  0  0  0  0  0  0  0  0  0  0  0
    2.0562    0.7120    1.0945 C   0  0  0  0  0  0  0  0  0  0  0  0
    1.0062    0.6656    0.0643 C   0  0  0  0  0  0  0  0  0  0  0  0
   -0.3919    0.7010    0.6009 C   0  0  0  0  0  0  0  0  0  0  0  0
   -0.1061   -0.5094    1.2097 O   0  0  0  0  0  0  0  0  0  0  0  0
    0.4300   -0.7083   -0.0571 C   0  0  0  0  0  0  0  0  0  0  0  0
   -0.8105   -0.0843   -0.5978 C   0  0  0  0  0  0  0  0  0  0  0  0
   -2.0884   -0.8668   -0.4065 C   0  0  0  0  0  0  0  0  0  0  0  0
    3.6826    0.8249    2.6762 H   0  0  0  0  0  0  0  0  0  0  0  0
    1.2073    1.2217   -0.8496 H   0  0  0  0  0  0  0  0  0  0  0  0
   -0.8633    1.4908    1.0124 H   0  0  0  0  0  0  0  0  0  0  0  0
    0.8972   -1.5392   -0.3846 H   0  0  0  0  0  0  0  0  0  0  0  0
   -0.7000    0.4175   -1.5582 H   0  0  0  0  0  0  0  0  0  0  0  0
   -2.7681   -0.2877    0.2532 H   0  0  0  0  0  0  0  0  0  0  0  0
   -2.5794   -0.9546   -1.3893 H   0  0  0  0  0  0  0  0  0  0  0  0
   -1.9021   -1.8499    0.0708 H   0  0  0  0  0  0  0  0  0  0  0  0
  1  2  3  0
  2  3  1  0
  3  4  1  0
  4  5  1  0
  5  6  1  0
  6  7  1  0
  7  8  1  0
  6  3  1  0
  7  4  1  0
  1  9  1  0
  3 10  1  0
  4 11  1  0
  6 12  1  0
  7 13  1  0
  8 14  1  0
  8 15  1  0
  8 16  1  0
M  END
