
     RDKit          3D

 16 17  0  0  0  0  0  0  0  0999 V2000
    1.4902   -0.9566   -2.0119 C   0  0  0  0  0  0  0  0  0  0  0  0
    0.9628   -0.1411   -1.1849 C   0  0  0  0  0  0  0  0  0  0  0  0
    0.3634    0.8003   -0.2174 C   0  0  0  0  0  0  0  0  0  0  0  0
   -0.8600    1.5468   -0.6028 C   0  0  0  0  0  0  0  0  0  0  0  0
   -1.5966    0.7415    0.2498 O   0  0  0  0  0  0  0  0  0  0  0  0
   -0.5142    0.0499    0.7449 C   0  0  0  0  0  0  0  0  0  0  0  0
   -0.5446   -1.4526    0.7049 C   0  0  0  0  0  0  0  0  0  0  0  0
    0.6890    0.7343    1.2200 C   0  0  0  0  0  0  0  0  0  0  0  0
    1.9003   -1.6160   -2.6578 H   0  0  0  0  0  0  0  0  0  0  0  0
   -0.8706    2.5960   -0.1566 H   0  0  0  0  0  0  0  0  0  0  0  0
   -1.1614    1.4878   -1.6642 H   0  0  0  0  0  0  0  0  0  0  0  0
   -1.6224   -1.7481    0.4914 H   0  0  0  0  0  0  0  0  0  0  0  0
    0.1091   -1.8974   -0.0871 H   0  0  0  0  0  0  0  0  0  0  0  0
   -0.3159   -1.8749    1.6970 H   0  0  0  0  0  0  0  0  0  0  0  0
    1.4776    0.0867    1.6346 H   0  0  0  0  0  0  0  0  0  0  0  0
    0.4933    1.6436    1.8400 H   0  0  0  0  0  0  0  0  0  0  0  0
  1  2  3  0
  2  3  1  0
  3  4  1  0
  4  5  1  0
  5  6  1  0
  6  7  1  0
  6  8  1  0
  6  3  1  0
  8  3  1  0
  1  9  1  0
  4 10  1  0
  4 11  1  0
  7 12  1  0
  7 13  1  0
  7 14  1  0
  8 15  1  0
  8 16  1  0
M  END
