
     RDKit          3D

 19 19  0  0  0  0  0  0  0  0999 V2000
    1.3023   -1.6355    1.6644 C   0  0  0  0  0  0  0  0  0  0  0  0
    1.1026   -0.6311    1.1278 C   0  0  0  0  0  0  0  0  0  0  0  0
    0.8570    0.6080    0.4379 C   0  0  0  0  0  0  0  0  0  0  0  0
    0.5982    1.7352    1.4706 C   0  0  0  0  0  0  0  0  0  0  0  0
   -0.0570    0.6526   -0.6466 C   0  0  0  0  0  0  0  0  0  0  0  0
   -1.5222    0.4056   -0.6293 C   0  0  0  0  0  0  0  0  0  0  0  0
   -0.6080   -0.5493   -1.3541 C   0  0  0  0  0  0  0  0  0  0  0  0
   -0.7546   -1.9201   -0.8762 C   0  0  0  0  0  0  0  0  0  0  0  0
   -1.2772   -2.1632    0.1808 O   0  0  0  0  0  0  0  0  0  0  0  0
    1.5048   -2.6366    2.2092 H   0  0  0  0  0  0  0  0  0  0  0  0
    1.9327    0.8799    0.0317 H   0  0  0  0  0  0  0  0  0  0  0  0
    0.2715    1.2802    2.4242 H   0  0  0  0  0  0  0  0  0  0  0  0
    1.5578    2.3137    1.6376 H   0  0  0  0  0  0  0  0  0  0  0  0
   -0.1374    2.3932    1.0629 H   0  0  0  0  0  0  0  0  0  0  0  0
    0.1962    1.4720   -1.4177 H   0  0  0  0  0  0  0  0  0  0  0  0
   -2.0072    0.0286    0.3236 H   0  0  0  0  0  0  0  0  0  0  0  0
   -2.2186    1.0493   -1.2351 H   0  0  0  0  0  0  0  0  0  0  0  0
   -0.3329   -0.5181   -2.4266 H   0  0  0  0  0  0  0  0  0  0  0  0
   -0.4080   -2.7643   -1.4292 H   0  0  0  0  0  0  0  0  0  0  0  0
  1  2  3  0
  2  3  1  0
  3  4  1  0
  3  5  1  0
  5  6  1  0
  6  7  1  0
  7  8  1  0
  8  9  2  0
  7  5  1  0
  1 10  1  0
  3 11  1  0
  4 12  1  0
  4 13  1  0
  4 14  1  0
  5 15  1  0
  6 16  1  0
  6 17  1  0
  7 18  1  0
  8 19  1  0
M  END
