
     RDKit          3D

 17 18  0  0  0  0  0  0  0  0999 V2000
    1.4137    1.4540   -2.5063 C   0  0  0  0  0  0  0  0  0  0  0  0
    0.8382    1.0528   -1.3604 C   0  0  0  0  0  0  0  0  0  0  0  0
    0.3061    0.7069   -0.3316 C   0  0  0  0  0  0  0  0  0  0  0  0
   -0.1301    1.5389    0.7581 C   0  0  0  0  0  0  0  0  0  0  0  0
   -0.7257    0.8461    1.8666 C   0  0  0  0  0  0  0  0  0  0  0  0
   -0.2569   -0.2203    2.5585 O   0  0  0  0  0  0  0  0  0  0  0  0
   -0.8451   -0.5465    1.3169 C   0  0  0  0  0  0  0  0  0  0  0  0
    0.1665   -0.7003    0.2545 C   0  0  0  0  0  0  0  0  0  0  0  0
   -0.0471   -1.7321   -0.7768 C   0  0  0  0  0  0  0  0  0  0  0  0
    1.8805    1.7755   -3.4686 H   0  0  0  0  0  0  0  0  0  0  0  0
    0.0135    2.5822    0.5696 H   0  0  0  0  0  0  0  0  0  0  0  0
   -1.6854    1.3033    2.3037 H   0  0  0  0  0  0  0  0  0  0  0  0
   -1.8641   -0.9197    1.2563 H   0  0  0  0  0  0  0  0  0  0  0  0
    1.1685   -0.8995    0.7382 H   0  0  0  0  0  0  0  0  0  0  0  0
   -0.8893   -2.4049   -0.4717 H   0  0  0  0  0  0  0  0  0  0  0  0
   -0.1576   -1.3629   -1.8199 H   0  0  0  0  0  0  0  0  0  0  0  0
    0.8143   -2.4734   -0.8871 H   0  0  0  0  0  0  0  0  0  0  0  0
  1  2  3  0
  2  3  1  0
  3  4  2  0
  4  5  1  0
  5  6  1  0
  6  7  1  0
  7  8  1  0
  8  9  1  0
  8  3  1  0
  7  5  1  0
  1 10  1  0
  4 11  1  0
  5 12  1  0
  7 13  1  0
  8 14  1  0
  9 15  1  0
  9 16  1  0
  9 17  1  0
M  END
