
     RDKit          3D

 17 18  0  0  0  0  0  0  0  0999 V2000
    2.7053    1.0032    0.7787 C   0  0  0  0  0  0  0  0  0  0  0  0
    1.7423    0.2767    0.7880 C   0  0  0  0  0  0  0  0  0  0  0  0
    0.5732   -0.6344    0.7885 C   0  0  0  0  0  0  0  0  0  0  0  0
    0.5477   -1.5798   -0.4368 C   0  0  0  0  0  0  0  0  0  0  0  0
   -0.4000   -0.4804   -0.2635 C   0  0  0  0  0  0  0  0  0  0  0  0
   -1.7511   -0.6342   -0.1506 O   0  0  0  0  0  0  0  0  0  0  0  0
   -1.9021    0.0977   -1.3514 C   0  0  0  0  0  0  0  0  0  0  0  0
   -0.5015    0.6884   -1.1814 C   0  0  0  0  0  0  0  0  0  0  0  0
   -0.4838    1.9446   -0.6093 O   0  0  0  0  0  0  0  0  0  0  0  0
    3.5424    1.6524    0.7823 H   0  0  0  0  0  0  0  0  0  0  0  0
    0.3079   -1.1255    1.7571 H   0  0  0  0  0  0  0  0  0  0  0  0
    0.1487   -2.6055   -0.2477 H   0  0  0  0  0  0  0  0  0  0  0  0
    1.3296   -1.4443   -1.1989 H   0  0  0  0  0  0  0  0  0  0  0  0
   -1.9484   -0.6270   -2.1824 H   0  0  0  0  0  0  0  0  0  0  0  0
   -2.7206    0.8325   -1.2857 H   0  0  0  0  0  0  0  0  0  0  0  0
    0.0983    0.6150   -2.1056 H   0  0  0  0  0  0  0  0  0  0  0  0
   -1.2877    2.0205   -0.0295 H   0  0  0  0  0  0  0  0  0  0  0  0
  1  2  3  0
  2  3  1  0
  3  4  1  0
  4  5  1  0
  5  6  1  0
  6  7  1  0
  7  8  1  0
  8  9  1  0
  5  3  1  0
  8  5  1  0
  1 10  1  0
  3 11  1  0
  4 12  1  0
  4 13  1  0
  7 14  1  0
  7 15  1  0
  8 16  1  0
  9 17  1  0
M  END
