
     RDKit          3D

 17 17  0  0  0  0  0  0  0  0999 V2000
    2.8840   -0.0280    0.5848 C   0  0  0  0  0  0  0  0  0  0  0  0
    1.8569    0.0621   -0.0475 C   0  0  0  0  0  0  0  0  0  0  0  0
    0.6025    0.1478   -0.8270 C   0  0  0  0  0  0  0  0  0  0  0  0
   -0.1987   -1.1066   -0.6864 C   0  0  0  0  0  0  0  0  0  0  0  0
   -1.3570   -1.0137    0.2341 C   0  0  0  0  0  0  0  0  0  0  0  0
   -1.9864    0.2023    0.2745 O   0  0  0  0  0  0  0  0  0  0  0  0
   -1.1134    1.1910    0.7297 C   0  0  0  0  0  0  0  0  0  0  0  0
   -0.0982    1.3641   -0.3721 C   0  0  0  0  0  0  0  0  0  0  0  0
    0.1410    2.4289   -0.8659 O   0  0  0  0  0  0  0  0  0  0  0  0
    3.7903   -0.1123    1.1275 H   0  0  0  0  0  0  0  0  0  0  0  0
    0.8861    0.3128   -1.8962 H   0  0  0  0  0  0  0  0  0  0  0  0
    0.5055   -1.9010   -0.2985 H   0  0  0  0  0  0  0  0  0  0  0  0
   -0.5214   -1.4387   -1.6968 H   0  0  0  0  0  0  0  0  0  0  0  0
   -2.1267   -1.7667   -0.1083 H   0  0  0  0  0  0  0  0  0  0  0  0
   -1.1149   -1.3363    1.2853 H   0  0  0  0  0  0  0  0  0  0  0  0
   -0.5359    0.8628    1.6129 H   0  0  0  0  0  0  0  0  0  0  0  0
   -1.6137    2.1316    0.9500 H   0  0  0  0  0  0  0  0  0  0  0  0
  1  2  3  0
  2  3  1  0
  3  4  1  0
  4  5  1  0
  5  6  1  0
  6  7  1  0
  7  8  1  0
  8  9  2  0
  8  3  1  0
  1 10  1  0
  3 11  1  0
  4 12  1  0
  4 13  1  0
  5 14  1  0
  5 15  1  0
  7 16  1  0
  7 17  1  0
M  END
