
     RDKit          3D

 15 16  0  0  0  0  0  0  0  0999 V2000
    1.7243   -3.2068   -0.4093 C   0  0  0  0  0  0  0  0  0  0  0  0
    1.4407   -2.0962    0.1549 C   0  0  0  0  0  0  0  0  0  0  0  0
    1.1242   -0.9087    0.7826 C   0  0  0  0  0  0  0  0  0  0  0  0
    1.1871   -0.7730    2.0459 O   0  0  0  0  0  0  0  0  0  0  0  0
    0.6847    0.2760   -0.0564 C   0  0  0  0  0  0  0  0  0  0  0  0
    0.4094    1.3614    0.7343 O   0  0  0  0  0  0  0  0  0  0  0  0
   -0.7905    1.5485    0.0798 C   0  0  0  0  0  0  0  0  0  0  0  0
   -1.8820    0.5563    0.2391 C   0  0  0  0  0  0  0  0  0  0  0  0
   -0.7230    0.1749   -0.5887 C   0  0  0  0  0  0  0  0  0  0  0  0
    1.9807   -4.1524   -0.8918 H   0  0  0  0  0  0  0  0  0  0  0  0
    1.4647    0.4460   -0.8236 H   0  0  0  0  0  0  0  0  0  0  0  0
   -0.9696    2.4501   -0.5134 H   0  0  0  0  0  0  0  0  0  0  0  0
   -2.0095   -0.0423    1.1878 H   0  0  0  0  0  0  0  0  0  0  0  0
   -2.8272    0.8424   -0.2561 H   0  0  0  0  0  0  0  0  0  0  0  0
   -0.8139    0.1969   -1.6851 H   0  0  0  0  0  0  0  0  0  0  0  0
  1  2  3  0
  2  3  1  0
  3  4  2  0
  3  5  1  0
  5  6  1  0
  6  7  1  0
  7  8  1  0
  8  9  1  0
  9  5  1  0
  9  7  1  0
  1 10  1  0
  5 11  1  0
  7 12  1  0
  8 13  1  0
  8 14  1  0
  9 15  1  0
M  END
