
     RDKit          3D

 21 21  0  0  0  0  0  0  0  0999 V2000
    3.2429    1.9904   -0.0640 C   0  0  0  0  0  0  0  0  0  0  0  0
    2.0353    1.3283    0.3871 C   0  0  0  0  0  0  0  0  0  0  0  0
    0.9613    0.7427    0.7703 C   0  0  0  0  0  0  0  0  0  0  0  0
    0.6523   -0.6669    0.8821 C   0  0  0  0  0  0  0  0  0  0  0  0
   -0.4865   -0.4179   -0.1708 C   0  0  0  0  0  0  0  0  0  0  0  0
    0.0486   -0.7562   -1.5301 C   0  0  0  0  0  0  0  0  0  0  0  0
   -1.7821   -1.0931    0.1825 C   0  0  0  0  0  0  0  0  0  0  0  0
   -2.6877   -0.8030   -0.8181 O   0  0  0  0  0  0  0  0  0  0  0  0
   -0.4351    1.0053    0.2417 C   0  0  0  0  0  0  0  0  0  0  0  0
    3.9853    2.3922   -0.3268 H   0  0  0  0  0  0  0  0  0  0  0  0
    0.8305    1.2170    1.9873 H   0  0  0  0  0  0  0  0  0  0  0  0
    0.2735   -0.9595    1.8975 H   0  0  0  0  0  0  0  0  0  0  0  0
    1.3703   -1.4202    0.5460 H   0  0  0  0  0  0  0  0  0  0  0  0
   -0.6287   -0.5673   -2.3517 H   0  0  0  0  0  0  0  0  0  0  0  0
    0.3273   -1.8593   -1.4824 H   0  0  0  0  0  0  0  0  0  0  0  0
    1.0164   -0.2190   -1.7394 H   0  0  0  0  0  0  0  0  0  0  0  0
   -2.1739   -0.7143    1.1889 H   0  0  0  0  0  0  0  0  0  0  0  0
   -1.6056   -2.1965    0.3101 H   0  0  0  0  0  0  0  0  0  0  0  0
   -3.2597   -0.0305   -0.5584 H   0  0  0  0  0  0  0  0  0  0  0  0
   -0.5355    1.8063   -0.4763 H   0  0  0  0  0  0  0  0  0  0  0  0
   -1.1490    1.2217    1.1243 H   0  0  0  0  0  0  0  0  0  0  0  0
  1  2  3  0
  2  3  1  0
  3  4  1  0
  4  5  1  0
  5  6  1  0
  5  7  1  0
  7  8  1  0
  5  9  1  0
  9  3  1  0
  1 10  1  0
  3 11  1  0
  4 12  1  0
  4 13  1  0
  6 14  1  0
  6 15  1  0
  6 16  1  0
  7 17  1  0
  7 18  1  0
  8 19  1  0
  9 20  1  0
  9 21  1  0
M  END
