
     RDKit          3D

 19 19  0  0  0  0  0  0  0  0999 V2000
    2.6892   -0.8978    1.0741 C   0  0  0  0  0  0  0  0  0  0  0  0
    1.8786   -0.0057    1.1116 C   0  0  0  0  0  0  0  0  0  0  0  0
    0.8945    1.0788    1.1340 C   0  0  0  0  0  0  0  0  0  0  0  0
   -0.4309    0.5993    0.6369 C   0  0  0  0  0  0  0  0  0  0  0  0
   -1.0233   -0.4288    1.3317 O   0  0  0  0  0  0  0  0  0  0  0  0
   -1.6731   -0.7638    0.1180 C   0  0  0  0  0  0  0  0  0  0  0  0
   -0.4251   -0.2764   -0.5761 C   0  0  0  0  0  0  0  0  0  0  0  0
   -0.6270    0.5148   -1.8246 C   0  0  0  0  0  0  0  0  0  0  0  0
    0.5305   -1.2706   -0.6226 O   0  0  0  0  0  0  0  0  0  0  0  0
    3.4059   -1.7017    1.0454 H   0  0  0  0  0  0  0  0  0  0  0  0
    1.2164    1.9147    0.4648 H   0  0  0  0  0  0  0  0  0  0  0  0
    0.7673    1.5244    2.1338 H   0  0  0  0  0  0  0  0  0  0  0  0
   -1.1455    1.4346    0.5032 H   0  0  0  0  0  0  0  0  0  0  0  0
   -1.8935   -1.8307    0.0458 H   0  0  0  0  0  0  0  0  0  0  0  0
   -2.5505   -0.0951   -0.0103 H   0  0  0  0  0  0  0  0  0  0  0  0
    0.1123    0.1577   -2.5888 H   0  0  0  0  0  0  0  0  0  0  0  0
   -0.3549    1.5977   -1.6661 H   0  0  0  0  0  0  0  0  0  0  0  0
   -1.6430    0.5140   -2.2223 H   0  0  0  0  0  0  0  0  0  0  0  0
    0.2723   -2.0654   -0.0884 H   0  0  0  0  0  0  0  0  0  0  0  0
  1  2  3  0
  2  3  1  0
  3  4  1  0
  4  5  1  0
  5  6  1  0
  6  7  1  0
  7  8  1  0
  7  9  1  0
  7  4  1  0
  1 10  1  0
  3 11  1  0
  3 12  1  0
  4 13  1  0
  6 14  1  0
  6 15  1  0
  8 16  1  0
  8 17  1  0
  8 18  1  0
  9 19  1  0
M  END
