
     RDKit          3D

 17 16  0  0  0  0  0  0  0  0999 V2000
    0.7796    2.8038    0.8944 C   0  0  0  0  0  0  0  0  0  0  0  0
    0.5335    1.5764    0.6411 C   0  0  0  0  0  0  0  0  0  0  0  0
    0.2141    0.0185    0.2940 C   0  0  0  0  0  0  0  0  0  0  0  0
    1.0392    0.1963   -0.9697 C   0  0  0  0  0  0  0  0  0  0  0  0
    1.8134    0.3424   -2.1307 C   0  0  0  0  0  0  0  0  0  0  0  0
    0.6807   -0.6829    1.1465 C   0  0  0  0  0  0  0  0  0  0  0  0
    1.2202   -1.4715    2.1349 C   0  0  0  0  0  0  0  0  0  0  0  0
   -1.2318    0.0506   -0.1550 C   0  0  0  0  0  0  0  0  0  0  0  0
   -1.7102   -1.3153   -0.5128 C   0  0  0  0  0  0  0  0  0  0  0  0
    0.9803    3.7684    1.0845 H   0  0  0  0  0  0  0  0  0  0  0  0
    2.4030    0.4673   -3.0085 H   0  0  0  0  0  0  0  0  0  0  0  0
    1.6785   -2.1312    2.9639 H   0  0  0  0  0  0  0  0  0  0  0  0
   -1.7763    0.5673    0.6741 H   0  0  0  0  0  0  0  0  0  0  0  0
   -1.2794    0.6919   -1.0897 H   0  0  0  0  0  0  0  0  0  0  0  0
   -2.3828   -1.2233   -1.4337 H   0  0  0  0  0  0  0  0  0  0  0  0
   -2.1838   -1.7873    0.3275 H   0  0  0  0  0  0  0  0  0  0  0  0
   -0.7783   -1.8713   -0.8607 H   0  0  0  0  0  0  0  0  0  0  0  0
  1  2  3  0
  2  3  1  0
  3  4  1  0
  4  5  3  0
  3  6  1  0
  6  7  3  0
  3  8  1  0
  8  9  1  0
  1 10  1  0
  5 11  1  0
  7 12  1  0
  8 13  1  0
  8 14  1  0
  9 15  1  0
  9 16  1  0
  9 17  1  0
M  END
