
     RDKit          3D

 17 19  0  0  0  0  0  0  0  0999 V2000
    3.4360   -0.0439   -1.0188 C   0  0  0  0  0  0  0  0  0  0  0  0
    2.4507   -0.2907   -0.3606 C   0  0  0  0  0  0  0  0  0  0  0  0
    1.2703   -0.5773    0.4219 C   0  0  0  0  0  0  0  0  0  0  0  0
    0.6934    0.5881    1.2795 C   0  0  0  0  0  0  0  0  0  0  0  0
   -0.0012    0.0317    0.1342 C   0  0  0  0  0  0  0  0  0  0  0  0
   -0.3011    0.8167   -0.9515 O   0  0  0  0  0  0  0  0  0  0  0  0
   -1.5690    0.3125   -1.0338 C   0  0  0  0  0  0  0  0  0  0  0  0
   -2.5064    0.2701    0.1071 C   0  0  0  0  0  0  0  0  0  0  0  0
   -1.3217   -0.6355    0.1638 C   0  0  0  0  0  0  0  0  0  0  0  0
    4.3042    0.1889   -1.6045 H   0  0  0  0  0  0  0  0  0  0  0  0
    1.2745   -1.5562    0.9734 H   0  0  0  0  0  0  0  0  0  0  0  0
    0.3452    0.3412    2.2851 H   0  0  0  0  0  0  0  0  0  0  0  0
    1.2412    1.5494    1.1339 H   0  0  0  0  0  0  0  0  0  0  0  0
   -1.8552   -0.1467   -1.9856 H   0  0  0  0  0  0  0  0  0  0  0  0
   -2.5770    1.0927    0.8497 H   0  0  0  0  0  0  0  0  0  0  0  0
   -3.4673   -0.2282   -0.0751 H   0  0  0  0  0  0  0  0  0  0  0  0
   -1.4166   -1.7129   -0.1019 H   0  0  0  0  0  0  0  0  0  0  0  0
  1  2  3  0
  2  3  1  0
  3  4  1  0
  4  5  1  0
  5  6  1  0
  6  7  1  0
  7  8  1  0
  8  9  1  0
  5  3  1  0
  9  7  1  0
  9  5  1  0
  1 10  1  0
  3 11  1  0
  4 12  1  0
  4 13  1  0
  7 14  1  0
  8 15  1  0
  8 16  1  0
  9 17  1  0
M  END
