
     RDKit          3D

 16 17  0  0  0  0  0  0  0  0999 V2000
    2.7564   -0.2507   -0.6057 C   0  0  0  0  0  0  0  0  0  0  0  0
    1.5676   -0.2111   -0.6239 C   0  0  0  0  0  0  0  0  0  0  0  0
    0.1159   -0.1376   -0.6433 C   0  0  0  0  0  0  0  0  0  0  0  0
   -0.6417   -1.3683   -0.2656 C   0  0  0  0  0  0  0  0  0  0  0  0
   -1.5142   -0.6199    0.7192 C   0  0  0  0  0  0  0  0  0  0  0  0
   -0.5485    0.5435    0.5975 C   0  0  0  0  0  0  0  0  0  0  0  0
   -0.5114    1.1960   -0.7247 C   0  0  0  0  0  0  0  0  0  0  0  0
    0.3440    2.2577   -0.9620 O   0  0  0  0  0  0  0  0  0  0  0  0
    3.8136   -0.2761   -0.5749 H   0  0  0  0  0  0  0  0  0  0  0  0
   -1.1894   -1.8783   -1.0761 H   0  0  0  0  0  0  0  0  0  0  0  0
    0.0339   -2.1095    0.2328 H   0  0  0  0  0  0  0  0  0  0  0  0
   -1.5712   -1.0881    1.7011 H   0  0  0  0  0  0  0  0  0  0  0  0
   -2.4995   -0.2965    0.2761 H   0  0  0  0  0  0  0  0  0  0  0  0
    0.1146    0.8018    1.4216 H   0  0  0  0  0  0  0  0  0  0  0  0
   -1.4721    1.2817   -1.2892 H   0  0  0  0  0  0  0  0  0  0  0  0
    1.2021    2.1556   -0.4740 H   0  0  0  0  0  0  0  0  0  0  0  0
  1  2  3  0
  2  3  1  0
  3  4  1  0
  4  5  1  0
  5  6  1  0
  6  7  1  0
  7  8  1  0
  6  3  1  0
  7  3  1  0
  1  9  1  0
  4 10  1  0
  4 11  1  0
  5 12  1  0
  5 13  1  0
  6 14  1  0
  7 15  1  0
  8 16  1  0
M  END
