
     RDKit          3D

 17 19  0  0  0  0  0  0  0  0999 V2000
    3.0247   -0.7675   -0.2695 C   0  0  0  0  0  0  0  0  0  0  0  0
    1.9226   -0.2830   -0.2147 C   0  0  0  0  0  0  0  0  0  0  0  0
    0.6243    0.2711   -0.1622 C   0  0  0  0  0  0  0  0  0  0  0  0
    0.4232    1.5758   -0.5115 O   0  0  0  0  0  0  0  0  0  0  0  0
   -0.9668    1.7528   -0.2913 C   0  0  0  0  0  0  0  0  0  0  0  0
   -1.3599    0.3724    0.1074 C   0  0  0  0  0  0  0  0  0  0  0  0
   -0.2534   -0.0571    1.0121 C   0  0  0  0  0  0  0  0  0  0  0  0
   -0.3954   -1.4213    0.4002 C   0  0  0  0  0  0  0  0  0  0  0  0
   -0.5170   -0.4937   -0.7722 C   0  0  0  0  0  0  0  0  0  0  0  0
    3.9992   -1.1807   -0.3297 H   0  0  0  0  0  0  0  0  0  0  0  0
   -1.0402    2.4951    0.5380 H   0  0  0  0  0  0  0  0  0  0  0  0
   -1.4554    2.1010   -1.2206 H   0  0  0  0  0  0  0  0  0  0  0  0
   -2.3686    0.1195    0.3164 H   0  0  0  0  0  0  0  0  0  0  0  0
   -0.1016    0.1735    1.9718 H   0  0  0  0  0  0  0  0  0  0  0  0
    0.4834   -2.0580    0.4540 H   0  0  0  0  0  0  0  0  0  0  0  0
   -1.3678   -1.8736    0.7051 H   0  0  0  0  0  0  0  0  0  0  0  0
   -0.6513   -0.7262   -1.7334 H   0  0  0  0  0  0  0  0  0  0  0  0
  1  2  3  0
  2  3  1  0
  3  4  1  0
  4  5  1  0
  5  6  1  0
  6  7  1  0
  7  8  1  0
  8  9  1  0
  7  3  1  0
  9  3  1  0
  9  6  1  0
  1 10  1  0
  5 11  1  0
  5 12  1  0
  6 13  1  0
  7 14  1  0
  8 15  1  0
  8 16  1  0
  9 17  1  0
M  END
