
     RDKit          3D

 17 19  0  0  0  0  0  0  0  0999 V2000
    2.6449   -1.5451    0.3579 C   0  0  0  0  0  0  0  0  0  0  0  0
    1.7478   -0.8893   -0.0847 C   0  0  0  0  0  0  0  0  0  0  0  0
    0.7271   -0.1631   -0.5830 C   0  0  0  0  0  0  0  0  0  0  0  0
    0.6648    0.3577   -1.8619 O   0  0  0  0  0  0  0  0  0  0  0  0
   -0.5433    0.7803   -1.3173 C   0  0  0  0  0  0  0  0  0  0  0  0
    0.2402    1.1304   -0.0839 C   0  0  0  0  0  0  0  0  0  0  0  0
   -0.6287    0.8320    1.0993 C   0  0  0  0  0  0  0  0  0  0  0  0
   -1.3567   -0.4258    0.5892 C   0  0  0  0  0  0  0  0  0  0  0  0
   -0.6698   -0.5901   -0.7406 C   0  0  0  0  0  0  0  0  0  0  0  0
    3.4659   -2.1235    0.7644 H   0  0  0  0  0  0  0  0  0  0  0  0
   -1.2507    1.3375   -1.7665 H   0  0  0  0  0  0  0  0  0  0  0  0
    0.8522    2.0074   -0.0854 H   0  0  0  0  0  0  0  0  0  0  0  0
   -0.0049    0.5840    1.9931 H   0  0  0  0  0  0  0  0  0  0  0  0
   -1.3769    1.5915    1.3237 H   0  0  0  0  0  0  0  0  0  0  0  0
   -1.1379   -1.2362    1.2954 H   0  0  0  0  0  0  0  0  0  0  0  0
   -2.4294   -0.2354    0.4699 H   0  0  0  0  0  0  0  0  0  0  0  0
   -0.9447   -1.4123   -1.3695 H   0  0  0  0  0  0  0  0  0  0  0  0
  1  2  3  0
  2  3  1  0
  3  4  1  0
  4  5  1  0
  5  6  1  0
  6  7  1  0
  7  8  1  0
  8  9  1  0
  6  3  1  0
  9  3  1  0
  9  5  1  0
  1 10  1  0
  5 11  1  0
  6 12  1  0
  7 13  1  0
  7 14  1  0
  8 15  1  0
  8 16  1  0
  9 17  1  0
M  END
