
     RDKit          3D

 19 21  0  0  0  0  0  0  0  0999 V2000
    3.7211    0.7209   -0.5097 C   0  0  0  0  0  0  0  0  0  0  0  0
    2.5809    0.7038   -0.1184 C   0  0  0  0  0  0  0  0  0  0  0  0
    1.1777    0.6655    0.3595 C   0  0  0  0  0  0  0  0  0  0  0  0
    0.5553   -0.6587    0.3186 C   0  0  0  0  0  0  0  0  0  0  0  0
   -0.8090   -0.9435    0.8517 C   0  0  0  0  0  0  0  0  0  0  0  0
   -1.6328   -0.9903   -0.4467 C   0  0  0  0  0  0  0  0  0  0  0  0
   -1.2885    0.5074   -0.4695 C   0  0  0  0  0  0  0  0  0  0  0  0
   -1.4865    0.4066    1.0450 C   0  0  0  0  0  0  0  0  0  0  0  0
    0.1831    0.4687   -0.7103 C   0  0  0  0  0  0  0  0  0  0  0  0
    4.7300    0.7418   -0.8380 H   0  0  0  0  0  0  0  0  0  0  0  0
    1.0085    1.3998    1.1686 H   0  0  0  0  0  0  0  0  0  0  0  0
    1.0700   -1.5065   -0.1396 H   0  0  0  0  0  0  0  0  0  0  0  0
   -0.9788   -1.7070    1.5653 H   0  0  0  0  0  0  0  0  0  0  0  0
   -1.1828   -1.5751   -1.2474 H   0  0  0  0  0  0  0  0  0  0  0  0
   -2.7140   -1.1448   -0.2643 H   0  0  0  0  0  0  0  0  0  0  0  0
   -1.9268    1.1498   -1.0166 H   0  0  0  0  0  0  0  0  0  0  0  0
   -2.5389    0.3254    1.3022 H   0  0  0  0  0  0  0  0  0  0  0  0
   -0.9561    1.1346    1.6428 H   0  0  0  0  0  0  0  0  0  0  0  0
    0.4876    0.3016   -1.7435 H   0  0  0  0  0  0  0  0  0  0  0  0
  1  2  3  0
  2  3  1  0
  3  4  1  0
  4  5  1  0
  5  6  1  0
  6  7  1  0
  7  8  1  0
  7  9  1  0
  9  3  1  0
  9  4  1  0
  8  5  1  0
  1 10  1  0
  3 11  1  0
  4 12  1  0
  5 13  1  0
  6 14  1  0
  6 15  1  0
  7 16  1  0
  8 17  1  0
  8 18  1  0
  9 19  1  0
M  END
