
     RDKit          3D

 21 21  0  0  0  0  0  0  0  0999 V2000
    2.3284    2.3996    0.0837 C   0  0  0  0  0  0  0  0  0  0  0  0
    1.9006    1.3978    0.1978 C   0  0  0  0  0  0  0  0  0  0  0  0
    1.3446    0.1125    0.3202 C   0  0  0  0  0  0  0  0  0  0  0  0
    1.6114   -0.7494   -0.9408 C   0  0  0  0  0  0  0  0  0  0  0  0
    0.3023   -1.3673   -0.6689 C   0  0  0  0  0  0  0  0  0  0  0  0
   -0.1455   -0.0217   -0.1318 C   0  0  0  0  0  0  0  0  0  0  0  0
   -0.4102    0.8935   -1.0915 O   0  0  0  0  0  0  0  0  0  0  0  0
   -1.0772   -0.1258    1.0433 C   0  0  0  0  0  0  0  0  0  0  0  0
   -2.5525   -0.1774    0.6519 C   0  0  0  0  0  0  0  0  0  0  0  0
    2.8595    3.5854   -0.0423 H   0  0  0  0  0  0  0  0  0  0  0  0
    1.5597   -0.4658    1.2377 H   0  0  0  0  0  0  0  0  0  0  0  0
    1.5462   -0.0412   -1.8346 H   0  0  0  0  0  0  0  0  0  0  0  0
    2.5132   -1.3783   -0.8864 H   0  0  0  0  0  0  0  0  0  0  0  0
   -0.2837   -1.7526   -1.5573 H   0  0  0  0  0  0  0  0  0  0  0  0
    0.3965   -2.1675    0.1381 H   0  0  0  0  0  0  0  0  0  0  0  0
   -1.2661    0.7165   -1.5875 H   0  0  0  0  0  0  0  0  0  0  0  0
   -0.9381    0.6483    1.7815 H   0  0  0  0  0  0  0  0  0  0  0  0
   -0.8823   -1.1716    1.5530 H   0  0  0  0  0  0  0  0  0  0  0  0
   -3.1671   -0.3451    1.6008 H   0  0  0  0  0  0  0  0  0  0  0  0
   -2.8408    0.8556    0.3022 H   0  0  0  0  0  0  0  0  0  0  0  0
   -2.7990   -0.8456   -0.1689 H   0  0  0  0  0  0  0  0  0  0  0  0
  1  2  3  0
  2  3  1  0
  3  4  1  0
  4  5  1  0
  5  6  1  0
  6  7  1  0
  6  8  1  0
  8  9  1  0
  6  3  1  0
  1 10  1  0
  3 11  1  0
  4 12  1  0
  4 13  1  0
  5 14  1  0
  5 15  1  0
  7 16  1  0
  8 17  1  0
  8 18  1  0
  9 19  1  0
  9 20  1  0
  9 21  1  0
M  END
