
     RDKit          3D

 19 20  0  0  0  0  0  0  0  0999 V2000
    2.7453   -1.5283   -0.5028 C   0  0  0  0  0  0  0  0  0  0  0  0
    1.9762   -0.5894   -0.3693 C   0  0  0  0  0  0  0  0  0  0  0  0
    1.0691    0.5515   -0.2221 C   0  0  0  0  0  0  0  0  0  0  0  0
    1.4834    1.6455    0.4922 O   0  0  0  0  0  0  0  0  0  0  0  0
    0.1004    0.7807   -1.4112 C   0  0  0  0  0  0  0  0  0  0  0  0
   -0.3650    0.2308   -0.1586 C   0  0  0  0  0  0  0  0  0  0  0  0
   -1.3206    0.8502    0.7789 C   0  0  0  0  0  0  0  0  0  0  0  0
   -1.8129   -0.5428    1.1244 C   0  0  0  0  0  0  0  0  0  0  0  0
   -0.8875   -1.1325    0.0608 C   0  0  0  0  0  0  0  0  0  0  0  0
    3.4244   -2.3326   -0.6196 H   0  0  0  0  0  0  0  0  0  0  0  0
    2.1062    2.2392   -0.0033 H   0  0  0  0  0  0  0  0  0  0  0  0
    0.2663    0.1142   -2.2876 H   0  0  0  0  0  0  0  0  0  0  0  0
    0.0167    1.8332   -1.6753 H   0  0  0  0  0  0  0  0  0  0  0  0
   -0.7831    1.3657    1.6233 H   0  0  0  0  0  0  0  0  0  0  0  0
   -2.1347    1.4730    0.3481 H   0  0  0  0  0  0  0  0  0  0  0  0
   -1.4902   -0.8167    2.1610 H   0  0  0  0  0  0  0  0  0  0  0  0
   -2.8787   -0.7347    0.8969 H   0  0  0  0  0  0  0  0  0  0  0  0
   -0.0947   -1.7839    0.5344 H   0  0  0  0  0  0  0  0  0  0  0  0
   -1.4204   -1.6230   -0.7701 H   0  0  0  0  0  0  0  0  0  0  0  0
  1  2  3  0
  2  3  1  0
  3  4  1  0
  3  5  1  0
  5  6  1  0
  6  7  1  0
  7  8  1  0
  8  9  1  0
  6  3  1  0
  9  6  1  0
  1 10  1  0
  4 11  1  0
  5 12  1  0
  5 13  1  0
  7 14  1  0
  7 15  1  0
  8 16  1  0
  8 17  1  0
  9 18  1  0
  9 19  1  0
M  END
