
     RDKit          3D

 14 13  0  0  0  0  0  0  0  0999 V2000
   -2.3047    1.6138   -1.0968 C   0  0  0  0  0  0  0  0  0  0  0  0
   -2.3505    0.3236   -0.4685 C   0  0  0  0  0  0  0  0  0  0  0  0
   -2.4032   -0.8941    0.1439 C   0  0  0  0  0  0  0  0  0  0  0  0
   -0.8245   -0.8844    0.2434 C   0  0  0  0  0  0  0  0  0  0  0  0
    0.5360   -0.8998    0.3269 C   0  0  0  0  0  0  0  0  0  0  0  0
    1.9302   -0.9244    0.4067 C   0  0  0  0  0  0  0  0  0  0  0  0
    2.4348    0.4636    0.5239 C   0  0  0  0  0  0  0  0  0  0  0  0
    2.8567    1.6498    0.6052 C   0  0  0  0  0  0  0  0  0  0  0  0
   -2.2781    2.5647   -1.5544 H   0  0  0  0  0  0  0  0  0  0  0  0
   -2.6241   -1.7670   -0.4419 H   0  0  0  0  0  0  0  0  0  0  0  0
   -2.7745   -1.0328    1.1654 H   0  0  0  0  0  0  0  0  0  0  0  0
    2.1850   -1.3868    1.4394 H   0  0  0  0  0  0  0  0  0  0  0  0
    2.4227   -1.4727   -0.3828 H   0  0  0  0  0  0  0  0  0  0  0  0
    3.1943    2.6465    0.6823 H   0  0  0  0  0  0  0  0  0  0  0  0
  1  2  3  0
  2  3  1  0
  3  4  1  0
  4  5  3  0
  5  6  1  0
  6  7  1  0
  7  8  3  0
  1  9  1  0
  3 10  1  0
  3 11  1  0
  6 12  1  0
  6 13  1  0
  8 14  1  0
M  END
