
     RDKit          3D

 17 17  0  0  0  0  0  0  0  0999 V2000
    2.5655   -1.3016    0.3427 C   0  0  0  0  0  0  0  0  0  0  0  0
    0.8236   -1.3152   -0.4300 C   0  0  0  0  0  0  0  0  0  0  0  0
   -0.3016   -1.3159   -0.9400 C   0  0  0  0  0  0  0  0  0  0  0  0
   -0.0517    0.3107   -1.6833 C   0  0  0  0  0  0  0  0  0  0  0  0
    0.1388    1.4101   -2.1912 C   0  0  0  0  0  0  0  0  0  0  0  0
   -1.3090   -0.9198   -0.5166 O   0  0  0  0  0  0  0  0  0  0  0  0
   -0.9881    0.4167   -0.4864 C   0  0  0  0  0  0  0  0  0  0  0  0
    0.0643    0.3411    0.4952 C   0  0  0  0  0  0  0  0  0  0  0  0
   -0.3636   -0.3752    1.6800 C   0  0  0  0  0  0  0  0  0  0  0  0
    3.6939   -1.2892    0.8212 H   0  0  0  0  0  0  0  0  0  0  0  0
    0.4365    3.0225   -2.9488 H   0  0  0  0  0  0  0  0  0  0  0  0
   -2.1936    0.3378    0.3992 H   0  0  0  0  0  0  0  0  0  0  0  0
   -1.4386    1.1541   -0.9138 H   0  0  0  0  0  0  0  0  0  0  0  0
    0.9863    0.5832    0.1381 H   0  0  0  0  0  0  0  0  0  0  0  0
   -0.0191    0.2483    2.6589 H   0  0  0  0  0  0  0  0  0  0  0  0
   -0.4107   -1.3652    1.7030 H   0  0  0  0  0  0  0  0  0  0  0  0
   -1.6329    0.0577    1.8719 H   0  0  0  0  0  0  0  0  0  0  0  0
  1  2  3  0
  2  3  1  0
  3  4  1  0
  4  5  3  0
  3  6  1  0
  6  7  1  0
  7  8  1  0
  8  9  1  0
  8  3  1  0
  1 10  1  0
  5 11  1  0
  7 12  1  0
  7 13  1  0
  8 14  1  0
  9 15  1  0
  9 16  1  0
  9 17  1  0
M  END
