
     RDKit          3D

 19 20  0  0  0  0  0  0  0  0999 V2000
    3.4977   -0.0120    0.0567 C   0  0  0  0  0  0  0  0  0  0  0  0
    2.3711    0.3196   -0.2164 C   0  0  0  0  0  0  0  0  0  0  0  0
    0.9894    0.7082   -0.5699 C   0  0  0  0  0  0  0  0  0  0  0  0
    0.2385   -0.3761   -1.3383 C   0  0  0  0  0  0  0  0  0  0  0  0
   -0.9332   -0.3106   -0.4183 C   0  0  0  0  0  0  0  0  0  0  0  0
   -1.4307   -1.6417    0.1148 C   0  0  0  0  0  0  0  0  0  0  0  0
   -1.3938    0.9217    0.2235 C   0  0  0  0  0  0  0  0  0  0  0  0
   -1.4877    2.1296   -0.4836 O   0  0  0  0  0  0  0  0  0  0  0  0
   -0.0123    0.5000    0.5436 C   0  0  0  0  0  0  0  0  0  0  0  0
    4.4952   -0.2984    0.3094 H   0  0  0  0  0  0  0  0  0  0  0  0
    0.9712    1.6747   -1.0703 H   0  0  0  0  0  0  0  0  0  0  0  0
    0.0677   -0.1624   -2.4001 H   0  0  0  0  0  0  0  0  0  0  0  0
    0.8046   -1.3330   -1.2466 H   0  0  0  0  0  0  0  0  0  0  0  0
   -2.3442   -1.8993   -0.4652 H   0  0  0  0  0  0  0  0  0  0  0  0
   -0.6592   -2.4118   -0.0089 H   0  0  0  0  0  0  0  0  0  0  0  0
   -1.6646   -1.4848    1.1844 H   0  0  0  0  0  0  0  0  0  0  0  0
   -2.1307    0.8276    1.0269 H   0  0  0  0  0  0  0  0  0  0  0  0
   -1.6556    2.8334    0.1907 H   0  0  0  0  0  0  0  0  0  0  0  0
    0.2764    0.0153    1.4729 H   0  0  0  0  0  0  0  0  0  0  0  0
  1  2  3  0
  2  3  1  0
  3  4  1  0
  4  5  1  0
  5  6  1  0
  5  7  1  0
  7  8  1  0
  7  9  1  0
  9  3  1  0
  9  5  1  0
  1 10  1  0
  3 11  1  0
  4 12  1  0
  4 13  1  0
  6 14  1  0
  6 15  1  0
  6 16  1  0
  7 17  1  0
  8 18  1  0
  9 19  1  0
M  END
