
     RDKit          3D

 17 17  0  0  0  0  0  0  0  0999 V2000
    3.0011    0.5136   -1.1442 C   0  0  0  0  0  0  0  0  0  0  0  0
    2.1936   -0.0789   -0.4691 C   0  0  0  0  0  0  0  0  0  0  0  0
    1.2227   -0.8003    0.3736 C   0  0  0  0  0  0  0  0  0  0  0  0
    0.5656    0.0652    1.2502 O   0  0  0  0  0  0  0  0  0  0  0  0
   -0.2117    0.4575    0.1608 C   0  0  0  0  0  0  0  0  0  0  0  0
   -1.6122    0.8629    0.5441 C   0  0  0  0  0  0  0  0  0  0  0  0
   -2.3217   -0.1385    1.1536 O   0  0  0  0  0  0  0  0  0  0  0  0
   -0.0771   -0.9672   -0.3432 C   0  0  0  0  0  0  0  0  0  0  0  0
    0.0429   -1.0718   -1.7195 O   0  0  0  0  0  0  0  0  0  0  0  0
    3.7282    1.0381   -1.7343 H   0  0  0  0  0  0  0  0  0  0  0  0
    1.6303   -1.7007    0.8682 H   0  0  0  0  0  0  0  0  0  0  0  0
    0.2803    1.1398   -0.5370 H   0  0  0  0  0  0  0  0  0  0  0  0
   -2.1203    1.1942   -0.3884 H   0  0  0  0  0  0  0  0  0  0  0  0
   -1.5184    1.7539    1.2017 H   0  0  0  0  0  0  0  0  0  0  0  0
   -3.2796    0.0821    1.1063 H   0  0  0  0  0  0  0  0  0  0  0  0
   -0.7426   -1.7023    0.1418 H   0  0  0  0  0  0  0  0  0  0  0  0
   -0.7812   -0.6477   -2.1023 H   0  0  0  0  0  0  0  0  0  0  0  0
  1  2  3  0
  2  3  1  0
  3  4  1  0
  4  5  1  0
  5  6  1  0
  6  7  1  0
  5  8  1  0
  8  9  1  0
  8  3  1  0
  1 10  1  0
  3 11  1  0
  5 12  1  0
  6 13  1  0
  6 14  1  0
  7 15  1  0
  8 16  1  0
  9 17  1  0
M  END
