
     RDKit          3D

 14 13  0  0  0  0  0  0  0  0999 V2000
   -4.0251    1.0118   -0.4577 C   0  0  0  0  0  0  0  0  0  0  0  0
   -2.9606    1.1942    0.6210 C   0  0  0  0  0  0  0  0  0  0  0  0
   -2.1552    1.3503    1.4270 C   0  0  0  0  0  0  0  0  0  0  0  0
   -0.8127    0.6596    0.7861 C   0  0  0  0  0  0  0  0  0  0  0  0
    0.1741    0.1326    0.3214 C   0  0  0  0  0  0  0  0  0  0  0  0
    1.3537   -0.4733   -0.2372 C   0  0  0  0  0  0  0  0  0  0  0  0
    2.2713   -0.9309   -0.6719 C   0  0  0  0  0  0  0  0  0  0  0  0
    3.3888   -1.4899   -1.2047 C   0  0  0  0  0  0  0  0  0  0  0  0
   -4.7068    0.9115   -1.1523 H   0  0  0  0  0  0  0  0  0  0  0  0
   -2.1424    0.5467    2.3837 H   0  0  0  0  0  0  0  0  0  0  0  0
   -1.6522    2.2221    1.8783 H   0  0  0  0  0  0  0  0  0  0  0  0
    4.1843   -0.7716   -1.5644 H   0  0  0  0  0  0  0  0  0  0  0  0
    3.0706   -2.1472   -2.1359 H   0  0  0  0  0  0  0  0  0  0  0  0
    4.0124   -2.2158   -0.5943 H   0  0  0  0  0  0  0  0  0  0  0  0
  1  2  3  0
  2  3  1  0
  3  4  1  0
  4  5  3  0
  5  6  1  0
  6  7  3  0
  7  8  1  0
  1  9  1  0
  3 10  1  0
  3 11  1  0
  8 12  1  0
  8 13  1  0
  8 14  1  0
M  END
