
     RDKit          3D

 17 16  0  0  0  0  0  0  0  0999 V2000
    4.8339    0.9334   -0.8493 C   0  0  0  0  0  0  0  0  0  0  0  0
    3.7031    0.7181   -0.4787 C   0  0  0  0  0  0  0  0  0  0  0  0
    2.3777    0.4416   -0.0391 C   0  0  0  0  0  0  0  0  0  0  0  0
    2.1957   -0.2298    1.0067 O   0  0  0  0  0  0  0  0  0  0  0  0
    1.1714    0.9150   -0.7670 C   0  0  0  0  0  0  0  0  0  0  0  0
   -0.0536    0.4877   -0.0935 C   0  0  0  0  0  0  0  0  0  0  0  0
   -1.0699    0.1343    0.4884 C   0  0  0  0  0  0  0  0  0  0  0  0
   -2.2946   -0.2645    1.1858 C   0  0  0  0  0  0  0  0  0  0  0  0
   -3.3634   -0.3550    0.1191 C   0  0  0  0  0  0  0  0  0  0  0  0
    5.8301    1.1403   -1.1845 H   0  0  0  0  0  0  0  0  0  0  0  0
    1.1808    0.4544   -1.7892 H   0  0  0  0  0  0  0  0  0  0  0  0
    1.2446    2.0181   -0.8149 H   0  0  0  0  0  0  0  0  0  0  0  0
   -2.2058   -1.2729    1.6345 H   0  0  0  0  0  0  0  0  0  0  0  0
   -2.5999    0.4633    1.9493 H   0  0  0  0  0  0  0  0  0  0  0  0
   -3.1166   -1.1658   -0.5953 H   0  0  0  0  0  0  0  0  0  0  0  0
   -4.3028   -0.6443    0.6371 H   0  0  0  0  0  0  0  0  0  0  0  0
   -3.5307    0.5987   -0.4096 H   0  0  0  0  0  0  0  0  0  0  0  0
  1  2  3  0
  2  3  1  0
  3  4  2  0
  3  5  1  0
  5  6  1  0
  6  7  3  0
  7  8  1  0
  8  9  1  0
  1 10  1  0
  5 11  1  0
  5 12  1  0
  8 13  1  0
  8 14  1  0
  9 15  1  0
  9 16  1  0
  9 17  1  0
M  END
