
     RDKit          3D

 17 17  0  0  0  0  0  0  0  0999 V2000
    2.5148    1.6262    0.9217 C   0  0  0  0  0  0  0  0  0  0  0  0
    2.2334    0.7715    0.1476 C   0  0  0  0  0  0  0  0  0  0  0  0
    1.8682   -0.2702   -0.8196 C   0  0  0  0  0  0  0  0  0  0  0  0
    0.5163   -0.2080   -1.0631 O   0  0  0  0  0  0  0  0  0  0  0  0
   -0.2805   -0.3954    0.0265 C   0  0  0  0  0  0  0  0  0  0  0  0
   -1.6433   -0.9603   -0.0476 C   0  0  0  0  0  0  0  0  0  0  0  0
   -2.1642   -1.4767   -1.2300 O   0  0  0  0  0  0  0  0  0  0  0  0
   -1.5036    0.5199    0.0751 C   0  0  0  0  0  0  0  0  0  0  0  0
   -1.7292    1.1611    1.2698 O   0  0  0  0  0  0  0  0  0  0  0  0
    2.7627    2.4310    1.6324 H   0  0  0  0  0  0  0  0  0  0  0  0
    2.1728   -1.2374   -0.3554 H   0  0  0  0  0  0  0  0  0  0  0  0
    2.4921   -0.1261   -1.6993 H   0  0  0  0  0  0  0  0  0  0  0  0
    0.2739   -0.5732    0.9774 H   0  0  0  0  0  0  0  0  0  0  0  0
   -2.0376   -1.4611    0.8599 H   0  0  0  0  0  0  0  0  0  0  0  0
   -2.1349   -0.7368   -1.9038 H   0  0  0  0  0  0  0  0  0  0  0  0
   -1.7508    1.0881   -0.8418 H   0  0  0  0  0  0  0  0  0  0  0  0
   -1.5902    0.6020    2.0500 H   0  0  0  0  0  0  0  0  0  0  0  0
  1  2  3  0
  2  3  1  0
  3  4  1  0
  4  5  1  0
  5  6  1  0
  6  7  1  0
  6  8  1  0
  8  9  1  0
  8  5  1  0
  1 10  1  0
  3 11  1  0
  3 12  1  0
  5 13  1  0
  6 14  1  0
  7 15  1  0
  8 16  1  0
  9 17  1  0
M  END
