
     RDKit          3D

 21 22  0  0  0  0  0  0  0  0999 V2000
    2.2821   -2.0426    0.3564 C   0  0  0  0  0  0  0  0  0  0  0  0
    1.7939   -0.9495    0.5193 C   0  0  0  0  0  0  0  0  0  0  0  0
    1.2087    0.3638    0.7404 C   0  0  0  0  0  0  0  0  0  0  0  0
    0.0714    0.5704    1.6746 C   0  0  0  0  0  0  0  0  0  0  0  0
   -0.0256    0.7867    0.1393 C   0  0  0  0  0  0  0  0  0  0  0  0
   -0.0853    2.2603   -0.3073 C   0  0  0  0  0  0  0  0  0  0  0  0
   -1.0858   -0.0405   -0.4660 C   0  0  0  0  0  0  0  0  0  0  0  0
   -0.8238   -0.9429   -1.6262 C   0  0  0  0  0  0  0  0  0  0  0  0
   -1.2544   -1.4934   -0.3145 C   0  0  0  0  0  0  0  0  0  0  0  0
    2.7116   -3.0060    0.2316 H   0  0  0  0  0  0  0  0  0  0  0  0
    2.0164    1.1450    0.8835 H   0  0  0  0  0  0  0  0  0  0  0  0
   -0.3738   -0.3328    2.1026 H   0  0  0  0  0  0  0  0  0  0  0  0
   -0.0200    1.4943    2.2679 H   0  0  0  0  0  0  0  0  0  0  0  0
    0.5892    2.8578    0.3573 H   0  0  0  0  0  0  0  0  0  0  0  0
   -1.1082    2.6357   -0.3301 H   0  0  0  0  0  0  0  0  0  0  0  0
    0.3788    2.2608   -1.3321 H   0  0  0  0  0  0  0  0  0  0  0  0
   -2.0733    0.5098   -0.5656 H   0  0  0  0  0  0  0  0  0  0  0  0
   -1.5431   -1.0294   -2.4650 H   0  0  0  0  0  0  0  0  0  0  0  0
    0.2347   -1.1112   -1.9764 H   0  0  0  0  0  0  0  0  0  0  0  0
   -0.5989   -1.9984    0.3894 H   0  0  0  0  0  0  0  0  0  0  0  0
   -2.2946   -1.9378   -0.2792 H   0  0  0  0  0  0  0  0  0  0  0  0
  1  2  3  0
  2  3  1  0
  3  4  1  0
  4  5  1  0
  5  6  1  0
  5  7  1  0
  7  8  1  0
  8  9  1  0
  5  3  1  0
  9  7  1  0
  1 10  1  0
  3 11  1  0
  4 12  1  0
  4 13  1  0
  6 14  1  0
  6 15  1  0
  6 16  1  0
  7 17  1  0
  8 18  1  0
  8 19  1  0
  9 20  1  0
  9 21  1  0
M  END
