
     RDKit          3D

 17 18  0  0  0  0  0  0  0  0999 V2000
    3.1551    0.1133    0.1325 C   0  0  0  0  0  0  0  0  0  0  0  0
    1.9822   -0.0834    0.0895 C   0  0  0  0  0  0  0  0  0  0  0  0
    0.5445   -0.3088    0.0506 C   0  0  0  0  0  0  0  0  0  0  0  0
    0.1716   -0.4531   -1.4580 C   0  0  0  0  0  0  0  0  0  0  0  0
   -0.3643    0.6759   -0.7070 C   0  0  0  0  0  0  0  0  0  0  0  0
    0.1063    1.9970   -0.6529 O   0  0  0  0  0  0  0  0  0  0  0  0
   -1.7728    0.3735   -0.1756 C   0  0  0  0  0  0  0  0  0  0  0  0
   -1.5119   -0.9299    0.4460 C   0  0  0  0  0  0  0  0  0  0  0  0
   -0.1708   -0.9232    0.9581 O   0  0  0  0  0  0  0  0  0  0  0  0
    4.3601    0.3286    0.1597 H   0  0  0  0  0  0  0  0  0  0  0  0
   -0.4585   -1.2015   -1.8769 H   0  0  0  0  0  0  0  0  0  0  0  0
    1.0332   -0.0555   -2.1591 H   0  0  0  0  0  0  0  0  0  0  0  0
    1.0530    2.1215   -0.3672 H   0  0  0  0  0  0  0  0  0  0  0  0
   -2.1639    1.2396    0.3159 H   0  0  0  0  0  0  0  0  0  0  0  0
   -2.3034    0.1508   -1.1816 H   0  0  0  0  0  0  0  0  0  0  0  0
   -1.4216   -1.7676   -0.4139 H   0  0  0  0  0  0  0  0  0  0  0  0
   -2.2386   -1.2772    1.1314 H   0  0  0  0  0  0  0  0  0  0  0  0
  1  2  3  0
  2  3  1  0
  3  4  1  0
  4  5  1  0
  5  6  1  0
  5  7  1  0
  7  8  1  0
  8  9  1  0
  5  3  1  0
  9  3  1  0
  1 10  1  0
  4 11  1  0
  4 12  1  0
  6 13  1  0
  7 14  1  0
  7 15  1  0
  8 16  1  0
  8 17  1  0
M  END
