
     RDKit          3D

 10  9  0  0  0  0  0  0  0  0999 V2000
   -2.7824    0.7145    0.9393 C   0  0  0  0  0  0  0  0  0  0  0  0
   -1.9541   -0.1734    0.7943 C   0  0  0  0  0  0  0  0  0  0  0  0
   -0.9651   -1.2054    0.6400 C   0  0  0  0  0  0  0  0  0  0  0  0
   -1.1988   -2.3743    1.0386 O   0  0  0  0  0  0  0  0  0  0  0  0
    0.2906   -0.8437    0.0154 C   0  0  0  0  0  0  0  0  0  0  0  0
    1.3321   -0.5264   -0.5085 C   0  0  0  0  0  0  0  0  0  0  0  0
    2.5787   -0.1548   -1.1206 C   0  0  0  0  0  0  0  0  0  0  0  0
    3.0122   -0.6887   -2.1741 O   0  0  0  0  0  0  0  0  0  0  0  0
   -3.5048    1.4816    1.0492 H   0  0  0  0  0  0  0  0  0  0  0  0
    3.1915    0.6177   -0.6735 H   0  0  0  0  0  0  0  0  0  0  0  0
  1  2  3  0
  2  3  1  0
  3  4  2  0
  3  5  1  0
  5  6  3  0
  6  7  1  0
  7  8  2  0
  1  9  1  0
  7 10  1  0
M  END
