
     RDKit          3D

 17 18  0  0  0  0  0  0  0  0999 V2000
    3.4291   -0.6514    0.7042 C   0  0  0  0  0  0  0  0  0  0  0  0
    2.4475   -0.2120    0.1915 C   0  0  0  0  0  0  0  0  0  0  0  0
    1.2479    0.3016   -0.4388 C   0  0  0  0  0  0  0  0  0  0  0  0
    0.6865    1.5362    0.1634 C   0  0  0  0  0  0  0  0  0  0  0  0
    1.0614    2.5862    0.6371 O   0  0  0  0  0  0  0  0  0  0  0  0
   -0.6712    0.9422   -0.0530 C   0  0  0  0  0  0  0  0  0  0  0  0
   -0.9824   -0.2120    0.8151 C   0  0  0  0  0  0  0  0  0  0  0  0
   -2.3707   -0.7825    0.6620 C   0  0  0  0  0  0  0  0  0  0  0  0
   -0.0113   -0.4563   -0.2395 C   0  0  0  0  0  0  0  0  0  0  0  0
    4.3054   -1.0501    1.1655 H   0  0  0  0  0  0  0  0  0  0  0  0
    1.4333    0.5022   -1.5352 H   0  0  0  0  0  0  0  0  0  0  0  0
   -1.2864    1.2638   -0.8895 H   0  0  0  0  0  0  0  0  0  0  0  0
   -0.6520   -0.1131    1.8796 H   0  0  0  0  0  0  0  0  0  0  0  0
   -2.7908   -0.5273   -0.3531 H   0  0  0  0  0  0  0  0  0  0  0  0
   -2.4316   -1.8540    0.8865 H   0  0  0  0  0  0  0  0  0  0  0  0
   -3.0330   -0.2328    1.3780 H   0  0  0  0  0  0  0  0  0  0  0  0
   -0.3815   -1.0408   -1.1285 H   0  0  0  0  0  0  0  0  0  0  0  0
  1  2  3  0
  2  3  1  0
  3  4  1  0
  4  5  2  0
  4  6  1  0
  6  7  1  0
  7  8  1  0
  7  9  1  0
  9  3  1  0
  9  6  1  0
  1 10  1  0
  3 11  1  0
  6 12  1  0
  7 13  1  0
  8 14  1  0
  8 15  1  0
  8 16  1  0
  9 17  1  0
M  END
