
     RDKit          3D

 19 19  0  0  0  0  0  0  0  0999 V2000
   -2.7936    0.5349   -2.3913 C   0  0  0  0  0  0  0  0  0  0  0  0
   -1.8659    0.3606   -1.6581 C   0  0  0  0  0  0  0  0  0  0  0  0
   -0.7664    0.1438   -0.7582 C   0  0  0  0  0  0  0  0  0  0  0  0
   -0.0812    1.0451   -0.1640 C   0  0  0  0  0  0  0  0  0  0  0  0
    0.9732    0.4543    0.6814 C   0  0  0  0  0  0  0  0  0  0  0  0
    0.8222    0.9933    2.0691 C   0  0  0  0  0  0  0  0  0  0  0  0
    0.8768   -1.0245    0.5342 C   0  0  0  0  0  0  0  0  0  0  0  0
   -0.3080   -1.2043   -0.3592 C   0  0  0  0  0  0  0  0  0  0  0  0
    0.0405   -1.8831   -1.5453 O   0  0  0  0  0  0  0  0  0  0  0  0
   -3.6513    0.6909   -3.0631 H   0  0  0  0  0  0  0  0  0  0  0  0
   -0.1864    2.1472   -0.1993 H   0  0  0  0  0  0  0  0  0  0  0  0
    1.9441    0.8535    0.2792 H   0  0  0  0  0  0  0  0  0  0  0  0
   -0.2014    1.2961    2.3074 H   0  0  0  0  0  0  0  0  0  0  0  0
    1.2916    0.3780    2.8632 H   0  0  0  0  0  0  0  0  0  0  0  0
    1.4148    1.9644    2.1094 H   0  0  0  0  0  0  0  0  0  0  0  0
    1.7955   -1.3755   -0.0246 H   0  0  0  0  0  0  0  0  0  0  0  0
    0.8308   -1.5631    1.4955 H   0  0  0  0  0  0  0  0  0  0  0  0
   -1.1269   -1.7938    0.1695 H   0  0  0  0  0  0  0  0  0  0  0  0
    0.9916   -2.0177   -1.6252 H   0  0  0  0  0  0  0  0  0  0  0  0
  1  2  3  0
  2  3  1  0
  3  4  2  0
  4  5  1  0
  5  6  1  0
  5  7  1  0
  7  8  1  0
  8  9  1  0
  8  3  1  0
  1 10  1  0
  4 11  1  0
  5 12  1  0
  6 13  1  0
  6 14  1  0
  6 15  1  0
  7 16  1  0
  7 17  1  0
  8 18  1  0
  9 19  1  0
M  END
