
     RDKit          3D

 19 19  0  0  0  0  0  0  0  0999 V2000
    3.1469   -0.8284    1.3526 C   0  0  0  0  0  0  0  0  0  0  0  0
    2.1095   -0.4665    0.8559 C   0  0  0  0  0  0  0  0  0  0  0  0
    0.8564   -0.0154    0.2296 C   0  0  0  0  0  0  0  0  0  0  0  0
   -0.0433   -1.1722   -0.0516 C   0  0  0  0  0  0  0  0  0  0  0  0
   -1.4373   -0.8024    0.4133 C   0  0  0  0  0  0  0  0  0  0  0  0
   -1.7609    0.5480   -0.1932 C   0  0  0  0  0  0  0  0  0  0  0  0
   -1.0951    0.7555   -1.4011 O   0  0  0  0  0  0  0  0  0  0  0  0
    0.0811    1.4585   -1.2624 C   0  0  0  0  0  0  0  0  0  0  0  0
    1.1683    0.6048   -0.9629 O   0  0  0  0  0  0  0  0  0  0  0  0
    4.0657   -1.1504    1.8118 H   0  0  0  0  0  0  0  0  0  0  0  0
    0.3629    0.7723    0.8719 H   0  0  0  0  0  0  0  0  0  0  0  0
   -0.1269   -1.3998   -1.1431 H   0  0  0  0  0  0  0  0  0  0  0  0
    0.3035   -2.1224    0.4165 H   0  0  0  0  0  0  0  0  0  0  0  0
   -1.3718   -0.6897    1.5227 H   0  0  0  0  0  0  0  0  0  0  0  0
   -2.1735   -1.5756    0.1172 H   0  0  0  0  0  0  0  0  0  0  0  0
   -2.8614    0.5439   -0.3833 H   0  0  0  0  0  0  0  0  0  0  0  0
   -1.5480    1.3852    0.5053 H   0  0  0  0  0  0  0  0  0  0  0  0
    0.0099    2.2237   -0.4492 H   0  0  0  0  0  0  0  0  0  0  0  0
    0.3139    1.9309   -2.2499 H   0  0  0  0  0  0  0  0  0  0  0  0
  1  2  3  0
  2  3  1  0
  3  4  1  0
  4  5  1  0
  5  6  1  0
  6  7  1  0
  7  8  1  0
  8  9  1  0
  9  3  1  0
  1 10  1  0
  3 11  1  0
  4 12  1  0
  4 13  1  0
  5 14  1  0
  5 15  1  0
  6 16  1  0
  6 17  1  0
  8 18  1  0
  8 19  1  0
M  END
