
     RDKit          3D

 21 21  0  0  0  0  0  0  0  0999 V2000
    3.2136    1.2643    0.0456 C   0  0  0  0  0  0  0  0  0  0  0  0
    2.0368    1.0521   -0.1113 C   0  0  0  0  0  0  0  0  0  0  0  0
    0.6139    0.7995   -0.2795 C   0  0  0  0  0  0  0  0  0  0  0  0
   -0.2306    1.2441    0.9228 C   0  0  0  0  0  0  0  0  0  0  0  0
   -1.0357   -0.0412    0.6805 C   0  0  0  0  0  0  0  0  0  0  0  0
   -2.1509    0.2546   -0.2756 C   0  0  0  0  0  0  0  0  0  0  0  0
    0.2205   -0.6101    0.0885 C   0  0  0  0  0  0  0  0  0  0  0  0
    0.0623   -1.5565   -1.0498 C   0  0  0  0  0  0  0  0  0  0  0  0
    1.0023   -1.1807    1.0960 O   0  0  0  0  0  0  0  0  0  0  0  0
    4.2496    1.4460    0.1656 H   0  0  0  0  0  0  0  0  0  0  0  0
    0.1712    1.1043   -1.2297 H   0  0  0  0  0  0  0  0  0  0  0  0
   -0.7830    2.1688    0.7843 H   0  0  0  0  0  0  0  0  0  0  0  0
    0.3693    1.1186    1.8324 H   0  0  0  0  0  0  0  0  0  0  0  0
   -1.3528   -0.4832    1.6588 H   0  0  0  0  0  0  0  0  0  0  0  0
   -1.9609    1.1893   -0.8519 H   0  0  0  0  0  0  0  0  0  0  0  0
   -3.0601    0.4741    0.3417 H   0  0  0  0  0  0  0  0  0  0  0  0
   -2.3749   -0.6140   -0.9307 H   0  0  0  0  0  0  0  0  0  0  0  0
   -0.5811   -1.1746   -1.8611 H   0  0  0  0  0  0  0  0  0  0  0  0
   -0.3345   -2.5142   -0.6447 H   0  0  0  0  0  0  0  0  0  0  0  0
    1.0705   -1.7790   -1.4548 H   0  0  0  0  0  0  0  0  0  0  0  0
    0.8546   -2.1621    1.0728 H   0  0  0  0  0  0  0  0  0  0  0  0
  1  2  3  0
  2  3  1  0
  3  4  1  0
  4  5  1  0
  5  6  1  0
  5  7  1  0
  7  8  1  0
  7  9  1  0
  7  3  1  0
  1 10  1  0
  3 11  1  0
  4 12  1  0
  4 13  1  0
  5 14  1  0
  6 15  1  0
  6 16  1  0
  6 17  1  0
  8 18  1  0
  8 19  1  0
  8 20  1  0
  9 21  1  0
M  END
