
     RDKit          3D

 19 19  0  0  0  0  0  0  0  0999 V2000
    2.4150   -0.9496   -2.2617 C   0  0  0  0  0  0  0  0  0  0  0  0
    1.5380   -0.4334   -1.5975 C   0  0  0  0  0  0  0  0  0  0  0  0
    0.4746    0.2056   -0.8080 C   0  0  0  0  0  0  0  0  0  0  0  0
   -0.6858   -0.7396   -0.7775 C   0  0  0  0  0  0  0  0  0  0  0  0
   -1.6672   -0.5073    0.3020 C   0  0  0  0  0  0  0  0  0  0  0  0
   -1.3593    0.5836    1.2267 C   0  0  0  0  0  0  0  0  0  0  0  0
   -2.2792    0.9740    1.9594 O   0  0  0  0  0  0  0  0  0  0  0  0
   -0.0369    1.2309    1.3311 C   0  0  0  0  0  0  0  0  0  0  0  0
    0.9735    0.3500    0.6260 C   0  0  0  0  0  0  0  0  0  0  0  0
    3.1832   -1.3910   -2.8580 H   0  0  0  0  0  0  0  0  0  0  0  0
    0.2325    1.2167   -1.1641 H   0  0  0  0  0  0  0  0  0  0  0  0
   -0.2501   -1.7804   -0.7216 H   0  0  0  0  0  0  0  0  0  0  0  0
   -1.1680   -0.7094   -1.7936 H   0  0  0  0  0  0  0  0  0  0  0  0
   -1.8024   -1.4672    0.8824 H   0  0  0  0  0  0  0  0  0  0  0  0
   -2.6827   -0.3412   -0.1647 H   0  0  0  0  0  0  0  0  0  0  0  0
   -0.0971    2.1899    0.7596 H   0  0  0  0  0  0  0  0  0  0  0  0
    0.2634    1.4855    2.3590 H   0  0  0  0  0  0  0  0  0  0  0  0
    1.9965    0.7181    0.6894 H   0  0  0  0  0  0  0  0  0  0  0  0
    0.9519   -0.6351    1.1542 H   0  0  0  0  0  0  0  0  0  0  0  0
  1  2  3  0
  2  3  1  0
  3  4  1  0
  4  5  1  0
  5  6  1  0
  6  7  2  0
  6  8  1  0
  8  9  1  0
  9  3  1  0
  1 10  1  0
  3 11  1  0
  4 12  1  0
  4 13  1  0
  5 14  1  0
  5 15  1  0
  8 16  1  0
  8 17  1  0
  9 18  1  0
  9 19  1  0
M  END
