
     RDKit          3D

 19 18  0  0  0  0  0  0  0  0999 V2000
   -1.6385    2.4146   -1.5047 C   0  0  0  0  0  0  0  0  0  0  0  0
   -1.0794    1.2477   -1.0390 C   0  0  0  0  0  0  0  0  0  0  0  0
   -0.5022    0.0342   -0.5632 C   0  0  0  0  0  0  0  0  0  0  0  0
   -1.5594   -0.9224   -0.2276 C   0  0  0  0  0  0  0  0  0  0  0  0
    0.2500   -0.5443   -1.7866 C   0  0  0  0  0  0  0  0  0  0  0  0
   -0.1267   -1.4263   -2.4496 O   0  0  0  0  0  0  0  0  0  0  0  0
    0.5584    0.3873    0.4409 C   0  0  0  0  0  0  0  0  0  0  0  0
    1.3378   -0.6884    1.0478 C   0  0  0  0  0  0  0  0  0  0  0  0
    2.3650    0.0010    1.8010 O   0  0  0  0  0  0  0  0  0  0  0  0
   -2.0951    3.3285   -1.8792 H   0  0  0  0  0  0  0  0  0  0  0  0
   -2.1904   -0.6647    0.6028 H   0  0  0  0  0  0  0  0  0  0  0  0
   -2.2232   -1.0495   -1.1757 H   0  0  0  0  0  0  0  0  0  0  0  0
   -1.2078   -2.0061   -0.0766 H   0  0  0  0  0  0  0  0  0  0  0  0
    1.2321   -0.0579   -2.0322 H   0  0  0  0  0  0  0  0  0  0  0  0
    1.3028    1.1114   -0.0560 H   0  0  0  0  0  0  0  0  0  0  0  0
    0.0580    1.0156    1.2178 H   0  0  0  0  0  0  0  0  0  0  0  0
    1.8063   -1.3300    0.2962 H   0  0  0  0  0  0  0  0  0  0  0  0
    0.7534   -1.2537    1.8071 H   0  0  0  0  0  0  0  0  0  0  0  0
    2.9588    0.4031    1.0790 H   0  0  0  0  0  0  0  0  0  0  0  0
  1  2  3  0
  2  3  1  0
  3  4  1  0
  3  5  1  0
  5  6  2  0
  3  7  1  0
  7  8  1  0
  8  9  1  0
  1 10  1  0
  4 11  1  0
  4 12  1  0
  4 13  1  0
  5 14  1  0
  7 15  1  0
  7 16  1  0
  8 17  1  0
  8 18  1  0
  9 19  1  0
M  END
