
     RDKit          3D

 17 18  0  0  0  0  0  0  0  0999 V2000
    2.9984    0.2035    0.5956 C   0  0  0  0  0  0  0  0  0  0  0  0
    1.8540    0.1303    0.2046 C   0  0  0  0  0  0  0  0  0  0  0  0
    0.4642    0.0413   -0.2504 C   0  0  0  0  0  0  0  0  0  0  0  0
    0.0469   -1.2981   -0.7630 C   0  0  0  0  0  0  0  0  0  0  0  0
   -1.2236   -1.1779    0.0561 C   0  0  0  0  0  0  0  0  0  0  0  0
   -0.5412   -0.0978    0.8619 C   0  0  0  0  0  0  0  0  0  0  0  0
   -1.1605    1.1170    0.9072 O   0  0  0  0  0  0  0  0  0  0  0  0
   -0.9350    1.7858   -0.2737 C   0  0  0  0  0  0  0  0  0  0  0  0
    0.0514    1.1441   -0.9690 O   0  0  0  0  0  0  0  0  0  0  0  0
    4.0156    0.2787    0.9267 H   0  0  0  0  0  0  0  0  0  0  0  0
    0.7562   -2.0881   -0.3843 H   0  0  0  0  0  0  0  0  0  0  0  0
   -0.1044   -1.3479   -1.8521 H   0  0  0  0  0  0  0  0  0  0  0  0
   -1.4518   -2.0878    0.6464 H   0  0  0  0  0  0  0  0  0  0  0  0
   -2.0664   -0.8111   -0.5684 H   0  0  0  0  0  0  0  0  0  0  0  0
   -0.0690   -0.4568    1.7991 H   0  0  0  0  0  0  0  0  0  0  0  0
   -1.9169    1.7909   -0.8319 H   0  0  0  0  0  0  0  0  0  0  0  0
   -0.7178    2.8740   -0.1046 H   0  0  0  0  0  0  0  0  0  0  0  0
  1  2  3  0
  2  3  1  0
  3  4  1  0
  4  5  1  0
  5  6  1  0
  6  7  1  0
  7  8  1  0
  8  9  1  0
  6  3  1  0
  9  3  1  0
  1 10  1  0
  4 11  1  0
  4 12  1  0
  5 13  1  0
  5 14  1  0
  6 15  1  0
  8 16  1  0
  8 17  1  0
M  END
