
     RDKit          3D

 21 20  0  0  0  0  0  0  0  0999 V2000
    2.6295   -0.3609   -1.4467 C   0  0  0  0  0  0  0  0  0  0  0  0
    1.7848    0.0003   -0.6650 C   0  0  0  0  0  0  0  0  0  0  0  0
    0.7770    0.4502    0.2951 C   0  0  0  0  0  0  0  0  0  0  0  0
    0.5974    1.9344    0.1946 C   0  0  0  0  0  0  0  0  0  0  0  0
   -0.5113   -0.3107    0.1044 C   0  0  0  0  0  0  0  0  0  0  0  0
   -1.5782    0.1229    1.0750 C   0  0  0  0  0  0  0  0  0  0  0  0
   -0.2390   -1.7864    0.3883 C   0  0  0  0  0  0  0  0  0  0  0  0
   -1.0330   -0.2256   -1.2695 C   0  0  0  0  0  0  0  0  0  0  0  0
   -0.6037   -0.8735   -2.2017 O   0  0  0  0  0  0  0  0  0  0  0  0
    3.3862   -0.6736   -2.1244 H   0  0  0  0  0  0  0  0  0  0  0  0
    1.1801    0.2171    1.3024 H   0  0  0  0  0  0  0  0  0  0  0  0
   -0.2499    2.2897    0.7972 H   0  0  0  0  0  0  0  0  0  0  0  0
    0.4009    2.1813   -0.8889 H   0  0  0  0  0  0  0  0  0  0  0  0
    1.5374    2.4291    0.5084 H   0  0  0  0  0  0  0  0  0  0  0  0
   -2.1827    0.9746    0.6928 H   0  0  0  0  0  0  0  0  0  0  0  0
   -2.2904   -0.7273    1.1736 H   0  0  0  0  0  0  0  0  0  0  0  0
   -1.1813    0.3255    2.0812 H   0  0  0  0  0  0  0  0  0  0  0  0
    0.1661   -1.9172    1.4245 H   0  0  0  0  0  0  0  0  0  0  0  0
   -1.2215   -2.3199    0.3665 H   0  0  0  0  0  0  0  0  0  0  0  0
    0.4798   -2.1805   -0.3311 H   0  0  0  0  0  0  0  0  0  0  0  0
   -1.8482    0.4506   -1.4767 H   0  0  0  0  0  0  0  0  0  0  0  0
  1  2  3  0
  2  3  1  0
  3  4  1  0
  3  5  1  0
  5  6  1  0
  5  7  1  0
  5  8  1  0
  8  9  2  0
  1 10  1  0
  3 11  1  0
  4 12  1  0
  4 13  1  0
  4 14  1  0
  6 15  1  0
  6 16  1  0
  6 17  1  0
  7 18  1  0
  7 19  1  0
  7 20  1  0
  8 21  1  0
M  END
