
     RDKit          3D

 23 22  0  0  0  0  0  0  0  0999 V2000
    2.9340    0.4563   -0.0018 C   0  0  0  0  0  0  0  0  0  0  0  0
    1.8085    0.7003    0.0826 C   0  0  0  0  0  0  0  0  0  0  0  0
    0.3559    0.9917    0.2033 C   0  0  0  0  0  0  0  0  0  0  0  0
   -0.0156    0.9315    1.6570 C   0  0  0  0  0  0  0  0  0  0  0  0
   -0.4481    0.1156   -0.6675 C   0  0  0  0  0  0  0  0  0  0  0  0
   -0.3863   -1.3471   -0.4484 C   0  0  0  0  0  0  0  0  0  0  0  0
    0.9643   -1.9916   -0.6092 C   0  0  0  0  0  0  0  0  0  0  0  0
   -1.9220    0.5323   -0.7036 C   0  0  0  0  0  0  0  0  0  0  0  0
   -2.0256    1.8236   -1.1863 O   0  0  0  0  0  0  0  0  0  0  0  0
    3.9782    0.2142   -0.0699 H   0  0  0  0  0  0  0  0  0  0  0  0
    0.1764    2.0536   -0.1117 H   0  0  0  0  0  0  0  0  0  0  0  0
    0.7966    0.4470    2.2309 H   0  0  0  0  0  0  0  0  0  0  0  0
   -0.9055    0.2703    1.7607 H   0  0  0  0  0  0  0  0  0  0  0  0
   -0.1531    1.9297    2.1161 H   0  0  0  0  0  0  0  0  0  0  0  0
   -0.1152    0.2809   -1.7434 H   0  0  0  0  0  0  0  0  0  0  0  0
   -1.0296   -1.8333   -1.2448 H   0  0  0  0  0  0  0  0  0  0  0  0
   -0.8854   -1.6675    0.5028 H   0  0  0  0  0  0  0  0  0  0  0  0
    1.5682   -2.0410    0.2953 H   0  0  0  0  0  0  0  0  0  0  0  0
    0.8430   -3.0830   -0.9186 H   0  0  0  0  0  0  0  0  0  0  0  0
    1.4698   -1.5088   -1.4713 H   0  0  0  0  0  0  0  0  0  0  0  0
   -2.3990    0.3867    0.2797 H   0  0  0  0  0  0  0  0  0  0  0  0
   -2.4149   -0.1435   -1.4278 H   0  0  0  0  0  0  0  0  0  0  0  0
   -2.1946    2.4821   -0.4703 H   0  0  0  0  0  0  0  0  0  0  0  0
  1  2  3  0
  2  3  1  0
  3  4  1  0
  3  5  1  0
  5  6  1  0
  6  7  1  0
  5  8  1  0
  8  9  1  0
  1 10  1  0
  3 11  1  0
  4 12  1  0
  4 13  1  0
  4 14  1  0
  5 15  1  0
  6 16  1  0
  6 17  1  0
  7 18  1  0
  7 19  1  0
  7 20  1  0
  8 21  1  0
  8 22  1  0
  9 23  1  0
M  END
