
     RDKit          3D

 17 17  0  0  0  0  0  0  0  0999 V2000
    2.4910   -1.7391    1.6961 C   0  0  0  0  0  0  0  0  0  0  0  0
    1.6841   -0.8839    1.4414 C   0  0  0  0  0  0  0  0  0  0  0  0
    0.7105    0.1671    1.1404 C   0  0  0  0  0  0  0  0  0  0  0  0
    1.0924    0.9650   -0.1239 C   0  0  0  0  0  0  0  0  0  0  0  0
   -0.1807    0.1122   -0.0172 C   0  0  0  0  0  0  0  0  0  0  0  0
   -1.4130    0.9364    0.0708 C   0  0  0  0  0  0  0  0  0  0  0  0
   -2.3976    1.6201    0.1420 C   0  0  0  0  0  0  0  0  0  0  0  0
   -0.2140   -0.9747   -0.8513 O   0  0  0  0  0  0  0  0  0  0  0  0
   -1.1135   -0.8362   -1.8843 C   0  0  0  0  0  0  0  0  0  0  0  0
    3.2288   -2.4939    1.9272 H   0  0  0  0  0  0  0  0  0  0  0  0
    0.4581    0.7928    2.0177 H   0  0  0  0  0  0  0  0  0  0  0  0
    1.9060    0.5854   -0.7592 H   0  0  0  0  0  0  0  0  0  0  0  0
    1.0043    2.0537   -0.0458 H   0  0  0  0  0  0  0  0  0  0  0  0
   -3.2943    2.2198    0.2045 H   0  0  0  0  0  0  0  0  0  0  0  0
   -2.1287   -0.7002   -1.5177 H   0  0  0  0  0  0  0  0  0  0  0  0
   -0.7937   -0.0394   -2.6118 H   0  0  0  0  0  0  0  0  0  0  0  0
   -1.0397   -1.7852   -2.4856 H   0  0  0  0  0  0  0  0  0  0  0  0
  1  2  3  0
  2  3  1  0
  3  4  1  0
  4  5  1  0
  5  6  1  0
  6  7  3  0
  5  8  1  0
  8  9  1  0
  5  3  1  0
  1 10  1  0
  3 11  1  0
  4 12  1  0
  4 13  1  0
  7 14  1  0
  9 15  1  0
  9 16  1  0
  9 17  1  0
M  END
