
     RDKit          3D

 17 17  0  0  0  0  0  0  0  0999 V2000
    2.4640   -2.0348   -1.5530 C   0  0  0  0  0  0  0  0  0  0  0  0
    1.7305   -1.2506   -0.9909 C   0  0  0  0  0  0  0  0  0  0  0  0
    0.8462   -0.2967   -0.3123 C   0  0  0  0  0  0  0  0  0  0  0  0
    0.8246   -0.6502    1.1376 C   0  0  0  0  0  0  0  0  0  0  0  0
   -0.4290   -0.2266    1.5293 O   0  0  0  0  0  0  0  0  0  0  0  0
   -1.1565    0.0637    0.4061 C   0  0  0  0  0  0  0  0  0  0  0  0
   -1.2902    1.5659    0.1651 C   0  0  0  0  0  0  0  0  0  0  0  0
   -2.0435    1.7170   -0.9964 O   0  0  0  0  0  0  0  0  0  0  0  0
   -0.4819   -0.4658   -0.6862 O   0  0  0  0  0  0  0  0  0  0  0  0
    3.1150   -2.7212   -2.0294 H   0  0  0  0  0  0  0  0  0  0  0  0
    1.1861    0.7454   -0.4487 H   0  0  0  0  0  0  0  0  0  0  0  0
    0.8666   -1.7574    1.3082 H   0  0  0  0  0  0  0  0  0  0  0  0
    1.6455   -0.1303    1.6981 H   0  0  0  0  0  0  0  0  0  0  0  0
   -2.1674   -0.4112    0.4022 H   0  0  0  0  0  0  0  0  0  0  0  0
   -0.3068    2.0401    0.0028 H   0  0  0  0  0  0  0  0  0  0  0  0
   -1.8065    1.9948    1.0473 H   0  0  0  0  0  0  0  0  0  0  0  0
   -2.9968    1.8179   -0.6799 H   0  0  0  0  0  0  0  0  0  0  0  0
  1  2  3  0
  2  3  1  0
  3  4  1  0
  4  5  1  0
  5  6  1  0
  6  7  1  0
  7  8  1  0
  6  9  1  0
  9  3  1  0
  1 10  1  0
  3 11  1  0
  4 12  1  0
  4 13  1  0
  6 14  1  0
  7 15  1  0
  7 16  1  0
  8 17  1  0
M  END
