
     RDKit          3D

 17 18  0  0  0  0  0  0  0  0999 V2000
    3.3509    0.5032   -1.0196 C   0  0  0  0  0  0  0  0  0  0  0  0
    2.2923    0.3219   -0.4716 C   0  0  0  0  0  0  0  0  0  0  0  0
    0.9794    0.0973    0.1797 C   0  0  0  0  0  0  0  0  0  0  0  0
    0.1121    1.2960    0.2291 C   0  0  0  0  0  0  0  0  0  0  0  0
   -1.1630    1.2610   -0.0419 C   0  0  0  0  0  0  0  0  0  0  0  0
   -1.8756    0.0104   -0.4288 C   0  0  0  0  0  0  0  0  0  0  0  0
   -1.1588   -1.2154    0.0803 C   0  0  0  0  0  0  0  0  0  0  0  0
    0.3228   -1.1339   -0.0635 C   0  0  0  0  0  0  0  0  0  0  0  0
    0.9761   -0.8265    1.1912 O   0  0  0  0  0  0  0  0  0  0  0  0
    4.2819    0.6801   -1.5104 H   0  0  0  0  0  0  0  0  0  0  0  0
    0.5787    2.2445    0.5072 H   0  0  0  0  0  0  0  0  0  0  0  0
   -1.7537    2.1648    0.0084 H   0  0  0  0  0  0  0  0  0  0  0  0
   -2.9048    0.0513   -0.0219 H   0  0  0  0  0  0  0  0  0  0  0  0
   -1.8704   -0.0397   -1.5548 H   0  0  0  0  0  0  0  0  0  0  0  0
   -1.4688   -1.4088    1.1471 H   0  0  0  0  0  0  0  0  0  0  0  0
   -1.5356   -2.0854   -0.4950 H   0  0  0  0  0  0  0  0  0  0  0  0
    0.8365   -1.9208   -0.6755 H   0  0  0  0  0  0  0  0  0  0  0  0
  1  2  3  0
  2  3  1  0
  3  4  1  0
  4  5  2  0
  5  6  1  0
  6  7  1  0
  7  8  1  0
  8  9  1  0
  8  3  1  0
  9  3  1  0
  1 10  1  0
  4 11  1  0
  5 12  1  0
  6 13  1  0
  6 14  1  0
  7 15  1  0
  7 16  1  0
  8 17  1  0
M  END
