
     RDKit          3D

 19 19  0  0  0  0  0  0  0  0999 V2000
    2.8510   -0.9314    0.3599 C   0  0  0  0  0  0  0  0  0  0  0  0
    1.8246   -0.3426    0.1241 C   0  0  0  0  0  0  0  0  0  0  0  0
    0.5715    0.3867   -0.1840 C   0  0  0  0  0  0  0  0  0  0  0  0
    0.9543    1.8269   -0.4904 C   0  0  0  0  0  0  0  0  0  0  0  0
   -0.2432    0.4071    1.0506 C   0  0  0  0  0  0  0  0  0  0  0  0
   -1.4661   -0.0665    1.0979 C   0  0  0  0  0  0  0  0  0  0  0  0
   -2.0436   -0.6423   -0.1407 C   0  0  0  0  0  0  0  0  0  0  0  0
   -0.8436   -1.2808   -0.8514 C   0  0  0  0  0  0  0  0  0  0  0  0
   -0.0481   -0.1950   -1.2600 O   0  0  0  0  0  0  0  0  0  0  0  0
    3.7637   -1.4465    0.5514 H   0  0  0  0  0  0  0  0  0  0  0  0
    0.0133    2.4067   -0.5285 H   0  0  0  0  0  0  0  0  0  0  0  0
    1.6004    2.1721    0.3402 H   0  0  0  0  0  0  0  0  0  0  0  0
    1.4785    1.8632   -1.4663 H   0  0  0  0  0  0  0  0  0  0  0  0
    0.1898    0.8284    1.9421 H   0  0  0  0  0  0  0  0  0  0  0  0
   -2.0246   -0.0355    2.0051 H   0  0  0  0  0  0  0  0  0  0  0  0
   -2.8406   -1.3703    0.0445 H   0  0  0  0  0  0  0  0  0  0  0  0
   -2.4000    0.1866   -0.8178 H   0  0  0  0  0  0  0  0  0  0  0  0
   -0.2021   -1.8362   -0.1090 H   0  0  0  0  0  0  0  0  0  0  0  0
   -1.1353   -1.9306   -1.6677 H   0  0  0  0  0  0  0  0  0  0  0  0
  1  2  3  0
  2  3  1  0
  3  4  1  0
  3  5  1  0
  5  6  2  0
  6  7  1  0
  7  8  1  0
  8  9  1  0
  9  3  1  0
  1 10  1  0
  4 11  1  0
  4 12  1  0
  4 13  1  0
  5 14  1  0
  6 15  1  0
  7 16  1  0
  7 17  1  0
  8 18  1  0
  8 19  1  0
M  END
