
     RDKit          3D

 13 12  0  0  0  0  0  0  0  0999 V2000
   -1.9509    1.2321   -0.4580 C   0  0  0  0  0  0  0  0  0  0  0  0
   -1.3303   -0.1357   -0.0155 C   0  0  0  0  0  0  0  0  0  0  0  0
   -0.8931   -1.0752    0.2935 C   0  0  0  0  0  0  0  0  0  0  0  0
    0.6583   -0.9398   -0.6170 C   0  0  0  0  0  0  0  0  0  0  0  0
    1.3201    0.3323   -0.2610 C   0  0  0  0  0  0  0  0  0  0  0  0
   -2.5337    2.4932   -0.8433 H   0  0  0  0  0  0  0  0  0  0  0  0
   -0.1818    0.0110    1.2353 H   0  0  0  0  0  0  0  0  0  0  0  0
   -0.4196   -1.7022    0.9838 H   0  0  0  0  0  0  0  0  0  0  0  0
    0.3165   -0.7688   -1.7203 H   0  0  0  0  0  0  0  0  0  0  0  0
    1.1495   -1.8919   -0.5979 H   0  0  0  0  0  0  0  0  0  0  0  0
    0.3214    1.0439   -0.1211 H   0  0  0  0  0  0  0  0  0  0  0  0
    1.8388    0.9731   -1.0081 H   0  0  0  0  0  0  0  0  0  0  0  0
    1.7048    0.4278    0.7345 H   0  0  0  0  0  0  0  0  0  0  0  0
  1  2  3  0
  2  3  1  0
  3  4  1  0
  4  5  1  0
  1  6  1  0
  3  7  1  0
  3  8  1  0
  4  9  1  0
  4 10  1  0
  5 11  1  0
  5 12  1  0
  5 13  1  0
M  END
