
     RDKit          3D

 19 19  0  0  0  0  0  0  0  0999 V2000
    3.3572   -1.8675   -1.0180 C   0  0  0  0  0  0  0  0  0  0  0  0
    2.3096   -1.6348   -0.6010 C   0  0  0  0  0  0  0  0  0  0  0  0
    0.9210   -1.3124   -0.0225 C   0  0  0  0  0  0  0  0  0  0  0  0
   -0.0037   -1.2020   -1.2176 O   0  0  0  0  0  0  0  0  0  0  0  0
    0.4370   -0.0320   -0.3745 C   0  0  0  0  0  0  0  0  0  0  0  0
   -0.7556    0.6818    0.1651 C   0  0  0  0  0  0  0  0  0  0  0  0
   -1.6443   -0.1385    1.0517 C   0  0  0  0  0  0  0  0  0  0  0  0
   -0.3141    1.9437    0.8803 C   0  0  0  0  0  0  0  0  0  0  0  0
   -1.5946    1.1319   -0.9019 O   0  0  0  0  0  0  0  0  0  0  0  0
    4.3464   -2.0943   -1.4283 H   0  0  0  0  0  0  0  0  0  0  0  0
    0.4954   -2.0549    0.6284 H   0  0  0  0  0  0  0  0  0  0  0  0
    1.0727    0.5889   -1.0873 H   0  0  0  0  0  0  0  0  0  0  0  0
   -2.4885    0.4680    1.4597 H   0  0  0  0  0  0  0  0  0  0  0  0
   -1.1672   -0.6466    1.9098 H   0  0  0  0  0  0  0  0  0  0  0  0
   -2.1030   -0.9760    0.4613 H   0  0  0  0  0  0  0  0  0  0  0  0
    0.7155    1.8960    1.2790 H   0  0  0  0  0  0  0  0  0  0  0  0
   -1.0354    2.0878    1.7243 H   0  0  0  0  0  0  0  0  0  0  0  0
   -0.3483    2.8177    0.1946 H   0  0  0  0  0  0  0  0  0  0  0  0
   -2.1999    0.3432   -1.0668 H   0  0  0  0  0  0  0  0  0  0  0  0
  1  2  3  0
  2  3  1  0
  3  4  1  0
  4  5  1  0
  5  6  1  0
  6  7  1  0
  6  8  1  0
  6  9  1  0
  5  3  1  0
  1 10  1  0
  3 11  1  0
  5 12  1  0
  7 13  1  0
  7 14  1  0
  7 15  1  0
  8 16  1  0
  8 17  1  0
  8 18  1  0
  9 19  1  0
M  END
