
     RDKit          3D

 19 19  0  0  0  0  0  0  0  0999 V2000
   -2.5214    1.8521   -0.9654 C   0  0  0  0  0  0  0  0  0  0  0  0
   -2.1060    0.9270   -0.3343 C   0  0  0  0  0  0  0  0  0  0  0  0
   -1.5740   -0.2129    0.4271 C   0  0  0  0  0  0  0  0  0  0  0  0
   -1.9257   -0.2399    1.7781 O   0  0  0  0  0  0  0  0  0  0  0  0
   -1.3672   -1.4663   -0.3267 C   0  0  0  0  0  0  0  0  0  0  0  0
   -0.1561   -0.6360    0.1009 C   0  0  0  0  0  0  0  0  0  0  0  0
    0.4928    0.0949   -0.8625 O   0  0  0  0  0  0  0  0  0  0  0  0
    1.8552    0.1145   -0.7425 C   0  0  0  0  0  0  0  0  0  0  0  0
    2.3670    0.6864    0.5378 C   0  0  0  0  0  0  0  0  0  0  0  0
   -2.9111    2.6753   -1.5275 H   0  0  0  0  0  0  0  0  0  0  0  0
   -1.6887   -1.1158    2.1427 H   0  0  0  0  0  0  0  0  0  0  0  0
   -1.5845   -1.4506   -1.4095 H   0  0  0  0  0  0  0  0  0  0  0  0
   -1.5570   -2.4286    0.1508 H   0  0  0  0  0  0  0  0  0  0  0  0
    0.4419   -1.1516    0.8948 H   0  0  0  0  0  0  0  0  0  0  0  0
    2.2544    0.7531   -1.5729 H   0  0  0  0  0  0  0  0  0  0  0  0
    2.3042   -0.9090   -0.8892 H   0  0  0  0  0  0  0  0  0  0  0  0
    3.3998    0.2599    0.6976 H   0  0  0  0  0  0  0  0  0  0  0  0
    2.5353    1.7991    0.4850 H   0  0  0  0  0  0  0  0  0  0  0  0
    1.7409    0.4481    1.4157 H   0  0  0  0  0  0  0  0  0  0  0  0
  1  2  3  0
  2  3  1  0
  3  4  1  0
  3  5  1  0
  5  6  1  0
  6  7  1  0
  7  8  1  0
  8  9  1  0
  6  3  1  0
  1 10  1  0
  4 11  1  0
  5 12  1  0
  5 13  1  0
  6 14  1  0
  8 15  1  0
  8 16  1  0
  9 17  1  0
  9 18  1  0
  9 19  1  0
M  END
