
     RDKit          3D

 17 17  0  0  0  0  0  0  0  0999 V2000
   -3.0196   -0.3419    1.0758 C   0  0  0  0  0  0  0  0  0  0  0  0
   -2.0795   -0.1391    0.2020 C   0  0  0  0  0  0  0  0  0  0  0  0
   -1.1336    0.0610   -0.6943 C   0  0  0  0  0  0  0  0  0  0  0  0
   -0.1125    1.0326   -0.2831 C   0  0  0  0  0  0  0  0  0  0  0  0
    0.6724    0.6790    0.9674 C   0  0  0  0  0  0  0  0  0  0  0  0
    1.7244    0.2271   -0.1246 C   0  0  0  0  0  0  0  0  0  0  0  0
    1.8039   -0.8119   -0.5397 C   0  0  0  0  0  0  0  0  0  0  0  0
    1.8754   -1.8098   -0.9382 C   0  0  0  0  0  0  0  0  0  0  0  0
    1.0384    1.2983   -0.9425 O   0  0  0  0  0  0  0  0  0  0  0  0
   -3.9048   -0.5326    1.9114 H   0  0  0  0  0  0  0  0  0  0  0  0
   -0.5926   -0.9069   -1.0268 H   0  0  0  0  0  0  0  0  0  0  0  0
   -1.5463    0.3551   -1.7069 H   0  0  0  0  0  0  0  0  0  0  0  0
   -0.6334    2.0370   -0.0627 H   0  0  0  0  0  0  0  0  0  0  0  0
    0.3722   -0.3331    1.3774 H   0  0  0  0  0  0  0  0  0  0  0  0
    0.8744    1.4318    1.6808 H   0  0  0  0  0  0  0  0  0  0  0  0
    2.6933    0.9524    0.2364 H   0  0  0  0  0  0  0  0  0  0  0  0
    1.9681   -3.1990   -1.4652 H   0  0  0  0  0  0  0  0  0  0  0  0
  1  2  3  0
  2  3  1  0
  3  4  1  0
  4  5  1  0
  5  6  1  0
  6  7  1  0
  7  8  3  0
  6  9  1  0
  9  4  1  0
  1 10  1  0
  3 11  1  0
  3 12  1  0
  4 13  1  0
  5 14  1  0
  5 15  1  0
  6 16  1  0
  8 17  1  0
M  END
