
     RDKit          3D

 19 20  0  0  0  0  0  0  0  0999 V2000
    2.7573    1.5913   -1.2519 C   0  0  0  0  0  0  0  0  0  0  0  0
    1.8218    0.9533   -0.8424 C   0  0  0  0  0  0  0  0  0  0  0  0
    0.6830    0.1572   -0.3189 C   0  0  0  0  0  0  0  0  0  0  0  0
    0.1604    0.6393    0.9828 C   0  0  0  0  0  0  0  0  0  0  0  0
   -1.3171    0.3966    1.1772 C   0  0  0  0  0  0  0  0  0  0  0  0
   -1.7924   -0.8077    0.3951 C   0  0  0  0  0  0  0  0  0  0  0  0
   -1.5375   -0.6049   -0.9213 O   0  0  0  0  0  0  0  0  0  0  0  0
   -0.2529   -0.3712   -1.2817 C   0  0  0  0  0  0  0  0  0  0  0  0
    0.7744   -1.2892   -0.6477 C   0  0  0  0  0  0  0  0  0  0  0  0
    3.5709    2.1676   -1.6120 H   0  0  0  0  0  0  0  0  0  0  0  0
    0.3126    1.7374    1.0433 H   0  0  0  0  0  0  0  0  0  0  0  0
    0.7322    0.2212    1.8640 H   0  0  0  0  0  0  0  0  0  0  0  0
   -1.5114    0.2945    2.2511 H   0  0  0  0  0  0  0  0  0  0  0  0
   -1.8912    1.2785    0.7785 H   0  0  0  0  0  0  0  0  0  0  0  0
   -1.4416   -1.7613    0.8184 H   0  0  0  0  0  0  0  0  0  0  0  0
   -2.9154   -0.8237    0.5243 H   0  0  0  0  0  0  0  0  0  0  0  0
   -0.1157   -0.0734   -2.3483 H   0  0  0  0  0  0  0  0  0  0  0  0
    1.5281   -1.6510   -1.3532 H   0  0  0  0  0  0  0  0  0  0  0  0
    0.4345   -2.0546    0.0734 H   0  0  0  0  0  0  0  0  0  0  0  0
  1  2  3  0
  2  3  1  0
  3  4  1  0
  4  5  1  0
  5  6  1  0
  6  7  1  0
  7  8  1  0
  8  9  1  0
  8  3  1  0
  9  3  1  0
  1 10  1  0
  4 11  1  0
  4 12  1  0
  5 13  1  0
  5 14  1  0
  6 15  1  0
  6 16  1  0
  8 17  1  0
  9 18  1  0
  9 19  1  0
M  END
