
     RDKit          3D

 17 17  0  0  0  0  0  0  0  0999 V2000
    3.3671   -1.3894    0.5187 C   0  0  0  0  0  0  0  0  0  0  0  0
    2.1557   -1.4314    0.4732 C   0  0  0  0  0  0  0  0  0  0  0  0
    0.7337   -1.4722    0.4431 C   0  0  0  0  0  0  0  0  0  0  0  0
    0.1353   -2.4742    0.8881 O   0  0  0  0  0  0  0  0  0  0  0  0
   -0.0312   -0.3563   -0.1018 C   0  0  0  0  0  0  0  0  0  0  0  0
   -1.4959   -0.5569   -0.0586 C   0  0  0  0  0  0  0  0  0  0  0  0
   -2.1105    0.6080    0.1127 C   0  0  0  0  0  0  0  0  0  0  0  0
   -1.0790    1.7048    0.1994 C   0  0  0  0  0  0  0  0  0  0  0  0
    0.1036    0.9085    0.7488 C   0  0  0  0  0  0  0  0  0  0  0  0
    4.4280   -1.3391    0.5698 H   0  0  0  0  0  0  0  0  0  0  0  0
    0.2657   -0.0706   -1.1257 H   0  0  0  0  0  0  0  0  0  0  0  0
   -1.9841   -1.5108   -0.1529 H   0  0  0  0  0  0  0  0  0  0  0  0
   -3.1633    0.7911    0.1839 H   0  0  0  0  0  0  0  0  0  0  0  0
   -0.8518    1.9913   -0.8361 H   0  0  0  0  0  0  0  0  0  0  0  0
   -1.3885    2.5130    0.8581 H   0  0  0  0  0  0  0  0  0  0  0  0
   -0.1306    0.6611    1.7814 H   0  0  0  0  0  0  0  0  0  0  0  0
    1.0458    1.4231    0.5867 H   0  0  0  0  0  0  0  0  0  0  0  0
  1  2  3  0
  2  3  1  0
  3  4  2  0
  3  5  1  0
  5  6  1  0
  6  7  2  0
  7  8  1  0
  8  9  1  0
  9  5  1  0
  1 10  1  0
  5 11  1  0
  6 12  1  0
  7 13  1  0
  8 14  1  0
  8 15  1  0
  9 16  1  0
  9 17  1  0
M  END
