
     RDKit          3D

 17 17  0  0  0  0  0  0  0  0999 V2000
    1.8820    2.4715   -0.2183 C   0  0  0  0  0  0  0  0  0  0  0  0
    1.3600    1.4329   -0.9390 C   0  0  0  0  0  0  0  0  0  0  0  0
    0.9346    0.5673   -1.5590 C   0  0  0  0  0  0  0  0  0  0  0  0
    1.6330   -0.8160   -1.1624 O   0  0  0  0  0  0  0  0  0  0  0  0
    0.2922   -0.6510   -0.7972 C   0  0  0  0  0  0  0  0  0  0  0  0
   -0.2816   -0.2436    0.4703 C   0  0  0  0  0  0  0  0  0  0  0  0
   -0.6889   -1.4095    1.3786 C   0  0  0  0  0  0  0  0  0  0  0  0
   -1.8615    0.1485    0.0462 C   0  0  0  0  0  0  0  0  0  0  0  0
   -1.7610   -0.2279   -1.2323 O   0  0  0  0  0  0  0  0  0  0  0  0
    2.4187    3.5960    0.5549 H   0  0  0  0  0  0  0  0  0  0  0  0
    0.9567    0.3229   -2.7229 H   0  0  0  0  0  0  0  0  0  0  0  0
   -0.3718   -1.2449   -1.4475 H   0  0  0  0  0  0  0  0  0  0  0  0
    0.0140    0.6303    0.9936 H   0  0  0  0  0  0  0  0  0  0  0  0
   -1.0872   -1.1160    2.3424 H   0  0  0  0  0  0  0  0  0  0  0  0
    0.3410   -1.8672    1.6614 H   0  0  0  0  0  0  0  0  0  0  0  0
   -1.2941   -2.0820    0.7592 H   0  0  0  0  0  0  0  0  0  0  0  0
   -2.4861    0.4888    0.5661 H   0  0  0  0  0  0  0  0  0  0  0  0
  1  2  3  0
  2  3  1  0
  3  4  1  0
  4  5  1  0
  5  6  1  0
  6  7  1  0
  6  8  1  0
  8  9  2  0
  5  3  1  0
  1 10  1  0
  3 11  1  0
  5 12  1  0
  6 13  1  0
  7 14  1  0
  7 15  1  0
  7 16  1  0
  8 17  1  0
M  END
