
     RDKit          3D

 13 12  0  0  0  0  0  0  0  0999 V2000
   -0.4320    1.0309    2.5172 C   0  0  0  0  0  0  0  0  0  0  0  0
   -0.2942    0.5956    1.3019 C   0  0  0  0  0  0  0  0  0  0  0  0
   -0.1319    0.0994   -0.0324 C   0  0  0  0  0  0  0  0  0  0  0  0
    1.0394    0.6454   -0.3832 C   0  0  0  0  0  0  0  0  0  0  0  0
    2.2639    1.2378   -0.7643 C   0  0  0  0  0  0  0  0  0  0  0  0
   -0.2107   -1.4929   -0.1161 C   0  0  0  0  0  0  0  0  0  0  0  0
   -0.2750   -2.6163   -0.1595 C   0  0  0  0  0  0  0  0  0  0  0  0
   -1.1428    0.3371   -1.1227 C   0  0  0  0  0  0  0  0  0  0  0  0
   -2.2933    0.7868   -1.1181 O   0  0  0  0  0  0  0  0  0  0  0  0
   -0.5245    1.3178    3.2925 H   0  0  0  0  0  0  0  0  0  0  0  0
    3.1571    1.6565   -1.0440 H   0  0  0  0  0  0  0  0  0  0  0  0
   -0.3267   -3.7175   -0.1862 H   0  0  0  0  0  0  0  0  0  0  0  0
   -0.8293    0.1196   -2.2084 H   0  0  0  0  0  0  0  0  0  0  0  0
  1  2  3  0
  2  3  1  0
  3  4  1  0
  4  5  3  0
  3  6  1  0
  6  7  3  0
  3  8  1  0
  8  9  2  0
  1 10  1  0
  5 11  1  0
  7 12  1  0
  8 13  1  0
M  END
