
     RDKit          3D

 19 19  0  0  0  0  0  0  0  0999 V2000
   -3.3394    1.5156   -0.3893 C   0  0  0  0  0  0  0  0  0  0  0  0
   -2.3942    0.7829   -0.4789 C   0  0  0  0  0  0  0  0  0  0  0  0
   -1.2405   -0.1321   -0.5960 C   0  0  0  0  0  0  0  0  0  0  0  0
   -0.3903   -0.0499    0.6331 C   0  0  0  0  0  0  0  0  0  0  0  0
   -1.1215   -0.4042    1.7631 O   0  0  0  0  0  0  0  0  0  0  0  0
    0.8252   -0.9382    0.5711 C   0  0  0  0  0  0  0  0  0  0  0  0
    1.7249   -0.6000   -0.5703 C   0  0  0  0  0  0  0  0  0  0  0  0
    2.3210    0.7749   -0.6408 C   0  0  0  0  0  0  0  0  0  0  0  0
    3.0607   -0.3472   -0.1853 O   0  0  0  0  0  0  0  0  0  0  0  0
   -4.1850    2.1504   -0.3014 H   0  0  0  0  0  0  0  0  0  0  0  0
   -1.6898   -1.1599   -0.6492 H   0  0  0  0  0  0  0  0  0  0  0  0
   -0.7206    0.1025   -1.5207 H   0  0  0  0  0  0  0  0  0  0  0  0
   -0.0543    0.9968    0.7887 H   0  0  0  0  0  0  0  0  0  0  0  0
   -0.9525   -1.3709    1.9464 H   0  0  0  0  0  0  0  0  0  0  0  0
    1.3634   -0.7778    1.5266 H   0  0  0  0  0  0  0  0  0  0  0  0
    0.5291   -2.0083    0.5773 H   0  0  0  0  0  0  0  0  0  0  0  0
    1.6421   -1.1860   -1.5321 H   0  0  0  0  0  0  0  0  0  0  0  0
    2.5819    1.2190   -1.6067 H   0  0  0  0  0  0  0  0  0  0  0  0
    2.0397    1.4323    0.2214 H   0  0  0  0  0  0  0  0  0  0  0  0
  1  2  3  0
  2  3  1  0
  3  4  1  0
  4  5  1  0
  4  6  1  0
  6  7  1  0
  7  8  1  0
  8  9  1  0
  9  7  1  0
  1 10  1  0
  3 11  1  0
  3 12  1  0
  4 13  1  0
  5 14  1  0
  6 15  1  0
  6 16  1  0
  7 17  1  0
  8 18  1  0
  8 19  1  0
M  END
