
     RDKit          3D

 19 20  0  0  0  0  0  0  0  0999 V2000
    1.4822    1.5710   -3.0485 C   0  0  0  0  0  0  0  0  0  0  0  0
    1.2514    0.9942   -2.0730 C   0  0  0  0  0  0  0  0  0  0  0  0
    0.9817    0.2757   -0.9017 C   0  0  0  0  0  0  0  0  0  0  0  0
    0.4284   -1.0275   -1.1032 O   0  0  0  0  0  0  0  0  0  0  0  0
    0.5291   -1.4842    0.2296 C   0  0  0  0  0  0  0  0  0  0  0  0
    0.0581   -0.3300    1.0848 C   0  0  0  0  0  0  0  0  0  0  0  0
   -1.4309   -0.3265    1.2382 C   0  0  0  0  0  0  0  0  0  0  0  0
   -1.4937    0.1671   -0.2128 C   0  0  0  0  0  0  0  0  0  0  0  0
   -0.1226    0.7989   -0.0060 C   0  0  0  0  0  0  0  0  0  0  0  0
    1.6861    2.1299   -3.9934 H   0  0  0  0  0  0  0  0  0  0  0  0
    1.8687    0.1076   -0.2289 H   0  0  0  0  0  0  0  0  0  0  0  0
    1.6323   -1.6171    0.3937 H   0  0  0  0  0  0  0  0  0  0  0  0
   -0.0062   -2.4212    0.3760 H   0  0  0  0  0  0  0  0  0  0  0  0
    0.6835   -0.0058    1.8988 H   0  0  0  0  0  0  0  0  0  0  0  0
   -1.9023   -1.3011    1.4352 H   0  0  0  0  0  0  0  0  0  0  0  0
   -1.7634    0.4345    1.9599 H   0  0  0  0  0  0  0  0  0  0  0  0
   -2.3316    0.8713   -0.3479 H   0  0  0  0  0  0  0  0  0  0  0  0
   -1.4883   -0.6290   -0.9568 H   0  0  0  0  0  0  0  0  0  0  0  0
   -0.0627    1.7923    0.3761 H   0  0  0  0  0  0  0  0  0  0  0  0
  1  2  3  0
  2  3  1  0
  3  4  1  0
  4  5  1  0
  5  6  1  0
  6  7  1  0
  7  8  1  0
  8  9  1  0
  9  3  1  0
  9  6  1  0
  1 10  1  0
  3 11  1  0
  5 12  1  0
  5 13  1  0
  6 14  1  0
  7 15  1  0
  7 16  1  0
  8 17  1  0
  8 18  1  0
  9 19  1  0
M  END
