
     RDKit          3D

 16 15  0  0  0  0  0  0  0  0999 V2000
    1.8199    1.6504   -1.1198 C   0  0  0  0  0  0  0  0  0  0  0  0
    1.0376    0.7534   -0.8983 C   0  0  0  0  0  0  0  0  0  0  0  0
    0.0882   -0.3058   -0.6499 C   0  0  0  0  0  0  0  0  0  0  0  0
   -0.2666   -0.9164   -1.8772 O   0  0  0  0  0  0  0  0  0  0  0  0
    0.6270   -1.3597    0.2094 C   0  0  0  0  0  0  0  0  0  0  0  0
    1.0842   -2.2219    0.9234 C   0  0  0  0  0  0  0  0  0  0  0  0
   -1.1912    0.2000   -0.0649 C   0  0  0  0  0  0  0  0  0  0  0  0
   -1.0425    0.9026    1.2406 C   0  0  0  0  0  0  0  0  0  0  0  0
    2.5251    2.4351   -1.3186 H   0  0  0  0  0  0  0  0  0  0  0  0
    0.4696   -1.5763   -2.0480 H   0  0  0  0  0  0  0  0  0  0  0  0
    1.4773   -2.9803    1.5692 H   0  0  0  0  0  0  0  0  0  0  0  0
   -1.8402   -0.7021    0.1102 H   0  0  0  0  0  0  0  0  0  0  0  0
   -1.7007    0.8787   -0.7746 H   0  0  0  0  0  0  0  0  0  0  0  0
   -1.8948    1.6073    1.3861 H   0  0  0  0  0  0  0  0  0  0  0  0
   -1.1036    0.1635    2.0568 H   0  0  0  0  0  0  0  0  0  0  0  0
   -0.0893    1.4714    1.2556 H   0  0  0  0  0  0  0  0  0  0  0  0
  1  2  3  0
  2  3  1  0
  3  4  1  0
  3  5  1  0
  5  6  3  0
  3  7  1  0
  7  8  1  0
  1  9  1  0
  4 10  1  0
  6 11  1  0
  7 12  1  0
  7 13  1  0
  8 14  1  0
  8 15  1  0
  8 16  1  0
M  END
