
     RDKit          3D

 15 16  0  0  0  0  0  0  0  0999 V2000
   -0.5853    2.9255   -0.9457 C   0  0  0  0  0  0  0  0  0  0  0  0
   -0.6521    1.6629   -0.5626 C   0  0  0  0  0  0  0  0  0  0  0  0
   -0.7267    0.5031   -0.2149 C   0  0  0  0  0  0  0  0  0  0  0  0
    0.2012   -0.4954   -0.8678 C   0  0  0  0  0  0  0  0  0  0  0  0
   -0.2403   -1.8922   -1.0177 C   0  0  0  0  0  0  0  0  0  0  0  0
   -0.4184   -1.8966    0.3866 O   0  0  0  0  0  0  0  0  0  0  0  0
    0.0498   -0.5603    0.5564 C   0  0  0  0  0  0  0  0  0  0  0  0
    0.7495   -0.1927    1.6126 C   0  0  0  0  0  0  0  0  0  0  0  0
    1.5055    0.1807    2.7183 C   0  0  0  0  0  0  0  0  0  0  0  0
   -0.5241    3.9738   -1.2451 H   0  0  0  0  0  0  0  0  0  0  0  0
   -1.8833    0.1284    0.1278 H   0  0  0  0  0  0  0  0  0  0  0  0
    1.2197   -0.1619   -1.2188 H   0  0  0  0  0  0  0  0  0  0  0  0
    0.5439   -2.5630   -1.4005 H   0  0  0  0  0  0  0  0  0  0  0  0
   -1.2887   -2.0671   -1.4182 H   0  0  0  0  0  0  0  0  0  0  0  0
    2.0493    0.4549    3.4897 H   0  0  0  0  0  0  0  0  0  0  0  0
  1  2  3  0
  2  3  1  0
  3  4  1  0
  4  5  1  0
  5  6  1  0
  6  7  1  0
  7  8  1  0
  8  9  3  0
  7  3  1  0
  7  4  1  0
  1 10  1  0
  3 11  1  0
  4 12  1  0
  5 13  1  0
  5 14  1  0
  9 15  1  0
M  END
