
     RDKit          3D

 12 13  0  0  0  0  0  0  0  0999 V2000
    2.7365    0.0342    0.0751 C   0  0  0  0  0  0  0  0  0  0  0  0
    1.5265   -0.1762    0.1477 C   0  0  0  0  0  0  0  0  0  0  0  0
    0.0951   -0.4318    0.2582 C   0  0  0  0  0  0  0  0  0  0  0  0
   -0.6906    0.7557    0.8115 C   0  0  0  0  0  0  0  0  0  0  0  0
   -1.7878    0.3264   -0.3575 C   0  0  0  0  0  0  0  0  0  0  0  0
   -2.8639    0.8587   -0.0516 O   0  0  0  0  0  0  0  0  0  0  0  0
   -0.6884   -0.3444   -0.8631 C   0  0  0  0  0  0  0  0  0  0  0  0
   -0.4510   -1.5922   -0.1791 O   0  0  0  0  0  0  0  0  0  0  0  0
    3.8710    0.2373   -0.0115 H   0  0  0  0  0  0  0  0  0  0  0  0
   -0.3095    1.7015    0.3558 H   0  0  0  0  0  0  0  0  0  0  0  0
   -1.0881    0.6906    1.7544 H   0  0  0  0  0  0  0  0  0  0  0  0
   -0.3498   -0.3036   -1.9399 H   0  0  0  0  0  0  0  0  0  0  0  0
  1  2  3  0
  2  3  1  0
  3  4  1  0
  4  5  1  0
  5  6  2  0
  5  7  1  0
  7  8  1  0
  7  3  1  0
  8  3  1  0
  1  9  1  0
  4 10  1  0
  4 11  1  0
  7 12  1  0
M  END
