
     RDKit          3D

 19 18  0  0  0  0  0  0  0  0999 V2000
    3.4222   -1.6364    0.1552 C   0  0  0  0  0  0  0  0  0  0  0  0
    2.5137   -0.8879    0.4631 C   0  0  0  0  0  0  0  0  0  0  0  0
    1.4189    0.0364    0.8181 C   0  0  0  0  0  0  0  0  0  0  0  0
    1.4231    0.1458    2.3015 C   0  0  0  0  0  0  0  0  0  0  0  0
    0.4345   -0.1837    2.9299 O   0  0  0  0  0  0  0  0  0  0  0  0
    0.2018   -0.4550    0.4005 O   0  0  0  0  0  0  0  0  0  0  0  0
   -0.4521    0.4435   -0.4681 C   0  0  0  0  0  0  0  0  0  0  0  0
   -1.7607   -0.2206   -0.8380 C   0  0  0  0  0  0  0  0  0  0  0  0
   -2.6016    0.5981   -1.7673 C   0  0  0  0  0  0  0  0  0  0  0  0
    4.2230   -2.2795   -0.1270 H   0  0  0  0  0  0  0  0  0  0  0  0
    1.6371    1.0471    0.3789 H   0  0  0  0  0  0  0  0  0  0  0  0
    2.2892    0.5137    2.8402 H   0  0  0  0  0  0  0  0  0  0  0  0
    0.1979    0.5842   -1.3403 H   0  0  0  0  0  0  0  0  0  0  0  0
   -0.6033    1.4264    0.0242 H   0  0  0  0  0  0  0  0  0  0  0  0
   -1.5067   -1.1751   -1.3467 H   0  0  0  0  0  0  0  0  0  0  0  0
   -2.3056   -0.4396    0.1147 H   0  0  0  0  0  0  0  0  0  0  0  0
   -3.5978    0.8454   -1.3005 H   0  0  0  0  0  0  0  0  0  0  0  0
   -2.1344    1.5727   -2.0255 H   0  0  0  0  0  0  0  0  0  0  0  0
   -2.7991    0.0646   -2.7291 H   0  0  0  0  0  0  0  0  0  0  0  0
  1  2  3  0
  2  3  1  0
  3  4  1  0
  4  5  2  0
  3  6  1  0
  6  7  1  0
  7  8  1  0
  8  9  1  0
  1 10  1  0
  3 11  1  0
  4 12  1  0
  7 13  1  0
  7 14  1  0
  8 15  1  0
  8 16  1  0
  9 17  1  0
  9 18  1  0
  9 19  1  0
M  END
