
     RDKit          3D

 15 17  0  0  0  0  0  0  0  0999 V2000
    0.9300    0.2813    3.2547 C   0  0  0  0  0  0  0  0  0  0  0  0
    0.4221   -0.2466    2.1748 C   0  0  0  0  0  0  0  0  0  0  0  0
   -0.1416   -0.8009    1.0184 C   0  0  0  0  0  0  0  0  0  0  0  0
    0.7679   -1.0430   -0.0269 O   0  0  0  0  0  0  0  0  0  0  0  0
   -0.4652   -0.1272   -0.1012 C   0  0  0  0  0  0  0  0  0  0  0  0
   -1.0815   -0.4821   -1.4291 C   0  0  0  0  0  0  0  0  0  0  0  0
    0.1156    0.3547   -1.9820 C   0  0  0  0  0  0  0  0  0  0  0  0
   -0.2104    1.6697   -1.9211 O   0  0  0  0  0  0  0  0  0  0  0  0
    0.0005    1.1766   -0.6662 C   0  0  0  0  0  0  0  0  0  0  0  0
    1.3159    0.7009    4.1004 H   0  0  0  0  0  0  0  0  0  0  0  0
   -0.6593   -1.8119    1.2371 H   0  0  0  0  0  0  0  0  0  0  0  0
   -2.0392    0.0215   -1.5941 H   0  0  0  0  0  0  0  0  0  0  0  0
   -0.9737   -1.4937   -1.7969 H   0  0  0  0  0  0  0  0  0  0  0  0
    1.0799   -0.1060   -2.0583 H   0  0  0  0  0  0  0  0  0  0  0  0
    0.9392    1.5703   -0.2095 H   0  0  0  0  0  0  0  0  0  0  0  0
  1  2  3  0
  2  3  1  0
  3  4  1  0
  4  5  1  0
  5  6  1  0
  6  7  1  0
  7  8  1  0
  8  9  1  0
  5  3  1  0
  9  7  1  0
  9  5  1  0
  1 10  1  0
  3 11  1  0
  6 12  1  0
  6 13  1  0
  7 14  1  0
  9 15  1  0
M  END
