
     RDKit          3D

 18 18  0  0  0  0  0  0  0  0999 V2000
    2.8096   -1.9380    0.7818 C   0  0  0  0  0  0  0  0  0  0  0  0
    1.5849   -0.9209    0.5855 C   0  0  0  0  0  0  0  0  0  0  0  0
    0.4897    0.0164    0.4210 C   0  0  0  0  0  0  0  0  0  0  0  0
    0.8824    1.4687    0.6268 C   0  0  0  0  0  0  0  0  0  0  0  0
    0.3091   -0.1338   -1.2864 C   0  0  0  0  0  0  0  0  0  0  0  0
   -0.6821   -0.4839   -0.2921 C   0  0  0  0  0  0  0  0  0  0  0  0
   -1.9999    0.2111   -0.2681 C   0  0  0  0  0  0  0  0  0  0  0  0
   -2.6775    0.0732    0.8906 O   0  0  0  0  0  0  0  0  0  0  0  0
    3.4058   -2.4429    0.8846 H   0  0  0  0  0  0  0  0  0  0  0  0
    0.9468    1.9789   -0.3684 H   0  0  0  0  0  0  0  0  0  0  0  0
    0.2300    1.9316    1.3620 H   0  0  0  0  0  0  0  0  0  0  0  0
    1.9610    1.3440    0.9861 H   0  0  0  0  0  0  0  0  0  0  0  0
    0.7945   -0.9660   -1.7785 H   0  0  0  0  0  0  0  0  0  0  0  0
    0.3487    0.8182   -1.7838 H   0  0  0  0  0  0  0  0  0  0  0  0
   -0.8640   -1.6296   -0.0959 H   0  0  0  0  0  0  0  0  0  0  0  0
   -1.7333    1.3771   -0.3435 H   0  0  0  0  0  0  0  0  0  0  0  0
   -2.5340    0.0889   -1.1792 H   0  0  0  0  0  0  0  0  0  0  0  0
   -3.2716   -0.7930    0.8577 H   0  0  0  0  0  0  0  0  0  0  0  0
  1  2  3  0
  2  3  1  0
  3  4  1  0
  3  5  1  0
  5  6  1  0
  6  7  1  0
  7  8  1  0
  6  3  1  0
  1  9  1  0
  4 10  1  0
  4 11  1  0
  4 12  1  0
  5 13  1  0
  5 14  1  0
  6 15  1  0
  7 16  1  0
  7 17  1  0
  8 18  1  0
M  END
