
     RDKit          3D

 15 14  0  0  0  0  0  0  0  0999 V2000
    2.9535    2.0356   -1.0736 C   0  0  0  0  0  0  0  0  0  0  0  0
    2.0354    1.5819   -0.4455 C   0  0  0  0  0  0  0  0  0  0  0  0
    0.9524    1.0213    0.3142 C   0  0  0  0  0  0  0  0  0  0  0  0
    0.6742    1.3547    1.4835 O   0  0  0  0  0  0  0  0  0  0  0  0
    0.1162   -0.0073   -0.3137 C   0  0  0  0  0  0  0  0  0  0  0  0
   -0.9902   -0.4919    0.6241 C   0  0  0  0  0  0  0  0  0  0  0  0
   -1.7577   -1.5263   -0.1746 C   0  0  0  0  0  0  0  0  0  0  0  0
    3.7892    2.4312   -1.6513 H   0  0  0  0  0  0  0  0  0  0  0  0
    0.7725   -0.8919   -0.5567 H   0  0  0  0  0  0  0  0  0  0  0  0
   -0.4062    0.3923   -1.1963 H   0  0  0  0  0  0  0  0  0  0  0  0
   -1.6186    0.3607    0.9347 H   0  0  0  0  0  0  0  0  0  0  0  0
   -0.6120   -0.9806    1.5194 H   0  0  0  0  0  0  0  0  0  0  0  0
   -2.7524   -1.7503    0.2995 H   0  0  0  0  0  0  0  0  0  0  0  0
   -1.1403   -2.4329   -0.2731 H   0  0  0  0  0  0  0  0  0  0  0  0
   -2.0161   -1.0965   -1.1741 H   0  0  0  0  0  0  0  0  0  0  0  0
  1  2  3  0
  2  3  1  0
  3  4  2  0
  3  5  1  0
  5  6  1  0
  6  7  1  0
  1  8  1  0
  5  9  1  0
  5 10  1  0
  6 11  1  0
  6 12  1  0
  7 13  1  0
  7 14  1  0
  7 15  1  0
M  END
