
     RDKit          3D

 15 15  0  0  0  0  0  0  0  0999 V2000
    2.8432    1.2879   -0.4828 C   0  0  0  0  0  0  0  0  0  0  0  0
    2.0265    0.3981   -0.4816 C   0  0  0  0  0  0  0  0  0  0  0  0
    1.0275   -0.6984   -0.5053 C   0  0  0  0  0  0  0  0  0  0  0  0
    0.6980   -1.0641    0.8783 C   0  0  0  0  0  0  0  0  0  0  0  0
   -0.3860   -0.4143    1.2262 C   0  0  0  0  0  0  0  0  0  0  0  0
   -0.7661    0.3985    0.0163 C   0  0  0  0  0  0  0  0  0  0  0  0
   -2.2276    0.2878   -0.2058 C   0  0  0  0  0  0  0  0  0  0  0  0
   -3.4251    0.1778   -0.3972 C   0  0  0  0  0  0  0  0  0  0  0  0
   -0.1723   -0.2787   -1.0450 O   0  0  0  0  0  0  0  0  0  0  0  0
    3.5589    2.0671   -0.5024 H   0  0  0  0  0  0  0  0  0  0  0  0
    1.4678   -1.5531   -1.0799 H   0  0  0  0  0  0  0  0  0  0  0  0
    1.2350   -1.7481    1.5262 H   0  0  0  0  0  0  0  0  0  0  0  0
   -0.9567   -0.3901    2.1353 H   0  0  0  0  0  0  0  0  0  0  0  0
   -0.4580    1.4380    0.0671 H   0  0  0  0  0  0  0  0  0  0  0  0
   -4.4652    0.0916   -0.5479 H   0  0  0  0  0  0  0  0  0  0  0  0
  1  2  3  0
  2  3  1  0
  3  4  1  0
  4  5  2  0
  5  6  1  0
  6  7  1  0
  7  8  3  0
  6  9  1  0
  9  3  1  0
  1 10  1  0
  3 11  1  0
  4 12  1  0
  5 13  1  0
  6 14  1  0
  8 15  1  0
M  END
