
     RDKit          3D

 19 19  0  0  0  0  0  0  0  0999 V2000
   -2.4438    1.9232    0.4296 C   0  0  0  0  0  0  0  0  0  0  0  0
   -1.4122    1.4098    0.0237 C   0  0  0  0  0  0  0  0  0  0  0  0
   -0.1803    0.7978   -0.4878 C   0  0  0  0  0  0  0  0  0  0  0  0
   -0.5581   -0.1004   -1.6380 C   0  0  0  0  0  0  0  0  0  0  0  0
    0.5307   -1.1552   -1.5705 C   0  0  0  0  0  0  0  0  0  0  0  0
    0.8481   -1.2166   -0.1195 C   0  0  0  0  0  0  0  0  0  0  0  0
    0.4432   -0.1164    0.4723 C   0  0  0  0  0  0  0  0  0  0  0  0
    0.6104    0.1435    1.9538 C   0  0  0  0  0  0  0  0  0  0  0  0
    1.2293   -0.9181    2.5595 O   0  0  0  0  0  0  0  0  0  0  0  0
   -3.3230    2.3791    0.7697 H   0  0  0  0  0  0  0  0  0  0  0  0
    0.5171    1.5598   -0.8920 H   0  0  0  0  0  0  0  0  0  0  0  0
   -1.5626   -0.5118   -1.4652 H   0  0  0  0  0  0  0  0  0  0  0  0
   -0.5664    0.4078   -2.6204 H   0  0  0  0  0  0  0  0  0  0  0  0
    0.0237   -2.1276   -1.8093 H   0  0  0  0  0  0  0  0  0  0  0  0
    1.3929   -0.9414   -2.1990 H   0  0  0  0  0  0  0  0  0  0  0  0
    1.3565   -2.0755    0.3828 H   0  0  0  0  0  0  0  0  0  0  0  0
   -0.3759    0.3287    2.4319 H   0  0  0  0  0  0  0  0  0  0  0  0
    1.2929    1.0210    2.0606 H   0  0  0  0  0  0  0  0  0  0  0  0
    2.1775   -0.8078    2.7823 H   0  0  0  0  0  0  0  0  0  0  0  0
  1  2  3  0
  2  3  1  0
  3  4  1  0
  4  5  1  0
  5  6  1  0
  6  7  2  0
  7  8  1  0
  8  9  1  0
  7  3  1  0
  1 10  1  0
  3 11  1  0
  4 12  1  0
  4 13  1  0
  5 14  1  0
  5 15  1  0
  6 16  1  0
  8 17  1  0
  8 18  1  0
  9 19  1  0
M  END
