
     RDKit          3D

 17 18  0  0  0  0  0  0  0  0999 V2000
    2.6484   -0.8808    1.1759 C   0  0  0  0  0  0  0  0  0  0  0  0
    1.8313   -0.3808    0.4557 C   0  0  0  0  0  0  0  0  0  0  0  0
    0.8333    0.2241   -0.3908 C   0  0  0  0  0  0  0  0  0  0  0  0
    0.2433    1.4660    0.1933 C   0  0  0  0  0  0  0  0  0  0  0  0
   -0.9604    1.1700   -0.6636 C   0  0  0  0  0  0  0  0  0  0  0  0
   -0.5904   -0.1564   -0.0269 C   0  0  0  0  0  0  0  0  0  0  0  0
   -1.1928   -1.3623   -0.2446 C   0  0  0  0  0  0  0  0  0  0  0  0
   -0.3837    0.5984    1.1906 C   0  0  0  0  0  0  0  0  0  0  0  0
   -0.5781    0.5922    2.3665 O   0  0  0  0  0  0  0  0  0  0  0  0
    3.3748   -1.3230    1.8379 H   0  0  0  0  0  0  0  0  0  0  0  0
    1.0078    0.1940   -1.4642 H   0  0  0  0  0  0  0  0  0  0  0  0
    0.6756    2.3591    0.3225 H   0  0  0  0  0  0  0  0  0  0  0  0
   -0.7701    1.2503   -1.7421 H   0  0  0  0  0  0  0  0  0  0  0  0
   -1.9148    1.6084   -0.2963 H   0  0  0  0  0  0  0  0  0  0  0  0
   -1.5873   -1.8787    0.6811 H   0  0  0  0  0  0  0  0  0  0  0  0
   -2.0978   -1.3325   -0.9231 H   0  0  0  0  0  0  0  0  0  0  0  0
   -0.5391   -2.1481   -0.7281 H   0  0  0  0  0  0  0  0  0  0  0  0
  1  2  3  0
  2  3  1  0
  3  4  1  0
  4  5  1  0
  5  6  1  0
  6  7  1  0
  6  8  1  0
  8  9  2  0
  6  3  1  0
  8  4  1  0
  1 10  1  0
  3 11  1  0
  4 12  1  0
  5 13  1  0
  5 14  1  0
  7 15  1  0
  7 16  1  0
  7 17  1  0
M  END
