
     RDKit          3D

 25 24  0  0  0  0  0  0  0  0999 V2000
    2.8801   -1.3472   -0.2566 C   0  0  0  0  0  0  0  0  0  0  0  0
    2.0310   -0.6535   -0.7626 C   0  0  0  0  0  0  0  0  0  0  0  0
    0.9866    0.1673   -1.3795 C   0  0  0  0  0  0  0  0  0  0  0  0
    0.0511    0.6089   -0.2460 C   0  0  0  0  0  0  0  0  0  0  0  0
   -1.0632    1.4569   -0.7455 C   0  0  0  0  0  0  0  0  0  0  0  0
    0.9319    1.3477    0.7467 C   0  0  0  0  0  0  0  0  0  0  0  0
   -0.4131   -0.6571    0.4360 C   0  0  0  0  0  0  0  0  0  0  0  0
   -1.1462   -1.5566   -0.5263 C   0  0  0  0  0  0  0  0  0  0  0  0
   -1.2722   -0.3587    1.6446 C   0  0  0  0  0  0  0  0  0  0  0  0
    3.6376   -1.9532    0.2078 H   0  0  0  0  0  0  0  0  0  0  0  0
    0.3879   -0.4054   -2.0889 H   0  0  0  0  0  0  0  0  0  0  0  0
    1.4134    1.0693   -1.8706 H   0  0  0  0  0  0  0  0  0  0  0  0
   -0.9209    1.8034   -1.7763 H   0  0  0  0  0  0  0  0  0  0  0  0
   -2.0379    0.9630   -0.5647 H   0  0  0  0  0  0  0  0  0  0  0  0
   -1.0902    2.3881   -0.1067 H   0  0  0  0  0  0  0  0  0  0  0  0
    1.8121    0.6900    0.9772 H   0  0  0  0  0  0  0  0  0  0  0  0
    0.4206    1.6192    1.6675 H   0  0  0  0  0  0  0  0  0  0  0  0
    1.3736    2.2580    0.2741 H   0  0  0  0  0  0  0  0  0  0  0  0
    0.4968   -1.1766    0.8031 H   0  0  0  0  0  0  0  0  0  0  0  0
   -0.4335   -2.1337   -1.1656 H   0  0  0  0  0  0  0  0  0  0  0  0
   -1.8077   -0.9662   -1.1856 H   0  0  0  0  0  0  0  0  0  0  0  0
   -1.7328   -2.2962    0.0745 H   0  0  0  0  0  0  0  0  0  0  0  0
   -0.8368   -0.7386    2.5754 H   0  0  0  0  0  0  0  0  0  0  0  0
   -1.4121    0.7283    1.7615 H   0  0  0  0  0  0  0  0  0  0  0  0
   -2.2560   -0.8568    1.5065 H   0  0  0  0  0  0  0  0  0  0  0  0
  1  2  3  0
  2  3  1  0
  3  4  1  0
  4  5  1  0
  4  6  1  0
  4  7  1  0
  7  8  1  0
  7  9  1  0
  1 10  1  0
  3 11  1  0
  3 12  1  0
  5 13  1  0
  5 14  1  0
  5 15  1  0
  6 16  1  0
  6 17  1  0
  6 18  1  0
  7 19  1  0
  8 20  1  0
  8 21  1  0
  8 22  1  0
  9 23  1  0
  9 24  1  0
  9 25  1  0
M  END
