
     RDKit          3D

 15 14  0  0  0  0  0  0  0  0999 V2000
   -2.3316   -1.2103   -1.2336 C   0  0  0  0  0  0  0  0  0  0  0  0
   -1.4863   -0.4543   -0.8541 C   0  0  0  0  0  0  0  0  0  0  0  0
   -0.4500    0.4861   -0.3797 C   0  0  0  0  0  0  0  0  0  0  0  0
   -0.2002    1.6470   -1.2525 C   0  0  0  0  0  0  0  0  0  0  0  0
    0.6658   -0.2857    0.0031 O   0  0  0  0  0  0  0  0  0  0  0  0
    0.9566   -0.5359    1.3243 C   0  0  0  0  0  0  0  0  0  0  0  0
    0.1424   -0.0289    2.1663 O   0  0  0  0  0  0  0  0  0  0  0  0
    2.0638   -1.2965    1.7899 C   0  0  0  0  0  0  0  0  0  0  0  0
    2.9383   -1.7907    1.0234 O   0  0  0  0  0  0  0  0  0  0  0  0
   -3.0898   -1.9112   -1.5885 H   0  0  0  0  0  0  0  0  0  0  0  0
   -0.9018    0.8850    0.5997 H   0  0  0  0  0  0  0  0  0  0  0  0
   -1.1527    1.8871   -1.7886 H   0  0  0  0  0  0  0  0  0  0  0  0
    0.0621    2.5794   -0.6556 H   0  0  0  0  0  0  0  0  0  0  0  0
    0.5779    1.5231   -2.0192 H   0  0  0  0  0  0  0  0  0  0  0  0
    2.2056   -1.4943    2.8653 H   0  0  0  0  0  0  0  0  0  0  0  0
  1  2  3  0
  2  3  1  0
  3  4  1  0
  3  5  1  0
  5  6  1  0
  6  7  2  0
  6  8  1  0
  8  9  2  0
  1 10  1  0
  3 11  1  0
  4 12  1  0
  4 13  1  0
  4 14  1  0
  8 15  1  0
M  END
