
     RDKit          3D

 15 14  0  0  0  0  0  0  0  0999 V2000
   -2.5155   -1.1453    0.5235 C   0  0  0  0  0  0  0  0  0  0  0  0
   -1.7247   -0.2329    0.4520 C   0  0  0  0  0  0  0  0  0  0  0  0
   -0.7528    0.8548    0.3537 C   0  0  0  0  0  0  0  0  0  0  0  0
   -1.2935    1.8803   -0.4520 O   0  0  0  0  0  0  0  0  0  0  0  0
    0.5180    0.4192   -0.2933 C   0  0  0  0  0  0  0  0  0  0  0  0
    1.2272   -0.6819    0.4214 C   0  0  0  0  0  0  0  0  0  0  0  0
    2.3961   -0.9689   -0.3164 O   0  0  0  0  0  0  0  0  0  0  0  0
   -3.2121   -1.9606    0.5923 H   0  0  0  0  0  0  0  0  0  0  0  0
   -0.5404    1.3300    1.3337 H   0  0  0  0  0  0  0  0  0  0  0  0
   -0.7959    2.7062   -0.2321 H   0  0  0  0  0  0  0  0  0  0  0  0
    0.3102    0.0986   -1.3379 H   0  0  0  0  0  0  0  0  0  0  0  0
    1.1877    1.3002   -0.3735 H   0  0  0  0  0  0  0  0  0  0  0  0
    1.5562   -0.4118    1.4272 H   0  0  0  0  0  0  0  0  0  0  0  0
    0.6307   -1.6264    0.3882 H   0  0  0  0  0  0  0  0  0  0  0  0
    3.0088   -1.5614    0.2091 H   0  0  0  0  0  0  0  0  0  0  0  0
  1  2  3  0
  2  3  1  0
  3  4  1  0
  3  5  1  0
  5  6  1  0
  6  7  1  0
  1  8  1  0
  3  9  1  0
  4 10  1  0
  5 11  1  0
  5 12  1  0
  6 13  1  0
  6 14  1  0
  7 15  1  0
M  END
