
     RDKit          3D

 17 17  0  0  0  0  0  0  0  0999 V2000
    2.9729   -0.5571   -0.9496 C   0  0  0  0  0  0  0  0  0  0  0  0
    1.9497   -0.6184   -0.3118 C   0  0  0  0  0  0  0  0  0  0  0  0
    0.7190   -0.6936    0.4784 C   0  0  0  0  0  0  0  0  0  0  0  0
    0.3078    0.5772    1.2415 C   0  0  0  0  0  0  0  0  0  0  0  0
   -0.4799    0.0565    0.0930 C   0  0  0  0  0  0  0  0  0  0  0  0
   -1.8269   -0.5658    0.4744 C   0  0  0  0  0  0  0  0  0  0  0  0
   -0.5539    0.8903   -1.1565 C   0  0  0  0  0  0  0  0  0  0  0  0
    3.8789   -0.4872   -1.5274 H   0  0  0  0  0  0  0  0  0  0  0  0
    0.5760   -1.6548    1.0471 H   0  0  0  0  0  0  0  0  0  0  0  0
   -0.0849    0.4393    2.2727 H   0  0  0  0  0  0  0  0  0  0  0  0
    0.9505    1.4563    1.0254 H   0  0  0  0  0  0  0  0  0  0  0  0
   -2.5496    0.2399    0.7755 H   0  0  0  0  0  0  0  0  0  0  0  0
   -1.7103   -1.3195    1.2755 H   0  0  0  0  0  0  0  0  0  0  0  0
   -2.2914   -1.0741   -0.4001 H   0  0  0  0  0  0  0  0  0  0  0  0
   -1.1090    1.8287   -0.8838 H   0  0  0  0  0  0  0  0  0  0  0  0
    0.4325    1.1417   -1.5435 H   0  0  0  0  0  0  0  0  0  0  0  0
   -1.1814    0.3405   -1.9107 H   0  0  0  0  0  0  0  0  0  0  0  0
  1  2  3  0
  2  3  1  0
  3  4  1  0
  4  5  1  0
  5  6  1  0
  5  7  1  0
  5  3  1  0
  1  8  1  0
  3  9  1  0
  4 10  1  0
  4 11  1  0
  6 12  1  0
  6 13  1  0
  6 14  1  0
  7 15  1  0
  7 16  1  0
  7 17  1  0
M  END
