
     RDKit          3D

 21 21  0  0  0  0  0  0  0  0999 V2000
    2.8985    1.8136   -0.9136 C   0  0  0  0  0  0  0  0  0  0  0  0
    2.4349    0.7077   -1.0723 C   0  0  0  0  0  0  0  0  0  0  0  0
    1.8835   -0.6482   -1.2851 C   0  0  0  0  0  0  0  0  0  0  0  0
    0.3924   -0.4819   -1.4924 C   0  0  0  0  0  0  0  0  0  0  0  0
   -0.1701    0.1565   -0.2619 C   0  0  0  0  0  0  0  0  0  0  0  0
   -1.6649    0.4073   -0.2787 C   0  0  0  0  0  0  0  0  0  0  0  0
   -1.6359    0.0954    1.2254 C   0  0  0  0  0  0  0  0  0  0  0  0
   -2.7130   -0.6150    1.6877 O   0  0  0  0  0  0  0  0  0  0  0  0
   -0.4098   -0.7733    0.9114 C   0  0  0  0  0  0  0  0  0  0  0  0
    3.2900    2.7856   -0.7749 H   0  0  0  0  0  0  0  0  0  0  0  0
    2.0414   -1.2115   -0.3478 H   0  0  0  0  0  0  0  0  0  0  0  0
    2.3915   -1.0900   -2.1624 H   0  0  0  0  0  0  0  0  0  0  0  0
    0.2617    0.2308   -2.3332 H   0  0  0  0  0  0  0  0  0  0  0  0
   -0.1104   -1.4170   -1.7817 H   0  0  0  0  0  0  0  0  0  0  0  0
    0.3973    1.0744   -0.0135 H   0  0  0  0  0  0  0  0  0  0  0  0
   -2.2094   -0.3937   -0.8592 H   0  0  0  0  0  0  0  0  0  0  0  0
   -1.9728    1.4213   -0.5318 H   0  0  0  0  0  0  0  0  0  0  0  0
   -1.3410    1.0016    1.7615 H   0  0  0  0  0  0  0  0  0  0  0  0
   -3.4749   -0.5801    1.0527 H   0  0  0  0  0  0  0  0  0  0  0  0
    0.3588   -0.6883    1.7236 H   0  0  0  0  0  0  0  0  0  0  0  0
   -0.6477   -1.7951    0.6180 H   0  0  0  0  0  0  0  0  0  0  0  0
  1  2  3  0
  2  3  1  0
  3  4  1  0
  4  5  1  0
  5  6  1  0
  6  7  1  0
  7  8  1  0
  7  9  1  0
  9  5  1  0
  1 10  1  0
  3 11  1  0
  3 12  1  0
  4 13  1  0
  4 14  1  0
  5 15  1  0
  6 16  1  0
  6 17  1  0
  7 18  1  0
  8 19  1  0
  9 20  1  0
  9 21  1  0
M  END
