
     RDKit          3D

 17 18  0  0  0  0  0  0  0  0999 V2000
    2.8421   -0.7150   -0.0867 C   0  0  0  0  0  0  0  0  0  0  0  0
    1.6274   -0.4540    0.3048 C   0  0  0  0  0  0  0  0  0  0  0  0
    0.3107   -0.1621    0.7057 C   0  0  0  0  0  0  0  0  0  0  0  0
   -0.6984   -1.1895    0.3991 C   0  0  0  0  0  0  0  0  0  0  0  0
   -1.3725   -0.3241   -0.6641 C   0  0  0  0  0  0  0  0  0  0  0  0
   -2.7034   -0.0927   -0.2551 O   0  0  0  0  0  0  0  0  0  0  0  0
   -0.3748    0.7259   -0.4235 C   0  0  0  0  0  0  0  0  0  0  0  0
    0.4062    1.0735   -1.5361 O   0  0  0  0  0  0  0  0  0  0  0  0
    0.0966    1.2549    0.8590 C   0  0  0  0  0  0  0  0  0  0  0  0
    4.1780   -1.0151   -0.4961 H   0  0  0  0  0  0  0  0  0  0  0  0
   -1.3526   -1.3630    1.2744 H   0  0  0  0  0  0  0  0  0  0  0  0
   -0.2919   -2.1315   -0.0873 H   0  0  0  0  0  0  0  0  0  0  0  0
   -1.2989   -0.7989   -1.6586 H   0  0  0  0  0  0  0  0  0  0  0  0
   -2.7167   -0.3545    0.7741 H   0  0  0  0  0  0  0  0  0  0  0  0
    0.9169    1.9153   -1.4510 H   0  0  0  0  0  0  0  0  0  0  0  0
    1.0415    1.9008    0.8010 H   0  0  0  0  0  0  0  0  0  0  0  0
   -0.6105    1.7299    1.5404 H   0  0  0  0  0  0  0  0  0  0  0  0
  1  2  3  0
  2  3  1  0
  3  4  1  0
  4  5  1  0
  5  6  1  0
  5  7  1  0
  7  8  1  0
  7  9  1  0
  7  3  1  0
  9  3  1  0
  1 10  1  0
  4 11  1  0
  4 12  1  0
  5 13  1  0
  6 14  1  0
  8 15  1  0
  9 16  1  0
  9 17  1  0
M  END
