
     RDKit          3D

 19 18  0  0  0  0  0  0  0  0999 V2000
    0.6702    2.0302   -2.7410 C   0  0  0  0  0  0  0  0  0  0  0  0
    0.4673    0.8172   -2.4129 C   0  0  0  0  0  0  0  0  0  0  0  0
    0.2516   -0.5945   -2.0405 C   0  0  0  0  0  0  0  0  0  0  0  0
    0.3618   -1.4031   -2.9969 O   0  0  0  0  0  0  0  0  0  0  0  0
   -0.0394   -0.9250   -0.6643 C   0  0  0  0  0  0  0  0  0  0  0  0
   -0.6386   -2.2922   -0.4546 C   0  0  0  0  0  0  0  0  0  0  0  0
   -0.6283    0.1053    0.0420 O   0  0  0  0  0  0  0  0  0  0  0  0
    0.2047    0.4936    1.0981 C   0  0  0  0  0  0  0  0  0  0  0  0
   -0.3330    1.6890    1.8134 C   0  0  0  0  0  0  0  0  0  0  0  0
    0.8430    3.0102   -3.0226 H   0  0  0  0  0  0  0  0  0  0  0  0
    1.0260   -0.9935   -0.1314 H   0  0  0  0  0  0  0  0  0  0  0  0
   -1.7068   -2.4112   -0.6168 H   0  0  0  0  0  0  0  0  0  0  0  0
   -0.0702   -2.9663   -1.1720 H   0  0  0  0  0  0  0  0  0  0  0  0
   -0.2711   -2.6775    0.5459 H   0  0  0  0  0  0  0  0  0  0  0  0
    1.2451    0.5871    0.7760 H   0  0  0  0  0  0  0  0  0  0  0  0
    0.1576   -0.3653    1.8852 H   0  0  0  0  0  0  0  0  0  0  0  0
   -1.4070    1.8423    1.4649 H   0  0  0  0  0  0  0  0  0  0  0  0
   -0.4364    1.4884    2.9051 H   0  0  0  0  0  0  0  0  0  0  0  0
    0.3035    2.5653    1.6434 H   0  0  0  0  0  0  0  0  0  0  0  0
  1  2  3  0
  2  3  1  0
  3  4  2  0
  3  5  1  0
  5  6  1  0
  5  7  1  0
  7  8  1  0
  8  9  1  0
  1 10  1  0
  5 11  1  0
  6 12  1  0
  6 13  1  0
  6 14  1  0
  8 15  1  0
  8 16  1  0
  9 17  1  0
  9 18  1  0
  9 19  1  0
M  END
