
     RDKit          3D

 21 22  0  0  0  0  0  0  0  0999 V2000
    3.5214   -0.3761   -1.0015 C   0  0  0  0  0  0  0  0  0  0  0  0
    2.3257   -0.4009   -0.7824 C   0  0  0  0  0  0  0  0  0  0  0  0
    0.8871   -0.4559   -0.5168 C   0  0  0  0  0  0  0  0  0  0  0  0
    0.0474    0.2269   -1.6010 C   0  0  0  0  0  0  0  0  0  0  0  0
   -0.7212    0.9208   -0.4975 C   0  0  0  0  0  0  0  0  0  0  0  0
   -1.8892    0.1302   -0.0150 C   0  0  0  0  0  0  0  0  0  0  0  0
   -1.4788   -0.5816    1.2506 C   0  0  0  0  0  0  0  0  0  0  0  0
   -0.1570    0.0571    1.6807 C   0  0  0  0  0  0  0  0  0  0  0  0
    0.4423    0.6297    0.4299 C   0  0  0  0  0  0  0  0  0  0  0  0
    4.5611   -0.3415   -1.2039 H   0  0  0  0  0  0  0  0  0  0  0  0
    0.5215   -1.4665   -0.2505 H   0  0  0  0  0  0  0  0  0  0  0  0
    0.6941    0.9382   -2.1544 H   0  0  0  0  0  0  0  0  0  0  0  0
   -0.5240   -0.4925   -2.1930 H   0  0  0  0  0  0  0  0  0  0  0  0
   -0.9011    1.9970   -0.7023 H   0  0  0  0  0  0  0  0  0  0  0  0
   -2.2661   -0.6125   -0.7568 H   0  0  0  0  0  0  0  0  0  0  0  0
   -2.7324    0.8360    0.1548 H   0  0  0  0  0  0  0  0  0  0  0  0
   -1.3072   -1.6399    1.0090 H   0  0  0  0  0  0  0  0  0  0  0  0
   -2.2721   -0.4105    1.9981 H   0  0  0  0  0  0  0  0  0  0  0  0
   -0.3232    0.8243    2.4679 H   0  0  0  0  0  0  0  0  0  0  0  0
    0.4640   -0.7331    2.1434 H   0  0  0  0  0  0  0  0  0  0  0  0
    1.1078    1.4915    0.5404 H   0  0  0  0  0  0  0  0  0  0  0  0
  1  2  3  0
  2  3  1  0
  3  4  1  0
  4  5  1  0
  5  6  1  0
  6  7  1  0
  7  8  1  0
  8  9  1  0
  9  3  1  0
  9  5  1  0
  1 10  1  0
  3 11  1  0
  4 12  1  0
  4 13  1  0
  5 14  1  0
  6 15  1  0
  6 16  1  0
  7 17  1  0
  7 18  1  0
  8 19  1  0
  8 20  1  0
  9 21  1  0
M  END
