
     RDKit          3D

 16 16  0  0  0  0  0  0  0  0999 V2000
    3.3706   -0.2609    0.4510 C   0  0  0  0  0  0  0  0  0  0  0  0
    2.1672   -0.3366    0.5004 C   0  0  0  0  0  0  0  0  0  0  0  0
    0.6910   -0.4554    0.5614 C   0  0  0  0  0  0  0  0  0  0  0  0
    0.2826   -1.5108   -0.2501 O   0  0  0  0  0  0  0  0  0  0  0  0
    0.0345    0.8175    0.0545 C   0  0  0  0  0  0  0  0  0  0  0  0
   -1.4344    0.6443    0.1389 C   0  0  0  0  0  0  0  0  0  0  0  0
   -2.2140   -0.3477   -0.5204 C   0  0  0  0  0  0  0  0  0  0  0  0
   -2.0817    0.9388   -1.1626 O   0  0  0  0  0  0  0  0  0  0  0  0
    4.4253   -0.1826    0.4217 H   0  0  0  0  0  0  0  0  0  0  0  0
    0.4006   -0.6450    1.6092 H   0  0  0  0  0  0  0  0  0  0  0  0
    0.6963   -1.3443   -1.1485 H   0  0  0  0  0  0  0  0  0  0  0  0
    0.3401    1.6423    0.7334 H   0  0  0  0  0  0  0  0  0  0  0  0
    0.3673    1.0515   -0.9764 H   0  0  0  0  0  0  0  0  0  0  0  0
   -1.9368    1.2550    0.9353 H   0  0  0  0  0  0  0  0  0  0  0  0
   -1.8369   -1.1623   -1.1436 H   0  0  0  0  0  0  0  0  0  0  0  0
   -3.2717   -0.4823   -0.2044 H   0  0  0  0  0  0  0  0  0  0  0  0
  1  2  3  0
  2  3  1  0
  3  4  1  0
  3  5  1  0
  5  6  1  0
  6  7  1  0
  7  8  1  0
  8  6  1  0
  1  9  1  0
  3 10  1  0
  4 11  1  0
  5 12  1  0
  5 13  1  0
  6 14  1  0
  7 15  1  0
  7 16  1  0
M  END
