
     RDKit          3D

 13 12  0  0  0  0  0  0  0  0999 V2000
    4.0215   -0.2077    0.7667 C   0  0  0  0  0  0  0  0  0  0  0  0
    2.6298    0.2242    0.3724 C   0  0  0  0  0  0  0  0  0  0  0  0
    1.1765    0.6496   -0.0491 C   0  0  0  0  0  0  0  0  0  0  0  0
    0.3897    0.8883   -0.2705 C   0  0  0  0  0  0  0  0  0  0  0  0
   -1.2480    1.3899   -0.7396 C   0  0  0  0  0  0  0  0  0  0  0  0
   -1.7900   -0.2320   -0.3218 C   0  0  0  0  0  0  0  0  0  0  0  0
   -1.1853   -0.3890    0.9095 O   0  0  0  0  0  0  0  0  0  0  0  0
    4.6520   -0.3921    0.9404 H   0  0  0  0  0  0  0  0  0  0  0  0
   -1.5760    1.7062    0.1025 H   0  0  0  0  0  0  0  0  0  0  0  0
   -1.1723    1.0648   -1.7450 H   0  0  0  0  0  0  0  0  0  0  0  0
   -2.8780   -0.0788   -0.1442 H   0  0  0  0  0  0  0  0  0  0  0  0
   -1.4806   -0.8423   -1.0581 H   0  0  0  0  0  0  0  0  0  0  0  0
   -1.5392   -1.2932    1.2370 H   0  0  0  0  0  0  0  0  0  0  0  0
  1  2  3  0
  2  3  1  0
  3  4  3  0
  4  5  1  0
  5  6  1  0
  6  7  1  0
  1  8  1  0
  5  9  1  0
  5 10  1  0
  6 11  1  0
  6 12  1  0
  7 13  1  0
M  END
