
     RDKit          3D

 21 21  0  0  0  0  0  0  0  0999 V2000
    3.9146    0.2621    0.9365 C   0  0  0  0  0  0  0  0  0  0  0  0
    2.7568    0.4546    1.2139 C   0  0  0  0  0  0  0  0  0  0  0  0
    1.3611    0.6989    1.5714 C   0  0  0  0  0  0  0  0  0  0  0  0
    0.4806   -0.3060    0.8253 C   0  0  0  0  0  0  0  0  0  0  0  0
    0.5621   -0.2493   -0.6777 C   0  0  0  0  0  0  0  0  0  0  0  0
    1.3809    0.7233   -1.2367 O   0  0  0  0  0  0  0  0  0  0  0  0
   -0.6796    0.1296    0.0510 C   0  0  0  0  0  0  0  0  0  0  0  0
   -1.8477   -0.8558   -0.0355 C   0  0  0  0  0  0  0  0  0  0  0  0
   -2.9803   -0.3086   -0.8509 C   0  0  0  0  0  0  0  0  0  0  0  0
    4.9545    0.0931    0.7065 H   0  0  0  0  0  0  0  0  0  0  0  0
    1.1171    1.7505    1.2556 H   0  0  0  0  0  0  0  0  0  0  0  0
    1.2583    0.5891    2.6615 H   0  0  0  0  0  0  0  0  0  0  0  0
    0.4369   -1.2905    1.3413 H   0  0  0  0  0  0  0  0  0  0  0  0
    0.6700   -1.2392   -1.1657 H   0  0  0  0  0  0  0  0  0  0  0  0
    1.1597    1.6201   -0.9207 H   0  0  0  0  0  0  0  0  0  0  0  0
   -0.9884    1.1786    0.0264 H   0  0  0  0  0  0  0  0  0  0  0  0
   -1.4978   -1.7845   -0.5003 H   0  0  0  0  0  0  0  0  0  0  0  0
   -2.2331   -1.0293    0.9931 H   0  0  0  0  0  0  0  0  0  0  0  0
   -3.0448    0.7806   -0.6404 H   0  0  0  0  0  0  0  0  0  0  0  0
   -2.8427   -0.4542   -1.9463 H   0  0  0  0  0  0  0  0  0  0  0  0
   -3.9380   -0.7630   -0.5209 H   0  0  0  0  0  0  0  0  0  0  0  0
  1  2  3  0
  2  3  1  0
  3  4  1  0
  4  5  1  0
  5  6  1  0
  5  7  1  0
  7  8  1  0
  8  9  1  0
  7  4  1  0
  1 10  1  0
  3 11  1  0
  3 12  1  0
  4 13  1  0
  5 14  1  0
  6 15  1  0
  7 16  1  0
  8 17  1  0
  8 18  1  0
  9 19  1  0
  9 20  1  0
  9 21  1  0
M  END
