
     RDKit          3D

 19 19  0  0  0  0  0  0  0  0999 V2000
    3.0983   -0.1398    0.2279 C   0  0  0  0  0  0  0  0  0  0  0  0
    1.9686    0.0289   -0.1779 C   0  0  0  0  0  0  0  0  0  0  0  0
    0.6023    0.2543   -0.6547 C   0  0  0  0  0  0  0  0  0  0  0  0
   -0.0544   -1.0678   -0.9760 C   0  0  0  0  0  0  0  0  0  0  0  0
   -0.6325   -1.4788    0.3545 C   0  0  0  0  0  0  0  0  0  0  0  0
   -1.1936   -0.1882    0.9058 C   0  0  0  0  0  0  0  0  0  0  0  0
   -0.2426    0.8825    0.4086 C   0  0  0  0  0  0  0  0  0  0  0  0
   -1.0252    1.9806   -0.1985 C   0  0  0  0  0  0  0  0  0  0  0  0
   -0.8286    3.1344    0.1048 O   0  0  0  0  0  0  0  0  0  0  0  0
    4.1026   -0.2880    0.5687 H   0  0  0  0  0  0  0  0  0  0  0  0
    0.5983    0.8442   -1.6084 H   0  0  0  0  0  0  0  0  0  0  0  0
   -0.8871   -0.9046   -1.6900 H   0  0  0  0  0  0  0  0  0  0  0  0
    0.7000   -1.7628   -1.3556 H   0  0  0  0  0  0  0  0  0  0  0  0
   -1.4738   -2.1960    0.2153 H   0  0  0  0  0  0  0  0  0  0  0  0
    0.1547   -1.8948    0.9812 H   0  0  0  0  0  0  0  0  0  0  0  0
   -1.2122   -0.1963    2.0012 H   0  0  0  0  0  0  0  0  0  0  0  0
   -2.2307   -0.0230    0.5469 H   0  0  0  0  0  0  0  0  0  0  0  0
    0.3397    1.2670    1.2702 H   0  0  0  0  0  0  0  0  0  0  0  0
   -1.7839    1.7482   -0.9240 H   0  0  0  0  0  0  0  0  0  0  0  0
  1  2  3  0
  2  3  1  0
  3  4  1  0
  4  5  1  0
  5  6  1  0
  6  7  1  0
  7  8  1  0
  8  9  2  0
  7  3  1  0
  1 10  1  0
  3 11  1  0
  4 12  1  0
  4 13  1  0
  5 14  1  0
  5 15  1  0
  6 16  1  0
  6 17  1  0
  7 18  1  0
  8 19  1  0
M  END
