
     RDKit          3D

 16 16  0  0  0  0  0  0  0  0999 V2000
    2.6468   -1.2656   -1.7980 C   0  0  0  0  0  0  0  0  0  0  0  0
    1.7768   -0.4423   -1.4403 C   0  0  0  0  0  0  0  0  0  0  0  0
    0.9052    0.3558   -1.0774 C   0  0  0  0  0  0  0  0  0  0  0  0
   -0.3842    0.0305   -0.3221 C   0  0  0  0  0  0  0  0  0  0  0  0
   -0.3038   -0.5413    1.0577 C   0  0  0  0  0  0  0  0  0  0  0  0
   -0.7825    0.8836    0.8480 C   0  0  0  0  0  0  0  0  0  0  0  0
   -2.2112    1.0926    1.0426 C   0  0  0  0  0  0  0  0  0  0  0  0
   -2.9799    0.2322    0.5229 O   0  0  0  0  0  0  0  0  0  0  0  0
    3.5132   -2.0673   -2.1356 H   0  0  0  0  0  0  0  0  0  0  0  0
    0.7260    1.3967   -1.5408 H   0  0  0  0  0  0  0  0  0  0  0  0
    1.4859    0.9812   -0.0528 H   0  0  0  0  0  0  0  0  0  0  0  0
   -1.1663   -0.5027   -0.9140 H   0  0  0  0  0  0  0  0  0  0  0  0
    0.6715   -0.6019    1.5454 H   0  0  0  0  0  0  0  0  0  0  0  0
   -1.0435   -1.2634    1.4089 H   0  0  0  0  0  0  0  0  0  0  0  0
   -0.1397    1.6618    1.2730 H   0  0  0  0  0  0  0  0  0  0  0  0
   -2.7142    1.8931    1.5825 H   0  0  0  0  0  0  0  0  0  0  0  0
  1  2  3  0
  2  3  1  0
  3  4  1  0
  4  5  1  0
  5  6  1  0
  6  7  1  0
  7  8  2  0
  6  4  1  0
  1  9  1  0
  3 10  1  0
  3 11  1  0
  4 12  1  0
  5 13  1  0
  5 14  1  0
  6 15  1  0
  7 16  1  0
M  END
