
     RDKit          3D

 16 16  0  0  0  0  0  0  0  0999 V2000
    2.7544   -1.2600    0.0854 C   0  0  0  0  0  0  0  0  0  0  0  0
    1.7897   -0.5243    0.1400 C   0  0  0  0  0  0  0  0  0  0  0  0
    0.6147    0.3498    0.1870 C   0  0  0  0  0  0  0  0  0  0  0  0
    0.8595    1.6722   -0.1413 O   0  0  0  0  0  0  0  0  0  0  0  0
   -0.3839    0.1573    1.2982 C   0  0  0  0  0  0  0  0  0  0  0  0
   -0.7482   -0.2412   -0.0923 C   0  0  0  0  0  0  0  0  0  0  0  0
   -1.6339    0.6738   -0.9104 C   0  0  0  0  0  0  0  0  0  0  0  0
   -0.7735   -1.6040   -0.3463 O   0  0  0  0  0  0  0  0  0  0  0  0
    3.6095   -1.9006    0.0356 H   0  0  0  0  0  0  0  0  0  0  0  0
    1.0342    1.8208   -1.0845 H   0  0  0  0  0  0  0  0  0  0  0  0
   -0.1206   -0.6441    2.0101 H   0  0  0  0  0  0  0  0  0  0  0  0
   -0.9402    1.0188    1.6991 H   0  0  0  0  0  0  0  0  0  0  0  0
   -2.5167    0.1188   -1.2450 H   0  0  0  0  0  0  0  0  0  0  0  0
   -1.0586    0.9696   -1.8079 H   0  0  0  0  0  0  0  0  0  0  0  0
   -1.9329    1.5243   -0.2751 H   0  0  0  0  0  0  0  0  0  0  0  0
   -0.5532   -2.1312    0.4472 H   0  0  0  0  0  0  0  0  0  0  0  0
  1  2  3  0
  2  3  1  0
  3  4  1  0
  3  5  1  0
  5  6  1  0
  6  7  1  0
  6  8  1  0
  6  3  1  0
  1  9  1  0
  4 10  1  0
  5 11  1  0
  5 12  1  0
  7 13  1  0
  7 14  1  0
  7 15  1  0
  8 16  1  0
M  END
