
     RDKit          3D

 18 18  0  0  0  0  0  0  0  0999 V2000
    2.4563    1.8247   -1.1273 C   0  0  0  0  0  0  0  0  0  0  0  0
    1.6492    1.0753   -0.6349 C   0  0  0  0  0  0  0  0  0  0  0  0
    0.6904    0.1976   -0.0287 C   0  0  0  0  0  0  0  0  0  0  0  0
   -0.6265    0.3135   -0.0896 C   0  0  0  0  0  0  0  0  0  0  0  0
   -1.2983    1.4236   -0.8316 C   0  0  0  0  0  0  0  0  0  0  0  0
   -1.2793   -0.7933    0.6701 C   0  0  0  0  0  0  0  0  0  0  0  0
   -0.2097   -1.8633    0.6002 C   0  0  0  0  0  0  0  0  0  0  0  0
    1.0484   -1.0040    0.7767 C   0  0  0  0  0  0  0  0  0  0  0  0
    3.1609    2.4886   -1.5791 H   0  0  0  0  0  0  0  0  0  0  0  0
   -2.2165    1.6696   -0.2372 H   0  0  0  0  0  0  0  0  0  0  0  0
   -0.6879    2.3180   -0.9037 H   0  0  0  0  0  0  0  0  0  0  0  0
   -1.6453    1.1046   -1.8286 H   0  0  0  0  0  0  0  0  0  0  0  0
   -2.2292   -1.1120    0.2196 H   0  0  0  0  0  0  0  0  0  0  0  0
   -1.3828   -0.4483    1.7156 H   0  0  0  0  0  0  0  0  0  0  0  0
   -0.2202   -2.3333   -0.4019 H   0  0  0  0  0  0  0  0  0  0  0  0
   -0.2508   -2.5804    1.4232 H   0  0  0  0  0  0  0  0  0  0  0  0
    1.9489   -1.5177    0.4033 H   0  0  0  0  0  0  0  0  0  0  0  0
    1.0925   -0.7632    1.8537 H   0  0  0  0  0  0  0  0  0  0  0  0
  1  2  3  0
  2  3  1  0
  3  4  2  0
  4  5  1  0
  4  6  1  0
  6  7  1  0
  7  8  1  0
  8  3  1  0
  1  9  1  0
  5 10  1  0
  5 11  1  0
  5 12  1  0
  6 13  1  0
  6 14  1  0
  7 15  1  0
  7 16  1  0
  8 17  1  0
  8 18  1  0
M  END
