
     RDKit          3D

 16 15  0  0  0  0  0  0  0  0999 V2000
    2.3219   -3.2160   -0.1302 C   0  0  0  0  0  0  0  0  0  0  0  0
    1.8566   -1.5985   -0.2189 C   0  0  0  0  0  0  0  0  0  0  0  0
    1.4864   -0.2722   -0.2928 C   0  0  0  0  0  0  0  0  0  0  0  0
    1.2997    0.4341   -0.3330 C   0  0  0  0  0  0  0  0  0  0  0  0
    0.8967    1.9159   -0.3931 C   0  0  0  0  0  0  0  0  0  0  0  0
   -0.2071    1.6844    0.8348 O   0  0  0  0  0  0  0  0  0  0  0  0
   -1.2809    1.0022    0.5293 C   0  0  0  0  0  0  0  0  0  0  0  0
   -1.4810   -0.4771    0.5519 C   0  0  0  0  0  0  0  0  0  0  0  0
    2.6726   -4.4884   -0.0772 H   0  0  0  0  0  0  0  0  0  0  0  0
   -0.1650    2.0149   -1.0366 H   0  0  0  0  0  0  0  0  0  0  0  0
    1.2054    2.7319    0.0400 H   0  0  0  0  0  0  0  0  0  0  0  0
   -1.6533    1.5538   -0.4531 H   0  0  0  0  0  0  0  0  0  0  0  0
   -2.1386    1.5187    1.2644 H   0  0  0  0  0  0  0  0  0  0  0  0
   -2.2676   -0.7375    1.4209 H   0  0  0  0  0  0  0  0  0  0  0  0
   -0.6513   -1.1147    0.8477 H   0  0  0  0  0  0  0  0  0  0  0  0
   -1.8945   -0.9514   -0.3743 H   0  0  0  0  0  0  0  0  0  0  0  0
  1  2  3  0
  2  3  1  0
  3  4  3  0
  4  5  1  0
  5  6  1  0
  6  7  1  0
  7  8  1  0
  1  9  1  0
  5 10  1  0
  5 11  1  0
  7 12  1  0
  7 13  1  0
  8 14  1  0
  8 15  1  0
  8 16  1  0
M  END
