
     RDKit          3D

 20 20  0  0  0  0  0  0  0  0999 V2000
   -3.4092   -0.6390    1.4090 C   0  0  0  0  0  0  0  0  0  0  0  0
   -2.3539   -0.9873    0.9395 C   0  0  0  0  0  0  0  0  0  0  0  0
   -1.0618   -1.4049    0.3858 C   0  0  0  0  0  0  0  0  0  0  0  0
   -0.8197   -0.5462   -0.8231 C   0  0  0  0  0  0  0  0  0  0  0  0
   -0.7601    0.9447   -0.5746 C   0  0  0  0  0  0  0  0  0  0  0  0
    0.4500    0.1626   -1.0400 C   0  0  0  0  0  0  0  0  0  0  0  0
    1.5684    0.1394   -0.0559 C   0  0  0  0  0  0  0  0  0  0  0  0
    2.7015    0.9700   -0.6071 C   0  0  0  0  0  0  0  0  0  0  0  0
   -4.3592   -0.3450    1.8325 H   0  0  0  0  0  0  0  0  0  0  0  0
   -1.1479   -2.4756    0.1049 H   0  0  0  0  0  0  0  0  0  0  0  0
   -0.2491   -1.2889    1.1531 H   0  0  0  0  0  0  0  0  0  0  0  0
   -1.3912   -0.8612   -1.7236 H   0  0  0  0  0  0  0  0  0  0  0  0
   -1.2911    1.5947   -1.3214 H   0  0  0  0  0  0  0  0  0  0  0  0
   -0.7808    1.3446    0.4471 H   0  0  0  0  0  0  0  0  0  0  0  0
    0.7403    0.3670   -2.0748 H   0  0  0  0  0  0  0  0  0  0  0  0
    1.2663    0.4702    0.9649 H   0  0  0  0  0  0  0  0  0  0  0  0
    1.8862   -0.9262    0.0780 H   0  0  0  0  0  0  0  0  0  0  0  0
    2.8424    1.8783    0.0140 H   0  0  0  0  0  0  0  0  0  0  0  0
    2.5256    1.2283   -1.6751 H   0  0  0  0  0  0  0  0  0  0  0  0
    3.6433    0.3745   -0.4758 H   0  0  0  0  0  0  0  0  0  0  0  0
  1  2  3  0
  2  3  1  0
  3  4  1  0
  4  5  1  0
  5  6  1  0
  6  7  1  0
  7  8  1  0
  6  4  1  0
  1  9  1  0
  3 10  1  0
  3 11  1  0
  4 12  1  0
  5 13  1  0
  5 14  1  0
  6 15  1  0
  7 16  1  0
  7 17  1  0
  8 18  1  0
  8 19  1  0
  8 20  1  0
M  END
