
     RDKit          3D

 21 21  0  0  0  0  0  0  0  0999 V2000
    2.9760    2.0971    0.1489 C   0  0  0  0  0  0  0  0  0  0  0  0
    2.1713    1.4891    0.8048 C   0  0  0  0  0  0  0  0  0  0  0  0
    1.1921    0.7539    1.5713 C   0  0  0  0  0  0  0  0  0  0  0  0
    0.6848   -0.4714    0.8761 C   0  0  0  0  0  0  0  0  0  0  0  0
   -0.2509   -1.0783    1.7319 O   0  0  0  0  0  0  0  0  0  0  0  0
    0.0010   -0.1978   -0.4292 C   0  0  0  0  0  0  0  0  0  0  0  0
   -0.5035   -1.4798   -1.1086 C   0  0  0  0  0  0  0  0  0  0  0  0
   -1.4435   -0.4019   -0.6023 C   0  0  0  0  0  0  0  0  0  0  0  0
   -2.1818    0.3286   -1.6991 C   0  0  0  0  0  0  0  0  0  0  0  0
    3.6977    2.6431   -0.4342 H   0  0  0  0  0  0  0  0  0  0  0  0
    0.3545    1.4582    1.8461 H   0  0  0  0  0  0  0  0  0  0  0  0
    1.6215    0.4292    2.5428 H   0  0  0  0  0  0  0  0  0  0  0  0
    1.5401   -1.1395    0.6955 H   0  0  0  0  0  0  0  0  0  0  0  0
   -0.2548   -2.0672    1.5680 H   0  0  0  0  0  0  0  0  0  0  0  0
    0.4702    0.5553   -1.1078 H   0  0  0  0  0  0  0  0  0  0  0  0
   -0.3387   -1.5868   -2.1942 H   0  0  0  0  0  0  0  0  0  0  0  0
   -0.5426   -2.4061   -0.5300 H   0  0  0  0  0  0  0  0  0  0  0  0
   -2.0587   -0.5986    0.2864 H   0  0  0  0  0  0  0  0  0  0  0  0
   -3.2507    0.0458   -1.7283 H   0  0  0  0  0  0  0  0  0  0  0  0
   -2.1581    1.4235   -1.4437 H   0  0  0  0  0  0  0  0  0  0  0  0
   -1.7258    0.2038   -2.6834 H   0  0  0  0  0  0  0  0  0  0  0  0
  1  2  3  0
  2  3  1  0
  3  4  1  0
  4  5  1  0
  4  6  1  0
  6  7  1  0
  7  8  1  0
  8  9  1  0
  8  6  1  0
  1 10  1  0
  3 11  1  0
  3 12  1  0
  4 13  1  0
  5 14  1  0
  6 15  1  0
  7 16  1  0
  7 17  1  0
  8 18  1  0
  9 19  1  0
  9 20  1  0
  9 21  1  0
M  END
