
     RDKit          3D

 23 23  0  0  0  0  0  0  0  0999 V2000
   -2.8846   -2.3348   -0.3789 C   0  0  0  0  0  0  0  0  0  0  0  0
   -1.9146   -1.6574   -0.0751 C   0  0  0  0  0  0  0  0  0  0  0  0
   -0.7368   -0.8633    0.2788 C   0  0  0  0  0  0  0  0  0  0  0  0
    0.5617   -1.6415    0.2801 C   0  0  0  0  0  0  0  0  0  0  0  0
    1.1735   -0.4875   -0.5270 C   0  0  0  0  0  0  0  0  0  0  0  0
    2.0628    0.3087    0.3374 C   0  0  0  0  0  0  0  0  0  0  0  0
   -0.1860   -0.0571   -0.8679 C   0  0  0  0  0  0  0  0  0  0  0  0
   -0.5758    1.3594   -0.9451 C   0  0  0  0  0  0  0  0  0  0  0  0
   -0.2194    2.2358    0.1940 C   0  0  0  0  0  0  0  0  0  0  0  0
   -3.7257   -2.9145   -0.6589 H   0  0  0  0  0  0  0  0  0  0  0  0
   -0.8832   -0.3400    1.2239 H   0  0  0  0  0  0  0  0  0  0  0  0
    0.4347   -2.5548   -0.3327 H   0  0  0  0  0  0  0  0  0  0  0  0
    0.9844   -1.7711    1.2756 H   0  0  0  0  0  0  0  0  0  0  0  0
    1.7688   -0.9348   -1.3782 H   0  0  0  0  0  0  0  0  0  0  0  0
    1.6047    0.6638    1.2729 H   0  0  0  0  0  0  0  0  0  0  0  0
    2.8984   -0.3767    0.6785 H   0  0  0  0  0  0  0  0  0  0  0  0
    2.6150    1.1184   -0.2136 H   0  0  0  0  0  0  0  0  0  0  0  0
   -0.5119   -0.5679   -1.8282 H   0  0  0  0  0  0  0  0  0  0  0  0
   -1.7028    1.3910   -1.0452 H   0  0  0  0  0  0  0  0  0  0  0  0
   -0.1990    1.8173   -1.8732 H   0  0  0  0  0  0  0  0  0  0  0  0
   -0.8771    3.1550    0.1169 H   0  0  0  0  0  0  0  0  0  0  0  0
    0.8102    2.6436    0.1774 H   0  0  0  0  0  0  0  0  0  0  0  0
   -0.4974    1.8083    1.1921 H   0  0  0  0  0  0  0  0  0  0  0  0
  1  2  3  0
  2  3  1  0
  3  4  1  0
  4  5  1  0
  5  6  1  0
  5  7  1  0
  7  8  1  0
  8  9  1  0
  7  3  1  0
  1 10  1  0
  3 11  1  0
  4 12  1  0
  4 13  1  0
  5 14  1  0
  6 15  1  0
  6 16  1  0
  6 17  1  0
  7 18  1  0
  8 19  1  0
  8 20  1  0
  9 21  1  0
  9 22  1  0
  9 23  1  0
M  END
