
     RDKit          3D

 19 19  0  0  0  0  0  0  0  0999 V2000
    4.5147   -0.0118   -0.5206 C   0  0  0  0  0  0  0  0  0  0  0  0
    3.2645   -0.0353   -0.6418 C   0  0  0  0  0  0  0  0  0  0  0  0
    1.8684   -0.0781   -0.7803 C   0  0  0  0  0  0  0  0  0  0  0  0
    0.8415   -0.1055   -0.8978 C   0  0  0  0  0  0  0  0  0  0  0  0
   -0.6668   -0.1677   -1.0597 C   0  0  0  0  0  0  0  0  0  0  0  0
   -1.6872    0.5720   -0.4134 C   0  0  0  0  0  0  0  0  0  0  0  0
   -1.3176    1.6143    0.5962 C   0  0  0  0  0  0  0  0  0  0  0  0
   -1.5119   -0.8531   -0.1482 C   0  0  0  0  0  0  0  0  0  0  0  0
   -0.6657   -1.3509    1.0862 C   0  0  0  0  0  0  0  0  0  0  0  0
    5.6658   -0.0046   -0.3968 H   0  0  0  0  0  0  0  0  0  0  0  0
   -0.8391   -0.2233   -2.2404 H   0  0  0  0  0  0  0  0  0  0  0  0
   -2.5848    0.9519   -1.0767 H   0  0  0  0  0  0  0  0  0  0  0  0
   -1.4207    1.2465    1.6194 H   0  0  0  0  0  0  0  0  0  0  0  0
   -1.8115    2.6029    0.4645 H   0  0  0  0  0  0  0  0  0  0  0  0
   -0.2051    1.8742    0.3961 H   0  0  0  0  0  0  0  0  0  0  0  0
   -2.1231   -1.6811   -0.5690 H   0  0  0  0  0  0  0  0  0  0  0  0
    0.1994   -1.8818    0.5623 H   0  0  0  0  0  0  0  0  0  0  0  0
   -0.3010   -0.4454    1.5819 H   0  0  0  0  0  0  0  0  0  0  0  0
   -1.2197   -2.0232    1.6719 H   0  0  0  0  0  0  0  0  0  0  0  0
  1  2  3  0
  2  3  1  0
  3  4  3  0
  4  5  1  0
  5  6  1  0
  6  7  1  0
  6  8  1  0
  8  9  1  0
  8  5  1  0
  1 10  1  0
  5 11  1  0
  6 12  1  0
  7 13  1  0
  7 14  1  0
  7 15  1  0
  8 16  1  0
  9 17  1  0
  9 18  1  0
  9 19  1  0
M  END
