
     RDKit          3D

 15 18  0  0  0  0  0  0  0  0999 V2000
    2.6639    0.5685   -0.2438 C   0  0  0  0  0  0  0  0  0  0  0  0
    1.4933    0.3807    0.1374 C   0  0  0  0  0  0  0  0  0  0  0  0
    0.1830    0.1640    0.5480 C   0  0  0  0  0  0  0  0  0  0  0  0
   -0.8654   -0.7555   -0.4015 C   0  0  0  0  0  0  0  0  0  0  0  0
    0.2013   -1.2603   -0.1722 C   0  0  0  0  0  0  0  0  0  0  0  0
   -0.2554    0.0715   -0.9940 C   0  0  0  0  0  0  0  0  0  0  0  0
   -0.8362    0.7209    0.3098 C   0  0  0  0  0  0  0  0  0  0  0  0
   -2.0935    1.1516    0.3810 O   0  0  0  0  0  0  0  0  0  0  0  0
   -0.4257   -0.6063    1.1788 C   0  0  0  0  0  0  0  0  0  0  0  0
    3.6910    0.7471   -0.5671 H   0  0  0  0  0  0  0  0  0  0  0  0
   -1.8903   -0.8744   -0.0451 H   0  0  0  0  0  0  0  0  0  0  0  0
    1.1881   -1.5652   -0.1906 H   0  0  0  0  0  0  0  0  0  0  0  0
    0.4881    0.5537   -1.5803 H   0  0  0  0  0  0  0  0  0  0  0  0
   -2.2525    1.8425    1.0927 H   0  0  0  0  0  0  0  0  0  0  0  0
   -1.2898   -1.1388    1.5741 H   0  0  0  0  0  0  0  0  0  0  0  0
  1  2  3  0
  2  3  1  0
  3  4  1  0
  4  5  1  0
  5  6  1  0
  6  7  1  0
  7  8  1  0
  7  9  1  0
  7  3  1  0
  9  3  1  0
  6  4  1  0
  9  5  1  0
  1 10  1  0
  4 11  1  0
  5 12  1  0
  6 13  1  0
  8 14  1  0
  9 15  1  0
M  END
