
     RDKit          3D

 17 18  0  0  0  0  0  0  0  0999 V2000
   -0.1555   -1.3335    2.4436 C   0  0  0  0  0  0  0  0  0  0  0  0
    0.3620   -1.1401    1.5455 C   0  0  0  0  0  0  0  0  0  0  0  0
    1.1155   -0.8804    0.2813 C   0  0  0  0  0  0  0  0  0  0  0  0
    1.5578    0.5163    0.3126 C   0  0  0  0  0  0  0  0  0  0  0  0
    0.7584    1.3322   -0.2388 C   0  0  0  0  0  0  0  0  0  0  0  0
   -0.4293    0.6457   -0.8035 C   0  0  0  0  0  0  0  0  0  0  0  0
   -1.6203    1.0474   -1.3058 C   0  0  0  0  0  0  0  0  0  0  0  0
   -1.5934    0.7185    0.1380 O   0  0  0  0  0  0  0  0  0  0  0  0
    0.0298   -0.8133   -0.8138 C   0  0  0  0  0  0  0  0  0  0  0  0
   -0.7564   -1.5556    3.5267 H   0  0  0  0  0  0  0  0  0  0  0  0
    1.8653   -1.6190    0.0562 H   0  0  0  0  0  0  0  0  0  0  0  0
    2.5420    0.8912    0.7664 H   0  0  0  0  0  0  0  0  0  0  0  0
    0.8874    2.4483   -0.2849 H   0  0  0  0  0  0  0  0  0  0  0  0
   -2.0238    2.0599   -1.3665 H   0  0  0  0  0  0  0  0  0  0  0  0
   -2.2644    0.3145   -1.8952 H   0  0  0  0  0  0  0  0  0  0  0  0
    0.4897   -1.0943   -1.7899 H   0  0  0  0  0  0  0  0  0  0  0  0
   -0.7647   -1.5377   -0.5719 H   0  0  0  0  0  0  0  0  0  0  0  0
  1  2  3  0
  2  3  1  0
  3  4  1  0
  4  5  2  0
  5  6  1  0
  6  7  1  0
  7  8  1  0
  6  9  1  0
  9  3  1  0
  8  6  1  0
  1 10  1  0
  3 11  1  0
  4 12  1  0
  5 13  1  0
  7 14  1  0
  7 15  1  0
  9 16  1  0
  9 17  1  0
M  END
