
     RDKit          3D

 14 15  0  0  0  0  0  0  0  0999 V2000
    2.1967   -2.2441    0.0606 C   0  0  0  0  0  0  0  0  0  0  0  0
    1.4726   -1.3823    0.0924 C   0  0  0  0  0  0  0  0  0  0  0  0
    0.5477   -0.2478    0.1469 C   0  0  0  0  0  0  0  0  0  0  0  0
    0.5046    0.8190    0.8421 C   0  0  0  0  0  0  0  0  0  0  0  0
   -0.7046    1.5833    0.4253 C   0  0  0  0  0  0  0  0  0  0  0  0
   -1.9704    0.8280    0.7666 O   0  0  0  0  0  0  0  0  0  0  0  0
   -1.4473    0.8272   -0.5176 C   0  0  0  0  0  0  0  0  0  0  0  0
   -0.6165   -0.3402   -0.8632 C   0  0  0  0  0  0  0  0  0  0  0  0
    2.9549   -3.1286    0.0218 H   0  0  0  0  0  0  0  0  0  0  0  0
    1.2257    1.0974    1.5829 H   0  0  0  0  0  0  0  0  0  0  0  0
   -0.8737    2.6061    0.8123 H   0  0  0  0  0  0  0  0  0  0  0  0
   -2.0314    1.2424   -1.3711 H   0  0  0  0  0  0  0  0  0  0  0  0
   -1.1063   -1.3218   -0.6767 H   0  0  0  0  0  0  0  0  0  0  0  0
   -0.1519   -0.3385   -1.8724 H   0  0  0  0  0  0  0  0  0  0  0  0
  1  2  3  0
  2  3  1  0
  3  4  2  0
  4  5  1  0
  5  6  1  0
  6  7  1  0
  7  8  1  0
  8  3  1  0
  7  5  1  0
  1  9  1  0
  4 10  1  0
  5 11  1  0
  7 12  1  0
  8 13  1  0
  8 14  1  0
M  END
