
     RDKit          3D

 23 23  0  0  0  0  0  0  0  0999 V2000
   -0.7009    2.6139   -0.6556 C   0  0  0  0  0  0  0  0  0  0  0  0
   -0.5476    1.4258   -0.4235 C   0  0  0  0  0  0  0  0  0  0  0  0
   -0.3481    0.0096   -0.1659 C   0  0  0  0  0  0  0  0  0  0  0  0
    1.0413   -0.3815    0.1669 C   0  0  0  0  0  0  0  0  0  0  0  0
    2.0548   -0.0827   -0.8819 C   0  0  0  0  0  0  0  0  0  0  0  0
    1.4554    0.2923    1.4501 C   0  0  0  0  0  0  0  0  0  0  0  0
   -1.1140   -0.8683   -1.1071 C   0  0  0  0  0  0  0  0  0  0  0  0
   -2.2690   -0.8653   -0.1287 C   0  0  0  0  0  0  0  0  0  0  0  0
   -1.3008   -0.4321    0.9459 C   0  0  0  0  0  0  0  0  0  0  0  0
   -0.8223    3.6444   -0.8713 H   0  0  0  0  0  0  0  0  0  0  0  0
    1.0555   -1.4910    0.3421 H   0  0  0  0  0  0  0  0  0  0  0  0
    1.6867   -0.2248   -1.9163 H   0  0  0  0  0  0  0  0  0  0  0  0
    2.5298    0.9176   -0.7768 H   0  0  0  0  0  0  0  0  0  0  0  0
    2.9093   -0.8136   -0.7768 H   0  0  0  0  0  0  0  0  0  0  0  0
    0.5569    0.4996    2.0542 H   0  0  0  0  0  0  0  0  0  0  0  0
    2.0694    1.2056    1.2671 H   0  0  0  0  0  0  0  0  0  0  0  0
    2.1083   -0.4019    2.0120 H   0  0  0  0  0  0  0  0  0  0  0  0
   -0.6958   -1.8357   -1.3602 H   0  0  0  0  0  0  0  0  0  0  0  0
   -1.4248   -0.3194   -2.0257 H   0  0  0  0  0  0  0  0  0  0  0  0
   -2.6322   -1.8854    0.0342 H   0  0  0  0  0  0  0  0  0  0  0  0
   -3.0586   -0.1192   -0.3385 H   0  0  0  0  0  0  0  0  0  0  0  0
   -0.9202   -1.2700    1.5541 H   0  0  0  0  0  0  0  0  0  0  0  0
   -1.6331    0.3823    1.6017 H   0  0  0  0  0  0  0  0  0  0  0  0
  1  2  3  0
  2  3  1  0
  3  4  1  0
  4  5  1  0
  4  6  1  0
  3  7  1  0
  7  8  1  0
  8  9  1  0
  9  3  1  0
  1 10  1  0
  4 11  1  0
  5 12  1  0
  5 13  1  0
  5 14  1  0
  6 15  1  0
  6 16  1  0
  6 17  1  0
  7 18  1  0
  7 19  1  0
  8 20  1  0
  8 21  1  0
  9 22  1  0
  9 23  1  0
M  END
