
     RDKit          3D

 19 19  0  0  0  0  0  0  0  0999 V2000
    2.8678    1.3464   -0.9960 C   0  0  0  0  0  0  0  0  0  0  0  0
    1.7652    0.7325   -0.9249 C   0  0  0  0  0  0  0  0  0  0  0  0
    0.5326    0.0178   -0.8436 C   0  0  0  0  0  0  0  0  0  0  0  0
   -0.1020   -0.4800   -1.8818 C   0  0  0  0  0  0  0  0  0  0  0  0
   -1.3331   -1.1477   -1.4429 C   0  0  0  0  0  0  0  0  0  0  0  0
   -1.1596   -1.3199    0.0425 C   0  0  0  0  0  0  0  0  0  0  0  0
   -0.1884   -0.2782    0.4106 C   0  0  0  0  0  0  0  0  0  0  0  0
   -0.6734    0.9340    0.8729 O   0  0  0  0  0  0  0  0  0  0  0  0
   -0.0875    1.2939    2.0886 C   0  0  0  0  0  0  0  0  0  0  0  0
    3.7866    1.8395   -1.0463 H   0  0  0  0  0  0  0  0  0  0  0  0
    0.2482   -0.4062   -2.9435 H   0  0  0  0  0  0  0  0  0  0  0  0
   -1.3631   -2.1247   -1.9729 H   0  0  0  0  0  0  0  0  0  0  0  0
   -2.2416   -0.5465   -1.6849 H   0  0  0  0  0  0  0  0  0  0  0  0
   -2.1795   -1.2434    0.4787 H   0  0  0  0  0  0  0  0  0  0  0  0
   -0.7087   -2.3106    0.2666 H   0  0  0  0  0  0  0  0  0  0  0  0
    0.6232   -0.6087    1.1417 H   0  0  0  0  0  0  0  0  0  0  0  0
   -0.2634    0.5794    2.9108 H   0  0  0  0  0  0  0  0  0  0  0  0
   -0.5353    2.2572    2.3621 H   0  0  0  0  0  0  0  0  0  0  0  0
    1.0120    1.4653    2.0266 H   0  0  0  0  0  0  0  0  0  0  0  0
  1  2  3  0
  2  3  1  0
  3  4  2  0
  4  5  1  0
  5  6  1  0
  6  7  1  0
  7  8  1  0
  8  9  1  0
  7  3  1  0
  1 10  1  0
  4 11  1  0
  5 12  1  0
  5 13  1  0
  6 14  1  0
  6 15  1  0
  7 16  1  0
  9 17  1  0
  9 18  1  0
  9 19  1  0
M  END
