
     RDKit          3D

 16 17  0  0  0  0  0  0  0  0999 V2000
   -1.9818    2.1268    0.7450 C   0  0  0  0  0  0  0  0  0  0  0  0
   -1.4023    1.3968    0.4739 C   0  0  0  0  0  0  0  0  0  0  0  0
   -0.5010    0.2646    0.0394 C   0  0  0  0  0  0  0  0  0  0  0  0
    0.0640   -0.6237    1.0855 C   0  0  0  0  0  0  0  0  0  0  0  0
    1.0881   -0.8605   -0.0493 C   0  0  0  0  0  0  0  0  0  0  0  0
    0.2263   -1.3469   -1.1503 C   0  0  0  0  0  0  0  0  0  0  0  0
   -0.9319   -0.5227   -0.9666 O   0  0  0  0  0  0  0  0  0  0  0  0
    0.9012    0.6570   -0.3134 C   0  0  0  0  0  0  0  0  0  0  0  0
   -2.6662    2.9653    1.0728 H   0  0  0  0  0  0  0  0  0  0  0  0
    0.5777   -0.1331    1.9414 H   0  0  0  0  0  0  0  0  0  0  0  0
   -0.4918   -1.5410    1.3446 H   0  0  0  0  0  0  0  0  0  0  0  0
    2.0240   -1.2333    0.1739 H   0  0  0  0  0  0  0  0  0  0  0  0
    0.6097   -0.9139   -2.1352 H   0  0  0  0  0  0  0  0  0  0  0  0
    0.0263   -2.3879   -1.2463 H   0  0  0  0  0  0  0  0  0  0  0  0
    1.4208    1.3178    0.3835 H   0  0  0  0  0  0  0  0  0  0  0  0
    1.0368    0.8348   -1.3988 H   0  0  0  0  0  0  0  0  0  0  0  0
  1  2  3  0
  2  3  1  0
  3  4  1  0
  4  5  1  0
  5  6  1  0
  6  7  1  0
  5  8  1  0
  7  3  1  0
  8  3  1  0
  1  9  1  0
  4 10  1  0
  4 11  1  0
  5 12  1  0
  6 13  1  0
  6 14  1  0
  8 15  1  0
  8 16  1  0
M  END
