
     RDKit          3D

 16 17  0  0  0  0  0  0  0  0999 V2000
    2.1918   -1.5917   -1.6142 C   0  0  0  0  0  0  0  0  0  0  0  0
    1.4077   -1.1086   -0.8333 C   0  0  0  0  0  0  0  0  0  0  0  0
    0.4525   -0.5492    0.1099 C   0  0  0  0  0  0  0  0  0  0  0  0
   -0.9697   -0.6552   -0.3332 C   0  0  0  0  0  0  0  0  0  0  0  0
   -1.6298    0.4772    0.4486 C   0  0  0  0  0  0  0  0  0  0  0  0
   -1.1222    0.5688    1.8184 O   0  0  0  0  0  0  0  0  0  0  0  0
   -0.6945    1.4410    0.6993 C   0  0  0  0  0  0  0  0  0  0  0  0
    0.6561    0.9470    0.2108 C   0  0  0  0  0  0  0  0  0  0  0  0
    2.8931   -2.0067   -2.2900 H   0  0  0  0  0  0  0  0  0  0  0  0
    0.5533   -0.9545    1.1313 H   0  0  0  0  0  0  0  0  0  0  0  0
   -1.1340   -0.4852   -1.3968 H   0  0  0  0  0  0  0  0  0  0  0  0
   -1.4658   -1.5936   -0.0291 H   0  0  0  0  0  0  0  0  0  0  0  0
   -2.7168    0.4423    0.4418 H   0  0  0  0  0  0  0  0  0  0  0  0
   -0.7545    2.5002    0.9622 H   0  0  0  0  0  0  0  0  0  0  0  0
    0.9320    1.4000   -0.7506 H   0  0  0  0  0  0  0  0  0  0  0  0
    1.4009    1.1682    1.0023 H   0  0  0  0  0  0  0  0  0  0  0  0
  1  2  3  0
  2  3  1  0
  3  4  1  0
  4  5  1  0
  5  6  1  0
  6  7  1  0
  7  8  1  0
  8  3  1  0
  7  5  1  0
  1  9  1  0
  3 10  1  0
  4 11  1  0
  4 12  1  0
  5 13  1  0
  7 14  1  0
  8 15  1  0
  8 16  1  0
M  END
