
     RDKit          3D

 17 17  0  0  0  0  0  0  0  0999 V2000
    2.9961   -0.4664    0.4208 C   0  0  0  0  0  0  0  0  0  0  0  0
    1.8608   -0.0962    0.3501 C   0  0  0  0  0  0  0  0  0  0  0  0
    0.5025    0.3537    0.2482 C   0  0  0  0  0  0  0  0  0  0  0  0
    0.2864    1.8026    0.2620 C   0  0  0  0  0  0  0  0  0  0  0  0
    0.0417    2.3792    1.3122 O   0  0  0  0  0  0  0  0  0  0  0  0
   -0.2072   -0.2656   -0.9639 C   0  0  0  0  0  0  0  0  0  0  0  0
   -1.4681   -0.2611   -0.0897 C   0  0  0  0  0  0  0  0  0  0  0  0
   -2.2891   -1.3445   -0.2505 O   0  0  0  0  0  0  0  0  0  0  0  0
   -0.5102   -0.4245    1.1006 C   0  0  0  0  0  0  0  0  0  0  0  0
    4.0160   -0.7922    0.4905 H   0  0  0  0  0  0  0  0  0  0  0  0
    0.3433    2.3661   -0.6608 H   0  0  0  0  0  0  0  0  0  0  0  0
   -0.2622    0.4163   -1.8333 H   0  0  0  0  0  0  0  0  0  0  0  0
    0.1507   -1.2825   -1.2178 H   0  0  0  0  0  0  0  0  0  0  0  0
   -1.9360    0.7384   -0.0984 H   0  0  0  0  0  0  0  0  0  0  0  0
   -2.4751   -1.7259    0.6661 H   0  0  0  0  0  0  0  0  0  0  0  0
   -0.8250    0.0898    2.0110 H   0  0  0  0  0  0  0  0  0  0  0  0
   -0.2245   -1.4872    1.1954 H   0  0  0  0  0  0  0  0  0  0  0  0
  1  2  3  0
  2  3  1  0
  3  4  1  0
  4  5  2  0
  3  6  1  0
  6  7  1  0
  7  8  1  0
  7  9  1  0
  9  3  1  0
  1 10  1  0
  4 11  1  0
  6 12  1  0
  6 13  1  0
  7 14  1  0
  8 15  1  0
  9 16  1  0
  9 17  1  0
M  END
