
     RDKit          3D

 19 19  0  0  0  0  0  0  0  0999 V2000
    1.8414    1.9598   -1.1225 C   0  0  0  0  0  0  0  0  0  0  0  0
    0.9824    1.3439   -0.5743 C   0  0  0  0  0  0  0  0  0  0  0  0
   -0.1005    0.5916    0.0971 C   0  0  0  0  0  0  0  0  0  0  0  0
   -1.4977    0.8415   -0.4156 C   0  0  0  0  0  0  0  0  0  0  0  0
   -2.4627   -0.0126    0.4004 C   0  0  0  0  0  0  0  0  0  0  0  0
    0.0127    0.2664    1.4352 O   0  0  0  0  0  0  0  0  0  0  0  0
    0.2343   -0.7828    0.4143 C   0  0  0  0  0  0  0  0  0  0  0  0
    1.6560   -1.2675    0.5364 C   0  0  0  0  0  0  0  0  0  0  0  0
    1.8769   -1.8209    1.8117 O   0  0  0  0  0  0  0  0  0  0  0  0
    2.6292    2.5043   -1.6285 H   0  0  0  0  0  0  0  0  0  0  0  0
   -1.7650    1.8916   -0.2872 H   0  0  0  0  0  0  0  0  0  0  0  0
   -1.5853    0.5007   -1.4768 H   0  0  0  0  0  0  0  0  0  0  0  0
   -3.5083    0.3616    0.3243 H   0  0  0  0  0  0  0  0  0  0  0  0
   -2.1994    0.0556    1.4787 H   0  0  0  0  0  0  0  0  0  0  0  0
   -2.4208   -1.0417    0.0150 H   0  0  0  0  0  0  0  0  0  0  0  0
   -0.5404   -1.5553    0.4582 H   0  0  0  0  0  0  0  0  0  0  0  0
    2.3997   -0.4531    0.3301 H   0  0  0  0  0  0  0  0  0  0  0  0
    1.8703   -2.0860   -0.1805 H   0  0  0  0  0  0  0  0  0  0  0  0
    2.5770   -1.2972    2.3067 H   0  0  0  0  0  0  0  0  0  0  0  0
  1  2  3  0
  2  3  1  0
  3  4  1  0
  4  5  1  0
  3  6  1  0
  6  7  1  0
  7  8  1  0
  8  9  1  0
  7  3  1  0
  1 10  1  0
  4 11  1  0
  4 12  1  0
  5 13  1  0
  5 14  1  0
  5 15  1  0
  7 16  1  0
  8 17  1  0
  8 18  1  0
  9 19  1  0
M  END
