
     RDKit          3D

 18 17  0  0  0  0  0  0  0  0999 V2000
    2.7606    1.2975   -1.2598 C   0  0  0  0  0  0  0  0  0  0  0  0
    2.2552    0.5171   -1.4317 C   0  0  0  0  0  0  0  0  0  0  0  0
    1.5520   -0.5977   -1.6937 C   0  0  0  0  0  0  0  0  0  0  0  0
    0.5086   -0.8913   -0.8118 O   0  0  0  0  0  0  0  0  0  0  0  0
   -0.0721    0.0509   -0.0776 C   0  0  0  0  0  0  0  0  0  0  0  0
   -1.3255   -0.6482    0.5512 C   0  0  0  0  0  0  0  0  0  0  0  0
   -1.8909    0.2172    1.6209 C   0  0  0  0  0  0  0  0  0  0  0  0
   -2.1592   -0.9366   -0.4997 O   0  0  0  0  0  0  0  0  0  0  0  0
    3.5239    2.5241   -0.9913 H   0  0  0  0  0  0  0  0  0  0  0  0
    2.2679   -1.5547   -1.4480 H   0  0  0  0  0  0  0  0  0  0  0  0
    1.3179   -0.8901   -2.7542 H   0  0  0  0  0  0  0  0  0  0  0  0
   -0.3879    0.9886   -0.5260 H   0  0  0  0  0  0  0  0  0  0  0  0
    0.5896    0.3676    0.7893 H   0  0  0  0  0  0  0  0  0  0  0  0
   -0.8574   -1.5716    1.0054 H   0  0  0  0  0  0  0  0  0  0  0  0
   -2.8142    0.7527    1.4100 H   0  0  0  0  0  0  0  0  0  0  0  0
   -1.0919    0.9631    1.9388 H   0  0  0  0  0  0  0  0  0  0  0  0
   -2.0480   -0.4693    2.5159 H   0  0  0  0  0  0  0  0  0  0  0  0
   -2.1285   -0.1192   -1.1115 H   0  0  0  0  0  0  0  0  0  0  0  0
  1  2  3  0
  2  3  1  0
  3  4  1  0
  4  5  1  0
  5  6  1  0
  6  7  1  0
  6  8  1  0
  1  9  1  0
  3 10  1  0
  3 11  1  0
  5 12  1  0
  5 13  1  0
  6 14  1  0
  7 15  1  0
  7 16  1  0
  7 17  1  0
  8 18  1  0
M  END
