
     RDKit          3D

 16 17  0  0  0  0  0  0  0  0999 V2000
   -1.7680    2.4122    0.3667 C   0  0  0  0  0  0  0  0  0  0  0  0
   -1.2475    1.2137    0.0394 C   0  0  0  0  0  0  0  0  0  0  0  0
   -0.6712   -0.0525   -0.3031 C   0  0  0  0  0  0  0  0  0  0  0  0
   -1.2820   -1.0483    0.7527 C   0  0  0  0  0  0  0  0  0  0  0  0
    0.8314   -0.1104    0.2518 C   0  0  0  0  0  0  0  0  0  0  0  0
    1.9895   -0.5573   -0.5539 C   0  0  0  0  0  0  0  0  0  0  0  0
    1.6294    0.5432   -1.3321 O   0  0  0  0  0  0  0  0  0  0  0  0
    0.3688   -0.1169   -1.2023 C   0  0  0  0  0  0  0  0  0  0  0  0
   -2.2306    3.5135    0.6604 H   0  0  0  0  0  0  0  0  0  0  0  0
   -0.9326   -0.5501    1.7740 H   0  0  0  0  0  0  0  0  0  0  0  0
   -2.3246   -0.9943    0.7929 H   0  0  0  0  0  0  0  0  0  0  0  0
   -0.7784   -1.9779    0.7911 H   0  0  0  0  0  0  0  0  0  0  0  0
    1.0101    0.7520    0.8431 H   0  0  0  0  0  0  0  0  0  0  0  0
    2.9617   -0.3979   -0.0369 H   0  0  0  0  0  0  0  0  0  0  0  0
    1.9050   -1.5361   -1.0907 H   0  0  0  0  0  0  0  0  0  0  0  0
    0.5393   -1.0930   -1.7530 H   0  0  0  0  0  0  0  0  0  0  0  0
  1  2  3  0
  2  3  1  0
  3  4  1  0
  3  5  1  0
  5  6  1  0
  6  7  1  0
  7  8  1  0
  8  3  1  0
  8  5  1  0
  1  9  1  0
  4 10  1  0
  4 11  1  0
  4 12  1  0
  5 13  1  0
  6 14  1  0
  6 15  1  0
  8 16  1  0
M  END
