
     RDKit          3D

 21 20  0  0  0  0  0  0  0  0999 V2000
   -2.4405    1.3558   -0.8121 C   0  0  0  0  0  0  0  0  0  0  0  0
   -1.7937    0.1055   -0.9736 C   0  0  0  0  0  0  0  0  0  0  0  0
   -1.1658   -1.1337   -1.1463 C   0  0  0  0  0  0  0  0  0  0  0  0
   -1.9831   -2.3605   -1.1084 C   0  0  0  0  0  0  0  0  0  0  0  0
   -0.1755   -1.1021    0.1227 C   0  0  0  0  0  0  0  0  0  0  0  0
    0.7571    0.0873   -0.2113 C   0  0  0  0  0  0  0  0  0  0  0  0
    1.3098    0.6941    0.3511 C   0  0  0  0  0  0  0  0  0  0  0  0
    2.1176    1.6154    1.2050 C   0  0  0  0  0  0  0  0  0  0  0  0
    2.9206    2.5172    2.0388 C   0  0  0  0  0  0  0  0  0  0  0  0
   -2.8896    2.2186   -0.6835 H   0  0  0  0  0  0  0  0  0  0  0  0
   -0.5185   -1.0905   -2.0395 H   0  0  0  0  0  0  0  0  0  0  0  0
   -2.0147   -2.8559   -0.1142 H   0  0  0  0  0  0  0  0  0  0  0  0
   -1.8181   -3.0402   -1.9415 H   0  0  0  0  0  0  0  0  0  0  0  0
   -3.0704   -2.0009   -1.2888 H   0  0  0  0  0  0  0  0  0  0  0  0
    0.3545   -2.0072    0.2318 H   0  0  0  0  0  0  0  0  0  0  0  0
   -0.7351   -0.7507    0.9855 H   0  0  0  0  0  0  0  0  0  0  0  0
    1.6072   -0.8012   -0.8775 H   0  0  0  0  0  0  0  0  0  0  0  0
    0.3796    0.3800   -1.3849 H   0  0  0  0  0  0  0  0  0  0  0  0
    3.4553    3.2219    1.3867 H   0  0  0  0  0  0  0  0  0  0  0  0
    3.5424    1.8651    2.6878 H   0  0  0  0  0  0  0  0  0  0  0  0
    2.1608    3.0820    2.6768 H   0  0  0  0  0  0  0  0  0  0  0  0
  1  2  3  0
  2  3  1  0
  3  4  1  0
  3  5  1  0
  5  6  1  0
  6  7  1  0
  7  8  3  0
  8  9  1  0
  1 10  1  0
  3 11  1  0
  4 12  1  0
  4 13  1  0
  4 14  1  0
  5 15  1  0
  5 16  1  0
  6 17  1  0
  6 18  1  0
  9 19  1  0
  9 20  1  0
  9 21  1  0
M  END
