
     RDKit          3D

 19 19  0  0  0  0  0  0  0  0999 V2000
    2.5871    0.3192   -1.2202 C   0  0  0  0  0  0  0  0  0  0  0  0
    1.7645    0.3655   -0.1412 C   0  0  0  0  0  0  0  0  0  0  0  0
    0.9274    0.3983    0.9627 C   0  0  0  0  0  0  0  0  0  0  0  0
   -0.4132    0.8399    1.3155 C   0  0  0  0  0  0  0  0  0  0  0  0
   -1.0230    1.7925    0.7798 C   0  0  0  0  0  0  0  0  0  0  0  0
   -1.7412    2.8688    0.1585 C   0  0  0  0  0  0  0  0  0  0  0  0
   -0.3002   -0.5331    0.6624 C   0  0  0  0  0  0  0  0  0  0  0  0
   -0.0414   -1.8643    1.1750 C   0  0  0  0  0  0  0  0  0  0  0  0
   -0.8511   -0.5027   -0.7688 C   0  0  0  0  0  0  0  0  0  0  0  0
    3.2164    0.2792   -2.0213 H   0  0  0  0  0  0  0  0  0  0  0  0
    1.4922   -0.1890    1.8876 H   0  0  0  0  0  0  0  0  0  0  0  0
   -0.5952    0.7349    2.4913 H   0  0  0  0  0  0  0  0  0  0  0  0
   -2.3259    3.7099   -0.3282 H   0  0  0  0  0  0  0  0  0  0  0  0
   -0.8131   -2.6390    0.9157 H   0  0  0  0  0  0  0  0  0  0  0  0
    0.9281   -2.2491    0.7035 H   0  0  0  0  0  0  0  0  0  0  0  0
    0.1828   -1.8376    2.2498 H   0  0  0  0  0  0  0  0  0  0  0  0
   -1.7143   -1.1540   -0.7413 H   0  0  0  0  0  0  0  0  0  0  0  0
   -0.1475   -0.8872   -1.5081 H   0  0  0  0  0  0  0  0  0  0  0  0
   -1.1324    0.5477   -1.0807 H   0  0  0  0  0  0  0  0  0  0  0  0
  1  2  3  0
  2  3  1  0
  3  4  1  0
  4  5  1  0
  5  6  3  0
  4  7  1  0
  7  8  1  0
  7  9  1  0
  7  3  1  0
  1 10  1  0
  3 11  1  0
  4 12  1  0
  6 13  1  0
  8 14  1  0
  8 15  1  0
  8 16  1  0
  9 17  1  0
  9 18  1  0
  9 19  1  0
M  END
