
     RDKit          3D

 15 16  0  0  0  0  0  0  0  0999 V2000
    0.8699    1.8450   -2.0578 C   0  0  0  0  0  0  0  0  0  0  0  0
    0.5014    0.7588   -1.4348 C   0  0  0  0  0  0  0  0  0  0  0  0
    0.1291   -0.4133   -0.7695 C   0  0  0  0  0  0  0  0  0  0  0  0
   -1.2578   -0.3133   -0.1001 C   0  0  0  0  0  0  0  0  0  0  0  0
   -0.7795   -0.6104    1.3062 C   0  0  0  0  0  0  0  0  0  0  0  0
    0.1503   -1.6271    1.0826 O   0  0  0  0  0  0  0  0  0  0  0  0
    0.9337   -0.6325    0.4894 C   0  0  0  0  0  0  0  0  0  0  0  0
    0.3097    0.2715    1.5313 C   0  0  0  0  0  0  0  0  0  0  0  0
    0.8580    1.2429    2.0821 O   0  0  0  0  0  0  0  0  0  0  0  0
    1.1864    2.7329   -2.5559 H   0  0  0  0  0  0  0  0  0  0  0  0
    0.1573   -1.3352   -1.4115 H   0  0  0  0  0  0  0  0  0  0  0  0
   -1.6243    0.7142   -0.1561 H   0  0  0  0  0  0  0  0  0  0  0  0
   -1.8815   -1.0711   -0.5290 H   0  0  0  0  0  0  0  0  0  0  0  0
   -1.5407   -0.8220    2.0484 H   0  0  0  0  0  0  0  0  0  0  0  0
    1.9880   -0.7403    0.4745 H   0  0  0  0  0  0  0  0  0  0  0  0
  1  2  3  0
  2  3  1  0
  3  4  1  0
  4  5  1  0
  5  6  1  0
  6  7  1  0
  7  8  1  0
  8  9  2  0
  7  3  1  0
  8  5  1  0
  1 10  1  0
  3 11  1  0
  4 12  1  0
  4 13  1  0
  5 14  1  0
  7 15  1  0
M  END
