
     RDKit          3D

 19 18  0  0  0  0  0  0  0  0999 V2000
    0.4106    1.0365    2.9642 C   0  0  0  0  0  0  0  0  0  0  0  0
    0.0774    0.5712    1.9212 C   0  0  0  0  0  0  0  0  0  0  0  0
   -0.3332    0.0103    0.6154 C   0  0  0  0  0  0  0  0  0  0  0  0
   -1.3069   -0.9585    0.8248 O   0  0  0  0  0  0  0  0  0  0  0  0
   -0.8532    1.1356   -0.2716 C   0  0  0  0  0  0  0  0  0  0  0  0
   -1.9483    1.7414    0.3361 O   0  0  0  0  0  0  0  0  0  0  0  0
    0.9016   -0.6039   -0.0058 C   0  0  0  0  0  0  0  0  0  0  0  0
    0.6083   -1.2078   -1.3563 C   0  0  0  0  0  0  0  0  0  0  0  0
    1.7876   -1.7497   -1.8472 O   0  0  0  0  0  0  0  0  0  0  0  0
    0.7178    1.4484    3.9345 H   0  0  0  0  0  0  0  0  0  0  0  0
   -1.4266   -1.1339    1.8087 H   0  0  0  0  0  0  0  0  0  0  0  0
   -0.0960    1.8929   -0.4587 H   0  0  0  0  0  0  0  0  0  0  0  0
   -1.1870    0.6924   -1.2361 H   0  0  0  0  0  0  0  0  0  0  0  0
   -2.0071    2.7126    0.1001 H   0  0  0  0  0  0  0  0  0  0  0  0
    1.5985    0.2461   -0.1877 H   0  0  0  0  0  0  0  0  0  0  0  0
    1.3103   -1.3838    0.6463 H   0  0  0  0  0  0  0  0  0  0  0  0
   -0.2442   -1.9015   -1.3631 H   0  0  0  0  0  0  0  0  0  0  0  0
    0.3193   -0.3961   -2.0885 H   0  0  0  0  0  0  0  0  0  0  0  0
    1.6712   -2.1521   -2.7412 H   0  0  0  0  0  0  0  0  0  0  0  0
  1  2  3  0
  2  3  1  0
  3  4  1  0
  3  5  1  0
  5  6  1  0
  3  7  1  0
  7  8  1  0
  8  9  1  0
  1 10  1  0
  4 11  1  0
  5 12  1  0
  5 13  1  0
  6 14  1  0
  7 15  1  0
  7 16  1  0
  8 17  1  0
  8 18  1  0
  9 19  1  0
M  END
