
     RDKit          3D

 21 21  0  0  0  0  0  0  0  0999 V2000
    1.7293    2.5532   -0.9765 C   0  0  0  0  0  0  0  0  0  0  0  0
    1.3164    1.5801   -0.3344 C   0  0  0  0  0  0  0  0  0  0  0  0
    0.8181    0.4678    0.4001 C   0  0  0  0  0  0  0  0  0  0  0  0
    1.0351    0.6637    1.8600 C   0  0  0  0  0  0  0  0  0  0  0  0
   -0.6186    0.2179    0.0127 C   0  0  0  0  0  0  0  0  0  0  0  0
   -0.6131   -0.0897   -1.5077 C   0  0  0  0  0  0  0  0  0  0  0  0
   -0.4294   -1.5485   -1.1386 C   0  0  0  0  0  0  0  0  0  0  0  0
   -1.1368   -1.1892    0.1771 C   0  0  0  0  0  0  0  0  0  0  0  0
   -2.4976   -1.3222   -0.0394 O   0  0  0  0  0  0  0  0  0  0  0  0
    2.0985    3.4251   -1.5296 H   0  0  0  0  0  0  0  0  0  0  0  0
    1.4274   -0.4537    0.0958 H   0  0  0  0  0  0  0  0  0  0  0  0
    0.4966   -0.0486    2.5202 H   0  0  0  0  0  0  0  0  0  0  0  0
    2.1365    0.6195    2.0508 H   0  0  0  0  0  0  0  0  0  0  0  0
    0.7196    1.6818    2.1673 H   0  0  0  0  0  0  0  0  0  0  0  0
   -1.3064    0.9671    0.3438 H   0  0  0  0  0  0  0  0  0  0  0  0
   -1.5530    0.1971   -1.9520 H   0  0  0  0  0  0  0  0  0  0  0  0
    0.2618    0.2908   -2.0457 H   0  0  0  0  0  0  0  0  0  0  0  0
    0.6285   -1.8496   -1.0312 H   0  0  0  0  0  0  0  0  0  0  0  0
   -0.9545   -2.2415   -1.7894 H   0  0  0  0  0  0  0  0  0  0  0  0
   -0.7618   -1.6712    1.0743 H   0  0  0  0  0  0  0  0  0  0  0  0
   -2.7967   -2.2497   -0.0009 H   0  0  0  0  0  0  0  0  0  0  0  0
  1  2  3  0
  2  3  1  0
  3  4  1  0
  3  5  1  0
  5  6  1  0
  6  7  1  0
  7  8  1  0
  8  9  1  0
  8  5  1  0
  1 10  1  0
  3 11  1  0
  4 12  1  0
  4 13  1  0
  4 14  1  0
  5 15  1  0
  6 16  1  0
  6 17  1  0
  7 18  1  0
  7 19  1  0
  8 20  1  0
  9 21  1  0
M  END
