
     RDKit          3D

 16 15  0  0  0  0  0  0  0  0999 V2000
   -1.4598    2.2074    0.3933 C   0  0  0  0  0  0  0  0  0  0  0  0
   -1.1228    1.0483    0.4096 C   0  0  0  0  0  0  0  0  0  0  0  0
   -0.6935   -0.3604    0.4470 C   0  0  0  0  0  0  0  0  0  0  0  0
   -1.7083   -1.2219   -0.2717 C   0  0  0  0  0  0  0  0  0  0  0  0
    0.6717   -0.5197   -0.1275 C   0  0  0  0  0  0  0  0  0  0  0  0
    0.7897   -1.2463   -1.0950 O   0  0  0  0  0  0  0  0  0  0  0  0
    1.7770    0.2126    0.5166 C   0  0  0  0  0  0  0  0  0  0  0  0
    2.9997   -0.0078   -0.0983 O   0  0  0  0  0  0  0  0  0  0  0  0
   -1.7401    3.2330    0.3857 H   0  0  0  0  0  0  0  0  0  0  0  0
   -0.6620   -0.7081    1.5008 H   0  0  0  0  0  0  0  0  0  0  0  0
   -2.6641   -1.1266    0.2924 H   0  0  0  0  0  0  0  0  0  0  0  0
   -1.8421   -0.9682   -1.3221 H   0  0  0  0  0  0  0  0  0  0  0  0
   -1.3731   -2.2699   -0.2124 H   0  0  0  0  0  0  0  0  0  0  0  0
    1.8538   -0.1498    1.5755 H   0  0  0  0  0  0  0  0  0  0  0  0
    1.5098    1.3082    0.4899 H   0  0  0  0  0  0  0  0  0  0  0  0
    3.6642    0.5693    0.3780 H   0  0  0  0  0  0  0  0  0  0  0  0
  1  2  3  0
  2  3  1  0
  3  4  1  0
  3  5  1  0
  5  6  2  0
  5  7  1  0
  7  8  1  0
  1  9  1  0
  3 10  1  0
  4 11  1  0
  4 12  1  0
  4 13  1  0
  7 14  1  0
  7 15  1  0
  8 16  1  0
M  END
