
     RDKit          3D

 19 19  0  0  0  0  0  0  0  0999 V2000
    3.0296    0.9352    0.7934 C   0  0  0  0  0  0  0  0  0  0  0  0
    2.2415    0.3381   -0.1218 C   0  0  0  0  0  0  0  0  0  0  0  0
    1.5218   -0.1923   -0.9740 C   0  0  0  0  0  0  0  0  0  0  0  0
    0.0035   -0.0250   -0.3045 C   0  0  0  0  0  0  0  0  0  0  0  0
   -0.3664    1.3917   -0.0971 C   0  0  0  0  0  0  0  0  0  0  0  0
   -0.9372   -0.5568   -1.1339 O   0  0  0  0  0  0  0  0  0  0  0  0
   -1.9894   -0.6107   -0.1175 C   0  0  0  0  0  0  0  0  0  0  0  0
   -1.1850   -1.6148    0.7459 C   0  0  0  0  0  0  0  0  0  0  0  0
   -0.0195   -0.7385    0.8441 O   0  0  0  0  0  0  0  0  0  0  0  0
    3.7458    1.4984    1.6231 H   0  0  0  0  0  0  0  0  0  0  0  0
    1.5572   -1.3501   -0.9783 H   0  0  0  0  0  0  0  0  0  0  0  0
    1.3922    0.1872   -1.9774 H   0  0  0  0  0  0  0  0  0  0  0  0
   -0.5484    1.6498    0.9893 H   0  0  0  0  0  0  0  0  0  0  0  0
    0.4071    2.1134   -0.4758 H   0  0  0  0  0  0  0  0  0  0  0  0
   -1.3340    1.7059   -0.6359 H   0  0  0  0  0  0  0  0  0  0  0  0
   -2.9037   -0.9419   -0.5305 H   0  0  0  0  0  0  0  0  0  0  0  0
   -1.9939    0.3586    0.4459 H   0  0  0  0  0  0  0  0  0  0  0  0
   -1.6468   -1.6313    1.7132 H   0  0  0  0  0  0  0  0  0  0  0  0
   -0.9742   -2.5172    0.1918 H   0  0  0  0  0  0  0  0  0  0  0  0
  1  2  3  0
  2  3  1  0
  3  4  1  0
  4  5  1  0
  4  6  1  0
  6  7  1  0
  7  8  1  0
  8  9  1  0
  9  4  1  0
  1 10  1  0
  3 11  1  0
  3 12  1  0
  5 13  1  0
  5 14  1  0
  5 15  1  0
  7 16  1  0
  7 17  1  0
  8 18  1  0
  8 19  1  0
M  END
