
     RDKit          3D

 21 20  0  0  0  0  0  0  0  0999 V2000
    4.2272    0.2181   -0.9806 C   0  0  0  0  0  0  0  0  0  0  0  0
    3.2187   -0.3606   -1.2546 C   0  0  0  0  0  0  0  0  0  0  0  0
    1.9828   -1.0516   -1.6045 C   0  0  0  0  0  0  0  0  0  0  0  0
    1.9006   -1.4825   -2.7762 O   0  0  0  0  0  0  0  0  0  0  0  0
    0.9185   -1.1969   -0.5734 C   0  0  0  0  0  0  0  0  0  0  0  0
    0.1731    0.1062   -0.5051 C   0  0  0  0  0  0  0  0  0  0  0  0
   -0.9355    0.0644    0.5056 C   0  0  0  0  0  0  0  0  0  0  0  0
   -1.6839    1.3976    0.5664 C   0  0  0  0  0  0  0  0  0  0  0  0
   -2.7938    1.2862    1.5973 C   0  0  0  0  0  0  0  0  0  0  0  0
    5.1384    0.7306   -0.7250 H   0  0  0  0  0  0  0  0  0  0  0  0
    0.2189   -2.0203   -0.8220 H   0  0  0  0  0  0  0  0  0  0  0  0
    1.4167   -1.4329    0.3891 H   0  0  0  0  0  0  0  0  0  0  0  0
    0.9299    0.8759   -0.1691 H   0  0  0  0  0  0  0  0  0  0  0  0
   -0.1425    0.3839   -1.5106 H   0  0  0  0  0  0  0  0  0  0  0  0
   -0.5308   -0.1082    1.5300 H   0  0  0  0  0  0  0  0  0  0  0  0
   -1.6677   -0.7391    0.3141 H   0  0  0  0  0  0  0  0  0  0  0  0
   -1.0162    2.2180    0.9210 H   0  0  0  0  0  0  0  0  0  0  0  0
   -2.0833    1.6558   -0.4253 H   0  0  0  0  0  0  0  0  0  0  0  0
   -3.7683    1.6370    1.1495 H   0  0  0  0  0  0  0  0  0  0  0  0
   -2.5921    1.9019    2.4943 H   0  0  0  0  0  0  0  0  0  0  0  0
   -2.9105    0.2025    1.8793 H   0  0  0  0  0  0  0  0  0  0  0  0
  1  2  3  0
  2  3  1  0
  3  4  2  0
  3  5  1  0
  5  6  1  0
  6  7  1  0
  7  8  1  0
  8  9  1  0
  1 10  1  0
  5 11  1  0
  5 12  1  0
  6 13  1  0
  6 14  1  0
  7 15  1  0
  7 16  1  0
  8 17  1  0
  8 18  1  0
  9 19  1  0
  9 20  1  0
  9 21  1  0
M  END
