
     RDKit          3D

 17 18  0  0  0  0  0  0  0  0999 V2000
    3.0402    1.0926   -0.6974 C   0  0  0  0  0  0  0  0  0  0  0  0
    2.3297    0.2183   -0.2661 C   0  0  0  0  0  0  0  0  0  0  0  0
    1.4621   -0.8112    0.2576 C   0  0  0  0  0  0  0  0  0  0  0  0
    0.3312   -1.1630   -0.6783 C   0  0  0  0  0  0  0  0  0  0  0  0
   -0.7571   -0.4979   -0.3387 C   0  0  0  0  0  0  0  0  0  0  0  0
   -2.0906    0.1362   -0.1444 C   0  0  0  0  0  0  0  0  0  0  0  0
   -1.6795    0.2027    1.3584 C   0  0  0  0  0  0  0  0  0  0  0  0
   -0.3034    0.3867    0.8025 C   0  0  0  0  0  0  0  0  0  0  0  0
    0.7665   -0.2570    1.3560 O   0  0  0  0  0  0  0  0  0  0  0  0
    3.6776    1.8541   -1.0652 H   0  0  0  0  0  0  0  0  0  0  0  0
    1.9912   -1.6976    0.6249 H   0  0  0  0  0  0  0  0  0  0  0  0
    0.4444   -1.8558   -1.4843 H   0  0  0  0  0  0  0  0  0  0  0  0
   -2.1031    1.1432   -0.5835 H   0  0  0  0  0  0  0  0  0  0  0  0
   -2.9614   -0.5004   -0.3121 H   0  0  0  0  0  0  0  0  0  0  0  0
   -2.1449    1.0854    1.7940 H   0  0  0  0  0  0  0  0  0  0  0  0
   -1.8763   -0.7680    1.8429 H   0  0  0  0  0  0  0  0  0  0  0  0
   -0.1265    1.4317    0.4896 H   0  0  0  0  0  0  0  0  0  0  0  0
  1  2  3  0
  2  3  1  0
  3  4  1  0
  4  5  2  0
  5  6  1  0
  6  7  1  0
  7  8  1  0
  8  9  1  0
  9  3  1  0
  8  5  1  0
  1 10  1  0
  3 11  1  0
  4 12  1  0
  6 13  1  0
  6 14  1  0
  7 15  1  0
  7 16  1  0
  8 17  1  0
M  END
