
     RDKit          3D

 17 19  0  0  0  0  0  0  0  0999 V2000
    2.3452   -1.0846   -1.1970 C   0  0  0  0  0  0  0  0  0  0  0  0
    1.6091   -0.4773   -0.4569 C   0  0  0  0  0  0  0  0  0  0  0  0
    0.7403    0.2658    0.4227 C   0  0  0  0  0  0  0  0  0  0  0  0
    0.0374   -0.3566    1.5438 C   0  0  0  0  0  0  0  0  0  0  0  0
   -0.7104   -0.0010    0.3208 C   0  0  0  0  0  0  0  0  0  0  0  0
   -1.2600   -1.1021   -0.5225 C   0  0  0  0  0  0  0  0  0  0  0  0
   -0.9172    1.4415   -0.0706 C   0  0  0  0  0  0  0  0  0  0  0  0
   -0.1832    1.9413   -1.1447 O   0  0  0  0  0  0  0  0  0  0  0  0
    0.4402    1.7258    0.0767 C   0  0  0  0  0  0  0  0  0  0  0  0
    2.9967   -1.6024   -1.8560 H   0  0  0  0  0  0  0  0  0  0  0  0
   -0.2101    0.2440    2.4545 H   0  0  0  0  0  0  0  0  0  0  0  0
    0.2050   -1.4193    1.7234 H   0  0  0  0  0  0  0  0  0  0  0  0
   -2.1056   -1.5710    0.0293 H   0  0  0  0  0  0  0  0  0  0  0  0
   -1.7001   -0.6600   -1.4374 H   0  0  0  0  0  0  0  0  0  0  0  0
   -0.4474   -1.8272   -0.7539 H   0  0  0  0  0  0  0  0  0  0  0  0
   -1.8100    1.9606    0.2716 H   0  0  0  0  0  0  0  0  0  0  0  0
    0.9701    2.5226    0.5962 H   0  0  0  0  0  0  0  0  0  0  0  0
  1  2  3  0
  2  3  1  0
  3  4  1  0
  4  5  1  0
  5  6  1  0
  5  7  1  0
  7  8  1  0
  8  9  1  0
  5  3  1  0
  9  7  1  0
  9  3  1  0
  1 10  1  0
  4 11  1  0
  4 12  1  0
  6 13  1  0
  6 14  1  0
  6 15  1  0
  7 16  1  0
  9 17  1  0
M  END
