
     RDKit          3D

 21 21  0  0  0  0  0  0  0  0999 V2000
    0.0937    2.7201    0.3248 C   0  0  0  0  0  0  0  0  0  0  0  0
    0.0664    1.5079    0.4881 C   0  0  0  0  0  0  0  0  0  0  0  0
    0.0412    0.0622    0.7055 C   0  0  0  0  0  0  0  0  0  0  0  0
   -0.5346   -0.7886   -0.3804 C   0  0  0  0  0  0  0  0  0  0  0  0
    0.1400   -0.7073   -1.7004 C   0  0  0  0  0  0  0  0  0  0  0  0
    0.1406    0.6679   -2.3046 C   0  0  0  0  0  0  0  0  0  0  0  0
    0.9975   -0.4701    1.6974 C   0  0  0  0  0  0  0  0  0  0  0  0
   -0.4376   -0.3564    2.1156 C   0  0  0  0  0  0  0  0  0  0  0  0
   -1.1947   -1.5073    2.2306 O   0  0  0  0  0  0  0  0  0  0  0  0
    0.1003    3.7676    0.1770 H   0  0  0  0  0  0  0  0  0  0  0  0
   -0.5786   -1.8665   -0.0922 H   0  0  0  0  0  0  0  0  0  0  0  0
   -1.6134   -0.4915   -0.5002 H   0  0  0  0  0  0  0  0  0  0  0  0
   -0.4612   -1.3535   -2.4051 H   0  0  0  0  0  0  0  0  0  0  0  0
    1.1495   -1.1718   -1.6957 H   0  0  0  0  0  0  0  0  0  0  0  0
    1.0415    1.1905   -1.9392 H   0  0  0  0  0  0  0  0  0  0  0  0
   -0.7356    1.2621   -2.0326 H   0  0  0  0  0  0  0  0  0  0  0  0
    0.1341    0.6158   -3.4287 H   0  0  0  0  0  0  0  0  0  0  0  0
    1.6680    0.2569    2.1983 H   0  0  0  0  0  0  0  0  0  0  0  0
    1.3859   -1.4975    1.6607 H   0  0  0  0  0  0  0  0  0  0  0  0
   -0.7506    0.4576    2.8045 H   0  0  0  0  0  0  0  0  0  0  0  0
   -0.6523   -2.2982    2.0766 H   0  0  0  0  0  0  0  0  0  0  0  0
  1  2  3  0
  2  3  1  0
  3  4  1  0
  4  5  1  0
  5  6  1  0
  3  7  1  0
  7  8  1  0
  8  9  1  0
  8  3  1  0
  1 10  1  0
  4 11  1  0
  4 12  1  0
  5 13  1  0
  5 14  1  0
  6 15  1  0
  6 16  1  0
  6 17  1  0
  7 18  1  0
  7 19  1  0
  8 20  1  0
  9 21  1  0
M  END
