
     RDKit          3D

 17 18  0  0  0  0  0  0  0  0999 V2000
    1.9112   -2.8954   -0.5435 C   0  0  0  0  0  0  0  0  0  0  0  0
    1.2174   -2.0939    0.0641 C   0  0  0  0  0  0  0  0  0  0  0  0
    0.3822   -1.1666    0.7826 C   0  0  0  0  0  0  0  0  0  0  0  0
   -0.9171   -1.0372    0.3607 O   0  0  0  0  0  0  0  0  0  0  0  0
   -0.8141    0.2984    0.0626 C   0  0  0  0  0  0  0  0  0  0  0  0
   -1.3679    0.7981   -1.2347 C   0  0  0  0  0  0  0  0  0  0  0  0
   -1.1614    2.1773   -1.3425 O   0  0  0  0  0  0  0  0  0  0  0  0
   -0.1961    1.2722    0.9906 C   0  0  0  0  0  0  0  0  0  0  0  0
    0.6418    0.2521    0.3358 C   0  0  0  0  0  0  0  0  0  0  0  0
    2.5232   -3.5769   -1.0772 H   0  0  0  0  0  0  0  0  0  0  0  0
    0.4498   -1.2097    1.8943 H   0  0  0  0  0  0  0  0  0  0  0  0
   -2.4696    0.6316   -1.2106 H   0  0  0  0  0  0  0  0  0  0  0  0
   -0.9074    0.3154   -2.1277 H   0  0  0  0  0  0  0  0  0  0  0  0
   -0.1836    2.3303   -1.4429 H   0  0  0  0  0  0  0  0  0  0  0  0
   -0.1034    2.3031    0.6059 H   0  0  0  0  0  0  0  0  0  0  0  0
   -0.3134    1.1449    2.0997 H   0  0  0  0  0  0  0  0  0  0  0  0
    1.3085    0.4564   -0.5004 H   0  0  0  0  0  0  0  0  0  0  0  0
  1  2  3  0
  2  3  1  0
  3  4  1  0
  4  5  1  0
  5  6  1  0
  6  7  1  0
  5  8  1  0
  8  9  1  0
  9  3  1  0
  9  5  1  0
  1 10  1  0
  3 11  1  0
  6 12  1  0
  6 13  1  0
  7 14  1  0
  8 15  1  0
  8 16  1  0
  9 17  1  0
M  END
