
     RDKit          3D

 17 18  0  0  0  0  0  0  0  0999 V2000
    2.5185   -0.4729   -1.0836 C   0  0  0  0  0  0  0  0  0  0  0  0
    1.6545    0.1632   -0.5809 C   0  0  0  0  0  0  0  0  0  0  0  0
    0.5979    0.9631    0.0437 C   0  0  0  0  0  0  0  0  0  0  0  0
   -0.1018    1.6464   -0.9544 O   0  0  0  0  0  0  0  0  0  0  0  0
   -1.4100    1.2551   -0.8993 C   0  0  0  0  0  0  0  0  0  0  0  0
   -1.6411    0.7737    0.4101 O   0  0  0  0  0  0  0  0  0  0  0  0
   -0.4490    0.0978    0.6445 C   0  0  0  0  0  0  0  0  0  0  0  0
   -0.2728   -0.7489    1.8086 C   0  0  0  0  0  0  0  0  0  0  0  0
   -0.3305   -1.3614    0.4375 C   0  0  0  0  0  0  0  0  0  0  0  0
    3.2932   -1.0211   -1.5265 H   0  0  0  0  0  0  0  0  0  0  0  0
    1.0551    1.6882    0.7523 H   0  0  0  0  0  0  0  0  0  0  0  0
   -1.6255    0.3658   -1.5586 H   0  0  0  0  0  0  0  0  0  0  0  0
   -2.1210    2.0652   -1.0977 H   0  0  0  0  0  0  0  0  0  0  0  0
    0.6523   -0.9133    2.3542 H   0  0  0  0  0  0  0  0  0  0  0  0
   -1.1866   -0.8994    2.4551 H   0  0  0  0  0  0  0  0  0  0  0  0
    0.6003   -1.7275   -0.0289 H   0  0  0  0  0  0  0  0  0  0  0  0
   -1.2336   -1.8741    0.0807 H   0  0  0  0  0  0  0  0  0  0  0  0
  1  2  3  0
  2  3  1  0
  3  4  1  0
  4  5  1  0
  5  6  1  0
  6  7  1  0
  7  8  1  0
  8  9  1  0
  7  3  1  0
  9  7  1  0
  1 10  1  0
  3 11  1  0
  5 12  1  0
  5 13  1  0
  8 14  1  0
  8 15  1  0
  9 16  1  0
  9 17  1  0
M  END
