
     RDKit          3D

 18 18  0  0  0  0  0  0  0  0999 V2000
    1.7467    1.8474   -0.9971 C   0  0  0  0  0  0  0  0  0  0  0  0
    0.9738    0.8976   -0.4167 C   0  0  0  0  0  0  0  0  0  0  0  0
    0.2011   -0.0887    0.1696 C   0  0  0  0  0  0  0  0  0  0  0  0
    0.0410    0.0735    1.5710 O   0  0  0  0  0  0  0  0  0  0  0  0
   -0.5670    1.3309    1.7513 C   0  0  0  0  0  0  0  0  0  0  0  0
   -1.0918   -0.4293   -0.5218 C   0  0  0  0  0  0  0  0  0  0  0  0
   -0.3334   -1.5467   -1.2212 C   0  0  0  0  0  0  0  0  0  0  0  0
    0.6974   -1.5042   -0.0911 C   0  0  0  0  0  0  0  0  0  0  0  0
    2.3329    2.5647   -1.4469 H   0  0  0  0  0  0  0  0  0  0  0  0
   -0.7147    1.5566    2.7988 H   0  0  0  0  0  0  0  0  0  0  0  0
   -1.5256    1.3118    1.1863 H   0  0  0  0  0  0  0  0  0  0  0  0
    0.0705    2.1007    1.3011 H   0  0  0  0  0  0  0  0  0  0  0  0
   -1.5518    0.2868   -1.1764 H   0  0  0  0  0  0  0  0  0  0  0  0
   -1.8162   -0.8277    0.2113 H   0  0  0  0  0  0  0  0  0  0  0  0
   -0.8520   -2.5305   -1.2418 H   0  0  0  0  0  0  0  0  0  0  0  0
    0.1659   -1.2934   -2.1486 H   0  0  0  0  0  0  0  0  0  0  0  0
    0.4939   -2.2192    0.6943 H   0  0  0  0  0  0  0  0  0  0  0  0
    1.7293   -1.5303   -0.4220 H   0  0  0  0  0  0  0  0  0  0  0  0
  1  2  3  0
  2  3  1  0
  3  4  1  0
  4  5  1  0
  3  6  1  0
  6  7  1  0
  7  8  1  0
  8  3  1  0
  1  9  1  0
  5 10  1  0
  5 11  1  0
  5 12  1  0
  6 13  1  0
  6 14  1  0
  7 15  1  0
  7 16  1  0
  8 17  1  0
  8 18  1  0
M  END
