
     RDKit          3D

 17 18  0  0  0  0  0  0  0  0999 V2000
    2.7004    0.6199    1.0784 C   0  0  0  0  0  0  0  0  0  0  0  0
    1.7523    0.0758    0.5524 C   0  0  0  0  0  0  0  0  0  0  0  0
    0.6212   -0.5550   -0.0629 C   0  0  0  0  0  0  0  0  0  0  0  0
    0.1756    0.1291   -1.3385 C   0  0  0  0  0  0  0  0  0  0  0  0
   -0.9916   -0.7548   -1.6939 C   0  0  0  0  0  0  0  0  0  0  0  0
   -1.6135   -0.8911   -0.5140 C   0  0  0  0  0  0  0  0  0  0  0  0
   -0.7448   -0.1179    0.4094 C   0  0  0  0  0  0  0  0  0  0  0  0
   -1.0243    0.0064    1.6815 O   0  0  0  0  0  0  0  0  0  0  0  0
   -0.5135    1.1395   -0.4437 C   0  0  0  0  0  0  0  0  0  0  0  0
    3.5406    1.0833    1.5314 H   0  0  0  0  0  0  0  0  0  0  0  0
    0.6569   -1.6385   -0.2203 H   0  0  0  0  0  0  0  0  0  0  0  0
    0.8581    0.4230   -2.0681 H   0  0  0  0  0  0  0  0  0  0  0  0
   -1.2356   -1.1582   -2.6626 H   0  0  0  0  0  0  0  0  0  0  0  0
   -2.5160   -1.4145   -0.2388 H   0  0  0  0  0  0  0  0  0  0  0  0
   -0.3318   -0.2959    2.2845 H   0  0  0  0  0  0  0  0  0  0  0  0
    0.1165    1.8832    0.0318 H   0  0  0  0  0  0  0  0  0  0  0  0
   -1.4506    1.4658   -0.9182 H   0  0  0  0  0  0  0  0  0  0  0  0
  1  2  3  0
  2  3  1  0
  3  4  1  0
  4  5  1  0
  5  6  2  0
  6  7  1  0
  7  8  1  0
  7  9  1  0
  7  3  1  0
  9  4  1  0
  1 10  1  0
  3 11  1  0
  4 12  1  0
  5 13  1  0
  6 14  1  0
  8 15  1  0
  9 16  1  0
  9 17  1  0
M  END
