
     RDKit          3D

 13 13  0  0  0  0  0  0  0  0999 V2000
    2.8579   -0.4156   -1.2236 C   0  0  0  0  0  0  0  0  0  0  0  0
    1.7619   -0.5401   -0.4642 C   0  0  0  0  0  0  0  0  0  0  0  0
    0.5337   -0.6643    0.3613 C   0  0  0  0  0  0  0  0  0  0  0  0
    0.3702    0.9201    0.6249 O   0  0  0  0  0  0  0  0  0  0  0  0
   -0.5075    0.1517   -0.3017 C   0  0  0  0  0  0  0  0  0  0  0  0
   -1.9283    0.2595    0.1686 C   0  0  0  0  0  0  0  0  0  0  0  0
   -1.9197   -0.1506    1.5354 O   0  0  0  0  0  0  0  0  0  0  0  0
    3.9356   -0.3088   -1.9830 H   0  0  0  0  0  0  0  0  0  0  0  0
    0.8663   -0.7685    1.3842 H   0  0  0  0  0  0  0  0  0  0  0  0
   -0.3277    0.5576   -1.3514 H   0  0  0  0  0  0  0  0  0  0  0  0
   -2.6057   -0.3423   -0.4608 H   0  0  0  0  0  0  0  0  0  0  0  0
   -2.1279    1.3629    0.1852 H   0  0  0  0  0  0  0  0  0  0  0  0
   -0.9087   -0.0617    1.8112 H   0  0  0  0  0  0  0  0  0  0  0  0
  1  2  3  0
  2  3  1  0
  3  4  1  0
  4  5  1  0
  5  6  1  0
  6  7  1  0
  5  3  1  0
  1  8  1  0
  3  9  1  0
  5 10  1  0
  6 11  1  0
  6 12  1  0
  7 13  1  0
M  END
