
     RDKit          3D

 17 17  0  0  0  0  0  0  0  0999 V2000
   -1.9578    2.2258   -0.2447 C   0  0  0  0  0  0  0  0  0  0  0  0
   -1.1099    1.3640   -0.2852 C   0  0  0  0  0  0  0  0  0  0  0  0
   -0.0904    0.3258   -0.3101 C   0  0  0  0  0  0  0  0  0  0  0  0
   -0.4620   -0.8346   -1.1974 C   0  0  0  0  0  0  0  0  0  0  0  0
   -1.6859   -1.3786   -0.8918 O   0  0  0  0  0  0  0  0  0  0  0  0
    1.1714    0.8217   -0.6891 O   0  0  0  0  0  0  0  0  0  0  0  0
    1.8343    0.1949    0.3848 C   0  0  0  0  0  0  0  0  0  0  0  0
    0.4813   -0.0093    1.0219 C   0  0  0  0  0  0  0  0  0  0  0  0
    0.2334   -1.2583    1.5254 O   0  0  0  0  0  0  0  0  0  0  0  0
   -2.7192    2.9834   -0.2236 H   0  0  0  0  0  0  0  0  0  0  0  0
   -0.5365   -0.4190   -2.2385 H   0  0  0  0  0  0  0  0  0  0  0  0
    0.3586   -1.5782   -1.2411 H   0  0  0  0  0  0  0  0  0  0  0  0
   -1.7257   -1.5198    0.0885 H   0  0  0  0  0  0  0  0  0  0  0  0
    2.5295    0.8550    0.9392 H   0  0  0  0  0  0  0  0  0  0  0  0
    2.3339   -0.7358    0.0536 H   0  0  0  0  0  0  0  0  0  0  0  0
    0.2762    0.7799    1.7984 H   0  0  0  0  0  0  0  0  0  0  0  0
    1.0689   -1.8170    1.5098 H   0  0  0  0  0  0  0  0  0  0  0  0
  1  2  3  0
  2  3  1  0
  3  4  1  0
  4  5  1  0
  3  6  1  0
  6  7  1  0
  7  8  1  0
  8  9  1  0
  8  3  1  0
  1 10  1  0
  4 11  1  0
  4 12  1  0
  5 13  1  0
  7 14  1  0
  7 15  1  0
  8 16  1  0
  9 17  1  0
M  END
