
     RDKit          3D

 14 15  0  0  0  0  0  0  0  0999 V2000
    2.6436   -0.6736    0.6732 C   0  0  0  0  0  0  0  0  0  0  0  0
    1.5511   -0.2771    0.3890 C   0  0  0  0  0  0  0  0  0  0  0  0
    0.3241    0.1645    0.0657 C   0  0  0  0  0  0  0  0  0  0  0  0
   -0.0060    1.3023   -0.8195 C   0  0  0  0  0  0  0  0  0  0  0  0
   -1.2887    0.7505   -0.2680 C   0  0  0  0  0  0  0  0  0  0  0  0
   -0.6199    0.6458    0.9494 O   0  0  0  0  0  0  0  0  0  0  0  0
   -0.7533   -0.6168   -0.5750 C   0  0  0  0  0  0  0  0  0  0  0  0
   -1.2945   -1.6644    0.1408 O   0  0  0  0  0  0  0  0  0  0  0  0
    3.6403   -1.0203    0.9183 H   0  0  0  0  0  0  0  0  0  0  0  0
    0.1327    1.1297   -1.8900 H   0  0  0  0  0  0  0  0  0  0  0  0
    0.2774    2.2890   -0.4181 H   0  0  0  0  0  0  0  0  0  0  0  0
   -2.2205    1.0951   -0.4208 H   0  0  0  0  0  0  0  0  0  0  0  0
   -0.6060   -0.8653   -1.6396 H   0  0  0  0  0  0  0  0  0  0  0  0
   -1.7804   -2.2595   -0.5059 H   0  0  0  0  0  0  0  0  0  0  0  0
  1  2  3  0
  2  3  1  0
  3  4  1  0
  4  5  1  0
  5  6  1  0
  5  7  1  0
  7  8  1  0
  6  3  1  0
  7  3  1  0
  1  9  1  0
  4 10  1  0
  4 11  1  0
  5 12  1  0
  7 13  1  0
  8 14  1  0
M  END
