
     RDKit          3D

 14 13  0  0  0  0  0  0  0  0999 V2000
   -2.0804   -1.9326   -0.5220 C   0  0  0  0  0  0  0  0  0  0  0  0
   -0.9975   -1.0462   -0.0147 C   0  0  0  0  0  0  0  0  0  0  0  0
    0.0038   -0.2536    0.4366 C   0  0  0  0  0  0  0  0  0  0  0  0
    0.7363   -1.0421    1.3170 O   0  0  0  0  0  0  0  0  0  0  0  0
    1.0088   -0.1617   -0.7190 C   0  0  0  0  0  0  0  0  0  0  0  0
    1.7611   -0.0982   -1.5542 C   0  0  0  0  0  0  0  0  0  0  0  0
   -0.3245    1.0712    0.8857 C   0  0  0  0  0  0  0  0  0  0  0  0
   -1.0001    1.6980   -0.2226 O   0  0  0  0  0  0  0  0  0  0  0  0
   -2.4357   -2.2126   -0.6872 H   0  0  0  0  0  0  0  0  0  0  0  0
    1.5913   -1.3038    1.1407 H   0  0  0  0  0  0  0  0  0  0  0  0
    2.6154   -0.0127   -2.5312 H   0  0  0  0  0  0  0  0  0  0  0  0
    0.6258    1.6406    1.0774 H   0  0  0  0  0  0  0  0  0  0  0  0
   -0.8887    1.0483    1.8267 H   0  0  0  0  0  0  0  0  0  0  0  0
   -0.6157    2.6052   -0.4333 H   0  0  0  0  0  0  0  0  0  0  0  0
  1  2  3  0
  2  3  1  0
  3  4  1  0
  3  5  1  0
  5  6  3  0
  3  7  1  0
  7  8  1  0
  1  9  1  0
  4 10  1  0
  6 11  1  0
  7 12  1  0
  7 13  1  0
  8 14  1  0
M  END
