
     RDKit          3D

 18 17  0  0  0  0  0  0  0  0999 V2000
    2.2444    2.3467   -1.5871 C   0  0  0  0  0  0  0  0  0  0  0  0
    1.1414    0.9853   -1.7319 C   0  0  0  0  0  0  0  0  0  0  0  0
    0.3263   -0.0237   -1.8199 C   0  0  0  0  0  0  0  0  0  0  0  0
   -0.1652    0.0053   -0.3164 C   0  0  0  0  0  0  0  0  0  0  0  0
    0.8291    0.2743    0.6135 C   0  0  0  0  0  0  0  0  0  0  0  0
    1.0757    1.4356    1.1896 O   0  0  0  0  0  0  0  0  0  0  0  0
   -1.2329   -1.0294   -0.0543 C   0  0  0  0  0  0  0  0  0  0  0  0
   -1.6816   -0.9224    1.4412 C   0  0  0  0  0  0  0  0  0  0  0  0
    3.0893    3.4280   -1.4703 H   0  0  0  0  0  0  0  0  0  0  0  0
    0.6797   -0.7784   -2.4138 H   0  0  0  0  0  0  0  0  0  0  0  0
    1.6049   -0.7271   -1.0252 H   0  0  0  0  0  0  0  0  0  0  0  0
   -0.7281    1.0238   -0.4167 H   0  0  0  0  0  0  0  0  0  0  0  0
    1.6804   -0.3975    1.1116 H   0  0  0  0  0  0  0  0  0  0  0  0
   -0.9396   -2.0665   -0.1909 H   0  0  0  0  0  0  0  0  0  0  0  0
   -2.1479   -0.7984   -0.6776 H   0  0  0  0  0  0  0  0  0  0  0  0
   -1.4760   -1.8826    1.9557 H   0  0  0  0  0  0  0  0  0  0  0  0
   -1.4321   -0.0171    1.9239 H   0  0  0  0  0  0  0  0  0  0  0  0
   -2.8679   -0.8559    1.3909 H   0  0  0  0  0  0  0  0  0  0  0  0
  1  2  3  0
  2  3  1  0
  3  4  1  0
  4  5  1  0
  5  6  2  0
  4  7  1  0
  7  8  1  0
  1  9  1  0
  3 10  1  0
  3 11  1  0
  4 12  1  0
  5 13  1  0
  7 14  1  0
  7 15  1  0
  8 16  1  0
  8 17  1  0
  8 18  1  0
M  END
