
     RDKit          3D

 17 17  0  0  0  0  0  0  0  0999 V2000
    2.8304    0.8630    2.1904 C   0  0  0  0  0  0  0  0  0  0  0  0
    1.9571    0.5352    1.4254 C   0  0  0  0  0  0  0  0  0  0  0  0
    0.9336    0.1299    0.5029 C   0  0  0  0  0  0  0  0  0  0  0  0
    0.1100   -0.8607    0.8227 C   0  0  0  0  0  0  0  0  0  0  0  0
   -1.0233   -1.5025    0.1082 C   0  0  0  0  0  0  0  0  0  0  0  0
   -1.9172   -0.5298   -0.5668 C   0  0  0  0  0  0  0  0  0  0  0  0
   -1.5924    0.5458   -1.2674 C   0  0  0  0  0  0  0  0  0  0  0  0
   -0.2433    1.0366   -1.5443 C   0  0  0  0  0  0  0  0  0  0  0  0
    0.8495    0.8578   -0.7801 C   0  0  0  0  0  0  0  0  0  0  0  0
    3.6064    1.1735    2.8687 H   0  0  0  0  0  0  0  0  0  0  0  0
    0.3508   -1.2517    1.8193 H   0  0  0  0  0  0  0  0  0  0  0  0
   -1.5833   -2.1335    0.8172 H   0  0  0  0  0  0  0  0  0  0  0  0
   -0.5453   -2.1300   -0.6997 H   0  0  0  0  0  0  0  0  0  0  0  0
   -3.0038   -0.7351   -0.4690 H   0  0  0  0  0  0  0  0  0  0  0  0
   -2.4191    1.1238   -1.6812 H   0  0  0  0  0  0  0  0  0  0  0  0
   -0.0987    1.6022   -2.4484 H   0  0  0  0  0  0  0  0  0  0  0  0
    1.7886    1.2753   -1.0981 H   0  0  0  0  0  0  0  0  0  0  0  0
  1  2  3  0
  2  3  1  0
  3  4  2  0
  4  5  1  0
  5  6  1  0
  6  7  2  0
  7  8  1  0
  8  9  2  0
  9  3  1  0
  1 10  1  0
  4 11  1  0
  5 12  1  0
  5 13  1  0
  6 14  1  0
  7 15  1  0
  8 16  1  0
  9 17  1  0
M  END
