
     RDKit          3D

 18 18  0  0  0  0  0  0  0  0999 V2000
    0.7024    1.8660   -1.6573 C   0  0  0  0  0  0  0  0  0  0  0  0
    0.1842    1.0296   -0.9424 C   0  0  0  0  0  0  0  0  0  0  0  0
   -0.4253    0.0194   -0.0725 C   0  0  0  0  0  0  0  0  0  0  0  0
   -0.4784    0.5835    1.3167 C   0  0  0  0  0  0  0  0  0  0  0  0
   -1.8022   -0.3340   -0.5568 C   0  0  0  0  0  0  0  0  0  0  0  0
    0.5044   -1.1856   -0.1010 C   0  0  0  0  0  0  0  0  0  0  0  0
    1.9033   -0.8461    0.4037 C   0  0  0  0  0  0  0  0  0  0  0  0
    1.0111   -1.6783    1.0789 O   0  0  0  0  0  0  0  0  0  0  0  0
    1.1439    2.5903   -2.2951 H   0  0  0  0  0  0  0  0  0  0  0  0
   -0.5851   -0.2300    2.0786 H   0  0  0  0  0  0  0  0  0  0  0  0
    0.3872    1.2381    1.5556 H   0  0  0  0  0  0  0  0  0  0  0  0
   -1.3874    1.2398    1.3975 H   0  0  0  0  0  0  0  0  0  0  0  0
   -2.1969   -1.1300    0.1297 H   0  0  0  0  0  0  0  0  0  0  0  0
   -1.7672   -0.7914   -1.5590 H   0  0  0  0  0  0  0  0  0  0  0  0
   -2.4183    0.5815   -0.5032 H   0  0  0  0  0  0  0  0  0  0  0  0
    0.4291   -1.7975   -0.9999 H   0  0  0  0  0  0  0  0  0  0  0  0
    2.0757    0.1118    0.9100 H   0  0  0  0  0  0  0  0  0  0  0  0
    2.7197   -1.2671   -0.1835 H   0  0  0  0  0  0  0  0  0  0  0  0
  1  2  3  0
  2  3  1  0
  3  4  1  0
  3  5  1  0
  3  6  1  0
  6  7  1  0
  7  8  1  0
  8  6  1  0
  1  9  1  0
  4 10  1  0
  4 11  1  0
  4 12  1  0
  5 13  1  0
  5 14  1  0
  5 15  1  0
  6 16  1  0
  7 17  1  0
  7 18  1  0
M  END
