
     RDKit          3D

 17 17  0  0  0  0  0  0  0  0999 V2000
    3.1711   -1.2161    1.1401 C   0  0  0  0  0  0  0  0  0  0  0  0
    2.1955   -0.9509    0.4181 C   0  0  0  0  0  0  0  0  0  0  0  0
    0.9384   -0.5798   -0.5178 C   0  0  0  0  0  0  0  0  0  0  0  0
   -0.1784   -1.3922    0.1706 C   0  0  0  0  0  0  0  0  0  0  0  0
   -0.0571    0.1523    0.2727 C   0  0  0  0  0  0  0  0  0  0  0  0
   -1.2546    0.8789   -0.2382 C   0  0  0  0  0  0  0  0  0  0  0  0
   -2.0681   -0.0072   -0.9602 O   0  0  0  0  0  0  0  0  0  0  0  0
   -1.0115    2.1108   -0.9849 C   0  0  0  0  0  0  0  0  0  0  0  0
   -1.3758    2.5748   -1.9795 O   0  0  0  0  0  0  0  0  0  0  0  0
    3.9526   -1.4235    1.7001 H   0  0  0  0  0  0  0  0  0  0  0  0
    1.1630   -0.5777   -1.5103 H   0  0  0  0  0  0  0  0  0  0  0  0
   -0.9263   -1.8518   -0.4556 H   0  0  0  0  0  0  0  0  0  0  0  0
    0.0934   -1.9549    1.1268 H   0  0  0  0  0  0  0  0  0  0  0  0
    0.3133    0.4918    1.3079 H   0  0  0  0  0  0  0  0  0  0  0  0
   -1.8689    1.1351    0.6911 H   0  0  0  0  0  0  0  0  0  0  0  0
   -2.8430   -0.2336   -0.4397 H   0  0  0  0  0  0  0  0  0  0  0  0
   -0.2436    2.8440   -0.4571 H   0  0  0  0  0  0  0  0  0  0  0  0
  1  2  3  0
  2  3  1  0
  3  4  1  0
  4  5  1  0
  5  6  1  0
  6  7  1  0
  6  8  1  0
  8  9  2  0
  5  3  1  0
  1 10  1  0
  3 11  1  0
  4 12  1  0
  4 13  1  0
  5 14  1  0
  6 15  1  0
  7 16  1  0
  8 17  1  0
M  END
