
     RDKit          3D

 16 16  0  0  0  0  0  0  0  0999 V2000
    3.2131   -0.5913    0.3392 C   0  0  0  0  0  0  0  0  0  0  0  0
    2.0123   -0.4804    0.2856 C   0  0  0  0  0  0  0  0  0  0  0  0
    0.5741   -0.3319    0.2038 C   0  0  0  0  0  0  0  0  0  0  0  0
   -0.2426   -0.3616    1.2461 C   0  0  0  0  0  0  0  0  0  0  0  0
   -1.6611   -0.1744    0.7776 C   0  0  0  0  0  0  0  0  0  0  0  0
   -1.3843    0.6889   -0.4636 C   0  0  0  0  0  0  0  0  0  0  0  0
   -0.2282   -0.1265   -1.0255 C   0  0  0  0  0  0  0  0  0  0  0  0
    0.4969    0.7345   -1.8443 O   0  0  0  0  0  0  0  0  0  0  0  0
    4.2663   -0.6880    0.3679 H   0  0  0  0  0  0  0  0  0  0  0  0
    0.0711   -0.4984    2.2610 H   0  0  0  0  0  0  0  0  0  0  0  0
   -2.1492   -1.1086    0.5214 H   0  0  0  0  0  0  0  0  0  0  0  0
   -2.2418    0.4536    1.4743 H   0  0  0  0  0  0  0  0  0  0  0  0
   -1.0976    1.7007   -0.1960 H   0  0  0  0  0  0  0  0  0  0  0  0
   -2.2710    0.5901   -1.0983 H   0  0  0  0  0  0  0  0  0  0  0  0
   -0.5485   -1.0393   -1.5121 H   0  0  0  0  0  0  0  0  0  0  0  0
    1.1904    1.2327   -1.3371 H   0  0  0  0  0  0  0  0  0  0  0  0
  1  2  3  0
  2  3  1  0
  3  4  2  0
  4  5  1  0
  5  6  1  0
  6  7  1  0
  7  8  1  0
  7  3  1  0
  1  9  1  0
  4 10  1  0
  5 11  1  0
  5 12  1  0
  6 13  1  0
  6 14  1  0
  7 15  1  0
  8 16  1  0
M  END
