
     RDKit          3D

 23 23  0  0  0  0  0  0  0  0999 V2000
    2.9743   -0.6723    1.1943 C   0  0  0  0  0  0  0  0  0  0  0  0
    1.9684   -0.2911    0.6256 C   0  0  0  0  0  0  0  0  0  0  0  0
    0.7686    0.1907   -0.0565 C   0  0  0  0  0  0  0  0  0  0  0  0
    1.0190    0.6910   -1.4692 C   0  0  0  0  0  0  0  0  0  0  0  0
   -0.3531    0.7750    0.7457 C   0  0  0  0  0  0  0  0  0  0  0  0
   -1.0605    1.9951    0.2539 C   0  0  0  0  0  0  0  0  0  0  0  0
   -0.5119   -0.5548    0.1689 C   0  0  0  0  0  0  0  0  0  0  0  0
   -1.3633   -0.8263   -1.0384 C   0  0  0  0  0  0  0  0  0  0  0  0
   -0.4826   -1.7366    1.1494 C   0  0  0  0  0  0  0  0  0  0  0  0
    3.8457   -1.0107    1.7071 H   0  0  0  0  0  0  0  0  0  0  0  0
    0.1164    1.0769   -1.9523 H   0  0  0  0  0  0  0  0  0  0  0  0
    1.4463   -0.1907   -2.0276 H   0  0  0  0  0  0  0  0  0  0  0  0
    1.8077    1.4657   -1.5078 H   0  0  0  0  0  0  0  0  0  0  0  0
   -0.1120    0.8331    1.8486 H   0  0  0  0  0  0  0  0  0  0  0  0
   -0.3517    2.8650    0.1246 H   0  0  0  0  0  0  0  0  0  0  0  0
   -1.7741    2.3194    1.0418 H   0  0  0  0  0  0  0  0  0  0  0  0
   -1.6279    1.8662   -0.6695 H   0  0  0  0  0  0  0  0  0  0  0  0
   -2.1508   -0.0349   -1.1924 H   0  0  0  0  0  0  0  0  0  0  0  0
   -1.9378   -1.7799   -0.9652 H   0  0  0  0  0  0  0  0  0  0  0  0
   -0.7473   -0.9215   -1.9666 H   0  0  0  0  0  0  0  0  0  0  0  0
    0.3664   -1.6131    1.8322 H   0  0  0  0  0  0  0  0  0  0  0  0
   -0.3732   -2.6609    0.5222 H   0  0  0  0  0  0  0  0  0  0  0  0
   -1.4667   -1.7854    1.6312 H   0  0  0  0  0  0  0  0  0  0  0  0
  1  2  3  0
  2  3  1  0
  3  4  1  0
  3  5  1  0
  5  6  1  0
  5  7  1  0
  7  8  1  0
  7  9  1  0
  7  3  1  0
  1 10  1  0
  4 11  1  0
  4 12  1  0
  4 13  1  0
  5 14  1  0
  6 15  1  0
  6 16  1  0
  6 17  1  0
  8 18  1  0
  8 19  1  0
  8 20  1  0
  9 21  1  0
  9 22  1  0
  9 23  1  0
M  END
