
     RDKit          3D

 21 21  0  0  0  0  0  0  0  0999 V2000
    2.1582   -2.4159   -0.2391 C   0  0  0  0  0  0  0  0  0  0  0  0
    1.6006   -1.4619    0.2474 C   0  0  0  0  0  0  0  0  0  0  0  0
    0.9251   -0.2917    0.8509 C   0  0  0  0  0  0  0  0  0  0  0  0
   -0.5754   -0.5518    0.9854 C   0  0  0  0  0  0  0  0  0  0  0  0
   -1.0737   -0.2225   -0.3807 C   0  0  0  0  0  0  0  0  0  0  0  0
   -2.3382   -0.7061   -0.9812 C   0  0  0  0  0  0  0  0  0  0  0  0
   -0.2237    0.5760   -1.0058 C   0  0  0  0  0  0  0  0  0  0  0  0
    0.9190    0.8499   -0.1063 C   0  0  0  0  0  0  0  0  0  0  0  0
    0.7108    2.1804    0.5776 C   0  0  0  0  0  0  0  0  0  0  0  0
    2.6566   -3.2497   -0.6843 H   0  0  0  0  0  0  0  0  0  0  0  0
    1.3995   -0.0798    1.8126 H   0  0  0  0  0  0  0  0  0  0  0  0
   -0.9968    0.1684    1.6951 H   0  0  0  0  0  0  0  0  0  0  0  0
   -0.6899   -1.6028    1.2512 H   0  0  0  0  0  0  0  0  0  0  0  0
   -3.1132   -0.8212   -0.1839 H   0  0  0  0  0  0  0  0  0  0  0  0
   -2.7662    0.0170   -1.7196 H   0  0  0  0  0  0  0  0  0  0  0  0
   -2.1583   -1.6380   -1.5415 H   0  0  0  0  0  0  0  0  0  0  0  0
   -0.3126    0.9893   -2.0210 H   0  0  0  0  0  0  0  0  0  0  0  0
    1.8646    0.8307   -0.6947 H   0  0  0  0  0  0  0  0  0  0  0  0
    1.1888    2.9507   -0.0847 H   0  0  0  0  0  0  0  0  0  0  0  0
   -0.3867    2.3461    0.6605 H   0  0  0  0  0  0  0  0  0  0  0  0
    1.2116    2.1331    1.5622 H   0  0  0  0  0  0  0  0  0  0  0  0
  1  2  3  0
  2  3  1  0
  3  4  1  0
  4  5  1  0
  5  6  1  0
  5  7  2  0
  7  8  1  0
  8  9  1  0
  8  3  1  0
  1 10  1  0
  3 11  1  0
  4 12  1  0
  4 13  1  0
  6 14  1  0
  6 15  1  0
  6 16  1  0
  7 17  1  0
  8 18  1  0
  9 19  1  0
  9 20  1  0
  9 21  1  0
M  END
