
     RDKit          3D

 15 15  0  0  0  0  0  0  0  0999 V2000
    2.6903    0.5818   -0.6447 C   0  0  0  0  0  0  0  0  0  0  0  0
    1.5025    0.5416   -0.4131 C   0  0  0  0  0  0  0  0  0  0  0  0
    0.0866    0.4872   -0.1617 C   0  0  0  0  0  0  0  0  0  0  0  0
   -0.5887    1.6900   -0.1420 O   0  0  0  0  0  0  0  0  0  0  0  0
   -0.6892   -0.5603   -0.9090 C   0  0  0  0  0  0  0  0  0  0  0  0
   -1.3961   -0.8817    0.3940 C   0  0  0  0  0  0  0  0  0  0  0  0
   -0.1935   -0.2980    1.1129 C   0  0  0  0  0  0  0  0  0  0  0  0
    3.7400    0.6027   -0.8381 H   0  0  0  0  0  0  0  0  0  0  0  0
    0.0008    2.4110    0.1957 H   0  0  0  0  0  0  0  0  0  0  0  0
   -1.3481   -0.1768   -1.7158 H   0  0  0  0  0  0  0  0  0  0  0  0
   -0.0992   -1.4573   -1.2208 H   0  0  0  0  0  0  0  0  0  0  0  0
   -1.5588   -1.9603    0.5685 H   0  0  0  0  0  0  0  0  0  0  0  0
   -2.3035   -0.2375    0.4923 H   0  0  0  0  0  0  0  0  0  0  0  0
    0.5775   -1.0944    1.3129 H   0  0  0  0  0  0  0  0  0  0  0  0
   -0.4204    0.3519    1.9687 H   0  0  0  0  0  0  0  0  0  0  0  0
  1  2  3  0
  2  3  1  0
  3  4  1  0
  3  5  1  0
  5  6  1  0
  6  7  1  0
  7  3  1  0
  1  8  1  0
  4  9  1  0
  5 10  1  0
  5 11  1  0
  6 12  1  0
  6 13  1  0
  7 14  1  0
  7 15  1  0
M  END
