
     RDKit          3D

 17 18  0  0  0  0  0  0  0  0999 V2000
    3.0929    0.4074   -0.1326 C   0  0  0  0  0  0  0  0  0  0  0  0
    2.1339   -0.3054    0.0302 C   0  0  0  0  0  0  0  0  0  0  0  0
    0.9631   -1.1746    0.2547 C   0  0  0  0  0  0  0  0  0  0  0  0
   -0.1400   -0.3669    0.8639 C   0  0  0  0  0  0  0  0  0  0  0  0
   -0.5876    0.7796    0.0098 C   0  0  0  0  0  0  0  0  0  0  0  0
   -0.2159    2.0450    0.4374 O   0  0  0  0  0  0  0  0  0  0  0  0
   -2.0321    0.4237    0.1823 C   0  0  0  0  0  0  0  0  0  0  0  0
   -2.5128   -0.1999    1.2973 O   0  0  0  0  0  0  0  0  0  0  0  0
   -1.5364   -0.9304    0.6981 C   0  0  0  0  0  0  0  0  0  0  0  0
    3.9555    1.0288   -0.2872 H   0  0  0  0  0  0  0  0  0  0  0  0
    1.3114   -1.9551    0.9753 H   0  0  0  0  0  0  0  0  0  0  0  0
    0.5931   -1.6314   -0.6664 H   0  0  0  0  0  0  0  0  0  0  0  0
    0.0054   -0.1078    1.9462 H   0  0  0  0  0  0  0  0  0  0  0  0
   -0.2847    0.6125   -1.0543 H   0  0  0  0  0  0  0  0  0  0  0  0
   -0.3544    2.6624   -0.3083 H   0  0  0  0  0  0  0  0  0  0  0  0
   -2.6706    0.4539   -0.7026 H   0  0  0  0  0  0  0  0  0  0  0  0
   -1.7210   -1.7418   -0.0061 H   0  0  0  0  0  0  0  0  0  0  0  0
  1  2  3  0
  2  3  1  0
  3  4  1  0
  4  5  1  0
  5  6  1  0
  5  7  1  0
  7  8  1  0
  8  9  1  0
  9  4  1  0
  9  7  1  0
  1 10  1  0
  3 11  1  0
  3 12  1  0
  4 13  1  0
  5 14  1  0
  6 15  1  0
  7 16  1  0
  9 17  1  0
M  END
