
     RDKit          3D

 15 16  0  0  0  0  0  0  0  0999 V2000
    2.2264    2.4796    0.5033 C   0  0  0  0  0  0  0  0  0  0  0  0
    1.4097    1.6552    0.1718 C   0  0  0  0  0  0  0  0  0  0  0  0
    0.4307    0.6777   -0.1989 C   0  0  0  0  0  0  0  0  0  0  0  0
    0.5952   -0.3387   -1.0362 C   0  0  0  0  0  0  0  0  0  0  0  0
   -0.6956   -1.0570   -1.0119 C   0  0  0  0  0  0  0  0  0  0  0  0
   -0.8592   -1.6353    0.3710 C   0  0  0  0  0  0  0  0  0  0  0  0
   -1.1777   -0.4983    1.1324 O   0  0  0  0  0  0  0  0  0  0  0  0
   -0.9850    0.5785    0.2662 C   0  0  0  0  0  0  0  0  0  0  0  0
   -1.5786    0.0487   -0.9094 O   0  0  0  0  0  0  0  0  0  0  0  0
    2.9435    3.2302    0.7989 H   0  0  0  0  0  0  0  0  0  0  0  0
    1.5140   -0.5077   -1.5655 H   0  0  0  0  0  0  0  0  0  0  0  0
   -0.8996   -1.7069   -1.8312 H   0  0  0  0  0  0  0  0  0  0  0  0
   -1.6410   -2.4180    0.4328 H   0  0  0  0  0  0  0  0  0  0  0  0
    0.1453   -2.0127    0.6815 H   0  0  0  0  0  0  0  0  0  0  0  0
   -1.4280    1.5047    0.5760 H   0  0  0  0  0  0  0  0  0  0  0  0
  1  2  3  0
  2  3  1  0
  3  4  2  0
  4  5  1  0
  5  6  1  0
  6  7  1  0
  7  8  1  0
  8  9  1  0
  8  3  1  0
  9  5  1  0
  1 10  1  0
  4 11  1  0
  5 12  1  0
  6 13  1  0
  6 14  1  0
  8 15  1  0
M  END
