
     RDKit          3D

 19 19  0  0  0  0  0  0  0  0999 V2000
   -0.3159    2.8691    0.9579 C   0  0  0  0  0  0  0  0  0  0  0  0
   -0.4397    1.7561    0.5712 C   0  0  0  0  0  0  0  0  0  0  0  0
   -0.5778    0.3836    0.1042 C   0  0  0  0  0  0  0  0  0  0  0  0
   -1.0941    0.3264   -1.3237 C   0  0  0  0  0  0  0  0  0  0  0  0
   -1.4362   -0.3548    0.8758 O   0  0  0  0  0  0  0  0  0  0  0  0
   -1.0719   -1.6953    0.6797 C   0  0  0  0  0  0  0  0  0  0  0  0
    0.4008   -1.6135    0.4847 C   0  0  0  0  0  0  0  0  0  0  0  0
    0.6849   -0.3681    0.1421 C   0  0  0  0  0  0  0  0  0  0  0  0
    2.0782    0.1092   -0.1406 C   0  0  0  0  0  0  0  0  0  0  0  0
   -0.2131    3.8882    1.2950 H   0  0  0  0  0  0  0  0  0  0  0  0
   -1.1209   -0.7432   -1.6185 H   0  0  0  0  0  0  0  0  0  0  0  0
   -2.0638    0.8332   -1.4256 H   0  0  0  0  0  0  0  0  0  0  0  0
   -0.3014    0.8046   -1.9572 H   0  0  0  0  0  0  0  0  0  0  0  0
   -1.2496   -2.2817    1.6136 H   0  0  0  0  0  0  0  0  0  0  0  0
   -1.5926   -2.1379   -0.1997 H   0  0  0  0  0  0  0  0  0  0  0  0
    1.0890   -2.4578    0.6126 H   0  0  0  0  0  0  0  0  0  0  0  0
    2.3013   -0.2138   -1.1826 H   0  0  0  0  0  0  0  0  0  0  0  0
    2.8133   -0.3116    0.5748 H   0  0  0  0  0  0  0  0  0  0  0  0
    2.1096    1.2072   -0.0638 H   0  0  0  0  0  0  0  0  0  0  0  0
  1  2  3  0
  2  3  1  0
  3  4  1  0
  3  5  1  0
  5  6  1  0
  6  7  1  0
  7  8  2  0
  8  9  1  0
  8  3  1  0
  1 10  1  0
  4 11  1  0
  4 12  1  0
  4 13  1  0
  6 14  1  0
  6 15  1  0
  7 16  1  0
  9 17  1  0
  9 18  1  0
  9 19  1  0
M  END
