
     RDKit          3D

 17 17  0  0  0  0  0  0  0  0999 V2000
   -1.6553   -2.3058    0.7964 C   0  0  0  0  0  0  0  0  0  0  0  0
   -0.9582   -1.3111    1.0570 C   0  0  0  0  0  0  0  0  0  0  0  0
   -0.1221   -0.1622    1.3567 C   0  0  0  0  0  0  0  0  0  0  0  0
   -0.6723    0.9421    1.5960 C   0  0  0  0  0  0  0  0  0  0  0  0
   -1.3354    2.2168    1.8801 C   0  0  0  0  0  0  0  0  0  0  0  0
    0.8982   -0.0610    0.1346 C   0  0  0  0  0  0  0  0  0  0  0  0
    0.2126    0.1813   -1.1463 C   0  0  0  0  0  0  0  0  0  0  0  0
    1.1487    0.2023   -2.3255 C   0  0  0  0  0  0  0  0  0  0  0  0
    0.0880   -0.7038   -2.1902 O   0  0  0  0  0  0  0  0  0  0  0  0
   -2.2848   -3.2115    0.5796 H   0  0  0  0  0  0  0  0  0  0  0  0
    0.6602   -0.6220    2.1002 H   0  0  0  0  0  0  0  0  0  0  0  0
   -1.7636    3.0393    2.0638 H   0  0  0  0  0  0  0  0  0  0  0  0
    1.4207    0.9247    0.4305 H   0  0  0  0  0  0  0  0  0  0  0  0
    1.6182   -0.8374    0.1834 H   0  0  0  0  0  0  0  0  0  0  0  0
   -0.5030    1.0740   -1.1875 H   0  0  0  0  0  0  0  0  0  0  0  0
    2.1208   -0.3570   -2.2529 H   0  0  0  0  0  0  0  0  0  0  0  0
    1.1274    0.9912   -3.0760 H   0  0  0  0  0  0  0  0  0  0  0  0
  1  2  3  0
  2  3  1  0
  3  4  1  0
  4  5  3  0
  3  6  1  0
  6  7  1  0
  7  8  1  0
  8  9  1  0
  9  7  1  0
  1 10  1  0
  3 11  1  0
  5 12  1  0
  6 13  1  0
  6 14  1  0
  7 15  1  0
  8 16  1  0
  8 17  1  0
M  END
