
     RDKit          3D

 19 20  0  0  0  0  0  0  0  0999 V2000
    3.7100    1.1902    0.7041 C   0  0  0  0  0  0  0  0  0  0  0  0
    2.7078    0.8037    0.1282 C   0  0  0  0  0  0  0  0  0  0  0  0
    1.5112    0.3173   -0.5619 C   0  0  0  0  0  0  0  0  0  0  0  0
    1.2646   -1.1876   -0.5785 C   0  0  0  0  0  0  0  0  0  0  0  0
    0.4260   -0.2781    0.2487 C   0  0  0  0  0  0  0  0  0  0  0  0
   -0.9748   -0.0406   -0.2737 C   0  0  0  0  0  0  0  0  0  0  0  0
   -2.0738   -0.6506    0.5585 C   0  0  0  0  0  0  0  0  0  0  0  0
   -2.6324    0.7209    0.3789 C   0  0  0  0  0  0  0  0  0  0  0  0
   -1.4265    1.2512   -0.0182 O   0  0  0  0  0  0  0  0  0  0  0  0
    4.5783    1.5187    1.2173 H   0  0  0  0  0  0  0  0  0  0  0  0
    1.2553    0.8706   -1.4834 H   0  0  0  0  0  0  0  0  0  0  0  0
    2.0083   -1.8224   -0.0322 H   0  0  0  0  0  0  0  0  0  0  0  0
    0.8485   -1.6071   -1.5352 H   0  0  0  0  0  0  0  0  0  0  0  0
    0.5560   -0.3520    1.3525 H   0  0  0  0  0  0  0  0  0  0  0  0
   -1.0453   -0.2429   -1.3559 H   0  0  0  0  0  0  0  0  0  0  0  0
   -2.5722   -1.4598   -0.0164 H   0  0  0  0  0  0  0  0  0  0  0  0
   -1.7711   -0.9053    1.5907 H   0  0  0  0  0  0  0  0  0  0  0  0
   -2.9540    1.1440    1.3516 H   0  0  0  0  0  0  0  0  0  0  0  0
   -3.4158    0.7299   -0.4046 H   0  0  0  0  0  0  0  0  0  0  0  0
  1  2  3  0
  2  3  1  0
  3  4  1  0
  4  5  1  0
  5  6  1  0
  6  7  1  0
  7  8  1  0
  8  9  1  0
  5  3  1  0
  9  6  1  0
  1 10  1  0
  3 11  1  0
  4 12  1  0
  4 13  1  0
  5 14  1  0
  6 15  1  0
  7 16  1  0
  7 17  1  0
  8 18  1  0
  8 19  1  0
M  END
