
     RDKit          3D

 19 18  0  0  0  0  0  0  0  0999 V2000
    0.4702    1.7829    2.5734 C   0  0  0  0  0  0  0  0  0  0  0  0
    0.4154    1.1189    1.6492 C   0  0  0  0  0  0  0  0  0  0  0  0
    0.3506    0.2185    0.4391 C   0  0  0  0  0  0  0  0  0  0  0  0
    1.6129    0.2956   -0.2872 C   0  0  0  0  0  0  0  0  0  0  0  0
    1.9510   -0.3288   -1.5143 C   0  0  0  0  0  0  0  0  0  0  0  0
    1.1533   -1.4228   -1.6778 O   0  0  0  0  0  0  0  0  0  0  0  0
   -0.8822   -0.3097   -0.0712 C   0  0  0  0  0  0  0  0  0  0  0  0
   -2.0619    0.1289   -0.7613 C   0  0  0  0  0  0  0  0  0  0  0  0
   -0.8782   -1.8033   -0.1775 O   0  0  0  0  0  0  0  0  0  0  0  0
    0.5362    2.3681    3.3866 H   0  0  0  0  0  0  0  0  0  0  0  0
    0.6718   -0.8433    1.1349 H   0  0  0  0  0  0  0  0  0  0  0  0
    2.2017    1.2731   -0.1437 H   0  0  0  0  0  0  0  0  0  0  0  0
    2.3458   -0.3440    0.4712 H   0  0  0  0  0  0  0  0  0  0  0  0
    2.5448   -0.2846   -2.3096 H   0  0  0  0  0  0  0  0  0  0  0  0
   -1.4575   -0.4589    1.0776 H   0  0  0  0  0  0  0  0  0  0  0  0
   -2.8285    0.6598   -0.1779 H   0  0  0  0  0  0  0  0  0  0  0  0
   -2.6152   -0.7858   -1.1780 H   0  0  0  0  0  0  0  0  0  0  0  0
   -1.9153    0.7852   -1.6611 H   0  0  0  0  0  0  0  0  0  0  0  0
   -1.6149   -2.0499   -0.7721 H   0  0  0  0  0  0  0  0  0  0  0  0
  1  2  3  0
  2  3  1  0
  3  4  1  0
  4  5  1  0
  5  6  2  0
  3  7  1  0
  7  8  1  0
  7  9  1  0
  1 10  1  0
  3 11  1  0
  4 12  1  0
  4 13  1  0
  5 14  1  0
  7 15  1  0
  8 16  1  0
  8 17  1  0
  8 18  1  0
  9 19  1  0
M  END
