
     RDKit          3D

 15 15  0  0  0  0  0  0  0  0999 V2000
   -1.8137    2.1804    0.2650 C   0  0  0  0  0  0  0  0  0  0  0  0
   -1.4417    1.0799    0.0973 C   0  0  0  0  0  0  0  0  0  0  0  0
   -0.9818   -0.2714   -0.1342 C   0  0  0  0  0  0  0  0  0  0  0  0
    0.4969   -0.4483    0.1278 C   0  0  0  0  0  0  0  0  0  0  0  0
    0.9600   -1.2802    0.9081 O   0  0  0  0  0  0  0  0  0  0  0  0
    1.2955    0.3859   -0.5837 O   0  0  0  0  0  0  0  0  0  0  0  0
    2.6849    0.2780   -0.6600 C   0  0  0  0  0  0  0  0  0  0  0  0
   -1.9515   -1.2979    0.0984 C   0  0  0  0  0  0  0  0  0  0  0  0
   -1.5649   -1.0380   -1.2022 O   0  0  0  0  0  0  0  0  0  0  0  0
   -2.1350    3.1370    0.4153 H   0  0  0  0  0  0  0  0  0  0  0  0
    3.1002    1.1520   -1.2025 H   0  0  0  0  0  0  0  0  0  0  0  0
    2.7943   -0.6220   -1.4108 H   0  0  0  0  0  0  0  0  0  0  0  0
    3.2085    0.0162    0.2472 H   0  0  0  0  0  0  0  0  0  0  0  0
   -1.6610   -2.2721    0.5451 H   0  0  0  0  0  0  0  0  0  0  0  0
   -2.9905   -0.9994    0.4167 H   0  0  0  0  0  0  0  0  0  0  0  0
  1  2  3  0
  2  3  1  0
  3  4  1  0
  4  5  2  0
  4  6  1  0
  6  7  1  0
  3  8  1  0
  8  9  1  0
  9  3  1  0
  1 10  1  0
  7 11  1  0
  7 12  1  0
  7 13  1  0
  8 14  1  0
  8 15  1  0
M  END
