
     RDKit          3D

 21 20  0  0  0  0  0  0  0  0999 V2000
   -3.1277   -2.0053    1.5148 C   0  0  0  0  0  0  0  0  0  0  0  0
   -2.6792   -1.3001    0.6193 C   0  0  0  0  0  0  0  0  0  0  0  0
   -2.1199   -0.4664   -0.4454 C   0  0  0  0  0  0  0  0  0  0  0  0
   -2.6269    0.9346   -0.2285 C   0  0  0  0  0  0  0  0  0  0  0  0
   -0.6464   -0.3943   -0.3363 C   0  0  0  0  0  0  0  0  0  0  0  0
    0.5556   -0.3166   -0.2560 C   0  0  0  0  0  0  0  0  0  0  0  0
    2.0233   -0.2337   -0.1350 C   0  0  0  0  0  0  0  0  0  0  0  0
    2.5982    0.4520   -1.3568 C   0  0  0  0  0  0  0  0  0  0  0  0
    2.3635    0.4765    1.1330 C   0  0  0  0  0  0  0  0  0  0  0  0
   -3.4977   -2.6136    2.2946 H   0  0  0  0  0  0  0  0  0  0  0  0
   -2.4271   -0.8877   -1.4125 H   0  0  0  0  0  0  0  0  0  0  0  0
   -3.2115    1.0403    0.7132 H   0  0  0  0  0  0  0  0  0  0  0  0
   -3.3504    1.1410   -1.0536 H   0  0  0  0  0  0  0  0  0  0  0  0
   -1.8359    1.7025   -0.3188 H   0  0  0  0  0  0  0  0  0  0  0  0
    2.4849   -1.2483   -0.0946 H   0  0  0  0  0  0  0  0  0  0  0  0
    2.3051    1.5016   -1.3830 H   0  0  0  0  0  0  0  0  0  0  0  0
    3.6833    0.3442   -1.3917 H   0  0  0  0  0  0  0  0  0  0  0  0
    2.1412   -0.0460   -2.2538 H   0  0  0  0  0  0  0  0  0  0  0  0
    3.4387    0.3001    1.3484 H   0  0  0  0  0  0  0  0  0  0  0  0
    2.1913    1.5684    1.0972 H   0  0  0  0  0  0  0  0  0  0  0  0
    1.7376    0.0508    1.9454 H   0  0  0  0  0  0  0  0  0  0  0  0
  1  2  3  0
  2  3  1  0
  3  4  1  0
  3  5  1  0
  5  6  3  0
  6  7  1  0
  7  8  1  0
  7  9  1  0
  1 10  1  0
  3 11  1  0
  4 12  1  0
  4 13  1  0
  4 14  1  0
  7 15  1  0
  8 16  1  0
  8 17  1  0
  8 18  1  0
  9 19  1  0
  9 20  1  0
  9 21  1  0
M  END
