
     RDKit          3D

 17 17  0  0  0  0  0  0  0  0999 V2000
    2.8121    0.7261    0.6675 C   0  0  0  0  0  0  0  0  0  0  0  0
    1.4607    0.0528    0.9963 C   0  0  0  0  0  0  0  0  0  0  0  0
    0.4813   -0.4310    1.2155 C   0  0  0  0  0  0  0  0  0  0  0  0
    0.0123   -1.5397    0.1532 C   0  0  0  0  0  0  0  0  0  0  0  0
    1.0252   -1.8233   -0.7912 O   0  0  0  0  0  0  0  0  0  0  0  0
   -0.6755   -0.2186   -0.1001 C   0  0  0  0  0  0  0  0  0  0  0  0
   -2.1161   -0.1361    0.7513 C   0  0  0  0  0  0  0  0  0  0  0  0
   -0.4539    0.7616   -0.6398 C   0  0  0  0  0  0  0  0  0  0  0  0
   -0.1567    2.1702   -1.4151 C   0  0  0  0  0  0  0  0  0  0  0  0
    4.0072    1.3321    0.3746 H   0  0  0  0  0  0  0  0  0  0  0  0
    0.0075   -0.5000    2.2679 H   0  0  0  0  0  0  0  0  0  0  0  0
   -0.6236   -2.2642    0.5055 H   0  0  0  0  0  0  0  0  0  0  0  0
    0.9646   -1.1595   -1.5868 H   0  0  0  0  0  0  0  0  0  0  0  0
   -2.2449   -1.0270    1.3002 H   0  0  0  0  0  0  0  0  0  0  0  0
   -2.7922    0.2139   -0.0162 H   0  0  0  0  0  0  0  0  0  0  0  0
   -1.7488    0.7301    1.4304 H   0  0  0  0  0  0  0  0  0  0  0  0
    0.0407    3.1125   -1.9433 H   0  0  0  0  0  0  0  0  0  0  0  0
  1  2  3  0
  2  3  1  0
  3  4  1  0
  4  5  1  0
  4  6  1  0
  6  7  1  0
  6  8  1  0
  8  9  3  0
  6  3  1  0
  1 10  1  0
  3 11  1  0
  4 12  1  0
  5 13  1  0
  7 14  1  0
  7 15  1  0
  7 16  1  0
  9 17  1  0
M  END
