
     RDKit          3D

 19 19  0  0  0  0  0  0  0  0999 V2000
    1.8039    1.7885    1.3151 C   0  0  0  0  0  0  0  0  0  0  0  0
    1.6076    1.2749    0.2350 C   0  0  0  0  0  0  0  0  0  0  0  0
    1.3671    0.6449   -1.0594 C   0  0  0  0  0  0  0  0  0  0  0  0
    1.6556   -0.8460   -1.1079 C   0  0  0  0  0  0  0  0  0  0  0  0
    0.2687   -0.3130   -1.2592 C   0  0  0  0  0  0  0  0  0  0  0  0
   -0.7119   -0.6733   -0.1960 C   0  0  0  0  0  0  0  0  0  0  0  0
   -1.6089   -1.6136   -0.7522 O   0  0  0  0  0  0  0  0  0  0  0  0
   -1.5701    0.4879    0.2530 C   0  0  0  0  0  0  0  0  0  0  0  0
   -2.4721   -0.0384    1.2015 O   0  0  0  0  0  0  0  0  0  0  0  0
    1.9662    2.2322    2.2772 H   0  0  0  0  0  0  0  0  0  0  0  0
    1.7474    1.2426   -1.9100 H   0  0  0  0  0  0  0  0  0  0  0  0
    1.9658   -1.3352   -0.1751 H   0  0  0  0  0  0  0  0  0  0  0  0
    2.2147   -1.2291   -2.0014 H   0  0  0  0  0  0  0  0  0  0  0  0
   -0.1346   -0.3461   -2.3148 H   0  0  0  0  0  0  0  0  0  0  0  0
   -0.1841   -1.0998    0.6567 H   0  0  0  0  0  0  0  0  0  0  0  0
   -1.4059   -2.5102   -0.4248 H   0  0  0  0  0  0  0  0  0  0  0  0
   -0.9985    1.2672    0.7945 H   0  0  0  0  0  0  0  0  0  0  0  0
   -2.1301    0.9053   -0.6129 H   0  0  0  0  0  0  0  0  0  0  0  0
   -3.3806    0.1613    0.8994 H   0  0  0  0  0  0  0  0  0  0  0  0
  1  2  3  0
  2  3  1  0
  3  4  1  0
  4  5  1  0
  5  6  1  0
  6  7  1  0
  6  8  1  0
  8  9  1  0
  5  3  1  0
  1 10  1  0
  3 11  1  0
  4 12  1  0
  4 13  1  0
  5 14  1  0
  6 15  1  0
  7 16  1  0
  8 17  1  0
  8 18  1  0
  9 19  1  0
M  END
