
     RDKit          3D

 21 21  0  0  0  0  0  0  0  0999 V2000
    1.8593   -1.5384    2.9802 C   0  0  0  0  0  0  0  0  0  0  0  0
    1.5093   -0.9314    1.9950 C   0  0  0  0  0  0  0  0  0  0  0  0
    1.1039   -0.1920    0.7783 C   0  0  0  0  0  0  0  0  0  0  0  0
   -0.2848   -0.4846    0.3410 C   0  0  0  0  0  0  0  0  0  0  0  0
   -0.7778    0.2095   -0.8715 C   0  0  0  0  0  0  0  0  0  0  0  0
   -0.7812    1.7145   -0.7136 C   0  0  0  0  0  0  0  0  0  0  0  0
   -2.2227   -0.2238   -1.1189 C   0  0  0  0  0  0  0  0  0  0  0  0
    2.1853   -0.1598   -0.3056 C   0  0  0  0  0  0  0  0  0  0  0  0
    1.7988    0.9371    0.4512 O   0  0  0  0  0  0  0  0  0  0  0  0
    2.1898   -2.0830    3.8591 H   0  0  0  0  0  0  0  0  0  0  0  0
   -0.9682   -0.1662    1.1894 H   0  0  0  0  0  0  0  0  0  0  0  0
   -0.4213   -1.5930    0.2381 H   0  0  0  0  0  0  0  0  0  0  0  0
   -0.1583    0.0168   -1.7813 H   0  0  0  0  0  0  0  0  0  0  0  0
    0.2700    2.0600   -0.8622 H   0  0  0  0  0  0  0  0  0  0  0  0
   -1.1587    2.0579    0.2553 H   0  0  0  0  0  0  0  0  0  0  0  0
   -1.4206    2.1657   -1.5204 H   0  0  0  0  0  0  0  0  0  0  0  0
   -2.4263   -0.4311   -2.1918 H   0  0  0  0  0  0  0  0  0  0  0  0
   -2.3785   -1.1600   -0.5330 H   0  0  0  0  0  0  0  0  0  0  0  0
   -2.8814    0.5332   -0.6894 H   0  0  0  0  0  0  0  0  0  0  0  0
    1.8392   -0.0500   -1.3771 H   0  0  0  0  0  0  0  0  0  0  0  0
    3.1243   -0.6815   -0.1227 H   0  0  0  0  0  0  0  0  0  0  0  0
  1  2  3  0
  2  3  1  0
  3  4  1  0
  4  5  1  0
  5  6  1  0
  5  7  1  0
  3  8  1  0
  8  9  1  0
  9  3  1  0
  1 10  1  0
  4 11  1  0
  4 12  1  0
  5 13  1  0
  6 14  1  0
  6 15  1  0
  6 16  1  0
  7 17  1  0
  7 18  1  0
  7 19  1  0
  8 20  1  0
  8 21  1  0
M  END
