
     RDKit          3D

 19 19  0  0  0  0  0  0  0  0999 V2000
    3.7249    1.0285    0.4006 C   0  0  0  0  0  0  0  0  0  0  0  0
    2.6535    0.7136   -0.0766 C   0  0  0  0  0  0  0  0  0  0  0  0
    1.3655    0.3106   -0.6448 C   0  0  0  0  0  0  0  0  0  0  0  0
    1.1338   -1.1654   -0.4078 C   0  0  0  0  0  0  0  0  0  0  0  0
   -0.3558   -1.2775   -0.4808 C   0  0  0  0  0  0  0  0  0  0  0  0
   -0.8111    0.1602   -0.3570 C   0  0  0  0  0  0  0  0  0  0  0  0
   -1.8187    0.2132    0.5958 O   0  0  0  0  0  0  0  0  0  0  0  0
   -2.9491    0.7484    0.0023 C   0  0  0  0  0  0  0  0  0  0  0  0
    0.3013    0.8808    0.0701 O   0  0  0  0  0  0  0  0  0  0  0  0
    4.6418    1.3134    0.8224 H   0  0  0  0  0  0  0  0  0  0  0  0
    1.3236    0.5291   -1.7151 H   0  0  0  0  0  0  0  0  0  0  0  0
    1.5749   -1.7871   -1.2186 H   0  0  0  0  0  0  0  0  0  0  0  0
    1.5647   -1.4204    0.5705 H   0  0  0  0  0  0  0  0  0  0  0  0
   -0.7102   -1.6908   -1.4538 H   0  0  0  0  0  0  0  0  0  0  0  0
   -0.7099   -1.8754    0.3856 H   0  0  0  0  0  0  0  0  0  0  0  0
   -1.1922    0.5573   -1.3142 H   0  0  0  0  0  0  0  0  0  0  0  0
   -3.3018    0.1339   -0.8597 H   0  0  0  0  0  0  0  0  0  0  0  0
   -2.6464    1.7560   -0.4043 H   0  0  0  0  0  0  0  0  0  0  0  0
   -3.7887    0.8718    0.7247 H   0  0  0  0  0  0  0  0  0  0  0  0
  1  2  3  0
  2  3  1  0
  3  4  1  0
  4  5  1  0
  5  6  1  0
  6  7  1  0
  7  8  1  0
  6  9  1  0
  9  3  1  0
  1 10  1  0
  3 11  1  0
  4 12  1  0
  4 13  1  0
  5 14  1  0
  5 15  1  0
  6 16  1  0
  8 17  1  0
  8 18  1  0
  8 19  1  0
M  END
