
     RDKit          3D

 17 19  0  0  0  0  0  0  0  0999 V2000
    1.9478   -1.0244    1.6047 C   0  0  0  0  0  0  0  0  0  0  0  0
    1.2629   -0.1217    1.1583 C   0  0  0  0  0  0  0  0  0  0  0  0
    0.4391    0.9986    0.6202 C   0  0  0  0  0  0  0  0  0  0  0  0
    1.1813    1.9331    0.0833 O   0  0  0  0  0  0  0  0  0  0  0  0
    0.6414    1.2787   -0.9051 C   0  0  0  0  0  0  0  0  0  0  0  0
    0.4563   -0.1704   -1.2282 C   0  0  0  0  0  0  0  0  0  0  0  0
   -0.9719   -0.3256   -0.7468 C   0  0  0  0  0  0  0  0  0  0  0  0
   -1.3619   -0.8353    0.5413 C   0  0  0  0  0  0  0  0  0  0  0  0
   -0.9865    0.6406    0.4927 C   0  0  0  0  0  0  0  0  0  0  0  0
    2.5443   -1.8155    1.9816 H   0  0  0  0  0  0  0  0  0  0  0  0
   -0.1933    1.8676   -1.4020 H   0  0  0  0  0  0  0  0  0  0  0  0
    1.1593   -0.8464   -0.7493 H   0  0  0  0  0  0  0  0  0  0  0  0
    0.4774   -0.3225   -2.3210 H   0  0  0  0  0  0  0  0  0  0  0  0
   -1.7452   -0.1437   -1.5036 H   0  0  0  0  0  0  0  0  0  0  0  0
   -0.6624   -1.4045    1.2187 H   0  0  0  0  0  0  0  0  0  0  0  0
   -2.4026   -1.1015    0.7055 H   0  0  0  0  0  0  0  0  0  0  0  0
   -1.7859    1.3929    0.4497 H   0  0  0  0  0  0  0  0  0  0  0  0
  1  2  3  0
  2  3  1  0
  3  4  1  0
  4  5  1  0
  5  6  1  0
  6  7  1  0
  7  8  1  0
  8  9  1  0
  5  3  1  0
  9  7  1  0
  9  3  1  0
  1 10  1  0
  5 11  1  0
  6 12  1  0
  6 13  1  0
  7 14  1  0
  8 15  1  0
  8 16  1  0
  9 17  1  0
M  END
