
     RDKit          3D

 17 17  0  0  0  0  0  0  0  0999 V2000
    2.2453   -1.2822   -1.0183 C   0  0  0  0  0  0  0  0  0  0  0  0
    1.3718   -0.5302   -0.6183 C   0  0  0  0  0  0  0  0  0  0  0  0
    0.3108    0.3633   -0.1584 C   0  0  0  0  0  0  0  0  0  0  0  0
    0.7523    1.7574   -0.1954 C   0  0  0  0  0  0  0  0  0  0  0  0
    0.6564    2.3867   -1.2302 O   0  0  0  0  0  0  0  0  0  0  0  0
   -0.1302   -0.0872    1.2168 C   0  0  0  0  0  0  0  0  0  0  0  0
   -1.4114   -0.8352    0.9105 C   0  0  0  0  0  0  0  0  0  0  0  0
   -1.3641   -1.1053   -0.4555 O   0  0  0  0  0  0  0  0  0  0  0  0
   -0.9188    0.1169   -1.0103 C   0  0  0  0  0  0  0  0  0  0  0  0
    3.0157   -1.9234   -1.3748 H   0  0  0  0  0  0  0  0  0  0  0  0
    1.1576    2.2297    0.6738 H   0  0  0  0  0  0  0  0  0  0  0  0
    0.6366   -0.7470    1.6681 H   0  0  0  0  0  0  0  0  0  0  0  0
   -0.3617    0.7521    1.8947 H   0  0  0  0  0  0  0  0  0  0  0  0
   -1.4317   -1.7741    1.5047 H   0  0  0  0  0  0  0  0  0  0  0  0
   -2.2748   -0.1826    1.1251 H   0  0  0  0  0  0  0  0  0  0  0  0
   -0.5665   -0.0215   -2.0474 H   0  0  0  0  0  0  0  0  0  0  0  0
   -1.6874    0.8826   -0.8851 H   0  0  0  0  0  0  0  0  0  0  0  0
  1  2  3  0
  2  3  1  0
  3  4  1  0
  4  5  2  0
  3  6  1  0
  6  7  1  0
  7  8  1  0
  8  9  1  0
  9  3  1  0
  1 10  1  0
  4 11  1  0
  6 12  1  0
  6 13  1  0
  7 14  1  0
  7 15  1  0
  9 16  1  0
  9 17  1  0
M  END
