
     RDKit          3D

 13 13  0  0  0  0  0  0  0  0999 V2000
    2.5312    0.9038   -0.5736 C   0  0  0  0  0  0  0  0  0  0  0  0
    1.3830    0.5586   -0.4367 C   0  0  0  0  0  0  0  0  0  0  0  0
   -0.0090    0.1507   -0.2474 C   0  0  0  0  0  0  0  0  0  0  0  0
   -0.4678   -0.8629   -1.2342 C   0  0  0  0  0  0  0  0  0  0  0  0
   -1.5496   -0.7421   -1.7861 O   0  0  0  0  0  0  0  0  0  0  0  0
   -0.3041   -0.2670    1.1716 C   0  0  0  0  0  0  0  0  0  0  0  0
   -1.5783    0.4052    0.8720 C   0  0  0  0  0  0  0  0  0  0  0  0
   -2.7445    0.2914    1.2642 O   0  0  0  0  0  0  0  0  0  0  0  0
   -0.9166    1.2140   -0.0306 O   0  0  0  0  0  0  0  0  0  0  0  0
    3.5522    1.2180   -0.7132 H   0  0  0  0  0  0  0  0  0  0  0  0
    0.1277   -1.7216   -1.4903 H   0  0  0  0  0  0  0  0  0  0  0  0
   -0.3304   -1.3640    1.2613 H   0  0  0  0  0  0  0  0  0  0  0  0
    0.3063    0.2159    1.9430 H   0  0  0  0  0  0  0  0  0  0  0  0
  1  2  3  0
  2  3  1  0
  3  4  1  0
  4  5  2  0
  3  6  1  0
  6  7  1  0
  7  8  2  0
  7  9  1  0
  9  3  1  0
  1 10  1  0
  4 11  1  0
  6 12  1  0
  6 13  1  0
M  END
