
     RDKit          3D

 17 17  0  0  0  0  0  0  0  0999 V2000
    2.5245   -1.6808    0.3446 C   0  0  0  0  0  0  0  0  0  0  0  0
    1.5812   -1.0686   -0.1282 C   0  0  0  0  0  0  0  0  0  0  0  0
    0.4395   -0.3383   -0.7242 C   0  0  0  0  0  0  0  0  0  0  0  0
    0.7488    0.4780   -1.9071 C   0  0  0  0  0  0  0  0  0  0  0  0
    1.8917    0.5949   -2.2857 O   0  0  0  0  0  0  0  0  0  0  0  0
   -0.7533   -1.0646   -0.6911 O   0  0  0  0  0  0  0  0  0  0  0  0
   -0.6909    0.0311    0.1679 C   0  0  0  0  0  0  0  0  0  0  0  0
   -0.4603   -0.2426    1.6474 C   0  0  0  0  0  0  0  0  0  0  0  0
   -1.6168    1.1575   -0.1473 C   0  0  0  0  0  0  0  0  0  0  0  0
    3.3335   -2.2120    0.7705 H   0  0  0  0  0  0  0  0  0  0  0  0
   -0.0448    0.9752   -2.4397 H   0  0  0  0  0  0  0  0  0  0  0  0
   -1.3065    0.2138    2.2331 H   0  0  0  0  0  0  0  0  0  0  0  0
    0.5051    0.2342    1.9105 H   0  0  0  0  0  0  0  0  0  0  0  0
   -0.3739   -1.3163    1.8685 H   0  0  0  0  0  0  0  0  0  0  0  0
   -1.5839    1.9462    0.6318 H   0  0  0  0  0  0  0  0  0  0  0  0
   -1.5302    1.5532   -1.1693 H   0  0  0  0  0  0  0  0  0  0  0  0
   -2.6637    0.7394   -0.0818 H   0  0  0  0  0  0  0  0  0  0  0  0
  1  2  3  0
  2  3  1  0
  3  4  1  0
  4  5  2  0
  3  6  1  0
  6  7  1  0
  7  8  1  0
  7  9  1  0
  7  3  1  0
  1 10  1  0
  4 11  1  0
  8 12  1  0
  8 13  1  0
  8 14  1  0
  9 15  1  0
  9 16  1  0
  9 17  1  0
M  END
