
     RDKit          3D

 17 19  0  0  0  0  0  0  0  0999 V2000
    3.3508   -1.2735    0.9623 C   0  0  0  0  0  0  0  0  0  0  0  0
    2.2226   -1.1808    0.5405 C   0  0  0  0  0  0  0  0  0  0  0  0
    0.8636   -1.0597    0.0342 C   0  0  0  0  0  0  0  0  0  0  0  0
   -0.1055   -0.3274    0.9190 C   0  0  0  0  0  0  0  0  0  0  0  0
    0.6982    0.8042    0.7254 O   0  0  0  0  0  0  0  0  0  0  0  0
    0.5093    0.2840   -0.5421 C   0  0  0  0  0  0  0  0  0  0  0  0
   -0.8872    0.0355   -0.2055 C   0  0  0  0  0  0  0  0  0  0  0  0
   -1.6430    0.9363   -0.9930 C   0  0  0  0  0  0  0  0  0  0  0  0
   -2.0010    0.8036    0.3509 C   0  0  0  0  0  0  0  0  0  0  0  0
    4.3413   -1.3417    1.3455 H   0  0  0  0  0  0  0  0  0  0  0  0
    0.4987   -1.9383   -0.4921 H   0  0  0  0  0  0  0  0  0  0  0  0
   -0.3542   -0.6548    1.8650 H   0  0  0  0  0  0  0  0  0  0  0  0
    0.9207    0.6645   -1.4005 H   0  0  0  0  0  0  0  0  0  0  0  0
   -2.2818    0.4545   -1.7977 H   0  0  0  0  0  0  0  0  0  0  0  0
   -1.3713    1.9711   -1.3629 H   0  0  0  0  0  0  0  0  0  0  0  0
   -1.8926    1.6635    1.0524 H   0  0  0  0  0  0  0  0  0  0  0  0
   -2.8684    0.1590    0.6478 H   0  0  0  0  0  0  0  0  0  0  0  0
  1  2  3  0
  2  3  1  0
  3  4  1  0
  4  5  1  0
  5  6  1  0
  6  7  1  0
  7  8  1  0
  8  9  1  0
  6  3  1  0
  9  7  1  0
  7  4  1  0
  1 10  1  0
  3 11  1  0
  4 12  1  0
  6 13  1  0
  8 14  1  0
  8 15  1  0
  9 16  1  0
  9 17  1  0
M  END
