
     RDKit          3D

 21 20  0  0  0  0  0  0  0  0999 V2000
    1.1606    2.2693   -1.0694 C   0  0  0  0  0  0  0  0  0  0  0  0
    1.1021    1.5788   -0.7595 C   0  0  0  0  0  0  0  0  0  0  0  0
    0.9688    0.0619   -0.0893 C   0  0  0  0  0  0  0  0  0  0  0  0
   -0.3000   -0.2949    0.3038 C   0  0  0  0  0  0  0  0  0  0  0  0
   -1.5424   -0.0354   -0.5421 C   0  0  0  0  0  0  0  0  0  0  0  0
   -2.7199   -0.6037    0.4417 C   0  0  0  0  0  0  0  0  0  0  0  0
   -2.6559    0.1873    1.6408 O   0  0  0  0  0  0  0  0  0  0  0  0
    1.8512   -0.6729   -0.8264 O   0  0  0  0  0  0  0  0  0  0  0  0
    2.9663   -0.9453   -0.0323 C   0  0  0  0  0  0  0  0  0  0  0  0
    1.2627    3.6349   -1.6782 H   0  0  0  0  0  0  0  0  0  0  0  0
    1.5378    0.3811    0.9028 H   0  0  0  0  0  0  0  0  0  0  0  0
   -0.2404   -1.5783    0.1730 H   0  0  0  0  0  0  0  0  0  0  0  0
   -0.5539   -0.4384    1.4281 H   0  0  0  0  0  0  0  0  0  0  0  0
   -1.7640   -0.6111   -1.4328 H   0  0  0  0  0  0  0  0  0  0  0  0
   -1.7757    1.0679   -0.6855 H   0  0  0  0  0  0  0  0  0  0  0  0
   -2.5252   -1.6582    0.5185 H   0  0  0  0  0  0  0  0  0  0  0  0
   -3.6796   -0.4220   -0.1208 H   0  0  0  0  0  0  0  0  0  0  0  0
   -2.8010    1.1522    1.2339 H   0  0  0  0  0  0  0  0  0  0  0  0
    3.7277   -1.5818   -0.5300 H   0  0  0  0  0  0  0  0  0  0  0  0
    3.4811   -0.0138    0.2254 H   0  0  0  0  0  0  0  0  0  0  0  0
    2.4996   -1.4776    0.8984 H   0  0  0  0  0  0  0  0  0  0  0  0
  1  2  3  0
  2  3  1  0
  3  4  1  0
  4  5  1  0
  5  6  1  0
  6  7  1  0
  3  8  1  0
  8  9  1  0
  1 10  1  0
  3 11  1  0
  4 12  1  0
  4 13  1  0
  5 14  1  0
  5 15  1  0
  6 16  1  0
  6 17  1  0
  7 18  1  0
  9 19  1  0
  9 20  1  0
  9 21  1  0
M  END
