
     RDKit          3D

 13 14  0  0  0  0  0  0  0  0999 V2000
    2.6119   -0.9534   -0.7497 C   0  0  0  0  0  0  0  0  0  0  0  0
    1.5817   -0.4029   -0.4313 C   0  0  0  0  0  0  0  0  0  0  0  0
    0.3379    0.2641   -0.0556 C   0  0  0  0  0  0  0  0  0  0  0  0
   -0.7290    0.4120   -1.0550 C   0  0  0  0  0  0  0  0  0  0  0  0
   -0.8529   -0.5820    0.0452 C   0  0  0  0  0  0  0  0  0  0  0  0
   -1.0153    0.0070    1.4277 C   0  0  0  0  0  0  0  0  0  0  0  0
    0.2143    0.6315    1.2536 O   0  0  0  0  0  0  0  0  0  0  0  0
    3.5206   -1.4292   -1.0462 H   0  0  0  0  0  0  0  0  0  0  0  0
   -0.5201    0.0227   -2.0588 H   0  0  0  0  0  0  0  0  0  0  0  0
   -1.3774    1.3072   -0.9428 H   0  0  0  0  0  0  0  0  0  0  0  0
   -0.8747   -1.6560   -0.1181 H   0  0  0  0  0  0  0  0  0  0  0  0
   -1.8530    0.7537    1.4746 H   0  0  0  0  0  0  0  0  0  0  0  0
   -1.0439   -0.6962    2.2565 H   0  0  0  0  0  0  0  0  0  0  0  0
  1  2  3  0
  2  3  1  0
  3  4  1  0
  4  5  1  0
  5  6  1  0
  6  7  1  0
  5  3  1  0
  7  3  1  0
  1  8  1  0
  4  9  1  0
  4 10  1  0
  5 11  1  0
  6 12  1  0
  6 13  1  0
M  END
