
     RDKit          3D

 19 20  0  0  0  0  0  0  0  0999 V2000
    2.7154    0.7714   -1.0973 C   0  0  0  0  0  0  0  0  0  0  0  0
    1.8993    0.2465   -0.4193 C   0  0  0  0  0  0  0  0  0  0  0  0
    0.8853   -0.3756    0.4145 C   0  0  0  0  0  0  0  0  0  0  0  0
    0.3508   -1.7042   -0.1307 C   0  0  0  0  0  0  0  0  0  0  0  0
   -1.0324   -1.2244    0.2854 C   0  0  0  0  0  0  0  0  0  0  0  0
   -0.4867    0.1486    0.2896 C   0  0  0  0  0  0  0  0  0  0  0  0
   -0.8531    1.0195   -0.8425 C   0  0  0  0  0  0  0  0  0  0  0  0
   -1.1085    2.0431    0.0734 O   0  0  0  0  0  0  0  0  0  0  0  0
   -1.0026    1.1781    1.1641 C   0  0  0  0  0  0  0  0  0  0  0  0
    3.4549    1.2437   -1.6889 H   0  0  0  0  0  0  0  0  0  0  0  0
    1.1932   -0.5477    1.4695 H   0  0  0  0  0  0  0  0  0  0  0  0
    0.4829   -1.7184   -1.2203 H   0  0  0  0  0  0  0  0  0  0  0  0
    0.6679   -2.5906    0.4308 H   0  0  0  0  0  0  0  0  0  0  0  0
   -1.7490   -1.4306   -0.5603 H   0  0  0  0  0  0  0  0  0  0  0  0
   -1.4293   -1.6448    1.2027 H   0  0  0  0  0  0  0  0  0  0  0  0
   -1.7588    0.6447   -1.3575 H   0  0  0  0  0  0  0  0  0  0  0  0
   -0.0498    1.2905   -1.5616 H   0  0  0  0  0  0  0  0  0  0  0  0
   -1.9602    1.0411    1.6945 H   0  0  0  0  0  0  0  0  0  0  0  0
   -0.2194    1.6092    1.8540 H   0  0  0  0  0  0  0  0  0  0  0  0
  1  2  3  0
  2  3  1  0
  3  4  1  0
  4  5  1  0
  5  6  1  0
  6  7  1  0
  7  8  1  0
  8  9  1  0
  6  3  1  0
  9  6  1  0
  1 10  1  0
  3 11  1  0
  4 12  1  0
  4 13  1  0
  5 14  1  0
  5 15  1  0
  7 16  1  0
  7 17  1  0
  9 18  1  0
  9 19  1  0
M  END
