
     RDKit          3D

 19 20  0  0  0  0  0  0  0  0999 V2000
    1.5010   -2.2752    1.0140 C   0  0  0  0  0  0  0  0  0  0  0  0
    1.1670   -1.3738    0.2875 C   0  0  0  0  0  0  0  0  0  0  0  0
    0.7872   -0.2915   -0.5990 C   0  0  0  0  0  0  0  0  0  0  0  0
    1.3957    1.0484   -0.1322 C   0  0  0  0  0  0  0  0  0  0  0  0
    0.0803    1.7547    0.1422 C   0  0  0  0  0  0  0  0  0  0  0  0
   -0.7417    0.7800    0.9305 C   0  0  0  0  0  0  0  0  0  0  0  0
   -0.6608    0.0831   -0.3987 C   0  0  0  0  0  0  0  0  0  0  0  0
   -1.7005   -0.8628   -0.7797 C   0  0  0  0  0  0  0  0  0  0  0  0
   -0.6871    1.3671   -0.9780 O   0  0  0  0  0  0  0  0  0  0  0  0
    1.7961   -3.0930    1.6495 H   0  0  0  0  0  0  0  0  0  0  0  0
    0.9836   -0.4687   -1.6520 H   0  0  0  0  0  0  0  0  0  0  0  0
    1.9534    1.5226   -0.9554 H   0  0  0  0  0  0  0  0  0  0  0  0
    1.9757    0.8799    0.7800 H   0  0  0  0  0  0  0  0  0  0  0  0
    0.0932    2.7830    0.4051 H   0  0  0  0  0  0  0  0  0  0  0  0
   -0.2218    0.2700    1.7629 H   0  0  0  0  0  0  0  0  0  0  0  0
   -1.7480    1.1424    1.1406 H   0  0  0  0  0  0  0  0  0  0  0  0
   -1.3932   -1.8912   -0.5780 H   0  0  0  0  0  0  0  0  0  0  0  0
   -2.6233   -0.6569   -0.1701 H   0  0  0  0  0  0  0  0  0  0  0  0
   -1.9569   -0.7183   -1.8692 H   0  0  0  0  0  0  0  0  0  0  0  0
  1  2  3  0
  2  3  1  0
  3  4  1  0
  4  5  1  0
  5  6  1  0
  6  7  1  0
  7  8  1  0
  7  9  1  0
  7  3  1  0
  9  5  1  0
  1 10  1  0
  3 11  1  0
  4 12  1  0
  4 13  1  0
  5 14  1  0
  6 15  1  0
  6 16  1  0
  8 17  1  0
  8 18  1  0
  8 19  1  0
M  END
