
     RDKit          3D

 15 16  0  0  0  0  0  0  0  0999 V2000
    2.7572    0.8753    0.7828 C   0  0  0  0  0  0  0  0  0  0  0  0
    1.8029    0.2575    0.4116 C   0  0  0  0  0  0  0  0  0  0  0  0
    0.7174   -0.4177   -0.0012 C   0  0  0  0  0  0  0  0  0  0  0  0
    0.5809   -1.7960    0.0023 O   0  0  0  0  0  0  0  0  0  0  0  0
   -0.6318   -1.3781   -0.5478 C   0  0  0  0  0  0  0  0  0  0  0  0
    0.1677   -0.4322   -1.3498 C   0  0  0  0  0  0  0  0  0  0  0  0
    0.2824    0.0352   -2.4560 O   0  0  0  0  0  0  0  0  0  0  0  0
   -0.6502   -0.3330    0.5328 C   0  0  0  0  0  0  0  0  0  0  0  0
   -1.4612    0.8765    0.2345 C   0  0  0  0  0  0  0  0  0  0  0  0
    3.6203    1.4292    1.1329 H   0  0  0  0  0  0  0  0  0  0  0  0
   -1.3907   -1.9595   -0.8502 H   0  0  0  0  0  0  0  0  0  0  0  0
   -0.7268   -0.7627    1.5504 H   0  0  0  0  0  0  0  0  0  0  0  0
   -2.4075    0.6462   -0.2981 H   0  0  0  0  0  0  0  0  0  0  0  0
   -1.7658    1.3278    1.2200 H   0  0  0  0  0  0  0  0  0  0  0  0
   -0.8949    1.6315   -0.3643 H   0  0  0  0  0  0  0  0  0  0  0  0
  1  2  3  0
  2  3  1  0
  3  4  1  0
  4  5  1  0
  5  6  1  0
  6  7  2  0
  5  8  1  0
  8  9  1  0
  6  3  1  0
  8  3  1  0
  1 10  1  0
  5 11  1  0
  8 12  1  0
  9 13  1  0
  9 14  1  0
  9 15  1  0
M  END
