
     RDKit          3D

 19 19  0  0  0  0  0  0  0  0999 V2000
    2.1298    0.1502    2.7924 C   0  0  0  0  0  0  0  0  0  0  0  0
    0.9282    0.3672    2.4223 C   0  0  0  0  0  0  0  0  0  0  0  0
   -0.4468    0.5995    2.0164 C   0  0  0  0  0  0  0  0  0  0  0  0
   -0.9158   -0.2415    1.0382 O   0  0  0  0  0  0  0  0  0  0  0  0
   -0.2029   -0.0848   -0.1282 C   0  0  0  0  0  0  0  0  0  0  0  0
    0.3774   -1.3168   -0.7848 C   0  0  0  0  0  0  0  0  0  0  0  0
    0.1308   -0.6038   -2.1144 C   0  0  0  0  0  0  0  0  0  0  0  0
   -0.9863    0.1407   -1.4006 C   0  0  0  0  0  0  0  0  0  0  0  0
   -1.1337    1.4655   -1.7598 O   0  0  0  0  0  0  0  0  0  0  0  0
    3.0539   -0.0113    3.0596 H   0  0  0  0  0  0  0  0  0  0  0  0
   -0.5359    1.6546    1.5746 H   0  0  0  0  0  0  0  0  0  0  0  0
   -1.0900    0.6074    2.9073 H   0  0  0  0  0  0  0  0  0  0  0  0
    0.6177    0.6863   -0.0831 H   0  0  0  0  0  0  0  0  0  0  0  0
   -0.2451   -2.2468   -0.7418 H   0  0  0  0  0  0  0  0  0  0  0  0
    1.4640   -1.4608   -0.6140 H   0  0  0  0  0  0  0  0  0  0  0  0
   -0.2285   -1.2655   -2.9432 H   0  0  0  0  0  0  0  0  0  0  0  0
    0.9156    0.1195   -2.4098 H   0  0  0  0  0  0  0  0  0  0  0  0
   -1.9304   -0.4899   -1.4575 H   0  0  0  0  0  0  0  0  0  0  0  0
   -1.9022    1.9303   -1.3735 H   0  0  0  0  0  0  0  0  0  0  0  0
  1  2  3  0
  2  3  1  0
  3  4  1  0
  4  5  1  0
  5  6  1  0
  6  7  1  0
  7  8  1  0
  8  9  1  0
  8  5  1  0
  1 10  1  0
  3 11  1  0
  3 12  1  0
  5 13  1  0
  6 14  1  0
  6 15  1  0
  7 16  1  0
  7 17  1  0
  8 18  1  0
  9 19  1  0
M  END
