
     RDKit          3D

 17 18  0  0  0  0  0  0  0  0999 V2000
    2.9665    0.3667   -1.2634 C   0  0  0  0  0  0  0  0  0  0  0  0
    1.8318    0.0311   -1.1927 C   0  0  0  0  0  0  0  0  0  0  0  0
    0.4157   -0.3955   -1.0795 C   0  0  0  0  0  0  0  0  0  0  0  0
    0.3335   -1.7574   -0.7827 O   0  0  0  0  0  0  0  0  0  0  0  0
   -0.8119   -1.4594   -0.0393 C   0  0  0  0  0  0  0  0  0  0  0  0
   -0.2615   -0.1130    0.1690 C   0  0  0  0  0  0  0  0  0  0  0  0
    0.2035    0.4778    1.3805 C   0  0  0  0  0  0  0  0  0  0  0  0
   -0.9772    1.0746    0.5668 C   0  0  0  0  0  0  0  0  0  0  0  0
   -2.2524    0.8936    1.1138 O   0  0  0  0  0  0  0  0  0  0  0  0
    3.9813    0.6677   -1.3081 H   0  0  0  0  0  0  0  0  0  0  0  0
   -0.1680   -0.1812   -2.0061 H   0  0  0  0  0  0  0  0  0  0  0  0
   -0.9420   -2.1074    0.8521 H   0  0  0  0  0  0  0  0  0  0  0  0
   -1.6944   -1.4390   -0.7270 H   0  0  0  0  0  0  0  0  0  0  0  0
    1.1262    1.1256    1.3998 H   0  0  0  0  0  0  0  0  0  0  0  0
   -0.0792    0.1420    2.3850 H   0  0  0  0  0  0  0  0  0  0  0  0
   -0.7927    2.0787    0.1231 H   0  0  0  0  0  0  0  0  0  0  0  0
   -2.8792    0.5951    0.4087 H   0  0  0  0  0  0  0  0  0  0  0  0
  1  2  3  0
  2  3  1  0
  3  4  1  0
  4  5  1  0
  5  6  1  0
  6  7  1  0
  7  8  1  0
  8  9  1  0
  6  3  1  0
  8  6  1  0
  1 10  1  0
  3 11  1  0
  5 12  1  0
  5 13  1  0
  7 14  1  0
  7 15  1  0
  8 16  1  0
  9 17  1  0
M  END
