
     RDKit          3D

 20 20  0  0  0  0  0  0  0  0999 V2000
    3.1361    1.1720   -0.8271 C   0  0  0  0  0  0  0  0  0  0  0  0
    2.3414    0.6650   -0.0572 C   0  0  0  0  0  0  0  0  0  0  0  0
    1.3779    0.0392    0.8505 C   0  0  0  0  0  0  0  0  0  0  0  0
   -0.0050    0.3195    0.3538 C   0  0  0  0  0  0  0  0  0  0  0  0
   -1.0197   -0.3268    1.2871 C   0  0  0  0  0  0  0  0  0  0  0  0
   -1.8102   -0.7236    0.0427 C   0  0  0  0  0  0  0  0  0  0  0  0
   -0.5320   -0.5385   -0.7477 C   0  0  0  0  0  0  0  0  0  0  0  0
   -0.8160    0.1614   -2.0538 C   0  0  0  0  0  0  0  0  0  0  0  0
    3.8450    1.6052   -1.4932 H   0  0  0  0  0  0  0  0  0  0  0  0
    1.5943   -1.0193    1.0166 H   0  0  0  0  0  0  0  0  0  0  0  0
    1.4734    0.5694    1.8415 H   0  0  0  0  0  0  0  0  0  0  0  0
   -0.1542    1.4132    0.2483 H   0  0  0  0  0  0  0  0  0  0  0  0
   -1.5242    0.3405    1.9819 H   0  0  0  0  0  0  0  0  0  0  0  0
   -0.6257   -1.2665    1.7742 H   0  0  0  0  0  0  0  0  0  0  0  0
   -2.1751   -1.7841    0.0865 H   0  0  0  0  0  0  0  0  0  0  0  0
   -2.6279   -0.0206   -0.2060 H   0  0  0  0  0  0  0  0  0  0  0  0
    0.0318   -1.4802   -0.8916 H   0  0  0  0  0  0  0  0  0  0  0  0
   -1.5180    0.9932   -1.9459 H   0  0  0  0  0  0  0  0  0  0  0  0
   -1.1794   -0.6093   -2.7718 H   0  0  0  0  0  0  0  0  0  0  0  0
    0.1874    0.4903   -2.4526 H   0  0  0  0  0  0  0  0  0  0  0  0
  1  2  3  0
  2  3  1  0
  3  4  1  0
  4  5  1  0
  5  6  1  0
  6  7  1  0
  7  8  1  0
  7  4  1  0
  1  9  1  0
  3 10  1  0
  3 11  1  0
  4 12  1  0
  5 13  1  0
  5 14  1  0
  6 15  1  0
  6 16  1  0
  7 17  1  0
  8 18  1  0
  8 19  1  0
  8 20  1  0
M  END
