
     RDKit          3D

 17 18  0  0  0  0  0  0  0  0999 V2000
    0.9955    0.5119    2.8881 C   0  0  0  0  0  0  0  0  0  0  0  0
    0.6668   -0.0225    1.8698 C   0  0  0  0  0  0  0  0  0  0  0  0
    0.3093   -0.6397    0.7273 C   0  0  0  0  0  0  0  0  0  0  0  0
    1.0845   -1.6328   -0.0294 C   0  0  0  0  0  0  0  0  0  0  0  0
   -0.2527   -1.4783   -0.6987 C   0  0  0  0  0  0  0  0  0  0  0  0
   -0.7961   -1.4709    0.5803 O   0  0  0  0  0  0  0  0  0  0  0  0
   -0.0844    0.0033   -0.5403 C   0  0  0  0  0  0  0  0  0  0  0  0
   -1.2518    0.7229   -0.4284 O   0  0  0  0  0  0  0  0  0  0  0  0
   -1.2884    1.8737   -1.1752 C   0  0  0  0  0  0  0  0  0  0  0  0
    1.2926    1.0111    3.7988 H   0  0  0  0  0  0  0  0  0  0  0  0
    1.2311   -2.5944    0.5160 H   0  0  0  0  0  0  0  0  0  0  0  0
    1.8999   -1.3097   -0.6819 H   0  0  0  0  0  0  0  0  0  0  0  0
   -0.5882   -1.9760   -1.5043 H   0  0  0  0  0  0  0  0  0  0  0  0
    0.6901    0.4031   -1.1996 H   0  0  0  0  0  0  0  0  0  0  0  0
   -2.2862    2.3503   -0.9879 H   0  0  0  0  0  0  0  0  0  0  0  0
   -0.4546    2.5386   -0.8703 H   0  0  0  0  0  0  0  0  0  0  0  0
   -1.1673    1.7094   -2.2645 H   0  0  0  0  0  0  0  0  0  0  0  0
  1  2  3  0
  2  3  1  0
  3  4  1  0
  4  5  1  0
  5  6  1  0
  5  7  1  0
  7  8  1  0
  8  9  1  0
  6  3  1  0
  7  3  1  0
  1 10  1  0
  4 11  1  0
  4 12  1  0
  5 13  1  0
  7 14  1  0
  9 15  1  0
  9 16  1  0
  9 17  1  0
M  END
