
     RDKit          3D

 19 20  0  0  0  0  0  0  0  0999 V2000
    3.0710    0.3142    0.5432 C   0  0  0  0  0  0  0  0  0  0  0  0
    1.9182   -0.0575    0.5505 C   0  0  0  0  0  0  0  0  0  0  0  0
    0.5360   -0.5129    0.5357 C   0  0  0  0  0  0  0  0  0  0  0  0
    0.3361   -1.4011   -0.6900 C   0  0  0  0  0  0  0  0  0  0  0  0
   -1.0598   -0.9817   -1.1473 C   0  0  0  0  0  0  0  0  0  0  0  0
   -0.9720    0.5251   -0.9660 C   0  0  0  0  0  0  0  0  0  0  0  0
   -0.3943    0.6396    0.4038 C   0  0  0  0  0  0  0  0  0  0  0  0
   -1.0672    1.3238    1.4303 C   0  0  0  0  0  0  0  0  0  0  0  0
    0.1245    1.8617    0.8231 O   0  0  0  0  0  0  0  0  0  0  0  0
    4.0757    0.6467    0.5205 H   0  0  0  0  0  0  0  0  0  0  0  0
    0.3284   -1.1628    1.4113 H   0  0  0  0  0  0  0  0  0  0  0  0
    1.0282   -1.0988   -1.4899 H   0  0  0  0  0  0  0  0  0  0  0  0
    0.3861   -2.4685   -0.4460 H   0  0  0  0  0  0  0  0  0  0  0  0
   -1.2827   -1.2834   -2.1683 H   0  0  0  0  0  0  0  0  0  0  0  0
   -1.8199   -1.3308   -0.3964 H   0  0  0  0  0  0  0  0  0  0  0  0
   -0.2744    0.9908   -1.6894 H   0  0  0  0  0  0  0  0  0  0  0  0
   -1.9716    0.9709   -0.9700 H   0  0  0  0  0  0  0  0  0  0  0  0
   -2.0041    1.8857    1.2076 H   0  0  0  0  0  0  0  0  0  0  0  0
   -0.9582    1.1391    2.5374 H   0  0  0  0  0  0  0  0  0  0  0  0
  1  2  3  0
  2  3  1  0
  3  4  1  0
  4  5  1  0
  5  6  1  0
  6  7  1  0
  7  8  1  0
  8  9  1  0
  7  3  1  0
  9  7  1  0
  1 10  1  0
  3 11  1  0
  4 12  1  0
  4 13  1  0
  5 14  1  0
  5 15  1  0
  6 16  1  0
  6 17  1  0
  8 18  1  0
  8 19  1  0
M  END
