
     RDKit          3D

 17 19  0  0  0  0  0  0  0  0999 V2000
    3.1315    0.2609    0.9202 C   0  0  0  0  0  0  0  0  0  0  0  0
    1.9689    0.1655    0.6315 C   0  0  0  0  0  0  0  0  0  0  0  0
    0.5963    0.0285    0.2853 C   0  0  0  0  0  0  0  0  0  0  0  0
   -0.2690    1.2682    0.0189 C   0  0  0  0  0  0  0  0  0  0  0  0
   -1.5898    0.5173   -0.1735 C   0  0  0  0  0  0  0  0  0  0  0  0
   -1.1623   -0.4873   -1.2340 C   0  0  0  0  0  0  0  0  0  0  0  0
    0.0209   -1.0892   -0.4621 C   0  0  0  0  0  0  0  0  0  0  0  0
   -0.3477   -0.8787    0.9421 C   0  0  0  0  0  0  0  0  0  0  0  0
   -1.6239   -0.2611    0.9523 O   0  0  0  0  0  0  0  0  0  0  0  0
    4.1576    0.3533    1.1863 H   0  0  0  0  0  0  0  0  0  0  0  0
    0.0450    1.7442   -0.9075 H   0  0  0  0  0  0  0  0  0  0  0  0
   -0.2993    1.9246    0.8984 H   0  0  0  0  0  0  0  0  0  0  0  0
   -2.4239    1.1201   -0.4116 H   0  0  0  0  0  0  0  0  0  0  0  0
   -1.9282   -1.2262   -1.4527 H   0  0  0  0  0  0  0  0  0  0  0  0
   -0.7447    0.0486   -2.0860 H   0  0  0  0  0  0  0  0  0  0  0  0
    0.5577   -1.9301   -0.8618 H   0  0  0  0  0  0  0  0  0  0  0  0
   -0.0891   -1.5587    1.7543 H   0  0  0  0  0  0  0  0  0  0  0  0
  1  2  3  0
  2  3  1  0
  3  4  1  0
  4  5  1  0
  5  6  1  0
  6  7  1  0
  7  8  1  0
  8  9  1  0
  7  3  1  0
  8  3  1  0
  9  5  1  0
  1 10  1  0
  4 11  1  0
  4 12  1  0
  5 13  1  0
  6 14  1  0
  6 15  1  0
  7 16  1  0
  8 17  1  0
M  END
