
     RDKit          3D

 13 12  0  0  0  0  0  0  0  0999 V2000
    2.4657    0.9326   -0.4874 C   0  0  0  0  0  0  0  0  0  0  0  0
    1.6128    0.0544   -0.5390 C   0  0  0  0  0  0  0  0  0  0  0  0
    0.6237   -0.9695   -0.5746 C   0  0  0  0  0  0  0  0  0  0  0  0
    0.8370   -2.0747   -1.1330 O   0  0  0  0  0  0  0  0  0  0  0  0
   -0.6919   -0.7609    0.0452 C   0  0  0  0  0  0  0  0  0  0  0  0
   -0.6973    0.5597    0.8017 C   0  0  0  0  0  0  0  0  0  0  0  0
   -1.9116    0.8066    1.4014 O   0  0  0  0  0  0  0  0  0  0  0  0
    3.1941    1.6876   -0.4377 H   0  0  0  0  0  0  0  0  0  0  0  0
   -0.9640   -1.5874    0.7132 H   0  0  0  0  0  0  0  0  0  0  0  0
   -1.4335   -0.7441   -0.7864 H   0  0  0  0  0  0  0  0  0  0  0  0
   -0.4779    1.4016    0.1085 H   0  0  0  0  0  0  0  0  0  0  0  0
    0.0863    0.4843    1.6092 H   0  0  0  0  0  0  0  0  0  0  0  0
   -2.6434    0.2098    1.1110 H   0  0  0  0  0  0  0  0  0  0  0  0
  1  2  3  0
  2  3  1  0
  3  4  2  0
  3  5  1  0
  5  6  1  0
  6  7  1  0
  1  8  1  0
  5  9  1  0
  5 10  1  0
  6 11  1  0
  6 12  1  0
  7 13  1  0
M  END
