
     RDKit          3D

 15 14  0  0  0  0  0  0  0  0999 V2000
    2.6363    2.8575    1.5386 C   0  0  0  0  0  0  0  0  0  0  0  0
    1.9810    2.2142    0.7855 C   0  0  0  0  0  0  0  0  0  0  0  0
    1.1699    1.3991   -0.1374 C   0  0  0  0  0  0  0  0  0  0  0  0
    1.4507    1.5363   -1.3589 O   0  0  0  0  0  0  0  0  0  0  0  0
    0.1320    0.4974    0.3145 C   0  0  0  0  0  0  0  0  0  0  0  0
   -0.2567    0.6671    1.5211 O   0  0  0  0  0  0  0  0  0  0  0  0
   -0.3863   -0.5329   -0.6092 C   0  0  0  0  0  0  0  0  0  0  0  0
   -1.4856   -1.1579   -0.1117 O   0  0  0  0  0  0  0  0  0  0  0  0
   -2.0374   -2.1321   -0.8898 C   0  0  0  0  0  0  0  0  0  0  0  0
    3.2536    3.4735    2.2459 H   0  0  0  0  0  0  0  0  0  0  0  0
    0.4851   -1.3154   -0.6261 H   0  0  0  0  0  0  0  0  0  0  0  0
   -0.3894   -0.1478   -1.6195 H   0  0  0  0  0  0  0  0  0  0  0  0
   -2.9816   -2.4866   -0.3596 H   0  0  0  0  0  0  0  0  0  0  0  0
   -2.1872   -1.8245   -1.9232 H   0  0  0  0  0  0  0  0  0  0  0  0
   -1.3845   -3.0479   -0.8834 H   0  0  0  0  0  0  0  0  0  0  0  0
  1  2  3  0
  2  3  1  0
  3  4  2  0
  3  5  1  0
  5  6  2  0
  5  7  1  0
  7  8  1  0
  8  9  1  0
  1 10  1  0
  7 11  1  0
  7 12  1  0
  9 13  1  0
  9 14  1  0
  9 15  1  0
M  END
