
     RDKit          3D

 17 17  0  0  0  0  0  0  0  0999 V2000
    3.0761   -1.0298    0.4638 C   0  0  0  0  0  0  0  0  0  0  0  0
    1.9165   -0.7815    0.2581 C   0  0  0  0  0  0  0  0  0  0  0  0
    0.5209   -0.4692    0.0273 C   0  0  0  0  0  0  0  0  0  0  0  0
   -0.0616    0.6687    0.4287 C   0  0  0  0  0  0  0  0  0  0  0  0
    0.5819    1.7530    1.1424 C   0  0  0  0  0  0  0  0  0  0  0  0
    1.7917    1.6563    1.4289 O   0  0  0  0  0  0  0  0  0  0  0  0
   -1.4991    0.6812    0.0346 C   0  0  0  0  0  0  0  0  0  0  0  0
   -1.4905   -0.2792   -1.1309 C   0  0  0  0  0  0  0  0  0  0  0  0
   -0.4742   -1.2937   -0.6510 C   0  0  0  0  0  0  0  0  0  0  0  0
    4.1134   -1.2555    0.6668 H   0  0  0  0  0  0  0  0  0  0  0  0
    0.0263    2.6214    1.4180 H   0  0  0  0  0  0  0  0  0  0  0  0
   -2.1003    0.3120    0.8908 H   0  0  0  0  0  0  0  0  0  0  0  0
   -1.7852    1.7069   -0.2405 H   0  0  0  0  0  0  0  0  0  0  0  0
   -1.1092    0.2623   -2.0184 H   0  0  0  0  0  0  0  0  0  0  0  0
   -2.4678   -0.7223   -1.3376 H   0  0  0  0  0  0  0  0  0  0  0  0
   -0.9586   -1.9383    0.1172 H   0  0  0  0  0  0  0  0  0  0  0  0
   -0.0804   -1.8923   -1.4981 H   0  0  0  0  0  0  0  0  0  0  0  0
  1  2  3  0
  2  3  1  0
  3  4  2  0
  4  5  1  0
  5  6  2  0
  4  7  1  0
  7  8  1  0
  8  9  1  0
  9  3  1  0
  1 10  1  0
  5 11  1  0
  7 12  1  0
  7 13  1  0
  8 14  1  0
  8 15  1  0
  9 16  1  0
  9 17  1  0
M  END
