
     RDKit          3D

 25 24  0  0  0  0  0  0  0  0999 V2000
   -1.2340    2.8630    1.0467 C   0  0  0  0  0  0  0  0  0  0  0  0
   -1.3532    1.6737    1.1726 C   0  0  0  0  0  0  0  0  0  0  0  0
   -1.5181    0.2268    1.3276 C   0  0  0  0  0  0  0  0  0  0  0  0
   -0.7522   -0.4062    0.1565 C   0  0  0  0  0  0  0  0  0  0  0  0
   -1.4088    0.1347   -1.1000 C   0  0  0  0  0  0  0  0  0  0  0  0
   -0.8788   -1.8877    0.1615 C   0  0  0  0  0  0  0  0  0  0  0  0
    0.6703    0.0807    0.2784 C   0  0  0  0  0  0  0  0  0  0  0  0
    1.5706   -0.4485   -0.8012 C   0  0  0  0  0  0  0  0  0  0  0  0
    2.9544    0.1145   -0.5589 C   0  0  0  0  0  0  0  0  0  0  0  0
   -1.1397    3.9262    0.9486 H   0  0  0  0  0  0  0  0  0  0  0  0
   -2.5789   -0.0101    1.2942 H   0  0  0  0  0  0  0  0  0  0  0  0
   -1.0437   -0.1545    2.2596 H   0  0  0  0  0  0  0  0  0  0  0  0
   -1.3436    1.2240   -1.1569 H   0  0  0  0  0  0  0  0  0  0  0  0
   -2.4949   -0.1358   -1.0172 H   0  0  0  0  0  0  0  0  0  0  0  0
   -1.0261   -0.3888   -1.9997 H   0  0  0  0  0  0  0  0  0  0  0  0
   -1.2738   -2.2600   -0.7917 H   0  0  0  0  0  0  0  0  0  0  0  0
   -1.6569   -2.1567    0.9348 H   0  0  0  0  0  0  0  0  0  0  0  0
    0.0367   -2.4202    0.4873 H   0  0  0  0  0  0  0  0  0  0  0  0
    0.6282    1.1880    0.1515 H   0  0  0  0  0  0  0  0  0  0  0  0
    1.0697   -0.1623    1.2602 H   0  0  0  0  0  0  0  0  0  0  0  0
    1.6449   -1.5584   -0.6475 H   0  0  0  0  0  0  0  0  0  0  0  0
    1.2329   -0.2400   -1.8117 H   0  0  0  0  0  0  0  0  0  0  0  0
    3.1412    0.9509   -1.2822 H   0  0  0  0  0  0  0  0  0  0  0  0
    3.0455    0.5026    0.4696 H   0  0  0  0  0  0  0  0  0  0  0  0
    3.7085   -0.6560   -0.7821 H   0  0  0  0  0  0  0  0  0  0  0  0
  1  2  3  0
  2  3  1  0
  3  4  1  0
  4  5  1  0
  4  6  1  0
  4  7  1  0
  7  8  1  0
  8  9  1  0
  1 10  1  0
  3 11  1  0
  3 12  1  0
  5 13  1  0
  5 14  1  0
  5 15  1  0
  6 16  1  0
  6 17  1  0
  6 18  1  0
  7 19  1  0
  7 20  1  0
  8 21  1  0
  8 22  1  0
  9 23  1  0
  9 24  1  0
  9 25  1  0
M  END
