
     RDKit          3D

 15 15  0  0  0  0  0  0  0  0999 V2000
    2.6785   -0.4593   -0.0998 C   0  0  0  0  0  0  0  0  0  0  0  0
    1.3063   -0.6297   -0.7929 C   0  0  0  0  0  0  0  0  0  0  0  0
    0.3426   -0.7661   -1.2882 C   0  0  0  0  0  0  0  0  0  0  0  0
   -0.8601   -0.0918   -0.4547 C   0  0  0  0  0  0  0  0  0  0  0  0
   -0.9605   -0.6145    0.9636 C   0  0  0  0  0  0  0  0  0  0  0  0
   -0.4841    0.7851    0.6533 C   0  0  0  0  0  0  0  0  0  0  0  0
   -1.4316    1.8327    0.9185 O   0  0  0  0  0  0  0  0  0  0  0  0
    3.5592   -0.3353    0.3351 H   0  0  0  0  0  0  0  0  0  0  0  0
    0.2078    0.0868   -2.2637 H   0  0  0  0  0  0  0  0  0  0  0  0
   -0.1040   -1.5988   -1.8812 H   0  0  0  0  0  0  0  0  0  0  0  0
   -1.7691    0.0219   -1.0236 H   0  0  0  0  0  0  0  0  0  0  0  0
   -1.9944   -0.6546    1.4178 H   0  0  0  0  0  0  0  0  0  0  0  0
   -0.2036   -1.2370    1.4068 H   0  0  0  0  0  0  0  0  0  0  0  0
    0.5636    1.0925    0.9373 H   0  0  0  0  0  0  0  0  0  0  0  0
   -0.8506    2.5680    1.1718 H   0  0  0  0  0  0  0  0  0  0  0  0
  1  2  3  0
  2  3  1  0
  3  4  1  0
  4  5  1  0
  5  6  1  0
  6  7  1  0
  6  4  1  0
  1  8  1  0
  3  9  1  0
  3 10  1  0
  4 11  1  0
  5 12  1  0
  5 13  1  0
  6 14  1  0
  7 15  1  0
M  END
