
     RDKit          3D

 15 15  0  0  0  0  0  0  0  0999 V2000
    2.2191   -1.4597    0.2602 C   0  0  0  0  0  0  0  0  0  0  0  0
    1.4751   -0.6241   -0.1992 C   0  0  0  0  0  0  0  0  0  0  0  0
    0.5754    0.3951   -0.7824 C   0  0  0  0  0  0  0  0  0  0  0  0
   -0.3187   -0.2771   -1.6234 O   0  0  0  0  0  0  0  0  0  0  0  0
   -1.3339   -0.8118   -0.8655 C   0  0  0  0  0  0  0  0  0  0  0  0
   -2.0049   -1.8139   -1.1739 O   0  0  0  0  0  0  0  0  0  0  0  0
   -1.4647    0.0146    0.3489 C   0  0  0  0  0  0  0  0  0  0  0  0
   -0.3219    0.9959    0.2942 C   0  0  0  0  0  0  0  0  0  0  0  0
    0.4079    1.0220    1.4761 O   0  0  0  0  0  0  0  0  0  0  0  0
    2.8651   -2.1913    0.6733 H   0  0  0  0  0  0  0  0  0  0  0  0
    1.1813    1.1637   -1.2841 H   0  0  0  0  0  0  0  0  0  0  0  0
   -1.4134   -0.6274    1.2756 H   0  0  0  0  0  0  0  0  0  0  0  0
   -2.4245    0.5974    0.3229 H   0  0  0  0  0  0  0  0  0  0  0  0
   -0.6168    1.9908   -0.0599 H   0  0  0  0  0  0  0  0  0  0  0  0
    1.1750    1.6257    1.3373 H   0  0  0  0  0  0  0  0  0  0  0  0
  1  2  3  0
  2  3  1  0
  3  4  1  0
  4  5  1  0
  5  6  2  0
  5  7  1  0
  7  8  1  0
  8  9  1  0
  8  3  1  0
  1 10  1  0
  3 11  1  0
  7 12  1  0
  7 13  1  0
  8 14  1  0
  9 15  1  0
M  END
