
     RDKit          3D

 19 19  0  0  0  0  0  0  0  0999 V2000
   -2.0030    3.0084    1.5863 C   0  0  0  0  0  0  0  0  0  0  0  0
   -1.7779    1.8244    1.7663 C   0  0  0  0  0  0  0  0  0  0  0  0
   -1.5232    0.3951    1.9637 C   0  0  0  0  0  0  0  0  0  0  0  0
   -0.2632   -0.0384    1.2185 C   0  0  0  0  0  0  0  0  0  0  0  0
    0.0175   -1.3975    1.3800 O   0  0  0  0  0  0  0  0  0  0  0  0
   -0.3263   -0.8954    0.0576 C   0  0  0  0  0  0  0  0  0  0  0  0
    0.8895   -0.9532   -0.8384 C   0  0  0  0  0  0  0  0  0  0  0  0
    0.5714   -0.4746   -2.1075 O   0  0  0  0  0  0  0  0  0  0  0  0
    1.7641   -0.5703   -2.8601 C   0  0  0  0  0  0  0  0  0  0  0  0
   -2.1841    4.0408    1.4277 H   0  0  0  0  0  0  0  0  0  0  0  0
   -1.3481    0.2112    3.0526 H   0  0  0  0  0  0  0  0  0  0  0  0
   -2.4015   -0.1773    1.6651 H   0  0  0  0  0  0  0  0  0  0  0  0
    0.5694    0.6755    1.2983 H   0  0  0  0  0  0  0  0  0  0  0  0
   -1.2216   -1.3847   -0.3350 H   0  0  0  0  0  0  0  0  0  0  0  0
    1.7637   -0.4468   -0.3951 H   0  0  0  0  0  0  0  0  0  0  0  0
    1.1639   -2.0438   -0.9117 H   0  0  0  0  0  0  0  0  0  0  0  0
    1.6427   -0.2208   -3.8854 H   0  0  0  0  0  0  0  0  0  0  0  0
    2.1460   -1.6157   -2.8030 H   0  0  0  0  0  0  0  0  0  0  0  0
    2.5206    0.0631   -2.3220 H   0  0  0  0  0  0  0  0  0  0  0  0
  1  2  3  0
  2  3  1  0
  3  4  1  0
  4  5  1  0
  5  6  1  0
  6  7  1  0
  7  8  1  0
  8  9  1  0
  6  4  1  0
  1 10  1  0
  3 11  1  0
  3 12  1  0
  4 13  1  0
  6 14  1  0
  7 15  1  0
  7 16  1  0
  9 17  1  0
  9 18  1  0
  9 19  1  0
M  END
