
     RDKit          3D

 17 17  0  0  0  0  0  0  0  0999 V2000
    3.8333    1.2783   -0.1823 C   0  0  0  0  0  0  0  0  0  0  0  0
    3.0651    0.4066   -0.5504 C   0  0  0  0  0  0  0  0  0  0  0  0
    2.1287   -0.6282   -0.9888 C   0  0  0  0  0  0  0  0  0  0  0  0
    0.9123   -0.5697   -0.1757 C   0  0  0  0  0  0  0  0  0  0  0  0
   -0.0927   -0.5137    0.5203 C   0  0  0  0  0  0  0  0  0  0  0  0
   -1.3027   -0.4382    1.3404 C   0  0  0  0  0  0  0  0  0  0  0  0
   -1.8873    0.9422    1.2982 C   0  0  0  0  0  0  0  0  0  0  0  0
   -3.1649    0.3453    1.2180 O   0  0  0  0  0  0  0  0  0  0  0  0
   -2.5526   -0.7275    0.5659 C   0  0  0  0  0  0  0  0  0  0  0  0
    4.5010    2.0332    0.1564 H   0  0  0  0  0  0  0  0  0  0  0  0
    2.6668   -1.6065   -0.8575 H   0  0  0  0  0  0  0  0  0  0  0  0
    1.8715   -0.4762   -2.0723 H   0  0  0  0  0  0  0  0  0  0  0  0
   -1.2186   -0.9042    2.3373 H   0  0  0  0  0  0  0  0  0  0  0  0
   -1.7481    1.5604    2.2050 H   0  0  0  0  0  0  0  0  0  0  0  0
   -1.6194    1.4914    0.3876 H   0  0  0  0  0  0  0  0  0  0  0  0
   -3.0179   -1.7122    0.7414 H   0  0  0  0  0  0  0  0  0  0  0  0
   -2.3746   -0.4810   -0.5208 H   0  0  0  0  0  0  0  0  0  0  0  0
  1  2  3  0
  2  3  1  0
  3  4  1  0
  4  5  3  0
  5  6  1  0
  6  7  1  0
  7  8  1  0
  8  9  1  0
  9  6  1  0
  1 10  1  0
  3 11  1  0
  3 12  1  0
  6 13  1  0
  7 14  1  0
  7 15  1  0
  9 16  1  0
  9 17  1  0
M  END
