
     RDKit          3D

 21 21  0  0  0  0  0  0  0  0999 V2000
    3.8998    0.6009    0.2877 C   0  0  0  0  0  0  0  0  0  0  0  0
    2.7134    0.3197    0.2272 C   0  0  0  0  0  0  0  0  0  0  0  0
    1.3186   -0.0279    0.1746 C   0  0  0  0  0  0  0  0  0  0  0  0
    0.9787   -1.3025    0.3224 C   0  0  0  0  0  0  0  0  0  0  0  0
   -0.4568   -1.6944    0.2729 C   0  0  0  0  0  0  0  0  0  0  0  0
   -1.0901   -0.8445   -0.8256 C   0  0  0  0  0  0  0  0  0  0  0  0
   -0.9746    0.6116   -0.5569 C   0  0  0  0  0  0  0  0  0  0  0  0
   -2.0814    1.0382    0.3964 C   0  0  0  0  0  0  0  0  0  0  0  0
    0.3474    1.0619   -0.0418 C   0  0  0  0  0  0  0  0  0  0  0  0
    4.9310    0.8409    0.3229 H   0  0  0  0  0  0  0  0  0  0  0  0
    1.7311   -2.0657    0.4792 H   0  0  0  0  0  0  0  0  0  0  0  0
   -0.5693   -2.7552   -0.0831 H   0  0  0  0  0  0  0  0  0  0  0  0
   -0.9525   -1.5466    1.2409 H   0  0  0  0  0  0  0  0  0  0  0  0
   -0.5168   -1.1130   -1.7595 H   0  0  0  0  0  0  0  0  0  0  0  0
   -2.1503   -1.1274   -0.9313 H   0  0  0  0  0  0  0  0  0  0  0  0
   -1.1624    1.1474   -1.5306 H   0  0  0  0  0  0  0  0  0  0  0  0
   -3.0376    1.0088   -0.1950 H   0  0  0  0  0  0  0  0  0  0  0  0
   -2.1490    0.3475    1.2432 H   0  0  0  0  0  0  0  0  0  0  0  0
   -1.8574    2.0922    0.7136 H   0  0  0  0  0  0  0  0  0  0  0  0
    0.8301    1.8160   -0.7078 H   0  0  0  0  0  0  0  0  0  0  0  0
    0.2481    1.5921    0.9506 H   0  0  0  0  0  0  0  0  0  0  0  0
  1  2  3  0
  2  3  1  0
  3  4  2  0
  4  5  1  0
  5  6  1  0
  6  7  1  0
  7  8  1  0
  7  9  1  0
  9  3  1  0
  1 10  1  0
  4 11  1  0
  5 12  1  0
  5 13  1  0
  6 14  1  0
  6 15  1  0
  7 16  1  0
  8 17  1  0
  8 18  1  0
  8 19  1  0
  9 20  1  0
  9 21  1  0
M  END
