
     RDKit          3D

 17 17  0  0  0  0  0  0  0  0999 V2000
   -2.3988   -1.3983   -1.2672 C   0  0  0  0  0  0  0  0  0  0  0  0
   -1.8213   -1.2432   -0.1032 C   0  0  0  0  0  0  0  0  0  0  0  0
   -1.2095   -1.0535    1.1425 C   0  0  0  0  0  0  0  0  0  0  0  0
   -0.3947    0.2126    1.1682 C   0  0  0  0  0  0  0  0  0  0  0  0
    0.8410    0.2356    0.2616 C   0  0  0  0  0  0  0  0  0  0  0  0
    1.8130    0.2568   -0.4547 C   0  0  0  0  0  0  0  0  0  0  0  0
    2.9314    0.2864   -1.3036 C   0  0  0  0  0  0  0  0  0  0  0  0
   -1.2096    1.4495    0.7618 C   0  0  0  0  0  0  0  0  0  0  0  0
   -0.4905    1.2029    2.0711 O   0  0  0  0  0  0  0  0  0  0  0  0
   -2.8213   -1.5170   -2.1581 H   0  0  0  0  0  0  0  0  0  0  0  0
   -0.3578   -1.8733    1.2232 H   0  0  0  0  0  0  0  0  0  0  0  0
   -1.8252   -1.1396    2.0344 H   0  0  0  0  0  0  0  0  0  0  0  0
    3.6718    1.0025   -0.7963 H   0  0  0  0  0  0  0  0  0  0  0  0
    3.4672   -0.7173   -1.3444 H   0  0  0  0  0  0  0  0  0  0  0  0
    2.8016    0.5935   -2.3566 H   0  0  0  0  0  0  0  0  0  0  0  0
   -2.2833    1.4446    0.9216 H   0  0  0  0  0  0  0  0  0  0  0  0
   -0.7140    2.2579    0.2316 H   0  0  0  0  0  0  0  0  0  0  0  0
  1  2  3  0
  2  3  1  0
  3  4  1  0
  4  5  1  0
  5  6  3  0
  6  7  1  0
  4  8  1  0
  8  9  1  0
  9  4  1  0
  1 10  1  0
  3 11  1  0
  3 12  1  0
  7 13  1  0
  7 14  1  0
  7 15  1  0
  8 16  1  0
  8 17  1  0
M  END
