
     RDKit          3D

 18 18  0  0  0  0  0  0  0  0999 V2000
    2.4285   -0.4364   -2.1133 C   0  0  0  0  0  0  0  0  0  0  0  0
    2.1573   -0.5786   -0.9138 C   0  0  0  0  0  0  0  0  0  0  0  0
    1.8195   -0.7622    0.4916 C   0  0  0  0  0  0  0  0  0  0  0  0
    0.7753    0.0636    0.8374 O   0  0  0  0  0  0  0  0  0  0  0  0
   -0.3260   -0.2497    0.0511 C   0  0  0  0  0  0  0  0  0  0  0  0
   -1.5899   -0.4001    0.9138 C   0  0  0  0  0  0  0  0  0  0  0  0
   -1.5806    1.1288    0.9447 C   0  0  0  0  0  0  0  0  0  0  0  0
   -1.0053    1.0214   -0.4733 C   0  0  0  0  0  0  0  0  0  0  0  0
    2.6410   -0.3201   -3.1323 H   0  0  0  0  0  0  0  0  0  0  0  0
    2.7128   -0.5878    1.1482 H   0  0  0  0  0  0  0  0  0  0  0  0
    1.4999   -1.8280    0.6732 H   0  0  0  0  0  0  0  0  0  0  0  0
   -0.2138   -1.0504   -0.6769 H   0  0  0  0  0  0  0  0  0  0  0  0
   -2.4643   -0.7286    0.2932 H   0  0  0  0  0  0  0  0  0  0  0  0
   -1.4438   -0.8926    1.8684 H   0  0  0  0  0  0  0  0  0  0  0  0
   -0.7709    1.4427    1.6355 H   0  0  0  0  0  0  0  0  0  0  0  0
   -2.5496    1.6089    1.0270 H   0  0  0  0  0  0  0  0  0  0  0  0
   -0.3321    1.8390   -0.7226 H   0  0  0  0  0  0  0  0  0  0  0  0
   -1.7580    0.7301   -1.2341 H   0  0  0  0  0  0  0  0  0  0  0  0
  1  2  3  0
  2  3  1  0
  3  4  1  0
  4  5  1  0
  5  6  1  0
  6  7  1  0
  7  8  1  0
  8  5  1  0
  1  9  1  0
  3 10  1  0
  3 11  1  0
  5 12  1  0
  6 13  1  0
  6 14  1  0
  7 15  1  0
  7 16  1  0
  8 17  1  0
  8 18  1  0
M  END
