
     RDKit          3D

 21 21  0  0  0  0  0  0  0  0999 V2000
    2.9800   -2.1519    0.3696 C   0  0  0  0  0  0  0  0  0  0  0  0
    1.9490   -1.4985    0.3648 C   0  0  0  0  0  0  0  0  0  0  0  0
    0.7394   -0.7272    0.3771 C   0  0  0  0  0  0  0  0  0  0  0  0
   -0.4698   -1.2171    0.1786 C   0  0  0  0  0  0  0  0  0  0  0  0
   -1.5076   -0.1354    0.2594 C   0  0  0  0  0  0  0  0  0  0  0  0
   -2.6435   -0.3794   -0.6895 C   0  0  0  0  0  0  0  0  0  0  0  0
   -0.7125    1.0845   -0.0515 C   0  0  0  0  0  0  0  0  0  0  0  0
    0.6300    0.7500    0.6123 C   0  0  0  0  0  0  0  0  0  0  0  0
    1.6940    1.5090   -0.1123 C   0  0  0  0  0  0  0  0  0  0  0  0
    3.8876   -2.7063    0.3727 H   0  0  0  0  0  0  0  0  0  0  0  0
   -0.6484   -2.2715   -0.0149 H   0  0  0  0  0  0  0  0  0  0  0  0
   -1.8557   -0.1302    1.3056 H   0  0  0  0  0  0  0  0  0  0  0  0
   -2.4402    0.0673   -1.6817 H   0  0  0  0  0  0  0  0  0  0  0  0
   -3.5661    0.0180   -0.2296 H   0  0  0  0  0  0  0  0  0  0  0  0
   -2.7383   -1.4733   -0.8404 H   0  0  0  0  0  0  0  0  0  0  0  0
   -0.5942    1.2396   -1.1212 H   0  0  0  0  0  0  0  0  0  0  0  0
   -1.1549    1.9785    0.4516 H   0  0  0  0  0  0  0  0  0  0  0  0
    0.5695    0.9817    1.6953 H   0  0  0  0  0  0  0  0  0  0  0  0
    1.4098    1.5471   -1.1905 H   0  0  0  0  0  0  0  0  0  0  0  0
    2.6884    1.0073    0.0297 H   0  0  0  0  0  0  0  0  0  0  0  0
    1.7835    2.5079    0.3308 H   0  0  0  0  0  0  0  0  0  0  0  0
  1  2  3  0
  2  3  1  0
  3  4  2  0
  4  5  1  0
  5  6  1  0
  5  7  1  0
  7  8  1  0
  8  9  1  0
  8  3  1  0
  1 10  1  0
  4 11  1  0
  5 12  1  0
  6 13  1  0
  6 14  1  0
  6 15  1  0
  7 16  1  0
  7 17  1  0
  8 18  1  0
  9 19  1  0
  9 20  1  0
  9 21  1  0
M  END
