
     RDKit          3D

 15 16  0  0  0  0  0  0  0  0999 V2000
   -1.3722   -2.3031    1.2673 C   0  0  0  0  0  0  0  0  0  0  0  0
   -0.5516   -1.6454    0.6913 C   0  0  0  0  0  0  0  0  0  0  0  0
    0.4850   -0.8303   -0.0048 C   0  0  0  0  0  0  0  0  0  0  0  0
    0.8542    0.3311    0.8500 C   0  0  0  0  0  0  0  0  0  0  0  0
    1.3787    0.1977    1.9330 O   0  0  0  0  0  0  0  0  0  0  0  0
    0.4920    1.6175    0.1901 C   0  0  0  0  0  0  0  0  0  0  0  0
   -0.2207    1.1959   -1.0488 C   0  0  0  0  0  0  0  0  0  0  0  0
    0.5917    0.6305   -2.0216 O   0  0  0  0  0  0  0  0  0  0  0  0
   -0.1338   -0.2361   -1.2229 C   0  0  0  0  0  0  0  0  0  0  0  0
   -2.1137   -2.8774    1.7694 H   0  0  0  0  0  0  0  0  0  0  0  0
    1.3325   -1.4901   -0.2315 H   0  0  0  0  0  0  0  0  0  0  0  0
   -0.0959    2.2807    0.8338 H   0  0  0  0  0  0  0  0  0  0  0  0
    1.4787    2.1235   -0.0087 H   0  0  0  0  0  0  0  0  0  0  0  0
   -1.1199    1.7698   -1.2976 H   0  0  0  0  0  0  0  0  0  0  0  0
   -1.0050   -0.7644   -1.6992 H   0  0  0  0  0  0  0  0  0  0  0  0
  1  2  3  0
  2  3  1  0
  3  4  1  0
  4  5  2  0
  4  6  1  0
  6  7  1  0
  7  8  1  0
  8  9  1  0
  9  3  1  0
  9  7  1  0
  1 10  1  0
  3 11  1  0
  6 12  1  0
  6 13  1  0
  7 14  1  0
  9 15  1  0
M  END
