
     RDKit          3D

 17 17  0  0  0  0  0  0  0  0999 V2000
    4.6169    0.0790    0.0437 C   0  0  0  0  0  0  0  0  0  0  0  0
    3.4700   -0.2874   -0.0567 C   0  0  0  0  0  0  0  0  0  0  0  0
    2.1167   -0.6951   -0.1666 C   0  0  0  0  0  0  0  0  0  0  0  0
    0.9599   -1.0287   -0.2453 C   0  0  0  0  0  0  0  0  0  0  0  0
   -0.4670   -1.4144   -0.3350 C   0  0  0  0  0  0  0  0  0  0  0  0
   -1.2529   -0.1727   -0.5138 C   0  0  0  0  0  0  0  0  0  0  0  0
   -1.0435    0.7787    0.6724 C   0  0  0  0  0  0  0  0  0  0  0  0
   -2.4221    1.1855    0.1461 C   0  0  0  0  0  0  0  0  0  0  0  0
   -2.5817   -0.1829   -0.1823 O   0  0  0  0  0  0  0  0  0  0  0  0
    5.6360    0.3993    0.1500 H   0  0  0  0  0  0  0  0  0  0  0  0
   -0.6352   -2.1096   -1.1887 H   0  0  0  0  0  0  0  0  0  0  0  0
   -0.7596   -1.9448    0.5798 H   0  0  0  0  0  0  0  0  0  0  0  0
   -0.9720    0.3679   -1.4391 H   0  0  0  0  0  0  0  0  0  0  0  0
   -1.0593    0.1851    1.5943 H   0  0  0  0  0  0  0  0  0  0  0  0
   -0.2498    1.4972    0.5215 H   0  0  0  0  0  0  0  0  0  0  0  0
   -3.0649    1.5456    0.9399 H   0  0  0  0  0  0  0  0  0  0  0  0
   -2.2916    1.7975   -0.7512 H   0  0  0  0  0  0  0  0  0  0  0  0
  1  2  3  0
  2  3  1  0
  3  4  3  0
  4  5  1  0
  5  6  1  0
  6  7  1  0
  7  8  1  0
  8  9  1  0
  9  6  1  0
  1 10  1  0
  5 11  1  0
  5 12  1  0
  6 13  1  0
  7 14  1  0
  7 15  1  0
  8 16  1  0
  8 17  1  0
M  END
