
     RDKit          3D

 19 21  0  0  0  0  0  0  0  0999 V2000
    2.8729   -1.2541    0.8398 C   0  0  0  0  0  0  0  0  0  0  0  0
    1.8070   -0.9448    0.3488 C   0  0  0  0  0  0  0  0  0  0  0  0
    0.5192   -0.5841   -0.2218 C   0  0  0  0  0  0  0  0  0  0  0  0
   -0.4790   -1.7489   -0.4673 C   0  0  0  0  0  0  0  0  0  0  0  0
   -0.6955   -0.6743    0.5787 C   0  0  0  0  0  0  0  0  0  0  0  0
   -1.6653    0.4071    0.1119 C   0  0  0  0  0  0  0  0  0  0  0  0
   -0.9382    1.1993   -0.9315 C   0  0  0  0  0  0  0  0  0  0  0  0
    0.2544    1.9724   -0.4935 C   0  0  0  0  0  0  0  0  0  0  0  0
    0.4107    0.6156   -1.1168 C   0  0  0  0  0  0  0  0  0  0  0  0
    3.8074   -1.5324    1.2526 H   0  0  0  0  0  0  0  0  0  0  0  0
   -0.9474   -1.6816   -1.4456 H   0  0  0  0  0  0  0  0  0  0  0  0
   -0.1349   -2.7457   -0.1320 H   0  0  0  0  0  0  0  0  0  0  0  0
   -0.7360   -1.0114    1.6218 H   0  0  0  0  0  0  0  0  0  0  0  0
   -2.4968   -0.1311   -0.3907 H   0  0  0  0  0  0  0  0  0  0  0  0
   -1.9823    1.0701    0.9214 H   0  0  0  0  0  0  0  0  0  0  0  0
   -1.5501    1.5444   -1.7762 H   0  0  0  0  0  0  0  0  0  0  0  0
    0.5995    2.8696   -1.0612 H   0  0  0  0  0  0  0  0  0  0  0  0
    0.4382    2.0282    0.5968 H   0  0  0  0  0  0  0  0  0  0  0  0
    0.9162    0.6019   -2.1058 H   0  0  0  0  0  0  0  0  0  0  0  0
  1  2  3  0
  2  3  1  0
  3  4  1  0
  4  5  1  0
  5  6  1  0
  6  7  1  0
  7  8  1  0
  8  9  1  0
  5  3  1  0
  9  7  1  0
  9  3  1  0
  1 10  1  0
  4 11  1  0
  4 12  1  0
  5 13  1  0
  6 14  1  0
  6 15  1  0
  7 16  1  0
  8 17  1  0
  8 18  1  0
  9 19  1  0
M  END
