
     RDKit          3D

 17 18  0  0  0  0  0  0  0  0999 V2000
    3.1332    1.2855    1.2346 C   0  0  0  0  0  0  0  0  0  0  0  0
    2.1485    0.7386    0.8100 C   0  0  0  0  0  0  0  0  0  0  0  0
    1.0177    0.1120    0.2975 C   0  0  0  0  0  0  0  0  0  0  0  0
   -0.3404    0.5592    0.7520 C   0  0  0  0  0  0  0  0  0  0  0  0
   -1.1194   -0.2813    0.0622 C   0  0  0  0  0  0  0  0  0  0  0  0
   -2.5990   -0.4034   -0.0031 C   0  0  0  0  0  0  0  0  0  0  0  0
   -0.0719   -1.0997   -0.6555 C   0  0  0  0  0  0  0  0  0  0  0  0
    0.8214   -0.0213   -1.1899 C   0  0  0  0  0  0  0  0  0  0  0  0
    0.8792   -1.2692    0.3725 O   0  0  0  0  0  0  0  0  0  0  0  0
    4.0211    1.7797    1.5978 H   0  0  0  0  0  0  0  0  0  0  0  0
   -0.5953    1.3476    1.4476 H   0  0  0  0  0  0  0  0  0  0  0  0
   -2.9985   -0.3563    1.0145 H   0  0  0  0  0  0  0  0  0  0  0  0
   -2.8138   -1.3658   -0.5150 H   0  0  0  0  0  0  0  0  0  0  0  0
   -3.0520    0.4593   -0.5714 H   0  0  0  0  0  0  0  0  0  0  0  0
   -0.3680   -1.9225   -1.2345 H   0  0  0  0  0  0  0  0  0  0  0  0
    0.2405    0.8103   -1.6542 H   0  0  0  0  0  0  0  0  0  0  0  0
    1.6968   -0.3728   -1.7652 H   0  0  0  0  0  0  0  0  0  0  0  0
  1  2  3  0
  2  3  1  0
  3  4  1  0
  4  5  2  0
  5  6  1  0
  5  7  1  0
  7  8  1  0
  7  9  1  0
  8  3  1  0
  9  3  1  0
  1 10  1  0
  4 11  1  0
  6 12  1  0
  6 13  1  0
  6 14  1  0
  7 15  1  0
  8 16  1  0
  8 17  1  0
M  END
