
     RDKit          3D

 17 18  0  0  0  0  0  0  0  0999 V2000
    3.1814    0.7816    0.4858 C   0  0  0  0  0  0  0  0  0  0  0  0
    2.1259    0.7338   -0.0281 C   0  0  0  0  0  0  0  0  0  0  0  0
    0.8085    0.6731   -0.6984 C   0  0  0  0  0  0  0  0  0  0  0  0
    0.5478   -0.5488   -1.5193 C   0  0  0  0  0  0  0  0  0  0  0  0
   -0.2218   -0.3617   -0.3018 C   0  0  0  0  0  0  0  0  0  0  0  0
    0.1002   -1.1270    0.8484 O   0  0  0  0  0  0  0  0  0  0  0  0
   -1.6420    0.1141   -0.2804 C   0  0  0  0  0  0  0  0  0  0  0  0
   -2.3993    0.0115    0.9884 C   0  0  0  0  0  0  0  0  0  0  0  0
   -2.6845   -0.8174   -0.2265 O   0  0  0  0  0  0  0  0  0  0  0  0
    4.2084    0.8141    0.9735 H   0  0  0  0  0  0  0  0  0  0  0  0
    0.5255    1.6229   -1.1951 H   0  0  0  0  0  0  0  0  0  0  0  0
    0.1882   -0.3692   -2.5678 H   0  0  0  0  0  0  0  0  0  0  0  0
    1.3708   -1.2915   -1.5303 H   0  0  0  0  0  0  0  0  0  0  0  0
    1.0669   -1.3536    0.8354 H   0  0  0  0  0  0  0  0  0  0  0  0
   -1.8279    1.0458   -0.8764 H   0  0  0  0  0  0  0  0  0  0  0  0
   -2.0779   -0.6381    1.8226 H   0  0  0  0  0  0  0  0  0  0  0  0
   -3.2701    0.7104    1.1536 H   0  0  0  0  0  0  0  0  0  0  0  0
  1  2  3  0
  2  3  1  0
  3  4  1  0
  4  5  1  0
  5  6  1  0
  5  7  1  0
  7  8  1  0
  8  9  1  0
  5  3  1  0
  9  7  1  0
  1 10  1  0
  3 11  1  0
  4 12  1  0
  4 13  1  0
  6 14  1  0
  7 15  1  0
  8 16  1  0
  8 17  1  0
M  END
