
     RDKit          3D

 15 15  0  0  0  0  0  0  0  0999 V2000
    2.7776   -0.2431    0.0301 C   0  0  0  0  0  0  0  0  0  0  0  0
    1.5989   -0.0257    0.1702 C   0  0  0  0  0  0  0  0  0  0  0  0
    0.1469    0.2206    0.3349 C   0  0  0  0  0  0  0  0  0  0  0  0
    0.0502    1.3539    1.1402 O   0  0  0  0  0  0  0  0  0  0  0  0
   -0.4713   -0.9471    0.9737 C   0  0  0  0  0  0  0  0  0  0  0  0
   -0.5332   -2.0564    0.5051 O   0  0  0  0  0  0  0  0  0  0  0  0
   -0.4134    0.5603   -1.0064 C   0  0  0  0  0  0  0  0  0  0  0  0
   -1.5007   -0.0863   -1.6578 C   0  0  0  0  0  0  0  0  0  0  0  0
   -1.8347    0.9646   -0.8398 O   0  0  0  0  0  0  0  0  0  0  0  0
    3.8168   -0.4447   -0.0778 H   0  0  0  0  0  0  0  0  0  0  0  0
    0.6111    1.2087    1.9507 H   0  0  0  0  0  0  0  0  0  0  0  0
   -0.9167   -0.8132    1.9576 H   0  0  0  0  0  0  0  0  0  0  0  0
    0.1782    1.3247   -1.5494 H   0  0  0  0  0  0  0  0  0  0  0  0
   -1.6514    0.1059   -2.7409 H   0  0  0  0  0  0  0  0  0  0  0  0
   -1.8584   -1.1221   -1.3890 H   0  0  0  0  0  0  0  0  0  0  0  0
  1  2  3  0
  2  3  1  0
  3  4  1  0
  3  5  1  0
  5  6  2  0
  3  7  1  0
  7  8  1  0
  8  9  1  0
  9  7  1  0
  1 10  1  0
  4 11  1  0
  5 12  1  0
  7 13  1  0
  8 14  1  0
  8 15  1  0
M  END
