
     RDKit          3D

 17 17  0  0  0  0  0  0  0  0999 V2000
    2.5654   -1.6015    0.6676 C   0  0  0  0  0  0  0  0  0  0  0  0
    1.5261   -1.1875    0.2528 C   0  0  0  0  0  0  0  0  0  0  0  0
    0.2743   -0.7093   -0.2615 C   0  0  0  0  0  0  0  0  0  0  0  0
   -0.7811   -0.5153    0.8299 C   0  0  0  0  0  0  0  0  0  0  0  0
   -1.8575    0.1502   -0.0250 C   0  0  0  0  0  0  0  0  0  0  0  0
   -1.0481    1.1918   -0.7169 C   0  0  0  0  0  0  0  0  0  0  0  0
   -1.5291    2.2327   -1.1220 O   0  0  0  0  0  0  0  0  0  0  0  0
    0.3632    0.7175   -0.7970 C   0  0  0  0  0  0  0  0  0  0  0  0
    1.2078    1.4635    0.0151 O   0  0  0  0  0  0  0  0  0  0  0  0
    3.4962   -1.9865    1.0555 H   0  0  0  0  0  0  0  0  0  0  0  0
   -0.1788   -1.3599   -1.0361 H   0  0  0  0  0  0  0  0  0  0  0  0
   -0.4597    0.2502    1.5624 H   0  0  0  0  0  0  0  0  0  0  0  0
   -1.1255   -1.4487    1.2579 H   0  0  0  0  0  0  0  0  0  0  0  0
   -2.1898   -0.5903   -0.7798 H   0  0  0  0  0  0  0  0  0  0  0  0
   -2.6747    0.5655    0.5778 H   0  0  0  0  0  0  0  0  0  0  0  0
    0.7076    0.6991   -1.8465 H   0  0  0  0  0  0  0  0  0  0  0  0
    1.7038    2.1285   -0.5266 H   0  0  0  0  0  0  0  0  0  0  0  0
  1  2  3  0
  2  3  1  0
  3  4  1  0
  4  5  1  0
  5  6  1  0
  6  7  2  0
  6  8  1  0
  8  9  1  0
  8  3  1  0
  1 10  1  0
  3 11  1  0
  4 12  1  0
  4 13  1  0
  5 14  1  0
  5 15  1  0
  8 16  1  0
  9 17  1  0
M  END
