
     RDKit          3D

 20 20  0  0  0  0  0  0  0  0999 V2000
    3.4215    1.4845   -1.5776 C   0  0  0  0  0  0  0  0  0  0  0  0
    2.6414    0.7601   -1.0010 C   0  0  0  0  0  0  0  0  0  0  0  0
    1.7042   -0.1128   -0.2813 C   0  0  0  0  0  0  0  0  0  0  0  0
    0.7252    0.7904    0.4652 C   0  0  0  0  0  0  0  0  0  0  0  0
   -0.2782   -0.0395    1.2354 C   0  0  0  0  0  0  0  0  0  0  0  0
   -1.0821   -0.9368    0.3250 C   0  0  0  0  0  0  0  0  0  0  0  0
   -1.9184   -0.4038   -0.7525 C   0  0  0  0  0  0  0  0  0  0  0  0
   -2.6141   -0.8404    0.5245 C   0  0  0  0  0  0  0  0  0  0  0  0
    4.1125    2.1256   -2.0705 H   0  0  0  0  0  0  0  0  0  0  0  0
    2.2051   -0.7395    0.4752 H   0  0  0  0  0  0  0  0  0  0  0  0
    1.1001   -0.7056   -0.9843 H   0  0  0  0  0  0  0  0  0  0  0  0
    0.2330    1.4585   -0.2587 H   0  0  0  0  0  0  0  0  0  0  0  0
    1.3436    1.3859    1.1661 H   0  0  0  0  0  0  0  0  0  0  0  0
   -0.9465    0.6954    1.7559 H   0  0  0  0  0  0  0  0  0  0  0  0
    0.2320   -0.6615    1.9955 H   0  0  0  0  0  0  0  0  0  0  0  0
   -0.6704   -1.9692    0.2040 H   0  0  0  0  0  0  0  0  0  0  0  0
   -2.1158   -1.0881   -1.6186 H   0  0  0  0  0  0  0  0  0  0  0  0
   -1.9959    0.6680   -0.9916 H   0  0  0  0  0  0  0  0  0  0  0  0
   -3.1294   -1.8256    0.5439 H   0  0  0  0  0  0  0  0  0  0  0  0
   -2.9678   -0.0455    1.2223 H   0  0  0  0  0  0  0  0  0  0  0  0
  1  2  3  0
  2  3  1  0
  3  4  1  0
  4  5  1  0
  5  6  1  0
  6  7  1  0
  7  8  1  0
  8  6  1  0
  1  9  1  0
  3 10  1  0
  3 11  1  0
  4 12  1  0
  4 13  1  0
  5 14  1  0
  5 15  1  0
  6 16  1  0
  7 17  1  0
  7 18  1  0
  8 19  1  0
  8 20  1  0
M  END
