
     RDKit          3D

 17 18  0  0  0  0  0  0  0  0999 V2000
    2.0965   -2.1240   -0.5526 C   0  0  0  0  0  0  0  0  0  0  0  0
    1.4950   -1.0871   -0.6071 C   0  0  0  0  0  0  0  0  0  0  0  0
    0.7789    0.1738   -0.6858 C   0  0  0  0  0  0  0  0  0  0  0  0
    0.4249    0.7779    0.6544 C   0  0  0  0  0  0  0  0  0  0  0  0
   -0.2120   -0.3628    1.3525 C   0  0  0  0  0  0  0  0  0  0  0  0
   -0.9696   -0.9064    0.3807 C   0  0  0  0  0  0  0  0  0  0  0  0
   -0.7424   -0.0267   -0.7613 C   0  0  0  0  0  0  0  0  0  0  0  0
   -0.7912    1.3503   -0.0923 C   0  0  0  0  0  0  0  0  0  0  0  0
   -1.8916    1.5440    0.7254 O   0  0  0  0  0  0  0  0  0  0  0  0
    2.6185   -3.0356   -0.5223 H   0  0  0  0  0  0  0  0  0  0  0  0
    1.0765    0.8709   -1.4734 H   0  0  0  0  0  0  0  0  0  0  0  0
    1.0760    1.4372    1.1424 H   0  0  0  0  0  0  0  0  0  0  0  0
   -0.0904   -0.6706    2.3836 H   0  0  0  0  0  0  0  0  0  0  0  0
   -1.6056   -1.7794    0.3982 H   0  0  0  0  0  0  0  0  0  0  0  0
   -1.1889   -0.1565   -1.6963 H   0  0  0  0  0  0  0  0  0  0  0  0
   -0.5166    2.1550   -0.7682 H   0  0  0  0  0  0  0  0  0  0  0  0
   -1.5581    1.8399    1.6128 H   0  0  0  0  0  0  0  0  0  0  0  0
  1  2  3  0
  2  3  1  0
  3  4  1  0
  4  5  1  0
  5  6  2  0
  6  7  1  0
  7  8  1  0
  8  9  1  0
  7  3  1  0
  8  4  1  0
  1 10  1  0
  3 11  1  0
  4 12  1  0
  5 13  1  0
  6 14  1  0
  7 15  1  0
  8 16  1  0
  9 17  1  0
M  END
