
     RDKit          3D

 17 17  0  0  0  0  0  0  0  0999 V2000
    3.4172    0.0648   -1.8436 C   0  0  0  0  0  0  0  0  0  0  0  0
    2.2805   -0.2031   -1.6095 C   0  0  0  0  0  0  0  0  0  0  0  0
    0.9052   -0.5410   -1.3056 C   0  0  0  0  0  0  0  0  0  0  0  0
    0.3479   -1.5504   -1.8230 O   0  0  0  0  0  0  0  0  0  0  0  0
    0.0964    0.2704   -0.3850 C   0  0  0  0  0  0  0  0  0  0  0  0
   -0.8136   -0.5718    0.5358 C   0  0  0  0  0  0  0  0  0  0  0  0
   -0.8398   -0.2046    1.9856 C   0  0  0  0  0  0  0  0  0  0  0  0
   -1.3741    0.3449   -0.4949 C   0  0  0  0  0  0  0  0  0  0  0  0
   -1.9974    1.5069   -0.0473 O   0  0  0  0  0  0  0  0  0  0  0  0
    4.4289    0.2857   -2.0548 H   0  0  0  0  0  0  0  0  0  0  0  0
    0.6046    1.1418    0.0529 H   0  0  0  0  0  0  0  0  0  0  0  0
   -0.8868   -1.6512    0.3365 H   0  0  0  0  0  0  0  0  0  0  0  0
   -0.4366   -1.0489    2.5744 H   0  0  0  0  0  0  0  0  0  0  0  0
   -1.8839    0.0087    2.3193 H   0  0  0  0  0  0  0  0  0  0  0  0
   -0.1581    0.6595    2.1826 H   0  0  0  0  0  0  0  0  0  0  0  0
   -1.9128   -0.1307   -1.3352 H   0  0  0  0  0  0  0  0  0  0  0  0
   -1.7776    1.6189    0.9117 H   0  0  0  0  0  0  0  0  0  0  0  0
  1  2  3  0
  2  3  1  0
  3  4  2  0
  3  5  1  0
  5  6  1  0
  6  7  1  0
  6  8  1  0
  8  9  1  0
  8  5  1  0
  1 10  1  0
  5 11  1  0
  6 12  1  0
  7 13  1  0
  7 14  1  0
  7 15  1  0
  8 16  1  0
  9 17  1  0
M  END
