
     RDKit          3D

 21 20  0  0  0  0  0  0  0  0999 V2000
    3.6930    0.5251   -0.9046 C   0  0  0  0  0  0  0  0  0  0  0  0
    2.4875    0.4948   -0.9513 C   0  0  0  0  0  0  0  0  0  0  0  0
    0.9938    0.4801   -0.9965 C   0  0  0  0  0  0  0  0  0  0  0  0
    0.5859    1.7808   -0.4719 C   0  0  0  0  0  0  0  0  0  0  0  0
    0.2612    2.8822   -0.0294 C   0  0  0  0  0  0  0  0  0  0  0  0
    0.4692   -0.6415   -0.1757 C   0  0  0  0  0  0  0  0  0  0  0  0
   -1.0209   -0.7977   -0.1402 C   0  0  0  0  0  0  0  0  0  0  0  0
   -1.7532    0.3880    0.4130 C   0  0  0  0  0  0  0  0  0  0  0  0
   -1.3492   -1.9842    0.7787 C   0  0  0  0  0  0  0  0  0  0  0  0
    4.7558    0.5569   -0.8810 H   0  0  0  0  0  0  0  0  0  0  0  0
    0.7317    0.3645   -2.0705 H   0  0  0  0  0  0  0  0  0  0  0  0
   -0.0042    3.8366    0.3413 H   0  0  0  0  0  0  0  0  0  0  0  0
    0.8566   -0.5505    0.8743 H   0  0  0  0  0  0  0  0  0  0  0  0
    0.9693   -1.5812   -0.5539 H   0  0  0  0  0  0  0  0  0  0  0  0
   -1.4405   -1.0884   -1.1383 H   0  0  0  0  0  0  0  0  0  0  0  0
   -1.2529    0.8425    1.2755 H   0  0  0  0  0  0  0  0  0  0  0  0
   -1.9544    1.1071   -0.4051 H   0  0  0  0  0  0  0  0  0  0  0  0
   -2.7885    0.0762    0.7571 H   0  0  0  0  0  0  0  0  0  0  0  0
   -0.5588   -1.9820    1.5550 H   0  0  0  0  0  0  0  0  0  0  0  0
   -2.3268   -1.8145    1.2721 H   0  0  0  0  0  0  0  0  0  0  0  0
   -1.3548   -2.8947    0.1793 H   0  0  0  0  0  0  0  0  0  0  0  0
  1  2  3  0
  2  3  1  0
  3  4  1  0
  4  5  3  0
  3  6  1  0
  6  7  1  0
  7  8  1  0
  7  9  1  0
  1 10  1  0
  3 11  1  0
  5 12  1  0
  6 13  1  0
  6 14  1  0
  7 15  1  0
  8 16  1  0
  8 17  1  0
  8 18  1  0
  9 19  1  0
  9 20  1  0
  9 21  1  0
M  END
