
     RDKit          3D

 23 22  0  0  0  0  0  0  0  0999 V2000
   -2.4314    2.6670    1.6612 C   0  0  0  0  0  0  0  0  0  0  0  0
   -1.5115    2.3363    0.9284 C   0  0  0  0  0  0  0  0  0  0  0  0
   -0.4185    1.9166    0.0548 C   0  0  0  0  0  0  0  0  0  0  0  0
    0.0041    0.4801    0.3766 C   0  0  0  0  0  0  0  0  0  0  0  0
   -1.2211   -0.3776    0.1490 C   0  0  0  0  0  0  0  0  0  0  0  0
   -0.9483   -1.8359    0.4312 C   0  0  0  0  0  0  0  0  0  0  0  0
    1.0654    0.1174   -0.6408 C   0  0  0  0  0  0  0  0  0  0  0  0
    1.5353   -1.1800   -0.4516 O   0  0  0  0  0  0  0  0  0  0  0  0
    2.5064   -1.4663   -1.4079 C   0  0  0  0  0  0  0  0  0  0  0  0
   -3.2267    2.9473    2.3005 H   0  0  0  0  0  0  0  0  0  0  0  0
    0.4866    2.5339    0.1855 H   0  0  0  0  0  0  0  0  0  0  0  0
   -0.7509    1.8958   -1.0131 H   0  0  0  0  0  0  0  0  0  0  0  0
    0.3946    0.3996    1.4009 H   0  0  0  0  0  0  0  0  0  0  0  0
   -1.4889   -0.2904   -0.9307 H   0  0  0  0  0  0  0  0  0  0  0  0
   -2.0350    0.0340    0.7474 H   0  0  0  0  0  0  0  0  0  0  0  0
   -0.8608   -2.4435   -0.4902 H   0  0  0  0  0  0  0  0  0  0  0  0
   -1.8424   -2.2236    0.9889 H   0  0  0  0  0  0  0  0  0  0  0  0
   -0.0609   -2.0023    1.0618 H   0  0  0  0  0  0  0  0  0  0  0  0
    1.9250    0.8112   -0.6058 H   0  0  0  0  0  0  0  0  0  0  0  0
    0.5778    0.2400   -1.6474 H   0  0  0  0  0  0  0  0  0  0  0  0
    3.3213   -0.7090   -1.2488 H   0  0  0  0  0  0  0  0  0  0  0  0
    2.1069   -1.3472   -2.4464 H   0  0  0  0  0  0  0  0  0  0  0  0
    2.8728   -2.5033   -1.3407 H   0  0  0  0  0  0  0  0  0  0  0  0
  1  2  3  0
  2  3  1  0
  3  4  1  0
  4  5  1  0
  5  6  1  0
  4  7  1  0
  7  8  1  0
  8  9  1  0
  1 10  1  0
  3 11  1  0
  3 12  1  0
  4 13  1  0
  5 14  1  0
  5 15  1  0
  6 16  1  0
  6 17  1  0
  6 18  1  0
  7 19  1  0
  7 20  1  0
  9 21  1  0
  9 22  1  0
  9 23  1  0
M  END
