
     RDKit          3D

 23 23  0  0  0  0  0  0  0  0999 V2000
    4.3496   -0.4100    1.2134 C   0  0  0  0  0  0  0  0  0  0  0  0
    3.0040   -0.3835    1.1985 C   0  0  0  0  0  0  0  0  0  0  0  0
    1.6317   -0.3686    1.1942 C   0  0  0  0  0  0  0  0  0  0  0  0
    1.0756   -0.2482   -0.2678 C   0  0  0  0  0  0  0  0  0  0  0  0
   -0.4174   -0.1677   -0.2393 C   0  0  0  0  0  0  0  0  0  0  0  0
   -1.2293   -1.3637    0.2462 C   0  0  0  0  0  0  0  0  0  0  0  0
   -0.8792    1.1321    0.4605 C   0  0  0  0  0  0  0  0  0  0  0  0
   -1.0605    0.9170   -1.0122 C   0  0  0  0  0  0  0  0  0  0  0  0
   -2.4065    0.8335   -1.5746 C   0  0  0  0  0  0  0  0  0  0  0  0
    5.3388   -0.4425    1.2211 H   0  0  0  0  0  0  0  0  0  0  0  0
    1.1951    0.4200    1.8086 H   0  0  0  0  0  0  0  0  0  0  0  0
    1.1813   -1.3585    1.5177 H   0  0  0  0  0  0  0  0  0  0  0  0
    1.3734   -1.1573   -0.8788 H   0  0  0  0  0  0  0  0  0  0  0  0
    1.5529    0.6170   -0.7348 H   0  0  0  0  0  0  0  0  0  0  0  0
   -0.9630   -2.3059   -0.2847 H   0  0  0  0  0  0  0  0  0  0  0  0
   -1.0497   -1.4764    1.3242 H   0  0  0  0  0  0  0  0  0  0  0  0
   -2.3127   -1.1232    0.0770 H   0  0  0  0  0  0  0  0  0  0  0  0
   -0.1057    1.8931    0.7421 H   0  0  0  0  0  0  0  0  0  0  0  0
   -1.6768    1.0713    1.2023 H   0  0  0  0  0  0  0  0  0  0  0  0
   -0.3388    1.5381   -1.6435 H   0  0  0  0  0  0  0  0  0  0  0  0
   -2.7280    1.8030   -2.0811 H   0  0  0  0  0  0  0  0  0  0  0  0
   -3.2173    0.4275   -0.9865 H   0  0  0  0  0  0  0  0  0  0  0  0
   -2.3175    0.1529   -2.5025 H   0  0  0  0  0  0  0  0  0  0  0  0
  1  2  3  0
  2  3  1  0
  3  4  1  0
  4  5  1  0
  5  6  1  0
  5  7  1  0
  7  8  1  0
  8  9  1  0
  8  5  1  0
  1 10  1  0
  3 11  1  0
  3 12  1  0
  4 13  1  0
  4 14  1  0
  6 15  1  0
  6 16  1  0
  6 17  1  0
  7 18  1  0
  7 19  1  0
  8 20  1  0
  9 21  1  0
  9 22  1  0
  9 23  1  0
M  END
