
     RDKit          3D

 19 19  0  0  0  0  0  0  0  0999 V2000
    0.4901    2.8692   -0.9246 C   0  0  0  0  0  0  0  0  0  0  0  0
    0.3154    1.7977   -0.4347 C   0  0  0  0  0  0  0  0  0  0  0  0
    0.1150    0.4520    0.1992 C   0  0  0  0  0  0  0  0  0  0  0  0
    1.1501    0.3429    1.1025 O   0  0  0  0  0  0  0  0  0  0  0  0
    0.6233    0.3740    2.3877 C   0  0  0  0  0  0  0  0  0  0  0  0
    0.1265   -0.5876   -0.8778 C   0  0  0  0  0  0  0  0  0  0  0  0
   -0.0657   -2.0045   -0.4530 C   0  0  0  0  0  0  0  0  0  0  0  0
   -1.0626   -2.0981   -1.4530 O   0  0  0  0  0  0  0  0  0  0  0  0
   -1.1558   -0.7002   -1.6400 C   0  0  0  0  0  0  0  0  0  0  0  0
    0.6652    3.8281   -1.3643 H   0  0  0  0  0  0  0  0  0  0  0  0
   -0.8392    0.5205    0.7538 H   0  0  0  0  0  0  0  0  0  0  0  0
    0.0598    1.3361    2.5666 H   0  0  0  0  0  0  0  0  0  0  0  0
   -0.0836   -0.4449    2.6157 H   0  0  0  0  0  0  0  0  0  0  0  0
    1.4556    0.2947    3.1420 H   0  0  0  0  0  0  0  0  0  0  0  0
    0.9981   -0.4125   -1.5531 H   0  0  0  0  0  0  0  0  0  0  0  0
   -0.4288   -2.1802    0.5812 H   0  0  0  0  0  0  0  0  0  0  0  0
    0.7581   -2.6941   -0.7735 H   0  0  0  0  0  0  0  0  0  0  0  0
   -2.0627   -0.3121   -1.1775 H   0  0  0  0  0  0  0  0  0  0  0  0
   -1.0587   -0.3809   -2.6973 H   0  0  0  0  0  0  0  0  0  0  0  0
  1  2  3  0
  2  3  1  0
  3  4  1  0
  4  5  1  0
  3  6  1  0
  6  7  1  0
  7  8  1  0
  8  9  1  0
  9  6  1  0
  1 10  1  0
  3 11  1  0
  5 12  1  0
  5 13  1  0
  5 14  1  0
  6 15  1  0
  7 16  1  0
  7 17  1  0
  9 18  1  0
  9 19  1  0
M  END
