
     RDKit          3D

 11 10  0  0  0  0  0  0  0  0999 V2000
   -2.9393    0.3201    0.4498 C   0  0  0  0  0  0  0  0  0  0  0  0
   -1.8236    0.2381   -0.0430 C   0  0  0  0  0  0  0  0  0  0  0  0
   -0.4658    0.1554   -0.6374 C   0  0  0  0  0  0  0  0  0  0  0  0
    0.5249   -0.0847    0.3897 C   0  0  0  0  0  0  0  0  0  0  0  0
    0.2305   -0.1135    1.6488 O   0  0  0  0  0  0  0  0  0  0  0  0
    1.8911   -0.3046    0.1015 C   0  0  0  0  0  0  0  0  0  0  0  0
    3.0808   -0.4951   -0.1408 C   0  0  0  0  0  0  0  0  0  0  0  0
   -3.9296    0.4087    0.8763 H   0  0  0  0  0  0  0  0  0  0  0  0
   -0.4057   -0.6065   -1.4310 H   0  0  0  0  0  0  0  0  0  0  0  0
   -0.2740    1.1599   -1.1259 H   0  0  0  0  0  0  0  0  0  0  0  0
    4.1108   -0.6778   -0.3456 H   0  0  0  0  0  0  0  0  0  0  0  0
  1  2  3  0
  2  3  1  0
  3  4  1  0
  4  5  2  0
  4  6  1  0
  6  7  3  0
  1  8  1  0
  3  9  1  0
  3 10  1  0
  7 11  1  0
M  END
