
     RDKit          3D

 15 14  0  0  0  0  0  0  0  0999 V2000
    4.5683    0.7814   -0.8598 C   0  0  0  0  0  0  0  0  0  0  0  0
    3.3919    0.5725   -0.8400 C   0  0  0  0  0  0  0  0  0  0  0  0
    1.3732    0.2415   -0.7816 C   0  0  0  0  0  0  0  0  0  0  0  0
    0.4579    0.0910   -0.7622 C   0  0  0  0  0  0  0  0  0  0  0  0
   -0.6023   -0.0757   -0.7518 C   0  0  0  0  0  0  0  0  0  0  0  0
   -1.2454   -0.1466   -2.3688 O   0  0  0  0  0  0  0  0  0  0  0  0
   -1.7621   -0.2869   -0.0296 C   0  0  0  0  0  0  0  0  0  0  0  0
   -1.6574   -1.0155    1.2418 C   0  0  0  0  0  0  0  0  0  0  0  0
   -1.5162    1.3383    0.6764 O   0  0  0  0  0  0  0  0  0  0  0  0
    5.8173    1.0125   -0.9002 H   0  0  0  0  0  0  0  0  0  0  0  0
   -2.7009    0.2098   -0.4730 H   0  0  0  0  0  0  0  0  0  0  0  0
   -2.2874   -1.6683    1.6386 H   0  0  0  0  0  0  0  0  0  0  0  0
   -0.7636   -1.8804    0.7901 H   0  0  0  0  0  0  0  0  0  0  0  0
   -0.7928   -0.6640    2.0136 H   0  0  0  0  0  0  0  0  0  0  0  0
   -2.2803    1.2080    1.4064 H   0  0  0  0  0  0  0  0  0  0  0  0
  1  2  3  0
  2  3  1  0
  3  4  3  0
  4  5  1  0
  5  6  2  0
  5  7  1  0
  7  8  1  0
  7  9  1  0
  1 10  1  0
  7 11  1  0
  8 12  1  0
  8 13  1  0
  8 14  1  0
  9 15  1  0
M  END
