
     RDKit          3D

 17 17  0  0  0  0  0  0  0  0999 V2000
    3.6640    0.1839   -0.9770 C   0  0  0  0  0  0  0  0  0  0  0  0
    2.5239    0.1960   -0.5894 C   0  0  0  0  0  0  0  0  0  0  0  0
    1.1362    0.2081   -0.1341 C   0  0  0  0  0  0  0  0  0  0  0  0
    0.0754    0.5356   -0.8390 C   0  0  0  0  0  0  0  0  0  0  0  0
   -1.1868    0.4433   -0.0829 C   0  0  0  0  0  0  0  0  0  0  0  0
   -1.9620   -0.8017   -0.4992 C   0  0  0  0  0  0  0  0  0  0  0  0
   -0.7324    0.2973    1.3688 C   0  0  0  0  0  0  0  0  0  0  0  0
    0.6747   -0.1452    1.1988 C   0  0  0  0  0  0  0  0  0  0  0  0
    1.4055   -0.7447    2.0578 O   0  0  0  0  0  0  0  0  0  0  0  0
    4.6734    0.1909   -1.3144 H   0  0  0  0  0  0  0  0  0  0  0  0
    0.1167    0.8481   -1.8882 H   0  0  0  0  0  0  0  0  0  0  0  0
   -1.8179    1.3407   -0.2190 H   0  0  0  0  0  0  0  0  0  0  0  0
   -1.3728   -1.4220   -1.1967 H   0  0  0  0  0  0  0  0  0  0  0  0
   -2.1523   -1.4070    0.4021 H   0  0  0  0  0  0  0  0  0  0  0  0
   -2.9423   -0.5210   -0.9716 H   0  0  0  0  0  0  0  0  0  0  0  0
   -1.3436   -0.4714    1.8449 H   0  0  0  0  0  0  0  0  0  0  0  0
   -0.7597    1.2851    1.8391 H   0  0  0  0  0  0  0  0  0  0  0  0
  1  2  3  0
  2  3  1  0
  3  4  2  0
  4  5  1  0
  5  6  1  0
  5  7  1  0
  7  8  1  0
  8  9  2  0
  8  3  1  0
  1 10  1  0
  4 11  1  0
  5 12  1  0
  6 13  1  0
  6 14  1  0
  6 15  1  0
  7 16  1  0
  7 17  1  0
M  END
