
     RDKit          3D

 22 21  0  0  0  0  0  0  0  0999 V2000
    2.4992    2.2551    0.2547 C   0  0  0  0  0  0  0  0  0  0  0  0
    1.8181    1.1757   -0.4251 C   0  0  0  0  0  0  0  0  0  0  0  0
    1.2891    0.3283   -0.9364 C   0  0  0  0  0  0  0  0  0  0  0  0
    2.0778   -0.5720   -1.8210 C   0  0  0  0  0  0  0  0  0  0  0  0
    0.4167   -0.5329    0.1297 C   0  0  0  0  0  0  0  0  0  0  0  0
   -0.7158    0.2472    0.4090 C   0  0  0  0  0  0  0  0  0  0  0  0
   -1.9413    0.0942    1.2271 C   0  0  0  0  0  0  0  0  0  0  0  0
   -2.7730   -1.0485    0.7331 C   0  0  0  0  0  0  0  0  0  0  0  0
    3.1532    3.2487    0.8873 H   0  0  0  0  0  0  0  0  0  0  0  0
    0.3491    0.6921   -1.6344 H   0  0  0  0  0  0  0  0  0  0  0  0
    2.6105   -0.3596   -2.7560 H   0  0  0  0  0  0  0  0  0  0  0  0
    3.2126   -0.4370   -1.1648 H   0  0  0  0  0  0  0  0  0  0  0  0
    1.9918   -1.6886   -1.6358 H   0  0  0  0  0  0  0  0  0  0  0  0
    0.0197   -1.4434   -0.5858 H   0  0  0  0  0  0  0  0  0  0  0  0
    1.1786   -1.0143    0.6863 H   0  0  0  0  0  0  0  0  0  0  0  0
   -1.2702    0.3554   -0.7312 H   0  0  0  0  0  0  0  0  0  0  0  0
   -0.5140    1.4243    0.4043 H   0  0  0  0  0  0  0  0  0  0  0  0
   -2.6592    1.0082    0.7392 H   0  0  0  0  0  0  0  0  0  0  0  0
   -1.7750    0.3505    2.2641 H   0  0  0  0  0  0  0  0  0  0  0  0
   -2.1813   -2.0051    0.5730 H   0  0  0  0  0  0  0  0  0  0  0  0
   -3.2162   -0.7465   -0.3010 H   0  0  0  0  0  0  0  0  0  0  0  0
   -3.5703   -1.3319    1.4253 H   0  0  0  0  0  0  0  0  0  0  0  0
  1  2  3  0
  2  3  1  0
  3  4  1  0
  3  5  1  0
  5  6  1  0
  6  7  1  0
  7  8  1  0
  1  9  1  0
  3 10  1  0
  4 11  1  0
  4 12  1  0
  4 13  1  0
  5 14  1  0
  5 15  1  0
  6 16  1  0
  6 17  1  0
  7 18  1  0
  7 19  1  0
  8 20  1  0
  8 21  1  0
  8 22  1  0
M  END
