
     RDKit          3D

 17 17  0  0  0  0  0  0  0  0999 V2000
    2.9381   -0.8305   -0.5033 C   0  0  0  0  0  0  0  0  0  0  0  0
    1.7356   -0.7734   -0.5958 C   0  0  0  0  0  0  0  0  0  0  0  0
    0.2651   -0.6789   -0.7016 C   0  0  0  0  0  0  0  0  0  0  0  0
   -0.3518   -1.6872    0.2493 C   0  0  0  0  0  0  0  0  0  0  0  0
   -1.4042   -0.6106    0.5376 C   0  0  0  0  0  0  0  0  0  0  0  0
   -0.3333    0.4021    0.1721 C   0  0  0  0  0  0  0  0  0  0  0  0
   -0.9163    1.4788   -0.5178 O   0  0  0  0  0  0  0  0  0  0  0  0
   -0.6681    2.8094   -0.2153 C   0  0  0  0  0  0  0  0  0  0  0  0
    0.1128    3.0735    0.7170 O   0  0  0  0  0  0  0  0  0  0  0  0
    4.0010   -0.8957   -0.4126 H   0  0  0  0  0  0  0  0  0  0  0  0
   -0.1333   -0.7658   -1.7111 H   0  0  0  0  0  0  0  0  0  0  0  0
   -0.7624   -2.5939   -0.2386 H   0  0  0  0  0  0  0  0  0  0  0  0
    0.2706   -1.8698    1.1338 H   0  0  0  0  0  0  0  0  0  0  0  0
   -2.1675   -0.6556   -0.2618 H   0  0  0  0  0  0  0  0  0  0  0  0
   -1.7547   -0.5882    1.5685 H   0  0  0  0  0  0  0  0  0  0  0  0
    0.3511    0.6428    0.9892 H   0  0  0  0  0  0  0  0  0  0  0  0
   -1.1827    3.5430   -0.8253 H   0  0  0  0  0  0  0  0  0  0  0  0
  1  2  3  0
  2  3  1  0
  3  4  1  0
  4  5  1  0
  5  6  1  0
  6  7  1  0
  7  8  1  0
  8  9  2  0
  6  3  1  0
  1 10  1  0
  3 11  1  0
  4 12  1  0
  4 13  1  0
  5 14  1  0
  5 15  1  0
  6 16  1  0
  8 17  1  0
M  END
