
     RDKit          3D

 18 18  0  0  0  0  0  0  0  0999 V2000
    0.2373   -2.4885   -1.2731 C   0  0  0  0  0  0  0  0  0  0  0  0
    0.5704   -1.3369   -0.7775 C   0  0  0  0  0  0  0  0  0  0  0  0
    0.9556   -0.0767   -0.2163 C   0  0  0  0  0  0  0  0  0  0  0  0
    0.8429    1.0428   -1.2413 C   0  0  0  0  0  0  0  0  0  0  0  0
   -0.5435    1.5120   -1.0703 C   0  0  0  0  0  0  0  0  0  0  0  0
   -1.0128    1.1567    0.1022 C   0  0  0  0  0  0  0  0  0  0  0  0
    0.0076    0.4052    0.8537 C   0  0  0  0  0  0  0  0  0  0  0  0
   -0.6524   -0.7463    1.5808 C   0  0  0  0  0  0  0  0  0  0  0  0
   -0.0078   -3.3639   -1.6656 H   0  0  0  0  0  0  0  0  0  0  0  0
    1.9953   -0.1005    0.1298 H   0  0  0  0  0  0  0  0  0  0  0  0
    0.9772    0.6888   -2.2798 H   0  0  0  0  0  0  0  0  0  0  0  0
    1.5509    1.8684   -1.0117 H   0  0  0  0  0  0  0  0  0  0  0  0
   -1.1514    2.0865   -1.8028 H   0  0  0  0  0  0  0  0  0  0  0  0
   -2.0258    1.3688    0.5099 H   0  0  0  0  0  0  0  0  0  0  0  0
    0.5233    1.0514    1.5642 H   0  0  0  0  0  0  0  0  0  0  0  0
   -1.6162   -0.9843    1.1352 H   0  0  0  0  0  0  0  0  0  0  0  0
   -0.7363   -0.4902    2.6642 H   0  0  0  0  0  0  0  0  0  0  0  0
    0.0858   -1.5933    1.5399 H   0  0  0  0  0  0  0  0  0  0  0  0
  1  2  3  0
  2  3  1  0
  3  4  1  0
  4  5  1  0
  5  6  2  0
  6  7  1  0
  7  8  1  0
  7  3  1  0
  1  9  1  0
  3 10  1  0
  4 11  1  0
  4 12  1  0
  5 13  1  0
  6 14  1  0
  7 15  1  0
  8 16  1  0
  8 17  1  0
  8 18  1  0
M  END
