
     RDKit          3D

 17 16  0  0  0  0  0  0  0  0999 V2000
   -1.0683    2.3668    0.4945 C   0  0  0  0  0  0  0  0  0  0  0  0
   -1.1325    1.3474   -0.1887 C   0  0  0  0  0  0  0  0  0  0  0  0
   -1.2271    0.1272   -0.9852 C   0  0  0  0  0  0  0  0  0  0  0  0
   -1.6093   -1.0052   -0.0397 C   0  0  0  0  0  0  0  0  0  0  0  0
    0.2266   -0.1015   -1.4867 C   0  0  0  0  0  0  0  0  0  0  0  0
    1.0953   -0.2339   -0.3315 C   0  0  0  0  0  0  0  0  0  0  0  0
    1.8690   -0.3476    0.6617 C   0  0  0  0  0  0  0  0  0  0  0  0
    2.7060   -0.4849    1.7708 C   0  0  0  0  0  0  0  0  0  0  0  0
    3.9246   -0.2964    1.6990 O   0  0  0  0  0  0  0  0  0  0  0  0
   -1.0013    3.2486    1.0964 H   0  0  0  0  0  0  0  0  0  0  0  0
   -1.8667    0.2040   -1.8540 H   0  0  0  0  0  0  0  0  0  0  0  0
   -2.2895   -0.6416    0.7675 H   0  0  0  0  0  0  0  0  0  0  0  0
   -2.0182   -1.8438   -0.6211 H   0  0  0  0  0  0  0  0  0  0  0  0
   -0.6653   -1.3585    0.4285 H   0  0  0  0  0  0  0  0  0  0  0  0
    0.5148    0.7723   -2.0759 H   0  0  0  0  0  0  0  0  0  0  0  0
    0.1990   -0.9857   -2.1170 H   0  0  0  0  0  0  0  0  0  0  0  0
    2.3428   -0.7671    2.7815 H   0  0  0  0  0  0  0  0  0  0  0  0
  1  2  3  0
  2  3  1  0
  3  4  1  0
  3  5  1  0
  5  6  1  0
  6  7  3  0
  7  8  1  0
  8  9  2  0
  1 10  1  0
  3 11  1  0
  4 12  1  0
  4 13  1  0
  4 14  1  0
  5 15  1  0
  5 16  1  0
  8 17  1  0
M  END
