
     RDKit          3D

 17 17  0  0  0  0  0  0  0  0999 V2000
    2.2862    1.2141    0.0729 C   0  0  0  0  0  0  0  0  0  0  0  0
    1.5630    0.2568   -0.1376 C   0  0  0  0  0  0  0  0  0  0  0  0
    0.7037   -0.9039   -0.4116 C   0  0  0  0  0  0  0  0  0  0  0  0
    1.2376   -2.2100    0.0697 C   0  0  0  0  0  0  0  0  0  0  0  0
    0.6217   -3.2421   -0.0960 O   0  0  0  0  0  0  0  0  0  0  0  0
    0.1383   -0.9479   -1.6873 O   0  0  0  0  0  0  0  0  0  0  0  0
   -0.7031   -0.7398   -0.4798 C   0  0  0  0  0  0  0  0  0  0  0  0
   -1.4533    0.5337   -0.6063 C   0  0  0  0  0  0  0  0  0  0  0  0
   -1.1497    1.4320    0.5756 C   0  0  0  0  0  0  0  0  0  0  0  0
    2.9012    2.0564    0.2628 H   0  0  0  0  0  0  0  0  0  0  0  0
    2.2018   -2.2795    0.5877 H   0  0  0  0  0  0  0  0  0  0  0  0
   -1.3391   -1.6513   -0.3808 H   0  0  0  0  0  0  0  0  0  0  0  0
   -1.2553    1.1165   -1.5305 H   0  0  0  0  0  0  0  0  0  0  0  0
   -2.5416    0.3307   -0.5844 H   0  0  0  0  0  0  0  0  0  0  0  0
   -2.0407    1.6027    1.2058 H   0  0  0  0  0  0  0  0  0  0  0  0
   -0.3640    0.9989    1.2299 H   0  0  0  0  0  0  0  0  0  0  0  0
   -0.8067    2.4327    0.2429 H   0  0  0  0  0  0  0  0  0  0  0  0
  1  2  3  0
  2  3  1  0
  3  4  1  0
  4  5  2  0
  3  6  1  0
  6  7  1  0
  7  8  1  0
  8  9  1  0
  7  3  1  0
  1 10  1  0
  4 11  1  0
  7 12  1  0
  8 13  1  0
  8 14  1  0
  9 15  1  0
  9 16  1  0
  9 17  1  0
M  END
