
     RDKit          3D

 21 21  0  0  0  0  0  0  0  0999 V2000
    1.5535    0.2837   -3.3606 C   0  0  0  0  0  0  0  0  0  0  0  0
    0.7719    0.2223   -2.2775 C   0  0  0  0  0  0  0  0  0  0  0  0
    0.0077    0.1476   -1.2259 C   0  0  0  0  0  0  0  0  0  0  0  0
   -0.6773   -1.1276   -0.8650 C   0  0  0  0  0  0  0  0  0  0  0  0
   -0.8824   -1.1222    0.6336 C   0  0  0  0  0  0  0  0  0  0  0  0
    0.0084   -0.0304    1.2156 C   0  0  0  0  0  0  0  0  0  0  0  0
   -0.8777    1.1083    1.7016 C   0  0  0  0  0  0  0  0  0  0  0  0
    0.7999   -0.4962    2.2781 O   0  0  0  0  0  0  0  0  0  0  0  0
    0.8897    0.4160    0.0957 C   0  0  0  0  0  0  0  0  0  0  0  0
    2.2116    0.3182   -4.2636 H   0  0  0  0  0  0  0  0  0  0  0  0
   -0.7548    1.0042   -1.1682 H   0  0  0  0  0  0  0  0  0  0  0  0
   -0.0371   -2.0237   -1.1618 H   0  0  0  0  0  0  0  0  0  0  0  0
   -1.6238   -1.2878   -1.4117 H   0  0  0  0  0  0  0  0  0  0  0  0
   -1.9065   -0.8951    0.8977 H   0  0  0  0  0  0  0  0  0  0  0  0
   -0.5311   -2.1266    1.0290 H   0  0  0  0  0  0  0  0  0  0  0  0
   -0.8745    1.2280    2.7931 H   0  0  0  0  0  0  0  0  0  0  0  0
   -1.9642    0.9156    1.4086 H   0  0  0  0  0  0  0  0  0  0  0  0
   -0.5601    2.0673    1.2473 H   0  0  0  0  0  0  0  0  0  0  0  0
    1.5633    0.1691    2.4067 H   0  0  0  0  0  0  0  0  0  0  0  0
    1.7404   -0.2592   -0.0322 H   0  0  0  0  0  0  0  0  0  0  0  0
    1.1430    1.4883    0.0596 H   0  0  0  0  0  0  0  0  0  0  0  0
  1  2  3  0
  2  3  1  0
  3  4  1  0
  4  5  1  0
  5  6  1  0
  6  7  1  0
  6  8  1  0
  6  9  1  0
  9  3  1  0
  1 10  1  0
  3 11  1  0
  4 12  1  0
  4 13  1  0
  5 14  1  0
  5 15  1  0
  7 16  1  0
  7 17  1  0
  7 18  1  0
  8 19  1  0
  9 20  1  0
  9 21  1  0
M  END
