
     RDKit          3D

 17 18  0  0  0  0  0  0  0  0999 V2000
    3.2521   -0.1952    0.9182 C   0  0  0  0  0  0  0  0  0  0  0  0
    2.1571    0.0297    0.4435 C   0  0  0  0  0  0  0  0  0  0  0  0
    0.8295    0.2850   -0.1103 C   0  0  0  0  0  0  0  0  0  0  0  0
   -0.0919    1.0507    0.8028 C   0  0  0  0  0  0  0  0  0  0  0  0
   -1.4075    0.3592    0.9578 C   0  0  0  0  0  0  0  0  0  0  0  0
   -1.9384   -0.4195    0.0252 C   0  0  0  0  0  0  0  0  0  0  0  0
   -1.2145   -0.6270   -1.2319 C   0  0  0  0  0  0  0  0  0  0  0  0
    0.2506   -0.6646   -0.9818 C   0  0  0  0  0  0  0  0  0  0  0  0
    0.8655    0.6147   -1.4656 O   0  0  0  0  0  0  0  0  0  0  0  0
    4.2164   -0.3816    1.3339 H   0  0  0  0  0  0  0  0  0  0  0  0
    0.3706    1.1550    1.8007 H   0  0  0  0  0  0  0  0  0  0  0  0
   -0.2337    2.1011    0.4180 H   0  0  0  0  0  0  0  0  0  0  0  0
   -1.9271    0.5360    1.9123 H   0  0  0  0  0  0  0  0  0  0  0  0
   -2.8995   -0.8992    0.1900 H   0  0  0  0  0  0  0  0  0  0  0  0
   -1.5461    0.1751   -1.9393 H   0  0  0  0  0  0  0  0  0  0  0  0
   -1.5303   -1.5807   -1.7443 H   0  0  0  0  0  0  0  0  0  0  0  0
    0.8471   -1.5387   -1.3290 H   0  0  0  0  0  0  0  0  0  0  0  0
  1  2  3  0
  2  3  1  0
  3  4  1  0
  4  5  1  0
  5  6  2  0
  6  7  1  0
  7  8  1  0
  8  9  1  0
  8  3  1  0
  9  3  1  0
  1 10  1  0
  4 11  1  0
  4 12  1  0
  5 13  1  0
  6 14  1  0
  7 15  1  0
  7 16  1  0
  8 17  1  0
M  END
