
     RDKit          3D

 15 14  0  0  0  0  0  0  0  0999 V2000
   -0.6295    2.2505    0.8167 C   0  0  0  0  0  0  0  0  0  0  0  0
   -0.4322    1.2010    0.2506 C   0  0  0  0  0  0  0  0  0  0  0  0
   -0.1921   -0.0809   -0.4400 C   0  0  0  0  0  0  0  0  0  0  0  0
   -0.5389   -1.1832    0.5068 C   0  0  0  0  0  0  0  0  0  0  0  0
   -0.9586   -0.1358   -1.7063 C   0  0  0  0  0  0  0  0  0  0  0  0
   -2.1733   -0.0895   -1.6383 O   0  0  0  0  0  0  0  0  0  0  0  0
    1.1964   -0.1468   -0.7181 O   0  0  0  0  0  0  0  0  0  0  0  0
    2.0632   -0.1015    0.3542 C   0  0  0  0  0  0  0  0  0  0  0  0
    1.7325   -0.0074    1.5481 O   0  0  0  0  0  0  0  0  0  0  0  0
   -0.8095    3.1743    1.3099 H   0  0  0  0  0  0  0  0  0  0  0  0
   -1.1796   -1.9547   -0.0080 H   0  0  0  0  0  0  0  0  0  0  0  0
    0.3501   -1.7623    0.8635 H   0  0  0  0  0  0  0  0  0  0  0  0
   -1.0336   -0.7970    1.4167 H   0  0  0  0  0  0  0  0  0  0  0  0
   -0.5145   -0.2144   -2.6891 H   0  0  0  0  0  0  0  0  0  0  0  0
    3.1197   -0.1523    0.1332 H   0  0  0  0  0  0  0  0  0  0  0  0
  1  2  3  0
  2  3  1  0
  3  4  1  0
  3  5  1  0
  5  6  2  0
  3  7  1  0
  7  8  1  0
  8  9  2  0
  1 10  1  0
  4 11  1  0
  4 12  1  0
  4 13  1  0
  5 14  1  0
  8 15  1  0
M  END
