
     RDKit          3D

 19 20  0  0  0  0  0  0  0  0999 V2000
    0.1830    2.3065   -1.1040 C   0  0  0  0  0  0  0  0  0  0  0  0
    0.0487    1.1161   -0.9880 C   0  0  0  0  0  0  0  0  0  0  0  0
   -0.1383   -0.3160   -0.8478 C   0  0  0  0  0  0  0  0  0  0  0  0
   -0.9665   -0.5802    0.3990 C   0  0  0  0  0  0  0  0  0  0  0  0
   -2.2699    0.1547    0.2874 C   0  0  0  0  0  0  0  0  0  0  0  0
   -0.1185   -0.0797    1.3617 O   0  0  0  0  0  0  0  0  0  0  0  0
    1.0817   -0.7257    1.1161 C   0  0  0  0  0  0  0  0  0  0  0  0
    2.1361   -0.0358    0.2987 C   0  0  0  0  0  0  0  0  0  0  0  0
    1.1750   -0.9437   -0.3783 C   0  0  0  0  0  0  0  0  0  0  0  0
    0.3068    3.3716   -1.1939 H   0  0  0  0  0  0  0  0  0  0  0  0
   -0.5407   -0.8110   -1.7362 H   0  0  0  0  0  0  0  0  0  0  0  0
   -1.1527   -1.6668    0.5343 H   0  0  0  0  0  0  0  0  0  0  0  0
   -2.5029    0.2073   -0.8124 H   0  0  0  0  0  0  0  0  0  0  0  0
   -3.1137   -0.3659    0.7534 H   0  0  0  0  0  0  0  0  0  0  0  0
   -2.2096    1.1621    0.7220 H   0  0  0  0  0  0  0  0  0  0  0  0
    1.4262   -1.4942    1.8143 H   0  0  0  0  0  0  0  0  0  0  0  0
    2.0257    1.0442    0.1568 H   0  0  0  0  0  0  0  0  0  0  0  0
    3.1649   -0.4170    0.3902 H   0  0  0  0  0  0  0  0  0  0  0  0
    1.4649   -1.9264   -0.7733 H   0  0  0  0  0  0  0  0  0  0  0  0
  1  2  3  0
  2  3  1  0
  3  4  1  0
  4  5  1  0
  4  6  1  0
  6  7  1  0
  7  8  1  0
  8  9  1  0
  9  3  1  0
  9  7  1  0
  1 10  1  0
  3 11  1  0
  4 12  1  0
  5 13  1  0
  5 14  1  0
  5 15  1  0
  7 16  1  0
  8 17  1  0
  8 18  1  0
  9 19  1  0
M  END
