
     RDKit          3D

 19 20  0  0  0  0  0  0  0  0999 V2000
    2.7746   -0.2365   -0.5584 C   0  0  0  0  0  0  0  0  0  0  0  0
    1.6231    0.1724   -0.5051 C   0  0  0  0  0  0  0  0  0  0  0  0
    0.2631    0.6689   -0.4639 C   0  0  0  0  0  0  0  0  0  0  0  0
   -0.6435    0.4803   -1.6453 C   0  0  0  0  0  0  0  0  0  0  0  0
   -1.6342   -0.2239   -0.7434 C   0  0  0  0  0  0  0  0  0  0  0  0
   -0.6777   -0.0934    0.3905 C   0  0  0  0  0  0  0  0  0  0  0  0
   -0.2183   -1.2773    1.1846 C   0  0  0  0  0  0  0  0  0  0  0  0
   -0.2367    1.2841    0.7553 C   0  0  0  0  0  0  0  0  0  0  0  0
    0.5406    1.4016    1.8761 O   0  0  0  0  0  0  0  0  0  0  0  0
    3.7811   -0.6067   -0.5908 H   0  0  0  0  0  0  0  0  0  0  0  0
   -1.0093    1.3812   -2.1503 H   0  0  0  0  0  0  0  0  0  0  0  0
   -0.1885   -0.2491   -2.3504 H   0  0  0  0  0  0  0  0  0  0  0  0
   -1.8934   -1.2452   -1.0603 H   0  0  0  0  0  0  0  0  0  0  0  0
   -2.5470    0.4012   -0.6513 H   0  0  0  0  0  0  0  0  0  0  0  0
   -0.5018   -1.2421    2.2548 H   0  0  0  0  0  0  0  0  0  0  0  0
   -0.6543   -2.1837    0.7107 H   0  0  0  0  0  0  0  0  0  0  0  0
    0.8827   -1.4106    1.1650 H   0  0  0  0  0  0  0  0  0  0  0  0
   -1.0678    2.0445    0.6916 H   0  0  0  0  0  0  0  0  0  0  0  0
    1.4075    0.9344    1.6906 H   0  0  0  0  0  0  0  0  0  0  0  0
  1  2  3  0
  2  3  1  0
  3  4  1  0
  4  5  1  0
  5  6  1  0
  6  7  1  0
  6  8  1  0
  8  9  1  0
  6  3  1  0
  8  3  1  0
  1 10  1  0
  4 11  1  0
  4 12  1  0
  5 13  1  0
  5 14  1  0
  7 15  1  0
  7 16  1  0
  7 17  1  0
  8 18  1  0
  9 19  1  0
M  END
