
     RDKit          3D

 17 18  0  0  0  0  0  0  0  0999 V2000
    2.4526   -0.0074   -1.4761 C   0  0  0  0  0  0  0  0  0  0  0  0
    1.3726   -0.0513   -0.9791 C   0  0  0  0  0  0  0  0  0  0  0  0
    0.1298   -0.0923   -0.4312 C   0  0  0  0  0  0  0  0  0  0  0  0
    0.5490    0.1308    1.0412 O   0  0  0  0  0  0  0  0  0  0  0  0
   -0.0983   -1.0259    1.4665 C   0  0  0  0  0  0  0  0  0  0  0  0
   -1.4040   -1.0500    0.6229 C   0  0  0  0  0  0  0  0  0  0  0  0
   -1.2349    0.2657   -0.0440 C   0  0  0  0  0  0  0  0  0  0  0  0
   -0.6303    1.1111   -0.9416 C   0  0  0  0  0  0  0  0  0  0  0  0
    0.0632    2.2971   -0.5470 O   0  0  0  0  0  0  0  0  0  0  0  0
    3.5211    0.0243   -1.9500 H   0  0  0  0  0  0  0  0  0  0  0  0
   -0.4318   -0.8194    2.4973 H   0  0  0  0  0  0  0  0  0  0  0  0
    0.4972   -1.9222    1.3577 H   0  0  0  0  0  0  0  0  0  0  0  0
   -1.3356   -1.9081   -0.0965 H   0  0  0  0  0  0  0  0  0  0  0  0
   -2.2103   -1.1001    1.3487 H   0  0  0  0  0  0  0  0  0  0  0  0
   -1.5129    0.9722    0.8830 H   0  0  0  0  0  0  0  0  0  0  0  0
   -0.7643    1.1172   -2.0302 H   0  0  0  0  0  0  0  0  0  0  0  0
    1.0368    2.0583   -0.7217 H   0  0  0  0  0  0  0  0  0  0  0  0
  1  2  3  0
  2  3  1  0
  3  4  1  0
  4  5  1  0
  5  6  1  0
  6  7  1  0
  7  8  1  0
  8  9  1  0
  7  3  1  0
  8  3  1  0
  1 10  1  0
  5 11  1  0
  5 12  1  0
  6 13  1  0
  6 14  1  0
  7 15  1  0
  8 16  1  0
  9 17  1  0
M  END
