
     RDKit          3D

 19 19  0  0  0  0  0  0  0  0999 V2000
    0.2460    2.0060   -2.8882 C   0  0  0  0  0  0  0  0  0  0  0  0
    0.4362    1.4012   -1.8990 C   0  0  0  0  0  0  0  0  0  0  0  0
    0.6577    0.6712   -0.6645 C   0  0  0  0  0  0  0  0  0  0  0  0
   -0.5381    0.7332    0.2639 C   0  0  0  0  0  0  0  0  0  0  0  0
   -0.1907   -0.3608    1.2022 C   0  0  0  0  0  0  0  0  0  0  0  0
   -0.5696   -0.3587    2.6488 C   0  0  0  0  0  0  0  0  0  0  0  0
    0.4820   -1.2779    0.5252 C   0  0  0  0  0  0  0  0  0  0  0  0
    0.6232   -0.8426   -0.9167 C   0  0  0  0  0  0  0  0  0  0  0  0
   -0.5479   -1.1199   -1.6082 O   0  0  0  0  0  0  0  0  0  0  0  0
    0.0796    2.5715   -3.7795 H   0  0  0  0  0  0  0  0  0  0  0  0
    1.5393    0.9773   -0.1043 H   0  0  0  0  0  0  0  0  0  0  0  0
   -1.4634    0.4626   -0.3132 H   0  0  0  0  0  0  0  0  0  0  0  0
   -0.6279    1.7159    0.7528 H   0  0  0  0  0  0  0  0  0  0  0  0
    0.2559   -0.0184    3.3022 H   0  0  0  0  0  0  0  0  0  0  0  0
   -0.8098   -1.3970    2.9710 H   0  0  0  0  0  0  0  0  0  0  0  0
   -1.4294    0.3174    2.8357 H   0  0  0  0  0  0  0  0  0  0  0  0
    0.8823   -2.2043    0.9108 H   0  0  0  0  0  0  0  0  0  0  0  0
    1.5293   -1.2132   -1.3786 H   0  0  0  0  0  0  0  0  0  0  0  0
   -0.5547   -2.0634   -1.8604 H   0  0  0  0  0  0  0  0  0  0  0  0
  1  2  3  0
  2  3  1  0
  3  4  1  0
  4  5  1  0
  5  6  1  0
  5  7  2  0
  7  8  1  0
  8  9  1  0
  8  3  1  0
  1 10  1  0
  3 11  1  0
  4 12  1  0
  4 13  1  0
  6 14  1  0
  6 15  1  0
  6 16  1  0
  7 17  1  0
  8 18  1  0
  9 19  1  0
M  END
