
     RDKit          3D

 17 17  0  0  0  0  0  0  0  0999 V2000
   -3.3529    1.3233    0.9195 C   0  0  0  0  0  0  0  0  0  0  0  0
   -2.2668    0.6539    0.9421 C   0  0  0  0  0  0  0  0  0  0  0  0
   -1.1772   -0.0039    0.9830 C   0  0  0  0  0  0  0  0  0  0  0  0
   -0.5535   -0.1334   -0.4232 C   0  0  0  0  0  0  0  0  0  0  0  0
    0.7396   -0.5214   -0.2172 C   0  0  0  0  0  0  0  0  0  0  0  0
    1.4965   -0.6666   -1.5219 C   0  0  0  0  0  0  0  0  0  0  0  0
    2.6071    0.1283   -1.6816 O   0  0  0  0  0  0  0  0  0  0  0  0
    0.9418   -0.6811    1.1734 C   0  0  0  0  0  0  0  0  0  0  0  0
   -0.2815   -0.3589    1.8827 O   0  0  0  0  0  0  0  0  0  0  0  0
   -4.4694    1.9924    0.9123 H   0  0  0  0  0  0  0  0  0  0  0  0
   -0.4986    1.3454    0.9204 H   0  0  0  0  0  0  0  0  0  0  0  0
   -1.0829    0.1463   -1.3263 H   0  0  0  0  0  0  0  0  0  0  0  0
    1.6966   -1.7319   -1.7697 H   0  0  0  0  0  0  0  0  0  0  0  0
    0.7910   -0.2661   -2.3706 H   0  0  0  0  0  0  0  0  0  0  0  0
    2.5233    0.6586   -2.5474 H   0  0  0  0  0  0  0  0  0  0  0  0
    1.7640   -0.1100    1.6282 H   0  0  0  0  0  0  0  0  0  0  0  0
    1.1229   -1.7749    1.4703 H   0  0  0  0  0  0  0  0  0  0  0  0
  1  2  3  0
  2  3  1  0
  3  4  1  0
  4  5  2  0
  5  6  1  0
  6  7  1  0
  5  8  1  0
  8  9  1  0
  9  3  1  0
  1 10  1  0
  3 11  1  0
  4 12  1  0
  6 13  1  0
  6 14  1  0
  7 15  1  0
  8 16  1  0
  8 17  1  0
M  END
