
     RDKit          3D

 19 20  0  0  0  0  0  0  0  0999 V2000
    3.4673   -0.1309    0.1340 C   0  0  0  0  0  0  0  0  0  0  0  0
    2.3064   -0.2474   -0.1874 C   0  0  0  0  0  0  0  0  0  0  0  0
    0.9229   -0.3954   -0.5824 C   0  0  0  0  0  0  0  0  0  0  0  0
    0.4120   -1.6144   -0.0552 O   0  0  0  0  0  0  0  0  0  0  0  0
   -0.9128   -1.3017   -0.0302 C   0  0  0  0  0  0  0  0  0  0  0  0
   -1.8416   -0.9377    0.9539 C   0  0  0  0  0  0  0  0  0  0  0  0
   -0.6974   -0.1306    1.0189 C   0  0  0  0  0  0  0  0  0  0  0  0
    0.0487    0.7041    0.0563 C   0  0  0  0  0  0  0  0  0  0  0  0
   -0.7488    1.4478   -0.9419 C   0  0  0  0  0  0  0  0  0  0  0  0
    4.4979   -0.0415    0.4060 H   0  0  0  0  0  0  0  0  0  0  0  0
    0.7508   -0.3802   -1.6596 H   0  0  0  0  0  0  0  0  0  0  0  0
   -1.1886   -0.9641   -1.0791 H   0  0  0  0  0  0  0  0  0  0  0  0
   -2.8159   -0.4504    0.6682 H   0  0  0  0  0  0  0  0  0  0  0  0
   -2.0663   -1.6822    1.7703 H   0  0  0  0  0  0  0  0  0  0  0  0
    0.0088   -0.3955    1.8738 H   0  0  0  0  0  0  0  0  0  0  0  0
    0.7075    1.4486    0.5895 H   0  0  0  0  0  0  0  0  0  0  0  0
   -1.6729    1.8231   -0.4516 H   0  0  0  0  0  0  0  0  0  0  0  0
   -1.0383    0.9148   -1.8451 H   0  0  0  0  0  0  0  0  0  0  0  0
   -0.1399    2.3337   -1.2936 H   0  0  0  0  0  0  0  0  0  0  0  0
  1  2  3  0
  2  3  1  0
  3  4  1  0
  4  5  1  0
  5  6  1  0
  6  7  1  0
  7  8  1  0
  8  9  1  0
  8  3  1  0
  7  5  1  0
  1 10  1  0
  3 11  1  0
  5 12  1  0
  6 13  1  0
  6 14  1  0
  7 15  1  0
  8 16  1  0
  9 17  1  0
  9 18  1  0
  9 19  1  0
M  END
