
     RDKit          3D

 21 22  0  0  0  0  0  0  0  0999 V2000
    3.6669    0.2712   -0.1959 C   0  0  0  0  0  0  0  0  0  0  0  0
    2.5356    0.6651   -0.0589 C   0  0  0  0  0  0  0  0  0  0  0  0
    1.1294    1.1283    0.1179 C   0  0  0  0  0  0  0  0  0  0  0  0
    0.1663    0.4300    0.9002 C   0  0  0  0  0  0  0  0  0  0  0  0
   -1.2717    0.0974    0.6211 C   0  0  0  0  0  0  0  0  0  0  0  0
   -2.1642    1.1545    0.1166 C   0  0  0  0  0  0  0  0  0  0  0  0
   -0.6086   -0.7974   -0.4472 C   0  0  0  0  0  0  0  0  0  0  0  0
    0.0999   -1.9876    0.0580 C   0  0  0  0  0  0  0  0  0  0  0  0
    0.1667    0.4652   -0.6856 C   0  0  0  0  0  0  0  0  0  0  0  0
    4.6667   -0.0611   -0.3057 H   0  0  0  0  0  0  0  0  0  0  0  0
    1.1524    2.2513    0.2812 H   0  0  0  0  0  0  0  0  0  0  0  0
    0.6415   -0.5037    1.3423 H   0  0  0  0  0  0  0  0  0  0  0  0
   -1.7415   -0.5413    1.3693 H   0  0  0  0  0  0  0  0  0  0  0  0
   -1.7311    2.1927    0.2182 H   0  0  0  0  0  0  0  0  0  0  0  0
   -3.0925    1.2114    0.7623 H   0  0  0  0  0  0  0  0  0  0  0  0
   -2.5771    0.9846   -0.9103 H   0  0  0  0  0  0  0  0  0  0  0  0
   -1.3292   -1.0512   -1.2254 H   0  0  0  0  0  0  0  0  0  0  0  0
    1.2265   -1.9209    0.0104 H   0  0  0  0  0  0  0  0  0  0  0  0
   -0.2500   -2.3089    1.0701 H   0  0  0  0  0  0  0  0  0  0  0  0
   -0.1171   -2.8914   -0.5890 H   0  0  0  0  0  0  0  0  0  0  0  0
   -0.5688    1.2116   -1.1303 H   0  0  0  0  0  0  0  0  0  0  0  0
  1  2  3  0
  2  3  1  0
  3  4  1  0
  4  5  1  0
  5  6  1  0
  5  7  1  0
  7  8  1  0
  7  9  1  0
  9  3  1  0
  9  4  1  0
  1 10  1  0
  3 11  1  0
  4 12  1  0
  5 13  1  0
  6 14  1  0
  6 15  1  0
  6 16  1  0
  7 17  1  0
  8 18  1  0
  8 19  1  0
  8 20  1  0
  9 21  1  0
M  END
