
     RDKit          3D

 12 11  0  0  0  0  0  0  0  0999 V2000
    2.0430    3.6956   -1.2051 C   0  0  0  0  0  0  0  0  0  0  0  0
    1.6959    2.6887   -0.8983 C   0  0  0  0  0  0  0  0  0  0  0  0
    1.2064    1.3360   -0.4687 C   0  0  0  0  0  0  0  0  0  0  0  0
    0.8722    0.4664   -0.1916 C   0  0  0  0  0  0  0  0  0  0  0  0
    0.1074   -1.4671    0.4632 C   0  0  0  0  0  0  0  0  0  0  0  0
   -0.2052   -2.3045    0.7449 C   0  0  0  0  0  0  0  0  0  0  0  0
   -0.6123   -3.3879    1.1073 C   0  0  0  0  0  0  0  0  0  0  0  0
   -2.1402   -1.6361    0.1758 O   0  0  0  0  0  0  0  0  0  0  0  0
    2.7676    5.7256   -1.8044 H   0  0  0  0  0  0  0  0  0  0  0  0
   -2.1939   -2.5630    1.6778 H   0  0  0  0  0  0  0  0  0  0  0  0
   -1.2640   -1.3041    2.0245 H   0  0  0  0  0  0  0  0  0  0  0  0
   -2.2769   -1.2496    1.1941 H   0  0  0  0  0  0  0  0  0  0  0  0
  1  2  3  0
  2  3  1  0
  3  4  3  0
  4  5  1  0
  5  6  3  0
  6  7  1  0
  7  8  1  0
  1  9  1  0
  7 10  1  0
  7 11  1  0
  8 12  1  0
M  END
