
     RDKit          3D

 19 19  0  0  0  0  0  0  0  0999 V2000
    4.9487   -0.6111   -0.7776 C   0  0  0  0  0  0  0  0  0  0  0  0
    3.8978   -0.2193   -0.5954 C   0  0  0  0  0  0  0  0  0  0  0  0
    2.5864    0.2624   -0.3877 C   0  0  0  0  0  0  0  0  0  0  0  0
    1.4399    0.6651   -0.1965 C   0  0  0  0  0  0  0  0  0  0  0  0
    0.0420    1.1555    0.0502 C   0  0  0  0  0  0  0  0  0  0  0  0
   -0.5870    0.4332    1.1418 C   0  0  0  0  0  0  0  0  0  0  0  0
   -1.8372    0.2890    0.1788 C   0  0  0  0  0  0  0  0  0  0  0  0
   -2.5461   -1.0168    0.5371 C   0  0  0  0  0  0  0  0  0  0  0  0
   -0.8337    0.2759   -0.9073 C   0  0  0  0  0  0  0  0  0  0  0  0
    6.0082   -0.9992   -0.9767 H   0  0  0  0  0  0  0  0  0  0  0  0
   -0.0638    2.2088   -0.1536 H   0  0  0  0  0  0  0  0  0  0  0  0
   -0.8644    0.9284    2.0639 H   0  0  0  0  0  0  0  0  0  0  0  0
   -0.2059   -0.6452    1.2012 H   0  0  0  0  0  0  0  0  0  0  0  0
   -2.4756    1.1465    0.1709 H   0  0  0  0  0  0  0  0  0  0  0  0
   -1.7721   -1.8101    0.5412 H   0  0  0  0  0  0  0  0  0  0  0  0
   -3.1237   -0.9458    1.4889 H   0  0  0  0  0  0  0  0  0  0  0  0
   -3.2980   -1.2108   -0.2449 H   0  0  0  0  0  0  0  0  0  0  0  0
   -1.0508    0.7836   -1.8610 H   0  0  0  0  0  0  0  0  0  0  0  0
   -0.2646   -0.6901   -1.0542 H   0  0  0  0  0  0  0  0  0  0  0  0
  1  2  3  0
  2  3  1  0
  3  4  3  0
  4  5  1  0
  5  6  1  0
  6  7  1  0
  7  8  1  0
  7  9  1  0
  9  5  1  0
  1 10  1  0
  5 11  1  0
  6 12  1  0
  6 13  1  0
  7 14  1  0
  8 15  1  0
  8 16  1  0
  8 17  1  0
  9 18  1  0
  9 19  1  0
M  END
