
     RDKit          3D

 17 17  0  0  0  0  0  0  0  0999 V2000
   -1.8375    3.5047    1.5127 C   0  0  0  0  0  0  0  0  0  0  0  0
   -1.4366    2.3360    1.2416 C   0  0  0  0  0  0  0  0  0  0  0  0
   -0.9860    1.0699    0.9653 C   0  0  0  0  0  0  0  0  0  0  0  0
   -0.6502    1.1138   -0.5715 C   0  0  0  0  0  0  0  0  0  0  0  0
   -0.1795    0.1258    0.3306 C   0  0  0  0  0  0  0  0  0  0  0  0
    1.0255   -0.5679    0.4598 O   0  0  0  0  0  0  0  0  0  0  0  0
    1.2061   -1.5844   -0.5015 C   0  0  0  0  0  0  0  0  0  0  0  0
    2.2484   -2.6262   -0.6051 C   0  0  0  0  0  0  0  0  0  0  0  0
    0.2492   -1.5508   -1.3887 O   0  0  0  0  0  0  0  0  0  0  0  0
   -2.1490    4.4075    1.7094 H   0  0  0  0  0  0  0  0  0  0  0  0
   -2.1562    0.4701    1.0404 H   0  0  0  0  0  0  0  0  0  0  0  0
   -0.1033    2.0422   -0.8769 H   0  0  0  0  0  0  0  0  0  0  0  0
   -1.5499    1.0280   -1.2304 H   0  0  0  0  0  0  0  0  0  0  0  0
   -0.9156   -0.8893    0.0181 H   0  0  0  0  0  0  0  0  0  0  0  0
    1.7540   -3.5869   -0.2189 H   0  0  0  0  0  0  0  0  0  0  0  0
    3.0496   -2.4096    0.0380 H   0  0  0  0  0  0  0  0  0  0  0  0
    2.4311   -2.8830   -1.6514 H   0  0  0  0  0  0  0  0  0  0  0  0
  1  2  3  0
  2  3  1  0
  3  4  1  0
  4  5  1  0
  5  6  1  0
  6  7  1  0
  7  8  1  0
  7  9  2  0
  5  3  1  0
  1 10  1  0
  3 11  1  0
  4 12  1  0
  4 13  1  0
  5 14  1  0
  8 15  1  0
  8 16  1  0
  8 17  1  0
M  END
