
     RDKit          3D

 19 20  0  0  0  0  0  0  0  0999 V2000
    3.7184    0.9123   -0.2403 C   0  0  0  0  0  0  0  0  0  0  0  0
    2.5419    0.7791   -0.5319 C   0  0  0  0  0  0  0  0  0  0  0  0
    1.1504    0.5962   -0.8770 C   0  0  0  0  0  0  0  0  0  0  0  0
    0.1484    0.5451    0.1965 C   0  0  0  0  0  0  0  0  0  0  0  0
   -1.2891    0.4100   -0.2565 C   0  0  0  0  0  0  0  0  0  0  0  0
   -2.3108    0.4131    0.8480 C   0  0  0  0  0  0  0  0  0  0  0  0
   -0.9222   -0.9727   -0.7772 C   0  0  0  0  0  0  0  0  0  0  0  0
    0.5427   -0.7135   -0.6210 C   0  0  0  0  0  0  0  0  0  0  0  0
    1.3418   -1.6509    0.0192 O   0  0  0  0  0  0  0  0  0  0  0  0
    4.7396    1.0417    0.0146 H   0  0  0  0  0  0  0  0  0  0  0  0
    0.8414    1.1136   -1.8167 H   0  0  0  0  0  0  0  0  0  0  0  0
    0.3956    0.5011    1.2661 H   0  0  0  0  0  0  0  0  0  0  0  0
   -1.5174    1.0655   -1.1210 H   0  0  0  0  0  0  0  0  0  0  0  0
   -2.7202    1.4442    0.9377 H   0  0  0  0  0  0  0  0  0  0  0  0
   -3.1712   -0.2677    0.6271 H   0  0  0  0  0  0  0  0  0  0  0  0
   -1.8362    0.1856    1.8179 H   0  0  0  0  0  0  0  0  0  0  0  0
   -1.2759   -1.7782   -0.0990 H   0  0  0  0  0  0  0  0  0  0  0  0
   -1.2583   -1.1632   -1.8227 H   0  0  0  0  0  0  0  0  0  0  0  0
    0.8810   -2.4615    0.2869 H   0  0  0  0  0  0  0  0  0  0  0  0
  1  2  3  0
  2  3  1  0
  3  4  1  0
  4  5  1  0
  5  6  1  0
  5  7  1  0
  7  8  1  0
  8  9  1  0
  8  3  1  0
  8  4  1  0
  1 10  1  0
  3 11  1  0
  4 12  1  0
  5 13  1  0
  6 14  1  0
  6 15  1  0
  6 16  1  0
  7 17  1  0
  7 18  1  0
  9 19  1  0
M  END
