
     RDKit          3D

 19 20  0  0  0  0  0  0  0  0999 V2000
    1.6730    2.6882    0.6712 C   0  0  0  0  0  0  0  0  0  0  0  0
    1.2123    1.5928    0.4012 C   0  0  0  0  0  0  0  0  0  0  0  0
    0.6529    0.2768    0.0599 C   0  0  0  0  0  0  0  0  0  0  0  0
   -0.6504    0.3331   -0.7143 C   0  0  0  0  0  0  0  0  0  0  0  0
   -1.2828   -0.9557   -1.0989 C   0  0  0  0  0  0  0  0  0  0  0  0
   -1.9280   -0.0477   -0.0640 C   0  0  0  0  0  0  0  0  0  0  0  0
   -1.8957   -0.5324    1.2579 O   0  0  0  0  0  0  0  0  0  0  0  0
    1.0163   -0.8880    0.8621 C   0  0  0  0  0  0  0  0  0  0  0  0
    1.7016   -0.7491   -0.4366 C   0  0  0  0  0  0  0  0  0  0  0  0
    2.0810    3.6340    0.9214 H   0  0  0  0  0  0  0  0  0  0  0  0
   -0.7280    1.2013   -1.4245 H   0  0  0  0  0  0  0  0  0  0  0  0
   -1.7286   -0.9677   -2.1332 H   0  0  0  0  0  0  0  0  0  0  0  0
   -0.8556   -1.8978   -0.7329 H   0  0  0  0  0  0  0  0  0  0  0  0
   -2.8521    0.4431   -0.3775 H   0  0  0  0  0  0  0  0  0  0  0  0
   -2.4609    0.0836    1.7768 H   0  0  0  0  0  0  0  0  0  0  0  0
    1.5697   -0.7299    1.8083 H   0  0  0  0  0  0  0  0  0  0  0  0
    0.3183   -1.7584    0.9294 H   0  0  0  0  0  0  0  0  0  0  0  0
    2.7634   -0.4217   -0.3842 H   0  0  0  0  0  0  0  0  0  0  0  0
    1.3935   -1.3043   -1.3221 H   0  0  0  0  0  0  0  0  0  0  0  0
  1  2  3  0
  2  3  1  0
  3  4  1  0
  4  5  1  0
  5  6  1  0
  6  7  1  0
  3  8  1  0
  8  9  1  0
  9  3  1  0
  6  4  1  0
  1 10  1  0
  4 11  1  0
  5 12  1  0
  5 13  1  0
  6 14  1  0
  7 15  1  0
  8 16  1  0
  8 17  1  0
  9 18  1  0
  9 19  1  0
M  END
