
     RDKit          3D

 19 20  0  0  0  0  0  0  0  0999 V2000
    1.9096   -2.3566   -0.3240 C   0  0  0  0  0  0  0  0  0  0  0  0
    1.4371   -1.2133   -0.4260 C   0  0  0  0  0  0  0  0  0  0  0  0
    0.9021    0.0963   -0.5613 C   0  0  0  0  0  0  0  0  0  0  0  0
    1.1287    1.0329    0.6058 C   0  0  0  0  0  0  0  0  0  0  0  0
    1.1322    0.3530    1.7957 O   0  0  0  0  0  0  0  0  0  0  0  0
   -0.2688    1.5975    0.2741 C   0  0  0  0  0  0  0  0  0  0  0  0
   -0.5569    0.2537   -0.2802 C   0  0  0  0  0  0  0  0  0  0  0  0
   -1.4452   -0.7479    0.2589 C   0  0  0  0  0  0  0  0  0  0  0  0
   -1.6271   -0.1492   -1.1463 C   0  0  0  0  0  0  0  0  0  0  0  0
    2.3128   -3.3118   -0.2224 H   0  0  0  0  0  0  0  0  0  0  0  0
    1.1647    0.6444   -1.5146 H   0  0  0  0  0  0  0  0  0  0  0  0
    1.9465    1.7751    0.4641 H   0  0  0  0  0  0  0  0  0  0  0  0
    0.3197    0.4941    2.3466 H   0  0  0  0  0  0  0  0  0  0  0  0
   -0.8307    1.8297    1.2102 H   0  0  0  0  0  0  0  0  0  0  0  0
   -0.1673    2.4268   -0.4304 H   0  0  0  0  0  0  0  0  0  0  0  0
   -1.2137   -1.8313    0.3167 H   0  0  0  0  0  0  0  0  0  0  0  0
   -2.2524   -0.4224    0.9674 H   0  0  0  0  0  0  0  0  0  0  0  0
   -1.3349   -0.8706   -1.9688 H   0  0  0  0  0  0  0  0  0  0  0  0
   -2.5566    0.3995   -1.3655 H   0  0  0  0  0  0  0  0  0  0  0  0
  1  2  3  0
  2  3  1  0
  3  4  1  0
  4  5  1  0
  4  6  1  0
  6  7  1  0
  7  8  1  0
  8  9  1  0
  7  3  1  0
  9  7  1  0
  1 10  1  0
  3 11  1  0
  4 12  1  0
  5 13  1  0
  6 14  1  0
  6 15  1  0
  8 16  1  0
  8 17  1  0
  9 18  1  0
  9 19  1  0
M  END
