
     RDKit          3D

 21 21  0  0  0  0  0  0  0  0999 V2000
    4.6519    0.9994    0.2925 C   0  0  0  0  0  0  0  0  0  0  0  0
    3.5885    0.2977    0.0039 C   0  0  0  0  0  0  0  0  0  0  0  0
    2.3130   -0.5689   -0.3269 C   0  0  0  0  0  0  0  0  0  0  0  0
    1.8492    0.2707   -1.5500 O   0  0  0  0  0  0  0  0  0  0  0  0
    1.2531    0.4396   -0.2928 C   0  0  0  0  0  0  0  0  0  0  0  0
   -0.2294    0.3823   -0.2333 C   0  0  0  0  0  0  0  0  0  0  0  0
   -0.7806   -0.3717    0.9831 C   0  0  0  0  0  0  0  0  0  0  0  0
   -2.2739   -0.1634    0.9815 C   0  0  0  0  0  0  0  0  0  0  0  0
   -3.0209   -0.6245   -0.2252 C   0  0  0  0  0  0  0  0  0  0  0  0
    5.5811    1.5921    0.5330 H   0  0  0  0  0  0  0  0  0  0  0  0
    2.7032   -1.3905   -0.9310 H   0  0  0  0  0  0  0  0  0  0  0  0
    1.5908    1.5480    0.0827 H   0  0  0  0  0  0  0  0  0  0  0  0
   -0.7408    1.3230   -0.3233 H   0  0  0  0  0  0  0  0  0  0  0  0
   -0.5778   -0.2654   -1.1114 H   0  0  0  0  0  0  0  0  0  0  0  0
   -0.5828   -1.4822    0.7558 H   0  0  0  0  0  0  0  0  0  0  0  0
   -0.2980   -0.0833    1.8770 H   0  0  0  0  0  0  0  0  0  0  0  0
   -2.7189   -0.6558    1.8917 H   0  0  0  0  0  0  0  0  0  0  0  0
   -2.4657    0.9603    1.1256 H   0  0  0  0  0  0  0  0  0  0  0  0
   -3.3456   -1.7138   -0.1061 H   0  0  0  0  0  0  0  0  0  0  0  0
   -2.5133   -0.4953   -1.1781 H   0  0  0  0  0  0  0  0  0  0  0  0
   -3.9828    0.0019   -0.2894 H   0  0  0  0  0  0  0  0  0  0  0  0
  1  2  3  0
  2  3  1  0
  3  4  1  0
  4  5  1  0
  5  6  1  0
  6  7  1  0
  7  8  1  0
  8  9  1  0
  5  3  1  0
  1 10  1  0
  3 11  1  0
  5 12  1  0
  6 13  1  0
  6 14  1  0
  7 15  1  0
  7 16  1  0
  8 17  1  0
  8 18  1  0
  9 19  1  0
  9 20  1  0
  9 21  1  0
M  END
