
     RDKit          3D

 17 17  0  0  0  0  0  0  0  0999 V2000
    1.7740    0.0481    1.9807 C   0  0  0  0  0  0  0  0  0  0  0  0
    0.7264   -0.1538    1.4274 C   0  0  0  0  0  0  0  0  0  0  0  0
   -0.5669   -0.4265    0.7546 C   0  0  0  0  0  0  0  0  0  0  0  0
   -1.4000    0.7910    0.9083 C   0  0  0  0  0  0  0  0  0  0  0  0
   -2.2414    1.0597    1.7863 O   0  0  0  0  0  0  0  0  0  0  0  0
   -1.0181    1.6356   -0.2162 C   0  0  0  0  0  0  0  0  0  0  0  0
   -0.4493    0.9007   -1.1594 C   0  0  0  0  0  0  0  0  0  0  0  0
   -0.4102   -0.5130   -0.7250 C   0  0  0  0  0  0  0  0  0  0  0  0
    0.8606   -1.2071   -1.1525 C   0  0  0  0  0  0  0  0  0  0  0  0
    2.7083    0.2333    2.4952 H   0  0  0  0  0  0  0  0  0  0  0  0
   -1.0124   -1.3252    1.2087 H   0  0  0  0  0  0  0  0  0  0  0  0
   -1.1851    2.7194   -0.2591 H   0  0  0  0  0  0  0  0  0  0  0  0
   -0.0793    1.3042   -2.0937 H   0  0  0  0  0  0  0  0  0  0  0  0
   -1.3193   -1.0090   -1.1372 H   0  0  0  0  0  0  0  0  0  0  0  0
    1.2154   -1.9352   -0.4006 H   0  0  0  0  0  0  0  0  0  0  0  0
    1.6326   -0.4126   -1.2798 H   0  0  0  0  0  0  0  0  0  0  0  0
    0.7646   -1.7095   -2.1377 H   0  0  0  0  0  0  0  0  0  0  0  0
  1  2  3  0
  2  3  1  0
  3  4  1  0
  4  5  2  0
  4  6  1  0
  6  7  2  0
  7  8  1  0
  8  9  1  0
  8  3  1  0
  1 10  1  0
  3 11  1  0
  6 12  1  0
  7 13  1  0
  8 14  1  0
  9 15  1  0
  9 16  1  0
  9 17  1  0
M  END
