
     RDKit          3D

 19 18  0  0  0  0  0  0  0  0999 V2000
    2.9678    1.0516    0.7362 C   0  0  0  0  0  0  0  0  0  0  0  0
    2.2413    0.8841   -0.2091 C   0  0  0  0  0  0  0  0  0  0  0  0
    1.3530    0.6669   -1.3328 C   0  0  0  0  0  0  0  0  0  0  0  0
    0.0346    0.4999   -1.0725 O   0  0  0  0  0  0  0  0  0  0  0  0
   -0.3675   -0.5098   -0.2628 C   0  0  0  0  0  0  0  0  0  0  0  0
   -1.0624   -1.6182   -1.1199 C   0  0  0  0  0  0  0  0  0  0  0  0
   -1.4239   -0.0977    0.6918 C   0  0  0  0  0  0  0  0  0  0  0  0
   -1.1100    0.9826    1.6395 C   0  0  0  0  0  0  0  0  0  0  0  0
   -0.0699    1.5903    1.7380 O   0  0  0  0  0  0  0  0  0  0  0  0
    3.6023    1.1885    1.5832 H   0  0  0  0  0  0  0  0  0  0  0  0
    1.7686   -0.0910   -2.0441 H   0  0  0  0  0  0  0  0  0  0  0  0
    1.4236    1.6265   -1.9407 H   0  0  0  0  0  0  0  0  0  0  0  0
    0.4569   -1.0376    0.2496 H   0  0  0  0  0  0  0  0  0  0  0  0
   -0.4819   -1.8732   -1.9964 H   0  0  0  0  0  0  0  0  0  0  0  0
   -1.1383   -2.5005   -0.4581 H   0  0  0  0  0  0  0  0  0  0  0  0
   -2.0886   -1.2668   -1.3235 H   0  0  0  0  0  0  0  0  0  0  0  0
   -1.8033   -0.9724    1.2976 H   0  0  0  0  0  0  0  0  0  0  0  0
   -2.3447    0.2466    0.1071 H   0  0  0  0  0  0  0  0  0  0  0  0
   -1.9577    1.2302    2.3197 H   0  0  0  0  0  0  0  0  0  0  0  0
  1  2  3  0
  2  3  1  0
  3  4  1  0
  4  5  1  0
  5  6  1  0
  5  7  1  0
  7  8  1  0
  8  9  2  0
  1 10  1  0
  3 11  1  0
  3 12  1  0
  5 13  1  0
  6 14  1  0
  6 15  1  0
  6 16  1  0
  7 17  1  0
  7 18  1  0
  8 19  1  0
M  END
