
     RDKit          3D

 17 16  0  0  0  0  0  0  0  0999 V2000
    3.6908    0.5102   -0.4414 C   0  0  0  0  0  0  0  0  0  0  0  0
    2.2175    0.0716    0.0101 C   0  0  0  0  0  0  0  0  0  0  0  0
    1.1337   -0.2488    0.3632 C   0  0  0  0  0  0  0  0  0  0  0  0
    1.0972   -1.7083    0.1254 O   0  0  0  0  0  0  0  0  0  0  0  0
    0.0441    0.5601   -0.4601 C   0  0  0  0  0  0  0  0  0  0  0  0
   -1.2550    0.4838    0.2363 C   0  0  0  0  0  0  0  0  0  0  0  0
   -1.4795    1.1752    1.2341 O   0  0  0  0  0  0  0  0  0  0  0  0
   -2.3216   -0.4132   -0.2377 C   0  0  0  0  0  0  0  0  0  0  0  0
   -3.5865    0.1452    0.0285 O   0  0  0  0  0  0  0  0  0  0  0  0
    5.0816    0.9057   -0.8864 H   0  0  0  0  0  0  0  0  0  0  0  0
    1.0240   -0.0027    1.4910 H   0  0  0  0  0  0  0  0  0  0  0  0
    1.8595   -1.9932    0.6818 H   0  0  0  0  0  0  0  0  0  0  0  0
    0.4903    1.5177   -0.6506 H   0  0  0  0  0  0  0  0  0  0  0  0
   -0.0923   -0.0503   -1.4574 H   0  0  0  0  0  0  0  0  0  0  0  0
   -2.1835   -0.6158   -1.2900 H   0  0  0  0  0  0  0  0  0  0  0  0
   -2.2026   -1.4134    0.3102 H   0  0  0  0  0  0  0  0  0  0  0  0
   -3.5176    1.0763   -0.3800 H   0  0  0  0  0  0  0  0  0  0  0  0
  1  2  3  0
  2  3  1  0
  3  4  1  0
  3  5  1  0
  5  6  1  0
  6  7  2  0
  6  8  1  0
  8  9  1  0
  1 10  1  0
  3 11  1  0
  4 12  1  0
  5 13  1  0
  5 14  1  0
  8 15  1  0
  8 16  1  0
  9 17  1  0
M  END
