
     RDKit          3D

 23 22  0  0  0  0  0  0  0  0999 V2000
    2.7540    0.9308    1.4975 C   0  0  0  0  0  0  0  0  0  0  0  0
    1.5393    0.7531    1.4675 C   0  0  0  0  0  0  0  0  0  0  0  0
    0.0878    0.5652    1.4242 C   0  0  0  0  0  0  0  0  0  0  0  0
   -0.2699    0.0721    0.0203 C   0  0  0  0  0  0  0  0  0  0  0  0
    0.5073   -1.2383   -0.1329 C   0  0  0  0  0  0  0  0  0  0  0  0
    0.1737    1.0886   -0.9924 C   0  0  0  0  0  0  0  0  0  0  0  0
   -0.1142    0.7302   -2.4068 C   0  0  0  0  0  0  0  0  0  0  0  0
   -1.5966   -0.2524   -0.1252 O   0  0  0  0  0  0  0  0  0  0  0  0
   -2.0676   -1.2395    0.6858 C   0  0  0  0  0  0  0  0  0  0  0  0
    3.8067    1.1037    1.5236 H   0  0  0  0  0  0  0  0  0  0  0  0
   -0.4332    1.4786    1.6960 H   0  0  0  0  0  0  0  0  0  0  0  0
   -0.1742   -0.2690    2.1394 H   0  0  0  0  0  0  0  0  0  0  0  0
    1.5522   -0.9024   -0.3934 H   0  0  0  0  0  0  0  0  0  0  0  0
    0.5450   -1.7637    0.8339 H   0  0  0  0  0  0  0  0  0  0  0  0
    0.0706   -1.8275   -0.9488 H   0  0  0  0  0  0  0  0  0  0  0  0
   -0.3177    2.0612   -0.7922 H   0  0  0  0  0  0  0  0  0  0  0  0
    1.2719    1.2747   -0.9134 H   0  0  0  0  0  0  0  0  0  0  0  0
    0.6046    1.2651   -3.0984 H   0  0  0  0  0  0  0  0  0  0  0  0
   -0.0147   -0.3326   -2.6676 H   0  0  0  0  0  0  0  0  0  0  0  0
   -1.1427    1.0444   -2.7322 H   0  0  0  0  0  0  0  0  0  0  0  0
   -3.1623   -1.4120    0.4679 H   0  0  0  0  0  0  0  0  0  0  0  0
   -1.5690   -2.2134    0.6170 H   0  0  0  0  0  0  0  0  0  0  0  0
   -2.0510   -0.9169    1.7412 H   0  0  0  0  0  0  0  0  0  0  0  0
  1  2  3  0
  2  3  1  0
  3  4  1  0
  4  5  1  0
  4  6  1  0
  6  7  1  0
  4  8  1  0
  8  9  1  0
  1 10  1  0
  3 11  1  0
  3 12  1  0
  5 13  1  0
  5 14  1  0
  5 15  1  0
  6 16  1  0
  6 17  1  0
  7 18  1  0
  7 19  1  0
  7 20  1  0
  9 21  1  0
  9 22  1  0
  9 23  1  0
M  END
