
     RDKit          3D

 17 16  0  0  0  0  0  0  0  0999 V2000
    3.9097    1.3545    0.3724 C   0  0  0  0  0  0  0  0  0  0  0  0
    3.3070    1.1606    0.3294 C   0  0  0  0  0  0  0  0  0  0  0  0
    1.8868    0.6816    0.2216 C   0  0  0  0  0  0  0  0  0  0  0  0
    0.6471    0.2520    0.1135 C   0  0  0  0  0  0  0  0  0  0  0  0
   -0.7755   -0.2587    0.0081 C   0  0  0  0  0  0  0  0  0  0  0  0
   -1.1553   -0.3304   -1.4088 C   0  0  0  0  0  0  0  0  0  0  0  0
   -1.5847    0.5508    0.9602 C   0  0  0  0  0  0  0  0  0  0  0  0
   -0.7001   -1.6775    0.5290 C   0  0  0  0  0  0  0  0  0  0  0  0
   -1.7051   -2.4434    0.3915 O   0  0  0  0  0  0  0  0  0  0  0  0
    5.1973    1.7505    0.4625 H   0  0  0  0  0  0  0  0  0  0  0  0
   -2.1887    0.0973   -1.5957 H   0  0  0  0  0  0  0  0  0  0  0  0
   -0.4233    0.2177   -2.0740 H   0  0  0  0  0  0  0  0  0  0  0  0
   -1.1083   -1.4288   -1.7597 H   0  0  0  0  0  0  0  0  0  0  0  0
   -0.9176    1.0669    1.6427 H   0  0  0  0  0  0  0  0  0  0  0  0
   -2.3273    1.2160    0.4448 H   0  0  0  0  0  0  0  0  0  0  0  0
   -2.2391   -0.1477    1.6108 H   0  0  0  0  0  0  0  0  0  0  0  0
    0.1772   -2.0614    1.0129 H   0  0  0  0  0  0  0  0  0  0  0  0
  1  2  3  0
  2  3  1  0
  3  4  3  0
  4  5  1  0
  5  6  1  0
  5  7  1  0
  5  8  1  0
  8  9  2  0
  1 10  1  0
  6 11  1  0
  6 12  1  0
  6 13  1  0
  7 14  1  0
  7 15  1  0
  7 16  1  0
  8 17  1  0
M  END
