
     RDKit          3D

 15 15  0  0  0  0  0  0  0  0999 V2000
    1.9780   -2.2115    2.1206 C   0  0  0  0  0  0  0  0  0  0  0  0
    0.9572   -1.5593    1.7436 C   0  0  0  0  0  0  0  0  0  0  0  0
   -0.1638   -0.8705    1.3299 C   0  0  0  0  0  0  0  0  0  0  0  0
   -1.3038   -1.1023    1.7759 O   0  0  0  0  0  0  0  0  0  0  0  0
   -0.0280    0.2021    0.3142 C   0  0  0  0  0  0  0  0  0  0  0  0
   -0.1349   -0.3099   -1.0975 C   0  0  0  0  0  0  0  0  0  0  0  0
   -0.6617    0.7055   -1.8043 C   0  0  0  0  0  0  0  0  0  0  0  0
   -0.8596    1.7962   -0.8221 C   0  0  0  0  0  0  0  0  0  0  0  0
   -1.1858    1.0233    0.3290 O   0  0  0  0  0  0  0  0  0  0  0  0
    2.8294   -2.7591    2.4530 H   0  0  0  0  0  0  0  0  0  0  0  0
    0.8254    0.8656    0.4622 H   0  0  0  0  0  0  0  0  0  0  0  0
    0.1686   -1.2729   -1.4037 H   0  0  0  0  0  0  0  0  0  0  0  0
   -0.8975    0.7510   -2.8586 H   0  0  0  0  0  0  0  0  0  0  0  0
    0.1347    2.2589   -0.6704 H   0  0  0  0  0  0  0  0  0  0  0  0
   -1.6584    2.4830   -1.0639 H   0  0  0  0  0  0  0  0  0  0  0  0
  1  2  3  0
  2  3  1  0
  3  4  2  0
  3  5  1  0
  5  6  1  0
  6  7  2  0
  7  8  1  0
  8  9  1  0
  9  5  1  0
  1 10  1  0
  5 11  1  0
  6 12  1  0
  7 13  1  0
  8 14  1  0
  8 15  1  0
M  END
