
     RDKit          3D

 19 20  0  0  0  0  0  0  0  0999 V2000
    3.4273    0.5470    0.1078 C   0  0  0  0  0  0  0  0  0  0  0  0
    2.2300    0.5867    0.2385 C   0  0  0  0  0  0  0  0  0  0  0  0
    0.7484    0.6323    0.3745 C   0  0  0  0  0  0  0  0  0  0  0  0
    0.0414    0.4960   -0.9364 C   0  0  0  0  0  0  0  0  0  0  0  0
    0.7029   -0.8636   -0.9869 C   0  0  0  0  0  0  0  0  0  0  0  0
    0.1961   -0.7405    0.4349 C   0  0  0  0  0  0  0  0  0  0  0  0
   -1.0432   -0.2015   -0.2066 C   0  0  0  0  0  0  0  0  0  0  0  0
   -1.9988    0.5794    0.6155 C   0  0  0  0  0  0  0  0  0  0  0  0
   -2.9235   -0.3235    1.1953 O   0  0  0  0  0  0  0  0  0  0  0  0
    4.4852    0.5043    0.0093 H   0  0  0  0  0  0  0  0  0  0  0  0
    0.4236    1.3759    1.0892 H   0  0  0  0  0  0  0  0  0  0  0  0
   -0.0128    1.1562   -1.6833 H   0  0  0  0  0  0  0  0  0  0  0  0
    1.7821   -0.8323   -1.1339 H   0  0  0  0  0  0  0  0  0  0  0  0
    0.1393   -1.6441   -1.5327 H   0  0  0  0  0  0  0  0  0  0  0  0
    0.2733   -1.4342    1.1489 H   0  0  0  0  0  0  0  0  0  0  0  0
   -1.5011   -1.0241   -0.8270 H   0  0  0  0  0  0  0  0  0  0  0  0
   -1.5484    1.2224    1.3644 H   0  0  0  0  0  0  0  0  0  0  0  0
   -2.6210    1.2021   -0.0901 H   0  0  0  0  0  0  0  0  0  0  0  0
   -2.8007   -1.2386    0.8187 H   0  0  0  0  0  0  0  0  0  0  0  0
  1  2  3  0
  2  3  1  0
  3  4  1  0
  4  5  1  0
  5  6  1  0
  6  7  1  0
  7  8  1  0
  8  9  1  0
  6  3  1  0
  7  4  1  0
  1 10  1  0
  3 11  1  0
  4 12  1  0
  5 13  1  0
  5 14  1  0
  6 15  1  0
  7 16  1  0
  8 17  1  0
  8 18  1  0
  9 19  1  0
M  END
