
     RDKit          3D

 17 17  0  0  0  0  0  0  0  0999 V2000
    1.4932    2.2842   -1.6243 C   0  0  0  0  0  0  0  0  0  0  0  0
    1.0056    1.8830   -0.8905 C   0  0  0  0  0  0  0  0  0  0  0  0
    0.2718    1.2667    0.2355 C   0  0  0  0  0  0  0  0  0  0  0  0
    1.3598    0.3763    0.8319 O   0  0  0  0  0  0  0  0  0  0  0  0
    0.2643   -0.1074    1.5386 C   0  0  0  0  0  0  0  0  0  0  0  0
   -0.4860    0.1012    0.1800 C   0  0  0  0  0  0  0  0  0  0  0  0
   -0.2161   -1.1325   -0.6500 C   0  0  0  0  0  0  0  0  0  0  0  0
   -1.3948   -1.9869   -0.4640 C   0  0  0  0  0  0  0  0  0  0  0  0
   -2.1400   -2.6643   -0.9878 O   0  0  0  0  0  0  0  0  0  0  0  0
    2.1735    2.8692   -2.6883 H   0  0  0  0  0  0  0  0  0  0  0  0
    0.2116    2.0047    1.1110 H   0  0  0  0  0  0  0  0  0  0  0  0
   -0.0079    0.7226    2.2689 H   0  0  0  0  0  0  0  0  0  0  0  0
    0.1805   -1.1120    1.8674 H   0  0  0  0  0  0  0  0  0  0  0  0
   -1.5884    0.1224    0.5426 H   0  0  0  0  0  0  0  0  0  0  0  0
   -0.0299   -0.9205   -1.7466 H   0  0  0  0  0  0  0  0  0  0  0  0
    0.6333   -1.7209   -0.2863 H   0  0  0  0  0  0  0  0  0  0  0  0
   -1.7306   -1.9858    0.7617 H   0  0  0  0  0  0  0  0  0  0  0  0
  1  2  3  0
  2  3  1  0
  3  4  1  0
  4  5  1  0
  5  6  1  0
  6  7  1  0
  7  8  1  0
  8  9  2  0
  6  3  1  0
  1 10  1  0
  3 11  1  0
  5 12  1  0
  5 13  1  0
  6 14  1  0
  7 15  1  0
  7 16  1  0
  8 17  1  0
M  END
