
     RDKit          3D

 15 14  0  0  0  0  0  0  0  0999 V2000
    2.7036   -1.1650    1.3408 C   0  0  0  0  0  0  0  0  0  0  0  0
    1.7108   -1.1350    0.7274 C   0  0  0  0  0  0  0  0  0  0  0  0
    0.3222   -1.0742   -0.1482 C   0  0  0  0  0  0  0  0  0  0  0  0
    1.0036   -0.3828   -1.4497 C   0  0  0  0  0  0  0  0  0  0  0  0
   -0.5900   -0.2017    0.2645 C   0  0  0  0  0  0  0  0  0  0  0  0
   -1.4833    0.6232    0.6669 C   0  0  0  0  0  0  0  0  0  0  0  0
   -2.4316    1.5169    1.0800 C   0  0  0  0  0  0  0  0  0  0  0  0
    3.5220   -1.2060    1.8442 H   0  0  0  0  0  0  0  0  0  0  0  0
    0.1910   -2.1216   -0.5371 H   0  0  0  0  0  0  0  0  0  0  0  0
    2.0648   -0.2714   -1.3075 H   0  0  0  0  0  0  0  0  0  0  0  0
    0.5916   -0.9572   -2.2800 H   0  0  0  0  0  0  0  0  0  0  0  0
    0.5186    0.6439   -1.3330 H   0  0  0  0  0  0  0  0  0  0  0  0
   -2.6697    2.2588    0.0981 H   0  0  0  0  0  0  0  0  0  0  0  0
   -2.0725    2.3879    1.7578 H   0  0  0  0  0  0  0  0  0  0  0  0
   -3.3811    1.0842    1.3406 H   0  0  0  0  0  0  0  0  0  0  0  0
  1  2  3  0
  2  3  1  0
  3  4  1  0
  3  5  1  0
  5  6  3  0
  6  7  1  0
  1  8  1  0
  3  9  1  0
  4 10  1  0
  4 11  1  0
  4 12  1  0
  7 13  1  0
  7 14  1  0
  7 15  1  0
M  END
