
     RDKit          3D

 18 18  0  0  0  0  0  0  0  0999 V2000
    0.3616    0.6255    3.3245 C   0  0  0  0  0  0  0  0  0  0  0  0
    0.6361   -0.0652    2.4140 C   0  0  0  0  0  0  0  0  0  0  0  0
    0.9733   -0.8715    1.3183 C   0  0  0  0  0  0  0  0  0  0  0  0
    1.7851   -0.1037    0.2892 O   0  0  0  0  0  0  0  0  0  0  0  0
    0.6276   -0.8708   -0.0285 C   0  0  0  0  0  0  0  0  0  0  0  0
   -0.5170   -0.1742   -0.6571 C   0  0  0  0  0  0  0  0  0  0  0  0
   -0.5266    1.3603   -0.5222 C   0  0  0  0  0  0  0  0  0  0  0  0
   -0.7204   -0.4480   -2.1388 C   0  0  0  0  0  0  0  0  0  0  0  0
    0.0771    1.3432    4.2380 H   0  0  0  0  0  0  0  0  0  0  0  0
    1.6648   -1.8069    1.6260 H   0  0  0  0  0  0  0  0  0  0  0  0
    0.8861   -1.8153   -0.6156 H   0  0  0  0  0  0  0  0  0  0  0  0
   -1.5017   -0.4501   -0.1702 H   0  0  0  0  0  0  0  0  0  0  0  0
   -1.2042    1.7785   -1.3020 H   0  0  0  0  0  0  0  0  0  0  0  0
    0.5088    1.7665   -0.6575 H   0  0  0  0  0  0  0  0  0  0  0  0
   -0.9898    1.6281    0.4518 H   0  0  0  0  0  0  0  0  0  0  0  0
   -1.7375   -0.5719   -2.4722 H   0  0  0  0  0  0  0  0  0  0  0  0
   -0.0215   -1.2812   -2.4590 H   0  0  0  0  0  0  0  0  0  0  0  0
   -0.3018    0.4743   -2.6387 H   0  0  0  0  0  0  0  0  0  0  0  0
  1  2  3  0
  2  3  1  0
  3  4  1  0
  4  5  1  0
  5  6  1  0
  6  7  1  0
  6  8  1  0
  5  3  1  0
  1  9  1  0
  3 10  1  0
  5 11  1  0
  6 12  1  0
  7 13  1  0
  7 14  1  0
  7 15  1  0
  8 16  1  0
  8 17  1  0
  8 18  1  0
M  END
