
     RDKit          3D

 17 16  0  0  0  0  0  0  0  0999 V2000
   -2.2524    2.1315   -1.0383 C   0  0  0  0  0  0  0  0  0  0  0  0
   -1.7271    1.0673   -0.4050 C   0  0  0  0  0  0  0  0  0  0  0  0
   -1.2007    0.0427    0.1943 C   0  0  0  0  0  0  0  0  0  0  0  0
   -0.7977    0.3254    1.5461 O   0  0  0  0  0  0  0  0  0  0  0  0
   -1.5474   -1.2833   -0.1411 C   0  0  0  0  0  0  0  0  0  0  0  0
   -1.1050   -1.9480    1.1479 O   0  0  0  0  0  0  0  0  0  0  0  0
    0.3722    0.1077   -0.4206 C   0  0  0  0  0  0  0  0  0  0  0  0
    1.1134   -0.7617    0.3071 O   0  0  0  0  0  0  0  0  0  0  0  0
    2.4311   -0.6813   -0.1380 C   0  0  0  0  0  0  0  0  0  0  0  0
   -2.7018    3.0119   -1.5539 H   0  0  0  0  0  0  0  0  0  0  0  0
    0.0043    0.9551    1.5503 H   0  0  0  0  0  0  0  0  0  0  0  0
   -1.8384   -2.1700   -0.5079 H   0  0  0  0  0  0  0  0  0  0  0  0
    0.5595    1.1677   -0.3109 H   0  0  0  0  0  0  0  0  0  0  0  0
    0.2132   -0.1310   -1.4717 H   0  0  0  0  0  0  0  0  0  0  0  0
    2.6008   -0.9530   -1.1795 H   0  0  0  0  0  0  0  0  0  0  0  0
    2.7814    0.4018   -0.0482 H   0  0  0  0  0  0  0  0  0  0  0  0
    3.0947   -1.2828    0.5427 H   0  0  0  0  0  0  0  0  0  0  0  0
  1  2  3  0
  2  3  1  0
  3  4  1  0
  3  5  1  0
  5  6  2  0
  3  7  1  0
  7  8  1  0
  8  9  1  0
  1 10  1  0
  4 11  1  0
  5 12  1  0
  7 13  1  0
  7 14  1  0
  9 15  1  0
  9 16  1  0
  9 17  1  0
M  END
