
     RDKit          3D

 17 16  0  0  0  0  0  0  0  0999 V2000
    0.2390    2.0639    1.5111 C   0  0  0  0  0  0  0  0  0  0  0  0
    0.3954    1.1892    0.4178 C   0  0  0  0  0  0  0  0  0  0  0  0
    0.4897    0.6431   -0.2888 C   0  0  0  0  0  0  0  0  0  0  0  0
    1.2396   -0.8514   -0.1745 C   0  0  0  0  0  0  0  0  0  0  0  0
    1.6871   -1.7707   -0.0951 C   0  0  0  0  0  0  0  0  0  0  0  0
    0.3836    1.0215   -1.7875 C   0  0  0  0  0  0  0  0  0  0  0  0
   -0.2926    1.1375   -2.5525 O   0  0  0  0  0  0  0  0  0  0  0  0
   -1.0219   -0.1933   -0.3953 C   0  0  0  0  0  0  0  0  0  0  0  0
   -1.0451   -1.0530    0.8097 C   0  0  0  0  0  0  0  0  0  0  0  0
    0.0742    3.1119    2.7976 H   0  0  0  0  0  0  0  0  0  0  0  0
    2.2394   -2.9234    0.0248 H   0  0  0  0  0  0  0  0  0  0  0  0
    1.5820    1.2484   -2.0433 H   0  0  0  0  0  0  0  0  0  0  0  0
   -1.2163   -0.3707   -1.3042 H   0  0  0  0  0  0  0  0  0  0  0  0
   -1.6116    0.7768   -0.0349 H   0  0  0  0  0  0  0  0  0  0  0  0
   -0.6549   -2.0546    0.3685 H   0  0  0  0  0  0  0  0  0  0  0  0
   -0.4079   -0.7256    1.5936 H   0  0  0  0  0  0  0  0  0  0  0  0
   -2.0796   -1.2497    1.1532 H   0  0  0  0  0  0  0  0  0  0  0  0
  1  2  3  0
  2  3  1  0
  3  4  1  0
  4  5  3  0
  3  6  1  0
  6  7  2  0
  3  8  1  0
  8  9  1  0
  1 10  1  0
  5 11  1  0
  6 12  1  0
  8 13  1  0
  8 14  1  0
  9 15  1  0
  9 16  1  0
  9 17  1  0
M  END
