
     RDKit          3D

 17 18  0  0  0  0  0  0  0  0999 V2000
   -3.6797    0.0340    0.2916 C   0  0  0  0  0  0  0  0  0  0  0  0
   -2.5381   -0.1820   -0.0608 C   0  0  0  0  0  0  0  0  0  0  0  0
   -1.1523   -0.4294   -0.4663 C   0  0  0  0  0  0  0  0  0  0  0  0
   -0.1690   -0.3210    0.6443 C   0  0  0  0  0  0  0  0  0  0  0  0
    1.0423   -1.1443    0.6245 C   0  0  0  0  0  0  0  0  0  0  0  0
    2.1646   -0.5557    0.2201 C   0  0  0  0  0  0  0  0  0  0  0  0
    1.9645    0.8840   -0.1503 C   0  0  0  0  0  0  0  0  0  0  0  0
    0.9424    0.7833   -1.1270 O   0  0  0  0  0  0  0  0  0  0  0  0
   -0.2391    0.7263   -0.4735 C   0  0  0  0  0  0  0  0  0  0  0  0
   -4.6829    0.2125    0.6163 H   0  0  0  0  0  0  0  0  0  0  0  0
   -0.9980   -1.2757   -1.1786 H   0  0  0  0  0  0  0  0  0  0  0  0
   -0.4778    0.0792    1.6333 H   0  0  0  0  0  0  0  0  0  0  0  0
    1.0043   -2.1849    0.9298 H   0  0  0  0  0  0  0  0  0  0  0  0
    3.0947   -1.0810    0.1751 H   0  0  0  0  0  0  0  0  0  0  0  0
    1.5486    1.3750    0.7608 H   0  0  0  0  0  0  0  0  0  0  0  0
    2.8626    1.3573   -0.5330 H   0  0  0  0  0  0  0  0  0  0  0  0
   -0.6871    1.7222   -0.2188 H   0  0  0  0  0  0  0  0  0  0  0  0
  1  2  3  0
  2  3  1  0
  3  4  1  0
  4  5  1  0
  5  6  2  0
  6  7  1  0
  7  8  1  0
  8  9  1  0
  9  3  1  0
  9  4  1  0
  1 10  1  0
  3 11  1  0
  4 12  1  0
  5 13  1  0
  6 14  1  0
  7 15  1  0
  7 16  1  0
  9 17  1  0
M  END
