
     RDKit          3D

 19 20  0  0  0  0  0  0  0  0999 V2000
    3.3850   -1.2123   -1.0307 C   0  0  0  0  0  0  0  0  0  0  0  0
    2.3083   -1.0257   -0.5222 C   0  0  0  0  0  0  0  0  0  0  0  0
    1.0165   -0.8273    0.0857 C   0  0  0  0  0  0  0  0  0  0  0  0
    1.0796   -0.0100    1.3317 C   0  0  0  0  0  0  0  0  0  0  0  0
    0.0009    0.7604    1.4353 C   0  0  0  0  0  0  0  0  0  0  0  0
   -0.8672    0.5174    0.2658 C   0  0  0  0  0  0  0  0  0  0  0  0
   -2.1570   -0.2083    0.4643 C   0  0  0  0  0  0  0  0  0  0  0  0
   -2.0824    1.2498   -0.0177 C   0  0  0  0  0  0  0  0  0  0  0  0
    0.1045    0.0505   -0.7796 C   0  0  0  0  0  0  0  0  0  0  0  0
    4.3423   -1.3622   -1.4709 H   0  0  0  0  0  0  0  0  0  0  0  0
    0.4923   -1.7725    0.3412 H   0  0  0  0  0  0  0  0  0  0  0  0
    1.8928   -0.0562    2.0298 H   0  0  0  0  0  0  0  0  0  0  0  0
   -0.2070    1.4548    2.2480 H   0  0  0  0  0  0  0  0  0  0  0  0
   -2.4316   -0.3958    1.5139 H   0  0  0  0  0  0  0  0  0  0  0  0
   -2.3742   -0.9825   -0.2932 H   0  0  0  0  0  0  0  0  0  0  0  0
   -2.4791    2.0296    0.6558 H   0  0  0  0  0  0  0  0  0  0  0  0
   -2.3579    1.3928   -1.0892 H   0  0  0  0  0  0  0  0  0  0  0  0
   -0.3521   -0.5262   -1.5952 H   0  0  0  0  0  0  0  0  0  0  0  0
    0.6863    0.9238   -1.1253 H   0  0  0  0  0  0  0  0  0  0  0  0
  1  2  3  0
  2  3  1  0
  3  4  1  0
  4  5  2  0
  5  6  1  0
  6  7  1  0
  7  8  1  0
  6  9  1  0
  9  3  1  0
  8  6  1  0
  1 10  1  0
  3 11  1  0
  4 12  1  0
  5 13  1  0
  7 14  1  0
  7 15  1  0
  8 16  1  0
  8 17  1  0
  9 18  1  0
  9 19  1  0
M  END
