
     RDKit          3D

 23 23  0  0  0  0  0  0  0  0999 V2000
    0.6016    1.7714    2.4040 C   0  0  0  0  0  0  0  0  0  0  0  0
    0.3940    1.3289    1.2881 C   0  0  0  0  0  0  0  0  0  0  0  0
    0.1561    0.7756   -0.0468 C   0  0  0  0  0  0  0  0  0  0  0  0
   -1.2658    0.9595   -0.5229 C   0  0  0  0  0  0  0  0  0  0  0  0
   -2.2137    0.2532    0.4552 C   0  0  0  0  0  0  0  0  0  0  0  0
    1.2959    0.7498   -0.9533 C   0  0  0  0  0  0  0  0  0  0  0  0
    0.7656   -0.5324   -0.4233 C   0  0  0  0  0  0  0  0  0  0  0  0
    1.4299   -1.2678    0.6946 C   0  0  0  0  0  0  0  0  0  0  0  0
    0.1012   -1.4140   -1.4510 C   0  0  0  0  0  0  0  0  0  0  0  0
    0.7638    2.1571    3.3762 H   0  0  0  0  0  0  0  0  0  0  0  0
   -1.4342    0.4169   -1.4983 H   0  0  0  0  0  0  0  0  0  0  0  0
   -1.5345    2.0028   -0.6850 H   0  0  0  0  0  0  0  0  0  0  0  0
   -1.6524   -0.6316    0.8220 H   0  0  0  0  0  0  0  0  0  0  0  0
   -2.3107    0.9705    1.3161 H   0  0  0  0  0  0  0  0  0  0  0  0
   -3.1749    0.0064   -0.0078 H   0  0  0  0  0  0  0  0  0  0  0  0
    1.2050    0.9628   -2.0501 H   0  0  0  0  0  0  0  0  0  0  0  0
    2.2893    1.0415   -0.5587 H   0  0  0  0  0  0  0  0  0  0  0  0
    1.4669   -0.6845    1.6416 H   0  0  0  0  0  0  0  0  0  0  0  0
    2.4249   -1.6942    0.4188 H   0  0  0  0  0  0  0  0  0  0  0  0
    0.7868   -2.1686    0.9161 H   0  0  0  0  0  0  0  0  0  0  0  0
    0.8151   -2.2240   -1.7117 H   0  0  0  0  0  0  0  0  0  0  0  0
   -0.1151   -0.8811   -2.3965 H   0  0  0  0  0  0  0  0  0  0  0  0
   -0.7947   -1.8981   -1.0273 H   0  0  0  0  0  0  0  0  0  0  0  0
  1  2  3  0
  2  3  1  0
  3  4  1  0
  4  5  1  0
  3  6  1  0
  6  7  1  0
  7  8  1  0
  7  9  1  0
  7  3  1  0
  1 10  1  0
  4 11  1  0
  4 12  1  0
  5 13  1  0
  5 14  1  0
  5 15  1  0
  6 16  1  0
  6 17  1  0
  8 18  1  0
  8 19  1  0
  8 20  1  0
  9 21  1  0
  9 22  1  0
  9 23  1  0
M  END
