
     RDKit          3D

 15 16  0  0  0  0  0  0  0  0999 V2000
   -2.9156    0.8892   -0.4768 C   0  0  0  0  0  0  0  0  0  0  0  0
   -1.8451    0.5186   -0.0824 C   0  0  0  0  0  0  0  0  0  0  0  0
   -0.6031    0.0989    0.3795 C   0  0  0  0  0  0  0  0  0  0  0  0
   -0.2835   -1.2255   -0.2659 C   0  0  0  0  0  0  0  0  0  0  0  0
   -0.1618   -0.4716   -1.4145 O   0  0  0  0  0  0  0  0  0  0  0  0
    0.6824    0.2872   -0.6661 C   0  0  0  0  0  0  0  0  0  0  0  0
    1.8373   -0.3373   -0.2425 C   0  0  0  0  0  0  0  0  0  0  0  0
    2.7843   -0.8542    0.1229 C   0  0  0  0  0  0  0  0  0  0  0  0
    0.3075    1.3209    0.3798 C   0  0  0  0  0  0  0  0  0  0  0  0
   -4.0882    1.2914   -0.9106 H   0  0  0  0  0  0  0  0  0  0  0  0
   -1.1795   -1.8983   -0.3423 H   0  0  0  0  0  0  0  0  0  0  0  0
    0.5746   -1.8044    0.0476 H   0  0  0  0  0  0  0  0  0  0  0  0
    3.9734   -1.4782    0.5882 H   0  0  0  0  0  0  0  0  0  0  0  0
    0.0136    2.2982    0.0044 H   0  0  0  0  0  0  0  0  0  0  0  0
    0.9038    1.3652    1.3335 H   0  0  0  0  0  0  0  0  0  0  0  0
  1  2  3  0
  2  3  1  0
  3  4  1  0
  4  5  1  0
  5  6  1  0
  6  7  1  0
  7  8  3  0
  6  9  1  0
  6  3  1  0
  9  3  1  0
  1 10  1  0
  4 11  1  0
  4 12  1  0
  8 13  1  0
  9 14  1  0
  9 15  1  0
M  END
