
     RDKit          3D

 17 19  0  0  0  0  0  0  0  0999 V2000
    2.7375   -1.0357    0.7585 C   0  0  0  0  0  0  0  0  0  0  0  0
    1.3828   -0.6526    1.1978 C   0  0  0  0  0  0  0  0  0  0  0  0
    0.0203   -0.2400    1.6386 C   0  0  0  0  0  0  0  0  0  0  0  0
   -0.7747   -0.7135    0.4263 C   0  0  0  0  0  0  0  0  0  0  0  0
   -0.1078   -0.6845   -0.9743 C   0  0  0  0  0  0  0  0  0  0  0  0
   -0.8746    0.4806   -1.5882 C   0  0  0  0  0  0  0  0  0  0  0  0
   -2.2301    0.4891   -1.1971 O   0  0  0  0  0  0  0  0  0  0  0  0
   -1.3893    1.2464   -0.4136 C   0  0  0  0  0  0  0  0  0  0  0  0
   -0.4818    0.8391    0.6433 C   0  0  0  0  0  0  0  0  0  0  0  0
    3.9126   -1.3629    0.3812 H   0  0  0  0  0  0  0  0  0  0  0  0
   -0.0795   -0.2447    2.6221 H   0  0  0  0  0  0  0  0  0  0  0  0
   -1.7662   -1.0071    0.5287 H   0  0  0  0  0  0  0  0  0  0  0  0
    0.9386   -0.2128   -0.6649 H   0  0  0  0  0  0  0  0  0  0  0  0
    0.0022   -1.5146   -1.5593 H   0  0  0  0  0  0  0  0  0  0  0  0
   -0.4939    1.0623   -2.4010 H   0  0  0  0  0  0  0  0  0  0  0  0
   -1.3892    2.3910   -0.5905 H   0  0  0  0  0  0  0  0  0  0  0  0
    0.5933    1.1600    0.0915 H   0  0  0  0  0  0  0  0  0  0  0  0
  1  2  3  0
  2  3  1  0
  3  4  1  0
  4  5  1  0
  5  6  1  0
  6  7  1  0
  7  8  1  0
  8  9  1  0
  9  3  1  0
  9  4  1  0
  8  6  1  0
  1 10  1  0
  3 11  1  0
  4 12  1  0
  5 13  1  0
  5 14  1  0
  6 15  1  0
  8 16  1  0
  9 17  1  0
M  END
