
     RDKit          3D

 18 19  0  0  0  0  0  0  0  0999 V2000
    2.9201   -0.2541   -0.9323 C   0  0  0  0  0  0  0  0  0  0  0  0
    1.7563    0.2846   -0.3952 C   0  0  0  0  0  0  0  0  0  0  0  0
    0.7375    0.7330    0.0675 C   0  0  0  0  0  0  0  0  0  0  0  0
   -0.2471    1.6590   -0.7723 C   0  0  0  0  0  0  0  0  0  0  0  0
   -1.3992    0.9395   -0.0159 C   0  0  0  0  0  0  0  0  0  0  0  0
   -0.5055   -0.1952    0.1030 C   0  0  0  0  0  0  0  0  0  0  0  0
   -0.4236   -1.4797   -0.5505 C   0  0  0  0  0  0  0  0  0  0  0  0
   -0.7320   -1.3437    0.9250 C   0  0  0  0  0  0  0  0  0  0  0  0
    3.8941   -0.6827   -1.3739 H   0  0  0  0  0  0  0  0  0  0  0  0
    0.7878    1.2269    1.1519 H   0  0  0  0  0  0  0  0  0  0  0  0
   -0.2389    1.3134   -1.8038 H   0  0  0  0  0  0  0  0  0  0  0  0
   -0.0818    2.6743   -0.4958 H   0  0  0  0  0  0  0  0  0  0  0  0
   -2.3138    0.8051   -0.6200 H   0  0  0  0  0  0  0  0  0  0  0  0
   -1.5299    1.4523    0.9558 H   0  0  0  0  0  0  0  0  0  0  0  0
   -1.1971   -1.8453   -1.2356 H   0  0  0  0  0  0  0  0  0  0  0  0
    0.6222   -1.8616   -0.7572 H   0  0  0  0  0  0  0  0  0  0  0  0
   -0.1742   -1.8624    1.6974 H   0  0  0  0  0  0  0  0  0  0  0  0
   -1.8749   -1.5635    1.1247 H   0  0  0  0  0  0  0  0  0  0  0  0
  1  2  3  0
  2  3  1  0
  3  4  1  0
  4  5  1  0
  5  6  1  0
  6  7  1  0
  7  8  1  0
  6  3  1  0
  8  6  1  0
  1  9  1  0
  3 10  1  0
  4 11  1  0
  4 12  1  0
  5 13  1  0
  5 14  1  0
  7 15  1  0
  7 16  1  0
  8 17  1  0
  8 18  1  0
M  END
