
     RDKit          3D

 21 21  0  0  0  0  0  0  0  0999 V2000
    1.5089    1.1571    2.0796 C   0  0  0  0  0  0  0  0  0  0  0  0
    1.0321    0.6769    1.0808 C   0  0  0  0  0  0  0  0  0  0  0  0
    0.4401    0.0765   -0.1185 C   0  0  0  0  0  0  0  0  0  0  0  0
    1.2261    0.1638   -1.2361 O   0  0  0  0  0  0  0  0  0  0  0  0
    2.4293   -0.5130   -0.9425 C   0  0  0  0  0  0  0  0  0  0  0  0
   -0.2774   -1.2565    0.0257 C   0  0  0  0  0  0  0  0  0  0  0  0
   -1.0236   -0.0136   -0.1434 C   0  0  0  0  0  0  0  0  0  0  0  0
   -1.7799    0.4589    1.0993 C   0  0  0  0  0  0  0  0  0  0  0  0
   -1.7164    0.3577   -1.4254 C   0  0  0  0  0  0  0  0  0  0  0  0
    1.9399    1.6010    2.9616 H   0  0  0  0  0  0  0  0  0  0  0  0
    2.2231   -1.5829   -0.6945 H   0  0  0  0  0  0  0  0  0  0  0  0
    3.0900   -0.5372   -1.8355 H   0  0  0  0  0  0  0  0  0  0  0  0
    2.8798   -0.0304   -0.0702 H   0  0  0  0  0  0  0  0  0  0  0  0
   -0.2110   -1.9898   -0.8009 H   0  0  0  0  0  0  0  0  0  0  0  0
   -0.1675   -1.7033    1.0266 H   0  0  0  0  0  0  0  0  0  0  0  0
   -1.0759    0.8101    1.8825 H   0  0  0  0  0  0  0  0  0  0  0  0
   -2.5508    1.2019    0.8619 H   0  0  0  0  0  0  0  0  0  0  0  0
   -2.3029   -0.4513    1.4776 H   0  0  0  0  0  0  0  0  0  0  0  0
   -2.7540   -0.0074   -1.4635 H   0  0  0  0  0  0  0  0  0  0  0  0
   -1.7909    1.4797   -1.4401 H   0  0  0  0  0  0  0  0  0  0  0  0
   -1.1192    0.1017   -2.3249 H   0  0  0  0  0  0  0  0  0  0  0  0
  1  2  3  0
  2  3  1  0
  3  4  1  0
  4  5  1  0
  3  6  1  0
  6  7  1  0
  7  8  1  0
  7  9  1  0
  7  3  1  0
  1 10  1  0
  5 11  1  0
  5 12  1  0
  5 13  1  0
  6 14  1  0
  6 15  1  0
  8 16  1  0
  8 17  1  0
  8 18  1  0
  9 19  1  0
  9 20  1  0
  9 21  1  0
M  END
