
     RDKit          3D

 19 19  0  0  0  0  0  0  0  0999 V2000
    3.1452   -0.4904   -0.1902 C   0  0  0  0  0  0  0  0  0  0  0  0
    2.1740    0.1566   -0.3044 C   0  0  0  0  0  0  0  0  0  0  0  0
    0.9509    0.9839   -0.4580 C   0  0  0  0  0  0  0  0  0  0  0  0
   -0.1431    0.5382   -1.3953 C   0  0  0  0  0  0  0  0  0  0  0  0
   -0.3096    0.3614    0.0405 C   0  0  0  0  0  0  0  0  0  0  0  0
   -1.2281    1.2674    0.7914 C   0  0  0  0  0  0  0  0  0  0  0  0
   -0.2453   -1.0807    0.5283 C   0  0  0  0  0  0  0  0  0  0  0  0
   -1.4556   -1.6157    0.9895 C   0  0  0  0  0  0  0  0  0  0  0  0
   -1.3804   -2.1984    2.2313 O   0  0  0  0  0  0  0  0  0  0  0  0
    4.1032   -1.1182   -0.0791 H   0  0  0  0  0  0  0  0  0  0  0  0
    1.1085    2.0435   -0.3583 H   0  0  0  0  0  0  0  0  0  0  0  0
   -0.7497    1.2959   -1.9352 H   0  0  0  0  0  0  0  0  0  0  0  0
    0.1677   -0.3160   -2.0668 H   0  0  0  0  0  0  0  0  0  0  0  0
   -0.7090    2.1805    1.1724 H   0  0  0  0  0  0  0  0  0  0  0  0
   -1.7288    0.8341    1.6682 H   0  0  0  0  0  0  0  0  0  0  0  0
   -2.0261    1.6321    0.0907 H   0  0  0  0  0  0  0  0  0  0  0  0
    0.2522   -1.6852   -0.2972 H   0  0  0  0  0  0  0  0  0  0  0  0
    0.5260   -1.0470    1.3744 H   0  0  0  0  0  0  0  0  0  0  0  0
   -2.4521   -1.7420    0.7186 H   0  0  0  0  0  0  0  0  0  0  0  0
  1  2  3  0
  2  3  1  0
  3  4  1  0
  4  5  1  0
  5  6  1  0
  5  7  1  0
  7  8  1  0
  8  9  2  0
  5  3  1  0
  1 10  1  0
  3 11  1  0
  4 12  1  0
  4 13  1  0
  6 14  1  0
  6 15  1  0
  6 16  1  0
  7 17  1  0
  7 18  1  0
  8 19  1  0
M  END
