
     RDKit          3D

 20 19  0  0  0  0  0  0  0  0999 V2000
   -0.9924    3.1982    0.9523 C   0  0  0  0  0  0  0  0  0  0  0  0
   -0.6846    2.0697    0.6628 C   0  0  0  0  0  0  0  0  0  0  0  0
   -0.2768    0.6694    0.3032 C   0  0  0  0  0  0  0  0  0  0  0  0
   -1.5338   -0.0180   -0.1211 C   0  0  0  0  0  0  0  0  0  0  0  0
   -1.4111   -1.4354   -0.5353 C   0  0  0  0  0  0  0  0  0  0  0  0
    0.5997    0.6966   -0.7559 O   0  0  0  0  0  0  0  0  0  0  0  0
    1.8550    0.2140   -0.5483 C   0  0  0  0  0  0  0  0  0  0  0  0
    1.8291   -1.2450   -0.1699 C   0  0  0  0  0  0  0  0  0  0  0  0
   -1.2594    4.1948    1.2033 H   0  0  0  0  0  0  0  0  0  0  0  0
    0.1512    0.2316    1.2309 H   0  0  0  0  0  0  0  0  0  0  0  0
   -1.9663    0.5702   -0.9640 H   0  0  0  0  0  0  0  0  0  0  0  0
   -2.2572    0.0617    0.7169 H   0  0  0  0  0  0  0  0  0  0  0  0
   -0.9862   -2.1107    0.2050 H   0  0  0  0  0  0  0  0  0  0  0  0
   -0.9183   -1.5517   -1.5239 H   0  0  0  0  0  0  0  0  0  0  0  0
   -2.4712   -1.7881   -0.7244 H   0  0  0  0  0  0  0  0  0  0  0  0
    2.4352    0.8136    0.1874 H   0  0  0  0  0  0  0  0  0  0  0  0
    2.3798    0.2412   -1.5513 H   0  0  0  0  0  0  0  0  0  0  0  0
    1.2244   -1.3691    0.7195 H   0  0  0  0  0  0  0  0  0  0  0  0
    2.8710   -1.6472   -0.0268 H   0  0  0  0  0  0  0  0  0  0  0  0
    1.4120   -1.7957   -1.0399 H   0  0  0  0  0  0  0  0  0  0  0  0
  1  2  3  0
  2  3  1  0
  3  4  1  0
  4  5  1  0
  3  6  1  0
  6  7  1  0
  7  8  1  0
  1  9  1  0
  3 10  1  0
  4 11  1  0
  4 12  1  0
  5 13  1  0
  5 14  1  0
  5 15  1  0
  7 16  1  0
  7 17  1  0
  8 18  1  0
  8 19  1  0
  8 20  1  0
M  END
