
     RDKit          3D

 13 13  0  0  0  0  0  0  0  0999 V2000
    2.5076   -1.3854    0.0523 C   0  0  0  0  0  0  0  0  0  0  0  0
    1.4926   -0.7605   -0.0263 C   0  0  0  0  0  0  0  0  0  0  0  0
    0.2733   -0.0141   -0.1456 C   0  0  0  0  0  0  0  0  0  0  0  0
    0.0974    1.2968   -0.0310 C   0  0  0  0  0  0  0  0  0  0  0  0
   -0.0937    2.5977    0.0966 C   0  0  0  0  0  0  0  0  0  0  0  0
   -0.9439   -0.9200   -0.6768 C   0  0  0  0  0  0  0  0  0  0  0  0
   -1.5344   -0.0051    0.4891 C   0  0  0  0  0  0  0  0  0  0  0  0
   -2.4151    0.7513    0.6009 O   0  0  0  0  0  0  0  0  0  0  0  0
   -0.4471   -0.6192    1.2032 O   0  0  0  0  0  0  0  0  0  0  0  0
    3.5823   -2.0258    0.1448 H   0  0  0  0  0  0  0  0  0  0  0  0
   -0.2504    3.5574    0.1946 H   0  0  0  0  0  0  0  0  0  0  0  0
   -1.4742   -0.5584   -1.5205 H   0  0  0  0  0  0  0  0  0  0  0  0
   -0.7943   -1.9146   -0.3812 H   0  0  0  0  0  0  0  0  0  0  0  0
  1  2  3  0
  2  3  1  0
  3  4  1  0
  4  5  3  0
  3  6  1  0
  6  7  1  0
  7  8  2  0
  7  9  1  0
  9  3  1  0
  1 10  1  0
  5 11  1  0
  6 12  1  0
  6 13  1  0
M  END
