
     RDKit          3D

 17 17  0  0  0  0  0  0  0  0999 V2000
   -1.8800    0.5539   -2.1178 C   0  0  0  0  0  0  0  0  0  0  0  0
   -1.2794    0.0639   -1.2512 C   0  0  0  0  0  0  0  0  0  0  0  0
   -0.5138   -0.5382   -0.1345 C   0  0  0  0  0  0  0  0  0  0  0  0
   -1.3065   -1.4406    0.7682 C   0  0  0  0  0  0  0  0  0  0  0  0
    0.8735   -0.9982   -0.4534 C   0  0  0  0  0  0  0  0  0  0  0  0
    0.6227    0.2019    0.4483 C   0  0  0  0  0  0  0  0  0  0  0  0
    1.0677    1.4167   -0.1031 O   0  0  0  0  0  0  0  0  0  0  0  0
    1.7901    2.3175    0.6615 C   0  0  0  0  0  0  0  0  0  0  0  0
    2.0162    1.9736    1.8718 O   0  0  0  0  0  0  0  0  0  0  0  0
   -2.4509    1.0025   -2.9504 H   0  0  0  0  0  0  0  0  0  0  0  0
   -0.8699   -2.4572    0.7068 H   0  0  0  0  0  0  0  0  0  0  0  0
   -1.2190   -1.0648    1.8155 H   0  0  0  0  0  0  0  0  0  0  0  0
   -2.3662   -1.5427    0.4463 H   0  0  0  0  0  0  0  0  0  0  0  0
    1.2135   -0.8269   -1.4906 H   0  0  0  0  0  0  0  0  0  0  0  0
    1.2771   -1.9211   -0.0149 H   0  0  0  0  0  0  0  0  0  0  0  0
    0.8725   -0.0018    1.5174 H   0  0  0  0  0  0  0  0  0  0  0  0
    2.1524    3.2614    0.2801 H   0  0  0  0  0  0  0  0  0  0  0  0
  1  2  3  0
  2  3  1  0
  3  4  1  0
  3  5  1  0
  5  6  1  0
  6  7  1  0
  7  8  1  0
  8  9  2  0
  6  3  1  0
  1 10  1  0
  4 11  1  0
  4 12  1  0
  4 13  1  0
  5 14  1  0
  5 15  1  0
  6 16  1  0
  8 17  1  0
M  END
