
     RDKit          3D

 19 18  0  0  0  0  0  0  0  0999 V2000
    0.8957    3.0524   -0.5335 C   0  0  0  0  0  0  0  0  0  0  0  0
    0.5868    1.5772   -0.2173 C   0  0  0  0  0  0  0  0  0  0  0  0
    0.3712    0.4719    0.0324 C   0  0  0  0  0  0  0  0  0  0  0  0
    1.2107   -0.5047    0.8027 C   0  0  0  0  0  0  0  0  0  0  0  0
    1.5556   -0.1844    2.1837 C   0  0  0  0  0  0  0  0  0  0  0  0
   -0.6301   -0.2416   -0.8932 C   0  0  0  0  0  0  0  0  0  0  0  0
   -1.8916    0.0942   -0.3064 O   0  0  0  0  0  0  0  0  0  0  0  0
   -0.7968   -0.9552   -1.8911 O   0  0  0  0  0  0  0  0  0  0  0  0
   -2.1535   -1.3466   -2.3330 C   0  0  0  0  0  0  0  0  0  0  0  0
    1.0983    4.0248   -0.7572 H   0  0  0  0  0  0  0  0  0  0  0  0
   -0.4731    0.5981    1.0493 H   0  0  0  0  0  0  0  0  0  0  0  0
    2.1718   -0.8293    0.2476 H   0  0  0  0  0  0  0  0  0  0  0  0
    0.6368   -1.4987    0.7774 H   0  0  0  0  0  0  0  0  0  0  0  0
    1.0637    0.7945    2.5126 H   0  0  0  0  0  0  0  0  0  0  0  0
    1.2622   -1.0018    2.8841 H   0  0  0  0  0  0  0  0  0  0  0  0
    2.6576    0.0323    2.2524 H   0  0  0  0  0  0  0  0  0  0  0  0
   -2.8007   -0.4056   -2.1410 H   0  0  0  0  0  0  0  0  0  0  0  0
   -2.4800   -2.0868   -1.5480 H   0  0  0  0  0  0  0  0  0  0  0  0
   -2.2847   -1.5909   -3.3300 H   0  0  0  0  0  0  0  0  0  0  0  0
  1  2  3  0
  2  3  1  0
  3  4  1  0
  4  5  1  0
  3  6  1  0
  6  7  2  0
  6  8  1  0
  8  9  1  0
  1 10  1  0
  3 11  1  0
  4 12  1  0
  4 13  1  0
  5 14  1  0
  5 15  1  0
  5 16  1  0
  9 17  1  0
  9 18  1  0
  9 19  1  0
M  END
