
     RDKit          3D

 15 15  0  0  0  0  0  0  0  0999 V2000
    2.7216   -0.7217    1.2939 C   0  0  0  0  0  0  0  0  0  0  0  0
    1.7702   -0.5306    0.5604 C   0  0  0  0  0  0  0  0  0  0  0  0
    0.6359   -0.2968   -0.2848 C   0  0  0  0  0  0  0  0  0  0  0  0
   -0.1782   -1.4440   -0.3715 O   0  0  0  0  0  0  0  0  0  0  0  0
   -1.3333   -0.9354   -1.0104 C   0  0  0  0  0  0  0  0  0  0  0  0
   -1.6137    0.3364   -0.2893 C   0  0  0  0  0  0  0  0  0  0  0  0
   -2.6454    0.9293   -0.2259 O   0  0  0  0  0  0  0  0  0  0  0  0
   -0.3195    0.7274    0.3484 C   0  0  0  0  0  0  0  0  0  0  0  0
    0.0293    2.0326    0.0670 O   0  0  0  0  0  0  0  0  0  0  0  0
    3.5794   -0.8914    1.9786 H   0  0  0  0  0  0  0  0  0  0  0  0
    0.9204    0.0293   -1.3187 H   0  0  0  0  0  0  0  0  0  0  0  0
   -1.0529   -0.6670   -2.0542 H   0  0  0  0  0  0  0  0  0  0  0  0
   -2.1168   -1.6607   -1.0021 H   0  0  0  0  0  0  0  0  0  0  0  0
   -0.3433    0.4930    1.4304 H   0  0  0  0  0  0  0  0  0  0  0  0
   -0.0537    2.5997    0.8783 H   0  0  0  0  0  0  0  0  0  0  0  0
  1  2  3  0
  2  3  1  0
  3  4  1  0
  4  5  1  0
  5  6  1  0
  6  7  2  0
  6  8  1  0
  8  9  1  0
  8  3  1  0
  1 10  1  0
  3 11  1  0
  5 12  1  0
  5 13  1  0
  8 14  1  0
  9 15  1  0
M  END
