
     RDKit          3D

 21 20  0  0  0  0  0  0  0  0999 V2000
    4.1019    0.6174    0.2396 C   0  0  0  0  0  0  0  0  0  0  0  0
    3.4343   -0.3583    0.3909 C   0  0  0  0  0  0  0  0  0  0  0  0
    2.6304   -1.5736    0.5766 C   0  0  0  0  0  0  0  0  0  0  0  0
    1.3558   -1.3675   -0.1300 C   0  0  0  0  0  0  0  0  0  0  0  0
    0.3028   -1.2096   -0.6940 C   0  0  0  0  0  0  0  0  0  0  0  0
   -0.9831   -1.0039   -1.4035 C   0  0  0  0  0  0  0  0  0  0  0  0
   -1.8652   -0.2502   -0.4328 C   0  0  0  0  0  0  0  0  0  0  0  0
   -1.2527    1.0813   -0.0463 C   0  0  0  0  0  0  0  0  0  0  0  0
   -2.1991    1.7602    0.9210 C   0  0  0  0  0  0  0  0  0  0  0  0
    4.7029    1.5027    0.1167 H   0  0  0  0  0  0  0  0  0  0  0  0
    2.4661   -1.7862    1.6629 H   0  0  0  0  0  0  0  0  0  0  0  0
    3.1614   -2.4702    0.1713 H   0  0  0  0  0  0  0  0  0  0  0  0
   -1.4926   -1.9802   -1.5922 H   0  0  0  0  0  0  0  0  0  0  0  0
   -0.8458   -0.4078   -2.3205 H   0  0  0  0  0  0  0  0  0  0  0  0
   -2.0974   -0.8721    0.4492 H   0  0  0  0  0  0  0  0  0  0  0  0
   -2.8225   -0.0337   -0.9478 H   0  0  0  0  0  0  0  0  0  0  0  0
   -1.1461    1.6905   -0.9600 H   0  0  0  0  0  0  0  0  0  0  0  0
   -0.2818    0.9128    0.4749 H   0  0  0  0  0  0  0  0  0  0  0  0
   -2.9336    2.3478    0.3675 H   0  0  0  0  0  0  0  0  0  0  0  0
   -1.5590    2.4005    1.5959 H   0  0  0  0  0  0  0  0  0  0  0  0
   -2.6767    1.0002    1.5926 H   0  0  0  0  0  0  0  0  0  0  0  0
  1  2  3  0
  2  3  1  0
  3  4  1  0
  4  5  3  0
  5  6  1  0
  6  7  1  0
  7  8  1  0
  8  9  1  0
  1 10  1  0
  3 11  1  0
  3 12  1  0
  6 13  1  0
  6 14  1  0
  7 15  1  0
  7 16  1  0
  8 17  1  0
  8 18  1  0
  9 19  1  0
  9 20  1  0
  9 21  1  0
M  END
