
     RDKit          3D

 17 17  0  0  0  0  0  0  0  0999 V2000
   -1.9868    1.3537    1.2565 C   0  0  0  0  0  0  0  0  0  0  0  0
   -1.4141    0.5186    0.5327 C   0  0  0  0  0  0  0  0  0  0  0  0
   -0.7305   -0.4787   -0.3004 C   0  0  0  0  0  0  0  0  0  0  0  0
   -1.3759   -0.7933   -1.5782 C   0  0  0  0  0  0  0  0  0  0  0  0
   -1.7689   -1.8958   -1.9905 O   0  0  0  0  0  0  0  0  0  0  0  0
    0.0951   -1.4593    0.4699 C   0  0  0  0  0  0  0  0  0  0  0  0
    0.7756   -0.4771   -0.3534 C   0  0  0  0  0  0  0  0  0  0  0  0
    1.5679    0.7161    0.0434 C   0  0  0  0  0  0  0  0  0  0  0  0
    1.4270    1.1860    1.3118 O   0  0  0  0  0  0  0  0  0  0  0  0
   -2.4878    2.0749    1.9061 H   0  0  0  0  0  0  0  0  0  0  0  0
   -1.5489    0.0594   -2.3115 H   0  0  0  0  0  0  0  0  0  0  0  0
    0.1183   -1.2803    1.5852 H   0  0  0  0  0  0  0  0  0  0  0  0
    0.1116   -2.5304    0.1557 H   0  0  0  0  0  0  0  0  0  0  0  0
    1.2263   -0.9311   -1.3195 H   0  0  0  0  0  0  0  0  0  0  0  0
    2.6747    0.3211   -0.0344 H   0  0  0  0  0  0  0  0  0  0  0  0
    1.5212    1.4935   -0.7419 H   0  0  0  0  0  0  0  0  0  0  0  0
    1.7951    2.1227    1.3686 H   0  0  0  0  0  0  0  0  0  0  0  0
  1  2  3  0
  2  3  1  0
  3  4  1  0
  4  5  2  0
  3  6  1  0
  6  7  1  0
  7  8  1  0
  8  9  1  0
  7  3  1  0
  1 10  1  0
  4 11  1  0
  6 12  1  0
  6 13  1  0
  7 14  1  0
  8 15  1  0
  8 16  1  0
  9 17  1  0
M  END
