
     RDKit          3D

 16 16  0  0  0  0  0  0  0  0999 V2000
    2.9659    0.7303   -0.5252 C   0  0  0  0  0  0  0  0  0  0  0  0
    1.9699    0.0756   -0.3194 C   0  0  0  0  0  0  0  0  0  0  0  0
    0.7584   -0.7147   -0.0580 C   0  0  0  0  0  0  0  0  0  0  0  0
    0.0619   -0.5108    1.2906 C   0  0  0  0  0  0  0  0  0  0  0  0
   -0.5254   -0.0157   -0.0317 C   0  0  0  0  0  0  0  0  0  0  0  0
   -1.8084   -0.7543   -0.4004 C   0  0  0  0  0  0  0  0  0  0  0  0
   -0.5604    1.4397   -0.2939 C   0  0  0  0  0  0  0  0  0  0  0  0
   -1.6334    2.0222   -0.4556 O   0  0  0  0  0  0  0  0  0  0  0  0
    3.8445    1.3273   -0.7169 H   0  0  0  0  0  0  0  0  0  0  0  0
    0.7441   -1.7349   -0.4808 H   0  0  0  0  0  0  0  0  0  0  0  0
    0.4452    0.3217    1.9169 H   0  0  0  0  0  0  0  0  0  0  0  0
   -0.3315   -1.4187    1.7604 H   0  0  0  0  0  0  0  0  0  0  0  0
   -2.1439   -0.5449   -1.4157 H   0  0  0  0  0  0  0  0  0  0  0  0
   -2.5725   -0.4186    0.3315 H   0  0  0  0  0  0  0  0  0  0  0  0
   -1.5579   -1.8391   -0.2499 H   0  0  0  0  0  0  0  0  0  0  0  0
    0.3433    2.0349   -0.3519 H   0  0  0  0  0  0  0  0  0  0  0  0
  1  2  3  0
  2  3  1  0
  3  4  1  0
  4  5  1  0
  5  6  1  0
  5  7  1  0
  7  8  2  0
  5  3  1  0
  1  9  1  0
  3 10  1  0
  4 11  1  0
  4 12  1  0
  6 13  1  0
  6 14  1  0
  6 15  1  0
  7 16  1  0
M  END
