
     RDKit          3D

 18 17  0  0  0  0  0  0  0  0999 V2000
    0.6543    2.3267   -2.6194 C   0  0  0  0  0  0  0  0  0  0  0  0
    0.7239    1.1797   -2.2370 C   0  0  0  0  0  0  0  0  0  0  0  0
    0.7838   -0.2036   -1.7739 C   0  0  0  0  0  0  0  0  0  0  0  0
    0.7085   -0.3241   -0.3089 C   0  0  0  0  0  0  0  0  0  0  0  0
   -0.5318    0.1972    0.3504 C   0  0  0  0  0  0  0  0  0  0  0  0
   -0.4292    0.0220    1.8382 C   0  0  0  0  0  0  0  0  0  0  0  0
   -1.0399   -1.1452    2.5184 C   0  0  0  0  0  0  0  0  0  0  0  0
    0.1698    0.8564    2.5086 O   0  0  0  0  0  0  0  0  0  0  0  0
    0.6087    3.3182   -2.9615 H   0  0  0  0  0  0  0  0  0  0  0  0
    1.7568   -0.6871   -2.0937 H   0  0  0  0  0  0  0  0  0  0  0  0
    0.0086   -0.8022   -2.3075 H   0  0  0  0  0  0  0  0  0  0  0  0
    0.7176   -1.4383   -0.0702 H   0  0  0  0  0  0  0  0  0  0  0  0
    1.5765    0.1687    0.2035 H   0  0  0  0  0  0  0  0  0  0  0  0
   -0.7780    1.2427    0.1245 H   0  0  0  0  0  0  0  0  0  0  0  0
   -1.4093   -0.4186    0.0228 H   0  0  0  0  0  0  0  0  0  0  0  0
   -0.2821   -1.9421    2.6595 H   0  0  0  0  0  0  0  0  0  0  0  0
   -1.8605   -1.5267    1.8624 H   0  0  0  0  0  0  0  0  0  0  0  0
   -1.3777   -0.8238    3.5182 H   0  0  0  0  0  0  0  0  0  0  0  0
  1  2  3  0
  2  3  1  0
  3  4  1  0
  4  5  1  0
  5  6  1  0
  6  7  1  0
  6  8  2  0
  1  9  1  0
  3 10  1  0
  3 11  1  0
  4 12  1  0
  4 13  1  0
  5 14  1  0
  5 15  1  0
  7 16  1  0
  7 17  1  0
  7 18  1  0
M  END
