
     RDKit          3D

 14 15  0  0  0  0  0  0  0  0999 V2000
    1.6714   -1.9437    1.1014 C   0  0  0  0  0  0  0  0  0  0  0  0
    1.2130   -0.9664    0.5612 C   0  0  0  0  0  0  0  0  0  0  0  0
    0.6450    0.2206   -0.1051 C   0  0  0  0  0  0  0  0  0  0  0  0
   -0.3744   -0.0414   -1.1888 C   0  0  0  0  0  0  0  0  0  0  0  0
   -1.8043   -0.1114   -0.6584 C   0  0  0  0  0  0  0  0  0  0  0  0
   -1.3260    0.8968   -1.4987 O   0  0  0  0  0  0  0  0  0  0  0  0
    0.3964    1.3861    0.7666 C   0  0  0  0  0  0  0  0  0  0  0  0
    1.5085    1.2884   -0.2041 O   0  0  0  0  0  0  0  0  0  0  0  0
    2.0689   -2.8063    1.5850 H   0  0  0  0  0  0  0  0  0  0  0  0
   -0.0839   -0.8195   -1.9388 H   0  0  0  0  0  0  0  0  0  0  0  0
   -2.4094   -0.9229   -1.0645 H   0  0  0  0  0  0  0  0  0  0  0  0
   -1.9995    0.2310    0.3802 H   0  0  0  0  0  0  0  0  0  0  0  0
   -0.2691    2.1854    0.4444 H   0  0  0  0  0  0  0  0  0  0  0  0
    0.7634    1.4034    1.8195 H   0  0  0  0  0  0  0  0  0  0  0  0
  1  2  3  0
  2  3  1  0
  3  4  1  0
  4  5  1  0
  5  6  1  0
  3  7  1  0
  7  8  1  0
  8  3  1  0
  6  4  1  0
  1  9  1  0
  4 10  1  0
  5 11  1  0
  5 12  1  0
  7 13  1  0
  7 14  1  0
M  END
