
     RDKit          3D

 19 19  0  0  0  0  0  0  0  0999 V2000
    3.1530    0.9812   -1.6136 C   0  0  0  0  0  0  0  0  0  0  0  0
    2.2592    0.5567   -0.9210 C   0  0  0  0  0  0  0  0  0  0  0  0
    1.1918    0.0332   -0.0649 C   0  0  0  0  0  0  0  0  0  0  0  0
    0.4305   -1.0428   -0.7827 C   0  0  0  0  0  0  0  0  0  0  0  0
   -0.9574   -0.4611   -0.9127 C   0  0  0  0  0  0  0  0  0  0  0  0
   -0.9596    0.6185    0.1354 C   0  0  0  0  0  0  0  0  0  0  0  0
   -1.5782    0.0575    1.4129 C   0  0  0  0  0  0  0  0  0  0  0  0
   -1.5744    1.0249    2.3985 O   0  0  0  0  0  0  0  0  0  0  0  0
    0.3328    1.0218    0.3331 O   0  0  0  0  0  0  0  0  0  0  0  0
    3.9549    1.3426   -2.2375 H   0  0  0  0  0  0  0  0  0  0  0  0
    1.6466   -0.4532    0.8438 H   0  0  0  0  0  0  0  0  0  0  0  0
    0.9020   -1.2226   -1.7692 H   0  0  0  0  0  0  0  0  0  0  0  0
    0.4348   -2.0101   -0.2518 H   0  0  0  0  0  0  0  0  0  0  0  0
   -1.0962   -0.0771   -1.9411 H   0  0  0  0  0  0  0  0  0  0  0  0
   -1.7265   -1.2198   -0.6527 H   0  0  0  0  0  0  0  0  0  0  0  0
   -1.6095    1.4368   -0.1996 H   0  0  0  0  0  0  0  0  0  0  0  0
   -2.5923   -0.3360    1.1946 H   0  0  0  0  0  0  0  0  0  0  0  0
   -0.9832   -0.8472    1.7301 H   0  0  0  0  0  0  0  0  0  0  0  0
   -1.2281    0.5971    3.2299 H   0  0  0  0  0  0  0  0  0  0  0  0
  1  2  3  0
  2  3  1  0
  3  4  1  0
  4  5  1  0
  5  6  1  0
  6  7  1  0
  7  8  1  0
  6  9  1  0
  9  3  1  0
  1 10  1  0
  3 11  1  0
  4 12  1  0
  4 13  1  0
  5 14  1  0
  5 15  1  0
  6 16  1  0
  7 17  1  0
  7 18  1  0
  8 19  1  0
M  END
