
     RDKit          3D

 19 18  0  0  0  0  0  0  0  0999 V2000
    4.0865    1.6585    0.1501 C   0  0  0  0  0  0  0  0  0  0  0  0
    3.2857    0.7968   -0.1417 C   0  0  0  0  0  0  0  0  0  0  0  0
    2.3237   -0.2444   -0.4676 C   0  0  0  0  0  0  0  0  0  0  0  0
    1.0478    0.0495    0.0281 O   0  0  0  0  0  0  0  0  0  0  0  0
    0.2176   -0.9856   -0.3289 C   0  0  0  0  0  0  0  0  0  0  0  0
   -1.1993   -0.8202    0.1323 C   0  0  0  0  0  0  0  0  0  0  0  0
   -1.8494    0.3951   -0.4058 C   0  0  0  0  0  0  0  0  0  0  0  0
   -3.2615    0.6529   -0.0078 C   0  0  0  0  0  0  0  0  0  0  0  0
   -1.2704    1.1545   -1.1379 O   0  0  0  0  0  0  0  0  0  0  0  0
    4.7960    2.4161    0.4046 H   0  0  0  0  0  0  0  0  0  0  0  0
    2.6623   -1.2143   -0.0281 H   0  0  0  0  0  0  0  0  0  0  0  0
    2.2484   -0.4098   -1.5739 H   0  0  0  0  0  0  0  0  0  0  0  0
    0.6059   -1.9208    0.1271 H   0  0  0  0  0  0  0  0  0  0  0  0
    0.2287   -1.0642   -1.4356 H   0  0  0  0  0  0  0  0  0  0  0  0
   -1.7615   -1.7200   -0.1964 H   0  0  0  0  0  0  0  0  0  0  0  0
   -1.2560   -0.7692    1.2404 H   0  0  0  0  0  0  0  0  0  0  0  0
   -3.8950    0.0336   -0.7045 H   0  0  0  0  0  0  0  0  0  0  0  0
   -3.4770    0.2684    1.0154 H   0  0  0  0  0  0  0  0  0  0  0  0
   -3.5323    1.7234   -0.0484 H   0  0  0  0  0  0  0  0  0  0  0  0
  1  2  3  0
  2  3  1  0
  3  4  1  0
  4  5  1  0
  5  6  1  0
  6  7  1  0
  7  8  1  0
  7  9  2  0
  1 10  1  0
  3 11  1  0
  3 12  1  0
  5 13  1  0
  5 14  1  0
  6 15  1  0
  6 16  1  0
  8 17  1  0
  8 18  1  0
  8 19  1  0
M  END
