
     RDKit          3D

 21 21  0  0  0  0  0  0  0  0999 V2000
   -2.8555    1.3494   -0.9754 C   0  0  0  0  0  0  0  0  0  0  0  0
   -1.8409    0.1093   -0.9892 C   0  0  0  0  0  0  0  0  0  0  0  0
   -1.0968   -0.7806   -0.9881 C   0  0  0  0  0  0  0  0  0  0  0  0
    0.4767   -0.4391   -1.0126 C   0  0  0  0  0  0  0  0  0  0  0  0
    0.9958   -1.2928    0.1645 C   0  0  0  0  0  0  0  0  0  0  0  0
    2.2765   -0.7836    0.7605 C   0  0  0  0  0  0  0  0  0  0  0  0
   -0.0061   -1.0288    1.1228 O   0  0  0  0  0  0  0  0  0  0  0  0
   -0.7243   -0.0363    0.8160 C   0  0  0  0  0  0  0  0  0  0  0  0
   -0.3171    1.2986    0.3616 C   0  0  0  0  0  0  0  0  0  0  0  0
   -3.5521    2.2324   -0.9672 H   0  0  0  0  0  0  0  0  0  0  0  0
   -1.2300   -1.7064   -0.3379 H   0  0  0  0  0  0  0  0  0  0  0  0
    0.8366    0.5992   -0.7130 H   0  0  0  0  0  0  0  0  0  0  0  0
    1.0084   -0.6215   -1.9214 H   0  0  0  0  0  0  0  0  0  0  0  0
    1.0363   -2.3185   -0.1264 H   0  0  0  0  0  0  0  0  0  0  0  0
    2.0886   -0.3687    1.7801 H   0  0  0  0  0  0  0  0  0  0  0  0
    2.7056   -0.0049    0.0920 H   0  0  0  0  0  0  0  0  0  0  0  0
    3.0403   -1.5923    0.9388 H   0  0  0  0  0  0  0  0  0  0  0  0
   -1.8237    0.0119    0.9450 H   0  0  0  0  0  0  0  0  0  0  0  0
   -1.1139    2.0138    0.9001 H   0  0  0  0  0  0  0  0  0  0  0  0
   -0.4913    1.5894   -0.6701 H   0  0  0  0  0  0  0  0  0  0  0  0
    0.5872    1.7698    0.8198 H   0  0  0  0  0  0  0  0  0  0  0  0
  1  2  3  0
  2  3  1  0
  3  4  1  0
  4  5  1  0
  5  6  1  0
  5  7  1  0
  7  8  1  0
  8  9  1  0
  8  3  1  0
  1 10  1  0
  3 11  1  0
  4 12  1  0
  4 13  1  0
  5 14  1  0
  6 15  1  0
  6 16  1  0
  6 17  1  0
  8 18  1  0
  9 19  1  0
  9 20  1  0
  9 21  1  0
M  END
