
     RDKit          3D

 21 20  0  0  0  0  0  0  0  0999 V2000
    0.2349    1.3922    2.6444 C   0  0  0  0  0  0  0  0  0  0  0  0
   -0.0459    0.2027    2.3334 C   0  0  0  0  0  0  0  0  0  0  0  0
   -0.3699   -1.1160    1.9958 C   0  0  0  0  0  0  0  0  0  0  0  0
   -0.7373   -1.8744    2.9547 O   0  0  0  0  0  0  0  0  0  0  0  0
   -0.3072   -1.6826    0.6153 C   0  0  0  0  0  0  0  0  0  0  0  0
   -0.6179   -0.8056   -0.4874 C   0  0  0  0  0  0  0  0  0  0  0  0
    0.0635    0.4291   -0.8295 C   0  0  0  0  0  0  0  0  0  0  0  0
    1.5060    0.4658   -1.1286 C   0  0  0  0  0  0  0  0  0  0  0  0
   -0.6126    0.9948   -2.1249 C   0  0  0  0  0  0  0  0  0  0  0  0
    0.4626    2.3417    2.9102 H   0  0  0  0  0  0  0  0  0  0  0  0
   -1.1024   -2.5095    0.6375 H   0  0  0  0  0  0  0  0  0  0  0  0
    0.6391   -2.2638    0.5290 H   0  0  0  0  0  0  0  0  0  0  0  0
   -0.7445   -1.4029   -1.4616 H   0  0  0  0  0  0  0  0  0  0  0  0
   -1.7380   -0.5247   -0.3314 H   0  0  0  0  0  0  0  0  0  0  0  0
   -0.1489    1.2330   -0.0807 H   0  0  0  0  0  0  0  0  0  0  0  0
    2.1759    0.4323   -0.2183 H   0  0  0  0  0  0  0  0  0  0  0  0
    1.8836   -0.1897   -1.9247 H   0  0  0  0  0  0  0  0  0  0  0  0
    1.7401    1.5023   -1.5262 H   0  0  0  0  0  0  0  0  0  0  0  0
   -0.8888    2.0349   -1.9487 H   0  0  0  0  0  0  0  0  0  0  0  0
    0.1179    0.9480   -2.9598 H   0  0  0  0  0  0  0  0  0  0  0  0
   -1.5102    0.3924   -2.3269 H   0  0  0  0  0  0  0  0  0  0  0  0
  1  2  3  0
  2  3  1  0
  3  4  2  0
  3  5  1  0
  5  6  1  0
  6  7  1  0
  7  8  1  0
  7  9  1  0
  1 10  1  0
  5 11  1  0
  5 12  1  0
  6 13  1  0
  6 14  1  0
  7 15  1  0
  8 16  1  0
  8 17  1  0
  8 18  1  0
  9 19  1  0
  9 20  1  0
  9 21  1  0
M  END
