
     RDKit          3D

 23 23  0  0  0  0  0  0  0  0999 V2000
   -2.4024    1.9120   -2.2502 C   0  0  0  0  0  0  0  0  0  0  0  0
   -2.1345    1.1192   -1.3558 C   0  0  0  0  0  0  0  0  0  0  0  0
   -1.8038    0.1561   -0.3041 C   0  0  0  0  0  0  0  0  0  0  0  0
   -0.8177   -0.9266   -0.6019 C   0  0  0  0  0  0  0  0  0  0  0  0
   -1.0325   -2.2764    0.0664 C   0  0  0  0  0  0  0  0  0  0  0  0
   -0.4726    0.2377    0.2984 C   0  0  0  0  0  0  0  0  0  0  0  0
    0.5957    1.1443   -0.2165 C   0  0  0  0  0  0  0  0  0  0  0  0
    1.8818    1.0517    0.5681 C   0  0  0  0  0  0  0  0  0  0  0  0
    2.4603   -0.3462    0.5376 C   0  0  0  0  0  0  0  0  0  0  0  0
   -2.6441    2.5844   -3.0318 H   0  0  0  0  0  0  0  0  0  0  0  0
   -2.6787   -0.1339    0.3442 H   0  0  0  0  0  0  0  0  0  0  0  0
   -0.4321   -0.9628   -1.6323 H   0  0  0  0  0  0  0  0  0  0  0  0
   -0.0652   -2.7803    0.1425 H   0  0  0  0  0  0  0  0  0  0  0  0
   -1.5228   -2.0717    1.0382 H   0  0  0  0  0  0  0  0  0  0  0  0
   -1.7609   -2.8668   -0.5348 H   0  0  0  0  0  0  0  0  0  0  0  0
   -0.4331    0.0170    1.3982 H   0  0  0  0  0  0  0  0  0  0  0  0
    0.7851    0.9265   -1.2749 H   0  0  0  0  0  0  0  0  0  0  0  0
    0.2712    2.2105   -0.1504 H   0  0  0  0  0  0  0  0  0  0  0  0
    1.7444    1.4221    1.5866 H   0  0  0  0  0  0  0  0  0  0  0  0
    2.6215    1.7064    0.0529 H   0  0  0  0  0  0  0  0  0  0  0  0
    3.5547   -0.3469    0.7168 H   0  0  0  0  0  0  0  0  0  0  0  0
    2.2823   -0.8626   -0.4066 H   0  0  0  0  0  0  0  0  0  0  0  0
    2.0033   -0.9137    1.3953 H   0  0  0  0  0  0  0  0  0  0  0  0
  1  2  3  0
  2  3  1  0
  3  4  1  0
  4  5  1  0
  4  6  1  0
  6  7  1  0
  7  8  1  0
  8  9  1  0
  6  3  1  0
  1 10  1  0
  3 11  1  0
  4 12  1  0
  5 13  1  0
  5 14  1  0
  5 15  1  0
  6 16  1  0
  7 17  1  0
  7 18  1  0
  8 19  1  0
  8 20  1  0
  9 21  1  0
  9 22  1  0
  9 23  1  0
M  END
