
     RDKit          3D

 19 20  0  0  0  0  0  0  0  0999 V2000
    3.6154    0.9772   -1.2114 C   0  0  0  0  0  0  0  0  0  0  0  0
    2.6708    0.3192   -0.8488 C   0  0  0  0  0  0  0  0  0  0  0  0
    1.5126   -0.4687   -0.4165 C   0  0  0  0  0  0  0  0  0  0  0  0
    0.2809   -0.4319   -1.2101 C   0  0  0  0  0  0  0  0  0  0  0  0
   -0.7792   -1.2067   -0.7195 O   0  0  0  0  0  0  0  0  0  0  0  0
   -0.9807   -0.2734    0.2900 C   0  0  0  0  0  0  0  0  0  0  0  0
   -0.9323   -0.8475    1.6992 C   0  0  0  0  0  0  0  0  0  0  0  0
   -2.2178    0.5673    0.0149 C   0  0  0  0  0  0  0  0  0  0  0  0
    0.2936    0.4160   -0.0305 C   0  0  0  0  0  0  0  0  0  0  0  0
    4.4696    1.5500   -1.5311 H   0  0  0  0  0  0  0  0  0  0  0  0
    1.6909   -1.3317    0.2578 H   0  0  0  0  0  0  0  0  0  0  0  0
    0.2162   -0.0277   -2.2329 H   0  0  0  0  0  0  0  0  0  0  0  0
   -0.4437   -1.8391    1.6747 H   0  0  0  0  0  0  0  0  0  0  0  0
   -1.9822   -0.9178    2.0867 H   0  0  0  0  0  0  0  0  0  0  0  0
   -0.3564   -0.1096    2.3197 H   0  0  0  0  0  0  0  0  0  0  0  0
   -2.5188    1.1197    0.9379 H   0  0  0  0  0  0  0  0  0  0  0  0
   -1.9417    1.2607   -0.8079 H   0  0  0  0  0  0  0  0  0  0  0  0
   -3.0255   -0.1375   -0.2768 H   0  0  0  0  0  0  0  0  0  0  0  0
    0.4284    1.4860    0.0047 H   0  0  0  0  0  0  0  0  0  0  0  0
  1  2  3  0
  2  3  1  0
  3  4  1  0
  4  5  1  0
  5  6  1  0
  6  7  1  0
  6  8  1  0
  6  9  1  0
  9  3  1  0
  9  4  1  0
  1 10  1  0
  3 11  1  0
  4 12  1  0
  7 13  1  0
  7 14  1  0
  7 15  1  0
  8 16  1  0
  8 17  1  0
  8 18  1  0
  9 19  1  0
M  END
