
     RDKit          3D

 21 20  0  0  0  0  0  0  0  0999 V2000
   -1.1360   -2.8484   -1.1764 C   0  0  0  0  0  0  0  0  0  0  0  0
   -0.3978   -2.0735   -1.2627 C   0  0  0  0  0  0  0  0  0  0  0  0
    0.6371   -0.9675   -1.4073 C   0  0  0  0  0  0  0  0  0  0  0  0
    0.1681    0.0559   -0.3611 C   0  0  0  0  0  0  0  0  0  0  0  0
    0.2496   -0.6987    1.0091 C   0  0  0  0  0  0  0  0  0  0  0  0
    1.1352    1.1712   -0.2940 C   0  0  0  0  0  0  0  0  0  0  0  0
    1.0149    2.1239   -1.3133 O   0  0  0  0  0  0  0  0  0  0  0  0
   -1.1380    0.3948   -0.5647 O   0  0  0  0  0  0  0  0  0  0  0  0
   -1.6284    1.3190    0.3125 C   0  0  0  0  0  0  0  0  0  0  0  0
   -1.9166   -3.6656   -1.1011 H   0  0  0  0  0  0  0  0  0  0  0  0
    0.5763   -0.6036   -2.4376 H   0  0  0  0  0  0  0  0  0  0  0  0
    1.6427   -1.3396   -1.2047 H   0  0  0  0  0  0  0  0  0  0  0  0
   -0.0452   -0.0563    1.8369 H   0  0  0  0  0  0  0  0  0  0  0  0
   -0.4002   -1.5891    0.9574 H   0  0  0  0  0  0  0  0  0  0  0  0
    1.3065   -0.9792    1.1056 H   0  0  0  0  0  0  0  0  0  0  0  0
    2.1617    0.6790   -0.6189 H   0  0  0  0  0  0  0  0  0  0  0  0
    1.3109    1.6647    0.6566 H   0  0  0  0  0  0  0  0  0  0  0  0
    1.8303    2.6938   -1.3407 H   0  0  0  0  0  0  0  0  0  0  0  0
   -0.9977    2.2478    0.2453 H   0  0  0  0  0  0  0  0  0  0  0  0
   -1.6995    0.9046    1.3267 H   0  0  0  0  0  0  0  0  0  0  0  0
   -2.6739    1.5668   -0.0675 H   0  0  0  0  0  0  0  0  0  0  0  0
  1  2  3  0
  2  3  1  0
  3  4  1  0
  4  5  1  0
  4  6  1  0
  6  7  1  0
  4  8  1  0
  8  9  1  0
  1 10  1  0
  3 11  1  0
  3 12  1  0
  5 13  1  0
  5 14  1  0
  5 15  1  0
  6 16  1  0
  6 17  1  0
  7 18  1  0
  9 19  1  0
  9 20  1  0
  9 21  1  0
M  END
