
     RDKit          3D

 21 21  0  0  0  0  0  0  0  0999 V2000
    2.0943    1.8758    0.7522 C   0  0  0  0  0  0  0  0  0  0  0  0
    1.4215    0.9924    0.2792 C   0  0  0  0  0  0  0  0  0  0  0  0
    0.6273   -0.0916   -0.2986 C   0  0  0  0  0  0  0  0  0  0  0  0
    1.1995   -1.4928   -0.1472 C   0  0  0  0  0  0  0  0  0  0  0  0
    2.4217   -1.5106   -0.7674 O   0  0  0  0  0  0  0  0  0  0  0  0
   -0.0076    0.2367   -1.6659 C   0  0  0  0  0  0  0  0  0  0  0  0
   -0.8255    0.1188   -0.4358 C   0  0  0  0  0  0  0  0  0  0  0  0
   -1.3714    1.3684    0.2290 C   0  0  0  0  0  0  0  0  0  0  0  0
   -1.8029   -1.0315   -0.4336 C   0  0  0  0  0  0  0  0  0  0  0  0
    2.7058    2.6479    1.1719 H   0  0  0  0  0  0  0  0  0  0  0  0
    0.4850   -2.2251   -0.5724 H   0  0  0  0  0  0  0  0  0  0  0  0
    1.3261   -1.7617    0.9165 H   0  0  0  0  0  0  0  0  0  0  0  0
    2.3763   -0.8926   -1.5476 H   0  0  0  0  0  0  0  0  0  0  0  0
   -0.0083   -0.5769   -2.4110 H   0  0  0  0  0  0  0  0  0  0  0  0
    0.1367    1.2581   -2.0558 H   0  0  0  0  0  0  0  0  0  0  0  0
   -2.4793    1.3632    0.2472 H   0  0  0  0  0  0  0  0  0  0  0  0
   -1.0562    1.2959    1.3086 H   0  0  0  0  0  0  0  0  0  0  0  0
   -0.9676    2.2830   -0.2033 H   0  0  0  0  0  0  0  0  0  0  0  0
   -2.7330   -0.6415   -0.9436 H   0  0  0  0  0  0  0  0  0  0  0  0
   -1.4576   -1.8635   -1.0767 H   0  0  0  0  0  0  0  0  0  0  0  0
   -2.0847   -1.3525    0.5899 H   0  0  0  0  0  0  0  0  0  0  0  0
  1  2  3  0
  2  3  1  0
  3  4  1  0
  4  5  1  0
  3  6  1  0
  6  7  1  0
  7  8  1  0
  7  9  1  0
  7  3  1  0
  1 10  1  0
  4 11  1  0
  4 12  1  0
  5 13  1  0
  6 14  1  0
  6 15  1  0
  8 16  1  0
  8 17  1  0
  8 18  1  0
  9 19  1  0
  9 20  1  0
  9 21  1  0
M  END
