
     RDKit          3D

 19 18  0  0  0  0  0  0  0  0999 V2000
    3.4432   -0.0429   -0.1497 C   0  0  0  0  0  0  0  0  0  0  0  0
    2.4473    0.2099   -0.7834 C   0  0  0  0  0  0  0  0  0  0  0  0
    1.2368    0.5367   -1.5389 C   0  0  0  0  0  0  0  0  0  0  0  0
    0.0891    0.8324   -0.5642 C   0  0  0  0  0  0  0  0  0  0  0  0
   -0.1784   -0.3632    0.2963 C   0  0  0  0  0  0  0  0  0  0  0  0
   -0.5341   -1.4715   -0.4623 O   0  0  0  0  0  0  0  0  0  0  0  0
   -1.3207   -0.0096    1.2020 C   0  0  0  0  0  0  0  0  0  0  0  0
   -2.5841   -0.7947    1.1992 C   0  0  0  0  0  0  0  0  0  0  0  0
   -1.2565    0.9326    1.9727 O   0  0  0  0  0  0  0  0  0  0  0  0
    4.3272   -0.2528    0.4249 H   0  0  0  0  0  0  0  0  0  0  0  0
    1.3814    1.4428   -2.1489 H   0  0  0  0  0  0  0  0  0  0  0  0
    0.9346   -0.3374   -2.1622 H   0  0  0  0  0  0  0  0  0  0  0  0
    0.5018    1.6316    0.1190 H   0  0  0  0  0  0  0  0  0  0  0  0
   -0.7827    1.2315   -1.0884 H   0  0  0  0  0  0  0  0  0  0  0  0
    0.7368   -0.5867    0.8717 H   0  0  0  0  0  0  0  0  0  0  0  0
    0.3087   -1.9373   -0.7564 H   0  0  0  0  0  0  0  0  0  0  0  0
   -2.5356   -1.5697    1.9899 H   0  0  0  0  0  0  0  0  0  0  0  0
   -3.4375   -0.0808    1.3929 H   0  0  0  0  0  0  0  0  0  0  0  0
   -2.7774   -1.2349    0.1859 H   0  0  0  0  0  0  0  0  0  0  0  0
  1  2  3  0
  2  3  1  0
  3  4  1  0
  4  5  1  0
  5  6  1  0
  5  7  1  0
  7  8  1  0
  7  9  2  0
  1 10  1  0
  3 11  1  0
  3 12  1  0
  4 13  1  0
  4 14  1  0
  5 15  1  0
  6 16  1  0
  8 17  1  0
  8 18  1  0
  8 19  1  0
M  END
