
     RDKit          3D

 12 11  0  0  0  0  0  0  0  0999 V2000
    1.6439   -1.5265   -0.8405 C   0  0  0  0  0  0  0  0  0  0  0  0
    0.8560   -0.6828   -0.4748 C   0  0  0  0  0  0  0  0  0  0  0  0
   -0.1042    0.3662   -0.0471 C   0  0  0  0  0  0  0  0  0  0  0  0
    0.1878    1.5852   -0.6069 O   0  0  0  0  0  0  0  0  0  0  0  0
   -1.4385   -0.0630   -0.5465 C   0  0  0  0  0  0  0  0  0  0  0  0
   -2.0436    0.6106   -1.3949 O   0  0  0  0  0  0  0  0  0  0  0  0
   -0.1493    0.3467    1.4324 C   0  0  0  0  0  0  0  0  0  0  0  0
   -0.0331    1.2339    2.1760 O   0  0  0  0  0  0  0  0  0  0  0  0
    2.3199   -2.2477   -1.1383 H   0  0  0  0  0  0  0  0  0  0  0  0
    0.9888    2.0203   -0.2230 H   0  0  0  0  0  0  0  0  0  0  0  0
   -1.9057   -0.9632   -0.1809 H   0  0  0  0  0  0  0  0  0  0  0  0
   -0.3218   -0.6796    1.8445 H   0  0  0  0  0  0  0  0  0  0  0  0
  1  2  3  0
  2  3  1  0
  3  4  1  0
  3  5  1  0
  5  6  2  0
  3  7  1  0
  7  8  2  0
  1  9  1  0
  4 10  1  0
  5 11  1  0
  7 12  1  0
M  END
