
     RDKit          3D

 17 17  0  0  0  0  0  0  0  0999 V2000
   -2.9993    1.0221   -2.3062 C   0  0  0  0  0  0  0  0  0  0  0  0
   -2.0398    1.1140   -1.5747 C   0  0  0  0  0  0  0  0  0  0  0  0
   -0.8518    1.2352   -0.6996 C   0  0  0  0  0  0  0  0  0  0  0  0
    0.1442    0.1521   -1.0298 C   0  0  0  0  0  0  0  0  0  0  0  0
   -0.2581   -1.1748   -0.8950 O   0  0  0  0  0  0  0  0  0  0  0  0
    0.8683   -0.6541   -0.1213 C   0  0  0  0  0  0  0  0  0  0  0  0
    0.6883   -0.7108    1.3446 C   0  0  0  0  0  0  0  0  0  0  0  0
    1.7249   -1.3011    2.2345 C   0  0  0  0  0  0  0  0  0  0  0  0
   -0.3162   -0.2752    1.8716 O   0  0  0  0  0  0  0  0  0  0  0  0
   -3.8360    0.9435   -2.9217 H   0  0  0  0  0  0  0  0  0  0  0  0
   -1.2039    1.2177    0.3401 H   0  0  0  0  0  0  0  0  0  0  0  0
   -0.3569    2.2097   -0.9588 H   0  0  0  0  0  0  0  0  0  0  0  0
    0.5956    0.3317   -2.0531 H   0  0  0  0  0  0  0  0  0  0  0  0
    1.8429   -1.0980   -0.4887 H   0  0  0  0  0  0  0  0  0  0  0  0
    1.8682   -0.7492    3.1620 H   0  0  0  0  0  0  0  0  0  0  0  0
    1.4246   -2.3691    2.4127 H   0  0  0  0  0  0  0  0  0  0  0  0
    2.7050   -1.3798    1.6835 H   0  0  0  0  0  0  0  0  0  0  0  0
  1  2  3  0
  2  3  1  0
  3  4  1  0
  4  5  1  0
  5  6  1  0
  6  7  1  0
  7  8  1  0
  7  9  2  0
  6  4  1  0
  1 10  1  0
  3 11  1  0
  3 12  1  0
  4 13  1  0
  6 14  1  0
  8 15  1  0
  8 16  1  0
  8 17  1  0
M  END
