
     RDKit          3D

 21 21  0  0  0  0  0  0  0  0999 V2000
    0.6933    2.5749    1.1455 C   0  0  0  0  0  0  0  0  0  0  0  0
    0.7204    1.4984    0.6046 C   0  0  0  0  0  0  0  0  0  0  0  0
    0.7762    0.1979   -0.0595 C   0  0  0  0  0  0  0  0  0  0  0  0
    1.2942   -0.9107    0.7869 C   0  0  0  0  0  0  0  0  0  0  0  0
    1.5059    0.2966   -1.3924 C   0  0  0  0  0  0  0  0  0  0  0  0
    0.5842   -0.6519   -1.8820 O   0  0  0  0  0  0  0  0  0  0  0  0
   -0.3384   -0.0828   -1.0036 C   0  0  0  0  0  0  0  0  0  0  0  0
   -1.4314   -0.9820   -0.5168 C   0  0  0  0  0  0  0  0  0  0  0  0
   -2.0557   -0.3219    0.7208 C   0  0  0  0  0  0  0  0  0  0  0  0
    0.6592    3.5143    1.6347 H   0  0  0  0  0  0  0  0  0  0  0  0
    2.1481   -1.4283    0.2655 H   0  0  0  0  0  0  0  0  0  0  0  0
    0.5440   -1.6707    0.9989 H   0  0  0  0  0  0  0  0  0  0  0  0
    1.7379   -0.4955    1.7148 H   0  0  0  0  0  0  0  0  0  0  0  0
    1.3918    1.2976   -1.8267 H   0  0  0  0  0  0  0  0  0  0  0  0
    2.5080   -0.1197   -1.3002 H   0  0  0  0  0  0  0  0  0  0  0  0
   -0.7258    0.8497   -1.4452 H   0  0  0  0  0  0  0  0  0  0  0  0
   -1.0778   -1.9739   -0.1950 H   0  0  0  0  0  0  0  0  0  0  0  0
   -2.1975   -1.1217   -1.3013 H   0  0  0  0  0  0  0  0  0  0  0  0
   -3.0440   -0.8185    0.9394 H   0  0  0  0  0  0  0  0  0  0  0  0
   -2.2925    0.7435    0.5248 H   0  0  0  0  0  0  0  0  0  0  0  0
   -1.3999   -0.3953    1.5869 H   0  0  0  0  0  0  0  0  0  0  0  0
  1  2  3  0
  2  3  1  0
  3  4  1  0
  3  5  1  0
  5  6  1  0
  6  7  1  0
  7  8  1  0
  8  9  1  0
  7  3  1  0
  1 10  1  0
  4 11  1  0
  4 12  1  0
  4 13  1  0
  5 14  1  0
  5 15  1  0
  7 16  1  0
  8 17  1  0
  8 18  1  0
  9 19  1  0
  9 20  1  0
  9 21  1  0
M  END
