
     RDKit          3D

 17 18  0  0  0  0  0  0  0  0999 V2000
    4.7522    0.5926    0.3217 C   0  0  0  0  0  0  0  0  0  0  0  0
    3.5575    0.4327    0.3347 C   0  0  0  0  0  0  0  0  0  0  0  0
    2.1287    0.2547    0.3299 C   0  0  0  0  0  0  0  0  0  0  0  0
    0.9445    0.0993    0.3096 C   0  0  0  0  0  0  0  0  0  0  0  0
   -0.3726   -0.0611    0.3066 C   0  0  0  0  0  0  0  0  0  0  0  0
   -1.3441    0.5168   -0.6782 C   0  0  0  0  0  0  0  0  0  0  0  0
   -2.2019   -0.2618    0.2906 C   0  0  0  0  0  0  0  0  0  0  0  0
   -1.1377   -1.3314    0.1930 C   0  0  0  0  0  0  0  0  0  0  0  0
   -1.3420    0.3472    1.3687 C   0  0  0  0  0  0  0  0  0  0  0  0
    5.8026    0.7261    0.3214 H   0  0  0  0  0  0  0  0  0  0  0  0
   -1.2786    0.0899   -1.6824 H   0  0  0  0  0  0  0  0  0  0  0  0
   -1.4278    1.6119   -0.5874 H   0  0  0  0  0  0  0  0  0  0  0  0
   -3.1892   -0.3770    0.2806 H   0  0  0  0  0  0  0  0  0  0  0  0
   -1.0870   -1.8760   -0.7599 H   0  0  0  0  0  0  0  0  0  0  0  0
   -1.1097   -2.0007    1.0848 H   0  0  0  0  0  0  0  0  0  0  0  0
   -1.4284    1.4383    1.4858 H   0  0  0  0  0  0  0  0  0  0  0  0
   -1.2667   -0.2012    2.3081 H   0  0  0  0  0  0  0  0  0  0  0  0
  1  2  3  0
  2  3  1  0
  3  4  3  0
  4  5  1  0
  5  6  1  0
  6  7  1  0
  7  8  1  0
  7  9  1  0
  8  5  1  0
  9  5  1  0
  1 10  1  0
  6 11  1  0
  6 12  1  0
  7 13  1  0
  8 14  1  0
  8 15  1  0
  9 16  1  0
  9 17  1  0
M  END
