
     RDKit          3D

 13 12  0  0  0  0  0  0  0  0999 V2000
    0.4055   -1.5878   -2.7740 C   0  0  0  0  0  0  0  0  0  0  0  0
    0.3991   -0.6667   -1.7340 C   0  0  0  0  0  0  0  0  0  0  0  0
    0.4094   -0.0205   -0.9960 C   0  0  0  0  0  0  0  0  0  0  0  0
    0.4077    0.6225   -0.2646 C   0  0  0  0  0  0  0  0  0  0  0  0
    0.4272    1.7202    0.9562 C   0  0  0  0  0  0  0  0  0  0  0  0
    0.0012    0.8623    2.1813 C   0  0  0  0  0  0  0  0  0  0  0  0
   -0.4611   -0.0161    2.8682 O   0  0  0  0  0  0  0  0  0  0  0  0
   -0.5820   -0.3244    0.9515 C   0  0  0  0  0  0  0  0  0  0  0  0
    0.8995   -0.9544    1.0602 O   0  0  0  0  0  0  0  0  0  0  0  0
    0.4408   -2.7065   -4.0551 H   0  0  0  0  0  0  0  0  0  0  0  0
   -1.3280    1.3441    0.7788 H   0  0  0  0  0  0  0  0  0  0  0  0
   -0.1688    2.5712    0.6202 H   0  0  0  0  0  0  0  0  0  0  0  0
   -0.8505   -0.8440    0.4073 H   0  0  0  0  0  0  0  0  0  0  0  0
  1  2  3  0
  2  3  1  0
  3  4  3  0
  4  5  1  0
  5  6  1  0
  6  7  2  0
  6  8  1  0
  8  9  2  0
  1 10  1  0
  5 11  1  0
  5 12  1  0
  8 13  1  0
M  END
