
     RDKit          3D

 19 19  0  0  0  0  0  0  0  0999 V2000
    2.7088    0.6176    1.5233 C   0  0  0  0  0  0  0  0  0  0  0  0
    2.0491   -0.0123    0.7115 C   0  0  0  0  0  0  0  0  0  0  0  0
    1.2348   -0.7593   -0.2550 C   0  0  0  0  0  0  0  0  0  0  0  0
    0.5324   -1.7098    0.4362 O   0  0  0  0  0  0  0  0  0  0  0  0
   -0.7685   -1.2994    0.5890 C   0  0  0  0  0  0  0  0  0  0  0  0
   -0.8379    0.1578    0.2191 C   0  0  0  0  0  0  0  0  0  0  0  0
   -2.1754    0.5381   -0.3680 C   0  0  0  0  0  0  0  0  0  0  0  0
    0.2429    0.2237   -0.8411 C   0  0  0  0  0  0  0  0  0  0  0  0
    0.7734    1.4986   -0.9572 O   0  0  0  0  0  0  0  0  0  0  0  0
    3.2840    1.1661    2.2284 H   0  0  0  0  0  0  0  0  0  0  0  0
    1.9090   -1.1800   -1.0272 H   0  0  0  0  0  0  0  0  0  0  0  0
   -1.1957   -1.5192    1.5850 H   0  0  0  0  0  0  0  0  0  0  0  0
   -1.4148   -1.8435   -0.1598 H   0  0  0  0  0  0  0  0  0  0  0  0
   -0.5309    0.8112    1.0513 H   0  0  0  0  0  0  0  0  0  0  0  0
   -2.2494    1.6454   -0.3114 H   0  0  0  0  0  0  0  0  0  0  0  0
   -3.0120    0.0910    0.1642 H   0  0  0  0  0  0  0  0  0  0  0  0
   -2.1476    0.2567   -1.4584 H   0  0  0  0  0  0  0  0  0  0  0  0
   -0.0787   -0.1471   -1.8179 H   0  0  0  0  0  0  0  0  0  0  0  0
    1.6765    1.4644   -1.3120 H   0  0  0  0  0  0  0  0  0  0  0  0
  1  2  3  0
  2  3  1  0
  3  4  1  0
  4  5  1  0
  5  6  1  0
  6  7  1  0
  6  8  1  0
  8  9  1  0
  8  3  1  0
  1 10  1  0
  3 11  1  0
  5 12  1  0
  5 13  1  0
  6 14  1  0
  7 15  1  0
  7 16  1  0
  7 17  1  0
  8 18  1  0
  9 19  1  0
M  END
