
     RDKit          3D

 17 19  0  0  0  0  0  0  0  0999 V2000
    2.8650    0.1632   -1.0473 C   0  0  0  0  0  0  0  0  0  0  0  0
    1.7501   -0.1222   -0.7046 C   0  0  0  0  0  0  0  0  0  0  0  0
    0.4168   -0.4673   -0.2841 C   0  0  0  0  0  0  0  0  0  0  0  0
    0.1300   -1.3312    0.8676 C   0  0  0  0  0  0  0  0  0  0  0  0
   -0.1208    0.1076    0.9870 C   0  0  0  0  0  0  0  0  0  0  0  0
    0.7201    0.7850    1.8704 O   0  0  0  0  0  0  0  0  0  0  0  0
   -0.8508    0.9118   -0.0428 C   0  0  0  0  0  0  0  0  0  0  0  0
   -2.0393    0.6213   -0.6662 C   0  0  0  0  0  0  0  0  0  0  0  0
   -0.7777   -0.0234   -1.1021 C   0  0  0  0  0  0  0  0  0  0  0  0
    3.8534    0.4085   -1.3491 H   0  0  0  0  0  0  0  0  0  0  0  0
    1.0070   -1.7799    1.3713 H   0  0  0  0  0  0  0  0  0  0  0  0
   -0.7109   -2.0758    0.7758 H   0  0  0  0  0  0  0  0  0  0  0  0
    0.4997    0.4089    2.7802 H   0  0  0  0  0  0  0  0  0  0  0  0
   -0.3334    1.9033   -0.2392 H   0  0  0  0  0  0  0  0  0  0  0  0
   -2.8580    0.0559   -0.1606 H   0  0  0  0  0  0  0  0  0  0  0  0
   -2.4639    1.3151   -1.4359 H   0  0  0  0  0  0  0  0  0  0  0  0
   -1.0873   -0.8808   -1.6205 H   0  0  0  0  0  0  0  0  0  0  0  0
  1  2  3  0
  2  3  1  0
  3  4  1  0
  4  5  1  0
  5  6  1  0
  5  7  1  0
  7  8  1  0
  8  9  1  0
  5  3  1  0
  9  7  1  0
  9  3  1  0
  1 10  1  0
  4 11  1  0
  4 12  1  0
  6 13  1  0
  7 14  1  0
  8 15  1  0
  8 16  1  0
  9 17  1  0
M  END
