
     RDKit          3D

 17 18  0  0  0  0  0  0  0  0999 V2000
    3.4490    0.0168   -0.7611 C   0  0  0  0  0  0  0  0  0  0  0  0
    2.2778   -0.0989   -0.5069 C   0  0  0  0  0  0  0  0  0  0  0  0
    0.9170   -0.2187   -0.2302 C   0  0  0  0  0  0  0  0  0  0  0  0
    0.2574   -1.5627   -0.4130 C   0  0  0  0  0  0  0  0  0  0  0  0
   -0.9824   -1.2798    0.0608 C   0  0  0  0  0  0  0  0  0  0  0  0
   -0.8097    0.1563    0.4415 C   0  0  0  0  0  0  0  0  0  0  0  0
   -1.8794    0.8691    1.0837 C   0  0  0  0  0  0  0  0  0  0  0  0
   -0.0670    0.7794   -0.7249 C   0  0  0  0  0  0  0  0  0  0  0  0
    0.4568    0.0927    1.0701 O   0  0  0  0  0  0  0  0  0  0  0  0
    4.4938    0.1027   -0.9849 H   0  0  0  0  0  0  0  0  0  0  0  0
    0.6488   -2.4804   -0.8037 H   0  0  0  0  0  0  0  0  0  0  0  0
   -1.8482   -1.9232    0.1372 H   0  0  0  0  0  0  0  0  0  0  0  0
   -2.8745    0.4092    0.8236 H   0  0  0  0  0  0  0  0  0  0  0  0
   -1.9447    1.9256    0.7665 H   0  0  0  0  0  0  0  0  0  0  0  0
   -1.8224    0.7720    2.2056 H   0  0  0  0  0  0  0  0  0  0  0  0
   -0.5078    0.6352   -1.7108 H   0  0  0  0  0  0  0  0  0  0  0  0
    0.2354    1.8048   -0.4534 H   0  0  0  0  0  0  0  0  0  0  0  0
  1  2  3  0
  2  3  1  0
  3  4  1  0
  4  5  2  0
  5  6  1  0
  6  7  1  0
  6  8  1  0
  6  9  1  0
  8  3  1  0
  9  3  1  0
  1 10  1  0
  4 11  1  0
  5 12  1  0
  7 13  1  0
  7 14  1  0
  7 15  1  0
  8 16  1  0
  8 17  1  0
M  END
