
     RDKit          3D

 21 20  0  0  0  0  0  0  0  0999 V2000
   -4.8339    0.7850   -0.6215 C   0  0  0  0  0  0  0  0  0  0  0  0
   -3.8880    0.1539   -0.3149 C   0  0  0  0  0  0  0  0  0  0  0  0
   -2.6999   -0.6191    0.0877 C   0  0  0  0  0  0  0  0  0  0  0  0
   -1.5878    0.1907   -0.1178 O   0  0  0  0  0  0  0  0  0  0  0  0
   -0.4546   -0.5207    0.2638 C   0  0  0  0  0  0  0  0  0  0  0  0
    0.8035    0.3368    0.0737 C   0  0  0  0  0  0  0  0  0  0  0  0
    2.0027   -0.4577    0.4938 C   0  0  0  0  0  0  0  0  0  0  0  0
    3.1564    0.2944    0.3469 O   0  0  0  0  0  0  0  0  0  0  0  0
    3.4136    0.7208   -0.9267 C   0  0  0  0  0  0  0  0  0  0  0  0
   -5.7288    1.3618   -0.8989 H   0  0  0  0  0  0  0  0  0  0  0  0
   -2.6923   -1.5315   -0.5579 H   0  0  0  0  0  0  0  0  0  0  0  0
   -2.8228   -0.9207    1.1403 H   0  0  0  0  0  0  0  0  0  0  0  0
   -0.3301   -1.4268   -0.3515 H   0  0  0  0  0  0  0  0  0  0  0  0
   -0.4730   -0.7629    1.3588 H   0  0  0  0  0  0  0  0  0  0  0  0
    0.6857    1.2676    0.6753 H   0  0  0  0  0  0  0  0  0  0  0  0
    0.8246    0.6308   -0.9779 H   0  0  0  0  0  0  0  0  0  0  0  0
    1.9208   -0.7598    1.5547 H   0  0  0  0  0  0  0  0  0  0  0  0
    2.0299   -1.3948   -0.1037 H   0  0  0  0  0  0  0  0  0  0  0  0
    4.3736    1.3156   -0.8794 H   0  0  0  0  0  0  0  0  0  0  0  0
    3.6505   -0.0960   -1.6585 H   0  0  0  0  0  0  0  0  0  0  0  0
    2.6500    1.4326   -1.3347 H   0  0  0  0  0  0  0  0  0  0  0  0
  1  2  3  0
  2  3  1  0
  3  4  1  0
  4  5  1  0
  5  6  1  0
  6  7  1  0
  7  8  1  0
  8  9  1  0
  1 10  1  0
  3 11  1  0
  3 12  1  0
  5 13  1  0
  5 14  1  0
  6 15  1  0
  6 16  1  0
  7 17  1  0
  7 18  1  0
  9 19  1  0
  9 20  1  0
  9 21  1  0
M  END
