
     RDKit          3D

 17 17  0  0  0  0  0  0  0  0999 V2000
    0.3907   -2.2071    1.7804 C   0  0  0  0  0  0  0  0  0  0  0  0
   -0.1458   -1.0770    1.3556 C   0  0  0  0  0  0  0  0  0  0  0  0
   -0.7100    0.1402    0.9225 C   0  0  0  0  0  0  0  0  0  0  0  0
    0.1638    1.3331    0.8773 C   0  0  0  0  0  0  0  0  0  0  0  0
   -0.3162    2.6101    1.1736 O   0  0  0  0  0  0  0  0  0  0  0  0
   -0.3896    0.7112   -0.3995 C   0  0  0  0  0  0  0  0  0  0  0  0
    0.5918    0.0852   -1.3301 C   0  0  0  0  0  0  0  0  0  0  0  0
    0.2167   -1.3028   -1.7366 C   0  0  0  0  0  0  0  0  0  0  0  0
   -0.7903   -1.8243   -1.3473 O   0  0  0  0  0  0  0  0  0  0  0  0
    0.7865   -3.0642    2.0860 H   0  0  0  0  0  0  0  0  0  0  0  0
   -1.8114    0.2915    1.1977 H   0  0  0  0  0  0  0  0  0  0  0  0
    1.2421    1.2183    1.0621 H   0  0  0  0  0  0  0  0  0  0  0  0
   -1.2108    2.7937    0.8230 H   0  0  0  0  0  0  0  0  0  0  0  0
   -1.1820    1.3208   -0.9305 H   0  0  0  0  0  0  0  0  0  0  0  0
    1.6201    0.0887   -0.8805 H   0  0  0  0  0  0  0  0  0  0  0  0
    0.6438    0.6914   -2.2559 H   0  0  0  0  0  0  0  0  0  0  0  0
    0.9006   -1.8087   -2.3976 H   0  0  0  0  0  0  0  0  0  0  0  0
  1  2  3  0
  2  3  1  0
  3  4  1  0
  4  5  1  0
  4  6  1  0
  6  7  1  0
  7  8  1  0
  8  9  2  0
  6  3  1  0
  1 10  1  0
  3 11  1  0
  4 12  1  0
  5 13  1  0
  6 14  1  0
  7 15  1  0
  7 16  1  0
  8 17  1  0
M  END
