
     RDKit          3D

 15 15  0  0  0  0  0  0  0  0999 V2000
    2.6146    0.5903    0.7524 C   0  0  0  0  0  0  0  0  0  0  0  0
    1.6066    0.6275    0.0646 C   0  0  0  0  0  0  0  0  0  0  0  0
    0.3872    0.6639   -0.7511 C   0  0  0  0  0  0  0  0  0  0  0  0
   -0.1534   -0.7617   -0.9334 C   0  0  0  0  0  0  0  0  0  0  0  0
   -0.7738   -1.2049    0.3875 C   0  0  0  0  0  0  0  0  0  0  0  0
   -1.8594   -0.3464    0.6719 O   0  0  0  0  0  0  0  0  0  0  0  0
   -1.6466    1.0237    0.5827 C   0  0  0  0  0  0  0  0  0  0  0  0
   -2.4830    1.8030    1.1537 O   0  0  0  0  0  0  0  0  0  0  0  0
   -0.5607    1.4822   -0.1062 O   0  0  0  0  0  0  0  0  0  0  0  0
    3.4917    0.5651    1.3484 H   0  0  0  0  0  0  0  0  0  0  0  0
    0.6195    1.1070   -1.7333 H   0  0  0  0  0  0  0  0  0  0  0  0
   -0.9150   -0.7870   -1.7109 H   0  0  0  0  0  0  0  0  0  0  0  0
    0.7356   -1.3878   -1.1277 H   0  0  0  0  0  0  0  0  0  0  0  0
   -1.1092   -2.2573    0.2595 H   0  0  0  0  0  0  0  0  0  0  0  0
    0.0460   -1.1176    1.1421 H   0  0  0  0  0  0  0  0  0  0  0  0
  1  2  3  0
  2  3  1  0
  3  4  1  0
  4  5  1  0
  5  6  1  0
  6  7  1  0
  7  8  2  0
  7  9  1  0
  9  3  1  0
  1 10  1  0
  3 11  1  0
  4 12  1  0
  4 13  1  0
  5 14  1  0
  5 15  1  0
M  END
