
     RDKit          3D

 21 21  0  0  0  0  0  0  0  0999 V2000
    2.8593    1.1515    0.9105 C   0  0  0  0  0  0  0  0  0  0  0  0
    2.1790    0.2991    0.4496 C   0  0  0  0  0  0  0  0  0  0  0  0
    1.3324   -0.7457   -0.1437 C   0  0  0  0  0  0  0  0  0  0  0  0
    1.1796   -0.5483   -1.6351 C   0  0  0  0  0  0  0  0  0  0  0  0
   -0.0004   -0.8183    0.5510 C   0  0  0  0  0  0  0  0  0  0  0  0
   -0.7886    0.4504    0.4849 C   0  0  0  0  0  0  0  0  0  0  0  0
   -2.1089    0.2873    1.2083 C   0  0  0  0  0  0  0  0  0  0  0  0
   -2.6435    1.1972    0.2658 O   0  0  0  0  0  0  0  0  0  0  0  0
   -1.7617    0.5858   -0.6574 C   0  0  0  0  0  0  0  0  0  0  0  0
    3.4684    1.9196    1.3446 H   0  0  0  0  0  0  0  0  0  0  0  0
    1.8157   -1.7468    0.0178 H   0  0  0  0  0  0  0  0  0  0  0  0
    0.0837   -0.5451   -1.8449 H   0  0  0  0  0  0  0  0  0  0  0  0
    1.5987   -1.4141   -2.1818 H   0  0  0  0  0  0  0  0  0  0  0  0
    1.6134    0.4161   -1.9718 H   0  0  0  0  0  0  0  0  0  0  0  0
    0.1875   -1.0428    1.6216 H   0  0  0  0  0  0  0  0  0  0  0  0
   -0.5539   -1.6634    0.0988 H   0  0  0  0  0  0  0  0  0  0  0  0
   -0.2616    1.3848    0.6534 H   0  0  0  0  0  0  0  0  0  0  0  0
   -2.0865    0.6489    2.2351 H   0  0  0  0  0  0  0  0  0  0  0  0
   -2.4998   -0.7461    1.0743 H   0  0  0  0  0  0  0  0  0  0  0  0
   -1.4397    1.3004   -1.4220 H   0  0  0  0  0  0  0  0  0  0  0  0
   -2.1729   -0.3707   -1.0591 H   0  0  0  0  0  0  0  0  0  0  0  0
  1  2  3  0
  2  3  1  0
  3  4  1  0
  3  5  1  0
  5  6  1  0
  6  7  1  0
  7  8  1  0
  8  9  1  0
  9  6  1  0
  1 10  1  0
  3 11  1  0
  4 12  1  0
  4 13  1  0
  4 14  1  0
  5 15  1  0
  5 16  1  0
  6 17  1  0
  7 18  1  0
  7 19  1  0
  9 20  1  0
  9 21  1  0
M  END
