
     RDKit          3D

 16 15  0  0  0  0  0  0  0  0999 V2000
   -0.2702    2.9614   -0.1029 C   0  0  0  0  0  0  0  0  0  0  0  0
   -0.2603    1.7666   -0.2585 C   0  0  0  0  0  0  0  0  0  0  0  0
   -0.2437    0.2864   -0.4255 C   0  0  0  0  0  0  0  0  0  0  0  0
   -1.1408   -0.2406    0.6681 C   0  0  0  0  0  0  0  0  0  0  0  0
   -1.2473   -1.6188    0.6625 O   0  0  0  0  0  0  0  0  0  0  0  0
    1.1870   -0.1713   -0.2954 C   0  0  0  0  0  0  0  0  0  0  0  0
    1.3668   -1.6272   -0.4481 C   0  0  0  0  0  0  0  0  0  0  0  0
    2.4601   -2.1207   -0.3295 O   0  0  0  0  0  0  0  0  0  0  0  0
   -0.2659    4.0244    0.0221 H   0  0  0  0  0  0  0  0  0  0  0  0
   -0.6290    0.0659   -1.4289 H   0  0  0  0  0  0  0  0  0  0  0  0
   -2.1541    0.1786    0.4994 H   0  0  0  0  0  0  0  0  0  0  0  0
   -0.7453    0.1067    1.6486 H   0  0  0  0  0  0  0  0  0  0  0  0
   -1.9518   -1.8635    1.3121 H   0  0  0  0  0  0  0  0  0  0  0  0
    1.7845    0.3870   -1.0435 H   0  0  0  0  0  0  0  0  0  0  0  0
    1.5860    0.1136    0.7038 H   0  0  0  0  0  0  0  0  0  0  0  0
    0.5239   -2.2485   -0.6651 H   0  0  0  0  0  0  0  0  0  0  0  0
  1  2  3  0
  2  3  1  0
  3  4  1  0
  4  5  1  0
  3  6  1  0
  6  7  1  0
  7  8  2  0
  1  9  1  0
  3 10  1  0
  4 11  1  0
  4 12  1  0
  5 13  1  0
  6 14  1  0
  6 15  1  0
  7 16  1  0
M  END
