
     RDKit          3D

 15 15  0  0  0  0  0  0  0  0999 V2000
    3.6072   -0.4707    2.1886 C   0  0  0  0  0  0  0  0  0  0  0  0
    2.7530   -0.3668    1.6097 C   0  0  0  0  0  0  0  0  0  0  0  0
    1.4967   -0.2009    0.7567 C   0  0  0  0  0  0  0  0  0  0  0  0
    0.7339   -0.0953    0.2283 C   0  0  0  0  0  0  0  0  0  0  0  0
   -0.3964    0.0822   -0.5690 C   0  0  0  0  0  0  0  0  0  0  0  0
   -1.0487   -1.3589   -0.8683 C   0  0  0  0  0  0  0  0  0  0  0  0
   -2.0630   -1.5335   -1.3972 O   0  0  0  0  0  0  0  0  0  0  0  0
   -1.5077    0.8798    0.2023 C   0  0  0  0  0  0  0  0  0  0  0  0
   -1.2509    1.0907   -1.2010 C   0  0  0  0  0  0  0  0  0  0  0  0
    4.7219   -0.6259    2.9624 H   0  0  0  0  0  0  0  0  0  0  0  0
   -0.4157   -2.1469   -0.5084 H   0  0  0  0  0  0  0  0  0  0  0  0
   -2.3805    0.3257    0.5694 H   0  0  0  0  0  0  0  0  0  0  0  0
   -1.1683    1.6523    0.9187 H   0  0  0  0  0  0  0  0  0  0  0  0
   -0.9399    2.0544   -1.6095 H   0  0  0  0  0  0  0  0  0  0  0  0
   -2.1416    0.7139   -1.8674 H   0  0  0  0  0  0  0  0  0  0  0  0
  1  2  3  0
  2  3  1  0
  3  4  3  0
  4  5  1  0
  5  6  1  0
  6  7  2  0
  5  8  1  0
  8  9  1  0
  9  5  1  0
  1 10  1  0
  6 11  1  0
  8 12  1  0
  8 13  1  0
  9 14  1  0
  9 15  1  0
M  END
