
     RDKit          3D

 19 20  0  0  0  0  0  0  0  0999 V2000
    2.6272    1.1124    0.9193 C   0  0  0  0  0  0  0  0  0  0  0  0
    1.8340    0.4008    0.3487 C   0  0  0  0  0  0  0  0  0  0  0  0
    0.8665   -0.4483   -0.3644 C   0  0  0  0  0  0  0  0  0  0  0  0
   -0.3620    0.0988   -0.6152 O   0  0  0  0  0  0  0  0  0  0  0  0
   -1.0734    0.4806    0.4969 C   0  0  0  0  0  0  0  0  0  0  0  0
   -1.8955    1.7370    0.3291 C   0  0  0  0  0  0  0  0  0  0  0  0
   -2.5382    0.3725    0.4379 C   0  0  0  0  0  0  0  0  0  0  0  0
    1.4545   -1.2522   -1.5293 C   0  0  0  0  0  0  0  0  0  0  0  0
    1.0546   -1.9342   -0.2752 C   0  0  0  0  0  0  0  0  0  0  0  0
    3.3249    1.7583    1.4157 H   0  0  0  0  0  0  0  0  0  0  0  0
   -0.6082    0.3199    1.4908 H   0  0  0  0  0  0  0  0  0  0  0  0
   -1.9665    2.4277    1.2012 H   0  0  0  0  0  0  0  0  0  0  0  0
   -1.9846    2.1874   -0.6882 H   0  0  0  0  0  0  0  0  0  0  0  0
   -3.1724    0.2569    1.3461 H   0  0  0  0  0  0  0  0  0  0  0  0
   -2.9758   -0.0834   -0.4772 H   0  0  0  0  0  0  0  0  0  0  0  0
    2.5331   -1.0876   -1.7661 H   0  0  0  0  0  0  0  0  0  0  0  0
    0.7737   -1.4533   -2.3999 H   0  0  0  0  0  0  0  0  0  0  0  0
    1.9135   -2.2761    0.3615 H   0  0  0  0  0  0  0  0  0  0  0  0
    0.1946   -2.6174   -0.2318 H   0  0  0  0  0  0  0  0  0  0  0  0
  1  2  3  0
  2  3  1  0
  3  4  1  0
  4  5  1  0
  5  6  1  0
  6  7  1  0
  3  8  1  0
  8  9  1  0
  9  3  1  0
  7  5  1  0
  1 10  1  0
  5 11  1  0
  6 12  1  0
  6 13  1  0
  7 14  1  0
  7 15  1  0
  8 16  1  0
  8 17  1  0
  9 18  1  0
  9 19  1  0
M  END
