
     RDKit          3D

 13 13  0  0  0  0  0  0  0  0999 V2000
    2.7665    0.5621    0.3358 C   0  0  0  0  0  0  0  0  0  0  0  0
    1.6952    0.1215    0.0000 C   0  0  0  0  0  0  0  0  0  0  0  0
    0.3816   -0.4102   -0.4356 C   0  0  0  0  0  0  0  0  0  0  0  0
   -0.2107   -1.2701    0.6037 C   0  0  0  0  0  0  0  0  0  0  0  0
   -0.1402   -2.4993    0.8458 O   0  0  0  0  0  0  0  0  0  0  0  0
   -0.8299   -0.1610    1.1387 O   0  0  0  0  0  0  0  0  0  0  0  0
   -0.7224    0.5495   -0.0749 C   0  0  0  0  0  0  0  0  0  0  0  0
   -1.9362    0.4536   -0.8852 C   0  0  0  0  0  0  0  0  0  0  0  0
   -1.9918    1.0146   -1.9576 O   0  0  0  0  0  0  0  0  0  0  0  0
    3.7042    0.9431    0.6479 H   0  0  0  0  0  0  0  0  0  0  0  0
    0.3894   -0.7890   -1.4569 H   0  0  0  0  0  0  0  0  0  0  0  0
   -0.3236    1.5940    0.0446 H   0  0  0  0  0  0  0  0  0  0  0  0
   -2.7820   -0.1087   -0.5427 H   0  0  0  0  0  0  0  0  0  0  0  0
  1  2  3  0
  2  3  1  0
  3  4  1  0
  4  5  2  0
  4  6  1  0
  6  7  1  0
  7  8  1  0
  8  9  2  0
  7  3  1  0
  1 10  1  0
  3 11  1  0
  7 12  1  0
  8 13  1  0
M  END
