
     RDKit          3D

 17 17  0  0  0  0  0  0  0  0999 V2000
    3.4540    2.2103    0.6826 C   0  0  0  0  0  0  0  0  0  0  0  0
    2.6762    0.7478    0.4037 C   0  0  0  0  0  0  0  0  0  0  0  0
    2.1804   -0.2005    0.2049 C   0  0  0  0  0  0  0  0  0  0  0  0
    1.8039   -0.7604   -1.1490 O   0  0  0  0  0  0  0  0  0  0  0  0
    0.7384   -0.2030   -0.3655 C   0  0  0  0  0  0  0  0  0  0  0  0
   -0.5406   -0.3631   -0.8388 C   0  0  0  0  0  0  0  0  0  0  0  0
   -1.6369   -0.9481    0.2174 C   0  0  0  0  0  0  0  0  0  0  0  0
   -3.0050   -0.6792    0.0289 C   0  0  0  0  0  0  0  0  0  0  0  0
   -1.0359   -1.5621    1.1122 O   0  0  0  0  0  0  0  0  0  0  0  0
    3.9927    3.1942    0.8777 H   0  0  0  0  0  0  0  0  0  0  0  0
    2.6880   -1.2200    0.5827 H   0  0  0  0  0  0  0  0  0  0  0  0
    0.9867    1.0562   -1.2924 H   0  0  0  0  0  0  0  0  0  0  0  0
   -0.9828   -0.7580   -1.7044 H   0  0  0  0  0  0  0  0  0  0  0  0
   -1.0041    0.7838   -0.6215 H   0  0  0  0  0  0  0  0  0  0  0  0
   -3.7278   -1.3433    0.4495 H   0  0  0  0  0  0  0  0  0  0  0  0
   -3.2444   -0.2744   -0.9802 H   0  0  0  0  0  0  0  0  0  0  0  0
   -3.3427    0.3198    0.7311 H   0  0  0  0  0  0  0  0  0  0  0  0
  1  2  3  0
  2  3  1  0
  3  4  1  0
  4  5  1  0
  5  6  1  0
  6  7  1  0
  7  8  1  0
  7  9  2  0
  5  3  1  0
  1 10  1  0
  3 11  1  0
  5 12  1  0
  6 13  1  0
  6 14  1  0
  8 15  1  0
  8 16  1  0
  8 17  1  0
M  END
