
     RDKit          3D

 21 20  0  0  0  0  0  0  0  0999 V2000
    1.4785   -2.3254    2.4004 C   0  0  0  0  0  0  0  0  0  0  0  0
    1.0323   -1.6471    1.3968 C   0  0  0  0  0  0  0  0  0  0  0  0
    0.5716   -0.9042    0.3255 C   0  0  0  0  0  0  0  0  0  0  0  0
    1.4559    0.3037    0.0323 C   0  0  0  0  0  0  0  0  0  0  0  0
    0.8445    0.9678   -1.0507 O   0  0  0  0  0  0  0  0  0  0  0  0
    1.5397    2.1114   -1.4201 C   0  0  0  0  0  0  0  0  0  0  0  0
   -0.6853   -0.3230    0.6416 O   0  0  0  0  0  0  0  0  0  0  0  0
   -1.6349   -0.6396   -0.3106 C   0  0  0  0  0  0  0  0  0  0  0  0
   -2.9314    0.0248    0.1111 C   0  0  0  0  0  0  0  0  0  0  0  0
    1.8404   -2.9021    3.2239 H   0  0  0  0  0  0  0  0  0  0  0  0
    0.4390   -1.4798   -0.6330 H   0  0  0  0  0  0  0  0  0  0  0  0
    1.3932    0.9792    0.8994 H   0  0  0  0  0  0  0  0  0  0  0  0
    2.4903   -0.0019   -0.1993 H   0  0  0  0  0  0  0  0  0  0  0  0
    1.0274    2.6055   -2.2799 H   0  0  0  0  0  0  0  0  0  0  0  0
    2.6173    1.9366   -1.6194 H   0  0  0  0  0  0  0  0  0  0  0  0
    1.4347    2.8104   -0.5343 H   0  0  0  0  0  0  0  0  0  0  0  0
   -1.7772   -1.7425   -0.2858 H   0  0  0  0  0  0  0  0  0  0  0  0
   -1.3475   -0.3448   -1.3400 H   0  0  0  0  0  0  0  0  0  0  0  0
   -3.2297   -0.3279    1.1014 H   0  0  0  0  0  0  0  0  0  0  0  0
   -2.8155    1.1448    0.1350 H   0  0  0  0  0  0  0  0  0  0  0  0
   -3.7434   -0.2460   -0.5943 H   0  0  0  0  0  0  0  0  0  0  0  0
  1  2  3  0
  2  3  1  0
  3  4  1  0
  4  5  1  0
  5  6  1  0
  3  7  1  0
  7  8  1  0
  8  9  1  0
  1 10  1  0
  3 11  1  0
  4 12  1  0
  4 13  1  0
  6 14  1  0
  6 15  1  0
  6 16  1  0
  8 17  1  0
  8 18  1  0
  9 19  1  0
  9 20  1  0
  9 21  1  0
M  END
