
     RDKit          3D

 14 15  0  0  0  0  0  0  0  0999 V2000
    0.3526    2.3497   -1.0799 C   0  0  0  0  0  0  0  0  0  0  0  0
   -0.0125    1.1771   -1.0265 C   0  0  0  0  0  0  0  0  0  0  0  0
   -0.4379   -0.2217   -0.9836 C   0  0  0  0  0  0  0  0  0  0  0  0
    0.3733   -1.1996   -0.2383 C   0  0  0  0  0  0  0  0  0  0  0  0
    1.1533   -0.8919    0.8523 O   0  0  0  0  0  0  0  0  0  0  0  0
    0.4765    0.0310    1.6083 C   0  0  0  0  0  0  0  0  0  0  0  0
   -0.8429   -0.1826    1.4222 O   0  0  0  0  0  0  0  0  0  0  0  0
   -1.0161   -0.8131    0.2390 C   0  0  0  0  0  0  0  0  0  0  0  0
    0.6838    3.3530   -1.1212 H   0  0  0  0  0  0  0  0  0  0  0  0
   -0.9059   -0.6172   -1.9245 H   0  0  0  0  0  0  0  0  0  0  0  0
    0.4658   -2.2218   -0.6878 H   0  0  0  0  0  0  0  0  0  0  0  0
    0.8169    1.0746    1.4117 H   0  0  0  0  0  0  0  0  0  0  0  0
    0.7003   -0.2328    2.6891 H   0  0  0  0  0  0  0  0  0  0  0  0
   -1.8071   -1.6046    0.1550 H   0  0  0  0  0  0  0  0  0  0  0  0
  1  2  3  0
  2  3  1  0
  3  4  1  0
  4  5  1  0
  5  6  1  0
  6  7  1  0
  7  8  1  0
  8  3  1  0
  8  4  1  0
  1  9  1  0
  3 10  1  0
  4 11  1  0
  6 12  1  0
  6 13  1  0
  8 14  1  0
M  END
