
     RDKit          3D

 19 20  0  0  0  0  0  0  0  0999 V2000
    1.6844   -2.2314   -0.1927 C   0  0  0  0  0  0  0  0  0  0  0  0
    0.7049   -1.5795   -0.3185 C   0  0  0  0  0  0  0  0  0  0  0  0
   -0.4503   -0.8166   -0.4625 C   0  0  0  0  0  0  0  0  0  0  0  0
   -0.2300    0.2915   -1.4619 C   0  0  0  0  0  0  0  0  0  0  0  0
    1.1428    0.7357   -1.0599 C   0  0  0  0  0  0  0  0  0  0  0  0
    1.0173    0.8528    0.2747 C   0  0  0  0  0  0  0  0  0  0  0  0
   -0.3577    0.4028    0.5152 C   0  0  0  0  0  0  0  0  0  0  0  0
   -0.8963    0.0874    1.8323 C   0  0  0  0  0  0  0  0  0  0  0  0
   -1.1022    1.1322   -0.5407 C   0  0  0  0  0  0  0  0  0  0  0  0
    2.6672   -2.9019   -0.0795 H   0  0  0  0  0  0  0  0  0  0  0  0
   -1.4327   -1.2871   -0.4386 H   0  0  0  0  0  0  0  0  0  0  0  0
   -0.4667    0.1449   -2.4671 H   0  0  0  0  0  0  0  0  0  0  0  0
    1.9441    0.8899   -1.7370 H   0  0  0  0  0  0  0  0  0  0  0  0
    1.7805    1.2068    0.9739 H   0  0  0  0  0  0  0  0  0  0  0  0
   -0.1637    0.3501    2.6139 H   0  0  0  0  0  0  0  0  0  0  0  0
   -1.8229    0.6133    2.0185 H   0  0  0  0  0  0  0  0  0  0  0  0
   -1.0619   -1.0205    1.8601 H   0  0  0  0  0  0  0  0  0  0  0  0
   -0.7663    2.1856   -0.6702 H   0  0  0  0  0  0  0  0  0  0  0  0
   -2.1904    0.9441   -0.6601 H   0  0  0  0  0  0  0  0  0  0  0  0
  1  2  3  0
  2  3  1  0
  3  4  1  0
  4  5  1  0
  5  6  2  0
  6  7  1  0
  7  8  1  0
  7  9  1  0
  7  3  1  0
  9  4  1  0
  1 10  1  0
  3 11  1  0
  4 12  1  0
  5 13  1  0
  6 14  1  0
  8 15  1  0
  8 16  1  0
  8 17  1  0
  9 18  1  0
  9 19  1  0
M  END
