
     RDKit          3D

 12 11  0  0  0  0  0  0  0  0999 V2000
    3.2336    0.5091    0.7408 C   0  0  0  0  0  0  0  0  0  0  0  0
    2.1077    0.0906    0.6639 C   0  0  0  0  0  0  0  0  0  0  0  0
    0.7374   -0.3981    0.5873 C   0  0  0  0  0  0  0  0  0  0  0  0
    0.4546   -1.5956    0.8277 O   0  0  0  0  0  0  0  0  0  0  0  0
   -0.3053    0.5470    0.2214 C   0  0  0  0  0  0  0  0  0  0  0  0
   -0.0286    1.7582   -0.0254 O   0  0  0  0  0  0  0  0  0  0  0  0
   -1.7102    0.0931    0.1347 C   0  0  0  0  0  0  0  0  0  0  0  0
   -1.7837   -1.2621    0.4532 O   0  0  0  0  0  0  0  0  0  0  0  0
    4.2363    0.8836    0.8258 H   0  0  0  0  0  0  0  0  0  0  0  0
   -2.2997    0.6514    0.8897 H   0  0  0  0  0  0  0  0  0  0  0  0
   -2.1247    0.1929   -0.8893 H   0  0  0  0  0  0  0  0  0  0  0  0
   -2.5174   -1.4701    1.0915 H   0  0  0  0  0  0  0  0  0  0  0  0
  1  2  3  0
  2  3  1  0
  3  4  2  0
  3  5  1  0
  5  6  2  0
  5  7  1  0
  7  8  1  0
  1  9  1  0
  7 10  1  0
  7 11  1  0
  8 12  1  0
M  END
