
     RDKit          3D

 21 22  0  0  0  0  0  0  0  0999 V2000
    3.6186    0.0760    0.0082 C   0  0  0  0  0  0  0  0  0  0  0  0
    2.5652   -0.4347   -0.2945 C   0  0  0  0  0  0  0  0  0  0  0  0
    1.2993   -1.0731   -0.6730 C   0  0  0  0  0  0  0  0  0  0  0  0
    0.2476   -0.5260    0.2513 C   0  0  0  0  0  0  0  0  0  0  0  0
   -1.1365   -1.1308   -0.0552 C   0  0  0  0  0  0  0  0  0  0  0  0
   -1.9072    0.1511   -0.2409 C   0  0  0  0  0  0  0  0  0  0  0  0
   -0.9652    0.9100   -1.1864 C   0  0  0  0  0  0  0  0  0  0  0  0
   -0.0585    0.9167    0.0365 C   0  0  0  0  0  0  0  0  0  0  0  0
   -1.3644    1.0519    0.8402 C   0  0  0  0  0  0  0  0  0  0  0  0
    4.5527    0.5375    0.2657 H   0  0  0  0  0  0  0  0  0  0  0  0
    1.0884   -0.7563   -1.7101 H   0  0  0  0  0  0  0  0  0  0  0  0
    1.3971   -2.1528   -0.5547 H   0  0  0  0  0  0  0  0  0  0  0  0
    0.4957   -0.7842    1.2794 H   0  0  0  0  0  0  0  0  0  0  0  0
   -1.1225   -1.6795   -0.9985 H   0  0  0  0  0  0  0  0  0  0  0  0
   -1.5147   -1.6917    0.8095 H   0  0  0  0  0  0  0  0  0  0  0  0
   -2.9364    0.1384   -0.4649 H   0  0  0  0  0  0  0  0  0  0  0  0
   -1.3360    1.9020   -1.4920 H   0  0  0  0  0  0  0  0  0  0  0  0
   -0.6577    0.2523   -1.9990 H   0  0  0  0  0  0  0  0  0  0  0  0
    0.6665    1.6709    0.1406 H   0  0  0  0  0  0  0  0  0  0  0  0
   -1.1845    0.5533    1.8256 H   0  0  0  0  0  0  0  0  0  0  0  0
   -1.7478    2.0691    0.8731 H   0  0  0  0  0  0  0  0  0  0  0  0
  1  2  3  0
  2  3  1  0
  3  4  1  0
  4  5  1  0
  5  6  1  0
  6  7  1  0
  7  8  1  0
  8  9  1  0
  8  4  1  0
  9  6  1  0
  1 10  1  0
  3 11  1  0
  3 12  1  0
  4 13  1  0
  5 14  1  0
  5 15  1  0
  6 16  1  0
  7 17  1  0
  7 18  1  0
  8 19  1  0
  9 20  1  0
  9 21  1  0
M  END
