
     RDKit          3D

 17 16  0  0  0  0  0  0  0  0999 V2000
   -2.8552    0.8604    0.0818 C   0  0  0  0  0  0  0  0  0  0  0  0
   -1.8182    0.2679    0.2295 C   0  0  0  0  0  0  0  0  0  0  0  0
   -0.5682   -0.4624    0.4295 C   0  0  0  0  0  0  0  0  0  0  0  0
   -0.5740   -1.0362    1.7169 O   0  0  0  0  0  0  0  0  0  0  0  0
    0.5884    0.4020    0.2330 C   0  0  0  0  0  0  0  0  0  0  0  0
    1.5618    1.1435    0.0851 C   0  0  0  0  0  0  0  0  0  0  0  0
    2.7319    2.0057   -0.0953 C   0  0  0  0  0  0  0  0  0  0  0  0
   -0.4466   -1.6056   -0.5760 C   0  0  0  0  0  0  0  0  0  0  0  0
   -1.5305   -2.4697   -0.4312 O   0  0  0  0  0  0  0  0  0  0  0  0
   -3.7956    1.3779   -0.0458 H   0  0  0  0  0  0  0  0  0  0  0  0
   -1.0868   -0.4218    2.2921 H   0  0  0  0  0  0  0  0  0  0  0  0
    2.6980    2.4772   -1.1062 H   0  0  0  0  0  0  0  0  0  0  0  0
    2.7182    2.8667    0.6275 H   0  0  0  0  0  0  0  0  0  0  0  0
    3.6404    1.4162    0.0851 H   0  0  0  0  0  0  0  0  0  0  0  0
    0.4799   -2.1814   -0.3915 H   0  0  0  0  0  0  0  0  0  0  0  0
   -0.4993   -1.2120   -1.6123 H   0  0  0  0  0  0  0  0  0  0  0  0
   -1.2443   -3.4282   -0.4645 H   0  0  0  0  0  0  0  0  0  0  0  0
  1  2  3  0
  2  3  1  0
  3  4  1  0
  3  5  1  0
  5  6  3  0
  6  7  1  0
  3  8  1  0
  8  9  1  0
  1 10  1  0
  4 11  1  0
  7 12  1  0
  7 13  1  0
  7 14  1  0
  8 15  1  0
  8 16  1  0
  9 17  1  0
M  END
