
     RDKit          3D

 14 13  0  0  0  0  0  0  0  0999 V2000
   -2.5055    0.0726    0.6360 C   0  0  0  0  0  0  0  0  0  0  0  0
   -1.4005    0.4763    0.3559 C   0  0  0  0  0  0  0  0  0  0  0  0
   -0.0498    0.9865    0.0332 C   0  0  0  0  0  0  0  0  0  0  0  0
    0.1205    2.1857    0.7128 O   0  0  0  0  0  0  0  0  0  0  0  0
    0.9876   -0.0101    0.3608 C   0  0  0  0  0  0  0  0  0  0  0  0
    1.8491    0.3003    1.1555 O   0  0  0  0  0  0  0  0  0  0  0  0
    0.9588   -1.3370   -0.2704 C   0  0  0  0  0  0  0  0  0  0  0  0
   -0.0991   -1.5015   -1.1468 O   0  0  0  0  0  0  0  0  0  0  0  0
   -3.4802   -0.2789    0.8642 H   0  0  0  0  0  0  0  0  0  0  0  0
   -0.0639    1.2361   -1.0606 H   0  0  0  0  0  0  0  0  0  0  0  0
    0.7263    2.7446    0.1641 H   0  0  0  0  0  0  0  0  0  0  0  0
    1.8963   -1.5249   -0.8662 H   0  0  0  0  0  0  0  0  0  0  0  0
    0.9171   -2.1733    0.4606 H   0  0  0  0  0  0  0  0  0  0  0  0
    0.1434   -1.1763   -2.0480 H   0  0  0  0  0  0  0  0  0  0  0  0
  1  2  3  0
  2  3  1  0
  3  4  1  0
  3  5  1  0
  5  6  2  0
  5  7  1  0
  7  8  1  0
  1  9  1  0
  3 10  1  0
  4 11  1  0
  7 12  1  0
  7 13  1  0
  8 14  1  0
M  END
