
     RDKit          3D

 23 23  0  0  0  0  0  0  0  0999 V2000
   -2.6133    2.1745   -0.6437 C   0  0  0  0  0  0  0  0  0  0  0  0
   -1.7288    1.2018   -0.1524 C   0  0  0  0  0  0  0  0  0  0  0  0
   -0.8510    0.2455    0.3194 C   0  0  0  0  0  0  0  0  0  0  0  0
   -1.0888   -1.0622   -0.4404 C   0  0  0  0  0  0  0  0  0  0  0  0
   -2.5440   -1.4607   -0.1224 C   0  0  0  0  0  0  0  0  0  0  0  0
    0.5712    0.7607   -0.0754 C   0  0  0  0  0  0  0  0  0  0  0  0
    1.6672   -0.1908    0.1523 C   0  0  0  0  0  0  0  0  0  0  0  0
    3.0596    0.4109   -0.1786 C   0  0  0  0  0  0  0  0  0  0  0  0
    2.6642   -0.1407    1.1977 C   0  0  0  0  0  0  0  0  0  0  0  0
   -3.2081    2.8527   -0.9848 H   0  0  0  0  0  0  0  0  0  0  0  0
   -0.9032    0.0636    1.3898 H   0  0  0  0  0  0  0  0  0  0  0  0
   -0.4495   -1.8865   -0.1876 H   0  0  0  0  0  0  0  0  0  0  0  0
   -1.0932   -0.8828   -1.5543 H   0  0  0  0  0  0  0  0  0  0  0  0
   -2.8437   -2.3905   -0.5890 H   0  0  0  0  0  0  0  0  0  0  0  0
   -3.2498   -0.6579   -0.4355 H   0  0  0  0  0  0  0  0  0  0  0  0
   -2.6392   -1.5678    1.0011 H   0  0  0  0  0  0  0  0  0  0  0  0
    0.4748    1.1580   -1.0857 H   0  0  0  0  0  0  0  0  0  0  0  0
    0.7182    1.6819    0.5845 H   0  0  0  0  0  0  0  0  0  0  0  0
    1.5282   -1.1354   -0.4890 H   0  0  0  0  0  0  0  0  0  0  0  0
    3.0853    1.5435   -0.2616 H   0  0  0  0  0  0  0  0  0  0  0  0
    3.7833   -0.2128   -0.7660 H   0  0  0  0  0  0  0  0  0  0  0  0
    3.1188   -1.0922    1.5400 H   0  0  0  0  0  0  0  0  0  0  0  0
    2.5417    0.5872    2.0366 H   0  0  0  0  0  0  0  0  0  0  0  0
  1  2  3  0
  2  3  1  0
  3  4  1  0
  4  5  1  0
  3  6  1  0
  6  7  1  0
  7  8  1  0
  8  9  1  0
  9  7  1  0
  1 10  1  0
  3 11  1  0
  4 12  1  0
  4 13  1  0
  5 14  1  0
  5 15  1  0
  5 16  1  0
  6 17  1  0
  6 18  1  0
  7 19  1  0
  8 20  1  0
  8 21  1  0
  9 22  1  0
  9 23  1  0
M  END
