
     RDKit          3D

 14 13  0  0  0  0  0  0  0  0999 V2000
    2.3950   -0.7060    1.2358 C   0  0  0  0  0  0  0  0  0  0  0  0
    1.9085   -0.1797    0.5986 C   0  0  0  0  0  0  0  0  0  0  0  0
    1.3966    0.3556   -0.0441 C   0  0  0  0  0  0  0  0  0  0  0  0
    0.1008    0.1909   -0.9751 C   0  0  0  0  0  0  0  0  0  0  0  0
    0.2566   -0.5043   -1.9905 O   0  0  0  0  0  0  0  0  0  0  0  0
   -1.0913    0.9537   -0.5236 C   0  0  0  0  0  0  0  0  0  0  0  0
   -2.0488    0.0419    0.1702 C   0  0  0  0  0  0  0  0  0  0  0  0
   -3.0029   -0.8341    0.8605 C   0  0  0  0  0  0  0  0  0  0  0  0
    3.0143   -1.3797    2.0722 H   0  0  0  0  0  0  0  0  0  0  0  0
    1.1738    1.6471    0.1263 H   0  0  0  0  0  0  0  0  0  0  0  0
    2.1169    0.8601   -1.1084 H   0  0  0  0  0  0  0  0  0  0  0  0
   -1.6886    0.9841   -1.5767 H   0  0  0  0  0  0  0  0  0  0  0  0
   -1.0107    1.7858   -0.0852 H   0  0  0  0  0  0  0  0  0  0  0  0
   -3.5202   -1.3189    1.2399 H   0  0  0  0  0  0  0  0  0  0  0  0
  1  2  3  0
  2  3  1  0
  3  4  1  0
  4  5  2  0
  4  6  1  0
  6  7  1  0
  7  8  3  0
  1  9  1  0
  3 10  1  0
  3 11  1  0
  6 12  1  0
  6 13  1  0
  8 14  1  0
M  END
