
     RDKit          3D

 21 22  0  0  0  0  0  0  0  0999 V2000
   -2.2726    1.1272    1.7907 C   0  0  0  0  0  0  0  0  0  0  0  0
   -1.5983    0.4191    1.0436 C   0  0  0  0  0  0  0  0  0  0  0  0
   -0.7779   -0.4548    0.1587 C   0  0  0  0  0  0  0  0  0  0  0  0
   -0.6025    0.2601   -1.1653 C   0  0  0  0  0  0  0  0  0  0  0  0
    0.2444    1.1844   -0.2660 C   0  0  0  0  0  0  0  0  0  0  0  0
    1.2547    1.9915   -1.0451 C   0  0  0  0  0  0  0  0  0  0  0  0
    0.7789   -0.1463    0.1792 C   0  0  0  0  0  0  0  0  0  0  0  0
    0.1622   -1.2295    0.8842 C   0  0  0  0  0  0  0  0  0  0  0  0
    0.2789   -2.7027    0.4575 C   0  0  0  0  0  0  0  0  0  0  0  0
   -2.8420    1.7135    2.4356 H   0  0  0  0  0  0  0  0  0  0  0  0
    0.0459   -0.2333   -1.8998 H   0  0  0  0  0  0  0  0  0  0  0  0
   -1.5235    0.7147   -1.5253 H   0  0  0  0  0  0  0  0  0  0  0  0
   -0.2910    1.8114    0.4253 H   0  0  0  0  0  0  0  0  0  0  0  0
    1.7824    1.2424   -1.7071 H   0  0  0  0  0  0  0  0  0  0  0  0
    0.7543    2.6781   -1.7576 H   0  0  0  0  0  0  0  0  0  0  0  0
    2.0086    2.4630   -0.4140 H   0  0  0  0  0  0  0  0  0  0  0  0
    1.3344   -0.5594   -0.7293 H   0  0  0  0  0  0  0  0  0  0  0  0
    0.2579   -1.1835    2.0093 H   0  0  0  0  0  0  0  0  0  0  0  0
   -0.6325   -3.2177    0.7568 H   0  0  0  0  0  0  0  0  0  0  0  0
    1.1411   -3.1232    0.9978 H   0  0  0  0  0  0  0  0  0  0  0  0
    0.4967   -2.7550   -0.6293 H   0  0  0  0  0  0  0  0  0  0  0  0
  1  2  3  0
  2  3  1  0
  3  4  1  0
  4  5  1  0
  5  6  1  0
  5  7  1  0
  7  8  1  0
  8  9  1  0
  7  3  1  0
  8  3  1  0
  1 10  1  0
  4 11  1  0
  4 12  1  0
  5 13  1  0
  6 14  1  0
  6 15  1  0
  6 16  1  0
  7 17  1  0
  8 18  1  0
  9 19  1  0
  9 20  1  0
  9 21  1  0
M  END
