
     RDKit          3D

 18 18  0  0  0  0  0  0  0  0999 V2000
    1.6171    0.3014    2.4965 C   0  0  0  0  0  0  0  0  0  0  0  0
    0.2649    0.7872    1.3870 C   0  0  0  0  0  0  0  0  0  0  0  0
   -0.6558    1.1165    0.6041 C   0  0  0  0  0  0  0  0  0  0  0  0
   -0.6319    0.0493   -0.5229 C   0  0  0  0  0  0  0  0  0  0  0  0
   -1.3028   -1.2376   -0.2343 C   0  0  0  0  0  0  0  0  0  0  0  0
   -0.0155    0.4005   -1.8399 C   0  0  0  0  0  0  0  0  0  0  0  0
    0.8317   -0.3440   -0.8363 C   0  0  0  0  0  0  0  0  0  0  0  0
    1.7973    0.5087   -0.2501 O   0  0  0  0  0  0  0  0  0  0  0  0
    2.6990   -0.1018    3.3885 H   0  0  0  0  0  0  0  0  0  0  0  0
   -1.3947    1.6599    1.0735 H   0  0  0  0  0  0  0  0  0  0  0  0
   -1.3337   -0.0488    1.4618 H   0  0  0  0  0  0  0  0  0  0  0  0
   -2.3573   -0.9274    0.0992 H   0  0  0  0  0  0  0  0  0  0  0  0
   -0.8107   -1.7988    0.5997 H   0  0  0  0  0  0  0  0  0  0  0  0
   -1.5066   -1.8730   -1.1434 H   0  0  0  0  0  0  0  0  0  0  0  0
    0.2214    1.5377   -1.9150 H   0  0  0  0  0  0  0  0  0  0  0  0
   -0.3205    0.0077   -2.7666 H   0  0  0  0  0  0  0  0  0  0  0  0
    1.0904   -1.3796   -0.8485 H   0  0  0  0  0  0  0  0  0  0  0  0
    1.8078    1.3420   -0.7533 H   0  0  0  0  0  0  0  0  0  0  0  0
  1  2  3  0
  2  3  1  0
  3  4  1  0
  4  5  1  0
  4  6  1  0
  6  7  1  0
  7  8  1  0
  7  4  1  0
  1  9  1  0
  3 10  1  0
  3 11  1  0
  5 12  1  0
  5 13  1  0
  5 14  1  0
  6 15  1  0
  6 16  1  0
  7 17  1  0
  8 18  1  0
M  END
