
     RDKit          3D

 19 21  0  0  0  0  0  0  0  0999 V2000
    2.8260   -1.1187   -0.0287 C   0  0  0  0  0  0  0  0  0  0  0  0
    1.8260   -0.4661   -0.0175 C   0  0  0  0  0  0  0  0  0  0  0  0
    0.7057    0.2500   -0.0016 C   0  0  0  0  0  0  0  0  0  0  0  0
    0.5940    1.7398   -0.0425 C   0  0  0  0  0  0  0  0  0  0  0  0
   -0.8398    1.2418   -0.0191 C   0  0  0  0  0  0  0  0  0  0  0  0
   -0.3914    0.2179   -1.0165 C   0  0  0  0  0  0  0  0  0  0  0  0
   -1.1400   -1.0493   -0.7337 C   0  0  0  0  0  0  0  0  0  0  0  0
   -1.1255   -1.0221    0.8063 C   0  0  0  0  0  0  0  0  0  0  0  0
   -0.3630    0.2571    1.0173 C   0  0  0  0  0  0  0  0  0  0  0  0
    3.7379   -1.7053   -0.0214 H   0  0  0  0  0  0  0  0  0  0  0  0
    0.8446    2.2278   -0.9885 H   0  0  0  0  0  0  0  0  0  0  0  0
    0.9163    2.2580    0.8604 H   0  0  0  0  0  0  0  0  0  0  0  0
   -1.6672    1.7951   -0.0097 H   0  0  0  0  0  0  0  0  0  0  0  0
   -0.1959    0.5088   -2.0265 H   0  0  0  0  0  0  0  0  0  0  0  0
   -0.6461   -1.9425   -1.1202 H   0  0  0  0  0  0  0  0  0  0  0  0
   -2.1892   -0.9428   -1.0969 H   0  0  0  0  0  0  0  0  0  0  0  0
   -2.1557   -0.9924    1.2078 H   0  0  0  0  0  0  0  0  0  0  0  0
   -0.5539   -1.8586    1.2168 H   0  0  0  0  0  0  0  0  0  0  0  0
   -0.1829    0.6014    2.0141 H   0  0  0  0  0  0  0  0  0  0  0  0
  1  2  3  0
  2  3  1  0
  3  4  1  0
  4  5  1  0
  5  6  1  0
  6  7  1  0
  7  8  1  0
  8  9  1  0
  6  3  1  0
  9  3  1  0
  9  5  1  0
  1 10  1  0
  4 11  1  0
  4 12  1  0
  5 13  1  0
  6 14  1  0
  7 15  1  0
  7 16  1  0
  8 17  1  0
  8 18  1  0
  9 19  1  0
M  END
