
     RDKit          3D

 19 20  0  0  0  0  0  0  0  0999 V2000
   -1.6076    0.6369    2.1514 C   0  0  0  0  0  0  0  0  0  0  0  0
   -1.2185    0.0171    1.1756 C   0  0  0  0  0  0  0  0  0  0  0  0
   -0.7658   -0.7416   -0.0298 C   0  0  0  0  0  0  0  0  0  0  0  0
    0.6103   -1.2330    0.2095 C   0  0  0  0  0  0  0  0  0  0  0  0
    1.3363    0.1281    0.3056 C   0  0  0  0  0  0  0  0  0  0  0  0
    1.5635    0.4816    1.6070 O   0  0  0  0  0  0  0  0  0  0  0  0
    0.3783    1.1256   -0.3850 C   0  0  0  0  0  0  0  0  0  0  0  0
   -0.3369    0.1652   -1.2566 C   0  0  0  0  0  0  0  0  0  0  0  0
   -1.5432   -0.5409   -1.1796 C   0  0  0  0  0  0  0  0  0  0  0  0
   -1.9519    1.1873    2.9867 H   0  0  0  0  0  0  0  0  0  0  0  0
    1.0674   -1.8063   -0.5994 H   0  0  0  0  0  0  0  0  0  0  0  0
    0.7293   -1.7972    1.1456 H   0  0  0  0  0  0  0  0  0  0  0  0
    2.2412    0.1184   -0.3368 H   0  0  0  0  0  0  0  0  0  0  0  0
    2.5512    0.4127    1.7695 H   0  0  0  0  0  0  0  0  0  0  0  0
   -0.2285    1.6678    0.3393 H   0  0  0  0  0  0  0  0  0  0  0  0
    0.9695    1.8622   -0.9897 H   0  0  0  0  0  0  0  0  0  0  0  0
    0.4367   -0.2957   -1.9522 H   0  0  0  0  0  0  0  0  0  0  0  0
   -2.5033    0.0375   -1.1093 H   0  0  0  0  0  0  0  0  0  0  0  0
   -1.7280   -1.4258   -1.8524 H   0  0  0  0  0  0  0  0  0  0  0  0
  1  2  3  0
  2  3  1  0
  3  4  1  0
  4  5  1  0
  5  6  1  0
  5  7  1  0
  7  8  1  0
  8  9  1  0
  8  3  1  0
  9  3  1  0
  1 10  1  0
  4 11  1  0
  4 12  1  0
  5 13  1  0
  6 14  1  0
  7 15  1  0
  7 16  1  0
  8 17  1  0
  9 18  1  0
  9 19  1  0
M  END
