
     RDKit          3D

 17 19  0  0  0  0  0  0  0  0999 V2000
    2.7646    0.2910    1.8881 C   0  0  0  0  0  0  0  0  0  0  0  0
    1.7751    0.1287    1.2121 C   0  0  0  0  0  0  0  0  0  0  0  0
    0.6059   -0.0759    0.3886 C   0  0  0  0  0  0  0  0  0  0  0  0
    0.7264   -0.2417   -1.1023 C   0  0  0  0  0  0  0  0  0  0  0  0
   -0.4985    0.6690   -1.2386 C   0  0  0  0  0  0  0  0  0  0  0  0
   -1.7630   -0.1383   -1.0739 C   0  0  0  0  0  0  0  0  0  0  0  0
   -1.8850   -0.4938    0.1953 C   0  0  0  0  0  0  0  0  0  0  0  0
   -0.7449    0.0249    0.9919 C   0  0  0  0  0  0  0  0  0  0  0  0
   -0.2510    1.1221    0.1479 C   0  0  0  0  0  0  0  0  0  0  0  0
    3.6292    0.4388    2.4838 H   0  0  0  0  0  0  0  0  0  0  0  0
    1.6165    0.1755   -1.5762 H   0  0  0  0  0  0  0  0  0  0  0  0
    0.4525   -1.2618   -1.4469 H   0  0  0  0  0  0  0  0  0  0  0  0
   -0.4835    1.3724   -2.0572 H   0  0  0  0  0  0  0  0  0  0  0  0
   -2.4027   -0.3412   -1.9179 H   0  0  0  0  0  0  0  0  0  0  0  0
   -2.6976   -1.0759    0.5865 H   0  0  0  0  0  0  0  0  0  0  0  0
   -0.8354    0.1890    2.0626 H   0  0  0  0  0  0  0  0  0  0  0  0
   -0.0086    2.1154    0.4565 H   0  0  0  0  0  0  0  0  0  0  0  0
  1  2  3  0
  2  3  1  0
  3  4  1  0
  4  5  1  0
  5  6  1  0
  6  7  2  0
  7  8  1  0
  8  9  1  0
  8  3  1  0
  9  3  1  0
  9  5  1  0
  1 10  1  0
  4 11  1  0
  4 12  1  0
  5 13  1  0
  6 14  1  0
  7 15  1  0
  8 16  1  0
  9 17  1  0
M  END
