
     RDKit          3D

 17 16  0  0  0  0  0  0  0  0999 V2000
   -1.1646    2.5122   -0.7026 C   0  0  0  0  0  0  0  0  0  0  0  0
   -0.7432    1.3794   -0.6810 C   0  0  0  0  0  0  0  0  0  0  0  0
   -0.2298    0.0094   -0.6775 C   0  0  0  0  0  0  0  0  0  0  0  0
   -1.3297   -0.8692   -0.1182 C   0  0  0  0  0  0  0  0  0  0  0  0
   -1.6373   -0.4428    1.1858 O   0  0  0  0  0  0  0  0  0  0  0  0
    1.0227   -0.0647    0.1689 C   0  0  0  0  0  0  0  0  0  0  0  0
    1.9459    0.8229   -0.4272 O   0  0  0  0  0  0  0  0  0  0  0  0
    1.6401   -1.4041    0.1418 C   0  0  0  0  0  0  0  0  0  0  0  0
    2.7416   -1.6509   -0.3186 O   0  0  0  0  0  0  0  0  0  0  0  0
   -1.5450    3.4992   -0.7213 H   0  0  0  0  0  0  0  0  0  0  0  0
   -0.0437   -0.3333   -1.7093 H   0  0  0  0  0  0  0  0  0  0  0  0
   -2.2091   -0.7380   -0.7727 H   0  0  0  0  0  0  0  0  0  0  0  0
   -1.0397   -1.9337   -0.1247 H   0  0  0  0  0  0  0  0  0  0  0  0
   -0.8638   -0.6111    1.7729 H   0  0  0  0  0  0  0  0  0  0  0  0
    0.8515    0.3316    1.1864 H   0  0  0  0  0  0  0  0  0  0  0  0
    1.5202    1.7294   -0.3312 H   0  0  0  0  0  0  0  0  0  0  0  0
    1.0838   -2.2366    0.5583 H   0  0  0  0  0  0  0  0  0  0  0  0
  1  2  3  0
  2  3  1  0
  3  4  1  0
  4  5  1  0
  3  6  1  0
  6  7  1  0
  6  8  1  0
  8  9  2  0
  1 10  1  0
  3 11  1  0
  4 12  1  0
  4 13  1  0
  5 14  1  0
  6 15  1  0
  7 16  1  0
  8 17  1  0
M  END
