
     RDKit          3D

 19 19  0  0  0  0  0  0  0  0999 V2000
    2.5029    2.8135    0.3475 C   0  0  0  0  0  0  0  0  0  0  0  0
    1.6271    1.9720    0.3272 C   0  0  0  0  0  0  0  0  0  0  0  0
    0.5860    0.9800    0.2790 C   0  0  0  0  0  0  0  0  0  0  0  0
   -0.5959    1.3342   -0.2090 C   0  0  0  0  0  0  0  0  0  0  0  0
   -1.8208    0.5387   -0.3744 C   0  0  0  0  0  0  0  0  0  0  0  0
   -1.8768   -0.7757   -0.3677 C   0  0  0  0  0  0  0  0  0  0  0  0
   -0.8818   -1.8506   -0.2141 C   0  0  0  0  0  0  0  0  0  0  0  0
    0.5387   -1.3657   -0.2815 C   0  0  0  0  0  0  0  0  0  0  0  0
    0.9040   -0.3910    0.7838 C   0  0  0  0  0  0  0  0  0  0  0  0
    3.2564    3.5626    0.3700 H   0  0  0  0  0  0  0  0  0  0  0  0
   -0.6731    2.3674   -0.5365 H   0  0  0  0  0  0  0  0  0  0  0  0
   -2.7561    1.1031   -0.5139 H   0  0  0  0  0  0  0  0  0  0  0  0
   -2.8862   -1.1486   -0.5072 H   0  0  0  0  0  0  0  0  0  0  0  0
   -1.0915   -2.4442    0.7020 H   0  0  0  0  0  0  0  0  0  0  0  0
   -1.0214   -2.5542   -1.0707 H   0  0  0  0  0  0  0  0  0  0  0  0
    0.6739   -0.9088   -1.2937 H   0  0  0  0  0  0  0  0  0  0  0  0
    1.1905   -2.2616   -0.1657 H   0  0  0  0  0  0  0  0  0  0  0  0
    2.0020   -0.4590    1.0011 H   0  0  0  0  0  0  0  0  0  0  0  0
    0.3220   -0.5120    1.7240 H   0  0  0  0  0  0  0  0  0  0  0  0
  1  2  3  0
  2  3  1  0
  3  4  2  0
  4  5  1  0
  5  6  2  0
  6  7  1  0
  7  8  1  0
  8  9  1  0
  9  3  1  0
  1 10  1  0
  4 11  1  0
  5 12  1  0
  6 13  1  0
  7 14  1  0
  7 15  1  0
  8 16  1  0
  8 17  1  0
  9 18  1  0
  9 19  1  0
M  END
