
     RDKit          3D

 17 18  0  0  0  0  0  0  0  0999 V2000
    1.7321   -2.0103    0.8606 C   0  0  0  0  0  0  0  0  0  0  0  0
    1.1316   -1.0074    0.5592 C   0  0  0  0  0  0  0  0  0  0  0  0
    0.4178    0.2016    0.1904 C   0  0  0  0  0  0  0  0  0  0  0  0
   -1.0798    0.1969    0.0707 C   0  0  0  0  0  0  0  0  0  0  0  0
   -1.7829   -1.0313    0.5603 C   0  0  0  0  0  0  0  0  0  0  0  0
   -0.9239    0.3216   -1.2928 O   0  0  0  0  0  0  0  0  0  0  0  0
    0.4498    0.5565   -1.3207 C   0  0  0  0  0  0  0  0  0  0  0  0
    1.0963    1.4030   -0.2900 C   0  0  0  0  0  0  0  0  0  0  0  0
    0.4136    2.6166   -0.0393 O   0  0  0  0  0  0  0  0  0  0  0  0
    2.2723   -2.8824    1.1307 H   0  0  0  0  0  0  0  0  0  0  0  0
   -1.4846    1.1448    0.5256 H   0  0  0  0  0  0  0  0  0  0  0  0
   -2.8099   -0.7429    0.8850 H   0  0  0  0  0  0  0  0  0  0  0  0
   -1.2734   -1.3857    1.5031 H   0  0  0  0  0  0  0  0  0  0  0  0
   -1.8783   -1.8259   -0.1904 H   0  0  0  0  0  0  0  0  0  0  0  0
    1.0886   -0.0970   -1.9605 H   0  0  0  0  0  0  0  0  0  0  0  0
    2.1860    1.4148   -0.2864 H   0  0  0  0  0  0  0  0  0  0  0  0
    0.4449    3.1270   -0.9056 H   0  0  0  0  0  0  0  0  0  0  0  0
  1  2  3  0
  2  3  1  0
  3  4  1  0
  4  5  1  0
  4  6  1  0
  6  7  1  0
  7  8  1  0
  8  9  1  0
  7  3  1  0
  8  3  1  0
  1 10  1  0
  4 11  1  0
  5 12  1  0
  5 13  1  0
  5 14  1  0
  7 15  1  0
  8 16  1  0
  9 17  1  0
M  END
