
     RDKit          3D

 21 22  0  0  0  0  0  0  0  0999 V2000
    1.8247    0.0895   -2.9855 C   0  0  0  0  0  0  0  0  0  0  0  0
    0.7242    0.0338   -2.2438 C   0  0  0  0  0  0  0  0  0  0  0  0
   -0.4712   -0.0248   -1.4623 C   0  0  0  0  0  0  0  0  0  0  0  0
   -0.2114   -0.5838   -0.1209 C   0  0  0  0  0  0  0  0  0  0  0  0
   -1.1963   -0.7573    0.9696 C   0  0  0  0  0  0  0  0  0  0  0  0
   -0.1942    0.1209    1.8334 C   0  0  0  0  0  0  0  0  0  0  0  0
   -0.8335    1.4911    2.0501 C   0  0  0  0  0  0  0  0  0  0  0  0
    0.8081    0.0313    0.7743 C   0  0  0  0  0  0  0  0  0  0  0  0
    1.1221   -1.2777    0.1404 C   0  0  0  0  0  0  0  0  0  0  0  0
    2.6525    0.1301   -3.5223 H   0  0  0  0  0  0  0  0  0  0  0  0
   -1.2176   -0.6806   -1.9935 H   0  0  0  0  0  0  0  0  0  0  0  0
   -0.9429    1.0125   -1.3842 H   0  0  0  0  0  0  0  0  0  0  0  0
   -1.2116   -1.7962    1.3031 H   0  0  0  0  0  0  0  0  0  0  0  0
   -2.1330   -0.2189    0.9763 H   0  0  0  0  0  0  0  0  0  0  0  0
    0.0482   -0.3660    2.7803 H   0  0  0  0  0  0  0  0  0  0  0  0
   -0.4019    2.1872    1.3034 H   0  0  0  0  0  0  0  0  0  0  0  0
   -1.9364    1.3639    1.8637 H   0  0  0  0  0  0  0  0  0  0  0  0
   -0.6260    1.8306    3.0612 H   0  0  0  0  0  0  0  0  0  0  0  0
    1.3877    0.9278    0.4312 H   0  0  0  0  0  0  0  0  0  0  0  0
    1.0462   -2.1949    0.7138 H   0  0  0  0  0  0  0  0  0  0  0  0
    1.7620   -1.3186   -0.7730 H   0  0  0  0  0  0  0  0  0  0  0  0
  1  2  3  0
  2  3  1  0
  3  4  1  0
  4  5  1  0
  5  6  1  0
  6  7  1  0
  6  8  1  0
  8  9  1  0
  8  4  1  0
  9  4  1  0
  1 10  1  0
  3 11  1  0
  3 12  1  0
  5 13  1  0
  5 14  1  0
  6 15  1  0
  7 16  1  0
  7 17  1  0
  7 18  1  0
  8 19  1  0
  9 20  1  0
  9 21  1  0
M  END
