
     RDKit          3D

 19 20  0  0  0  0  0  0  0  0999 V2000
    3.0898    0.4149    0.6364 C   0  0  0  0  0  0  0  0  0  0  0  0
    1.9704    0.0900    0.3774 C   0  0  0  0  0  0  0  0  0  0  0  0
    0.7201   -0.2716    0.1106 C   0  0  0  0  0  0  0  0  0  0  0  0
    0.0968   -0.3616   -1.2536 C   0  0  0  0  0  0  0  0  0  0  0  0
   -0.9982   -0.7872   -0.3149 C   0  0  0  0  0  0  0  0  0  0  0  0
   -2.1641   -1.1483   -0.5635 O   0  0  0  0  0  0  0  0  0  0  0  0
    0.0869   -1.5983    0.3939 C   0  0  0  0  0  0  0  0  0  0  0  0
   -0.5356    0.3555    0.5689 C   0  0  0  0  0  0  0  0  0  0  0  0
   -0.8442    1.7319    0.0415 C   0  0  0  0  0  0  0  0  0  0  0  0
    4.1043    0.7192    0.8665 H   0  0  0  0  0  0  0  0  0  0  0  0
   -0.0471    0.5775   -1.7870 H   0  0  0  0  0  0  0  0  0  0  0  0
    0.4278   -1.2208   -1.8769 H   0  0  0  0  0  0  0  0  0  0  0  0
   -2.8643   -0.7916    0.0547 H   0  0  0  0  0  0  0  0  0  0  0  0
    0.4503   -2.4647   -0.1631 H   0  0  0  0  0  0  0  0  0  0  0  0
   -0.0880   -1.7465    1.4634 H   0  0  0  0  0  0  0  0  0  0  0  0
   -0.7072    0.2121    1.6529 H   0  0  0  0  0  0  0  0  0  0  0  0
    0.0397    2.1589   -0.5009 H   0  0  0  0  0  0  0  0  0  0  0  0
   -1.7283    1.6971   -0.6098 H   0  0  0  0  0  0  0  0  0  0  0  0
   -1.0090    2.4334    0.9034 H   0  0  0  0  0  0  0  0  0  0  0  0
  1  2  3  0
  2  3  1  0
  3  4  1  0
  4  5  1  0
  5  6  1  0
  5  7  1  0
  5  8  1  0
  8  9  1  0
  7  3  1  0
  8  3  1  0
  1 10  1  0
  4 11  1  0
  4 12  1  0
  6 13  1  0
  7 14  1  0
  7 15  1  0
  8 16  1  0
  9 17  1  0
  9 18  1  0
  9 19  1  0
M  END
