
     RDKit          3D

 14 15  0  0  0  0  0  0  0  0999 V2000
    2.6983    1.0857   -1.1296 C   0  0  0  0  0  0  0  0  0  0  0  0
    1.8432    0.4823   -0.4977 C   0  0  0  0  0  0  0  0  0  0  0  0
    0.8433   -0.2395    0.2701 C   0  0  0  0  0  0  0  0  0  0  0  0
   -0.2721    0.5412    0.7982 C   0  0  0  0  0  0  0  0  0  0  0  0
   -1.2764   -0.2429    1.6340 C   0  0  0  0  0  0  0  0  0  0  0  0
   -1.6282   -0.9720    0.3863 C   0  0  0  0  0  0  0  0  0  0  0  0
   -2.5498   -1.7097    0.0969 O   0  0  0  0  0  0  0  0  0  0  0  0
   -0.4679   -0.4840   -0.3697 C   0  0  0  0  0  0  0  0  0  0  0  0
    3.4448    1.5999   -1.6626 H   0  0  0  0  0  0  0  0  0  0  0  0
    1.2507   -1.0311    0.9598 H   0  0  0  0  0  0  0  0  0  0  0  0
   -0.4768    1.5861    0.5572 H   0  0  0  0  0  0  0  0  0  0  0  0
   -0.7304   -0.9269    2.3444 H   0  0  0  0  0  0  0  0  0  0  0  0
   -2.0656    0.3408    2.1025 H   0  0  0  0  0  0  0  0  0  0  0  0
   -0.6130   -0.0300   -1.3775 H   0  0  0  0  0  0  0  0  0  0  0  0
  1  2  3  0
  2  3  1  0
  3  4  1  0
  4  5  1  0
  5  6  1  0
  6  7  2  0
  6  8  1  0
  8  3  1  0
  8  4  1  0
  1  9  1  0
  3 10  1  0
  4 11  1  0
  5 12  1  0
  5 13  1  0
  8 14  1  0
M  END
