
     RDKit          3D

 17 18  0  0  0  0  0  0  0  0999 V2000
    3.1349    0.1245   -0.8131 C   0  0  0  0  0  0  0  0  0  0  0  0
    1.9724   -0.0327   -1.0947 C   0  0  0  0  0  0  0  0  0  0  0  0
    0.5484   -0.2341   -1.4566 C   0  0  0  0  0  0  0  0  0  0  0  0
   -0.2406   -0.1848   -0.2534 C   0  0  0  0  0  0  0  0  0  0  0  0
   -1.7260   -0.3618   -0.3396 C   0  0  0  0  0  0  0  0  0  0  0  0
   -2.0457   -0.3801    0.9778 C   0  0  0  0  0  0  0  0  0  0  0  0
   -0.6910   -0.1866    1.5841 C   0  0  0  0  0  0  0  0  0  0  0  0
   -0.0838    0.9095    0.7428 C   0  0  0  0  0  0  0  0  0  0  0  0
    0.0592   -1.0849    0.7890 O   0  0  0  0  0  0  0  0  0  0  0  0
    4.1521    0.2592   -0.5506 H   0  0  0  0  0  0  0  0  0  0  0  0
    0.2656    0.5751   -2.1479 H   0  0  0  0  0  0  0  0  0  0  0  0
    0.4221   -1.1969   -1.9881 H   0  0  0  0  0  0  0  0  0  0  0  0
   -2.3824   -0.4523   -1.1962 H   0  0  0  0  0  0  0  0  0  0  0  0
   -3.0138   -0.5015    1.4428 H   0  0  0  0  0  0  0  0  0  0  0  0
   -0.5689   -0.2002    2.6273 H   0  0  0  0  0  0  0  0  0  0  0  0
    0.9251    1.1428    1.0806 H   0  0  0  0  0  0  0  0  0  0  0  0
   -0.7277    1.8048    0.5959 H   0  0  0  0  0  0  0  0  0  0  0  0
  1  2  3  0
  2  3  1  0
  3  4  1  0
  4  5  1  0
  5  6  2  0
  6  7  1  0
  7  8  1  0
  7  9  1  0
  8  4  1  0
  9  4  1  0
  1 10  1  0
  3 11  1  0
  3 12  1  0
  5 13  1  0
  6 14  1  0
  7 15  1  0
  8 16  1  0
  8 17  1  0
M  END
