
     RDKit          3D

 21 21  0  0  0  0  0  0  0  0999 V2000
   -2.1024    1.5089    0.8184 C   0  0  0  0  0  0  0  0  0  0  0  0
   -1.3876    0.6510    0.4085 C   0  0  0  0  0  0  0  0  0  0  0  0
   -0.4319   -0.4546   -0.1228 C   0  0  0  0  0  0  0  0  0  0  0  0
   -0.4182   -0.3896   -1.4957 O   0  0  0  0  0  0  0  0  0  0  0  0
   -1.5862   -0.2751   -2.1221 C   0  0  0  0  0  0  0  0  0  0  0  0
    0.5321   -0.8629    0.8942 C   0  0  0  0  0  0  0  0  0  0  0  0
    0.4787   -0.4422    2.3940 C   0  0  0  0  0  0  0  0  0  0  0  0
    1.0169    0.3173    0.1006 C   0  0  0  0  0  0  0  0  0  0  0  0
    2.0635   -0.0433   -0.9295 C   0  0  0  0  0  0  0  0  0  0  0  0
   -2.7894    2.3632    1.2293 H   0  0  0  0  0  0  0  0  0  0  0  0
   -2.2769   -1.1346   -1.9960 H   0  0  0  0  0  0  0  0  0  0  0  0
   -1.5123    0.0304   -3.1635 H   0  0  0  0  0  0  0  0  0  0  0  0
   -2.2273    0.5554   -1.5760 H   0  0  0  0  0  0  0  0  0  0  0  0
    1.1442   -1.8044    0.8339 H   0  0  0  0  0  0  0  0  0  0  0  0
    0.1816   -1.2890    3.0087 H   0  0  0  0  0  0  0  0  0  0  0  0
   -0.1854    0.4266    2.3924 H   0  0  0  0  0  0  0  0  0  0  0  0
    1.5496   -0.1280    2.5961 H   0  0  0  0  0  0  0  0  0  0  0  0
    0.9126    1.3508    0.3411 H   0  0  0  0  0  0  0  0  0  0  0  0
    2.6016    0.8813   -1.2191 H   0  0  0  0  0  0  0  0  0  0  0  0
    1.6091   -0.4745   -1.8331 H   0  0  0  0  0  0  0  0  0  0  0  0
    2.8278   -0.7865   -0.5593 H   0  0  0  0  0  0  0  0  0  0  0  0
  1  2  3  0
  2  3  1  0
  3  4  1  0
  4  5  1  0
  3  6  1  0
  6  7  1  0
  6  8  1  0
  8  9  1  0
  8  3  1  0
  1 10  1  0
  5 11  1  0
  5 12  1  0
  5 13  1  0
  6 14  1  0
  7 15  1  0
  7 16  1  0
  7 17  1  0
  8 18  1  0
  9 19  1  0
  9 20  1  0
  9 21  1  0
M  END
