
     RDKit          3D

 19 19  0  0  0  0  0  0  0  0999 V2000
    0.6478    2.8845   -0.6470 C   0  0  0  0  0  0  0  0  0  0  0  0
    0.2430    1.7605   -0.4808 C   0  0  0  0  0  0  0  0  0  0  0  0
   -0.2534    0.4029   -0.2553 C   0  0  0  0  0  0  0  0  0  0  0  0
    0.7308   -0.4354    0.3825 C   0  0  0  0  0  0  0  0  0  0  0  0
    1.5765   -1.1425    0.9090 C   0  0  0  0  0  0  0  0  0  0  0  0
    2.5965   -1.9719    1.5171 C   0  0  0  0  0  0  0  0  0  0  0  0
   -0.8710   -0.1355   -1.5209 C   0  0  0  0  0  0  0  0  0  0  0  0
   -2.2098    0.3102   -0.9869 C   0  0  0  0  0  0  0  0  0  0  0  0
   -1.6068    0.3622    0.4202 C   0  0  0  0  0  0  0  0  0  0  0  0
    1.0203    3.8849   -0.8103 H   0  0  0  0  0  0  0  0  0  0  0  0
    3.1606   -2.4757    0.7035 H   0  0  0  0  0  0  0  0  0  0  0  0
    2.1585   -2.7883    2.1308 H   0  0  0  0  0  0  0  0  0  0  0  0
    3.2964   -1.3719    2.1329 H   0  0  0  0  0  0  0  0  0  0  0  0
   -0.8272   -1.2403   -1.5245 H   0  0  0  0  0  0  0  0  0  0  0  0
   -0.5332    0.3129   -2.4530 H   0  0  0  0  0  0  0  0  0  0  0  0
   -3.0355   -0.4045   -1.0545 H   0  0  0  0  0  0  0  0  0  0  0  0
   -2.4754    1.3088   -1.3786 H   0  0  0  0  0  0  0  0  0  0  0  0
   -1.7514   -0.5636    1.0073 H   0  0  0  0  0  0  0  0  0  0  0  0
   -1.8665    1.3026    0.9070 H   0  0  0  0  0  0  0  0  0  0  0  0
  1  2  3  0
  2  3  1  0
  3  4  1  0
  4  5  3  0
  5  6  1  0
  3  7  1  0
  7  8  1  0
  8  9  1  0
  9  3  1  0
  1 10  1  0
  6 11  1  0
  6 12  1  0
  6 13  1  0
  7 14  1  0
  7 15  1  0
  8 16  1  0
  8 17  1  0
  9 18  1  0
  9 19  1  0
M  END
