
     RDKit          3D

 16 17  0  0  0  0  0  0  0  0999 V2000
    2.7356   -1.3411   -0.0545 C   0  0  0  0  0  0  0  0  0  0  0  0
    1.7052   -0.7877    0.0449 C   0  0  0  0  0  0  0  0  0  0  0  0
    0.3886   -0.0646    0.1949 C   0  0  0  0  0  0  0  0  0  0  0  0
   -0.8315   -0.9200    0.1019 C   0  0  0  0  0  0  0  0  0  0  0  0
   -1.8757    0.0533   -0.4029 C   0  0  0  0  0  0  0  0  0  0  0  0
   -1.2127    1.0070   -1.1368 O   0  0  0  0  0  0  0  0  0  0  0  0
    0.1245    1.0195   -0.7715 C   0  0  0  0  0  0  0  0  0  0  0  0
    0.3833    1.3393    0.6430 C   0  0  0  0  0  0  0  0  0  0  0  0
    3.6806   -1.8579   -0.1632 H   0  0  0  0  0  0  0  0  0  0  0  0
   -1.1411   -1.3893    1.0558 H   0  0  0  0  0  0  0  0  0  0  0  0
   -0.6509   -1.6768   -0.7142 H   0  0  0  0  0  0  0  0  0  0  0  0
   -2.6361   -0.4682   -1.0173 H   0  0  0  0  0  0  0  0  0  0  0  0
   -2.4073    0.4757    0.4717 H   0  0  0  0  0  0  0  0  0  0  0  0
    0.8755    1.1635   -1.5743 H   0  0  0  0  0  0  0  0  0  0  0  0
    1.3355    1.7496    1.0006 H   0  0  0  0  0  0  0  0  0  0  0  0
   -0.4734    1.6977    1.2845 H   0  0  0  0  0  0  0  0  0  0  0  0
  1  2  3  0
  2  3  1  0
  3  4  1  0
  4  5  1  0
  5  6  1  0
  6  7  1  0
  7  8  1  0
  7  3  1  0
  8  3  1  0
  1  9  1  0
  4 10  1  0
  4 11  1  0
  5 12  1  0
  5 13  1  0
  7 14  1  0
  8 15  1  0
  8 16  1  0
M  END
