
     RDKit          3D

 23 22  0  0  0  0  0  0  0  0999 V2000
    2.1078    0.6031    2.9957 C   0  0  0  0  0  0  0  0  0  0  0  0
    0.8776   -0.3277    1.7956 C   0  0  0  0  0  0  0  0  0  0  0  0
    0.1180   -0.8863    1.0827 C   0  0  0  0  0  0  0  0  0  0  0  0
    0.5685   -2.2468    0.7840 C   0  0  0  0  0  0  0  0  0  0  0  0
    0.8370   -0.2615   -0.2675 O   0  0  0  0  0  0  0  0  0  0  0  0
   -0.2827    0.4867   -0.8407 C   0  0  0  0  0  0  0  0  0  0  0  0
    0.1821    1.2920   -2.0147 C   0  0  0  0  0  0  0  0  0  0  0  0
   -0.7114    1.5198    0.1436 C   0  0  0  0  0  0  0  0  0  0  0  0
   -1.3642   -0.4872   -1.1626 C   0  0  0  0  0  0  0  0  0  0  0  0
    3.0060    1.2773    3.8971 H   0  0  0  0  0  0  0  0  0  0  0  0
   -0.7926   -0.3635    0.8698 H   0  0  0  0  0  0  0  0  0  0  0  0
    1.7218   -2.3989    0.9287 H   0  0  0  0  0  0  0  0  0  0  0  0
    0.2053   -2.5552   -0.2570 H   0  0  0  0  0  0  0  0  0  0  0  0
    0.0671   -3.1259    1.3653 H   0  0  0  0  0  0  0  0  0  0  0  0
    1.3244    0.8698   -2.1787 H   0  0  0  0  0  0  0  0  0  0  0  0
   -0.2385    0.9027   -2.9669 H   0  0  0  0  0  0  0  0  0  0  0  0
    0.3847    2.3631   -1.8551 H   0  0  0  0  0  0  0  0  0  0  0  0
   -0.6220    2.5635   -0.1050 H   0  0  0  0  0  0  0  0  0  0  0  0
   -1.7987    1.2732    0.4416 H   0  0  0  0  0  0  0  0  0  0  0  0
   -0.0968    1.4229    1.1233 H   0  0  0  0  0  0  0  0  0  0  0  0
   -1.4199   -1.4066   -0.6236 H   0  0  0  0  0  0  0  0  0  0  0  0
   -1.5662   -0.5337   -2.2528 H   0  0  0  0  0  0  0  0  0  0  0  0
   -2.5071    0.0192   -0.9027 H   0  0  0  0  0  0  0  0  0  0  0  0
  1  2  3  0
  2  3  1  0
  3  4  1  0
  3  5  1  0
  5  6  1  0
  6  7  1  0
  6  8  1  0
  6  9  1  0
  1 10  1  0
  3 11  1  0
  4 12  1  0
  4 13  1  0
  4 14  1  0
  7 15  1  0
  7 16  1  0
  7 17  1  0
  8 18  1  0
  8 19  1  0
  8 20  1  0
  9 21  1  0
  9 22  1  0
  9 23  1  0
M  END
