
     RDKit          3D

 15 15  0  0  0  0  0  0  0  0999 V2000
    2.9149    0.5968   -1.7372 C   0  0  0  0  0  0  0  0  0  0  0  0
    1.8363    0.2358   -1.2589 C   0  0  0  0  0  0  0  0  0  0  0  0
    0.5668   -0.2039   -0.7163 C   0  0  0  0  0  0  0  0  0  0  0  0
   -0.5109    0.7600   -0.9203 C   0  0  0  0  0  0  0  0  0  0  0  0
   -1.5486    0.7466   -0.1107 C   0  0  0  0  0  0  0  0  0  0  0  0
   -1.5904   -0.2249    0.9598 C   0  0  0  0  0  0  0  0  0  0  0  0
   -2.6361   -0.4747    1.5955 O   0  0  0  0  0  0  0  0  0  0  0  0
   -0.3451   -0.9343    1.2971 C   0  0  0  0  0  0  0  0  0  0  0  0
    0.7624   -0.4259    0.6308 O   0  0  0  0  0  0  0  0  0  0  0  0
    3.8321    0.9063   -2.1571 H   0  0  0  0  0  0  0  0  0  0  0  0
    0.2355   -1.1830   -1.1893 H   0  0  0  0  0  0  0  0  0  0  0  0
   -0.5303    1.5093   -1.7105 H   0  0  0  0  0  0  0  0  0  0  0  0
   -2.3728    1.4717   -0.2569 H   0  0  0  0  0  0  0  0  0  0  0  0
   -0.1679   -0.7437    2.3990 H   0  0  0  0  0  0  0  0  0  0  0  0
   -0.4459   -2.0358    1.1642 H   0  0  0  0  0  0  0  0  0  0  0  0
  1  2  3  0
  2  3  1  0
  3  4  1  0
  4  5  2  0
  5  6  1  0
  6  7  2  0
  6  8  1  0
  8  9  1  0
  9  3  1  0
  1 10  1  0
  3 11  1  0
  4 12  1  0
  5 13  1  0
  8 14  1  0
  8 15  1  0
M  END
