
     RDKit          3D

 19 20  0  0  0  0  0  0  0  0999 V2000
    3.2162   -0.8172   -0.9816 C   0  0  0  0  0  0  0  0  0  0  0  0
    2.0517   -0.6496   -0.7180 C   0  0  0  0  0  0  0  0  0  0  0  0
    0.6400   -0.4246   -0.4051 C   0  0  0  0  0  0  0  0  0  0  0  0
    0.1023    0.7355   -0.1430 C   0  0  0  0  0  0  0  0  0  0  0  0
    0.8136    2.0303   -0.1133 C   0  0  0  0  0  0  0  0  0  0  0  0
   -1.3306    0.5544    0.1191 C   0  0  0  0  0  0  0  0  0  0  0  0
   -1.8368   -0.2753    1.2335 C   0  0  0  0  0  0  0  0  0  0  0  0
   -1.6467   -0.8667   -0.1378 C   0  0  0  0  0  0  0  0  0  0  0  0
   -0.3382   -1.5405   -0.3565 C   0  0  0  0  0  0  0  0  0  0  0  0
    4.2424   -0.9481   -1.2139 H   0  0  0  0  0  0  0  0  0  0  0  0
    1.4493    2.0655   -1.0447 H   0  0  0  0  0  0  0  0  0  0  0  0
    1.4769    2.1407    0.7494 H   0  0  0  0  0  0  0  0  0  0  0  0
    0.1144    2.8869   -0.2031 H   0  0  0  0  0  0  0  0  0  0  0  0
   -2.0607    1.2784   -0.3445 H   0  0  0  0  0  0  0  0  0  0  0  0
   -2.8876   -0.1312    1.5286 H   0  0  0  0  0  0  0  0  0  0  0  0
   -1.1384   -0.5742    2.0536 H   0  0  0  0  0  0  0  0  0  0  0  0
   -2.5557   -1.1731   -0.7087 H   0  0  0  0  0  0  0  0  0  0  0  0
   -0.0349   -2.2068    0.4734 H   0  0  0  0  0  0  0  0  0  0  0  0
   -0.2773   -2.0844   -1.3246 H   0  0  0  0  0  0  0  0  0  0  0  0
  1  2  3  0
  2  3  1  0
  3  4  2  0
  4  5  1  0
  4  6  1  0
  6  7  1  0
  7  8  1  0
  8  9  1  0
  9  3  1  0
  8  6  1  0
  1 10  1  0
  5 11  1  0
  5 12  1  0
  5 13  1  0
  6 14  1  0
  7 15  1  0
  7 16  1  0
  8 17  1  0
  9 18  1  0
  9 19  1  0
M  END
