
     RDKit          3D

 16 16  0  0  0  0  0  0  0  0999 V2000
    2.8797    1.5536    1.1267 C   0  0  0  0  0  0  0  0  0  0  0  0
    2.1387    0.6127    1.2455 C   0  0  0  0  0  0  0  0  0  0  0  0
    1.2376   -0.5608    1.3859 C   0  0  0  0  0  0  0  0  0  0  0  0
   -0.0847   -0.2484    0.7567 C   0  0  0  0  0  0  0  0  0  0  0  0
   -1.0811   -1.2533    0.7650 O   0  0  0  0  0  0  0  0  0  0  0  0
   -0.6086   -0.6881   -0.4804 C   0  0  0  0  0  0  0  0  0  0  0  0
   -1.5957    0.1896   -1.2108 C   0  0  0  0  0  0  0  0  0  0  0  0
   -2.7354   -0.4979   -1.6059 O   0  0  0  0  0  0  0  0  0  0  0  0
    3.5565    2.3998    1.0116 H   0  0  0  0  0  0  0  0  0  0  0  0
    1.7979   -1.3846    0.9308 H   0  0  0  0  0  0  0  0  0  0  0  0
    1.1435   -0.7263    2.4958 H   0  0  0  0  0  0  0  0  0  0  0  0
   -0.5263    0.7042    1.1842 H   0  0  0  0  0  0  0  0  0  0  0  0
   -0.1823   -1.5122   -1.1113 H   0  0  0  0  0  0  0  0  0  0  0  0
   -1.9494    0.9829   -0.4866 H   0  0  0  0  0  0  0  0  0  0  0  0
   -1.0522    0.7028   -2.0092 H   0  0  0  0  0  0  0  0  0  0  0  0
   -2.9383   -0.2740   -2.5721 H   0  0  0  0  0  0  0  0  0  0  0  0
  1  2  3  0
  2  3  1  0
  3  4  1  0
  4  5  1  0
  5  6  1  0
  6  7  1  0
  7  8  1  0
  6  4  1  0
  1  9  1  0
  3 10  1  0
  3 11  1  0
  4 12  1  0
  6 13  1  0
  7 14  1  0
  7 15  1  0
  8 16  1  0
M  END
