
     RDKit          3D

 19 20  0  0  0  0  0  0  0  0999 V2000
    2.9709   -1.1199   -1.2107 C   0  0  0  0  0  0  0  0  0  0  0  0
    2.0332   -0.5284   -0.7356 C   0  0  0  0  0  0  0  0  0  0  0  0
    0.8790    0.1698   -0.1529 C   0  0  0  0  0  0  0  0  0  0  0  0
   -0.0506    0.9299   -1.0451 C   0  0  0  0  0  0  0  0  0  0  0  0
   -1.4117    0.8354   -0.3439 C   0  0  0  0  0  0  0  0  0  0  0  0
   -1.3647   -0.5795    0.1770 C   0  0  0  0  0  0  0  0  0  0  0  0
   -2.4087   -0.8796    1.0029 O   0  0  0  0  0  0  0  0  0  0  0  0
   -0.0128   -0.6924    0.7587 C   0  0  0  0  0  0  0  0  0  0  0  0
    0.7773    0.4119    1.2864 C   0  0  0  0  0  0  0  0  0  0  0  0
    3.8053   -1.6313   -1.6165 H   0  0  0  0  0  0  0  0  0  0  0  0
    0.1860    2.0169   -1.1019 H   0  0  0  0  0  0  0  0  0  0  0  0
   -0.1317    0.5170   -2.0614 H   0  0  0  0  0  0  0  0  0  0  0  0
   -2.2453    0.8928   -1.0555 H   0  0  0  0  0  0  0  0  0  0  0  0
   -1.4940    1.5853    0.4562 H   0  0  0  0  0  0  0  0  0  0  0  0
   -1.4196   -1.2561   -0.7163 H   0  0  0  0  0  0  0  0  0  0  0  0
   -2.3887   -0.4771    1.8839 H   0  0  0  0  0  0  0  0  0  0  0  0
    0.3634   -1.7377    0.9521 H   0  0  0  0  0  0  0  0  0  0  0  0
    1.6419    0.1732    1.9215 H   0  0  0  0  0  0  0  0  0  0  0  0
    0.2709    1.3698    1.6011 H   0  0  0  0  0  0  0  0  0  0  0  0
  1  2  3  0
  2  3  1  0
  3  4  1  0
  4  5  1  0
  5  6  1  0
  6  7  1  0
  6  8  1  0
  8  9  1  0
  8  3  1  0
  9  3  1  0
  1 10  1  0
  4 11  1  0
  4 12  1  0
  5 13  1  0
  5 14  1  0
  6 15  1  0
  7 16  1  0
  8 17  1  0
  9 18  1  0
  9 19  1  0
M  END
