
     RDKit          3D

 13 12  0  0  0  0  0  0  0  0999 V2000
   -2.2312    1.6472    0.0078 C   0  0  0  0  0  0  0  0  0  0  0  0
   -1.8296    0.4995    0.1569 C   0  0  0  0  0  0  0  0  0  0  0  0
   -1.3537   -0.8827    0.3113 C   0  0  0  0  0  0  0  0  0  0  0  0
    0.0682   -0.8933   -0.1514 C   0  0  0  0  0  0  0  0  0  0  0  0
    0.5424   -1.7938   -0.8567 O   0  0  0  0  0  0  0  0  0  0  0  0
    0.8517    0.1873    0.2599 O   0  0  0  0  0  0  0  0  0  0  0  0
    2.2068    0.2946   -0.1126 C   0  0  0  0  0  0  0  0  0  0  0  0
   -2.5860    2.6407   -0.1052 H   0  0  0  0  0  0  0  0  0  0  0  0
   -1.3782   -1.1164    1.3869 H   0  0  0  0  0  0  0  0  0  0  0  0
   -1.9940   -1.5875   -0.2420 H   0  0  0  0  0  0  0  0  0  0  0  0
    2.4146    1.3177   -0.4879 H   0  0  0  0  0  0  0  0  0  0  0  0
    2.8943    0.1411    0.7416 H   0  0  0  0  0  0  0  0  0  0  0  0
    2.3948   -0.4544   -0.9087 H   0  0  0  0  0  0  0  0  0  0  0  0
  1  2  3  0
  2  3  1  0
  3  4  1  0
  4  5  2  0
  4  6  1  0
  6  7  1  0
  1  8  1  0
  3  9  1  0
  3 10  1  0
  7 11  1  0
  7 12  1  0
  7 13  1  0
M  END
