
     RDKit          3D

 19 20  0  0  0  0  0  0  0  0999 V2000
   -2.7533    0.5043   -0.0711 C   0  0  0  0  0  0  0  0  0  0  0  0
   -1.7659   -0.1618    0.0805 C   0  0  0  0  0  0  0  0  0  0  0  0
   -0.5710   -0.9528    0.2749 C   0  0  0  0  0  0  0  0  0  0  0  0
   -0.8028   -2.2569    0.5685 O   0  0  0  0  0  0  0  0  0  0  0  0
    0.3336   -0.7608   -0.9503 C   0  0  0  0  0  0  0  0  0  0  0  0
    0.5414    0.7559   -0.8588 C   0  0  0  0  0  0  0  0  0  0  0  0
    1.7769    1.2224   -0.2377 C   0  0  0  0  0  0  0  0  0  0  0  0
    0.6298    1.0259    0.6480 C   0  0  0  0  0  0  0  0  0  0  0  0
    0.3368   -0.2930    1.3192 C   0  0  0  0  0  0  0  0  0  0  0  0
   -3.6059    1.0955   -0.2043 H   0  0  0  0  0  0  0  0  0  0  0  0
   -1.0511   -2.8213   -0.1723 H   0  0  0  0  0  0  0  0  0  0  0  0
   -0.1529   -1.0605   -1.8763 H   0  0  0  0  0  0  0  0  0  0  0  0
    1.3131   -1.2594   -0.7642 H   0  0  0  0  0  0  0  0  0  0  0  0
   -0.1917    1.3981   -1.3612 H   0  0  0  0  0  0  0  0  0  0  0  0
    2.6306    0.5044   -0.2341 H   0  0  0  0  0  0  0  0  0  0  0  0
    2.0923    2.2530   -0.4415 H   0  0  0  0  0  0  0  0  0  0  0  0
    0.1334    1.9169    1.0523 H   0  0  0  0  0  0  0  0  0  0  0  0
   -0.1559   -0.1961    2.2934 H   0  0  0  0  0  0  0  0  0  0  0  0
    1.2627   -0.9137    1.3560 H   0  0  0  0  0  0  0  0  0  0  0  0
  1  2  3  0
  2  3  1  0
  3  4  1  0
  3  5  1  0
  5  6  1  0
  6  7  1  0
  7  8  1  0
  8  9  1  0
  9  3  1  0
  8  6  1  0
  1 10  1  0
  4 11  1  0
  5 12  1  0
  5 13  1  0
  6 14  1  0
  7 15  1  0
  7 16  1  0
  8 17  1  0
  9 18  1  0
  9 19  1  0
M  END
