
     RDKit          3D

 21 21  0  0  0  0  0  0  0  0999 V2000
   -0.4864    1.7416   -2.1593 C   0  0  0  0  0  0  0  0  0  0  0  0
   -0.3143    0.7750   -1.4603 C   0  0  0  0  0  0  0  0  0  0  0  0
   -0.1244   -0.4015   -0.5908 C   0  0  0  0  0  0  0  0  0  0  0  0
    1.3394   -0.6333   -0.4514 C   0  0  0  0  0  0  0  0  0  0  0  0
    1.9994    0.5982    0.1741 C   0  0  0  0  0  0  0  0  0  0  0  0
    3.3631    0.2861    0.2632 O   0  0  0  0  0  0  0  0  0  0  0  0
   -0.8405   -0.1794    0.6963 C   0  0  0  0  0  0  0  0  0  0  0  0
   -2.3554    0.0321    0.5070 C   0  0  0  0  0  0  0  0  0  0  0  0
   -1.7944   -1.1540    1.2654 C   0  0  0  0  0  0  0  0  0  0  0  0
   -0.6450    2.5817   -2.7809 H   0  0  0  0  0  0  0  0  0  0  0  0
   -0.5849   -1.3108   -1.0709 H   0  0  0  0  0  0  0  0  0  0  0  0
    1.7684   -0.6898   -1.4873 H   0  0  0  0  0  0  0  0  0  0  0  0
    1.6325   -1.5491    0.0560 H   0  0  0  0  0  0  0  0  0  0  0  0
    1.6400    0.7145    1.2042 H   0  0  0  0  0  0  0  0  0  0  0  0
    1.8462    1.4885   -0.4379 H   0  0  0  0  0  0  0  0  0  0  0  0
    3.5054   -0.2529    1.0733 H   0  0  0  0  0  0  0  0  0  0  0  0
   -0.3834    0.5451    1.3856 H   0  0  0  0  0  0  0  0  0  0  0  0
   -2.8009   -0.1908   -0.4596 H   0  0  0  0  0  0  0  0  0  0  0  0
   -2.8316    0.8527    1.0864 H   0  0  0  0  0  0  0  0  0  0  0  0
   -1.9661   -1.1083    2.3565 H   0  0  0  0  0  0  0  0  0  0  0  0
   -1.9671   -2.1459    0.8302 H   0  0  0  0  0  0  0  0  0  0  0  0
  1  2  3  0
  2  3  1  0
  3  4  1  0
  4  5  1  0
  5  6  1  0
  3  7  1  0
  7  8  1  0
  8  9  1  0
  9  7  1  0
  1 10  1  0
  3 11  1  0
  4 12  1  0
  4 13  1  0
  5 14  1  0
  5 15  1  0
  6 16  1  0
  7 17  1  0
  8 18  1  0
  8 19  1  0
  9 20  1  0
  9 21  1  0
M  END
