
     RDKit          3D

 17 18  0  0  0  0  0  0  0  0999 V2000
    3.0448   -0.5915    0.8334 C   0  0  0  0  0  0  0  0  0  0  0  0
    2.0737    0.1204    0.7662 C   0  0  0  0  0  0  0  0  0  0  0  0
    0.8850    0.9882    0.7070 C   0  0  0  0  0  0  0  0  0  0  0  0
    0.8924    1.6451   -0.5124 O   0  0  0  0  0  0  0  0  0  0  0  0
   -0.3522    0.1479    0.9007 C   0  0  0  0  0  0  0  0  0  0  0  0
   -0.5879   -0.9345   -0.0920 C   0  0  0  0  0  0  0  0  0  0  0  0
   -2.0511   -0.8343    0.2160 C   0  0  0  0  0  0  0  0  0  0  0  0
   -1.5225    0.5486    0.0581 C   0  0  0  0  0  0  0  0  0  0  0  0
   -0.8037    0.0664   -1.0300 O   0  0  0  0  0  0  0  0  0  0  0  0
    3.9021   -1.2416    0.9000 H   0  0  0  0  0  0  0  0  0  0  0  0
    0.8971    1.7580    1.5075 H   0  0  0  0  0  0  0  0  0  0  0  0
    1.3265    1.0190   -1.1665 H   0  0  0  0  0  0  0  0  0  0  0  0
   -0.5280   -0.0681    1.9518 H   0  0  0  0  0  0  0  0  0  0  0  0
   -0.0560   -1.7800   -0.2282 H   0  0  0  0  0  0  0  0  0  0  0  0
   -2.7161   -1.1288   -0.6222 H   0  0  0  0  0  0  0  0  0  0  0  0
   -2.3712   -1.1319    1.2208 H   0  0  0  0  0  0  0  0  0  0  0  0
   -2.0328    1.4170    0.1006 H   0  0  0  0  0  0  0  0  0  0  0  0
  1  2  3  0
  2  3  1  0
  3  4  1  0
  3  5  1  0
  5  6  1  0
  6  7  1  0
  7  8  1  0
  8  9  1  0
  8  5  1  0
  9  6  1  0
  1 10  1  0
  3 11  1  0
  4 12  1  0
  5 13  1  0
  6 14  1  0
  7 15  1  0
  7 16  1  0
  8 17  1  0
M  END
