
     RDKit          3D

 15 15  0  0  0  0  0  0  0  0999 V2000
    2.4488    1.4057   -0.3261 C   0  0  0  0  0  0  0  0  0  0  0  0
    1.4714    0.6936   -0.3448 C   0  0  0  0  0  0  0  0  0  0  0  0
    0.2985   -0.1925   -0.3649 C   0  0  0  0  0  0  0  0  0  0  0  0
    0.4366   -1.0224   -1.4792 O   0  0  0  0  0  0  0  0  0  0  0  0
    0.2256   -0.9799    0.9208 C   0  0  0  0  0  0  0  0  0  0  0  0
   -0.8363   -0.3844    1.6655 O   0  0  0  0  0  0  0  0  0  0  0  0
   -1.7374    0.1325    0.7771 C   0  0  0  0  0  0  0  0  0  0  0  0
   -2.9863    0.2436    0.9019 O   0  0  0  0  0  0  0  0  0  0  0  0
   -0.9885    0.5627   -0.4109 C   0  0  0  0  0  0  0  0  0  0  0  0
    3.2997    2.0458   -0.3006 H   0  0  0  0  0  0  0  0  0  0  0  0
   -0.4069   -1.5376   -1.5839 H   0  0  0  0  0  0  0  0  0  0  0  0
   -0.1214   -2.0086    0.6763 H   0  0  0  0  0  0  0  0  0  0  0  0
    1.1502   -1.0097    1.4856 H   0  0  0  0  0  0  0  0  0  0  0  0
   -0.7345    1.6499   -0.2555 H   0  0  0  0  0  0  0  0  0  0  0  0
   -1.5198    0.4012   -1.3613 H   0  0  0  0  0  0  0  0  0  0  0  0
  1  2  3  0
  2  3  1  0
  3  4  1  0
  3  5  1  0
  5  6  1  0
  6  7  1  0
  7  8  2  0
  7  9  1  0
  9  3  1  0
  1 10  1  0
  4 11  1  0
  5 12  1  0
  5 13  1  0
  9 14  1  0
  9 15  1  0
M  END
