
     RDKit          3D

 19 20  0  0  0  0  0  0  0  0999 V2000
    0.0866    2.5829    1.6448 C   0  0  0  0  0  0  0  0  0  0  0  0
    0.1519    1.6283    0.8750 C   0  0  0  0  0  0  0  0  0  0  0  0
    0.2333    0.4566   -0.0366 C   0  0  0  0  0  0  0  0  0  0  0  0
   -0.7792    0.6474   -1.1431 C   0  0  0  0  0  0  0  0  0  0  0  0
   -1.7417    0.4360    0.0437 C   0  0  0  0  0  0  0  0  0  0  0  0
   -0.7967   -0.7067    0.2755 C   0  0  0  0  0  0  0  0  0  0  0  0
    0.5773   -0.7422    0.6537 C   0  0  0  0  0  0  0  0  0  0  0  0
    1.6449   -1.5998   -0.0495 C   0  0  0  0  0  0  0  0  0  0  0  0
    1.1205   -1.9329   -1.2824 O   0  0  0  0  0  0  0  0  0  0  0  0
    0.0483    3.4030    2.3113 H   0  0  0  0  0  0  0  0  0  0  0  0
   -0.8275   -0.2031   -1.8188 H   0  0  0  0  0  0  0  0  0  0  0  0
   -0.7818    1.6546   -1.5454 H   0  0  0  0  0  0  0  0  0  0  0  0
   -1.8081    1.2363    0.7600 H   0  0  0  0  0  0  0  0  0  0  0  0
   -2.7477    0.1060   -0.2415 H   0  0  0  0  0  0  0  0  0  0  0  0
   -0.9576   -1.4214   -0.6027 H   0  0  0  0  0  0  0  0  0  0  0  0
    0.7722   -0.7760    1.7682 H   0  0  0  0  0  0  0  0  0  0  0  0
    2.5634   -1.0105   -0.1879 H   0  0  0  0  0  0  0  0  0  0  0  0
    1.8411   -2.5294    0.4990 H   0  0  0  0  0  0  0  0  0  0  0  0
    1.4008   -1.2291   -1.9233 H   0  0  0  0  0  0  0  0  0  0  0  0
  1  2  3  0
  2  3  1  0
  3  4  1  0
  4  5  1  0
  5  6  1  0
  6  7  1  0
  7  8  1  0
  8  9  1  0
  6  3  1  0
  7  3  1  0
  1 10  1  0
  4 11  1  0
  4 12  1  0
  5 13  1  0
  5 14  1  0
  6 15  1  0
  7 16  1  0
  8 17  1  0
  8 18  1  0
  9 19  1  0
M  END
