
     RDKit          3D

 19 19  0  0  0  0  0  0  0  0999 V2000
    0.6853    1.9970   -1.8850 C   0  0  0  0  0  0  0  0  0  0  0  0
    0.2275    1.1691   -0.8878 C   0  0  0  0  0  0  0  0  0  0  0  0
   -0.2597    0.3040    0.1246 C   0  0  0  0  0  0  0  0  0  0  0  0
   -1.5576    0.4573    0.5024 O   0  0  0  0  0  0  0  0  0  0  0  0
   -2.4964    0.2778   -0.4800 C   0  0  0  0  0  0  0  0  0  0  0  0
    0.2274   -1.1308   -0.0387 C   0  0  0  0  0  0  0  0  0  0  0  0
    1.5391   -0.6312    0.6370 C   0  0  0  0  0  0  0  0  0  0  0  0
    2.1093   -1.6119    1.4097 O   0  0  0  0  0  0  0  0  0  0  0  0
    0.6596    0.3687    1.3987 C   0  0  0  0  0  0  0  0  0  0  0  0
    0.9508    2.5021   -2.4988 H   0  0  0  0  0  0  0  0  0  0  0  0
   -2.4164    0.9789   -1.3410 H   0  0  0  0  0  0  0  0  0  0  0  0
   -3.5076    0.3561   -0.0498 H   0  0  0  0  0  0  0  0  0  0  0  0
   -2.4851   -0.7492   -0.9353 H   0  0  0  0  0  0  0  0  0  0  0  0
    0.4094   -1.5260   -1.0212 H   0  0  0  0  0  0  0  0  0  0  0  0
   -0.3032   -1.8369    0.6152 H   0  0  0  0  0  0  0  0  0  0  0  0
    2.1982   -0.1430   -0.0807 H   0  0  0  0  0  0  0  0  0  0  0  0
    2.6862   -2.1621    0.7824 H   0  0  0  0  0  0  0  0  0  0  0  0
    0.1926    0.0146    2.3013 H   0  0  0  0  0  0  0  0  0  0  0  0
    1.1404    1.3655    1.4468 H   0  0  0  0  0  0  0  0  0  0  0  0
  1  2  3  0
  2  3  1  0
  3  4  1  0
  4  5  1  0
  3  6  1  0
  6  7  1  0
  7  8  1  0
  7  9  1  0
  9  3  1  0
  1 10  1  0
  5 11  1  0
  5 12  1  0
  5 13  1  0
  6 14  1  0
  6 15  1  0
  7 16  1  0
  8 17  1  0
  9 18  1  0
  9 19  1  0
M  END
