
     RDKit          3D

 16 16  0  0  0  0  0  0  0  0999 V2000
    2.8604   -1.7147    0.2909 C   0  0  0  0  0  0  0  0  0  0  0  0
    1.7828   -1.2412   -0.0799 C   0  0  0  0  0  0  0  0  0  0  0  0
    0.5010   -0.7029   -0.5085 C   0  0  0  0  0  0  0  0  0  0  0  0
    0.4512    0.7821   -0.6478 C   0  0  0  0  0  0  0  0  0  0  0  0
   -0.2077    1.2979   -1.7287 O   0  0  0  0  0  0  0  0  0  0  0  0
   -0.3440    0.0182    0.4399 C   0  0  0  0  0  0  0  0  0  0  0  0
   -1.8382    0.1748    0.2063 C   0  0  0  0  0  0  0  0  0  0  0  0
    0.0394    0.1818    1.7605 O   0  0  0  0  0  0  0  0  0  0  0  0
    3.7982   -2.1218    0.5941 H   0  0  0  0  0  0  0  0  0  0  0  0
    0.0129   -1.2752   -1.3258 H   0  0  0  0  0  0  0  0  0  0  0  0
    1.2479    1.4345   -0.2464 H   0  0  0  0  0  0  0  0  0  0  0  0
   -0.9200    1.9370   -1.5331 H   0  0  0  0  0  0  0  0  0  0  0  0
   -2.0604    0.3262   -0.8769 H   0  0  0  0  0  0  0  0  0  0  0  0
   -2.3481   -0.7190    0.6135 H   0  0  0  0  0  0  0  0  0  0  0  0
   -2.2573    1.0695    0.7252 H   0  0  0  0  0  0  0  0  0  0  0  0
   -0.7181    0.5528    2.3168 H   0  0  0  0  0  0  0  0  0  0  0  0
  1  2  3  0
  2  3  1  0
  3  4  1  0
  4  5  1  0
  4  6  1  0
  6  7  1  0
  6  8  1  0
  6  3  1  0
  1  9  1  0
  3 10  1  0
  4 11  1  0
  5 12  1  0
  7 13  1  0
  7 14  1  0
  7 15  1  0
  8 16  1  0
M  END
