
     RDKit          3D

 19 18  0  0  0  0  0  0  0  0999 V2000
    1.3558    1.1581   -2.6710 C   0  0  0  0  0  0  0  0  0  0  0  0
    0.5567    0.4562   -1.9797 C   0  0  0  0  0  0  0  0  0  0  0  0
   -0.3210   -0.3106   -1.1936 C   0  0  0  0  0  0  0  0  0  0  0  0
   -0.5210    0.2536    0.1929 C   0  0  0  0  0  0  0  0  0  0  0  0
   -1.4842   -0.5980    0.9626 C   0  0  0  0  0  0  0  0  0  0  0  0
   -1.0485    1.5558    0.0061 O   0  0  0  0  0  0  0  0  0  0  0  0
    0.7843    0.3783    0.9456 C   0  0  0  0  0  0  0  0  0  0  0  0
    1.4776   -0.9744    1.1017 C   0  0  0  0  0  0  0  0  0  0  0  0
    1.0087   -1.9780    0.6736 O   0  0  0  0  0  0  0  0  0  0  0  0
    2.1084    1.8332   -3.3089 H   0  0  0  0  0  0  0  0  0  0  0  0
   -1.3024   -0.4625   -1.6828 H   0  0  0  0  0  0  0  0  0  0  0  0
    0.1145   -1.3634   -1.0796 H   0  0  0  0  0  0  0  0  0  0  0  0
   -2.0669    0.0969    1.6473 H   0  0  0  0  0  0  0  0  0  0  0  0
   -2.2111   -1.1222    0.2925 H   0  0  0  0  0  0  0  0  0  0  0  0
   -0.9336   -1.3183    1.6164 H   0  0  0  0  0  0  0  0  0  0  0  0
   -1.9951    1.5708    0.3563 H   0  0  0  0  0  0  0  0  0  0  0  0
    0.6088    0.6797    1.9943 H   0  0  0  0  0  0  0  0  0  0  0  0
    1.4569    1.1198    0.5106 H   0  0  0  0  0  0  0  0  0  0  0  0
    2.4121   -0.9751    1.6158 H   0  0  0  0  0  0  0  0  0  0  0  0
  1  2  3  0
  2  3  1  0
  3  4  1  0
  4  5  1  0
  4  6  1  0
  4  7  1  0
  7  8  1  0
  8  9  2  0
  1 10  1  0
  3 11  1  0
  3 12  1  0
  5 13  1  0
  5 14  1  0
  5 15  1  0
  6 16  1  0
  7 17  1  0
  7 18  1  0
  8 19  1  0
M  END
