
     RDKit          3D

 23 23  0  0  0  0  0  0  0  0999 V2000
   -3.3555   -0.7983    0.8246 C   0  0  0  0  0  0  0  0  0  0  0  0
   -2.5333   -0.6341    0.1403 C   0  0  0  0  0  0  0  0  0  0  0  0
   -1.6409   -0.4424   -0.6252 C   0  0  0  0  0  0  0  0  0  0  0  0
   -1.4701    0.6905   -1.5728 C   0  0  0  0  0  0  0  0  0  0  0  0
   -0.2129   -0.6449    0.1343 C   0  0  0  0  0  0  0  0  0  0  0  0
    0.2662    0.5318    1.0220 C   0  0  0  0  0  0  0  0  0  0  0  0
    1.6375   -0.0244    0.7609 C   0  0  0  0  0  0  0  0  0  0  0  0
    2.8076    0.7976    0.3727 C   0  0  0  0  0  0  0  0  0  0  0  0
    1.0574   -0.8157   -0.4597 C   0  0  0  0  0  0  0  0  0  0  0  0
   -4.5286   -1.0165    1.8043 H   0  0  0  0  0  0  0  0  0  0  0  0
   -1.5318   -1.4599   -1.3365 H   0  0  0  0  0  0  0  0  0  0  0  0
   -1.4806    0.3793   -2.6063 H   0  0  0  0  0  0  0  0  0  0  0  0
   -0.5862    1.3388   -1.3094 H   0  0  0  0  0  0  0  0  0  0  0  0
   -2.4200    1.3723   -1.4057 H   0  0  0  0  0  0  0  0  0  0  0  0
   -0.4195   -1.4777    0.9528 H   0  0  0  0  0  0  0  0  0  0  0  0
    0.2976    1.5323    0.4529 H   0  0  0  0  0  0  0  0  0  0  0  0
   -0.0959    0.5249    2.0213 H   0  0  0  0  0  0  0  0  0  0  0  0
    1.8636   -0.8453    1.5590 H   0  0  0  0  0  0  0  0  0  0  0  0
    2.7726    1.9085    0.5871 H   0  0  0  0  0  0  0  0  0  0  0  0
    3.7219    0.4260    1.0235 H   0  0  0  0  0  0  0  0  0  0  0  0
    3.1388    0.6815   -0.6580 H   0  0  0  0  0  0  0  0  0  0  0  0
    1.2247   -0.1846   -1.3838 H   0  0  0  0  0  0  0  0  0  0  0  0
    1.4872   -1.8399   -0.5055 H   0  0  0  0  0  0  0  0  0  0  0  0
  1  2  3  0
  2  3  1  0
  3  4  1  0
  3  5  1  0
  5  6  1  0
  6  7  1  0
  7  8  1  0
  7  9  1  0
  9  5  1  0
  1 10  1  0
  3 11  1  0
  4 12  1  0
  4 13  1  0
  4 14  1  0
  5 15  1  0
  6 16  1  0
  6 17  1  0
  7 18  1  0
  8 19  1  0
  8 20  1  0
  8 21  1  0
  9 22  1  0
  9 23  1  0
M  END
