
     RDKit          3D

 19 20  0  0  0  0  0  0  0  0999 V2000
    2.5206   -1.4818    0.9861 C   0  0  0  0  0  0  0  0  0  0  0  0
    1.3922   -1.0423    1.0119 C   0  0  0  0  0  0  0  0  0  0  0  0
    0.0356   -0.4934    1.0333 C   0  0  0  0  0  0  0  0  0  0  0  0
   -0.0787    0.8646    0.4811 C   0  0  0  0  0  0  0  0  0  0  0  0
    0.6665    1.1234   -0.7862 C   0  0  0  0  0  0  0  0  0  0  0  0
    1.9562    0.6016   -0.7340 O   0  0  0  0  0  0  0  0  0  0  0  0
   -0.2527    0.1440   -1.4821 C   0  0  0  0  0  0  0  0  0  0  0  0
   -0.7653   -0.3719   -0.1887 C   0  0  0  0  0  0  0  0  0  0  0  0
   -2.2736   -0.4285   -0.0782 C   0  0  0  0  0  0  0  0  0  0  0  0
    3.5122   -1.8830    0.9510 H   0  0  0  0  0  0  0  0  0  0  0  0
   -0.5501   -0.6777    1.9692 H   0  0  0  0  0  0  0  0  0  0  0  0
   -0.7570    1.6236    0.9049 H   0  0  0  0  0  0  0  0  0  0  0  0
    0.6218    2.1576   -1.1782 H   0  0  0  0  0  0  0  0  0  0  0  0
    2.5686    1.1955   -0.1979 H   0  0  0  0  0  0  0  0  0  0  0  0
   -0.9805    0.7083   -2.1094 H   0  0  0  0  0  0  0  0  0  0  0  0
    0.2933   -0.6102   -2.1114 H   0  0  0  0  0  0  0  0  0  0  0  0
   -2.6914    0.4969    0.3252 H   0  0  0  0  0  0  0  0  0  0  0  0
   -2.6678   -0.6504   -1.1015 H   0  0  0  0  0  0  0  0  0  0  0  0
   -2.5500   -1.2763    0.5955 H   0  0  0  0  0  0  0  0  0  0  0  0
  1  2  3  0
  2  3  1  0
  3  4  1  0
  4  5  1  0
  5  6  1  0
  5  7  1  0
  7  8  1  0
  8  9  1  0
  8  3  1  0
  8  4  1  0
  1 10  1  0
  3 11  1  0
  4 12  1  0
  5 13  1  0
  6 14  1  0
  7 15  1  0
  7 16  1  0
  9 17  1  0
  9 18  1  0
  9 19  1  0
M  END
