
     RDKit          3D

 17 18  0  0  0  0  0  0  0  0999 V2000
    2.6473   -1.1463    0.0915 C   0  0  0  0  0  0  0  0  0  0  0  0
    1.7549   -0.3542    0.1062 C   0  0  0  0  0  0  0  0  0  0  0  0
    0.6638    0.5812    0.1282 C   0  0  0  0  0  0  0  0  0  0  0  0
    0.5561    1.6561   -0.9206 C   0  0  0  0  0  0  0  0  0  0  0  0
   -0.7560    1.2146   -1.1575 O   0  0  0  0  0  0  0  0  0  0  0  0
   -0.7026    0.2144   -0.2202 C   0  0  0  0  0  0  0  0  0  0  0  0
   -1.1091   -1.1950   -0.5615 C   0  0  0  0  0  0  0  0  0  0  0  0
   -2.4468   -1.2150   -0.9740 O   0  0  0  0  0  0  0  0  0  0  0  0
   -0.3636    0.5455    1.1910 C   0  0  0  0  0  0  0  0  0  0  0  0
    3.4405   -1.8752    0.0769 H   0  0  0  0  0  0  0  0  0  0  0  0
    1.2400    1.4958   -1.8006 H   0  0  0  0  0  0  0  0  0  0  0  0
    0.6172    2.6546   -0.4585 H   0  0  0  0  0  0  0  0  0  0  0  0
   -1.0219   -1.8098    0.3569 H   0  0  0  0  0  0  0  0  0  0  0  0
   -0.5055   -1.6322   -1.3882 H   0  0  0  0  0  0  0  0  0  0  0  0
   -2.9263   -0.3730   -0.6998 H   0  0  0  0  0  0  0  0  0  0  0  0
   -0.7144    1.5374    1.5597 H   0  0  0  0  0  0  0  0  0  0  0  0
   -0.3737   -0.2989    1.9009 H   0  0  0  0  0  0  0  0  0  0  0  0
  1  2  3  0
  2  3  1  0
  3  4  1  0
  4  5  1  0
  5  6  1  0
  6  7  1  0
  7  8  1  0
  6  9  1  0
  6  3  1  0
  9  3  1  0
  1 10  1  0
  4 11  1  0
  4 12  1  0
  7 13  1  0
  7 14  1  0
  8 15  1  0
  9 16  1  0
  9 17  1  0
M  END
