
     RDKit          3D

 17 17  0  0  0  0  0  0  0  0999 V2000
    1.1160    0.1710   -2.7889 C   0  0  0  0  0  0  0  0  0  0  0  0
    0.6566    0.2293   -1.6717 C   0  0  0  0  0  0  0  0  0  0  0  0
    0.0817    0.2846   -0.3272 C   0  0  0  0  0  0  0  0  0  0  0  0
   -0.2858    1.6960    0.1046 C   0  0  0  0  0  0  0  0  0  0  0  0
    0.8383   -0.5013    0.7131 C   0  0  0  0  0  0  0  0  0  0  0  0
   -0.3200   -1.4501    0.7911 C   0  0  0  0  0  0  0  0  0  0  0  0
   -0.9701   -1.4853    2.0447 O   0  0  0  0  0  0  0  0  0  0  0  0
   -1.1153   -0.5966   -0.1336 C   0  0  0  0  0  0  0  0  0  0  0  0
   -2.2374   -0.5294   -0.6060 O   0  0  0  0  0  0  0  0  0  0  0  0
    1.5072    0.1172   -3.7886 H   0  0  0  0  0  0  0  0  0  0  0  0
    0.4608    2.4055   -0.2823 H   0  0  0  0  0  0  0  0  0  0  0  0
   -1.3208    1.9010   -0.2589 H   0  0  0  0  0  0  0  0  0  0  0  0
   -0.3179    1.7364    1.2060 H   0  0  0  0  0  0  0  0  0  0  0  0
    0.9753    0.0501    1.6658 H   0  0  0  0  0  0  0  0  0  0  0  0
    1.8049   -0.9286    0.3847 H   0  0  0  0  0  0  0  0  0  0  0  0
   -0.0937   -2.4632    0.4311 H   0  0  0  0  0  0  0  0  0  0  0  0
   -0.7798   -0.6367    2.5162 H   0  0  0  0  0  0  0  0  0  0  0  0
  1  2  3  0
  2  3  1  0
  3  4  1  0
  3  5  1  0
  5  6  1  0
  6  7  1  0
  6  8  1  0
  8  9  2  0
  8  3  1  0
  1 10  1  0
  4 11  1  0
  4 12  1  0
  4 13  1  0
  5 14  1  0
  5 15  1  0
  6 16  1  0
  7 17  1  0
M  END
