
     RDKit          3D

 14 14  0  0  0  0  0  0  0  0999 V2000
    2.7969   -0.3024    0.8336 C   0  0  0  0  0  0  0  0  0  0  0  0
    1.7688   -0.4498    0.2550 C   0  0  0  0  0  0  0  0  0  0  0  0
    0.5087   -0.6206   -0.4508 C   0  0  0  0  0  0  0  0  0  0  0  0
   -0.1294   -1.8566   -0.2977 O   0  0  0  0  0  0  0  0  0  0  0  0
   -1.3537   -1.1600   -0.3314 C   0  0  0  0  0  0  0  0  0  0  0  0
   -2.5205   -1.3762   -0.7457 O   0  0  0  0  0  0  0  0  0  0  0  0
   -0.6743   -0.0481    0.3380 C   0  0  0  0  0  0  0  0  0  0  0  0
   -0.9724    1.3303   -0.1304 C   0  0  0  0  0  0  0  0  0  0  0  0
    3.7334   -0.1836    1.3476 H   0  0  0  0  0  0  0  0  0  0  0  0
    0.4883   -0.3020   -1.5013 H   0  0  0  0  0  0  0  0  0  0  0  0
   -0.6050   -0.1999    1.4187 H   0  0  0  0  0  0  0  0  0  0  0  0
   -1.5299    1.9488    0.6131 H   0  0  0  0  0  0  0  0  0  0  0  0
   -1.5248    1.3558   -1.0964 H   0  0  0  0  0  0  0  0  0  0  0  0
    0.0139    1.8643   -0.2524 H   0  0  0  0  0  0  0  0  0  0  0  0
  1  2  3  0
  2  3  1  0
  3  4  1  0
  4  5  1  0
  5  6  2  0
  5  7  1  0
  7  8  1  0
  7  3  1  0
  1  9  1  0
  3 10  1  0
  7 11  1  0
  8 12  1  0
  8 13  1  0
  8 14  1  0
M  END
