
     RDKit          3D

 17 18  0  0  0  0  0  0  0  0999 V2000
    2.5168   -1.3496    2.1237 C   0  0  0  0  0  0  0  0  0  0  0  0
    1.5237   -1.5010    1.4647 C   0  0  0  0  0  0  0  0  0  0  0  0
    0.3242   -1.7046    0.6493 C   0  0  0  0  0  0  0  0  0  0  0  0
   -0.1892   -0.4067    0.1373 C   0  0  0  0  0  0  0  0  0  0  0  0
   -1.4039    0.0467    0.4179 C   0  0  0  0  0  0  0  0  0  0  0  0
   -1.6185    1.3422   -0.2257 C   0  0  0  0  0  0  0  0  0  0  0  0
   -0.3106    1.7651   -0.7965 C   0  0  0  0  0  0  0  0  0  0  0  0
    0.8575    1.7383   -0.0731 O   0  0  0  0  0  0  0  0  0  0  0  0
    0.5323    0.5564   -0.7295 C   0  0  0  0  0  0  0  0  0  0  0  0
    3.3984   -1.2003    2.6969 H   0  0  0  0  0  0  0  0  0  0  0  0
    0.5590   -2.4168   -0.1658 H   0  0  0  0  0  0  0  0  0  0  0  0
   -0.4174   -2.2008    1.3041 H   0  0  0  0  0  0  0  0  0  0  0  0
   -2.1555   -0.4715    1.0472 H   0  0  0  0  0  0  0  0  0  0  0  0
   -2.0263    2.0426    0.5324 H   0  0  0  0  0  0  0  0  0  0  0  0
   -2.3476    1.1942   -1.0559 H   0  0  0  0  0  0  0  0  0  0  0  0
   -0.3423    2.3415   -1.7647 H   0  0  0  0  0  0  0  0  0  0  0  0
    1.0995    0.2243   -1.5977 H   0  0  0  0  0  0  0  0  0  0  0  0
  1  2  3  0
  2  3  1  0
  3  4  1  0
  4  5  2  0
  5  6  1  0
  6  7  1  0
  7  8  1  0
  8  9  1  0
  9  4  1  0
  9  7  1  0
  1 10  1  0
  3 11  1  0
  3 12  1  0
  5 13  1  0
  6 14  1  0
  6 15  1  0
  7 16  1  0
  9 17  1  0
M  END
