
     RDKit          3D

 19 20  0  0  0  0  0  0  0  0999 V2000
    2.0060   -0.9431    2.3878 C   0  0  0  0  0  0  0  0  0  0  0  0
    1.4927   -0.6574    1.3359 C   0  0  0  0  0  0  0  0  0  0  0  0
    0.8880   -0.3273    0.0532 C   0  0  0  0  0  0  0  0  0  0  0  0
   -0.5610   -0.7209    0.0177 C   0  0  0  0  0  0  0  0  0  0  0  0
   -0.8646   -1.8730   -0.9228 C   0  0  0  0  0  0  0  0  0  0  0  0
   -0.8399    0.6494   -0.6116 C   0  0  0  0  0  0  0  0  0  0  0  0
   -0.6139    1.7919    0.2847 C   0  0  0  0  0  0  0  0  0  0  0  0
   -0.8937    3.0438   -0.2185 O   0  0  0  0  0  0  0  0  0  0  0  0
    0.5843    1.1102   -0.1839 C   0  0  0  0  0  0  0  0  0  0  0  0
    2.4493   -1.1961    3.3388 H   0  0  0  0  0  0  0  0  0  0  0  0
    1.4100   -0.7764   -0.8304 H   0  0  0  0  0  0  0  0  0  0  0  0
   -1.0550   -0.8152    0.9916 H   0  0  0  0  0  0  0  0  0  0  0  0
   -0.1373   -1.9485   -1.7398 H   0  0  0  0  0  0  0  0  0  0  0  0
   -1.9054   -1.7994   -1.3205 H   0  0  0  0  0  0  0  0  0  0  0  0
   -0.8484   -2.8038   -0.3110 H   0  0  0  0  0  0  0  0  0  0  0  0
   -1.0182    0.7211   -1.6812 H   0  0  0  0  0  0  0  0  0  0  0  0
   -0.9973    1.6505    1.3379 H   0  0  0  0  0  0  0  0  0  0  0  0
   -0.2801    3.2676   -0.9645 H   0  0  0  0  0  0  0  0  0  0  0  0
    1.1846    1.6265   -0.9633 H   0  0  0  0  0  0  0  0  0  0  0  0
  1  2  3  0
  2  3  1  0
  3  4  1  0
  4  5  1  0
  4  6  1  0
  6  7  1  0
  7  8  1  0
  7  9  1  0
  9  3  1  0
  9  6  1  0
  1 10  1  0
  3 11  1  0
  4 12  1  0
  5 13  1  0
  5 14  1  0
  5 15  1  0
  6 16  1  0
  7 17  1  0
  8 18  1  0
  9 19  1  0
M  END
