
     RDKit          3D

 19 20  0  0  0  0  0  0  0  0999 V2000
    3.7985    0.6541    0.5921 C   0  0  0  0  0  0  0  0  0  0  0  0
    2.8238   -0.0582    0.5800 C   0  0  0  0  0  0  0  0  0  0  0  0
    1.6324   -0.9356    0.5401 C   0  0  0  0  0  0  0  0  0  0  0  0
    0.6389   -0.3351   -0.4008 C   0  0  0  0  0  0  0  0  0  0  0  0
    0.1827    0.9271   -0.0965 O   0  0  0  0  0  0  0  0  0  0  0  0
   -1.1769    0.6319   -0.1657 C   0  0  0  0  0  0  0  0  0  0  0  0
   -2.0896    1.0380    0.9536 C   0  0  0  0  0  0  0  0  0  0  0  0
   -1.7196   -0.2100   -1.2668 C   0  0  0  0  0  0  0  0  0  0  0  0
   -0.7749   -0.8339   -0.2969 C   0  0  0  0  0  0  0  0  0  0  0  0
    4.6639    1.2673    0.6128 H   0  0  0  0  0  0  0  0  0  0  0  0
    1.2608   -1.1246    1.5469 H   0  0  0  0  0  0  0  0  0  0  0  0
    1.9293   -1.9307    0.1104 H   0  0  0  0  0  0  0  0  0  0  0  0
    0.9989   -0.4564   -1.4640 H   0  0  0  0  0  0  0  0  0  0  0  0
   -3.1074    0.6935    0.6962 H   0  0  0  0  0  0  0  0  0  0  0  0
   -2.1041    2.1464    0.9829 H   0  0  0  0  0  0  0  0  0  0  0  0
   -1.8199    0.6066    1.9329 H   0  0  0  0  0  0  0  0  0  0  0  0
   -1.2766   -0.0782   -2.2956 H   0  0  0  0  0  0  0  0  0  0  0  0
   -2.7664   -0.4957   -1.1747 H   0  0  0  0  0  0  0  0  0  0  0  0
   -1.0937   -1.5065    0.4942 H   0  0  0  0  0  0  0  0  0  0  0  0
  1  2  3  0
  2  3  1  0
  3  4  1  0
  4  5  1  0
  5  6  1  0
  6  7  1  0
  6  8  1  0
  8  9  1  0
  9  4  1  0
  9  6  1  0
  1 10  1  0
  3 11  1  0
  3 12  1  0
  4 13  1  0
  7 14  1  0
  7 15  1  0
  7 16  1  0
  8 17  1  0
  8 18  1  0
  9 19  1  0
M  END
