
     RDKit          3D

 23 23  0  0  0  0  0  0  0  0999 V2000
    1.7535   -3.4804    1.2714 C   0  0  0  0  0  0  0  0  0  0  0  0
    1.0388   -2.7745    0.5863 C   0  0  0  0  0  0  0  0  0  0  0  0
    0.2315   -1.9701   -0.2194 C   0  0  0  0  0  0  0  0  0  0  0  0
    0.5089   -0.4991   -0.1313 C   0  0  0  0  0  0  0  0  0  0  0  0
    0.4213    0.0780    1.2655 C   0  0  0  0  0  0  0  0  0  0  0  0
    1.3073    0.2293   -1.1283 C   0  0  0  0  0  0  0  0  0  0  0  0
   -0.2121    0.2895   -1.2217 C   0  0  0  0  0  0  0  0  0  0  0  0
   -0.9076    1.5423   -0.8204 C   0  0  0  0  0  0  0  0  0  0  0  0
   -1.9684    1.2450    0.2462 C   0  0  0  0  0  0  0  0  0  0  0  0
    2.4234   -4.1282    1.9247 H   0  0  0  0  0  0  0  0  0  0  0  0
    0.2739   -2.3189   -1.2907 H   0  0  0  0  0  0  0  0  0  0  0  0
   -0.8526   -2.0961    0.1460 H   0  0  0  0  0  0  0  0  0  0  0  0
    1.2818   -0.3885    1.8481 H   0  0  0  0  0  0  0  0  0  0  0  0
    0.5947    1.1672    1.2861 H   0  0  0  0  0  0  0  0  0  0  0  0
   -0.4702   -0.2329    1.8233 H   0  0  0  0  0  0  0  0  0  0  0  0
    1.8218   -0.2884   -1.9853 H   0  0  0  0  0  0  0  0  0  0  0  0
    1.8672    1.1453   -0.8287 H   0  0  0  0  0  0  0  0  0  0  0  0
   -0.6687   -0.3276   -2.0151 H   0  0  0  0  0  0  0  0  0  0  0  0
   -0.2801    2.3817   -0.5008 H   0  0  0  0  0  0  0  0  0  0  0  0
   -1.4761    1.9225   -1.7254 H   0  0  0  0  0  0  0  0  0  0  0  0
   -2.1598    0.1485    0.3078 H   0  0  0  0  0  0  0  0  0  0  0  0
   -2.9110    1.7888   -0.0184 H   0  0  0  0  0  0  0  0  0  0  0  0
   -1.6175    1.6969    1.1802 H   0  0  0  0  0  0  0  0  0  0  0  0
  1  2  3  0
  2  3  1  0
  3  4  1  0
  4  5  1  0
  4  6  1  0
  6  7  1  0
  7  8  1  0
  8  9  1  0
  7  4  1  0
  1 10  1  0
  3 11  1  0
  3 12  1  0
  5 13  1  0
  5 14  1  0
  5 15  1  0
  6 16  1  0
  6 17  1  0
  7 18  1  0
  8 19  1  0
  8 20  1  0
  9 21  1  0
  9 22  1  0
  9 23  1  0
M  END
