
     RDKit          3D

 18 18  0  0  0  0  0  0  0  0999 V2000
    3.2086   -0.4567   -0.5221 C   0  0  0  0  0  0  0  0  0  0  0  0
    2.0516   -0.4310   -0.1804 C   0  0  0  0  0  0  0  0  0  0  0  0
    0.6432   -0.3976    0.2502 C   0  0  0  0  0  0  0  0  0  0  0  0
    0.2345    1.0388    0.4025 C   0  0  0  0  0  0  0  0  0  0  0  0
   -1.2488    1.2537    0.2617 C   0  0  0  0  0  0  0  0  0  0  0  0
   -1.8876   -0.1408    0.2855 C   0  0  0  0  0  0  0  0  0  0  0  0
   -1.4664   -0.7646   -0.8732 O   0  0  0  0  0  0  0  0  0  0  0  0
   -0.1661   -1.1733   -0.7222 C   0  0  0  0  0  0  0  0  0  0  0  0
    4.2383   -0.4673   -0.8326 H   0  0  0  0  0  0  0  0  0  0  0  0
    0.6319   -0.9195    1.2494 H   0  0  0  0  0  0  0  0  0  0  0  0
    0.8110    1.6512   -0.3300 H   0  0  0  0  0  0  0  0  0  0  0  0
    0.5296    1.4206    1.4040 H   0  0  0  0  0  0  0  0  0  0  0  0
   -1.4923    1.6581   -0.7532 H   0  0  0  0  0  0  0  0  0  0  0  0
   -1.6747    1.9009    1.0489 H   0  0  0  0  0  0  0  0  0  0  0  0
   -1.5332   -0.6419    1.2076 H   0  0  0  0  0  0  0  0  0  0  0  0
   -2.9799   -0.0890    0.2942 H   0  0  0  0  0  0  0  0  0  0  0  0
    0.2969   -1.1776   -1.7517 H   0  0  0  0  0  0  0  0  0  0  0  0
   -0.1968   -2.2640   -0.4386 H   0  0  0  0  0  0  0  0  0  0  0  0
  1  2  3  0
  2  3  1  0
  3  4  1  0
  4  5  1  0
  5  6  1  0
  6  7  1  0
  7  8  1  0
  8  3  1  0
  1  9  1  0
  3 10  1  0
  4 11  1  0
  4 12  1  0
  5 13  1  0
  5 14  1  0
  6 15  1  0
  6 16  1  0
  8 17  1  0
  8 18  1  0
M  END
