
     RDKit          3D

 17 17  0  0  0  0  0  0  0  0999 V2000
    1.4221   -1.7436   -1.6021 C   0  0  0  0  0  0  0  0  0  0  0  0
    1.8479   -1.0960   -0.3913 C   0  0  0  0  0  0  0  0  0  0  0  0
    2.2716   -0.4139    0.8609 C   0  0  0  0  0  0  0  0  0  0  0  0
    3.2148   -0.9679    1.1336 O   0  0  0  0  0  0  0  0  0  0  0  0
    1.2355    0.5761    1.0719 C   0  0  0  0  0  0  0  0  0  0  0  0
    0.0973    0.0081    1.8444 O   0  0  0  0  0  0  0  0  0  0  0  0
   -0.0545    0.7793    0.6274 C   0  0  0  0  0  0  0  0  0  0  0  0
   -0.8839    0.0273   -0.3901 C   0  0  0  0  0  0  0  0  0  0  0  0
   -2.2676    0.5500   -0.5534 C   0  0  0  0  0  0  0  0  0  0  0  0
    1.1250   -2.2290   -2.4838 H   0  0  0  0  0  0  0  0  0  0  0  0
    1.6041    1.3334    1.8875 H   0  0  0  0  0  0  0  0  0  0  0  0
   -0.5631    1.7879    0.8403 H   0  0  0  0  0  0  0  0  0  0  0  0
   -0.3823    0.2943   -1.4150 H   0  0  0  0  0  0  0  0  0  0  0  0
   -0.8134   -1.0738   -0.2804 H   0  0  0  0  0  0  0  0  0  0  0  0
   -2.2966    1.6599   -0.4136 H   0  0  0  0  0  0  0  0  0  0  0  0
   -2.4335    0.5355   -1.7240 H   0  0  0  0  0  0  0  0  0  0  0  0
   -3.1233   -0.0276   -0.2066 H   0  0  0  0  0  0  0  0  0  0  0  0
  1  2  3  0
  2  3  1  0
  3  4  2  0
  3  5  1  0
  5  6  1  0
  6  7  1  0
  7  8  1  0
  8  9  1  0
  7  5  1  0
  1 10  1  0
  5 11  1  0
  7 12  1  0
  8 13  1  0
  8 14  1  0
  9 15  1  0
  9 16  1  0
  9 17  1  0
M  END
