
     RDKit          3D

 20 19  0  0  0  0  0  0  0  0999 V2000
    2.1881    1.2212   -2.2491 C   0  0  0  0  0  0  0  0  0  0  0  0
    1.7510    0.7700   -1.2318 C   0  0  0  0  0  0  0  0  0  0  0  0
    1.2030    0.2385    0.0207 C   0  0  0  0  0  0  0  0  0  0  0  0
    2.1928   -0.7755    0.5570 C   0  0  0  0  0  0  0  0  0  0  0  0
    0.0152   -0.4168   -0.2199 O   0  0  0  0  0  0  0  0  0  0  0  0
   -1.0406    0.0622    0.5415 C   0  0  0  0  0  0  0  0  0  0  0  0
   -2.0748    0.6369   -0.4017 C   0  0  0  0  0  0  0  0  0  0  0  0
   -1.6758   -0.9752    1.4080 C   0  0  0  0  0  0  0  0  0  0  0  0
    2.5736    1.6371   -3.1415 H   0  0  0  0  0  0  0  0  0  0  0  0
    1.0889    1.0358    0.7881 H   0  0  0  0  0  0  0  0  0  0  0  0
    3.1653   -0.3222    0.8036 H   0  0  0  0  0  0  0  0  0  0  0  0
    1.7144   -1.2435    1.4521 H   0  0  0  0  0  0  0  0  0  0  0  0
    2.3232   -1.5395   -0.2431 H   0  0  0  0  0  0  0  0  0  0  0  0
   -0.7170    0.9012    1.2140 H   0  0  0  0  0  0  0  0  0  0  0  0
   -1.9636    1.7328   -0.5390 H   0  0  0  0  0  0  0  0  0  0  0  0
   -2.0750    0.1234   -1.3873 H   0  0  0  0  0  0  0  0  0  0  0  0
   -3.1134    0.4959    0.0127 H   0  0  0  0  0  0  0  0  0  0  0  0
   -1.8810   -1.9289    0.9082 H   0  0  0  0  0  0  0  0  0  0  0  0
   -1.0183   -1.1055    2.3159 H   0  0  0  0  0  0  0  0  0  0  0  0
   -2.6558   -0.5479    1.7634 H   0  0  0  0  0  0  0  0  0  0  0  0
  1  2  3  0
  2  3  1  0
  3  4  1  0
  3  5  1  0
  5  6  1  0
  6  7  1  0
  6  8  1  0
  1  9  1  0
  3 10  1  0
  4 11  1  0
  4 12  1  0
  4 13  1  0
  6 14  1  0
  7 15  1  0
  7 16  1  0
  7 17  1  0
  8 18  1  0
  8 19  1  0
  8 20  1  0
M  END
