
     RDKit          3D

 19 20  0  0  0  0  0  0  0  0999 V2000
    2.9748    0.0879    1.3531 C   0  0  0  0  0  0  0  0  0  0  0  0
    1.9351    0.0374    0.7176 C   0  0  0  0  0  0  0  0  0  0  0  0
    0.6976   -0.0352   -0.0150 C   0  0  0  0  0  0  0  0  0  0  0  0
   -0.4125    0.8451    0.5159 C   0  0  0  0  0  0  0  0  0  0  0  0
   -0.6807    1.9797   -0.4368 C   0  0  0  0  0  0  0  0  0  0  0  0
   -1.3396   -0.3065    0.4732 C   0  0  0  0  0  0  0  0  0  0  0  0
   -1.4148   -1.2927   -0.5978 C   0  0  0  0  0  0  0  0  0  0  0  0
   -0.1835   -1.2113    0.2604 C   0  0  0  0  0  0  0  0  0  0  0  0
    0.1631   -2.2049    1.1152 O   0  0  0  0  0  0  0  0  0  0  0  0
    3.8811    0.1230    1.8881 H   0  0  0  0  0  0  0  0  0  0  0  0
    0.8728    0.1103   -1.1209 H   0  0  0  0  0  0  0  0  0  0  0  0
   -0.1884    1.1990    1.5650 H   0  0  0  0  0  0  0  0  0  0  0  0
   -1.7235    2.3295   -0.3545 H   0  0  0  0  0  0  0  0  0  0  0  0
   -0.5098    1.6011   -1.4607 H   0  0  0  0  0  0  0  0  0  0  0  0
    0.0587    2.7844   -0.1567 H   0  0  0  0  0  0  0  0  0  0  0  0
   -2.0276   -0.4132    1.3222 H   0  0  0  0  0  0  0  0  0  0  0  0
   -2.0226   -2.1835   -0.4346 H   0  0  0  0  0  0  0  0  0  0  0  0
   -1.2086   -1.0732   -1.6640 H   0  0  0  0  0  0  0  0  0  0  0  0
    1.1283   -2.3770    1.2055 H   0  0  0  0  0  0  0  0  0  0  0  0
  1  2  3  0
  2  3  1  0
  3  4  1  0
  4  5  1  0
  4  6  1  0
  6  7  1  0
  7  8  1  0
  8  9  1  0
  8  3  1  0
  8  6  1  0
  1 10  1  0
  3 11  1  0
  4 12  1  0
  5 13  1  0
  5 14  1  0
  5 15  1  0
  6 16  1  0
  7 17  1  0
  7 18  1  0
  9 19  1  0
M  END
