
     RDKit          3D

 17 16  0  0  0  0  0  0  0  0999 V2000
    4.1825    0.1258    0.1988 C   0  0  0  0  0  0  0  0  0  0  0  0
    3.2249   -0.6001    0.1898 C   0  0  0  0  0  0  0  0  0  0  0  0
    2.0345   -1.4746    0.1919 C   0  0  0  0  0  0  0  0  0  0  0  0
    0.8117   -0.6986   -0.0661 C   0  0  0  0  0  0  0  0  0  0  0  0
   -0.1976   -0.0642   -0.2679 C   0  0  0  0  0  0  0  0  0  0  0  0
   -1.4413    0.7054   -0.4919 C   0  0  0  0  0  0  0  0  0  0  0  0
   -2.6279   -0.2357   -0.4551 C   0  0  0  0  0  0  0  0  0  0  0  0
   -1.6438    1.6905    0.6320 C   0  0  0  0  0  0  0  0  0  0  0  0
   -1.8660    2.8653    0.4007 O   0  0  0  0  0  0  0  0  0  0  0  0
    5.0497    0.7647    0.2185 H   0  0  0  0  0  0  0  0  0  0  0  0
    1.9954   -1.9544    1.2014 H   0  0  0  0  0  0  0  0  0  0  0  0
    2.0921   -2.2555   -0.5691 H   0  0  0  0  0  0  0  0  0  0  0  0
   -1.3266    1.2112   -1.4464 H   0  0  0  0  0  0  0  0  0  0  0  0
   -3.5028    0.2926   -0.0314 H   0  0  0  0  0  0  0  0  0  0  0  0
   -2.3609   -1.0347    0.2948 H   0  0  0  0  0  0  0  0  0  0  0  0
   -2.8345   -0.6792   -1.4559 H   0  0  0  0  0  0  0  0  0  0  0  0
   -1.5896    1.3414    1.6579 H   0  0  0  0  0  0  0  0  0  0  0  0
  1  2  3  0
  2  3  1  0
  3  4  1  0
  4  5  3  0
  5  6  1  0
  6  7  1  0
  6  8  1  0
  8  9  2  0
  1 10  1  0
  3 11  1  0
  3 12  1  0
  6 13  1  0
  7 14  1  0
  7 15  1  0
  7 16  1  0
  8 17  1  0
M  END
