
     RDKit          3D

 15 14  0  0  0  0  0  0  0  0999 V2000
    2.9924   -1.2609   -0.5966 C   0  0  0  0  0  0  0  0  0  0  0  0
    1.8413   -0.8883   -0.7662 C   0  0  0  0  0  0  0  0  0  0  0  0
    0.4876   -0.4746   -0.9729 C   0  0  0  0  0  0  0  0  0  0  0  0
   -0.0516   -0.7029   -2.0847 O   0  0  0  0  0  0  0  0  0  0  0  0
   -0.2411    0.1992    0.0977 C   0  0  0  0  0  0  0  0  0  0  0  0
   -0.3216   -0.7093    1.3196 C   0  0  0  0  0  0  0  0  0  0  0  0
   -1.5575    0.5289   -0.2932 O   0  0  0  0  0  0  0  0  0  0  0  0
   -2.0593    1.8204   -0.2160 C   0  0  0  0  0  0  0  0  0  0  0  0
   -1.2992    2.7157    0.2204 O   0  0  0  0  0  0  0  0  0  0  0  0
    3.9896   -1.5998   -0.4577 H   0  0  0  0  0  0  0  0  0  0  0  0
    0.2397    1.1444    0.4472 H   0  0  0  0  0  0  0  0  0  0  0  0
    0.6572   -0.7236    1.8745 H   0  0  0  0  0  0  0  0  0  0  0  0
   -0.5336   -1.7517    1.0593 H   0  0  0  0  0  0  0  0  0  0  0  0
   -1.0647   -0.2696    2.0347 H   0  0  0  0  0  0  0  0  0  0  0  0
   -3.0792    1.9722   -0.5389 H   0  0  0  0  0  0  0  0  0  0  0  0
  1  2  3  0
  2  3  1  0
  3  4  2  0
  3  5  1  0
  5  6  1  0
  5  7  1  0
  7  8  1  0
  8  9  2  0
  1 10  1  0
  5 11  1  0
  6 12  1  0
  6 13  1  0
  6 14  1  0
  8 15  1  0
M  END
