
     RDKit          3D

 19 19  0  0  0  0  0  0  0  0999 V2000
    2.4893    0.4093   -2.0743 C   0  0  0  0  0  0  0  0  0  0  0  0
    2.1506   -0.2100   -1.1303 C   0  0  0  0  0  0  0  0  0  0  0  0
    1.7566   -0.9448    0.0199 C   0  0  0  0  0  0  0  0  0  0  0  0
    1.7587   -2.1626    0.1260 O   0  0  0  0  0  0  0  0  0  0  0  0
    1.2939   -0.1546    1.2473 C   0  0  0  0  0  0  0  0  0  0  0  0
    0.1480    0.7332    0.6736 C   0  0  0  0  0  0  0  0  0  0  0  0
   -0.8940   -0.1884    0.1068 C   0  0  0  0  0  0  0  0  0  0  0  0
   -2.1193    0.1829   -0.5869 C   0  0  0  0  0  0  0  0  0  0  0  0
   -2.2415   -0.0796    0.8968 C   0  0  0  0  0  0  0  0  0  0  0  0
    2.8457    1.0247   -3.0078 H   0  0  0  0  0  0  0  0  0  0  0  0
    0.8706   -0.7805    2.0127 H   0  0  0  0  0  0  0  0  0  0  0  0
    2.1573    0.3600    1.6042 H   0  0  0  0  0  0  0  0  0  0  0  0
   -0.2388    1.3294    1.5169 H   0  0  0  0  0  0  0  0  0  0  0  0
    0.5612    1.3766   -0.1227 H   0  0  0  0  0  0  0  0  0  0  0  0
   -0.5553   -1.2494    0.0520 H   0  0  0  0  0  0  0  0  0  0  0  0
   -2.5452   -0.5893   -1.2992 H   0  0  0  0  0  0  0  0  0  0  0  0
   -2.3649    1.2256   -0.8682 H   0  0  0  0  0  0  0  0  0  0  0  0
   -2.7268   -1.0363    1.1717 H   0  0  0  0  0  0  0  0  0  0  0  0
   -2.3460    0.7536    1.5947 H   0  0  0  0  0  0  0  0  0  0  0  0
  1  2  3  0
  2  3  1  0
  3  4  2  0
  3  5  1  0
  5  6  1  0
  6  7  1  0
  7  8  1  0
  8  9  1  0
  9  7  1  0
  1 10  1  0
  5 11  1  0
  5 12  1  0
  6 13  1  0
  6 14  1  0
  7 15  1  0
  8 16  1  0
  8 17  1  0
  9 18  1  0
  9 19  1  0
M  END
