
     RDKit          3D

 19 20  0  0  0  0  0  0  0  0999 V2000
   -0.8489    2.4577   -1.0711 C   0  0  0  0  0  0  0  0  0  0  0  0
   -0.6772    1.3049   -0.7611 C   0  0  0  0  0  0  0  0  0  0  0  0
   -0.4615   -0.1082   -0.4068 C   0  0  0  0  0  0  0  0  0  0  0  0
    0.6687   -0.3259    0.5477 C   0  0  0  0  0  0  0  0  0  0  0  0
    0.5735    0.3517    1.9070 C   0  0  0  0  0  0  0  0  0  0  0  0
    2.0919   -0.3596    0.0108 C   0  0  0  0  0  0  0  0  0  0  0  0
    1.3975   -1.4802    0.4103 O   0  0  0  0  0  0  0  0  0  0  0  0
   -1.7156   -0.9100   -0.2671 C   0  0  0  0  0  0  0  0  0  0  0  0
   -0.8106   -1.0768   -1.4566 C   0  0  0  0  0  0  0  0  0  0  0  0
   -0.9979    3.4934   -1.3307 H   0  0  0  0  0  0  0  0  0  0  0  0
   -0.4968    0.6157    2.0702 H   0  0  0  0  0  0  0  0  0  0  0  0
    1.1244    1.3321    1.8966 H   0  0  0  0  0  0  0  0  0  0  0  0
    0.9951   -0.2485    2.7169 H   0  0  0  0  0  0  0  0  0  0  0  0
    2.1493   -0.1026   -1.0698 H   0  0  0  0  0  0  0  0  0  0  0  0
    2.9208   -0.0655    0.6608 H   0  0  0  0  0  0  0  0  0  0  0  0
   -2.6919   -0.3928   -0.3756 H   0  0  0  0  0  0  0  0  0  0  0  0
   -1.7649   -1.7535    0.4629 H   0  0  0  0  0  0  0  0  0  0  0  0
   -1.2451   -0.7277   -2.4232 H   0  0  0  0  0  0  0  0  0  0  0  0
   -0.2108   -2.0043   -1.5211 H   0  0  0  0  0  0  0  0  0  0  0  0
  1  2  3  0
  2  3  1  0
  3  4  1  0
  4  5  1  0
  4  6  1  0
  6  7  1  0
  3  8  1  0
  8  9  1  0
  9  3  1  0
  7  4  1  0
  1 10  1  0
  5 11  1  0
  5 12  1  0
  5 13  1  0
  6 14  1  0
  6 15  1  0
  8 16  1  0
  8 17  1  0
  9 18  1  0
  9 19  1  0
M  END
