
     RDKit          3D

 19 19  0  0  0  0  0  0  0  0999 V2000
    2.2164   -0.4816    1.2254 C   0  0  0  0  0  0  0  0  0  0  0  0
    1.1623   -0.8376    0.7694 C   0  0  0  0  0  0  0  0  0  0  0  0
    0.0461   -1.2252    0.2874 C   0  0  0  0  0  0  0  0  0  0  0  0
   -1.1603   -0.4974    0.9806 C   0  0  0  0  0  0  0  0  0  0  0  0
   -1.9947    0.1541    0.0795 O   0  0  0  0  0  0  0  0  0  0  0  0
   -1.3621    1.3450   -0.3192 C   0  0  0  0  0  0  0  0  0  0  0  0
    0.0508    0.9886   -0.7201 C   0  0  0  0  0  0  0  0  0  0  0  0
    0.0179   -0.4742   -1.1518 C   0  0  0  0  0  0  0  0  0  0  0  0
    1.2151   -0.8053   -1.7867 O   0  0  0  0  0  0  0  0  0  0  0  0
    3.3903   -0.0658    1.7494 H   0  0  0  0  0  0  0  0  0  0  0  0
   -0.2614   -2.2425    0.0856 H   0  0  0  0  0  0  0  0  0  0  0  0
   -1.5651   -1.0097    1.8144 H   0  0  0  0  0  0  0  0  0  0  0  0
   -0.6386    0.4184    1.4895 H   0  0  0  0  0  0  0  0  0  0  0  0
   -1.8501    1.9837   -1.0167 H   0  0  0  0  0  0  0  0  0  0  0  0
   -1.3460    1.9167    0.6887 H   0  0  0  0  0  0  0  0  0  0  0  0
    0.3796    1.6166   -1.5940 H   0  0  0  0  0  0  0  0  0  0  0  0
    0.7243    1.1071    0.1276 H   0  0  0  0  0  0  0  0  0  0  0  0
   -0.8920   -0.7925   -1.6095 H   0  0  0  0  0  0  0  0  0  0  0  0
    1.8676   -1.0983   -1.0995 H   0  0  0  0  0  0  0  0  0  0  0  0
  1  2  3  0
  2  3  1  0
  3  4  1  0
  4  5  1  0
  5  6  1  0
  6  7  1  0
  7  8  1  0
  8  9  1  0
  8  3  1  0
  1 10  1  0
  3 11  1  0
  4 12  1  0
  4 13  1  0
  6 14  1  0
  6 15  1  0
  7 16  1  0
  7 17  1  0
  8 18  1  0
  9 19  1  0
M  END
