
     RDKit          3D

 17 18  0  0  0  0  0  0  0  0999 V2000
   -2.1403    1.4208   -2.1798 C   0  0  0  0  0  0  0  0  0  0  0  0
   -1.3976    0.6611   -1.5709 C   0  0  0  0  0  0  0  0  0  0  0  0
   -0.5152   -0.2352   -0.8213 C   0  0  0  0  0  0  0  0  0  0  0  0
    0.5211    0.4508    0.0147 C   0  0  0  0  0  0  0  0  0  0  0  0
    1.4881   -0.3154    0.8325 C   0  0  0  0  0  0  0  0  0  0  0  0
    0.3310    0.2781    1.5117 C   0  0  0  0  0  0  0  0  0  0  0  0
    0.5064    1.4092    2.3044 O   0  0  0  0  0  0  0  0  0  0  0  0
   -0.2635   -1.5398   -1.3831 C   0  0  0  0  0  0  0  0  0  0  0  0
   -1.1878   -1.3527   -0.2388 O   0  0  0  0  0  0  0  0  0  0  0  0
   -2.7900    2.0835   -2.6908 H   0  0  0  0  0  0  0  0  0  0  0  0
    0.7997    1.4710   -0.3399 H   0  0  0  0  0  0  0  0  0  0  0  0
    1.5555   -1.4155    0.6357 H   0  0  0  0  0  0  0  0  0  0  0  0
    2.4935    0.1309    0.9814 H   0  0  0  0  0  0  0  0  0  0  0  0
   -0.5200   -0.3577    1.8698 H   0  0  0  0  0  0  0  0  0  0  0  0
    1.4402    1.3979    2.6182 H   0  0  0  0  0  0  0  0  0  0  0  0
    0.5038   -2.2485   -1.0769 H   0  0  0  0  0  0  0  0  0  0  0  0
   -0.8251   -1.8384   -2.3100 H   0  0  0  0  0  0  0  0  0  0  0  0
  1  2  3  0
  2  3  1  0
  3  4  1  0
  4  5  1  0
  5  6  1  0
  6  7  1  0
  3  8  1  0
  8  9  1  0
  9  3  1  0
  6  4  1  0
  1 10  1  0
  4 11  1  0
  5 12  1  0
  5 13  1  0
  6 14  1  0
  7 15  1  0
  8 16  1  0
  8 17  1  0
M  END
