
     RDKit          3D

 17 16  0  0  0  0  0  0  0  0999 V2000
    4.5420    1.3226   -0.2753 C   0  0  0  0  0  0  0  0  0  0  0  0
    3.4208    0.9246   -0.0314 C   0  0  0  0  0  0  0  0  0  0  0  0
    2.1233    0.4475    0.2619 C   0  0  0  0  0  0  0  0  0  0  0  0
    0.9923    0.0543    0.5165 C   0  0  0  0  0  0  0  0  0  0  0  0
   -0.3505   -0.4337    0.8366 C   0  0  0  0  0  0  0  0  0  0  0  0
   -0.3103   -1.8197    0.7689 O   0  0  0  0  0  0  0  0  0  0  0  0
   -1.3325    0.1438   -0.1581 C   0  0  0  0  0  0  0  0  0  0  0  0
   -2.7355   -0.2939    0.1178 C   0  0  0  0  0  0  0  0  0  0  0  0
   -0.9539   -0.2226   -1.4271 O   0  0  0  0  0  0  0  0  0  0  0  0
    5.5202    1.6842   -0.5019 H   0  0  0  0  0  0  0  0  0  0  0  0
   -0.6522   -0.1372    1.8572 H   0  0  0  0  0  0  0  0  0  0  0  0
    0.5652   -2.1123    1.1307 H   0  0  0  0  0  0  0  0  0  0  0  0
   -1.2200    1.2638   -0.0994 H   0  0  0  0  0  0  0  0  0  0  0  0
   -3.3188   -0.4856   -0.8058 H   0  0  0  0  0  0  0  0  0  0  0  0
   -3.2285    0.5383    0.6949 H   0  0  0  0  0  0  0  0  0  0  0  0
   -2.7784   -1.2274    0.7287 H   0  0  0  0  0  0  0  0  0  0  0  0
   -0.2833    0.3533   -1.8364 H   0  0  0  0  0  0  0  0  0  0  0  0
  1  2  3  0
  2  3  1  0
  3  4  3  0
  4  5  1  0
  5  6  1  0
  5  7  1  0
  7  8  1  0
  7  9  1  0
  1 10  1  0
  5 11  1  0
  6 12  1  0
  7 13  1  0
  8 14  1  0
  8 15  1  0
  8 16  1  0
  9 17  1  0
M  END
