
     RDKit          3D

 13 12  0  0  0  0  0  0  0  0999 V2000
   -2.6334    0.5909   -0.4997 C   0  0  0  0  0  0  0  0  0  0  0  0
   -1.2901    0.2629   -0.2265 C   0  0  0  0  0  0  0  0  0  0  0  0
    0.1040   -0.0679    0.0329 C   0  0  0  0  0  0  0  0  0  0  0  0
    0.8679    1.0275   -0.3867 C   0  0  0  0  0  0  0  0  0  0  0  0
    1.6338    2.1202   -0.7817 C   0  0  0  0  0  0  0  0  0  0  0  0
    0.3765   -1.2336   -0.7591 C   0  0  0  0  0  0  0  0  0  0  0  0
    0.6242   -2.2130   -1.4171 C   0  0  0  0  0  0  0  0  0  0  0  0
    0.1987   -0.2301    1.3676 C   0  0  0  0  0  0  0  0  0  0  0  0
    0.2736   -0.3912    2.6892 C   0  0  0  0  0  0  0  0  0  0  0  0
   -3.6267    0.8178   -0.7096 H   0  0  0  0  0  0  0  0  0  0  0  0
    2.2670    3.0099   -1.0945 H   0  0  0  0  0  0  0  0  0  0  0  0
    0.8737   -3.1456   -2.0644 H   0  0  0  0  0  0  0  0  0  0  0  0
    0.3306   -0.5479    3.8496 H   0  0  0  0  0  0  0  0  0  0  0  0
  1  2  3  0
  2  3  1  0
  3  4  1  0
  4  5  3  0
  3  6  1  0
  6  7  3  0
  3  8  1  0
  8  9  3  0
  1 10  1  0
  5 11  1  0
  7 12  1  0
  9 13  1  0
M  END
