
     RDKit          3D

 15 15  0  0  0  0  0  0  0  0999 V2000
    2.8900    0.4697   -0.4316 C   0  0  0  0  0  0  0  0  0  0  0  0
    1.7438    0.2469   -0.1310 C   0  0  0  0  0  0  0  0  0  0  0  0
    0.3796   -0.0423    0.2190 C   0  0  0  0  0  0  0  0  0  0  0  0
    0.2402   -0.4668    1.5435 O   0  0  0  0  0  0  0  0  0  0  0  0
   -0.3549   -0.9384   -0.7798 C   0  0  0  0  0  0  0  0  0  0  0  0
   -1.5811   -0.1132   -0.3661 C   0  0  0  0  0  0  0  0  0  0  0  0
   -2.0775   -0.5932    0.8431 O   0  0  0  0  0  0  0  0  0  0  0  0
   -0.6255    1.0004   -0.1173 C   0  0  0  0  0  0  0  0  0  0  0  0
   -0.6198    2.2121   -0.1564 O   0  0  0  0  0  0  0  0  0  0  0  0
    3.9000    0.6588   -0.7113 H   0  0  0  0  0  0  0  0  0  0  0  0
    0.9460    0.0340    2.0595 H   0  0  0  0  0  0  0  0  0  0  0  0
   -0.0886   -0.6599   -1.8093 H   0  0  0  0  0  0  0  0  0  0  0  0
   -0.3988   -1.9927   -0.5209 H   0  0  0  0  0  0  0  0  0  0  0  0
   -2.3151    0.0458   -1.1619 H   0  0  0  0  0  0  0  0  0  0  0  0
   -2.0382    0.1388    1.5206 H   0  0  0  0  0  0  0  0  0  0  0  0
  1  2  3  0
  2  3  1  0
  3  4  1  0
  3  5  1  0
  5  6  1  0
  6  7  1  0
  6  8  1  0
  8  9  2  0
  8  3  1  0
  1 10  1  0
  4 11  1  0
  5 12  1  0
  5 13  1  0
  6 14  1  0
  7 15  1  0
M  END
