
     RDKit          3D

 19 20  0  0  0  0  0  0  0  0999 V2000
    1.4937    1.5858    1.7489 C   0  0  0  0  0  0  0  0  0  0  0  0
    0.9252    0.5709    1.4163 C   0  0  0  0  0  0  0  0  0  0  0  0
    0.2173   -0.6502    1.0273 C   0  0  0  0  0  0  0  0  0  0  0  0
   -0.9195   -0.9522    1.9521 C   0  0  0  0  0  0  0  0  0  0  0  0
   -0.2689   -0.5029   -0.3825 C   0  0  0  0  0  0  0  0  0  0  0  0
    0.7666   -0.2776   -1.4261 C   0  0  0  0  0  0  0  0  0  0  0  0
   -0.3038    0.3253   -2.2883 C   0  0  0  0  0  0  0  0  0  0  0  0
   -0.4500    0.8805   -0.9034 C   0  0  0  0  0  0  0  0  0  0  0  0
    0.9335    0.9902   -0.8894 O   0  0  0  0  0  0  0  0  0  0  0  0
    2.0056    2.4642    2.0459 H   0  0  0  0  0  0  0  0  0  0  0  0
    0.9143   -1.5198    1.0461 H   0  0  0  0  0  0  0  0  0  0  0  0
   -1.7646   -1.3408    1.3586 H   0  0  0  0  0  0  0  0  0  0  0  0
   -1.1904   -0.0292    2.5235 H   0  0  0  0  0  0  0  0  0  0  0  0
   -0.5897   -1.6847    2.7118 H   0  0  0  0  0  0  0  0  0  0  0  0
   -1.0875   -1.1706   -0.6999 H   0  0  0  0  0  0  0  0  0  0  0  0
    1.4961   -0.9037   -1.7266 H   0  0  0  0  0  0  0  0  0  0  0  0
    0.0396    1.0134   -3.0627 H   0  0  0  0  0  0  0  0  0  0  0  0
   -1.1052   -0.3750   -2.5510 H   0  0  0  0  0  0  0  0  0  0  0  0
   -1.1124    1.5765   -0.5983 H   0  0  0  0  0  0  0  0  0  0  0  0
  1  2  3  0
  2  3  1  0
  3  4  1  0
  3  5  1  0
  5  6  1  0
  6  7  1  0
  7  8  1  0
  8  9  1  0
  8  5  1  0
  9  6  1  0
  1 10  1  0
  3 11  1  0
  4 12  1  0
  4 13  1  0
  4 14  1  0
  5 15  1  0
  6 16  1  0
  7 17  1  0
  7 18  1  0
  8 19  1  0
M  END
