
     RDKit          3D

 21 21  0  0  0  0  0  0  0  0999 V2000
    0.2325    0.3142    2.5176 C   0  0  0  0  0  0  0  0  0  0  0  0
   -0.1358    0.1562    1.2632 C   0  0  0  0  0  0  0  0  0  0  0  0
   -0.5239   -0.0067    0.0150 C   0  0  0  0  0  0  0  0  0  0  0  0
   -1.8701    0.4573   -0.4529 C   0  0  0  0  0  0  0  0  0  0  0  0
    0.5365    0.7458   -0.9335 C   0  0  0  0  0  0  0  0  0  0  0  0
    1.2379    1.8441   -0.2472 C   0  0  0  0  0  0  0  0  0  0  0  0
    1.2548   -0.4595   -0.9499 O   0  0  0  0  0  0  0  0  0  0  0  0
    0.0692   -1.1774   -0.7583 C   0  0  0  0  0  0  0  0  0  0  0  0
    0.3061   -2.3634    0.1451 C   0  0  0  0  0  0  0  0  0  0  0  0
    0.5464    0.4405    3.6291 H   0  0  0  0  0  0  0  0  0  0  0  0
   -1.6315    1.4026   -1.0801 H   0  0  0  0  0  0  0  0  0  0  0  0
   -2.3963   -0.2517   -1.0748 H   0  0  0  0  0  0  0  0  0  0  0  0
   -2.4497    0.8976    0.3966 H   0  0  0  0  0  0  0  0  0  0  0  0
    0.0765    0.9839   -1.8705 H   0  0  0  0  0  0  0  0  0  0  0  0
    1.0128    1.8141    0.8484 H   0  0  0  0  0  0  0  0  0  0  0  0
    0.9596    2.8647   -0.5867 H   0  0  0  0  0  0  0  0  0  0  0  0
    2.3775    1.7465   -0.3020 H   0  0  0  0  0  0  0  0  0  0  0  0
   -0.4348   -1.3737   -1.7050 H   0  0  0  0  0  0  0  0  0  0  0  0
   -0.1195   -2.1147    1.1803 H   0  0  0  0  0  0  0  0  0  0  0  0
   -0.3654   -3.1945   -0.2419 H   0  0  0  0  0  0  0  0  0  0  0  0
    1.3172   -2.7260    0.2075 H   0  0  0  0  0  0  0  0  0  0  0  0
  1  2  3  0
  2  3  1  0
  3  4  1  0
  3  5  1  0
  5  6  1  0
  5  7  1  0
  7  8  1  0
  8  9  1  0
  8  3  1  0
  1 10  1  0
  4 11  1  0
  4 12  1  0
  4 13  1  0
  5 14  1  0
  6 15  1  0
  6 16  1  0
  6 17  1  0
  8 18  1  0
  9 19  1  0
  9 20  1  0
  9 21  1  0
M  END
