
     RDKit          3D

 19 20  0  0  0  0  0  0  0  0999 V2000
    3.3354    0.1626    0.4096 C   0  0  0  0  0  0  0  0  0  0  0  0
    2.3028   -0.1833   -0.1205 C   0  0  0  0  0  0  0  0  0  0  0  0
    1.0602   -0.5796   -0.7371 C   0  0  0  0  0  0  0  0  0  0  0  0
    0.0446   -1.0948    0.3039 C   0  0  0  0  0  0  0  0  0  0  0  0
   -1.0479   -0.0685   -0.0154 C   0  0  0  0  0  0  0  0  0  0  0  0
   -2.3440   -0.2239    0.6123 C   0  0  0  0  0  0  0  0  0  0  0  0
   -0.3078    1.2341    0.0885 C   0  0  0  0  0  0  0  0  0  0  0  0
    0.3020    0.6520   -1.1605 C   0  0  0  0  0  0  0  0  0  0  0  0
   -0.9765    0.0954   -1.4059 O   0  0  0  0  0  0  0  0  0  0  0  0
    4.2449    0.4802    0.8630 H   0  0  0  0  0  0  0  0  0  0  0  0
    1.1700   -1.3036   -1.5528 H   0  0  0  0  0  0  0  0  0  0  0  0
   -0.2601   -2.1159    0.0858 H   0  0  0  0  0  0  0  0  0  0  0  0
    0.4890   -0.9283    1.2905 H   0  0  0  0  0  0  0  0  0  0  0  0
   -2.2655   -0.8303    1.5487 H   0  0  0  0  0  0  0  0  0  0  0  0
   -2.8231    0.7416    0.9463 H   0  0  0  0  0  0  0  0  0  0  0  0
   -3.0617   -0.7925   -0.0388 H   0  0  0  0  0  0  0  0  0  0  0  0
    0.3625    1.3509    0.9539 H   0  0  0  0  0  0  0  0  0  0  0  0
   -0.9336    2.1063   -0.1710 H   0  0  0  0  0  0  0  0  0  0  0  0
    0.7088    1.2978   -1.9004 H   0  0  0  0  0  0  0  0  0  0  0  0
  1  2  3  0
  2  3  1  0
  3  4  1  0
  4  5  1  0
  5  6  1  0
  5  7  1  0
  7  8  1  0
  8  9  1  0
  8  3  1  0
  9  5  1  0
  1 10  1  0
  3 11  1  0
  4 12  1  0
  4 13  1  0
  6 14  1  0
  6 15  1  0
  6 16  1  0
  7 17  1  0
  7 18  1  0
  8 19  1  0
M  END
