
     RDKit          3D

 19 19  0  0  0  0  0  0  0  0999 V2000
    3.8449   -2.0189   -0.4207 C   0  0  0  0  0  0  0  0  0  0  0  0
    2.8497   -1.4839   -0.9021 C   0  0  0  0  0  0  0  0  0  0  0  0
    1.6555   -0.8700   -1.4811 C   0  0  0  0  0  0  0  0  0  0  0  0
    0.5840   -0.8440   -0.3989 C   0  0  0  0  0  0  0  0  0  0  0  0
    0.9911   -0.0777    0.7714 O   0  0  0  0  0  0  0  0  0  0  0  0
   -0.1427    0.3267   -0.0395 C   0  0  0  0  0  0  0  0  0  0  0  0
   -1.5001    0.1728    0.6174 C   0  0  0  0  0  0  0  0  0  0  0  0
   -2.1272    1.5120    0.9295 C   0  0  0  0  0  0  0  0  0  0  0  0
   -3.3612    1.2695    1.5262 O   0  0  0  0  0  0  0  0  0  0  0  0
    4.6932   -2.4893    0.0037 H   0  0  0  0  0  0  0  0  0  0  0  0
    1.8618    0.1661   -1.8242 H   0  0  0  0  0  0  0  0  0  0  0  0
    1.2597   -1.5080   -2.2890 H   0  0  0  0  0  0  0  0  0  0  0  0
    0.2849   -1.8549   -0.0703 H   0  0  0  0  0  0  0  0  0  0  0  0
    0.1076    1.2941   -0.5332 H   0  0  0  0  0  0  0  0  0  0  0  0
   -1.3699   -0.4532    1.5101 H   0  0  0  0  0  0  0  0  0  0  0  0
   -2.1713   -0.3697   -0.0865 H   0  0  0  0  0  0  0  0  0  0  0  0
   -2.2331    2.0667   -0.0226 H   0  0  0  0  0  0  0  0  0  0  0  0
   -1.4849    2.0567    1.6683 H   0  0  0  0  0  0  0  0  0  0  0  0
   -3.7421    0.4796    1.0414 H   0  0  0  0  0  0  0  0  0  0  0  0
  1  2  3  0
  2  3  1  0
  3  4  1  0
  4  5  1  0
  5  6  1  0
  6  7  1  0
  7  8  1  0
  8  9  1  0
  6  4  1  0
  1 10  1  0
  3 11  1  0
  3 12  1  0
  4 13  1  0
  6 14  1  0
  7 15  1  0
  7 16  1  0
  8 17  1  0
  8 18  1  0
  9 19  1  0
M  END
