
     RDKit          2D

 15 17  0  0  0  0  0  0  0  0999 V2000
    2.9873   -2.1213    0.0000 C   0  0  0  0  0  0  0  0  0  0  0  0
    1.9267   -1.0607    0.0000 C   0  0  0  0  0  0  0  0  0  0  0  0
    0.8660    0.0000    0.0000 C   0  0  0  0  0  0  0  0  0  0  0  0
    1.6160    1.2990    0.0000 C   0  0  0  0  0  0  0  0  0  0  0  0
    0.3170    2.0490    0.0000 C   0  0  0  0  0  0  0  0  0  0  0  0
   -0.4330    0.7500    0.0000 C   0  0  0  0  0  0  0  0  0  0  0  0
   -0.4330   -0.7500    0.0000 C   0  0  0  0  0  0  0  0  0  0  0  0
    1.6160   -0.2010    0.0000 C   0  0  0  0  0  0  0  0  0  0  0  0
    2.9018   -0.9734    0.0000 O   0  0  0  0  0  0  0  0  0  0  0  0
    4.0480   -3.1820    0.0000 H   0  0  0  0  0  0  0  0  0  0  0  0
    3.0649    1.6873    0.0000 H   0  0  0  0  0  0  0  0  0  0  0  0
   -0.9821    2.7990    0.0000 H   0  0  0  0  0  0  0  0  0  0  0  0
    1.0670    3.3481    0.0000 H   0  0  0  0  0  0  0  0  0  0  0  0
   -1.8819    1.1382    0.0000 H   0  0  0  0  0  0  0  0  0  0  0  0
   -1.1830   -2.0490    0.0000 H   0  0  0  0  0  0  0  0  0  0  0  0
  1  2  3  0
  2  3  1  0
  3  4  1  0
  4  5  1  0
  5  6  1  0
  6  7  1  0
  7  8  1  0
  8  9  2  0
  6  3  1  0
  7  3  1  0
  8  4  1  0
  1 10  1  0
  4 11  1  0
  5 12  1  0
  5 13  1  0
  6 14  1  0
  7 15  1  0
M  END
