
     RDKit          3D

 21 20  0  0  0  0  0  0  0  0999 V2000
    3.4362   -1.8069   -1.5814 C   0  0  0  0  0  0  0  0  0  0  0  0
    1.7781   -1.5450   -0.6626 C   0  0  0  0  0  0  0  0  0  0  0  0
    1.0962   -1.4428   -0.2749 C   0  0  0  0  0  0  0  0  0  0  0  0
   -0.0780   -1.6246    0.3713 O   0  0  0  0  0  0  0  0  0  0  0  0
    0.9471    0.3849   -0.0769 C   0  0  0  0  0  0  0  0  0  0  0  0
   -0.5435    0.4031    0.3013 C   0  0  0  0  0  0  0  0  0  0  0  0
   -1.3616   -0.3307   -0.7847 C   0  0  0  0  0  0  0  0  0  0  0  0
   -0.9388    1.8961    0.1380 C   0  0  0  0  0  0  0  0  0  0  0  0
   -0.9174   -0.0449    1.6934 C   0  0  0  0  0  0  0  0  0  0  0  0
    4.6728   -2.0253   -2.2588 H   0  0  0  0  0  0  0  0  0  0  0  0
    1.1090    0.7130   -0.9605 H   0  0  0  0  0  0  0  0  0  0  0  0
    1.6337    0.4284    0.6921 H   0  0  0  0  0  0  0  0  0  0  0  0
   -0.7709   -0.2764   -1.7587 H   0  0  0  0  0  0  0  0  0  0  0  0
   -2.2978    0.3254   -0.9390 H   0  0  0  0  0  0  0  0  0  0  0  0
   -1.6471   -1.3258   -0.5022 H   0  0  0  0  0  0  0  0  0  0  0  0
   -0.3916    2.1975   -0.7593 H   0  0  0  0  0  0  0  0  0  0  0  0
   -0.4595    2.4247    1.0184 H   0  0  0  0  0  0  0  0  0  0  0  0
   -2.0212    2.0167    0.1253 H   0  0  0  0  0  0  0  0  0  0  0  0
   -0.1041   -0.4859    2.3199 H   0  0  0  0  0  0  0  0  0  0  0  0
   -1.7494   -0.7722    1.6426 H   0  0  0  0  0  0  0  0  0  0  0  0
   -1.3922    0.8905    2.2566 H   0  0  0  0  0  0  0  0  0  0  0  0
  1  2  3  0
  2  3  1  0
  3  4  2  0
  3  5  1  0
  5  6  1  0
  6  7  1  0
  6  8  1  0
  6  9  1  0
  1 10  1  0
  5 11  1  0
  5 12  1  0
  7 13  1  0
  7 14  1  0
  7 15  1  0
  8 16  1  0
  8 17  1  0
  8 18  1  0
  9 19  1  0
  9 20  1  0
  9 21  1  0
M  END
