
     RDKit          3D

 14 13  0  0  0  0  0  0  0  0999 V2000
    1.8004   -1.7243    1.6139 C   0  0  0  0  0  0  0  0  0  0  0  0
    1.3027   -0.9488    0.6690 C   0  0  0  0  0  0  0  0  0  0  0  0
    0.7362   -0.1069   -0.3549 C   0  0  0  0  0  0  0  0  0  0  0  0
    0.5560   -0.8096   -1.5392 O   0  0  0  0  0  0  0  0  0  0  0  0
   -0.6292    0.3715    0.0800 C   0  0  0  0  0  0  0  0  0  0  0  0
   -0.5924    1.1131    1.2775 O   0  0  0  0  0  0  0  0  0  0  0  0
   -1.4003    1.0994   -0.9334 C   0  0  0  0  0  0  0  0  0  0  0  0
   -1.5052    0.7687   -2.1014 O   0  0  0  0  0  0  0  0  0  0  0  0
    2.1781   -2.3019    2.3154 H   0  0  0  0  0  0  0  0  0  0  0  0
    1.4557    0.7431   -0.5127 H   0  0  0  0  0  0  0  0  0  0  0  0
    0.1153   -1.6854   -1.2928 H   0  0  0  0  0  0  0  0  0  0  0  0
   -1.2567   -0.5599    0.3083 H   0  0  0  0  0  0  0  0  0  0  0  0
   -0.8383    2.0450    1.1140 H   0  0  0  0  0  0  0  0  0  0  0  0
   -1.9221    1.9959   -0.6437 H   0  0  0  0  0  0  0  0  0  0  0  0
  1  2  3  0
  2  3  1  0
  3  4  1  0
  3  5  1  0
  5  6  1  0
  5  7  1  0
  7  8  2  0
  1  9  1  0
  3 10  1  0
  4 11  1  0
  5 12  1  0
  6 13  1  0
  7 14  1  0
M  END
