
     RDKit          3D

 21 20  0  0  0  0  0  0  0  0999 V2000
    3.3845    1.8558   -0.5852 C   0  0  0  0  0  0  0  0  0  0  0  0
    2.8615    1.3071   -0.6346 C   0  0  0  0  0  0  0  0  0  0  0  0
    1.4832   -0.1024   -0.7867 C   0  0  0  0  0  0  0  0  0  0  0  0
    0.3489   -1.2653   -0.9221 C   0  0  0  0  0  0  0  0  0  0  0  0
   -0.2115   -1.8302   -0.9962 C   0  0  0  0  0  0  0  0  0  0  0  0
   -0.8705   -0.9671    0.2647 C   0  0  0  0  0  0  0  0  0  0  0  0
    0.6946   -1.0343    1.0600 C   0  0  0  0  0  0  0  0  0  0  0  0
   -0.9332    0.5008    0.1435 C   0  0  0  0  0  0  0  0  0  0  0  0
   -2.0234    1.0335    1.2050 C   0  0  0  0  0  0  0  0  0  0  0  0
    4.3307    2.8187   -0.5050 H   0  0  0  0  0  0  0  0  0  0  0  0
   -1.0601   -2.3409   -1.5803 H   0  0  0  0  0  0  0  0  0  0  0  0
   -1.0007   -0.6699   -2.0360 H   0  0  0  0  0  0  0  0  0  0  0  0
   -1.4974   -1.6243    0.6744 H   0  0  0  0  0  0  0  0  0  0  0  0
    0.1963   -0.7991    2.1491 H   0  0  0  0  0  0  0  0  0  0  0  0
    1.1634   -0.1885    0.7974 H   0  0  0  0  0  0  0  0  0  0  0  0
    0.8878   -2.1176    0.9617 H   0  0  0  0  0  0  0  0  0  0  0  0
    0.0081    0.9862    0.8335 H   0  0  0  0  0  0  0  0  0  0  0  0
   -0.9266    1.0639   -0.7399 H   0  0  0  0  0  0  0  0  0  0  0  0
   -2.3310    0.2271    1.8757 H   0  0  0  0  0  0  0  0  0  0  0  0
   -2.8756    1.1694    0.4871 H   0  0  0  0  0  0  0  0  0  0  0  0
   -1.6290    1.9773    1.6977 H   0  0  0  0  0  0  0  0  0  0  0  0
  1  2  3  0
  2  3  1  0
  3  4  3  0
  4  5  1  0
  5  6  1  0
  6  7  1  0
  6  8  1  0
  8  9  1  0
  1 10  1  0
  5 11  1  0
  5 12  1  0
  6 13  1  0
  7 14  1  0
  7 15  1  0
  7 16  1  0
  8 17  1  0
  8 18  1  0
  9 19  1  0
  9 20  1  0
  9 21  1  0
M  END
