
     RDKit          3D

 17 17  0  0  0  0  0  0  0  0999 V2000
    2.4832   -1.3554    0.2104 C   0  0  0  0  0  0  0  0  0  0  0  0
    1.5297   -0.5902    0.1479 C   0  0  0  0  0  0  0  0  0  0  0  0
    0.4101    0.3299    0.0549 C   0  0  0  0  0  0  0  0  0  0  0  0
    0.8655    1.7683   -0.1252 C   0  0  0  0  0  0  0  0  0  0  0  0
   -0.3798    0.3022    1.1972 O   0  0  0  0  0  0  0  0  0  0  0  0
   -1.2652   -0.7447    0.9996 C   0  0  0  0  0  0  0  0  0  0  0  0
   -1.7680   -0.4369   -0.4174 C   0  0  0  0  0  0  0  0  0  0  0  0
   -0.4726   -0.0975   -1.0717 C   0  0  0  0  0  0  0  0  0  0  0  0
   -0.1502   -0.1375   -2.2319 O   0  0  0  0  0  0  0  0  0  0  0  0
    3.3129   -2.0097    0.2741 H   0  0  0  0  0  0  0  0  0  0  0  0
    0.0321    2.3122   -0.6150 H   0  0  0  0  0  0  0  0  0  0  0  0
    1.7853    1.7354   -0.7513 H   0  0  0  0  0  0  0  0  0  0  0  0
    1.0631    2.1503    0.9033 H   0  0  0  0  0  0  0  0  0  0  0  0
   -0.7066   -1.6859    0.9589 H   0  0  0  0  0  0  0  0  0  0  0  0
   -2.0898   -0.7564    1.7229 H   0  0  0  0  0  0  0  0  0  0  0  0
   -2.2793   -1.2838   -0.8712 H   0  0  0  0  0  0  0  0  0  0  0  0
   -2.3703    0.4997   -0.4155 H   0  0  0  0  0  0  0  0  0  0  0  0
  1  2  3  0
  2  3  1  0
  3  4  1  0
  3  5  1  0
  5  6  1  0
  6  7  1  0
  7  8  1  0
  8  9  2  0
  8  3  1  0
  1 10  1  0
  4 11  1  0
  4 12  1  0
  4 13  1  0
  6 14  1  0
  6 15  1  0
  7 16  1  0
  7 17  1  0
M  END
