
     RDKit          3D

 20 20  0  0  0  0  0  0  0  0999 V2000
    3.2622    2.5549   -0.2560 C   0  0  0  0  0  0  0  0  0  0  0  0
    2.4722    1.7287   -0.6392 C   0  0  0  0  0  0  0  0  0  0  0  0
    1.4950    0.7429   -1.1079 C   0  0  0  0  0  0  0  0  0  0  0  0
    1.7281   -0.6874   -0.8139 C   0  0  0  0  0  0  0  0  0  0  0  0
    0.6832    0.0161   -0.0459 C   0  0  0  0  0  0  0  0  0  0  0  0
   -0.7801   -0.1010   -0.4018 C   0  0  0  0  0  0  0  0  0  0  0  0
   -1.4747   -0.8296    0.7099 C   0  0  0  0  0  0  0  0  0  0  0  0
   -2.9406   -0.9425    0.3448 C   0  0  0  0  0  0  0  0  0  0  0  0
    3.9604    3.2911    0.1012 H   0  0  0  0  0  0  0  0  0  0  0  0
    1.0178    1.0028   -2.0685 H   0  0  0  0  0  0  0  0  0  0  0  0
    2.6271   -1.0265   -0.2394 H   0  0  0  0  0  0  0  0  0  0  0  0
    1.3648   -1.4160   -1.5682 H   0  0  0  0  0  0  0  0  0  0  0  0
    0.8861    0.2290    1.0159 H   0  0  0  0  0  0  0  0  0  0  0  0
   -1.1760    0.9565   -0.4233 H   0  0  0  0  0  0  0  0  0  0  0  0
   -0.9125   -0.5823   -1.3768 H   0  0  0  0  0  0  0  0  0  0  0  0
   -1.0343   -1.8375    0.7998 H   0  0  0  0  0  0  0  0  0  0  0  0
   -1.3855   -0.2375    1.6394 H   0  0  0  0  0  0  0  0  0  0  0  0
   -3.4353   -0.0326    0.7203 H   0  0  0  0  0  0  0  0  0  0  0  0
   -3.3418   -1.8674    0.8163 H   0  0  0  0  0  0  0  0  0  0  0  0
   -3.0160   -0.9617   -0.7404 H   0  0  0  0  0  0  0  0  0  0  0  0
  1  2  3  0
  2  3  1  0
  3  4  1  0
  4  5  1  0
  5  6  1  0
  6  7  1  0
  7  8  1  0
  5  3  1  0
  1  9  1  0
  3 10  1  0
  4 11  1  0
  4 12  1  0
  5 13  1  0
  6 14  1  0
  6 15  1  0
  7 16  1  0
  7 17  1  0
  8 18  1  0
  8 19  1  0
  8 20  1  0
M  END
