
     RDKit          3D

 15 15  0  0  0  0  0  0  0  0999 V2000
    2.4723   -0.4907   -0.5819 C   0  0  0  0  0  0  0  0  0  0  0  0
    1.4782   -0.4587    0.1003 C   0  0  0  0  0  0  0  0  0  0  0  0
    0.2547   -0.4086    0.9228 C   0  0  0  0  0  0  0  0  0  0  0  0
   -0.1199    1.0529    1.1380 C   0  0  0  0  0  0  0  0  0  0  0  0
   -0.8290    0.9605   -0.1986 C   0  0  0  0  0  0  0  0  0  0  0  0
   -0.9809   -0.5060    0.0524 C   0  0  0  0  0  0  0  0  0  0  0  0
   -0.8463   -1.3282   -1.0576 O   0  0  0  0  0  0  0  0  0  0  0  0
    3.3566   -0.5357   -1.1883 H   0  0  0  0  0  0  0  0  0  0  0  0
    0.2665   -1.0278    1.8223 H   0  0  0  0  0  0  0  0  0  0  0  0
   -0.7890    1.2039    2.0143 H   0  0  0  0  0  0  0  0  0  0  0  0
    0.7524    1.7484    1.0979 H   0  0  0  0  0  0  0  0  0  0  0  0
   -1.7568    1.5553   -0.2718 H   0  0  0  0  0  0  0  0  0  0  0  0
   -0.0846    1.1546   -1.0115 H   0  0  0  0  0  0  0  0  0  0  0  0
   -1.8989   -0.7230    0.6074 H   0  0  0  0  0  0  0  0  0  0  0  0
   -1.2753   -2.1969   -0.8493 H   0  0  0  0  0  0  0  0  0  0  0  0
  1  2  3  0
  2  3  1  0
  3  4  1  0
  4  5  1  0
  5  6  1  0
  6  7  1  0
  6  3  1  0
  1  8  1  0
  3  9  1  0
  4 10  1  0
  4 11  1  0
  5 12  1  0
  5 13  1  0
  6 14  1  0
  7 15  1  0
M  END
