
     RDKit          3D

 12 11  0  0  0  0  0  0  0  0999 V2000
    3.5274    0.1074    0.8341 C   0  0  0  0  0  0  0  0  0  0  0  0
    2.4940    0.6926    0.5964 C   0  0  0  0  0  0  0  0  0  0  0  0
    1.2582    1.3652    0.3064 C   0  0  0  0  0  0  0  0  0  0  0  0
    1.2628    2.6215    0.4383 O   0  0  0  0  0  0  0  0  0  0  0  0
    0.0865    0.6469   -0.1094 C   0  0  0  0  0  0  0  0  0  0  0  0
   -0.9061    0.0188   -0.4557 C   0  0  0  0  0  0  0  0  0  0  0  0
   -2.0999   -0.7101   -0.8809 C   0  0  0  0  0  0  0  0  0  0  0  0
   -2.8565   -1.0050    0.2507 O   0  0  0  0  0  0  0  0  0  0  0  0
    4.4224   -0.4128    1.0558 H   0  0  0  0  0  0  0  0  0  0  0  0
   -1.7328   -1.6581   -1.3697 H   0  0  0  0  0  0  0  0  0  0  0  0
   -2.6953   -0.1170   -1.6312 H   0  0  0  0  0  0  0  0  0  0  0  0
   -2.7607   -0.3391    0.9654 H   0  0  0  0  0  0  0  0  0  0  0  0
  1  2  3  0
  2  3  1  0
  3  4  2  0
  3  5  1  0
  5  6  3  0
  6  7  1  0
  7  8  1  0
  1  9  1  0
  7 10  1  0
  7 11  1  0
  8 12  1  0
M  END
