
     RDKit          3D

 17 17  0  0  0  0  0  0  0  0999 V2000
   -2.6878    0.6538    1.1817 C   0  0  0  0  0  0  0  0  0  0  0  0
   -1.7310   -0.0441    0.9297 C   0  0  0  0  0  0  0  0  0  0  0  0
   -0.5483   -0.8775    0.6287 C   0  0  0  0  0  0  0  0  0  0  0  0
   -0.5410   -1.1480   -0.8544 C   0  0  0  0  0  0  0  0  0  0  0  0
    0.2879    0.0515   -1.3356 C   0  0  0  0  0  0  0  0  0  0  0  0
    1.2961    0.0985   -0.1818 C   0  0  0  0  0  0  0  0  0  0  0  0
    2.0246    1.3786   -0.1505 C   0  0  0  0  0  0  0  0  0  0  0  0
    2.0042    2.1716    0.7758 O   0  0  0  0  0  0  0  0  0  0  0  0
    0.5626   -0.1547    0.9451 O   0  0  0  0  0  0  0  0  0  0  0  0
   -3.5209    1.2728    1.4071 H   0  0  0  0  0  0  0  0  0  0  0  0
   -0.6310   -1.8489    1.1482 H   0  0  0  0  0  0  0  0  0  0  0  0
    0.0219   -2.0905   -1.1070 H   0  0  0  0  0  0  0  0  0  0  0  0
   -1.5563   -1.1336   -1.2606 H   0  0  0  0  0  0  0  0  0  0  0  0
   -0.3519    0.9279   -1.2611 H   0  0  0  0  0  0  0  0  0  0  0  0
    0.7602   -0.1262   -2.2966 H   0  0  0  0  0  0  0  0  0  0  0  0
    1.9829   -0.7779   -0.3354 H   0  0  0  0  0  0  0  0  0  0  0  0
    2.6278    1.6466   -1.0103 H   0  0  0  0  0  0  0  0  0  0  0  0
  1  2  3  0
  2  3  1  0
  3  4  1  0
  4  5  1  0
  5  6  1  0
  6  7  1  0
  7  8  2  0
  6  9  1  0
  9  3  1  0
  1 10  1  0
  3 11  1  0
  4 12  1  0
  4 13  1  0
  5 14  1  0
  5 15  1  0
  6 16  1  0
  7 17  1  0
M  END
