
     RDKit          3D

 21 21  0  0  0  0  0  0  0  0999 V2000
    3.3287   -1.3406   -0.2812 C   0  0  0  0  0  0  0  0  0  0  0  0
    2.1680   -1.0078   -0.3797 C   0  0  0  0  0  0  0  0  0  0  0  0
    0.7748   -0.6057   -0.5177 C   0  0  0  0  0  0  0  0  0  0  0  0
   -0.1372   -1.3645    0.4594 C   0  0  0  0  0  0  0  0  0  0  0  0
   -0.8872   -0.0298    0.6096 C   0  0  0  0  0  0  0  0  0  0  0  0
   -2.0241    0.0002   -0.3340 C   0  0  0  0  0  0  0  0  0  0  0  0
   -1.2307    0.0976    1.9737 O   0  0  0  0  0  0  0  0  0  0  0  0
    0.3856    0.6372    0.2211 C   0  0  0  0  0  0  0  0  0  0  0  0
    0.3345    1.9018   -0.5338 C   0  0  0  0  0  0  0  0  0  0  0  0
    4.3392   -1.6459   -0.1843 H   0  0  0  0  0  0  0  0  0  0  0  0
    0.3962   -0.5940   -1.5484 H   0  0  0  0  0  0  0  0  0  0  0  0
    0.4585   -1.6459    1.3332 H   0  0  0  0  0  0  0  0  0  0  0  0
   -0.6966   -2.1449   -0.0603 H   0  0  0  0  0  0  0  0  0  0  0  0
   -2.9725   -0.1174    0.2680 H   0  0  0  0  0  0  0  0  0  0  0  0
   -2.0480   -0.8668   -1.0466 H   0  0  0  0  0  0  0  0  0  0  0  0
   -2.1494    0.8989   -0.9277 H   0  0  0  0  0  0  0  0  0  0  0  0
   -2.2135    0.2865    1.9808 H   0  0  0  0  0  0  0  0  0  0  0  0
    1.0426    0.7507    1.1335 H   0  0  0  0  0  0  0  0  0  0  0  0
    0.3070    2.7510    0.1892 H   0  0  0  0  0  0  0  0  0  0  0  0
   -0.4709    2.0103   -1.2576 H   0  0  0  0  0  0  0  0  0  0  0  0
    1.2949    2.0290   -1.0974 H   0  0  0  0  0  0  0  0  0  0  0  0
  1  2  3  0
  2  3  1  0
  3  4  1  0
  4  5  1  0
  5  6  1  0
  5  7  1  0
  5  8  1  0
  8  9  1  0
  8  3  1  0
  1 10  1  0
  3 11  1  0
  4 12  1  0
  4 13  1  0
  6 14  1  0
  6 15  1  0
  6 16  1  0
  7 17  1  0
  8 18  1  0
  9 19  1  0
  9 20  1  0
  9 21  1  0
M  END
