
     RDKit          3D

 21 20  0  0  0  0  0  0  0  0999 V2000
    2.8422    0.1427   -1.0224 C   0  0  0  0  0  0  0  0  0  0  0  0
    1.4347    0.1572   -0.8564 C   0  0  0  0  0  0  0  0  0  0  0  0
    0.3678    0.1517   -0.7215 C   0  0  0  0  0  0  0  0  0  0  0  0
   -0.2985   -1.2800   -0.9627 C   0  0  0  0  0  0  0  0  0  0  0  0
    0.0228   -1.5449   -2.2714 O   0  0  0  0  0  0  0  0  0  0  0  0
   -0.2962    0.6096    0.6488 C   0  0  0  0  0  0  0  0  0  0  0  0
   -1.8401    0.6134    0.4769 C   0  0  0  0  0  0  0  0  0  0  0  0
    0.0008   -0.2041    1.8188 C   0  0  0  0  0  0  0  0  0  0  0  0
    0.0975    1.9088    0.7893 O   0  0  0  0  0  0  0  0  0  0  0  0
    4.0307    0.1220   -1.1734 H   0  0  0  0  0  0  0  0  0  0  0  0
   -0.3613    0.8080   -1.4098 H   0  0  0  0  0  0  0  0  0  0  0  0
    0.2733   -2.0192   -0.3304 H   0  0  0  0  0  0  0  0  0  0  0  0
   -1.3264   -1.3203   -0.7894 H   0  0  0  0  0  0  0  0  0  0  0  0
    0.3967   -0.7778   -2.7808 H   0  0  0  0  0  0  0  0  0  0  0  0
   -2.1279    1.0708   -0.4622 H   0  0  0  0  0  0  0  0  0  0  0  0
   -2.2256   -0.4014    0.6624 H   0  0  0  0  0  0  0  0  0  0  0  0
   -2.2425    1.2181    1.3415 H   0  0  0  0  0  0  0  0  0  0  0  0
   -0.9276   -0.4355    2.4325 H   0  0  0  0  0  0  0  0  0  0  0  0
    0.6963    0.2711    2.5756 H   0  0  0  0  0  0  0  0  0  0  0  0
    0.4761   -1.1799    1.6196 H   0  0  0  0  0  0  0  0  0  0  0  0
    1.0073    2.0899    0.4150 H   0  0  0  0  0  0  0  0  0  0  0  0
  1  2  3  0
  2  3  1  0
  3  4  1  0
  4  5  1  0
  3  6  1  0
  6  7  1  0
  6  8  1  0
  6  9  1  0
  1 10  1  0
  3 11  1  0
  4 12  1  0
  4 13  1  0
  5 14  1  0
  7 15  1  0
  7 16  1  0
  7 17  1  0
  8 18  1  0
  8 19  1  0
  8 20  1  0
  9 21  1  0
M  END
