
     RDKit          3D

 21 21  0  0  0  0  0  0  0  0999 V2000
    4.5743   -0.1235    1.3108 C   0  0  0  0  0  0  0  0  0  0  0  0
    3.6506   -0.0338    0.5838 C   0  0  0  0  0  0  0  0  0  0  0  0
    2.4364    0.1023   -0.3486 C   0  0  0  0  0  0  0  0  0  0  0  0
    1.2941   -0.6108    0.4766 C   0  0  0  0  0  0  0  0  0  0  0  0
    0.1523   -0.6216    0.1121 O   0  0  0  0  0  0  0  0  0  0  0  0
   -1.0507   -0.6477   -0.3003 C   0  0  0  0  0  0  0  0  0  0  0  0
   -2.2806   -0.6307    0.5590 C   0  0  0  0  0  0  0  0  0  0  0  0
   -1.8638    0.6220   -0.1852 C   0  0  0  0  0  0  0  0  0  0  0  0
   -2.8285    1.0406   -1.2273 C   0  0  0  0  0  0  0  0  0  0  0  0
    5.4125   -0.2022    1.9677 H   0  0  0  0  0  0  0  0  0  0  0  0
    2.5802   -0.4714   -1.2373 H   0  0  0  0  0  0  0  0  0  0  0  0
    2.1135    1.1272   -0.3576 H   0  0  0  0  0  0  0  0  0  0  0  0
    1.5257   -0.2839    1.5546 H   0  0  0  0  0  0  0  0  0  0  0  0
    1.7590   -1.6799    0.5584 H   0  0  0  0  0  0  0  0  0  0  0  0
   -1.2842   -1.1670   -1.3212 H   0  0  0  0  0  0  0  0  0  0  0  0
   -2.1969   -0.4827    1.6618 H   0  0  0  0  0  0  0  0  0  0  0  0
   -3.1316   -1.2261    0.2488 H   0  0  0  0  0  0  0  0  0  0  0  0
   -1.3659    1.4488    0.3447 H   0  0  0  0  0  0  0  0  0  0  0  0
   -3.4143    1.9194   -0.8205 H   0  0  0  0  0  0  0  0  0  0  0  0
   -3.6621    0.2819   -1.3885 H   0  0  0  0  0  0  0  0  0  0  0  0
   -2.4198    1.3515   -2.1918 H   0  0  0  0  0  0  0  0  0  0  0  0
  1  2  3  0
  2  3  1  0
  3  4  1  0
  4  5  1  0
  5  6  1  0
  6  7  1  0
  7  8  1  0
  8  9  1  0
  8  6  1  0
  1 10  1  0
  3 11  1  0
  3 12  1  0
  4 13  1  0
  4 14  1  0
  6 15  1  0
  7 16  1  0
  7 17  1  0
  8 18  1  0
  9 19  1  0
  9 20  1  0
  9 21  1  0
M  END
