
     RDKit          3D

 21 20  0  0  0  0  0  0  0  0999 V2000
   -1.4857    2.6160    0.1923 C   0  0  0  0  0  0  0  0  0  0  0  0
   -0.9198    1.5569    0.3043 C   0  0  0  0  0  0  0  0  0  0  0  0
   -0.2231    0.2567    0.4544 C   0  0  0  0  0  0  0  0  0  0  0  0
   -0.8633   -0.6751   -0.5518 C   0  0  0  0  0  0  0  0  0  0  0  0
   -2.3480   -0.7521   -0.1757 C   0  0  0  0  0  0  0  0  0  0  0  0
    1.2287    0.5125    0.1528 C   0  0  0  0  0  0  0  0  0  0  0  0
    1.6936    1.4536    1.0663 O   0  0  0  0  0  0  0  0  0  0  0  0
    2.0682   -0.7258    0.1841 C   0  0  0  0  0  0  0  0  0  0  0  0
    2.0744   -1.3374    1.4272 O   0  0  0  0  0  0  0  0  0  0  0  0
   -1.9794    3.5474    0.0811 H   0  0  0  0  0  0  0  0  0  0  0  0
   -0.3923   -0.1523    1.4607 H   0  0  0  0  0  0  0  0  0  0  0  0
   -0.8270   -0.2356   -1.5624 H   0  0  0  0  0  0  0  0  0  0  0  0
   -0.4314   -1.6922   -0.5000 H   0  0  0  0  0  0  0  0  0  0  0  0
   -2.3543   -1.0497    0.9008 H   0  0  0  0  0  0  0  0  0  0  0  0
   -2.7128    0.2992   -0.2300 H   0  0  0  0  0  0  0  0  0  0  0  0
   -2.9016   -1.4313   -0.8239 H   0  0  0  0  0  0  0  0  0  0  0  0
    1.2695    0.9069   -0.8978 H   0  0  0  0  0  0  0  0  0  0  0  0
    1.7671    0.9674    1.9396 H   0  0  0  0  0  0  0  0  0  0  0  0
    3.1001   -0.4427   -0.0875 H   0  0  0  0  0  0  0  0  0  0  0  0
    1.6171   -1.4435   -0.5581 H   0  0  0  0  0  0  0  0  0  0  0  0
    2.6201   -2.1791    1.3127 H   0  0  0  0  0  0  0  0  0  0  0  0
  1  2  3  0
  2  3  1  0
  3  4  1  0
  4  5  1  0
  3  6  1  0
  6  7  1  0
  6  8  1  0
  8  9  1  0
  1 10  1  0
  3 11  1  0
  4 12  1  0
  4 13  1  0
  5 14  1  0
  5 15  1  0
  5 16  1  0
  6 17  1  0
  7 18  1  0
  8 19  1  0
  8 20  1  0
  9 21  1  0
M  END
