
     RDKit          3D

 13 13  0  0  0  0  0  0  0  0999 V2000
    4.2567    0.5999   -0.7309 C   0  0  0  0  0  0  0  0  0  0  0  0
    2.8379    0.2067   -0.4286 C   0  0  0  0  0  0  0  0  0  0  0  0
    1.2180   -0.2144   -0.0714 C   0  0  0  0  0  0  0  0  0  0  0  0
    0.6176   -0.3767    0.0518 C   0  0  0  0  0  0  0  0  0  0  0  0
   -0.6025   -0.6835    0.3000 C   0  0  0  0  0  0  0  0  0  0  0  0
   -1.6282    0.5197   -0.1940 C   0  0  0  0  0  0  0  0  0  0  0  0
   -2.4730   -0.1196    0.7760 C   0  0  0  0  0  0  0  0  0  0  0  0
   -3.7066   -0.3370    0.9695 O   0  0  0  0  0  0  0  0  0  0  0  0
   -1.2900   -0.4673    1.5164 O   0  0  0  0  0  0  0  0  0  0  0  0
    4.5848    0.6918   -0.7973 H   0  0  0  0  0  0  0  0  0  0  0  0
   -1.0639   -1.6100   -0.1844 H   0  0  0  0  0  0  0  0  0  0  0  0
   -1.6198    0.3365   -1.3223 H   0  0  0  0  0  0  0  0  0  0  0  0
   -1.1309    1.4540    0.1583 H   0  0  0  0  0  0  0  0  0  0  0  0
  1  2  3  0
  2  3  1  0
  3  4  3  0
  4  5  1  0
  5  6  1  0
  6  7  1  0
  7  8  2  0
  7  9  1  0
  9  5  1  0
  1 10  1  0
  5 11  1  0
  6 12  1  0
  6 13  1  0
M  END
