
     RDKit          3D

 15 16  0  0  0  0  0  0  0  0999 V2000
    2.4332    0.8480    1.0617 C   0  0  0  0  0  0  0  0  0  0  0  0
    1.8217    0.0506    0.4167 C   0  0  0  0  0  0  0  0  0  0  0  0
    1.0602   -0.9217   -0.3660 C   0  0  0  0  0  0  0  0  0  0  0  0
   -0.3655   -0.5686   -0.4314 C   0  0  0  0  0  0  0  0  0  0  0  0
   -1.1780   -0.4631    0.8705 C   0  0  0  0  0  0  0  0  0  0  0  0
   -0.9465    0.7056   -0.0051 C   0  0  0  0  0  0  0  0  0  0  0  0
   -1.7017    0.7288   -1.2678 C   0  0  0  0  0  0  0  0  0  0  0  0
   -2.5428    1.4493   -1.8081 O   0  0  0  0  0  0  0  0  0  0  0  0
   -1.0723   -0.4367   -1.6446 O   0  0  0  0  0  0  0  0  0  0  0  0
    2.9736    1.5604    1.6324 H   0  0  0  0  0  0  0  0  0  0  0  0
    1.4780   -0.9024   -1.3933 H   0  0  0  0  0  0  0  0  0  0  0  0
    1.1501   -1.9558    0.0784 H   0  0  0  0  0  0  0  0  0  0  0  0
   -0.6083   -0.6504    1.7843 H   0  0  0  0  0  0  0  0  0  0  0  0
   -2.1481   -1.0199    0.7605 H   0  0  0  0  0  0  0  0  0  0  0  0
   -0.3537    1.5761    0.3116 H   0  0  0  0  0  0  0  0  0  0  0  0
  1  2  3  0
  2  3  1  0
  3  4  1  0
  4  5  1  0
  5  6  1  0
  6  7  1  0
  7  8  2  0
  7  9  1  0
  6  4  1  0
  9  4  1  0
  1 10  1  0
  3 11  1  0
  3 12  1  0
  5 13  1  0
  5 14  1  0
  6 15  1  0
M  END
