
     RDKit          3D

 19 20  0  0  0  0  0  0  0  0999 V2000
   -0.8082    2.7316   -0.2050 C   0  0  0  0  0  0  0  0  0  0  0  0
   -0.7092    1.5888    0.2075 C   0  0  0  0  0  0  0  0  0  0  0  0
   -0.5676    0.2354    0.6942 C   0  0  0  0  0  0  0  0  0  0  0  0
    0.8418   -0.1291    1.0955 C   0  0  0  0  0  0  0  0  0  0  0  0
    1.8470    0.9721    0.9301 C   0  0  0  0  0  0  0  0  0  0  0  0
    0.8294   -1.1633   -0.0151 C   0  0  0  0  0  0  0  0  0  0  0  0
    0.5923   -0.7422   -1.2974 O   0  0  0  0  0  0  0  0  0  0  0  0
   -0.4646   -0.7834   -0.4175 C   0  0  0  0  0  0  0  0  0  0  0  0
   -1.6420   -1.6536   -0.6890 C   0  0  0  0  0  0  0  0  0  0  0  0
   -0.8871    3.7218   -0.5806 H   0  0  0  0  0  0  0  0  0  0  0  0
   -1.3125   -0.0992    1.4363 H   0  0  0  0  0  0  0  0  0  0  0  0
    0.9136   -0.6509    2.0941 H   0  0  0  0  0  0  0  0  0  0  0  0
    1.4078    1.7733    0.2930 H   0  0  0  0  0  0  0  0  0  0  0  0
    2.7576    0.5880    0.4538 H   0  0  0  0  0  0  0  0  0  0  0  0
    2.0696    1.3975    1.9367 H   0  0  0  0  0  0  0  0  0  0  0  0
    1.0844   -2.2132    0.2166 H   0  0  0  0  0  0  0  0  0  0  0  0
   -1.3904   -2.6420   -1.1271 H   0  0  0  0  0  0  0  0  0  0  0  0
   -2.3201   -1.1238   -1.4100 H   0  0  0  0  0  0  0  0  0  0  0  0
   -2.2417   -1.8077    0.2238 H   0  0  0  0  0  0  0  0  0  0  0  0
  1  2  3  0
  2  3  1  0
  3  4  1  0
  4  5  1  0
  4  6  1  0
  6  7  1  0
  7  8  1  0
  8  9  1  0
  8  3  1  0
  8  6  1  0
  1 10  1  0
  3 11  1  0
  4 12  1  0
  5 13  1  0
  5 14  1  0
  5 15  1  0
  6 16  1  0
  9 17  1  0
  9 18  1  0
  9 19  1  0
M  END
