
     RDKit          3D

 15 16  0  0  0  0  0  0  0  0999 V2000
    2.9862   -0.7096    0.0256 C   0  0  0  0  0  0  0  0  0  0  0  0
    1.8303   -0.4148    0.0347 C   0  0  0  0  0  0  0  0  0  0  0  0
    0.5365   -0.0958    0.0253 C   0  0  0  0  0  0  0  0  0  0  0  0
   -0.4402   -0.3455   -1.0873 C   0  0  0  0  0  0  0  0  0  0  0  0
   -1.2362    0.3451   -0.0094 C   0  0  0  0  0  0  0  0  0  0  0  0
   -2.4507    0.6291   -0.0053 O   0  0  0  0  0  0  0  0  0  0  0  0
   -0.5188   -0.6023    0.9513 C   0  0  0  0  0  0  0  0  0  0  0  0
   -0.0642    1.2142    0.1595 C   0  0  0  0  0  0  0  0  0  0  0  0
    0.2913    2.3503    0.3205 O   0  0  0  0  0  0  0  0  0  0  0  0
    4.0361   -0.9763    0.0350 H   0  0  0  0  0  0  0  0  0  0  0  0
   -0.7036   -1.3933   -1.2829 H   0  0  0  0  0  0  0  0  0  0  0  0
   -0.3091    0.2983   -1.9560 H   0  0  0  0  0  0  0  0  0  0  0  0
   -2.7131    1.5750   -0.0469 H   0  0  0  0  0  0  0  0  0  0  0  0
   -0.7659   -1.6566    0.8425 H   0  0  0  0  0  0  0  0  0  0  0  0
   -0.4786   -0.2178    1.9934 H   0  0  0  0  0  0  0  0  0  0  0  0
  1  2  3  0
  2  3  1  0
  3  4  1  0
  4  5  1  0
  5  6  1  0
  5  7  1  0
  5  8  1  0
  8  9  2  0
  7  3  1  0
  8  3  1  0
  1 10  1  0
  4 11  1  0
  4 12  1  0
  6 13  1  0
  7 14  1  0
  7 15  1  0
M  END
