
     RDKit          3D

 19 18  0  0  0  0  0  0  0  0999 V2000
    3.3831   -0.0646   -0.0051 C   0  0  0  0  0  0  0  0  0  0  0  0
    2.3063   -0.3421   -0.4690 C   0  0  0  0  0  0  0  0  0  0  0  0
    1.0326   -0.6892   -1.0371 C   0  0  0  0  0  0  0  0  0  0  0  0
    1.0033   -1.1862   -2.2121 O   0  0  0  0  0  0  0  0  0  0  0  0
   -0.2249   -0.4704   -0.2629 C   0  0  0  0  0  0  0  0  0  0  0  0
   -0.1486   -1.3097    0.9594 C   0  0  0  0  0  0  0  0  0  0  0  0
   -1.2885   -0.8892   -1.0508 O   0  0  0  0  0  0  0  0  0  0  0  0
   -0.4199    0.9973    0.0125 C   0  0  0  0  0  0  0  0  0  0  0  0
   -1.6511    1.3101    0.7797 C   0  0  0  0  0  0  0  0  0  0  0  0
    4.3210    0.1860    0.4160 H   0  0  0  0  0  0  0  0  0  0  0  0
   -1.1113   -1.8456    1.0779 H   0  0  0  0  0  0  0  0  0  0  0  0
   -0.0440   -0.6999    1.9020 H   0  0  0  0  0  0  0  0  0  0  0  0
    0.6417   -2.0906    0.9272 H   0  0  0  0  0  0  0  0  0  0  0  0
   -1.8895   -0.1463   -1.3226 H   0  0  0  0  0  0  0  0  0  0  0  0
   -0.4133    1.5864   -0.9259 H   0  0  0  0  0  0  0  0  0  0  0  0
    0.4844    1.3383    0.5862 H   0  0  0  0  0  0  0  0  0  0  0  0
   -1.9599    2.3640    0.5203 H   0  0  0  0  0  0  0  0  0  0  0  0
   -2.5162    0.6564    0.4932 H   0  0  0  0  0  0  0  0  0  0  0  0
   -1.5052    1.2955    1.8618 H   0  0  0  0  0  0  0  0  0  0  0  0
  1  2  3  0
  2  3  1  0
  3  4  2  0
  3  5  1  0
  5  6  1  0
  5  7  1  0
  5  8  1  0
  8  9  1  0
  1 10  1  0
  6 11  1  0
  6 12  1  0
  6 13  1  0
  7 14  1  0
  8 15  1  0
  8 16  1  0
  9 17  1  0
  9 18  1  0
  9 19  1  0
M  END
