
     RDKit          3D

 16 16  0  0  0  0  0  0  0  0999 V2000
    3.2521    0.5452   -0.3725 C   0  0  0  0  0  0  0  0  0  0  0  0
    2.1930    0.0957   -0.0089 C   0  0  0  0  0  0  0  0  0  0  0  0
    0.8858   -0.4432    0.4320 C   0  0  0  0  0  0  0  0  0  0  0  0
    0.1045    0.6830    0.9459 C   0  0  0  0  0  0  0  0  0  0  0  0
   -1.1991    0.8465    0.7512 C   0  0  0  0  0  0  0  0  0  0  0  0
   -1.8435   -0.2224   -0.0503 C   0  0  0  0  0  0  0  0  0  0  0  0
   -0.8761   -0.7813   -1.0537 C   0  0  0  0  0  0  0  0  0  0  0  0
    0.3267   -1.1761   -0.5500 O   0  0  0  0  0  0  0  0  0  0  0  0
    4.1886    0.9264   -0.7020 H   0  0  0  0  0  0  0  0  0  0  0  0
    1.1166   -1.1142    1.2978 H   0  0  0  0  0  0  0  0  0  0  0  0
    0.6376    1.4401    1.5310 H   0  0  0  0  0  0  0  0  0  0  0  0
   -1.7477    1.7027    1.1522 H   0  0  0  0  0  0  0  0  0  0  0  0
   -2.7129    0.1815   -0.6394 H   0  0  0  0  0  0  0  0  0  0  0  0
   -2.2276   -0.9733    0.6553 H   0  0  0  0  0  0  0  0  0  0  0  0
   -1.3585   -1.6687   -1.5187 H   0  0  0  0  0  0  0  0  0  0  0  0
   -0.7395   -0.0417   -1.8699 H   0  0  0  0  0  0  0  0  0  0  0  0
  1  2  3  0
  2  3  1  0
  3  4  1  0
  4  5  2  0
  5  6  1  0
  6  7  1  0
  7  8  1  0
  8  3  1  0
  1  9  1  0
  3 10  1  0
  4 11  1  0
  5 12  1  0
  6 13  1  0
  6 14  1  0
  7 15  1  0
  7 16  1  0
M  END
