
     RDKit          3D

 19 20  0  0  0  0  0  0  0  0999 V2000
    1.5152    2.6303    0.6605 C   0  0  0  0  0  0  0  0  0  0  0  0
    1.1900    1.6041    0.1139 C   0  0  0  0  0  0  0  0  0  0  0  0
    0.7846    0.3568   -0.5525 C   0  0  0  0  0  0  0  0  0  0  0  0
    1.8247   -0.7371   -0.4197 C   0  0  0  0  0  0  0  0  0  0  0  0
    0.8730   -1.5005    0.4461 C   0  0  0  0  0  0  0  0  0  0  0  0
   -0.1720   -0.4483    0.2347 C   0  0  0  0  0  0  0  0  0  0  0  0
   -0.9018    0.0512    1.2779 O   0  0  0  0  0  0  0  0  0  0  0  0
   -1.5132   -0.6455    0.1274 C   0  0  0  0  0  0  0  0  0  0  0  0
   -2.4408    0.3132   -0.6236 C   0  0  0  0  0  0  0  0  0  0  0  0
    1.8030    3.5372    1.1642 H   0  0  0  0  0  0  0  0  0  0  0  0
    0.4894    0.5716   -1.6089 H   0  0  0  0  0  0  0  0  0  0  0  0
    2.7146   -0.4212    0.1708 H   0  0  0  0  0  0  0  0  0  0  0  0
    2.1112   -1.2207   -1.3746 H   0  0  0  0  0  0  0  0  0  0  0  0
    0.5592   -2.4889    0.0264 H   0  0  0  0  0  0  0  0  0  0  0  0
    1.1894   -1.6360    1.4925 H   0  0  0  0  0  0  0  0  0  0  0  0
   -2.0440   -1.5670    0.4360 H   0  0  0  0  0  0  0  0  0  0  0  0
   -1.8451    1.0856   -1.1566 H   0  0  0  0  0  0  0  0  0  0  0  0
   -3.1243    0.8363    0.0488 H   0  0  0  0  0  0  0  0  0  0  0  0
   -3.0131   -0.3213   -1.3343 H   0  0  0  0  0  0  0  0  0  0  0  0
  1  2  3  0
  2  3  1  0
  3  4  1  0
  4  5  1  0
  5  6  1  0
  6  7  1  0
  7  8  1  0
  8  9  1  0
  6  3  1  0
  8  6  1  0
  1 10  1  0
  3 11  1  0
  4 12  1  0
  4 13  1  0
  5 14  1  0
  5 15  1  0
  8 16  1  0
  9 17  1  0
  9 18  1  0
  9 19  1  0
M  END
