
     RDKit          3D

 19 19  0  0  0  0  0  0  0  0999 V2000
   -2.2296    1.8394   -0.2170 C   0  0  0  0  0  0  0  0  0  0  0  0
   -1.4620    1.1060    0.3365 C   0  0  0  0  0  0  0  0  0  0  0  0
   -0.5287    0.2365    1.0235 C   0  0  0  0  0  0  0  0  0  0  0  0
   -1.0884   -0.8318    1.7429 O   0  0  0  0  0  0  0  0  0  0  0  0
   -1.8150   -1.6792    0.9237 C   0  0  0  0  0  0  0  0  0  0  0  0
    0.6467    0.9561    1.6772 C   0  0  0  0  0  0  0  0  0  0  0  0
    0.8159    0.0270    0.4636 C   0  0  0  0  0  0  0  0  0  0  0  0
    1.2844    0.6709   -0.6454 O   0  0  0  0  0  0  0  0  0  0  0  0
    2.3466   -0.0480   -1.1867 C   0  0  0  0  0  0  0  0  0  0  0  0
   -2.9240    2.4945   -0.6949 H   0  0  0  0  0  0  0  0  0  0  0  0
   -2.2166   -2.4854    1.5690 H   0  0  0  0  0  0  0  0  0  0  0  0
   -2.6642   -1.1716    0.4257 H   0  0  0  0  0  0  0  0  0  0  0  0
   -1.1768   -2.0874    0.0891 H   0  0  0  0  0  0  0  0  0  0  0  0
    0.9681    0.6077    2.6646 H   0  0  0  0  0  0  0  0  0  0  0  0
    0.7434    2.0449    1.5199 H   0  0  0  0  0  0  0  0  0  0  0  0
    1.3312   -0.9153    0.7384 H   0  0  0  0  0  0  0  0  0  0  0  0
    3.1267   -0.0961   -0.3924 H   0  0  0  0  0  0  0  0  0  0  0  0
    2.0470   -1.1112   -1.4190 H   0  0  0  0  0  0  0  0  0  0  0  0
    2.7955    0.4431   -2.0728 H   0  0  0  0  0  0  0  0  0  0  0  0
  1  2  3  0
  2  3  1  0
  3  4  1  0
  4  5  1  0
  3  6  1  0
  6  7  1  0
  7  8  1  0
  8  9  1  0
  7  3  1  0
  1 10  1  0
  5 11  1  0
  5 12  1  0
  5 13  1  0
  6 14  1  0
  6 15  1  0
  7 16  1  0
  9 17  1  0
  9 18  1  0
  9 19  1  0
M  END
