
     RDKit          3D

 23 22  0  0  0  0  0  0  0  0999 V2000
    3.5082   -1.5323   -0.9738 C   0  0  0  0  0  0  0  0  0  0  0  0
    2.7440   -0.9169   -0.2447 C   0  0  0  0  0  0  0  0  0  0  0  0
    1.8297   -0.1607    0.6116 C   0  0  0  0  0  0  0  0  0  0  0  0
    2.4064    1.2133    0.9084 C   0  0  0  0  0  0  0  0  0  0  0  0
    0.5215   -0.0075   -0.1079 C   0  0  0  0  0  0  0  0  0  0  0  0
   -0.4947    0.7641    0.6994 C   0  0  0  0  0  0  0  0  0  0  0  0
   -1.6959    0.9145    0.0573 O   0  0  0  0  0  0  0  0  0  0  0  0
   -2.3484   -0.2429   -0.2712 C   0  0  0  0  0  0  0  0  0  0  0  0
   -3.6517    0.1652   -0.9702 C   0  0  0  0  0  0  0  0  0  0  0  0
    4.1733   -2.0800   -1.5941 H   0  0  0  0  0  0  0  0  0  0  0  0
    1.6528   -0.6769    1.5822 H   0  0  0  0  0  0  0  0  0  0  0  0
    3.4931    1.1572    0.6917 H   0  0  0  0  0  0  0  0  0  0  0  0
    1.9022    1.9893    0.2945 H   0  0  0  0  0  0  0  0  0  0  0  0
    2.3262    1.4342    1.9958 H   0  0  0  0  0  0  0  0  0  0  0  0
    0.0891   -1.0199   -0.3117 H   0  0  0  0  0  0  0  0  0  0  0  0
    0.6564    0.5059   -1.0699 H   0  0  0  0  0  0  0  0  0  0  0  0
   -0.0698    1.7752    0.8644 H   0  0  0  0  0  0  0  0  0  0  0  0
   -0.6182    0.3216    1.7210 H   0  0  0  0  0  0  0  0  0  0  0  0
   -2.6544   -0.8495    0.6001 H   0  0  0  0  0  0  0  0  0  0  0  0
   -1.8135   -0.8727   -1.0243 H   0  0  0  0  0  0  0  0  0  0  0  0
   -4.3678   -0.6793   -1.0054 H   0  0  0  0  0  0  0  0  0  0  0  0
   -4.1260    1.0319   -0.4435 H   0  0  0  0  0  0  0  0  0  0  0  0
   -3.4626    0.4969   -2.0095 H   0  0  0  0  0  0  0  0  0  0  0  0
  1  2  3  0
  2  3  1  0
  3  4  1  0
  3  5  1  0
  5  6  1  0
  6  7  1  0
  7  8  1  0
  8  9  1  0
  1 10  1  0
  3 11  1  0
  4 12  1  0
  4 13  1  0
  4 14  1  0
  5 15  1  0
  5 16  1  0
  6 17  1  0
  6 18  1  0
  8 19  1  0
  8 20  1  0
  9 21  1  0
  9 22  1  0
  9 23  1  0
M  END
