
     RDKit          3D

 21 22  0  0  0  0  0  0  0  0999 V2000
    2.3442    0.6487    1.8329 C   0  0  0  0  0  0  0  0  0  0  0  0
    1.6851    0.2190    0.9115 C   0  0  0  0  0  0  0  0  0  0  0  0
    0.8685   -0.2843   -0.1995 C   0  0  0  0  0  0  0  0  0  0  0  0
    1.7085   -1.0109   -1.1441 C   0  0  0  0  0  0  0  0  0  0  0  0
   -0.4413   -0.8877    0.2384 C   0  0  0  0  0  0  0  0  0  0  0  0
   -0.9766   -0.5124   -1.1079 C   0  0  0  0  0  0  0  0  0  0  0  0
   -0.1652    0.6732   -0.6913 C   0  0  0  0  0  0  0  0  0  0  0  0
   -0.7675    0.5011    0.6816 C   0  0  0  0  0  0  0  0  0  0  0  0
   -2.1507    0.9035    0.8998 C   0  0  0  0  0  0  0  0  0  0  0  0
    2.9238    1.0408    2.6334 H   0  0  0  0  0  0  0  0  0  0  0  0
    1.2623   -1.8105   -1.7368 H   0  0  0  0  0  0  0  0  0  0  0  0
    2.1622   -0.2838   -1.8791 H   0  0  0  0  0  0  0  0  0  0  0  0
    2.5742   -1.4582   -0.6130 H   0  0  0  0  0  0  0  0  0  0  0  0
   -0.5690   -1.7460    0.7384 H   0  0  0  0  0  0  0  0  0  0  0  0
   -0.6034   -1.0445   -1.9820 H   0  0  0  0  0  0  0  0  0  0  0  0
   -2.0642   -0.3881   -1.1899 H   0  0  0  0  0  0  0  0  0  0  0  0
   -0.0326    1.5381   -1.1813 H   0  0  0  0  0  0  0  0  0  0  0  0
   -0.1294    0.8289    1.5371 H   0  0  0  0  0  0  0  0  0  0  0  0
   -2.7897    1.0701    0.0253 H   0  0  0  0  0  0  0  0  0  0  0  0
   -2.1685    1.8515    1.4787 H   0  0  0  0  0  0  0  0  0  0  0  0
   -2.6708    0.1514    1.5358 H   0  0  0  0  0  0  0  0  0  0  0  0
  1  2  3  0
  2  3  1  0
  3  4  1  0
  3  5  1  0
  5  6  1  0
  6  7  1  0
  7  8  1  0
  8  9  1  0
  7  3  1  0
  8  5  1  0
  1 10  1  0
  4 11  1  0
  4 12  1  0
  4 13  1  0
  5 14  1  0
  6 15  1  0
  6 16  1  0
  7 17  1  0
  8 18  1  0
  9 19  1  0
  9 20  1  0
  9 21  1  0
M  END
