
     RDKit          3D

 21 20  0  0  0  0  0  0  0  0999 V2000
    2.6835    1.1786   -0.2310 C   0  0  0  0  0  0  0  0  0  0  0  0
    1.7117    1.0165   -0.7724 C   0  0  0  0  0  0  0  0  0  0  0  0
    0.3827    0.8148   -1.4905 C   0  0  0  0  0  0  0  0  0  0  0  0
    0.1341    1.8944   -2.2678 O   0  0  0  0  0  0  0  0  0  0  0  0
   -0.6039    0.7504   -0.2700 C   0  0  0  0  0  0  0  0  0  0  0  0
   -0.1934   -0.3676    0.6431 C   0  0  0  0  0  0  0  0  0  0  0  0
   -1.1526   -0.4029    1.8618 C   0  0  0  0  0  0  0  0  0  0  0  0
   -0.5352   -1.6675   -0.1113 C   0  0  0  0  0  0  0  0  0  0  0  0
    1.0974   -0.2874    1.0618 O   0  0  0  0  0  0  0  0  0  0  0  0
    3.7209    1.3603    0.3543 H   0  0  0  0  0  0  0  0  0  0  0  0
    0.3516   -0.1190   -2.0389 H   0  0  0  0  0  0  0  0  0  0  0  0
   -0.7780    1.8719   -2.6887 H   0  0  0  0  0  0  0  0  0  0  0  0
   -1.5931    0.5383   -0.7376 H   0  0  0  0  0  0  0  0  0  0  0  0
   -0.6220    1.7613    0.1500 H   0  0  0  0  0  0  0  0  0  0  0  0
   -1.0507   -1.4574    2.3056 H   0  0  0  0  0  0  0  0  0  0  0  0
   -2.1802   -0.1938    1.5641 H   0  0  0  0  0  0  0  0  0  0  0  0
   -0.8201    0.3595    2.5732 H   0  0  0  0  0  0  0  0  0  0  0  0
   -0.4224   -2.5283    0.5477 H   0  0  0  0  0  0  0  0  0  0  0  0
   -1.6448   -1.5381   -0.2549 H   0  0  0  0  0  0  0  0  0  0  0  0
   -0.0159   -1.7986   -1.0403 H   0  0  0  0  0  0  0  0  0  0  0  0
    1.5302   -1.1854    0.8419 H   0  0  0  0  0  0  0  0  0  0  0  0
  1  2  3  0
  2  3  1  0
  3  4  1  0
  3  5  1  0
  5  6  1  0
  6  7  1  0
  6  8  1  0
  6  9  1  0
  1 10  1  0
  3 11  1  0
  4 12  1  0
  5 13  1  0
  5 14  1  0
  7 15  1  0
  7 16  1  0
  7 17  1  0
  8 18  1  0
  8 19  1  0
  8 20  1  0
  9 21  1  0
M  END
