
     RDKit          3D

 13 14  0  0  0  0  0  0  0  0999 V2000
    2.2748    2.2149    0.1043 C   0  0  0  0  0  0  0  0  0  0  0  0
    1.3933    1.3969    0.0294 C   0  0  0  0  0  0  0  0  0  0  0  0
    0.3244    0.4028   -0.0569 C   0  0  0  0  0  0  0  0  0  0  0  0
   -0.6678    0.4435   -0.8895 C   0  0  0  0  0  0  0  0  0  0  0  0
   -1.4974   -0.7243   -0.6445 C   0  0  0  0  0  0  0  0  0  0  0  0
   -2.6963   -0.8035   -1.1246 O   0  0  0  0  0  0  0  0  0  0  0  0
   -0.7602   -1.6245    0.1421 C   0  0  0  0  0  0  0  0  0  0  0  0
    0.4307   -2.0257    0.4764 O   0  0  0  0  0  0  0  0  0  0  0  0
    0.2595   -0.7349    0.7641 C   0  0  0  0  0  0  0  0  0  0  0  0
    3.0557    2.9510    0.1544 H   0  0  0  0  0  0  0  0  0  0  0  0
   -0.8753    1.2203   -1.6658 H   0  0  0  0  0  0  0  0  0  0  0  0
   -1.5137   -2.1766    0.8523 H   0  0  0  0  0  0  0  0  0  0  0  0
    0.2723   -0.5400    1.8582 H   0  0  0  0  0  0  0  0  0  0  0  0
  1  2  3  0
  2  3  1  0
  3  4  2  0
  4  5  1  0
  5  6  2  0
  5  7  1  0
  7  8  1  0
  8  9  1  0
  9  3  1  0
  9  7  1  0
  1 10  1  0
  4 11  1  0
  7 12  1  0
  9 13  1  0
M  END
