
     RDKit          3D

 17 18  0  0  0  0  0  0  0  0999 V2000
    1.7340   -2.4169   -0.1517 C   0  0  0  0  0  0  0  0  0  0  0  0
    0.8960   -1.5800   -0.0632 C   0  0  0  0  0  0  0  0  0  0  0  0
   -0.0319   -0.6236    0.0263 C   0  0  0  0  0  0  0  0  0  0  0  0
   -0.9815   -0.3954    1.1471 C   0  0  0  0  0  0  0  0  0  0  0  0
   -1.2934    0.6891    0.1227 C   0  0  0  0  0  0  0  0  0  0  0  0
   -1.1297   -0.3450   -0.8751 C   0  0  0  0  0  0  0  0  0  0  0  0
   -1.6423   -0.7310   -1.8851 O   0  0  0  0  0  0  0  0  0  0  0  0
    0.2050    0.8626    0.0502 C   0  0  0  0  0  0  0  0  0  0  0  0
    0.7336    1.4627   -1.2117 C   0  0  0  0  0  0  0  0  0  0  0  0
    2.5108   -3.1673   -0.2351 H   0  0  0  0  0  0  0  0  0  0  0  0
   -0.5500   -0.0559    2.0859 H   0  0  0  0  0  0  0  0  0  0  0  0
   -1.7713   -1.1541    1.1919 H   0  0  0  0  0  0  0  0  0  0  0  0
   -1.9742    1.4090    0.2292 H   0  0  0  0  0  0  0  0  0  0  0  0
    0.6081    1.2445    0.9895 H   0  0  0  0  0  0  0  0  0  0  0  0
    0.3541    2.4931   -1.3963 H   0  0  0  0  0  0  0  0  0  0  0  0
    0.5030    0.7674   -2.0506 H   0  0  0  0  0  0  0  0  0  0  0  0
    1.8297    1.5408   -1.1204 H   0  0  0  0  0  0  0  0  0  0  0  0
  1  2  3  0
  2  3  1  0
  3  4  1  0
  4  5  1  0
  5  6  1  0
  6  7  2  0
  5  8  1  0
  8  9  1  0
  6  3  1  0
  8  3  1  0
  1 10  1  0
  4 11  1  0
  4 12  1  0
  5 13  1  0
  8 14  1  0
  9 15  1  0
  9 16  1  0
  9 17  1  0
M  END
