
     RDKit          3D

 17 18  0  0  0  0  0  0  0  0999 V2000
    2.6648   -1.5283    1.5779 C   0  0  0  0  0  0  0  0  0  0  0  0
    1.9917   -1.0286    0.7343 C   0  0  0  0  0  0  0  0  0  0  0  0
    1.1838   -0.3986   -0.2863 C   0  0  0  0  0  0  0  0  0  0  0  0
    1.0945    1.0747   -0.4173 C   0  0  0  0  0  0  0  0  0  0  0  0
   -0.3434    1.3717   -0.2725 C   0  0  0  0  0  0  0  0  0  0  0  0
   -1.0396    0.2490   -0.2674 C   0  0  0  0  0  0  0  0  0  0  0  0
   -2.5308    0.2066   -0.1355 C   0  0  0  0  0  0  0  0  0  0  0  0
   -0.2177   -0.9579   -0.4005 C   0  0  0  0  0  0  0  0  0  0  0  0
    0.7239   -1.1257   -1.3759 O   0  0  0  0  0  0  0  0  0  0  0  0
    3.2660   -1.9710    2.3554 H   0  0  0  0  0  0  0  0  0  0  0  0
    1.7163    1.5862    0.3552 H   0  0  0  0  0  0  0  0  0  0  0  0
    1.4751    1.3398   -1.4463 H   0  0  0  0  0  0  0  0  0  0  0  0
   -0.7176    2.4043   -0.1859 H   0  0  0  0  0  0  0  0  0  0  0  0
   -2.9766    0.2160   -1.1729 H   0  0  0  0  0  0  0  0  0  0  0  0
   -2.9321    1.1171    0.3554 H   0  0  0  0  0  0  0  0  0  0  0  0
   -2.8801   -0.6953    0.3812 H   0  0  0  0  0  0  0  0  0  0  0  0
   -0.4784   -1.8600    0.2011 H   0  0  0  0  0  0  0  0  0  0  0  0
  1  2  3  0
  2  3  1  0
  3  4  1  0
  4  5  1  0
  5  6  2  0
  6  7  1  0
  6  8  1  0
  8  9  1  0
  8  3  1  0
  9  3  1  0
  1 10  1  0
  4 11  1  0
  4 12  1  0
  5 13  1  0
  7 14  1  0
  7 15  1  0
  7 16  1  0
  8 17  1  0
M  END
