
     RDKit          3D

 19 18  0  0  0  0  0  0  0  0999 V2000
    2.3321   -1.9118    1.4416 C   0  0  0  0  0  0  0  0  0  0  0  0
    2.0888   -1.0029    0.7320 C   0  0  0  0  0  0  0  0  0  0  0  0
    1.7805    0.0989   -0.1555 C   0  0  0  0  0  0  0  0  0  0  0  0
    0.5358   -0.1498   -0.9727 C   0  0  0  0  0  0  0  0  0  0  0  0
    0.7571   -1.2949   -1.7276 O   0  0  0  0  0  0  0  0  0  0  0  0
   -0.6900   -0.2645   -0.1520 C   0  0  0  0  0  0  0  0  0  0  0  0
   -1.3319   -1.2884   -0.2059 O   0  0  0  0  0  0  0  0  0  0  0  0
   -1.1899    0.8062    0.7425 C   0  0  0  0  0  0  0  0  0  0  0  0
   -2.5598    1.2921    0.4585 C   0  0  0  0  0  0  0  0  0  0  0  0
    2.5420   -2.7694    2.1114 H   0  0  0  0  0  0  0  0  0  0  0  0
    1.6785    1.0708    0.4171 H   0  0  0  0  0  0  0  0  0  0  0  0
    2.6127    0.2340   -0.9019 H   0  0  0  0  0  0  0  0  0  0  0  0
    0.4592    0.6900   -1.7056 H   0  0  0  0  0  0  0  0  0  0  0  0
    1.4065   -1.8677   -1.2526 H   0  0  0  0  0  0  0  0  0  0  0  0
   -0.4690    1.6534    0.6767 H   0  0  0  0  0  0  0  0  0  0  0  0
   -1.1434    0.4368    1.7972 H   0  0  0  0  0  0  0  0  0  0  0  0
   -2.6061    2.4001    0.6441 H   0  0  0  0  0  0  0  0  0  0  0  0
   -2.9278    1.1068   -0.5634 H   0  0  0  0  0  0  0  0  0  0  0  0
   -3.2754    0.7601    1.1470 H   0  0  0  0  0  0  0  0  0  0  0  0
  1  2  3  0
  2  3  1  0
  3  4  1  0
  4  5  1  0
  4  6  1  0
  6  7  2  0
  6  8  1  0
  8  9  1  0
  1 10  1  0
  3 11  1  0
  3 12  1  0
  4 13  1  0
  5 14  1  0
  8 15  1  0
  8 16  1  0
  9 17  1  0
  9 18  1  0
  9 19  1  0
M  END
