
     RDKit          3D

 23 22  0  0  0  0  0  0  0  0999 V2000
   -0.1802    0.5236   -2.3058 C   0  0  0  0  0  0  0  0  0  0  0  0
    0.0743    0.4595   -1.2078 C   0  0  0  0  0  0  0  0  0  0  0  0
    0.4368    0.3839    0.2489 C   0  0  0  0  0  0  0  0  0  0  0  0
    1.9602    0.4068    0.2808 C   0  0  0  0  0  0  0  0  0  0  0  0
    2.5824   -0.7307   -0.4553 C   0  0  0  0  0  0  0  0  0  0  0  0
   -0.1387   -0.8088    0.8796 C   0  0  0  0  0  0  0  0  0  0  0  0
   -1.6153   -0.9977    0.8671 C   0  0  0  0  0  0  0  0  0  0  0  0
   -2.3718   -0.1252    1.5148 O   0  0  0  0  0  0  0  0  0  0  0  0
   -2.4691    1.1849    1.3508 C   0  0  0  0  0  0  0  0  0  0  0  0
   -0.4332    0.5675   -3.3934 H   0  0  0  0  0  0  0  0  0  0  0  0
    0.1234    1.3191    0.6952 H   0  0  0  0  0  0  0  0  0  0  0  0
    2.3268    0.4937    1.3319 H   0  0  0  0  0  0  0  0  0  0  0  0
    2.2625    1.3501   -0.2201 H   0  0  0  0  0  0  0  0  0  0  0  0
    3.6851   -0.6562   -0.2960 H   0  0  0  0  0  0  0  0  0  0  0  0
    2.2969   -1.7345   -0.1172 H   0  0  0  0  0  0  0  0  0  0  0  0
    2.3670   -0.6264   -1.5478 H   0  0  0  0  0  0  0  0  0  0  0  0
    0.2855   -1.7611    0.4135 H   0  0  0  0  0  0  0  0  0  0  0  0
    0.2564   -0.9189    1.9485 H   0  0  0  0  0  0  0  0  0  0  0  0
   -1.8687   -2.0320    1.3338 H   0  0  0  0  0  0  0  0  0  0  0  0
   -1.9669   -1.1876   -0.2071 H   0  0  0  0  0  0  0  0  0  0  0  0
   -3.3362    1.5412    2.0272 H   0  0  0  0  0  0  0  0  0  0  0  0
   -2.6502    1.5948    0.3503 H   0  0  0  0  0  0  0  0  0  0  0  0
   -1.6271    1.7540    1.8889 H   0  0  0  0  0  0  0  0  0  0  0  0
  1  2  3  0
  2  3  1  0
  3  4  1  0
  4  5  1  0
  3  6  1  0
  6  7  1  0
  7  8  1  0
  8  9  1  0
  1 10  1  0
  3 11  1  0
  4 12  1  0
  4 13  1  0
  5 14  1  0
  5 15  1  0
  5 16  1  0
  6 17  1  0
  6 18  1  0
  7 19  1  0
  7 20  1  0
  9 21  1  0
  9 22  1  0
  9 23  1  0
M  END
