
     RDKit          3D

 21 22  0  0  0  0  0  0  0  0999 V2000
    2.3771   -1.5512    1.8324 C   0  0  0  0  0  0  0  0  0  0  0  0
    1.1574   -1.5860    0.3404 C   0  0  0  0  0  0  0  0  0  0  0  0
    0.0884   -1.6118   -0.9872 C   0  0  0  0  0  0  0  0  0  0  0  0
    0.8747   -0.4660   -1.7063 C   0  0  0  0  0  0  0  0  0  0  0  0
   -0.0414   -0.1253   -0.6813 C   0  0  0  0  0  0  0  0  0  0  0  0
   -1.3645    0.3857   -1.1110 C   0  0  0  0  0  0  0  0  0  0  0  0
   -1.4641    1.2430    0.0747 C   0  0  0  0  0  0  0  0  0  0  0  0
    0.0152    0.7346    0.4168 C   0  0  0  0  0  0  0  0  0  0  0  0
   -0.0865    0.4534    1.9166 C   0  0  0  0  0  0  0  0  0  0  0  0
    3.2237   -1.5098    2.8424 H   0  0  0  0  0  0  0  0  0  0  0  0
   -0.5569   -2.1514   -0.4087 H   0  0  0  0  0  0  0  0  0  0  0  0
    1.9408   -0.1504   -1.4508 H   0  0  0  0  0  0  0  0  0  0  0  0
    0.7117   -0.3904   -2.7925 H   0  0  0  0  0  0  0  0  0  0  0  0
   -1.5059    0.7501   -2.1258 H   0  0  0  0  0  0  0  0  0  0  0  0
   -2.0879   -0.5661   -0.9743 H   0  0  0  0  0  0  0  0  0  0  0  0
   -1.4337    2.3582   -0.0468 H   0  0  0  0  0  0  0  0  0  0  0  0
   -2.2151    0.9583    0.8371 H   0  0  0  0  0  0  0  0  0  0  0  0
    0.6562    1.7212    0.3226 H   0  0  0  0  0  0  0  0  0  0  0  0
    0.4666   -0.3732    2.2725 H   0  0  0  0  0  0  0  0  0  0  0  0
   -1.1171    0.4630    2.3161 H   0  0  0  0  0  0  0  0  0  0  0  0
    0.3615    1.4143    2.3717 H   0  0  0  0  0  0  0  0  0  0  0  0
  1  2  3  0
  2  3  1  0
  3  4  1  0
  4  5  1  0
  5  6  1  0
  6  7  1  0
  7  8  1  0
  8  9  1  0
  5  3  1  0
  8  5  1  0
  1 10  1  0
  3 11  1  0
  4 12  1  0
  4 13  1  0
  6 14  1  0
  6 15  1  0
  7 16  1  0
  7 17  1  0
  8 18  1  0
  9 19  1  0
  9 20  1  0
  9 21  1  0
M  END
