
     RDKit          3D

 19 19  0  0  0  0  0  0  0  0999 V2000
    0.4741    3.5243   -1.2126 C   0  0  0  0  0  0  0  0  0  0  0  0
    0.3458    2.5916   -0.4645 C   0  0  0  0  0  0  0  0  0  0  0  0
    0.1789    1.4706    0.4110 C   0  0  0  0  0  0  0  0  0  0  0  0
    0.3134    0.1594   -0.3524 C   0  0  0  0  0  0  0  0  0  0  0  0
   -0.6256    0.0566   -1.3581 O   0  0  0  0  0  0  0  0  0  0  0  0
   -0.8826   -1.2856   -1.5098 C   0  0  0  0  0  0  0  0  0  0  0  0
   -0.6757   -1.8740   -0.1542 C   0  0  0  0  0  0  0  0  0  0  0  0
    0.0410   -0.9954    0.5218 C   0  0  0  0  0  0  0  0  0  0  0  0
    0.4601   -1.2224    1.9375 C   0  0  0  0  0  0  0  0  0  0  0  0
    0.5952    4.3699   -1.9151 H   0  0  0  0  0  0  0  0  0  0  0  0
    0.9055    1.5266    1.2397 H   0  0  0  0  0  0  0  0  0  0  0  0
   -0.8422    1.5040    0.8657 H   0  0  0  0  0  0  0  0  0  0  0  0
    1.3219    0.0408   -0.7749 H   0  0  0  0  0  0  0  0  0  0  0  0
   -1.9333   -1.4969   -1.8028 H   0  0  0  0  0  0  0  0  0  0  0  0
   -0.2487   -1.8096   -2.2319 H   0  0  0  0  0  0  0  0  0  0  0  0
   -1.0732   -2.8419    0.1387 H   0  0  0  0  0  0  0  0  0  0  0  0
   -0.4238   -1.2999    2.5991 H   0  0  0  0  0  0  0  0  0  0  0  0
    1.0768   -2.1281    2.0600 H   0  0  0  0  0  0  0  0  0  0  0  0
    0.9925   -0.2899    2.2665 H   0  0  0  0  0  0  0  0  0  0  0  0
  1  2  3  0
  2  3  1  0
  3  4  1  0
  4  5  1  0
  5  6  1  0
  6  7  1  0
  7  8  2  0
  8  9  1  0
  8  4  1  0
  1 10  1  0
  3 11  1  0
  3 12  1  0
  4 13  1  0
  6 14  1  0
  6 15  1  0
  7 16  1  0
  9 17  1  0
  9 18  1  0
  9 19  1  0
M  END
