
     RDKit          3D

 15 15  0  0  0  0  0  0  0  0999 V2000
    4.1106    0.6507    0.8158 C   0  0  0  0  0  0  0  0  0  0  0  0
    3.0519    0.5285    1.4282 C   0  0  0  0  0  0  0  0  0  0  0  0
    1.7928    0.3592    2.1473 C   0  0  0  0  0  0  0  0  0  0  0  0
    1.7262    0.2570    3.3876 O   0  0  0  0  0  0  0  0  0  0  0  0
    0.5531    0.3061    1.3989 C   0  0  0  0  0  0  0  0  0  0  0  0
   -0.4526    0.2604    0.8149 C   0  0  0  0  0  0  0  0  0  0  0  0
   -1.7504    0.2264    0.0526 C   0  0  0  0  0  0  0  0  0  0  0  0
   -2.1596   -1.0864   -0.4450 C   0  0  0  0  0  0  0  0  0  0  0  0
   -1.6159   -0.1131   -1.4469 C   0  0  0  0  0  0  0  0  0  0  0  0
    5.0026    0.7577    0.3195 H   0  0  0  0  0  0  0  0  0  0  0  0
   -2.5173    0.9778    0.3254 H   0  0  0  0  0  0  0  0  0  0  0  0
   -1.5997   -2.0154   -0.2296 H   0  0  0  0  0  0  0  0  0  0  0  0
   -3.2626   -1.2601   -0.5504 H   0  0  0  0  0  0  0  0  0  0  0  0
   -0.5765   -0.2894   -1.7789 H   0  0  0  0  0  0  0  0  0  0  0  0
   -2.3027    0.4406   -2.1142 H   0  0  0  0  0  0  0  0  0  0  0  0
  1  2  3  0
  2  3  1  0
  3  4  2  0
  3  5  1  0
  5  6  3  0
  6  7  1  0
  7  8  1  0
  8  9  1  0
  9  7  1  0
  1 10  1  0
  7 11  1  0
  8 12  1  0
  8 13  1  0
  9 14  1  0
  9 15  1  0
M  END
