
     RDKit          3D

 15 14  0  0  0  0  0  0  0  0999 V2000
    4.2260   -0.6330    1.1120 C   0  0  0  0  0  0  0  0  0  0  0  0
    3.4276   -0.3087    0.2723 C   0  0  0  0  0  0  0  0  0  0  0  0
    2.4709    0.0978   -0.7141 C   0  0  0  0  0  0  0  0  0  0  0  0
    2.9455    0.7173   -1.7252 O   0  0  0  0  0  0  0  0  0  0  0  0
    1.0626   -0.1600   -0.6019 C   0  0  0  0  0  0  0  0  0  0  0  0
   -0.1256   -0.3605   -0.5144 C   0  0  0  0  0  0  0  0  0  0  0  0
   -1.5634   -0.5788   -0.4011 C   0  0  0  0  0  0  0  0  0  0  0  0
   -2.1540    0.5423    0.3979 C   0  0  0  0  0  0  0  0  0  0  0  0
   -3.5434    0.2865    0.4794 O   0  0  0  0  0  0  0  0  0  0  0  0
    4.9334   -0.9405    1.8604 H   0  0  0  0  0  0  0  0  0  0  0  0
   -1.7781   -1.5549    0.1024 H   0  0  0  0  0  0  0  0  0  0  0  0
   -2.0642   -0.5526   -1.4095 H   0  0  0  0  0  0  0  0  0  0  0  0
   -2.0017    1.4965   -0.1833 H   0  0  0  0  0  0  0  0  0  0  0  0
   -1.7774    0.6072    1.4242 H   0  0  0  0  0  0  0  0  0  0  0  0
   -4.0582    0.9003   -0.0989 H   0  0  0  0  0  0  0  0  0  0  0  0
  1  2  3  0
  2  3  1  0
  3  4  2  0
  3  5  1  0
  5  6  3  0
  6  7  1  0
  7  8  1  0
  8  9  1  0
  1 10  1  0
  7 11  1  0
  7 12  1  0
  8 13  1  0
  8 14  1  0
  9 15  1  0
M  END
