
     RDKit          3D

 15 14  0  0  0  0  0  0  0  0999 V2000
   -2.8146    1.3416   -2.7147 C   0  0  0  0  0  0  0  0  0  0  0  0
   -2.0094    0.5792   -2.2000 C   0  0  0  0  0  0  0  0  0  0  0  0
   -1.0623   -0.2886   -1.5896 C   0  0  0  0  0  0  0  0  0  0  0  0
   -0.9023   -1.4437   -2.0313 O   0  0  0  0  0  0  0  0  0  0  0  0
   -0.2705    0.1327   -0.4599 C   0  0  0  0  0  0  0  0  0  0  0  0
   -0.4354    1.2924   -0.0214 O   0  0  0  0  0  0  0  0  0  0  0  0
    0.7203   -0.7371    0.1992 C   0  0  0  0  0  0  0  0  0  0  0  0
    1.3625    0.0162    1.3377 C   0  0  0  0  0  0  0  0  0  0  0  0
    2.2913   -0.8400    1.9336 O   0  0  0  0  0  0  0  0  0  0  0  0
   -3.5257    1.9950   -3.1500 H   0  0  0  0  0  0  0  0  0  0  0  0
    1.5133   -1.0944   -0.4776 H   0  0  0  0  0  0  0  0  0  0  0  0
    0.1751   -1.6209    0.6425 H   0  0  0  0  0  0  0  0  0  0  0  0
    1.8067    0.9626    0.9912 H   0  0  0  0  0  0  0  0  0  0  0  0
    0.5737    0.2199    2.1190 H   0  0  0  0  0  0  0  0  0  0  0  0
    2.5772   -0.5149    2.8143 H   0  0  0  0  0  0  0  0  0  0  0  0
  1  2  3  0
  2  3  1  0
  3  4  2  0
  3  5  1  0
  5  6  2  0
  5  7  1  0
  7  8  1  0
  8  9  1  0
  1 10  1  0
  7 11  1  0
  7 12  1  0
  8 13  1  0
  8 14  1  0
  9 15  1  0
M  END
