
     RDKit          3D

 18 18  0  0  0  0  0  0  0  0999 V2000
    0.2500   -3.6872   -0.2417 C   0  0  0  0  0  0  0  0  0  0  0  0
   -0.0906   -2.5260   -0.3639 C   0  0  0  0  0  0  0  0  0  0  0  0
   -0.4791   -1.1305   -0.4940 C   0  0  0  0  0  0  0  0  0  0  0  0
   -1.0598   -0.6384    0.8892 C   0  0  0  0  0  0  0  0  0  0  0  0
    0.1195    0.0007    0.2011 C   0  0  0  0  0  0  0  0  0  0  0  0
    1.3957   -0.1431    0.7173 O   0  0  0  0  0  0  0  0  0  0  0  0
   -0.2124    1.4306   -0.2393 C   0  0  0  0  0  0  0  0  0  0  0  0
    0.5470    2.4016    0.6124 C   0  0  0  0  0  0  0  0  0  0  0  0
    0.5594   -4.7115   -0.1308 H   0  0  0  0  0  0  0  0  0  0  0  0
   -1.1659   -0.9358   -1.3706 H   0  0  0  0  0  0  0  0  0  0  0  0
   -0.7306   -1.2676    1.7716 H   0  0  0  0  0  0  0  0  0  0  0  0
   -2.0694   -0.2765    0.8525 H   0  0  0  0  0  0  0  0  0  0  0  0
    2.0133    0.4201    0.1781 H   0  0  0  0  0  0  0  0  0  0  0  0
   -0.0367    1.5732   -1.3216 H   0  0  0  0  0  0  0  0  0  0  0  0
   -1.2988    1.5829   -0.0763 H   0  0  0  0  0  0  0  0  0  0  0  0
    1.3903    2.9026    0.0617 H   0  0  0  0  0  0  0  0  0  0  0  0
   -0.1741    3.1274    1.0580 H   0  0  0  0  0  0  0  0  0  0  0  0
    1.0421    1.8774    1.4600 H   0  0  0  0  0  0  0  0  0  0  0  0
  1  2  3  0
  2  3  1  0
  3  4  1  0
  4  5  1  0
  5  6  1  0
  5  7  1  0
  7  8  1  0
  5  3  1  0
  1  9  1  0
  3 10  1  0
  4 11  1  0
  4 12  1  0
  6 13  1  0
  7 14  1  0
  7 15  1  0
  8 16  1  0
  8 17  1  0
  8 18  1  0
M  END
