
     RDKit          3D

 18 18  0  0  0  0  0  0  0  0999 V2000
    2.6176   -0.3415    1.6598 C   0  0  0  0  0  0  0  0  0  0  0  0
    1.5443    0.0447    1.2655 C   0  0  0  0  0  0  0  0  0  0  0  0
    0.2198    0.5112    0.8051 C   0  0  0  0  0  0  0  0  0  0  0  0
    0.1733    1.4539   -0.3822 C   0  0  0  0  0  0  0  0  0  0  0  0
   -0.3127    0.0212   -0.4846 C   0  0  0  0  0  0  0  0  0  0  0  0
    0.5267   -0.8366   -1.3907 C   0  0  0  0  0  0  0  0  0  0  0  0
   -1.8028   -0.1546   -0.6413 C   0  0  0  0  0  0  0  0  0  0  0  0
   -2.3093   -1.0770    0.2911 O   0  0  0  0  0  0  0  0  0  0  0  0
    3.5646   -0.6823    2.0276 H   0  0  0  0  0  0  0  0  0  0  0  0
   -0.5127    0.7403    1.5851 H   0  0  0  0  0  0  0  0  0  0  0  0
   -0.5637    2.2681   -0.3826 H   0  0  0  0  0  0  0  0  0  0  0  0
    1.1610    1.7336   -0.7556 H   0  0  0  0  0  0  0  0  0  0  0  0
    1.2932   -1.3890   -0.7921 H   0  0  0  0  0  0  0  0  0  0  0  0
    1.0376   -0.2634   -2.1875 H   0  0  0  0  0  0  0  0  0  0  0  0
   -0.0935   -1.6009   -1.8967 H   0  0  0  0  0  0  0  0  0  0  0  0
   -2.0265   -0.5989   -1.6456 H   0  0  0  0  0  0  0  0  0  0  0  0
   -2.3196    0.8218   -0.5850 H   0  0  0  0  0  0  0  0  0  0  0  0
   -2.1972   -0.6506    1.1957 H   0  0  0  0  0  0  0  0  0  0  0  0
  1  2  3  0
  2  3  1  0
  3  4  1  0
  4  5  1  0
  5  6  1  0
  5  7  1  0
  7  8  1  0
  5  3  1  0
  1  9  1  0
  3 10  1  0
  4 11  1  0
  4 12  1  0
  6 13  1  0
  6 14  1  0
  6 15  1  0
  7 16  1  0
  7 17  1  0
  8 18  1  0
M  END
