
     RDKit          3D

 21 21  0  0  0  0  0  0  0  0999 V2000
    3.9527   -1.2442   -0.1516 C   0  0  0  0  0  0  0  0  0  0  0  0
    2.8479   -0.7367   -0.1990 C   0  0  0  0  0  0  0  0  0  0  0  0
    1.4933   -0.1426   -0.2575 C   0  0  0  0  0  0  0  0  0  0  0  0
    0.9375   -0.1852    1.1289 C   0  0  0  0  0  0  0  0  0  0  0  0
   -0.3984    0.4403    1.2044 C   0  0  0  0  0  0  0  0  0  0  0  0
   -1.4957   -0.1215    0.3992 C   0  0  0  0  0  0  0  0  0  0  0  0
   -1.4466   -0.1695   -1.0766 C   0  0  0  0  0  0  0  0  0  0  0  0
   -2.8067    0.2673   -1.0848 O   0  0  0  0  0  0  0  0  0  0  0  0
   -2.5044    0.9829    0.0430 C   0  0  0  0  0  0  0  0  0  0  0  0
    4.9280   -1.6718   -0.1097 H   0  0  0  0  0  0  0  0  0  0  0  0
    0.8928   -0.7749   -0.9500 H   0  0  0  0  0  0  0  0  0  0  0  0
    1.4897    0.8775   -0.6500 H   0  0  0  0  0  0  0  0  0  0  0  0
    0.9506   -1.2396    1.5276 H   0  0  0  0  0  0  0  0  0  0  0  0
    1.6699    0.3688    1.7856 H   0  0  0  0  0  0  0  0  0  0  0  0
   -0.7193    0.3728    2.2970 H   0  0  0  0  0  0  0  0  0  0  0  0
   -0.3239    1.5516    1.0556 H   0  0  0  0  0  0  0  0  0  0  0  0
   -2.0065   -1.0183    0.8476 H   0  0  0  0  0  0  0  0  0  0  0  0
   -1.3515   -1.1861   -1.5405 H   0  0  0  0  0  0  0  0  0  0  0  0
   -0.8656    0.6344   -1.5347 H   0  0  0  0  0  0  0  0  0  0  0  0
   -1.9370    1.9010   -0.2013 H   0  0  0  0  0  0  0  0  0  0  0  0
   -3.3065    1.0940    0.7974 H   0  0  0  0  0  0  0  0  0  0  0  0
  1  2  3  0
  2  3  1  0
  3  4  1  0
  4  5  1  0
  5  6  1  0
  6  7  1  0
  7  8  1  0
  8  9  1  0
  9  6  1  0
  1 10  1  0
  3 11  1  0
  3 12  1  0
  4 13  1  0
  4 14  1  0
  5 15  1  0
  5 16  1  0
  6 17  1  0
  7 18  1  0
  7 19  1  0
  9 20  1  0
  9 21  1  0
M  END
