
     RDKit          3D

 19 19  0  0  0  0  0  0  0  0999 V2000
    2.1898   -2.7258   -1.2670 C   0  0  0  0  0  0  0  0  0  0  0  0
    1.4684   -1.8096   -1.0079 C   0  0  0  0  0  0  0  0  0  0  0  0
    0.6097   -0.6789   -0.6977 C   0  0  0  0  0  0  0  0  0  0  0  0
   -0.6705   -0.9472   -0.4619 C   0  0  0  0  0  0  0  0  0  0  0  0
   -1.7620    0.0303   -0.1196 C   0  0  0  0  0  0  0  0  0  0  0  0
   -1.5033    0.6688    1.2195 C   0  0  0  0  0  0  0  0  0  0  0  0
   -0.2637    1.4544    1.2933 C   0  0  0  0  0  0  0  0  0  0  0  0
    0.7933    1.4380    0.5289 C   0  0  0  0  0  0  0  0  0  0  0  0
    1.1904    0.6793   -0.6636 C   0  0  0  0  0  0  0  0  0  0  0  0
    2.8346   -3.5655   -1.5104 H   0  0  0  0  0  0  0  0  0  0  0  0
   -0.9031   -1.9975   -0.5399 H   0  0  0  0  0  0  0  0  0  0  0  0
   -2.6798   -0.5989    0.0101 H   0  0  0  0  0  0  0  0  0  0  0  0
   -1.9155    0.7811   -0.9013 H   0  0  0  0  0  0  0  0  0  0  0  0
   -1.4059   -0.1739    1.9608 H   0  0  0  0  0  0  0  0  0  0  0  0
   -2.4090    1.2778    1.4642 H   0  0  0  0  0  0  0  0  0  0  0  0
   -0.2505    2.1678    2.1405 H   0  0  0  0  0  0  0  0  0  0  0  0
    1.5694    2.1529    0.8369 H   0  0  0  0  0  0  0  0  0  0  0  0
    2.2925    0.6087   -0.7339 H   0  0  0  0  0  0  0  0  0  0  0  0
    0.8152    1.2382   -1.5512 H   0  0  0  0  0  0  0  0  0  0  0  0
  1  2  3  0
  2  3  1  0
  3  4  2  0
  4  5  1  0
  5  6  1  0
  6  7  1  0
  7  8  2  0
  8  9  1  0
  9  3  1  0
  1 10  1  0
  4 11  1  0
  5 12  1  0
  5 13  1  0
  6 14  1  0
  6 15  1  0
  7 16  1  0
  8 17  1  0
  9 18  1  0
  9 19  1  0
M  END
