
     RDKit          3D

 16 16  0  0  0  0  0  0  0  0999 V2000
    1.4178    1.4607    1.5082 C   0  0  0  0  0  0  0  0  0  0  0  0
    0.4477    0.7270    1.0992 C   0  0  0  0  0  0  0  0  0  0  0  0
   -0.6477   -0.0866    0.6166 C   0  0  0  0  0  0  0  0  0  0  0  0
   -0.8772   -1.2176    1.5021 C   0  0  0  0  0  0  0  0  0  0  0  0
    0.3544   -0.9341   -0.3074 O   0  0  0  0  0  0  0  0  0  0  0  0
    0.1891   -0.4577   -1.5380 C   0  0  0  0  0  0  0  0  0  0  0  0
   -0.2175    0.9853   -1.2058 C   0  0  0  0  0  0  0  0  0  0  0  0
   -1.2616    0.5965   -0.2931 O   0  0  0  0  0  0  0  0  0  0  0  0
    2.4248    2.2232    1.9491 H   0  0  0  0  0  0  0  0  0  0  0  0
   -1.1401   -2.1823    0.9385 H   0  0  0  0  0  0  0  0  0  0  0  0
    0.2429   -1.5219    1.8623 H   0  0  0  0  0  0  0  0  0  0  0  0
   -1.4576   -1.1644    2.3909 H   0  0  0  0  0  0  0  0  0  0  0  0
   -0.6162   -0.9992   -2.0914 H   0  0  0  0  0  0  0  0  0  0  0  0
    1.1325   -0.4245   -2.1385 H   0  0  0  0  0  0  0  0  0  0  0  0
   -0.6027    1.5188   -2.0684 H   0  0  0  0  0  0  0  0  0  0  0  0
    0.6116    1.4768   -0.6990 H   0  0  0  0  0  0  0  0  0  0  0  0
  1  2  3  0
  2  3  1  0
  3  4  1  0
  3  5  1  0
  5  6  1  0
  6  7  1  0
  7  8  1  0
  8  3  1  0
  1  9  1  0
  4 10  1  0
  4 11  1  0
  4 12  1  0
  6 13  1  0
  6 14  1  0
  7 15  1  0
  7 16  1  0
M  END
