
     RDKit          3D

 17 17  0  0  0  0  0  0  0  0999 V2000
    1.2572   -0.2938   -3.0568 C   0  0  0  0  0  0  0  0  0  0  0  0
    1.0021    0.0074   -1.8195 C   0  0  0  0  0  0  0  0  0  0  0  0
    0.7347    0.3374   -0.4181 C   0  0  0  0  0  0  0  0  0  0  0  0
    1.6706   -0.1391    0.5170 O   0  0  0  0  0  0  0  0  0  0  0  0
   -0.1605    1.4370   -0.0294 C   0  0  0  0  0  0  0  0  0  0  0  0
    0.1289    2.1592    1.1405 O   0  0  0  0  0  0  0  0  0  0  0  0
   -0.7731    0.1238   -0.0299 C   0  0  0  0  0  0  0  0  0  0  0  0
   -0.9184   -0.7387    1.1824 C   0  0  0  0  0  0  0  0  0  0  0  0
   -0.3054   -1.9762    0.8251 O   0  0  0  0  0  0  0  0  0  0  0  0
    1.4452   -0.5104   -3.9101 H   0  0  0  0  0  0  0  0  0  0  0  0
    1.8302   -1.0937    0.1470 H   0  0  0  0  0  0  0  0  0  0  0  0
   -0.4107    2.1553   -0.8760 H   0  0  0  0  0  0  0  0  0  0  0  0
   -0.7022    2.4257    1.6320 H   0  0  0  0  0  0  0  0  0  0  0  0
   -1.4440   -0.1515   -0.8795 H   0  0  0  0  0  0  0  0  0  0  0  0
   -0.4279   -0.3534    2.1068 H   0  0  0  0  0  0  0  0  0  0  0  0
   -2.0146   -0.9388    1.3398 H   0  0  0  0  0  0  0  0  0  0  0  0
   -0.9122   -2.4502    0.2018 H   0  0  0  0  0  0  0  0  0  0  0  0
  1  2  3  0
  2  3  1  0
  3  4  1  0
  3  5  1  0
  5  6  1  0
  5  7  1  0
  7  8  1  0
  8  9  1  0
  7  3  1  0
  1 10  1  0
  4 11  1  0
  5 12  1  0
  6 13  1  0
  7 14  1  0
  8 15  1  0
  8 16  1  0
  9 17  1  0
M  END
