
     RDKit          3D

 19 20  0  0  0  0  0  0  0  0999 V2000
    1.7961    2.5265    1.9220 C   0  0  0  0  0  0  0  0  0  0  0  0
    1.1603    1.5785    1.5337 C   0  0  0  0  0  0  0  0  0  0  0  0
    0.3978    0.4241    1.0611 C   0  0  0  0  0  0  0  0  0  0  0  0
    0.1444   -0.5733    1.9802 O   0  0  0  0  0  0  0  0  0  0  0  0
    0.7904   -1.5078    1.1742 C   0  0  0  0  0  0  0  0  0  0  0  0
    1.0309   -0.4881    0.0858 C   0  0  0  0  0  0  0  0  0  0  0  0
   -0.1258    0.3849   -0.3106 C   0  0  0  0  0  0  0  0  0  0  0  0
   -1.3689   -0.3558   -0.6806 C   0  0  0  0  0  0  0  0  0  0  0  0
   -1.5909   -0.1708   -2.1671 C   0  0  0  0  0  0  0  0  0  0  0  0
    2.3739    3.3579    2.2736 H   0  0  0  0  0  0  0  0  0  0  0  0
    0.1101   -2.3450    0.8756 H   0  0  0  0  0  0  0  0  0  0  0  0
    1.7122   -1.9182    1.5996 H   0  0  0  0  0  0  0  0  0  0  0  0
    2.0355   -0.3250   -0.3228 H   0  0  0  0  0  0  0  0  0  0  0  0
    0.1003    1.2713   -0.9361 H   0  0  0  0  0  0  0  0  0  0  0  0
   -2.2597   -0.0303   -0.1014 H   0  0  0  0  0  0  0  0  0  0  0  0
   -1.2596   -1.4579   -0.4574 H   0  0  0  0  0  0  0  0  0  0  0  0
   -1.8384   -1.1538   -2.6185 H   0  0  0  0  0  0  0  0  0  0  0  0
   -0.7179    0.3078   -2.6376 H   0  0  0  0  0  0  0  0  0  0  0  0
   -2.4906    0.4750   -2.2736 H   0  0  0  0  0  0  0  0  0  0  0  0
  1  2  3  0
  2  3  1  0
  3  4  1  0
  4  5  1  0
  5  6  1  0
  6  7  1  0
  7  8  1  0
  8  9  1  0
  6  3  1  0
  7  3  1  0
  1 10  1  0
  5 11  1  0
  5 12  1  0
  6 13  1  0
  7 14  1  0
  8 15  1  0
  8 16  1  0
  9 17  1  0
  9 18  1  0
  9 19  1  0
M  END
