
     RDKit          3D

 19 20  0  0  0  0  0  0  0  0999 V2000
    1.9556    1.2593   -2.7602 C   0  0  0  0  0  0  0  0  0  0  0  0
    1.1484    0.4566   -2.1424 C   0  0  0  0  0  0  0  0  0  0  0  0
    0.3314   -0.3535   -1.4921 C   0  0  0  0  0  0  0  0  0  0  0  0
    0.4965   -0.1203    0.0612 C   0  0  0  0  0  0  0  0  0  0  0  0
    0.0347    1.2569    0.4828 C   0  0  0  0  0  0  0  0  0  0  0  0
   -0.2311    0.7259    1.8253 C   0  0  0  0  0  0  0  0  0  0  0  0
   -0.8444   -0.2602    0.8018 C   0  0  0  0  0  0  0  0  0  0  0  0
   -1.2710   -1.5139    1.1740 C   0  0  0  0  0  0  0  0  0  0  0  0
   -1.2515    0.8122    0.1327 O   0  0  0  0  0  0  0  0  0  0  0  0
    2.6997    1.9779   -3.3057 H   0  0  0  0  0  0  0  0  0  0  0  0
   -0.7799    0.1380   -1.5473 H   0  0  0  0  0  0  0  0  0  0  0  0
    0.1903   -1.3681   -1.7055 H   0  0  0  0  0  0  0  0  0  0  0  0
    1.3225   -0.5827    0.4823 H   0  0  0  0  0  0  0  0  0  0  0  0
    0.4321    2.1231    0.1474 H   0  0  0  0  0  0  0  0  0  0  0  0
    0.5927    0.2608    2.3478 H   0  0  0  0  0  0  0  0  0  0  0  0
   -1.1089    1.1837    2.4032 H   0  0  0  0  0  0  0  0  0  0  0  0
   -0.3422   -2.2403    0.9617 H   0  0  0  0  0  0  0  0  0  0  0  0
   -2.0296   -2.0508    0.6438 H   0  0  0  0  0  0  0  0  0  0  0  0
   -1.3451   -1.7048    2.2865 H   0  0  0  0  0  0  0  0  0  0  0  0
  1  2  3  0
  2  3  1  0
  3  4  1  0
  4  5  1  0
  5  6  1  0
  6  7  1  0
  7  8  1  0
  7  9  1  0
  7  4  1  0
  9  5  1  0
  1 10  1  0
  3 11  1  0
  3 12  1  0
  4 13  1  0
  5 14  1  0
  6 15  1  0
  6 16  1  0
  8 17  1  0
  8 18  1  0
  8 19  1  0
M  END
