
     RDKit          3D

 23 22  0  0  0  0  0  0  0  0999 V2000
    2.9612    0.1691   -0.9034 C   0  0  0  0  0  0  0  0  0  0  0  0
    2.0786   -0.6715   -1.0703 C   0  0  0  0  0  0  0  0  0  0  0  0
    1.0558   -1.6801   -1.2717 C   0  0  0  0  0  0  0  0  0  0  0  0
    0.0689   -1.7818   -0.1748 C   0  0  0  0  0  0  0  0  0  0  0  0
   -0.7982   -0.6349    0.1381 C   0  0  0  0  0  0  0  0  0  0  0  0
   -1.6635   -0.1978   -1.0320 C   0  0  0  0  0  0  0  0  0  0  0  0
   -0.1484    0.4962    0.8514 C   0  0  0  0  0  0  0  0  0  0  0  0
   -1.1577    1.4675    1.0627 O   0  0  0  0  0  0  0  0  0  0  0  0
   -0.6528    2.5802    1.7292 C   0  0  0  0  0  0  0  0  0  0  0  0
    3.7304    0.8843   -0.7458 H   0  0  0  0  0  0  0  0  0  0  0  0
    0.5706   -1.5490   -2.2789 H   0  0  0  0  0  0  0  0  0  0  0  0
    1.5795   -2.6858   -1.3798 H   0  0  0  0  0  0  0  0  0  0  0  0
    0.6819   -2.0551    0.7490 H   0  0  0  0  0  0  0  0  0  0  0  0
   -0.5294   -2.7303   -0.3828 H   0  0  0  0  0  0  0  0  0  0  0  0
   -1.5801   -1.0578    0.8716 H   0  0  0  0  0  0  0  0  0  0  0  0
   -2.1445    0.7689   -0.8385 H   0  0  0  0  0  0  0  0  0  0  0  0
   -0.9735   -0.1538   -1.9123 H   0  0  0  0  0  0  0  0  0  0  0  0
   -2.3880   -0.9948   -1.2387 H   0  0  0  0  0  0  0  0  0  0  0  0
    0.6170    1.0198    0.2794 H   0  0  0  0  0  0  0  0  0  0  0  0
    0.2628    0.1276    1.8012 H   0  0  0  0  0  0  0  0  0  0  0  0
   -0.2353    2.3357    2.7194 H   0  0  0  0  0  0  0  0  0  0  0  0
   -1.5011    3.2923    1.8360 H   0  0  0  0  0  0  0  0  0  0  0  0
    0.1657    3.0511    1.1318 H   0  0  0  0  0  0  0  0  0  0  0  0
  1  2  3  0
  2  3  1  0
  3  4  1  0
  4  5  1  0
  5  6  1  0
  5  7  1  0
  7  8  1  0
  8  9  1  0
  1 10  1  0
  3 11  1  0
  3 12  1  0
  4 13  1  0
  4 14  1  0
  5 15  1  0
  6 16  1  0
  6 17  1  0
  6 18  1  0
  7 19  1  0
  7 20  1  0
  9 21  1  0
  9 22  1  0
  9 23  1  0
M  END
