
     RDKit          3D

 16 16  0  0  0  0  0  0  0  0999 V2000
    2.8274    1.0860    0.0925 C   0  0  0  0  0  0  0  0  0  0  0  0
    1.9714    0.2175    0.2409 C   0  0  0  0  0  0  0  0  0  0  0  0
    0.9524   -0.8166    0.4432 C   0  0  0  0  0  0  0  0  0  0  0  0
   -0.3935   -0.2449    0.0232 C   0  0  0  0  0  0  0  0  0  0  0  0
   -0.5368    0.1948   -1.3350 C   0  0  0  0  0  0  0  0  0  0  0  0
   -0.6475    0.5766   -2.5583 C   0  0  0  0  0  0  0  0  0  0  0  0
   -1.1196    0.4805    1.0824 C   0  0  0  0  0  0  0  0  0  0  0  0
   -1.6400   -0.8531    0.6526 C   0  0  0  0  0  0  0  0  0  0  0  0
    3.5546    1.8375   -0.0194 H   0  0  0  0  0  0  0  0  0  0  0  0
    1.2249   -1.7267   -0.0850 H   0  0  0  0  0  0  0  0  0  0  0  0
    0.8945   -0.9876    1.5344 H   0  0  0  0  0  0  0  0  0  0  0  0
   -0.7504    0.8935   -3.5363 H   0  0  0  0  0  0  0  0  0  0  0  0
   -0.6571    0.5430    2.0867 H   0  0  0  0  0  0  0  0  0  0  0  0
   -1.6955    1.3874    0.8174 H   0  0  0  0  0  0  0  0  0  0  0  0
   -1.4324   -1.6818    1.3446 H   0  0  0  0  0  0  0  0  0  0  0  0
   -2.5523   -0.9060   -0.0036 H   0  0  0  0  0  0  0  0  0  0  0  0
  1  2  3  0
  2  3  1  0
  3  4  1  0
  4  5  1  0
  5  6  3  0
  4  7  1  0
  7  8  1  0
  8  4  1  0
  1  9  1  0
  3 10  1  0
  3 11  1  0
  6 12  1  0
  7 13  1  0
  7 14  1  0
  8 15  1  0
  8 16  1  0
M  END
