
     RDKit          3D

 17 17  0  0  0  0  0  0  0  0999 V2000
    3.6018    1.0240    0.2486 C   0  0  0  0  0  0  0  0  0  0  0  0
    2.2668    0.8665   -0.4954 C   0  0  0  0  0  0  0  0  0  0  0  0
    1.0998    0.7165   -1.1533 C   0  0  0  0  0  0  0  0  0  0  0  0
    1.2417    0.8142   -2.3723 O   0  0  0  0  0  0  0  0  0  0  0  0
    0.0049    0.4568   -0.1038 C   0  0  0  0  0  0  0  0  0  0  0  0
    0.1892   -1.0038    0.2158 C   0  0  0  0  0  0  0  0  0  0  0  0
   -1.1642   -0.3306   -0.2016 C   0  0  0  0  0  0  0  0  0  0  0  0
   -2.0880   -0.1730    1.0571 C   0  0  0  0  0  0  0  0  0  0  0  0
   -1.7016   -0.9491   -1.3024 O   0  0  0  0  0  0  0  0  0  0  0  0
    4.7656    1.1844    0.9065 H   0  0  0  0  0  0  0  0  0  0  0  0
    0.0703    1.3061    0.6477 H   0  0  0  0  0  0  0  0  0  0  0  0
    0.2722   -1.5002    1.1118 H   0  0  0  0  0  0  0  0  0  0  0  0
    0.6220   -1.6350   -0.6790 H   0  0  0  0  0  0  0  0  0  0  0  0
   -2.8992   -0.8788    0.9968 H   0  0  0  0  0  0  0  0  0  0  0  0
   -1.4873   -0.3131    1.9533 H   0  0  0  0  0  0  0  0  0  0  0  0
   -2.4675    0.8944    1.0171 H   0  0  0  0  0  0  0  0  0  0  0  0
   -2.3265   -0.4794   -1.8470 H   0  0  0  0  0  0  0  0  0  0  0  0
  1  2  3  0
  2  3  1  0
  3  4  2  0
  3  5  1  0
  5  6  1  0
  6  7  1  0
  7  8  1  0
  7  9  1  0
  7  5  1  0
  1 10  1  0
  5 11  1  0
  6 12  1  0
  6 13  1  0
  8 14  1  0
  8 15  1  0
  8 16  1  0
  9 17  1  0
M  END
