
     RDKit          3D

 19 18  0  0  0  0  0  0  0  0999 V2000
    0.2034   -1.5573   -2.9295 C   0  0  0  0  0  0  0  0  0  0  0  0
    0.0205   -0.5806   -1.7532 C   0  0  0  0  0  0  0  0  0  0  0  0
   -0.1153    0.2442   -0.7862 C   0  0  0  0  0  0  0  0  0  0  0  0
    0.3045    1.6684   -0.9348 C   0  0  0  0  0  0  0  0  0  0  0  0
   -0.5638   -0.2587    0.5400 C   0  0  0  0  0  0  0  0  0  0  0  0
    0.2954   -1.3938    1.1074 C   0  0  0  0  0  0  0  0  0  0  0  0
   -0.6284    0.8045    1.6032 C   0  0  0  0  0  0  0  0  0  0  0  0
    0.3087   -2.1473   -3.6312 H   0  0  0  0  0  0  0  0  0  0  0  0
    1.2395   -0.0792   -0.3340 H   0  0  0  0  0  0  0  0  0  0  0  0
    0.1252    2.0364   -1.9739 H   0  0  0  0  0  0  0  0  0  0  0  0
    1.4551    1.7627   -0.7244 H   0  0  0  0  0  0  0  0  0  0  0  0
   -0.1556    2.3685   -0.1527 H   0  0  0  0  0  0  0  0  0  0  0  0
   -1.5823   -0.6964    0.4556 H   0  0  0  0  0  0  0  0  0  0  0  0
   -0.0315   -1.6354    2.1722 H   0  0  0  0  0  0  0  0  0  0  0  0
   -0.0534   -2.3583    0.5824 H   0  0  0  0  0  0  0  0  0  0  0  0
    1.3653   -1.3157    1.0558 H   0  0  0  0  0  0  0  0  0  0  0  0
   -0.6834    0.2921    2.6181 H   0  0  0  0  0  0  0  0  0  0  0  0
   -1.6524    1.2874    1.4537 H   0  0  0  0  0  0  0  0  0  0  0  0
    0.1485    1.5585    1.6316 H   0  0  0  0  0  0  0  0  0  0  0  0
  1  2  3  0
  2  3  1  0
  3  4  1  0
  3  5  1  0
  5  6  1  0
  5  7  1  0
  1  8  1  0
  3  9  1  0
  4 10  1  0
  4 11  1  0
  4 12  1  0
  5 13  1  0
  6 14  1  0
  6 15  1  0
  6 16  1  0
  7 17  1  0
  7 18  1  0
  7 19  1  0
M  END
