
     RDKit          3D

 18 17  0  0  0  0  0  0  0  0999 V2000
   -0.2374    2.5798   -1.3760 C   0  0  0  0  0  0  0  0  0  0  0  0
   -0.4235    1.2512   -0.8289 C   0  0  0  0  0  0  0  0  0  0  0  0
   -0.5907   -0.1353   -0.2626 C   0  0  0  0  0  0  0  0  0  0  0  0
   -0.3726   -0.9280   -1.6057 C   0  0  0  0  0  0  0  0  0  0  0  0
    0.9082   -0.3612   -2.1480 O   0  0  0  0  0  0  0  0  0  0  0  0
    1.0550   -0.1936    0.0090 O   0  0  0  0  0  0  0  0  0  0  0  0
    0.8061   -0.9454    1.1718 C   0  0  0  0  0  0  0  0  0  0  0  0
   -0.0362    0.0596    2.0239 C   0  0  0  0  0  0  0  0  0  0  0  0
   -0.0460    3.8528   -1.8790 H   0  0  0  0  0  0  0  0  0  0  0  0
   -1.0978   -0.4015    0.4062 H   0  0  0  0  0  0  0  0  0  0  0  0
   -0.1232   -1.9414   -1.3778 H   0  0  0  0  0  0  0  0  0  0  0  0
   -1.0694   -0.7390   -2.3507 H   0  0  0  0  0  0  0  0  0  0  0  0
    0.4511    0.3949   -2.7261 H   0  0  0  0  0  0  0  0  0  0  0  0
   -0.0221   -1.7365    0.8039 H   0  0  0  0  0  0  0  0  0  0  0  0
    1.4642   -1.5297    1.7078 H   0  0  0  0  0  0  0  0  0  0  0  0
    0.4895    0.1802    3.0025 H   0  0  0  0  0  0  0  0  0  0  0  0
   -1.0405   -0.4175    2.2182 H   0  0  0  0  0  0  0  0  0  0  0  0
   -0.1146    1.0107    1.4896 H   0  0  0  0  0  0  0  0  0  0  0  0
  1  2  3  0
  2  3  1  0
  3  4  1  0
  4  5  1  0
  3  6  1  0
  6  7  1  0
  7  8  1  0
  1  9  1  0
  3 10  1  0
  4 11  1  0
  4 12  1  0
  5 13  1  0
  7 14  1  0
  7 15  1  0
  8 16  1  0
  8 17  1  0
  8 18  1  0
M  END
