
     RDKit          3D

 19 19  0  0  0  0  0  0  0  0999 V2000
    5.1529   -0.4407    0.7390 C   0  0  0  0  0  0  0  0  0  0  0  0
    4.0419   -0.0048    0.7214 C   0  0  0  0  0  0  0  0  0  0  0  0
    2.5595    0.5486    0.6886 C   0  0  0  0  0  0  0  0  0  0  0  0
    1.4885    0.9439    0.6451 C   0  0  0  0  0  0  0  0  0  0  0  0
    0.2326    1.3940    0.5746 C   0  0  0  0  0  0  0  0  0  0  0  0
   -0.7943    0.4818    0.1625 C   0  0  0  0  0  0  0  0  0  0  0  0
   -2.2022    0.9115   -0.2073 C   0  0  0  0  0  0  0  0  0  0  0  0
   -1.3691   -0.1931   -0.9515 C   0  0  0  0  0  0  0  0  0  0  0  0
   -1.9336   -1.6161   -0.7319 C   0  0  0  0  0  0  0  0  0  0  0  0
    6.1642   -0.8241    0.7653 H   0  0  0  0  0  0  0  0  0  0  0  0
    0.1623    2.2776   -0.2476 H   0  0  0  0  0  0  0  0  0  0  0  0
   -0.1274    2.0485    1.4433 H   0  0  0  0  0  0  0  0  0  0  0  0
   -0.9153   -0.2686    1.1761 H   0  0  0  0  0  0  0  0  0  0  0  0
   -3.0394    0.5504    0.3780 H   0  0  0  0  0  0  0  0  0  0  0  0
   -2.3583    1.7969   -0.8452 H   0  0  0  0  0  0  0  0  0  0  0  0
   -1.1230   -0.0019   -2.0118 H   0  0  0  0  0  0  0  0  0  0  0  0
   -1.8888   -1.9746    0.2857 H   0  0  0  0  0  0  0  0  0  0  0  0
   -2.8906   -1.7674   -1.2708 H   0  0  0  0  0  0  0  0  0  0  0  0
   -1.1597   -2.2403   -1.3136 H   0  0  0  0  0  0  0  0  0  0  0  0
  1  2  3  0
  2  3  1  0
  3  4  3  0
  4  5  1  0
  5  6  1  0
  6  7  1  0
  7  8  1  0
  8  9  1  0
  8  6  1  0
  1 10  1  0
  5 11  1  0
  5 12  1  0
  6 13  1  0
  7 14  1  0
  7 15  1  0
  8 16  1  0
  9 17  1  0
  9 18  1  0
  9 19  1  0
M  END
