
     RDKit          3D

 19 21  0  0  0  0  0  0  0  0999 V2000
    3.3762    0.0589   -0.2136 C   0  0  0  0  0  0  0  0  0  0  0  0
    2.1954   -0.0004   -0.3784 C   0  0  0  0  0  0  0  0  0  0  0  0
    0.7641   -0.0573   -0.5576 C   0  0  0  0  0  0  0  0  0  0  0  0
    0.1610   -1.3987   -0.3057 C   0  0  0  0  0  0  0  0  0  0  0  0
   -1.1126   -1.1160    0.4505 C   0  0  0  0  0  0  0  0  0  0  0  0
   -1.8626    0.1343    0.2858 C   0  0  0  0  0  0  0  0  0  0  0  0
   -1.2138    1.3750   -0.2594 C   0  0  0  0  0  0  0  0  0  0  0  0
    0.0758    0.9045    0.3986 C   0  0  0  0  0  0  0  0  0  0  0  0
   -0.7646    0.0349    1.2723 C   0  0  0  0  0  0  0  0  0  0  0  0
    4.4347    0.1068   -0.0840 H   0  0  0  0  0  0  0  0  0  0  0  0
    0.5570    0.2420   -1.6228 H   0  0  0  0  0  0  0  0  0  0  0  0
    0.8421   -1.9357    0.4183 H   0  0  0  0  0  0  0  0  0  0  0  0
    0.0178   -2.0182   -1.1916 H   0  0  0  0  0  0  0  0  0  0  0  0
   -1.6299   -1.9774    0.8611 H   0  0  0  0  0  0  0  0  0  0  0  0
   -2.8877    0.1580    0.6652 H   0  0  0  0  0  0  0  0  0  0  0  0
   -1.5962    2.3364    0.1270 H   0  0  0  0  0  0  0  0  0  0  0  0
   -1.1874    1.3458   -1.3661 H   0  0  0  0  0  0  0  0  0  0  0  0
    0.6937    1.6648    0.8527 H   0  0  0  0  0  0  0  0  0  0  0  0
   -0.8629    0.1425    2.3296 H   0  0  0  0  0  0  0  0  0  0  0  0
  1  2  3  0
  2  3  1  0
  3  4  1  0
  4  5  1  0
  5  6  1  0
  6  7  1  0
  7  8  1  0
  8  9  1  0
  8  3  1  0
  9  5  1  0
  9  6  1  0
  1 10  1  0
  3 11  1  0
  4 12  1  0
  4 13  1  0
  5 14  1  0
  6 15  1  0
  7 16  1  0
  7 17  1  0
  8 18  1  0
  9 19  1  0
M  END
