
     RDKit          3D

 19 18  0  0  0  0  0  0  0  0999 V2000
    3.1859    1.0710    0.2075 C   0  0  0  0  0  0  0  0  0  0  0  0
    2.6595    0.2950   -0.4192 C   0  0  0  0  0  0  0  0  0  0  0  0
    1.9502   -0.7760   -1.2701 C   0  0  0  0  0  0  0  0  0  0  0  0
    0.6283   -0.5433   -1.1712 O   0  0  0  0  0  0  0  0  0  0  0  0
    0.1521   -0.4964    0.1166 C   0  0  0  0  0  0  0  0  0  0  0  0
   -1.3430   -0.3492    0.1836 C   0  0  0  0  0  0  0  0  0  0  0  0
   -1.7950   -0.2342    1.6548 C   0  0  0  0  0  0  0  0  0  0  0  0
   -1.9119    0.6671   -0.6484 C   0  0  0  0  0  0  0  0  0  0  0  0
   -2.4168    1.5532   -1.3576 C   0  0  0  0  0  0  0  0  0  0  0  0
    3.6980    1.8241    0.8194 H   0  0  0  0  0  0  0  0  0  0  0  0
    2.3211   -0.6266   -2.3211 H   0  0  0  0  0  0  0  0  0  0  0  0
    2.3425   -1.7169   -0.8618 H   0  0  0  0  0  0  0  0  0  0  0  0
    0.6812    0.3268    0.6267 H   0  0  0  0  0  0  0  0  0  0  0  0
    0.3792   -1.4860    0.6075 H   0  0  0  0  0  0  0  0  0  0  0  0
   -1.7964   -1.3239   -0.1854 H   0  0  0  0  0  0  0  0  0  0  0  0
   -0.9581   -0.0103    2.3316 H   0  0  0  0  0  0  0  0  0  0  0  0
   -2.5342    0.6353    1.6444 H   0  0  0  0  0  0  0  0  0  0  0  0
   -2.4031   -1.0910    1.9813 H   0  0  0  0  0  0  0  0  0  0  0  0
   -2.8394    2.2813   -1.9385 H   0  0  0  0  0  0  0  0  0  0  0  0
  1  2  3  0
  2  3  1  0
  3  4  1  0
  4  5  1  0
  5  6  1  0
  6  7  1  0
  6  8  1  0
  8  9  3  0
  1 10  1  0
  3 11  1  0
  3 12  1  0
  5 13  1  0
  5 14  1  0
  6 15  1  0
  7 16  1  0
  7 17  1  0
  7 18  1  0
  9 19  1  0
M  END
