
     RDKit          3D

 19 20  0  0  0  0  0  0  0  0999 V2000
    1.6552    2.4992   -0.3457 C   0  0  0  0  0  0  0  0  0  0  0  0
    0.8699    1.5956   -0.2269 C   0  0  0  0  0  0  0  0  0  0  0  0
   -0.0155    0.5420   -0.0978 C   0  0  0  0  0  0  0  0  0  0  0  0
   -1.2307    0.6962    0.8257 C   0  0  0  0  0  0  0  0  0  0  0  0
   -1.7500   -0.4478   -0.0412 C   0  0  0  0  0  0  0  0  0  0  0  0
   -0.7578   -1.5064    0.2283 C   0  0  0  0  0  0  0  0  0  0  0  0
    0.4157   -0.8263    0.1840 C   0  0  0  0  0  0  0  0  0  0  0  0
    1.7913   -1.3553    0.3765 C   0  0  0  0  0  0  0  0  0  0  0  0
   -1.0660    0.3060   -1.1927 C   0  0  0  0  0  0  0  0  0  0  0  0
    2.3667    3.3032   -0.4594 H   0  0  0  0  0  0  0  0  0  0  0  0
   -1.7548    1.6472    0.7117 H   0  0  0  0  0  0  0  0  0  0  0  0
   -1.0692    0.3744    1.8558 H   0  0  0  0  0  0  0  0  0  0  0  0
   -2.7757   -0.6365   -0.0972 H   0  0  0  0  0  0  0  0  0  0  0  0
   -0.9267   -2.5597    0.4142 H   0  0  0  0  0  0  0  0  0  0  0  0
    2.1130   -1.9960   -0.4763 H   0  0  0  0  0  0  0  0  0  0  0  0
    2.4636   -0.5057    0.5051 H   0  0  0  0  0  0  0  0  0  0  0  0
    1.8702   -2.0030    1.2854 H   0  0  0  0  0  0  0  0  0  0  0  0
   -0.6375   -0.3503   -1.9490 H   0  0  0  0  0  0  0  0  0  0  0  0
   -1.5615    1.2232   -1.5005 H   0  0  0  0  0  0  0  0  0  0  0  0
  1  2  3  0
  2  3  1  0
  3  4  1  0
  4  5  1  0
  5  6  1  0
  6  7  2  0
  7  8  1  0
  5  9  1  0
  7  3  1  0
  9  3  1  0
  1 10  1  0
  4 11  1  0
  4 12  1  0
  5 13  1  0
  6 14  1  0
  8 15  1  0
  8 16  1  0
  8 17  1  0
  9 18  1  0
  9 19  1  0
M  END
