
     RDKit          3D

 18 18  0  0  0  0  0  0  0  0999 V2000
    2.9674   -0.7272    0.5526 C   0  0  0  0  0  0  0  0  0  0  0  0
    1.7650   -0.8760    0.4098 C   0  0  0  0  0  0  0  0  0  0  0  0
    0.3190   -1.0607    0.2618 C   0  0  0  0  0  0  0  0  0  0  0  0
   -0.0409   -1.5271   -1.0246 O   0  0  0  0  0  0  0  0  0  0  0  0
   -1.2474   -0.8112   -0.8445 C   0  0  0  0  0  0  0  0  0  0  0  0
   -0.4424    0.1850   -0.0412 C   0  0  0  0  0  0  0  0  0  0  0  0
   -1.1929    0.7927    1.1164 C   0  0  0  0  0  0  0  0  0  0  0  0
    0.3009    1.1451   -0.9031 C   0  0  0  0  0  0  0  0  0  0  0  0
    4.0118   -0.5845    0.6813 H   0  0  0  0  0  0  0  0  0  0  0  0
   -0.1448   -1.7401    1.0029 H   0  0  0  0  0  0  0  0  0  0  0  0
   -1.6312   -0.4405   -1.8071 H   0  0  0  0  0  0  0  0  0  0  0  0
   -1.9173   -1.4114   -0.2241 H   0  0  0  0  0  0  0  0  0  0  0  0
   -0.5432    1.0395    1.9636 H   0  0  0  0  0  0  0  0  0  0  0  0
   -2.0145    0.1398    1.4731 H   0  0  0  0  0  0  0  0  0  0  0  0
   -1.6627    1.7285    0.7618 H   0  0  0  0  0  0  0  0  0  0  0  0
    0.9788    1.7776   -0.2971 H   0  0  0  0  0  0  0  0  0  0  0  0
   -0.4303    1.7770   -1.4669 H   0  0  0  0  0  0  0  0  0  0  0  0
    0.9245    0.5936   -1.6145 H   0  0  0  0  0  0  0  0  0  0  0  0
  1  2  3  0
  2  3  1  0
  3  4  1  0
  4  5  1  0
  5  6  1  0
  6  7  1  0
  6  8  1  0
  6  3  1  0
  1  9  1  0
  3 10  1  0
  5 11  1  0
  5 12  1  0
  7 13  1  0
  7 14  1  0
  7 15  1  0
  8 16  1  0
  8 17  1  0
  8 18  1  0
M  END
