
     RDKit          3D

 19 18  0  0  0  0  0  0  0  0999 V2000
    0.4753    2.5838   -0.1128 C   0  0  0  0  0  0  0  0  0  0  0  0
    0.3549    1.3817    0.0084 C   0  0  0  0  0  0  0  0  0  0  0  0
    0.2269   -0.0806    0.1391 C   0  0  0  0  0  0  0  0  0  0  0  0
   -0.0962   -0.4432    1.5788 C   0  0  0  0  0  0  0  0  0  0  0  0
    1.5665   -0.7100   -0.1749 C   0  0  0  0  0  0  0  0  0  0  0  0
    1.9963   -0.4188   -1.4576 O   0  0  0  0  0  0  0  0  0  0  0  0
   -0.8399   -0.5640   -0.7528 C   0  0  0  0  0  0  0  0  0  0  0  0
   -2.2158   -0.0705   -0.5846 C   0  0  0  0  0  0  0  0  0  0  0  0
   -0.6426   -1.3788   -1.6552 O   0  0  0  0  0  0  0  0  0  0  0  0
    0.5825    3.6337   -0.2003 H   0  0  0  0  0  0  0  0  0  0  0  0
    0.6740    0.0822    2.1998 H   0  0  0  0  0  0  0  0  0  0  0  0
    0.1271   -1.5357    1.6893 H   0  0  0  0  0  0  0  0  0  0  0  0
   -1.1203   -0.1854    1.8656 H   0  0  0  0  0  0  0  0  0  0  0  0
    2.2897   -0.3103    0.5882 H   0  0  0  0  0  0  0  0  0  0  0  0
    1.4608   -1.8015    0.0098 H   0  0  0  0  0  0  0  0  0  0  0  0
    2.9763   -0.2777   -1.4095 H   0  0  0  0  0  0  0  0  0  0  0  0
   -2.6274    0.3611   -1.5367 H   0  0  0  0  0  0  0  0  0  0  0  0
   -2.3279    0.6973    0.1792 H   0  0  0  0  0  0  0  0  0  0  0  0
   -2.8603   -0.9632   -0.3739 H   0  0  0  0  0  0  0  0  0  0  0  0
  1  2  3  0
  2  3  1  0
  3  4  1  0
  3  5  1  0
  5  6  1  0
  3  7  1  0
  7  8  1  0
  7  9  2  0
  1 10  1  0
  4 11  1  0
  4 12  1  0
  4 13  1  0
  5 14  1  0
  5 15  1  0
  6 16  1  0
  8 17  1  0
  8 18  1  0
  8 19  1  0
M  END
