
     RDKit          3D

 10  9  0  0  0  0  0  0  0  0999 V2000
    3.3952   -2.3150   -0.8619 C   0  0  0  0  0  0  0  0  0  0  0  0
    2.6105   -1.8026   -0.6986 C   0  0  0  0  0  0  0  0  0  0  0  0
    1.2962   -0.9207   -0.4429 C   0  0  0  0  0  0  0  0  0  0  0  0
    0.3987   -0.3175   -0.2683 C   0  0  0  0  0  0  0  0  0  0  0  0
   -0.7318    0.4658   -0.0596 C   0  0  0  0  0  0  0  0  0  0  0  0
   -1.7225    1.1705    0.1311 C   0  0  0  0  0  0  0  0  0  0  0  0
   -2.8903    2.0176    0.3795 C   0  0  0  0  0  0  0  0  0  0  0  0
   -3.4815    1.9141    1.4668 O   0  0  0  0  0  0  0  0  0  0  0  0
    4.3349   -2.9093   -1.0568 H   0  0  0  0  0  0  0  0  0  0  0  0
   -3.2093    2.6971   -0.3657 H   0  0  0  0  0  0  0  0  0  0  0  0
  1  2  3  0
  2  3  1  0
  3  4  3  0
  4  5  1  0
  5  6  3  0
  6  7  1  0
  7  8  2  0
  1  9  1  0
  7 10  1  0
M  END
