
     RDKit          3D

 19 19  0  0  0  0  0  0  0  0999 V2000
    3.0343    2.0065    0.1721 C   0  0  0  0  0  0  0  0  0  0  0  0
    2.2514    1.1715   -0.2133 C   0  0  0  0  0  0  0  0  0  0  0  0
    1.3379    0.1733   -0.6877 C   0  0  0  0  0  0  0  0  0  0  0  0
    1.1653   -0.0731   -1.9064 O   0  0  0  0  0  0  0  0  0  0  0  0
    0.5555   -0.6112    0.2788 C   0  0  0  0  0  0  0  0  0  0  0  0
   -0.3758   -1.6336   -0.2906 C   0  0  0  0  0  0  0  0  0  0  0  0
   -1.3876   -1.2186    0.7681 C   0  0  0  0  0  0  0  0  0  0  0  0
   -0.6898    0.1286    0.7758 C   0  0  0  0  0  0  0  0  0  0  0  0
   -1.3053    1.0227   -0.2815 C   0  0  0  0  0  0  0  0  0  0  0  0
    3.7250    2.7446    0.4933 H   0  0  0  0  0  0  0  0  0  0  0  0
    1.1486   -0.9874    1.1309 H   0  0  0  0  0  0  0  0  0  0  0  0
   -0.0679   -2.6910   -0.1938 H   0  0  0  0  0  0  0  0  0  0  0  0
   -0.7398   -1.4133   -1.3146 H   0  0  0  0  0  0  0  0  0  0  0  0
   -1.2657   -1.8122    1.6948 H   0  0  0  0  0  0  0  0  0  0  0  0
   -2.4233   -1.1475    0.3961 H   0  0  0  0  0  0  0  0  0  0  0  0
   -0.5218    0.5776    1.7518 H   0  0  0  0  0  0  0  0  0  0  0  0
   -2.4108    0.9053   -0.1808 H   0  0  0  0  0  0  0  0  0  0  0  0
   -0.9340    0.7673   -1.2897 H   0  0  0  0  0  0  0  0  0  0  0  0
   -1.0960    2.0905   -0.0294 H   0  0  0  0  0  0  0  0  0  0  0  0
  1  2  3  0
  2  3  1  0
  3  4  2  0
  3  5  1  0
  5  6  1  0
  6  7  1  0
  7  8  1  0
  8  9  1  0
  8  5  1  0
  1 10  1  0
  5 11  1  0
  6 12  1  0
  6 13  1  0
  7 14  1  0
  7 15  1  0
  8 16  1  0
  9 17  1  0
  9 18  1  0
  9 19  1  0
M  END
