
     RDKit          3D

 17 19  0  0  0  0  0  0  0  0999 V2000
    1.2004    0.4234   -2.4564 C   0  0  0  0  0  0  0  0  0  0  0  0
    1.0269    0.2897   -1.2883 C   0  0  0  0  0  0  0  0  0  0  0  0
    0.8302    0.1087    0.1982 C   0  0  0  0  0  0  0  0  0  0  0  0
    1.6099   -0.9468    0.6907 C   0  0  0  0  0  0  0  0  0  0  0  0
    0.1978   -1.2656    0.5220 C   0  0  0  0  0  0  0  0  0  0  0  0
   -0.8771   -0.5021   -0.2538 C   0  0  0  0  0  0  0  0  0  0  0  0
   -1.8433    0.1862    0.5682 C   0  0  0  0  0  0  0  0  0  0  0  0
   -0.4693    0.6823    0.6134 C   0  0  0  0  0  0  0  0  0  0  0  0
   -0.5079    2.0179    0.1277 O   0  0  0  0  0  0  0  0  0  0  0  0
    1.3481    0.5610   -3.5254 H   0  0  0  0  0  0  0  0  0  0  0  0
    2.1246   -0.7638    1.6816 H   0  0  0  0  0  0  0  0  0  0  0  0
    2.2789   -1.5866    0.0599 H   0  0  0  0  0  0  0  0  0  0  0  0
   -0.1833   -1.5334    1.5225 H   0  0  0  0  0  0  0  0  0  0  0  0
   -0.8421   -0.4606   -1.3386 H   0  0  0  0  0  0  0  0  0  0  0  0
   -2.7026    0.6434    0.0523 H   0  0  0  0  0  0  0  0  0  0  0  0
   -2.1909   -0.3661    1.4932 H   0  0  0  0  0  0  0  0  0  0  0  0
   -1.0001    2.5125    0.8535 H   0  0  0  0  0  0  0  0  0  0  0  0
  1  2  3  0
  2  3  1  0
  3  4  1  0
  4  5  1  0
  5  6  1  0
  6  7  1  0
  7  8  1  0
  8  9  1  0
  5  3  1  0
  8  6  1  0
  8  3  1  0
  1 10  1  0
  4 11  1  0
  4 12  1  0
  5 13  1  0
  6 14  1  0
  7 15  1  0
  7 16  1  0
  9 17  1  0
M  END
