
     RDKit          3D

 19 20  0  0  0  0  0  0  0  0999 V2000
    2.9114   -1.4000    0.0490 C   0  0  0  0  0  0  0  0  0  0  0  0
    1.8175   -1.0110    0.4533 C   0  0  0  0  0  0  0  0  0  0  0  0
    0.5711   -0.5932    0.9165 C   0  0  0  0  0  0  0  0  0  0  0  0
   -0.7079   -0.9183    0.2084 C   0  0  0  0  0  0  0  0  0  0  0  0
   -0.7165   -0.3100   -1.1336 C   0  0  0  0  0  0  0  0  0  0  0  0
    0.1113    0.9584   -0.8115 C   0  0  0  0  0  0  0  0  0  0  0  0
   -0.6180    2.0995   -1.1472 O   0  0  0  0  0  0  0  0  0  0  0  0
    0.1545    0.8453    0.6574 C   0  0  0  0  0  0  0  0  0  0  0  0
   -1.2450    0.3123    1.0119 C   0  0  0  0  0  0  0  0  0  0  0  0
    3.8581   -1.7407   -0.3207 H   0  0  0  0  0  0  0  0  0  0  0  0
    0.3771   -0.8122    2.0319 H   0  0  0  0  0  0  0  0  0  0  0  0
   -1.2133   -1.8396    0.4571 H   0  0  0  0  0  0  0  0  0  0  0  0
   -1.7397    0.0814   -1.3247 H   0  0  0  0  0  0  0  0  0  0  0  0
   -0.2849   -0.8461   -1.9625 H   0  0  0  0  0  0  0  0  0  0  0  0
    1.1028    0.9169   -1.3342 H   0  0  0  0  0  0  0  0  0  0  0  0
   -1.4986    1.8351   -1.5743 H   0  0  0  0  0  0  0  0  0  0  0  0
    0.5557    1.5952    1.3071 H   0  0  0  0  0  0  0  0  0  0  0  0
   -2.0420    0.8022    0.4619 H   0  0  0  0  0  0  0  0  0  0  0  0
   -1.3937    0.0250    2.0542 H   0  0  0  0  0  0  0  0  0  0  0  0
  1  2  3  0
  2  3  1  0
  3  4  1  0
  4  5  1  0
  5  6  1  0
  6  7  1  0
  6  8  1  0
  8  9  1  0
  8  3  1  0
  9  4  1  0
  1 10  1  0
  3 11  1  0
  4 12  1  0
  5 13  1  0
  5 14  1  0
  6 15  1  0
  7 16  1  0
  8 17  1  0
  9 18  1  0
  9 19  1  0
M  END
