
     RDKit          3D

 17 17  0  0  0  0  0  0  0  0999 V2000
   -2.3691    1.6833    0.0375 C   0  0  0  0  0  0  0  0  0  0  0  0
   -1.5352    0.8379    0.3008 C   0  0  0  0  0  0  0  0  0  0  0  0
   -0.5418   -0.1937    0.6378 C   0  0  0  0  0  0  0  0  0  0  0  0
   -1.3353   -1.4589    0.8640 C   0  0  0  0  0  0  0  0  0  0  0  0
   -1.1491   -2.1455    1.8450 O   0  0  0  0  0  0  0  0  0  0  0  0
    0.3307   -0.3717   -0.5792 C   0  0  0  0  0  0  0  0  0  0  0  0
    1.0691    0.8666   -1.0196 C   0  0  0  0  0  0  0  0  0  0  0  0
    1.7907   -0.3928   -0.5049 C   0  0  0  0  0  0  0  0  0  0  0  0
    2.4955   -0.2054    0.6666 O   0  0  0  0  0  0  0  0  0  0  0  0
   -3.0904    2.4316   -0.2071 H   0  0  0  0  0  0  0  0  0  0  0  0
   -0.0009    0.1039    1.5361 H   0  0  0  0  0  0  0  0  0  0  0  0
   -2.0646   -1.6834    0.0857 H   0  0  0  0  0  0  0  0  0  0  0  0
   -0.1515   -0.9333   -1.4066 H   0  0  0  0  0  0  0  0  0  0  0  0
    1.1406    1.0747   -2.1175 H   0  0  0  0  0  0  0  0  0  0  0  0
    1.0783    1.7614   -0.3525 H   0  0  0  0  0  0  0  0  0  0  0  0
    2.3525   -0.9887   -1.2690 H   0  0  0  0  0  0  0  0  0  0  0  0
    1.9806   -0.3860    1.4828 H   0  0  0  0  0  0  0  0  0  0  0  0
  1  2  3  0
  2  3  1  0
  3  4  1  0
  4  5  2  0
  3  6  1  0
  6  7  1  0
  7  8  1  0
  8  9  1  0
  8  6  1  0
  1 10  1  0
  3 11  1  0
  4 12  1  0
  6 13  1  0
  7 14  1  0
  7 15  1  0
  8 16  1  0
  9 17  1  0
M  END
