
     RDKit          3D

 21 20  0  0  0  0  0  0  0  0999 V2000
   -3.7877    0.9041    0.0239 C   0  0  0  0  0  0  0  0  0  0  0  0
   -2.6555    0.6628   -0.3129 C   0  0  0  0  0  0  0  0  0  0  0  0
   -1.2663    0.3443   -0.7244 C   0  0  0  0  0  0  0  0  0  0  0  0
   -0.4582    0.0165    0.4886 C   0  0  0  0  0  0  0  0  0  0  0  0
   -1.0884   -1.1924    1.1875 C   0  0  0  0  0  0  0  0  0  0  0  0
    0.9494   -0.3580    0.1773 C   0  0  0  0  0  0  0  0  0  0  0  0
    1.7437    0.6726   -0.5089 C   0  0  0  0  0  0  0  0  0  0  0  0
    3.1675    0.2827   -0.8333 C   0  0  0  0  0  0  0  0  0  0  0  0
    1.3622    1.7814   -0.8285 O   0  0  0  0  0  0  0  0  0  0  0  0
   -4.7808    1.1307    0.3172 H   0  0  0  0  0  0  0  0  0  0  0  0
   -1.2760   -0.5258   -1.4020 H   0  0  0  0  0  0  0  0  0  0  0  0
   -0.8399    1.1954   -1.2702 H   0  0  0  0  0  0  0  0  0  0  0  0
   -0.5403    0.8490    1.2233 H   0  0  0  0  0  0  0  0  0  0  0  0
   -0.6360   -1.2035    2.2112 H   0  0  0  0  0  0  0  0  0  0  0  0
   -0.6982   -2.0969    0.6779 H   0  0  0  0  0  0  0  0  0  0  0  0
   -2.1782   -1.1275    1.2037 H   0  0  0  0  0  0  0  0  0  0  0  0
    1.4638   -0.6034    1.1469 H   0  0  0  0  0  0  0  0  0  0  0  0
    0.9483   -1.3017   -0.4037 H   0  0  0  0  0  0  0  0  0  0  0  0
    3.2179   -0.7296   -1.2503 H   0  0  0  0  0  0  0  0  0  0  0  0
    3.6692    1.0530   -1.4228 H   0  0  0  0  0  0  0  0  0  0  0  0
    3.6836    0.2464    0.1647 H   0  0  0  0  0  0  0  0  0  0  0  0
  1  2  3  0
  2  3  1  0
  3  4  1  0
  4  5  1  0
  4  6  1  0
  6  7  1  0
  7  8  1  0
  7  9  2  0
  1 10  1  0
  3 11  1  0
  3 12  1  0
  4 13  1  0
  5 14  1  0
  5 15  1  0
  5 16  1  0
  6 17  1  0
  6 18  1  0
  8 19  1  0
  8 20  1  0
  8 21  1  0
M  END
