
     RDKit          3D

 17 16  0  0  0  0  0  0  0  0999 V2000
    2.7433   -0.1073   -1.2234 C   0  0  0  0  0  0  0  0  0  0  0  0
    1.9718   -0.5422   -0.3722 C   0  0  0  0  0  0  0  0  0  0  0  0
    1.0695   -1.0793    0.6443 C   0  0  0  0  0  0  0  0  0  0  0  0
    0.0943   -0.0111    1.0364 C   0  0  0  0  0  0  0  0  0  0  0  0
   -0.7401    0.4775   -0.1209 C   0  0  0  0  0  0  0  0  0  0  0  0
   -1.5453   -0.5696   -0.7497 C   0  0  0  0  0  0  0  0  0  0  0  0
   -1.4058   -0.8995   -1.9325 O   0  0  0  0  0  0  0  0  0  0  0  0
   -1.6322    1.5365    0.3846 C   0  0  0  0  0  0  0  0  0  0  0  0
   -1.9584    2.4401   -0.3382 O   0  0  0  0  0  0  0  0  0  0  0  0
    3.4222    0.2611   -1.9467 H   0  0  0  0  0  0  0  0  0  0  0  0
    0.5429   -1.9866    0.2743 H   0  0  0  0  0  0  0  0  0  0  0  0
    1.6928   -1.3097    1.5338 H   0  0  0  0  0  0  0  0  0  0  0  0
    0.6351    0.8339    1.4809 H   0  0  0  0  0  0  0  0  0  0  0  0
   -0.5707   -0.4145    1.8413 H   0  0  0  0  0  0  0  0  0  0  0  0
   -0.0426    0.9594   -0.8656 H   0  0  0  0  0  0  0  0  0  0  0  0
   -2.2955   -1.0790   -0.1583 H   0  0  0  0  0  0  0  0  0  0  0  0
   -1.9814    1.4902    1.3928 H   0  0  0  0  0  0  0  0  0  0  0  0
  1  2  3  0
  2  3  1  0
  3  4  1  0
  4  5  1  0
  5  6  1  0
  6  7  2  0
  5  8  1  0
  8  9  2  0
  1 10  1  0
  3 11  1  0
  3 12  1  0
  4 13  1  0
  4 14  1  0
  5 15  1  0
  6 16  1  0
  8 17  1  0
M  END
