
     RDKit          3D

 21 21  0  0  0  0  0  0  0  0999 V2000
    2.3578    2.6320    1.0145 C   0  0  0  0  0  0  0  0  0  0  0  0
    2.0555    1.9268    0.3077 C   0  0  0  0  0  0  0  0  0  0  0  0
    1.6404    0.8969   -0.7233 C   0  0  0  0  0  0  0  0  0  0  0  0
    0.1456    0.6871   -0.6019 C   0  0  0  0  0  0  0  0  0  0  0  0
   -0.0648    0.1888    0.8032 C   0  0  0  0  0  0  0  0  0  0  0  0
   -0.9200   -0.8160    0.8314 C   0  0  0  0  0  0  0  0  0  0  0  0
   -1.3914   -1.5863    2.0285 C   0  0  0  0  0  0  0  0  0  0  0  0
   -1.3918   -1.0851   -0.5426 C   0  0  0  0  0  0  0  0  0  0  0  0
   -0.3480   -0.4724   -1.4283 C   0  0  0  0  0  0  0  0  0  0  0  0
    2.6906    3.4340    1.8393 H   0  0  0  0  0  0  0  0  0  0  0  0
    1.9087    1.3136   -1.7219 H   0  0  0  0  0  0  0  0  0  0  0  0
    2.2297   -0.0215   -0.5923 H   0  0  0  0  0  0  0  0  0  0  0  0
   -0.4254    1.6123   -0.7937 H   0  0  0  0  0  0  0  0  0  0  0  0
    0.4213    0.6014    1.6786 H   0  0  0  0  0  0  0  0  0  0  0  0
   -2.3043   -2.1918    1.7553 H   0  0  0  0  0  0  0  0  0  0  0  0
   -1.6796   -0.8560    2.7894 H   0  0  0  0  0  0  0  0  0  0  0  0
   -0.6766   -2.3049    2.4202 H   0  0  0  0  0  0  0  0  0  0  0  0
   -2.3524   -0.5329   -0.7197 H   0  0  0  0  0  0  0  0  0  0  0  0
   -1.5369   -2.1759   -0.7557 H   0  0  0  0  0  0  0  0  0  0  0  0
    0.4757   -1.1860   -1.6939 H   0  0  0  0  0  0  0  0  0  0  0  0
   -0.8343   -0.0639   -2.3452 H   0  0  0  0  0  0  0  0  0  0  0  0
  1  2  3  0
  2  3  1  0
  3  4  1  0
  4  5  1  0
  5  6  2  0
  6  7  1  0
  6  8  1  0
  8  9  1  0
  9  4  1  0
  1 10  1  0
  3 11  1  0
  3 12  1  0
  4 13  1  0
  5 14  1  0
  7 15  1  0
  7 16  1  0
  7 17  1  0
  8 18  1  0
  8 19  1  0
  9 20  1  0
  9 21  1  0
M  END
