
     RDKit          3D

 21 20  0  0  0  0  0  0  0  0999 V2000
   -1.1237    1.4510   -2.3299 C   0  0  0  0  0  0  0  0  0  0  0  0
   -1.2112    1.1556   -1.5620 C   0  0  0  0  0  0  0  0  0  0  0  0
   -1.3822    0.5081    0.1474 C   0  0  0  0  0  0  0  0  0  0  0  0
   -1.8472   -0.8302   -0.1483 C   0  0  0  0  0  0  0  0  0  0  0  0
   -1.9157   -1.7293    0.8634 O   0  0  0  0  0  0  0  0  0  0  0  0
    0.0862    0.6806    0.5005 C   0  0  0  0  0  0  0  0  0  0  0  0
    0.9551   -0.1972   -0.3565 C   0  0  0  0  0  0  0  0  0  0  0  0
    2.3050    0.0610   -0.0645 O   0  0  0  0  0  0  0  0  0  0  0  0
    2.6148   -0.2431    1.2545 C   0  0  0  0  0  0  0  0  0  0  0  0
   -1.0150    1.7833   -3.1680 H   0  0  0  0  0  0  0  0  0  0  0  0
   -1.9768    1.2493    0.4664 H   0  0  0  0  0  0  0  0  0  0  0  0
   -3.0708   -0.6358   -0.2873 H   0  0  0  0  0  0  0  0  0  0  0  0
   -1.7225   -1.2626   -1.2009 H   0  0  0  0  0  0  0  0  0  0  0  0
   -0.9814   -2.0847    1.1186 H   0  0  0  0  0  0  0  0  0  0  0  0
    0.2032    0.5413    1.5258 H   0  0  0  0  0  0  0  0  0  0  0  0
    0.3057    1.7125    0.1003 H   0  0  0  0  0  0  0  0  0  0  0  0
    0.7483   -1.2629   -0.2829 H   0  0  0  0  0  0  0  0  0  0  0  0
    0.8083    0.1701   -1.4450 H   0  0  0  0  0  0  0  0  0  0  0  0
    2.3784   -1.3177    1.4207 H   0  0  0  0  0  0  0  0  0  0  0  0
    3.7255   -0.1079    1.4461 H   0  0  0  0  0  0  0  0  0  0  0  0
    2.1158    0.3585    2.0015 H   0  0  0  0  0  0  0  0  0  0  0  0
  1  2  3  0
  2  3  1  0
  3  4  1  0
  4  5  1  0
  3  6  1  0
  6  7  1  0
  7  8  1  0
  8  9  1  0
  1 10  1  0
  3 11  1  0
  4 12  1  0
  4 13  1  0
  5 14  1  0
  6 15  1  0
  6 16  1  0
  7 17  1  0
  7 18  1  0
  9 19  1  0
  9 20  1  0
  9 21  1  0
M  END
