
     RDKit          3D

 23 23  0  0  0  0  0  0  0  0999 V2000
   -4.0350   -0.3456   -0.7186 C   0  0  0  0  0  0  0  0  0  0  0  0
   -2.9933   -1.0503   -0.4261 C   0  0  0  0  0  0  0  0  0  0  0  0
   -2.0397   -1.6712   -0.1612 C   0  0  0  0  0  0  0  0  0  0  0  0
   -0.7264   -0.9671   -0.6853 C   0  0  0  0  0  0  0  0  0  0  0  0
    0.0040    0.1080   -0.7788 C   0  0  0  0  0  0  0  0  0  0  0  0
    0.6051    1.0159    0.2480 C   0  0  0  0  0  0  0  0  0  0  0  0
    1.1458    0.4826    1.4873 C   0  0  0  0  0  0  0  0  0  0  0  0
    2.4552    1.1980    1.2469 C   0  0  0  0  0  0  0  0  0  0  0  0
    2.2734    0.7927   -0.1257 C   0  0  0  0  0  0  0  0  0  0  0  0
   -5.2227    0.4500   -1.0547 H   0  0  0  0  0  0  0  0  0  0  0  0
   -1.9162   -2.6422   -0.7390 H   0  0  0  0  0  0  0  0  0  0  0  0
   -1.7289   -1.7797    0.9628 H   0  0  0  0  0  0  0  0  0  0  0  0
    0.0564   -1.9575   -0.5710 H   0  0  0  0  0  0  0  0  0  0  0  0
   -1.0821   -1.2967   -1.8306 H   0  0  0  0  0  0  0  0  0  0  0  0
   -0.6880    0.9560   -1.3846 H   0  0  0  0  0  0  0  0  0  0  0  0
    0.8358    0.1412   -1.5885 H   0  0  0  0  0  0  0  0  0  0  0  0
    0.6243    2.0687    0.0790 H   0  0  0  0  0  0  0  0  0  0  0  0
    0.5869    1.0312    2.3893 H   0  0  0  0  0  0  0  0  0  0  0  0
    1.4097   -0.5608    1.6833 H   0  0  0  0  0  0  0  0  0  0  0  0
    3.3631    0.8108    1.7616 H   0  0  0  0  0  0  0  0  0  0  0  0
    2.2746    2.3114    1.4754 H   0  0  0  0  0  0  0  0  0  0  0  0
    2.4596    1.2597   -1.0820 H   0  0  0  0  0  0  0  0  0  0  0  0
    2.3385   -0.3551   -0.1488 H   0  0  0  0  0  0  0  0  0  0  0  0
  1  2  3  0
  2  3  1  0
  3  4  1  0
  4  5  1  0
  5  6  1  0
  6  7  1  0
  7  8  1  0
  8  9  1  0
  9  6  1  0
  1 10  1  0
  3 11  1  0
  3 12  1  0
  4 13  1  0
  4 14  1  0
  5 15  1  0
  5 16  1  0
  6 17  1  0
  7 18  1  0
  7 19  1  0
  8 20  1  0
  8 21  1  0
  9 22  1  0
  9 23  1  0
M  END
