
     RDKit          3D

 21 20  0  0  0  0  0  0  0  0999 V2000
   -1.8089    2.0145   -1.5255 C   0  0  0  0  0  0  0  0  0  0  0  0
   -0.9551    1.3001   -0.7595 C   0  0  0  0  0  0  0  0  0  0  0  0
   -0.0944    0.6001   -0.0171 C   0  0  0  0  0  0  0  0  0  0  0  0
    0.6870    1.8388    0.8415 C   0  0  0  0  0  0  0  0  0  0  0  0
    0.7417   -0.2653   -0.2859 C   0  0  0  0  0  0  0  0  0  0  0  0
    1.6159   -1.1843   -0.5698 C   0  0  0  0  0  0  0  0  0  0  0  0
    2.6214   -2.2444   -0.9032 C   0  0  0  0  0  0  0  0  0  0  0  0
   -0.8962    0.0855    1.3289 C   0  0  0  0  0  0  0  0  0  0  0  0
   -2.0246   -0.7744    0.8997 C   0  0  0  0  0  0  0  0  0  0  0  0
   -2.4959    2.6136   -2.1597 H   0  0  0  0  0  0  0  0  0  0  0  0
   -0.0765    2.2591    1.4699 H   0  0  0  0  0  0  0  0  0  0  0  0
    1.4959    1.3164    1.2801 H   0  0  0  0  0  0  0  0  0  0  0  0
    0.8795    2.5074   -0.0295 H   0  0  0  0  0  0  0  0  0  0  0  0
    2.0793   -3.0510   -1.4261 H   0  0  0  0  0  0  0  0  0  0  0  0
    3.0333   -2.5525    0.0540 H   0  0  0  0  0  0  0  0  0  0  0  0
    3.3839   -1.8348   -1.5678 H   0  0  0  0  0  0  0  0  0  0  0  0
   -1.1790    0.9605    1.8785 H   0  0  0  0  0  0  0  0  0  0  0  0
   -0.1202   -0.4479    1.8584 H   0  0  0  0  0  0  0  0  0  0  0  0
   -1.7386   -1.8674    1.0173 H   0  0  0  0  0  0  0  0  0  0  0  0
   -2.8692   -0.6587    1.6044 H   0  0  0  0  0  0  0  0  0  0  0  0
   -2.2794   -0.6155   -0.1770 H   0  0  0  0  0  0  0  0  0  0  0  0
  1  2  3  0
  2  3  1  0
  3  4  1  0
  3  5  1  0
  5  6  3  0
  6  7  1  0
  3  8  1  0
  8  9  1  0
  1 10  1  0
  4 11  1  0
  4 12  1  0
  4 13  1  0
  7 14  1  0
  7 15  1  0
  7 16  1  0
  8 17  1  0
  8 18  1  0
  9 19  1  0
  9 20  1  0
  9 21  1  0
M  END
