
     RDKit          3D

 21 22  0  0  0  0  0  0  0  0999 V2000
    2.9701    1.1401    2.4345 C   0  0  0  0  0  0  0  0  0  0  0  0
    1.9236    1.3262    1.8647 C   0  0  0  0  0  0  0  0  0  0  0  0
    0.6256    1.5710    1.1809 C   0  0  0  0  0  0  0  0  0  0  0  0
    0.5279    0.5848    0.0896 C   0  0  0  0  0  0  0  0  0  0  0  0
   -0.6541    0.5496   -0.8051 C   0  0  0  0  0  0  0  0  0  0  0  0
   -1.4052   -0.0588    0.3405 C   0  0  0  0  0  0  0  0  0  0  0  0
   -0.1015   -0.7558    0.3843 C   0  0  0  0  0  0  0  0  0  0  0  0
   -0.2148   -0.8607   -1.1123 C   0  0  0  0  0  0  0  0  0  0  0  0
   -1.2256   -1.7863   -1.6578 C   0  0  0  0  0  0  0  0  0  0  0  0
    3.8900    0.9919    2.9425 H   0  0  0  0  0  0  0  0  0  0  0  0
    0.7256    2.6088    0.7598 H   0  0  0  0  0  0  0  0  0  0  0  0
   -0.1204    1.5344    1.9715 H   0  0  0  0  0  0  0  0  0  0  0  0
    1.4670    0.5251   -0.5144 H   0  0  0  0  0  0  0  0  0  0  0  0
   -0.9788    1.2305   -1.4593 H   0  0  0  0  0  0  0  0  0  0  0  0
   -1.7064    0.6103    1.1446 H   0  0  0  0  0  0  0  0  0  0  0  0
   -2.2859   -0.6418    0.0066 H   0  0  0  0  0  0  0  0  0  0  0  0
    0.2410   -1.4503    1.0155 H   0  0  0  0  0  0  0  0  0  0  0  0
    0.7401   -0.8369   -1.6756 H   0  0  0  0  0  0  0  0  0  0  0  0
   -1.4352   -2.5733   -0.8864 H   0  0  0  0  0  0  0  0  0  0  0  0
   -0.7861   -2.3613   -2.5241 H   0  0  0  0  0  0  0  0  0  0  0  0
   -2.1971   -1.3474   -1.9157 H   0  0  0  0  0  0  0  0  0  0  0  0
  1  2  3  0
  2  3  1  0
  3  4  1  0
  4  5  1  0
  5  6  1  0
  6  7  1  0
  7  8  1  0
  8  9  1  0
  7  4  1  0
  8  5  1  0
  1 10  1  0
  3 11  1  0
  3 12  1  0
  4 13  1  0
  5 14  1  0
  6 15  1  0
  6 16  1  0
  7 17  1  0
  8 18  1  0
  9 19  1  0
  9 20  1  0
  9 21  1  0
M  END
