
     RDKit          3D

 12 12  0  0  0  0  0  0  0  0999 V2000
    2.1740    1.1430    1.4014 C   0  0  0  0  0  0  0  0  0  0  0  0
    1.1337    0.6143    1.0292 C   0  0  0  0  0  0  0  0  0  0  0  0
   -0.1268   -0.0098    0.6024 C   0  0  0  0  0  0  0  0  0  0  0  0
    0.1106   -1.2290   -0.0284 O   0  0  0  0  0  0  0  0  0  0  0  0
   -0.7332   -1.2810   -1.1396 C   0  0  0  0  0  0  0  0  0  0  0  0
   -0.9966    0.0525   -1.5066 O   0  0  0  0  0  0  0  0  0  0  0  0
   -0.7727    0.8457   -0.3819 C   0  0  0  0  0  0  0  0  0  0  0  0
   -1.1037    2.0492   -0.3389 O   0  0  0  0  0  0  0  0  0  0  0  0
    3.0779    1.5857    1.7339 H   0  0  0  0  0  0  0  0  0  0  0  0
   -0.8171   -0.1674    1.4703 H   0  0  0  0  0  0  0  0  0  0  0  0
   -1.6805   -1.7753   -0.8806 H   0  0  0  0  0  0  0  0  0  0  0  0
   -0.2656   -1.8279   -1.9611 H   0  0  0  0  0  0  0  0  0  0  0  0
  1  2  3  0
  2  3  1  0
  3  4  1  0
  4  5  1  0
  5  6  1  0
  6  7  1  0
  7  8  2  0
  7  3  1  0
  1  9  1  0
  3 10  1  0
  5 11  1  0
  5 12  1  0
M  END
