
     RDKit          3D

 15 15  0  0  0  0  0  0  0  0999 V2000
    2.8462    0.4581   -0.9521 C   0  0  0  0  0  0  0  0  0  0  0  0
    1.6380    0.2915   -1.0301 C   0  0  0  0  0  0  0  0  0  0  0  0
    0.1875    0.0930   -1.1134 C   0  0  0  0  0  0  0  0  0  0  0  0
   -0.4486    1.1108   -0.2597 C   0  0  0  0  0  0  0  0  0  0  0  0
   -1.0794    0.8121    0.8400 C   0  0  0  0  0  0  0  0  0  0  0  0
   -1.2152   -0.5843    1.3346 C   0  0  0  0  0  0  0  0  0  0  0  0
   -0.3900   -1.5432    0.5933 C   0  0  0  0  0  0  0  0  0  0  0  0
    0.0340   -2.6101    1.1284 O   0  0  0  0  0  0  0  0  0  0  0  0
   -0.0915   -1.2213   -0.7418 O   0  0  0  0  0  0  0  0  0  0  0  0
    3.8942    0.6063   -0.8667 H   0  0  0  0  0  0  0  0  0  0  0  0
   -0.1696    0.2582   -2.1688 H   0  0  0  0  0  0  0  0  0  0  0  0
   -0.3832    2.1449   -0.5679 H   0  0  0  0  0  0  0  0  0  0  0  0
   -1.5397    1.5888    1.4500 H   0  0  0  0  0  0  0  0  0  0  0  0
   -0.9801   -0.5531    2.4296 H   0  0  0  0  0  0  0  0  0  0  0  0
   -2.3025   -0.8516    1.1813 H   0  0  0  0  0  0  0  0  0  0  0  0
  1  2  3  0
  2  3  1  0
  3  4  1  0
  4  5  2  0
  5  6  1  0
  6  7  1  0
  7  8  2  0
  7  9  1  0
  9  3  1  0
  1 10  1  0
  3 11  1  0
  4 12  1  0
  5 13  1  0
  6 14  1  0
  6 15  1  0
M  END
