
     RDKit          3D

 19 20  0  0  0  0  0  0  0  0999 V2000
    3.1725   -1.6768   -1.0116 C   0  0  0  0  0  0  0  0  0  0  0  0
    2.2951   -0.9267   -0.6601 C   0  0  0  0  0  0  0  0  0  0  0  0
    1.2415    0.0075   -0.2338 C   0  0  0  0  0  0  0  0  0  0  0  0
    0.4126   -0.4803    0.9144 C   0  0  0  0  0  0  0  0  0  0  0  0
    0.0083   -1.5100    0.0725 O   0  0  0  0  0  0  0  0  0  0  0  0
   -0.0751   -0.4115   -0.7755 C   0  0  0  0  0  0  0  0  0  0  0  0
   -0.7279    0.3019    0.3708 C   0  0  0  0  0  0  0  0  0  0  0  0
   -0.6268    1.7891    0.3901 C   0  0  0  0  0  0  0  0  0  0  0  0
   -2.1076   -0.2283    0.6922 C   0  0  0  0  0  0  0  0  0  0  0  0
    3.9559   -2.3238   -1.3143 H   0  0  0  0  0  0  0  0  0  0  0  0
    1.5046    1.0613   -0.2334 H   0  0  0  0  0  0  0  0  0  0  0  0
    0.7039   -0.5737    1.8749 H   0  0  0  0  0  0  0  0  0  0  0  0
   -0.3851   -0.4204   -1.7350 H   0  0  0  0  0  0  0  0  0  0  0  0
   -1.6816    2.1934    0.3813 H   0  0  0  0  0  0  0  0  0  0  0  0
   -0.1386    2.0938    1.3336 H   0  0  0  0  0  0  0  0  0  0  0  0
   -0.1491    2.2260   -0.5129 H   0  0  0  0  0  0  0  0  0  0  0  0
   -2.0918   -0.9331    1.5390 H   0  0  0  0  0  0  0  0  0  0  0  0
   -2.8167    0.6015    0.8938 H   0  0  0  0  0  0  0  0  0  0  0  0
   -2.4942   -0.7900   -0.2036 H   0  0  0  0  0  0  0  0  0  0  0  0
  1  2  3  0
  2  3  1  0
  3  4  1  0
  4  5  1  0
  5  6  1  0
  6  7  1  0
  7  8  1  0
  7  9  1  0
  6  3  1  0
  7  4  1  0
  1 10  1  0
  3 11  1  0
  4 12  1  0
  6 13  1  0
  8 14  1  0
  8 15  1  0
  8 16  1  0
  9 17  1  0
  9 18  1  0
  9 19  1  0
M  END
