
     RDKit          3D

 19 20  0  0  0  0  0  0  0  0999 V2000
    4.1381    1.0172   -0.8232 C   0  0  0  0  0  0  0  0  0  0  0  0
    2.7592    0.0295   -0.5122 C   0  0  0  0  0  0  0  0  0  0  0  0
    1.9862   -0.5312   -0.3208 C   0  0  0  0  0  0  0  0  0  0  0  0
    0.6344    0.1918   -0.4585 O   0  0  0  0  0  0  0  0  0  0  0  0
   -0.2700   -0.5112    0.3151 C   0  0  0  0  0  0  0  0  0  0  0  0
   -1.3384   -1.2295   -0.6313 C   0  0  0  0  0  0  0  0  0  0  0  0
   -1.7286    0.2344   -0.8056 C   0  0  0  0  0  0  0  0  0  0  0  0
   -2.3123    1.1611    0.1090 C   0  0  0  0  0  0  0  0  0  0  0  0
   -1.5200    0.1547    0.7777 C   0  0  0  0  0  0  0  0  0  0  0  0
    5.1202    1.6989   -1.0523 H   0  0  0  0  0  0  0  0  0  0  0  0
    1.8996    0.1544    1.1140 H   0  0  0  0  0  0  0  0  0  0  0  0
    1.7843   -1.3400    0.5902 H   0  0  0  0  0  0  0  0  0  0  0  0
    0.1313   -1.1869    1.0980 H   0  0  0  0  0  0  0  0  0  0  0  0
   -0.8118   -1.5376   -1.5117 H   0  0  0  0  0  0  0  0  0  0  0  0
   -1.9867   -1.8495   -0.0611 H   0  0  0  0  0  0  0  0  0  0  0  0
   -0.9051    0.7478   -1.3625 H   0  0  0  0  0  0  0  0  0  0  0  0
   -3.4553    1.1321    0.0912 H   0  0  0  0  0  0  0  0  0  0  0  0
   -2.0022    2.2513    0.2394 H   0  0  0  0  0  0  0  0  0  0  0  0
   -2.1229   -0.5872    1.2942 H   0  0  0  0  0  0  0  0  0  0  0  0
  1  2  3  0
  2  3  1  0
  3  4  1  0
  4  5  1  0
  5  6  1  0
  6  7  1  0
  7  8  1  0
  8  9  1  0
  9  5  1  0
  9  7  1  0
  1 10  1  0
  3 11  1  0
  3 12  1  0
  5 13  1  0
  6 14  1  0
  6 15  1  0
  7 16  1  0
  8 17  1  0
  8 18  1  0
  9 19  1  0
M  END
