
     RDKit          3D

 21 21  0  0  0  0  0  0  0  0999 V2000
   -0.2499    2.7858   -1.3439 C   0  0  0  0  0  0  0  0  0  0  0  0
    0.2382    1.8607   -0.7430 C   0  0  0  0  0  0  0  0  0  0  0  0
    0.8210    0.7218    0.0036 C   0  0  0  0  0  0  0  0  0  0  0  0
    2.3094    0.5139   -0.2117 C   0  0  0  0  0  0  0  0  0  0  0  0
    0.1813    0.3490    1.2848 C   0  0  0  0  0  0  0  0  0  0  0  0
    1.0379   -0.0350    2.3114 O   0  0  0  0  0  0  0  0  0  0  0  0
   -0.0028   -0.5062    0.1111 C   0  0  0  0  0  0  0  0  0  0  0  0
   -1.2597   -0.5490   -0.6978 C   0  0  0  0  0  0  0  0  0  0  0  0
   -2.0025   -1.8415   -0.5024 C   0  0  0  0  0  0  0  0  0  0  0  0
   -0.6877    3.5891   -1.8854 H   0  0  0  0  0  0  0  0  0  0  0  0
    2.8445    1.3051    0.3169 H   0  0  0  0  0  0  0  0  0  0  0  0
    2.4863    0.5448   -1.3100 H   0  0  0  0  0  0  0  0  0  0  0  0
    2.6022   -0.5069    0.1252 H   0  0  0  0  0  0  0  0  0  0  0  0
   -0.6155    1.0575    1.6461 H   0  0  0  0  0  0  0  0  0  0  0  0
    1.0981   -1.0213    2.4142 H   0  0  0  0  0  0  0  0  0  0  0  0
    0.5461   -1.4890    0.1242 H   0  0  0  0  0  0  0  0  0  0  0  0
   -0.9436   -0.5154   -1.7818 H   0  0  0  0  0  0  0  0  0  0  0  0
   -1.9009    0.3397   -0.5619 H   0  0  0  0  0  0  0  0  0  0  0  0
   -1.3260   -2.5294    0.0812 H   0  0  0  0  0  0  0  0  0  0  0  0
   -2.2081   -2.3552   -1.4640 H   0  0  0  0  0  0  0  0  0  0  0  0
   -2.9683   -1.7182    0.0097 H   0  0  0  0  0  0  0  0  0  0  0  0
  1  2  3  0
  2  3  1  0
  3  4  1  0
  3  5  1  0
  5  6  1  0
  5  7  1  0
  7  8  1  0
  8  9  1  0
  7  3  1  0
  1 10  1  0
  4 11  1  0
  4 12  1  0
  4 13  1  0
  5 14  1  0
  6 15  1  0
  7 16  1  0
  8 17  1  0
  8 18  1  0
  9 19  1  0
  9 20  1  0
  9 21  1  0
M  END
