
     RDKit          3D

 23 22  0  0  0  0  0  0  0  0999 V2000
    3.2549    0.1928    0.6700 C   0  0  0  0  0  0  0  0  0  0  0  0
    2.4675    0.2300   -0.2703 C   0  0  0  0  0  0  0  0  0  0  0  0
    1.5577    0.2809   -1.3947 C   0  0  0  0  0  0  0  0  0  0  0  0
    0.2929    0.5802   -1.0024 O   0  0  0  0  0  0  0  0  0  0  0  0
   -0.3408   -0.2707   -0.1471 C   0  0  0  0  0  0  0  0  0  0  0  0
   -0.4754   -1.6794   -0.7023 C   0  0  0  0  0  0  0  0  0  0  0  0
    0.1696   -0.3182    1.2549 C   0  0  0  0  0  0  0  0  0  0  0  0
   -1.7997    0.2279   -0.0629 C   0  0  0  0  0  0  0  0  0  0  0  0
   -1.7606    1.6397    0.4617 C   0  0  0  0  0  0  0  0  0  0  0  0
    3.9299    0.1730    1.4819 H   0  0  0  0  0  0  0  0  0  0  0  0
    1.6186   -0.6447   -2.0289 H   0  0  0  0  0  0  0  0  0  0  0  0
    1.8775    1.1036   -2.1017 H   0  0  0  0  0  0  0  0  0  0  0  0
   -1.3225   -2.1462   -0.1560 H   0  0  0  0  0  0  0  0  0  0  0  0
    0.4171   -2.2962   -0.5001 H   0  0  0  0  0  0  0  0  0  0  0  0
   -0.7353   -1.6734   -1.7723 H   0  0  0  0  0  0  0  0  0  0  0  0
    0.8512   -1.1736    1.4463 H   0  0  0  0  0  0  0  0  0  0  0  0
   -0.7194   -0.5396    1.9219 H   0  0  0  0  0  0  0  0  0  0  0  0
    0.5482    0.6613    1.5457 H   0  0  0  0  0  0  0  0  0  0  0  0
   -2.3364   -0.4666    0.6182 H   0  0  0  0  0  0  0  0  0  0  0  0
   -2.2956    0.1451   -1.0490 H   0  0  0  0  0  0  0  0  0  0  0  0
   -2.6062    2.1889    0.0479 H   0  0  0  0  0  0  0  0  0  0  0  0
   -0.8324    2.1753    0.1698 H   0  0  0  0  0  0  0  0  0  0  0  0
   -1.7608    1.6100    1.5693 H   0  0  0  0  0  0  0  0  0  0  0  0
  1  2  3  0
  2  3  1  0
  3  4  1  0
  4  5  1  0
  5  6  1  0
  5  7  1  0
  5  8  1  0
  8  9  1  0
  1 10  1  0
  3 11  1  0
  3 12  1  0
  6 13  1  0
  6 14  1  0
  6 15  1  0
  7 16  1  0
  7 17  1  0
  7 18  1  0
  8 19  1  0
  8 20  1  0
  9 21  1  0
  9 22  1  0
  9 23  1  0
M  END
