
     RDKit          3D

 16 16  0  0  0  0  0  0  0  0999 V2000
    3.3309    0.1524   -0.3828 C   0  0  0  0  0  0  0  0  0  0  0  0
    2.2245   -0.3289   -0.4122 C   0  0  0  0  0  0  0  0  0  0  0  0
    0.9077   -0.9039   -0.4308 C   0  0  0  0  0  0  0  0  0  0  0  0
    0.6757   -1.7941   -1.2870 O   0  0  0  0  0  0  0  0  0  0  0  0
   -0.1086   -0.4301    0.5468 C   0  0  0  0  0  0  0  0  0  0  0  0
   -0.4300    1.0429    0.4490 C   0  0  0  0  0  0  0  0  0  0  0  0
   -1.6102    0.6686   -0.4171 C   0  0  0  0  0  0  0  0  0  0  0  0
   -1.5377   -0.7378    0.1373 C   0  0  0  0  0  0  0  0  0  0  0  0
    4.3109    0.5983   -0.3523 H   0  0  0  0  0  0  0  0  0  0  0  0
    0.1369   -0.7034    1.5983 H   0  0  0  0  0  0  0  0  0  0  0  0
    0.3958    1.5664   -0.0724 H   0  0  0  0  0  0  0  0  0  0  0  0
   -0.6663    1.4929    1.4201 H   0  0  0  0  0  0  0  0  0  0  0  0
   -1.3113    0.7044   -1.4788 H   0  0  0  0  0  0  0  0  0  0  0  0
   -2.5540    1.1740   -0.1570 H   0  0  0  0  0  0  0  0  0  0  0  0
   -1.6080   -1.5473   -0.6315 H   0  0  0  0  0  0  0  0  0  0  0  0
   -2.1563   -0.9545    1.0057 H   0  0  0  0  0  0  0  0  0  0  0  0
  1  2  3  0
  2  3  1  0
  3  4  2  0
  3  5  1  0
  5  6  1  0
  6  7  1  0
  7  8  1  0
  8  5  1  0
  1  9  1  0
  5 10  1  0
  6 11  1  0
  6 12  1  0
  7 13  1  0
  7 14  1  0
  8 15  1  0
  8 16  1  0
M  END
