
     RDKit          3D

 21 20  0  0  0  0  0  0  0  0999 V2000
   -3.2975   -0.0408   -0.7487 C   0  0  0  0  0  0  0  0  0  0  0  0
   -2.1835   -0.4368   -0.5326 C   0  0  0  0  0  0  0  0  0  0  0  0
   -0.8057   -0.8993   -0.2636 C   0  0  0  0  0  0  0  0  0  0  0  0
   -0.3408   -1.7480   -1.3985 C   0  0  0  0  0  0  0  0  0  0  0  0
    0.0589    0.2998   -0.0088 C   0  0  0  0  0  0  0  0  0  0  0  0
   -0.4343    1.0366    1.1223 C   0  0  0  0  0  0  0  0  0  0  0  0
   -0.8741    1.6758    2.1445 C   0  0  0  0  0  0  0  0  0  0  0  0
    1.4967   -0.0820    0.2829 C   0  0  0  0  0  0  0  0  0  0  0  0
    2.3406    1.1486    0.5353 C   0  0  0  0  0  0  0  0  0  0  0  0
   -4.3026    0.2968   -0.9432 H   0  0  0  0  0  0  0  0  0  0  0  0
   -0.8740   -1.5187    0.6571 H   0  0  0  0  0  0  0  0  0  0  0  0
   -1.2238   -2.2933   -1.8435 H   0  0  0  0  0  0  0  0  0  0  0  0
    0.0469   -1.1115   -2.2372 H   0  0  0  0  0  0  0  0  0  0  0  0
    0.4727   -2.4419   -1.1401 H   0  0  0  0  0  0  0  0  0  0  0  0
    0.0545    0.9440   -0.9357 H   0  0  0  0  0  0  0  0  0  0  0  0
   -1.2162    2.1913    2.9361 H   0  0  0  0  0  0  0  0  0  0  0  0
    1.9181   -0.5640   -0.6383 H   0  0  0  0  0  0  0  0  0  0  0  0
    1.5687   -0.7525    1.1548 H   0  0  0  0  0  0  0  0  0  0  0  0
    3.0568    0.9013    1.3400 H   0  0  0  0  0  0  0  0  0  0  0  0
    2.9010    1.4655   -0.3710 H   0  0  0  0  0  0  0  0  0  0  0  0
    1.6374    1.9290    0.8883 H   0  0  0  0  0  0  0  0  0  0  0  0
  1  2  3  0
  2  3  1  0
  3  4  1  0
  3  5  1  0
  5  6  1  0
  6  7  3  0
  5  8  1  0
  8  9  1  0
  1 10  1  0
  3 11  1  0
  4 12  1  0
  4 13  1  0
  4 14  1  0
  5 15  1  0
  7 16  1  0
  8 17  1  0
  8 18  1  0
  9 19  1  0
  9 20  1  0
  9 21  1  0
M  END
