
     RDKit          3D

 21 20  0  0  0  0  0  0  0  0999 V2000
    2.2870   -2.2879    0.9184 C   0  0  0  0  0  0  0  0  0  0  0  0
    1.5599   -1.4983    1.1276 C   0  0  0  0  0  0  0  0  0  0  0  0
    0.5619   -0.3967    1.3968 C   0  0  0  0  0  0  0  0  0  0  0  0
    0.2036   -0.0803    2.4816 O   0  0  0  0  0  0  0  0  0  0  0  0
    0.0180    0.3022    0.1508 C   0  0  0  0  0  0  0  0  0  0  0  0
    1.1925    0.8449   -0.5795 C   0  0  0  0  0  0  0  0  0  0  0  0
   -0.7636    1.4976    0.7138 C   0  0  0  0  0  0  0  0  0  0  0  0
   -0.8855   -0.6545   -0.5222 C   0  0  0  0  0  0  0  0  0  0  0  0
   -1.5789   -0.2081   -1.7624 C   0  0  0  0  0  0  0  0  0  0  0  0
    3.0891   -3.1322    0.6827 H   0  0  0  0  0  0  0  0  0  0  0  0
    1.9801    0.1205   -0.7302 H   0  0  0  0  0  0  0  0  0  0  0  0
    0.8743    1.4257   -1.4980 H   0  0  0  0  0  0  0  0  0  0  0  0
    1.5771    1.6997    0.1025 H   0  0  0  0  0  0  0  0  0  0  0  0
   -1.8205    1.4608    0.3979 H   0  0  0  0  0  0  0  0  0  0  0  0
   -0.6171    1.5401    1.8027 H   0  0  0  0  0  0  0  0  0  0  0  0
   -0.2799    2.4179    0.2774 H   0  0  0  0  0  0  0  0  0  0  0  0
   -1.6768   -0.9286    0.2530 H   0  0  0  0  0  0  0  0  0  0  0  0
   -0.3325   -1.6227   -0.6803 H   0  0  0  0  0  0  0  0  0  0  0  0
   -1.6421   -1.1156   -2.4474 H   0  0  0  0  0  0  0  0  0  0  0  0
   -2.6712    0.0348   -1.5463 H   0  0  0  0  0  0  0  0  0  0  0  0
   -1.0752    0.5805   -2.3201 H   0  0  0  0  0  0  0  0  0  0  0  0
  1  2  3  0
  2  3  1  0
  3  4  2  0
  3  5  1  0
  5  6  1  0
  5  7  1  0
  5  8  1  0
  8  9  1  0
  1 10  1  0
  6 11  1  0
  6 12  1  0
  6 13  1  0
  7 14  1  0
  7 15  1  0
  7 16  1  0
  8 17  1  0
  8 18  1  0
  9 19  1  0
  9 20  1  0
  9 21  1  0
M  END
