
     RDKit          3D

 17 17  0  0  0  0  0  0  0  0999 V2000
    2.2077   -1.9620   -0.3283 C   0  0  0  0  0  0  0  0  0  0  0  0
    1.3584   -1.1196   -0.2439 C   0  0  0  0  0  0  0  0  0  0  0  0
    0.3499   -0.0848   -0.1432 C   0  0  0  0  0  0  0  0  0  0  0  0
    0.8921    1.2612    0.0051 C   0  0  0  0  0  0  0  0  0  0  0  0
    1.3584    2.3662    0.1200 C   0  0  0  0  0  0  0  0  0  0  0  0
   -0.6762   -0.0884   -1.2747 C   0  0  0  0  0  0  0  0  0  0  0  0
   -1.7093    0.3071   -0.2091 C   0  0  0  0  0  0  0  0  0  0  0  0
   -0.7962   -0.4215    0.7849 C   0  0  0  0  0  0  0  0  0  0  0  0
   -0.7396    0.1862    2.0208 O   0  0  0  0  0  0  0  0  0  0  0  0
    2.9722   -2.6987   -0.4028 H   0  0  0  0  0  0  0  0  0  0  0  0
    1.7634    3.3462    0.2372 H   0  0  0  0  0  0  0  0  0  0  0  0
   -0.5213    0.6666   -2.0448 H   0  0  0  0  0  0  0  0  0  0  0  0
   -0.8879   -1.1162   -1.6182 H   0  0  0  0  0  0  0  0  0  0  0  0
   -2.6961   -0.1358   -0.3392 H   0  0  0  0  0  0  0  0  0  0  0  0
   -1.7090    1.3886    0.0300 H   0  0  0  0  0  0  0  0  0  0  0  0
   -0.9682   -1.5207    0.7927 H   0  0  0  0  0  0  0  0  0  0  0  0
   -0.1984   -0.3745    2.6135 H   0  0  0  0  0  0  0  0  0  0  0  0
  1  2  3  0
  2  3  1  0
  3  4  1  0
  4  5  3  0
  3  6  1  0
  6  7  1  0
  7  8  1  0
  8  9  1  0
  8  3  1  0
  1 10  1  0
  5 11  1  0
  6 12  1  0
  6 13  1  0
  7 14  1  0
  7 15  1  0
  8 16  1  0
  9 17  1  0
M  END
