
     RDKit          3D

 19 21  0  0  0  0  0  0  0  0999 V2000
    2.5412    1.8267    0.3645 C   0  0  0  0  0  0  0  0  0  0  0  0
    1.1181    1.1226    0.8573 C   0  0  0  0  0  0  0  0  0  0  0  0
    0.0506    0.6078    1.2123 C   0  0  0  0  0  0  0  0  0  0  0  0
    0.4585   -0.9253    0.5013 C   0  0  0  0  0  0  0  0  0  0  0  0
   -0.9611   -1.5375    0.3604 C   0  0  0  0  0  0  0  0  0  0  0  0
   -1.6746   -0.3378   -0.2232 C   0  0  0  0  0  0  0  0  0  0  0  0
   -0.6830    0.2884   -1.1294 C   0  0  0  0  0  0  0  0  0  0  0  0
    0.6122   -0.3987   -0.9519 C   0  0  0  0  0  0  0  0  0  0  0  0
   -0.9150    0.8458    0.1943 C   0  0  0  0  0  0  0  0  0  0  0  0
    3.5176    2.3080    0.0234 H   0  0  0  0  0  0  0  0  0  0  0  0
    0.0150    0.4295    2.2508 H   0  0  0  0  0  0  0  0  0  0  0  0
    1.1990   -1.4584    0.7899 H   0  0  0  0  0  0  0  0  0  0  0  0
   -0.8517   -2.3308   -0.4206 H   0  0  0  0  0  0  0  0  0  0  0  0
   -1.3756   -1.8504    1.2959 H   0  0  0  0  0  0  0  0  0  0  0  0
   -2.7595   -0.3712   -0.3774 H   0  0  0  0  0  0  0  0  0  0  0  0
   -1.0137    0.7848   -2.0749 H   0  0  0  0  0  0  0  0  0  0  0  0
    0.6343   -1.2210   -1.7119 H   0  0  0  0  0  0  0  0  0  0  0  0
    1.4725    0.3032   -1.0650 H   0  0  0  0  0  0  0  0  0  0  0  0
   -1.3847    1.9145    0.1041 H   0  0  0  0  0  0  0  0  0  0  0  0
  1  2  3  0
  2  3  1  0
  3  4  1  0
  4  5  1  0
  5  6  1  0
  6  7  1  0
  7  8  1  0
  7  9  1  0
  9  3  1  0
  8  4  1  0
  9  6  1  0
  1 10  1  0
  3 11  1  0
  4 12  1  0
  5 13  1  0
  5 14  1  0
  6 15  1  0
  7 16  1  0
  8 17  1  0
  8 18  1  0
  9 19  1  0
M  END
