
     RDKit          3D

 15 16  0  0  0  0  0  0  0  0999 V2000
   -1.5208    2.3557    0.3094 C   0  0  0  0  0  0  0  0  0  0  0  0
   -0.9018    1.1800   -0.3266 C   0  0  0  0  0  0  0  0  0  0  0  0
   -0.4112    0.2344   -0.8507 C   0  0  0  0  0  0  0  0  0  0  0  0
   -1.1589   -1.2688   -0.4251 C   0  0  0  0  0  0  0  0  0  0  0  0
    0.2141   -1.7800   -0.0447 C   0  0  0  0  0  0  0  0  0  0  0  0
    1.3513   -1.3638   -0.6480 O   0  0  0  0  0  0  0  0  0  0  0  0
    0.4737   -0.3929    0.3159 C   0  0  0  0  0  0  0  0  0  0  0  0
    1.4761    0.3683    0.8356 C   0  0  0  0  0  0  0  0  0  0  0  0
    2.3265    1.0074    1.2830 C   0  0  0  0  0  0  0  0  0  0  0  0
   -1.9293    3.1621    0.7535 H   0  0  0  0  0  0  0  0  0  0  0  0
   -0.1428   -0.0432   -1.8602 H   0  0  0  0  0  0  0  0  0  0  0  0
   -1.6164   -1.6547   -1.2522 H   0  0  0  0  0  0  0  0  0  0  0  0
   -1.7647   -0.9603    0.4559 H   0  0  0  0  0  0  0  0  0  0  0  0
    0.3791   -2.5527    0.7804 H   0  0  0  0  0  0  0  0  0  0  0  0
    3.2251    1.7085    1.7638 H   0  0  0  0  0  0  0  0  0  0  0  0
  1  2  3  0
  2  3  1  0
  3  4  1  0
  4  5  1  0
  5  6  1  0
  6  7  1  0
  7  8  1  0
  8  9  3  0
  7  3  1  0
  7  5  1  0
  1 10  1  0
  3 11  1  0
  4 12  1  0
  4 13  1  0
  5 14  1  0
  9 15  1  0
M  END
