
     RDKit          3D

 17 16  0  0  0  0  0  0  0  0999 V2000
    2.4514    0.1057   -2.8748 C   0  0  0  0  0  0  0  0  0  0  0  0
    1.4514   -0.2532   -2.3324 C   0  0  0  0  0  0  0  0  0  0  0  0
    0.2474   -0.7028   -1.6721 C   0  0  0  0  0  0  0  0  0  0  0  0
    0.2778   -2.0833   -1.4264 O   0  0  0  0  0  0  0  0  0  0  0  0
    0.0271    0.0628   -0.4263 C   0  0  0  0  0  0  0  0  0  0  0  0
    0.0183    1.3257   -0.4791 O   0  0  0  0  0  0  0  0  0  0  0  0
   -0.1705   -0.5175    0.7883 O   0  0  0  0  0  0  0  0  0  0  0  0
   -0.3889    0.0953    2.0228 C   0  0  0  0  0  0  0  0  0  0  0  0
   -1.6400    0.9554    2.0167 C   0  0  0  0  0  0  0  0  0  0  0  0
    3.3714    0.4555   -3.3759 H   0  0  0  0  0  0  0  0  0  0  0  0
   -0.6444   -0.5351   -2.3106 H   0  0  0  0  0  0  0  0  0  0  0  0
    1.0663   -2.3144   -0.8280 H   0  0  0  0  0  0  0  0  0  0  0  0
   -0.6384   -0.7486    2.7360 H   0  0  0  0  0  0  0  0  0  0  0  0
    0.4298    0.6427    2.4661 H   0  0  0  0  0  0  0  0  0  0  0  0
   -2.5349    0.3256    1.8416 H   0  0  0  0  0  0  0  0  0  0  0  0
   -1.7883    1.4852    2.9657 H   0  0  0  0  0  0  0  0  0  0  0  0
   -1.5356    1.7009    1.2066 H   0  0  0  0  0  0  0  0  0  0  0  0
  1  2  3  0
  2  3  1  0
  3  4  1  0
  3  5  1  0
  5  6  2  0
  5  7  1  0
  7  8  1  0
  8  9  1  0
  1 10  1  0
  3 11  1  0
  4 12  1  0
  8 13  1  0
  8 14  1  0
  9 15  1  0
  9 16  1  0
  9 17  1  0
M  END
