
     RDKit          3D

 21 20  0  0  0  0  0  0  0  0999 V2000
   -2.8996    1.3644   -0.3606 C   0  0  0  0  0  0  0  0  0  0  0  0
   -2.0801    0.4073   -0.0774 C   0  0  0  0  0  0  0  0  0  0  0  0
   -1.1670   -0.6491    0.2612 C   0  0  0  0  0  0  0  0  0  0  0  0
   -1.5242   -1.0136    1.7514 C   0  0  0  0  0  0  0  0  0  0  0  0
   -1.4563   -1.8732   -0.5894 C   0  0  0  0  0  0  0  0  0  0  0  0
    0.1678   -0.1964    0.2005 C   0  0  0  0  0  0  0  0  0  0  0  0
    1.3771    0.1914    0.1385 C   0  0  0  0  0  0  0  0  0  0  0  0
    2.7347    0.6057    0.0674 C   0  0  0  0  0  0  0  0  0  0  0  0
    2.8713    1.8199   -0.8000 C   0  0  0  0  0  0  0  0  0  0  0  0
   -3.5976    2.1789   -0.6095 H   0  0  0  0  0  0  0  0  0  0  0  0
   -2.4342   -1.6268    1.7196 H   0  0  0  0  0  0  0  0  0  0  0  0
   -0.7093   -1.5713    2.2141 H   0  0  0  0  0  0  0  0  0  0  0  0
   -1.7206   -0.0247    2.2256 H   0  0  0  0  0  0  0  0  0  0  0  0
   -2.1518   -1.6232   -1.4126 H   0  0  0  0  0  0  0  0  0  0  0  0
   -1.9460   -2.6382    0.0293 H   0  0  0  0  0  0  0  0  0  0  0  0
   -0.4967   -2.3048   -0.9930 H   0  0  0  0  0  0  0  0  0  0  0  0
    3.1763    0.8249    1.0845 H   0  0  0  0  0  0  0  0  0  0  0  0
    3.3565   -0.2586   -0.3129 H   0  0  0  0  0  0  0  0  0  0  0  0
    1.8372    2.2896   -0.8228 H   0  0  0  0  0  0  0  0  0  0  0  0
    3.1045    1.5586   -1.8667 H   0  0  0  0  0  0  0  0  0  0  0  0
    3.5583    2.5392   -0.3585 H   0  0  0  0  0  0  0  0  0  0  0  0
  1  2  3  0
  2  3  1  0
  3  4  1  0
  3  5  1  0
  3  6  1  0
  6  7  3  0
  7  8  1  0
  8  9  1  0
  1 10  1  0
  4 11  1  0
  4 12  1  0
  4 13  1  0
  5 14  1  0
  5 15  1  0
  5 16  1  0
  8 17  1  0
  8 18  1  0
  9 19  1  0
  9 20  1  0
  9 21  1  0
M  END
