
     RDKit          3D

 21 21  0  0  0  0  0  0  0  0999 V2000
    2.8516    0.9119   -0.7505 C   0  0  0  0  0  0  0  0  0  0  0  0
    1.7999    0.3985   -0.4526 C   0  0  0  0  0  0  0  0  0  0  0  0
    0.5194   -0.2186   -0.0996 C   0  0  0  0  0  0  0  0  0  0  0  0
    0.6962   -0.9856    1.1769 C   0  0  0  0  0  0  0  0  0  0  0  0
    0.1396   -1.1781   -1.1884 C   0  0  0  0  0  0  0  0  0  0  0  0
   -0.7603   -0.4747   -1.9720 O   0  0  0  0  0  0  0  0  0  0  0  0
   -1.6289    0.0638   -0.9983 C   0  0  0  0  0  0  0  0  0  0  0  0
   -0.6058    0.7553   -0.0896 C   0  0  0  0  0  0  0  0  0  0  0  0
   -1.1411    1.1261    1.2261 C   0  0  0  0  0  0  0  0  0  0  0  0
    3.7882    1.3781   -1.0003 H   0  0  0  0  0  0  0  0  0  0  0  0
    1.0666   -0.3580    2.0159 H   0  0  0  0  0  0  0  0  0  0  0  0
   -0.2184   -1.5595    1.4431 H   0  0  0  0  0  0  0  0  0  0  0  0
    1.4919   -1.7437    0.9961 H   0  0  0  0  0  0  0  0  0  0  0  0
   -0.3932   -2.0409   -0.7129 H   0  0  0  0  0  0  0  0  0  0  0  0
    1.0112   -1.5274   -1.7819 H   0  0  0  0  0  0  0  0  0  0  0  0
   -2.2960    0.7700   -1.4898 H   0  0  0  0  0  0  0  0  0  0  0  0
   -2.1059   -0.7555   -0.4567 H   0  0  0  0  0  0  0  0  0  0  0  0
   -0.2880    1.6726   -0.6351 H   0  0  0  0  0  0  0  0  0  0  0  0
   -0.8475    0.4858    2.0753 H   0  0  0  0  0  0  0  0  0  0  0  0
   -0.8235    2.1760    1.4983 H   0  0  0  0  0  0  0  0  0  0  0  0
   -2.2559    1.1039    1.1961 H   0  0  0  0  0  0  0  0  0  0  0  0
  1  2  3  0
  2  3  1  0
  3  4  1  0
  3  5  1  0
  5  6  1  0
  6  7  1  0
  7  8  1  0
  8  9  1  0
  8  3  1  0
  1 10  1  0
  4 11  1  0
  4 12  1  0
  4 13  1  0
  5 14  1  0
  5 15  1  0
  7 16  1  0
  7 17  1  0
  8 18  1  0
  9 19  1  0
  9 20  1  0
  9 21  1  0
M  END
