
     RDKit          3D

 14 15  0  0  0  0  0  0  0  0999 V2000
    2.8835    0.5973    0.0509 C   0  0  0  0  0  0  0  0  0  0  0  0
    1.8008    0.2062   -0.2958 C   0  0  0  0  0  0  0  0  0  0  0  0
    0.4841   -0.2460   -0.7164 C   0  0  0  0  0  0  0  0  0  0  0  0
   -0.4531    0.8598   -1.0038 C   0  0  0  0  0  0  0  0  0  0  0  0
   -1.6116    0.6893   -0.3646 C   0  0  0  0  0  0  0  0  0  0  0  0
   -1.6033   -0.5461    0.4308 C   0  0  0  0  0  0  0  0  0  0  0  0
   -1.3066   -1.7644   -0.1187 O   0  0  0  0  0  0  0  0  0  0  0  0
   -0.2035   -1.0058    0.3820 C   0  0  0  0  0  0  0  0  0  0  0  0
    3.8477    0.9539    0.3560 H   0  0  0  0  0  0  0  0  0  0  0  0
    0.5819   -0.8582   -1.6526 H   0  0  0  0  0  0  0  0  0  0  0  0
   -0.1907    1.6937   -1.6632 H   0  0  0  0  0  0  0  0  0  0  0  0
   -2.4250    1.4026   -0.4548 H   0  0  0  0  0  0  0  0  0  0  0  0
   -2.1416   -0.5921    1.3972 H   0  0  0  0  0  0  0  0  0  0  0  0
    0.3373   -1.3901    1.2445 H   0  0  0  0  0  0  0  0  0  0  0  0
  1  2  3  0
  2  3  1  0
  3  4  1  0
  4  5  2  0
  5  6  1  0
  6  7  1  0
  7  8  1  0
  8  3  1  0
  8  6  1  0
  1  9  1  0
  3 10  1  0
  4 11  1  0
  5 12  1  0
  6 13  1  0
  8 14  1  0
M  END
