
     RDKit          3D

 13 14  0  0  0  0  0  0  0  0999 V2000
    3.1579    0.1561    0.3953 C   0  0  0  0  0  0  0  0  0  0  0  0
    1.9361    0.0963    0.1967 C   0  0  0  0  0  0  0  0  0  0  0  0
    0.6294    0.0170   -0.0025 C   0  0  0  0  0  0  0  0  0  0  0  0
   -0.0492   -0.8264   -0.8530 C   0  0  0  0  0  0  0  0  0  0  0  0
   -1.5255   -0.6293   -0.6785 C   0  0  0  0  0  0  0  0  0  0  0  0
   -2.0979   -0.8008    0.5835 O   0  0  0  0  0  0  0  0  0  0  0  0
   -1.6789    0.5406    0.2388 C   0  0  0  0  0  0  0  0  0  0  0  0
   -0.4126    0.7705    0.7192 C   0  0  0  0  0  0  0  0  0  0  0  0
   -0.0117    1.5277    1.7752 O   0  0  0  0  0  0  0  0  0  0  0  0
    4.4342    0.2084    0.5836 H   0  0  0  0  0  0  0  0  0  0  0  0
    0.3334   -1.5276   -1.5946 H   0  0  0  0  0  0  0  0  0  0  0  0
   -2.1446   -0.7415   -1.5492 H   0  0  0  0  0  0  0  0  0  0  0  0
   -2.5707    1.2091    0.1855 H   0  0  0  0  0  0  0  0  0  0  0  0
  1  2  3  0
  2  3  1  0
  3  4  2  0
  4  5  1  0
  5  6  1  0
  6  7  1  0
  7  8  1  0
  8  9  2  0
  8  3  1  0
  7  5  1  0
  1 10  1  0
  4 11  1  0
  5 12  1  0
  7 13  1  0
M  END
