
     RDKit          3D

 21 21  0  0  0  0  0  0  0  0999 V2000
    2.3564   -1.8726   -0.0900 C   0  0  0  0  0  0  0  0  0  0  0  0
    1.4386   -1.1121   -0.2809 C   0  0  0  0  0  0  0  0  0  0  0  0
    0.3181   -0.1928   -0.4886 C   0  0  0  0  0  0  0  0  0  0  0  0
   -0.2321   -0.3201   -1.8765 C   0  0  0  0  0  0  0  0  0  0  0  0
    0.7461    1.2006   -0.1298 C   0  0  0  0  0  0  0  0  0  0  0  0
    0.7615    1.0944    1.3698 C   0  0  0  0  0  0  0  0  0  0  0  0
   -0.0613    0.1416    1.7686 C   0  0  0  0  0  0  0  0  0  0  0  0
   -0.6983   -0.4715    0.5840 C   0  0  0  0  0  0  0  0  0  0  0  0
   -1.9962    0.2895    0.3363 C   0  0  0  0  0  0  0  0  0  0  0  0
    3.1870   -2.5390    0.0868 H   0  0  0  0  0  0  0  0  0  0  0  0
    0.5896   -0.4887   -2.6037 H   0  0  0  0  0  0  0  0  0  0  0  0
   -0.9042   -1.1991   -1.9605 H   0  0  0  0  0  0  0  0  0  0  0  0
   -0.7351    0.6306   -2.1342 H   0  0  0  0  0  0  0  0  0  0  0  0
    0.1110    2.0034   -0.5036 H   0  0  0  0  0  0  0  0  0  0  0  0
    1.7868    1.3520   -0.5041 H   0  0  0  0  0  0  0  0  0  0  0  0
    1.3448    1.6887    2.0751 H   0  0  0  0  0  0  0  0  0  0  0  0
   -0.2739   -0.1822    2.7993 H   0  0  0  0  0  0  0  0  0  0  0  0
   -0.9008   -1.5521    0.7108 H   0  0  0  0  0  0  0  0  0  0  0  0
   -2.6193    0.3248    1.2484 H   0  0  0  0  0  0  0  0  0  0  0  0
   -1.7026    1.3355    0.1228 H   0  0  0  0  0  0  0  0  0  0  0  0
   -2.5161   -0.1308   -0.5301 H   0  0  0  0  0  0  0  0  0  0  0  0
  1  2  3  0
  2  3  1  0
  3  4  1  0
  3  5  1  0
  5  6  1  0
  6  7  2  0
  7  8  1  0
  8  9  1  0
  8  3  1  0
  1 10  1  0
  4 11  1  0
  4 12  1  0
  4 13  1  0
  5 14  1  0
  5 15  1  0
  6 16  1  0
  7 17  1  0
  8 18  1  0
  9 19  1  0
  9 20  1  0
  9 21  1  0
M  END
