
     RDKit          3D

 20 20  0  0  0  0  0  0  0  0999 V2000
   -0.3666    1.2771    2.6347 C   0  0  0  0  0  0  0  0  0  0  0  0
   -0.0754    0.9300    1.4767 C   0  0  0  0  0  0  0  0  0  0  0  0
    0.2561    0.5351    0.1088 C   0  0  0  0  0  0  0  0  0  0  0  0
    1.1280    1.5720   -0.5518 C   0  0  0  0  0  0  0  0  0  0  0  0
   -1.0180    0.2745   -0.6590 C   0  0  0  0  0  0  0  0  0  0  0  0
   -1.0181   -1.2144   -0.9215 C   0  0  0  0  0  0  0  0  0  0  0  0
   -0.2349   -1.7332    0.2491 C   0  0  0  0  0  0  0  0  0  0  0  0
    0.9657   -0.8037    0.2232 C   0  0  0  0  0  0  0  0  0  0  0  0
   -0.6218    1.5536    3.6041 H   0  0  0  0  0  0  0  0  0  0  0  0
    1.1917    2.5252   -0.0068 H   0  0  0  0  0  0  0  0  0  0  0  0
    2.1515    1.1349   -0.6729 H   0  0  0  0  0  0  0  0  0  0  0  0
    0.7537    1.7519   -1.5985 H   0  0  0  0  0  0  0  0  0  0  0  0
   -1.1178    0.8754   -1.5646 H   0  0  0  0  0  0  0  0  0  0  0  0
   -1.9097    0.4984   -0.0315 H   0  0  0  0  0  0  0  0  0  0  0  0
   -2.0417   -1.6282   -0.9845 H   0  0  0  0  0  0  0  0  0  0  0  0
   -0.4288   -1.3794   -1.8404 H   0  0  0  0  0  0  0  0  0  0  0  0
    0.0495   -2.7904    0.1733 H   0  0  0  0  0  0  0  0  0  0  0  0
   -0.7927   -1.4942    1.1764 H   0  0  0  0  0  0  0  0  0  0  0  0
    1.5502   -0.8533    1.1634 H   0  0  0  0  0  0  0  0  0  0  0  0
    1.5791   -1.0312   -0.6652 H   0  0  0  0  0  0  0  0  0  0  0  0
  1  2  3  0
  2  3  1  0
  3  4  1  0
  3  5  1  0
  5  6  1  0
  6  7  1  0
  7  8  1  0
  8  3  1  0
  1  9  1  0
  4 10  1  0
  4 11  1  0
  4 12  1  0
  5 13  1  0
  5 14  1  0
  6 15  1  0
  6 16  1  0
  7 17  1  0
  7 18  1  0
  8 19  1  0
  8 20  1  0
M  END
