
     RDKit          3D

 19 20  0  0  0  0  0  0  0  0999 V2000
    3.2129    0.2989   -1.1057 C   0  0  0  0  0  0  0  0  0  0  0  0
    2.0044    0.2068   -1.2680 C   0  0  0  0  0  0  0  0  0  0  0  0
    0.5563    0.0776   -1.4539 C   0  0  0  0  0  0  0  0  0  0  0  0
   -0.1429    0.1152   -0.1322 C   0  0  0  0  0  0  0  0  0  0  0  0
    0.1690   -0.9114    0.8986 C   0  0  0  0  0  0  0  0  0  0  0  0
   -1.3073   -1.0631    1.1987 C   0  0  0  0  0  0  0  0  0  0  0  0
   -1.5813   -0.1802   -0.0034 C   0  0  0  0  0  0  0  0  0  0  0  0
   -1.1121    1.2076    0.1047 C   0  0  0  0  0  0  0  0  0  0  0  0
   -1.0661    1.7807    1.3728 O   0  0  0  0  0  0  0  0  0  0  0  0
    4.2594    0.3728   -0.9483 H   0  0  0  0  0  0  0  0  0  0  0  0
    0.2385    0.9407   -2.0768 H   0  0  0  0  0  0  0  0  0  0  0  0
    0.2793   -0.8555   -1.9712 H   0  0  0  0  0  0  0  0  0  0  0  0
    0.5546   -1.8431    0.4185 H   0  0  0  0  0  0  0  0  0  0  0  0
    0.7961   -0.6078    1.7451 H   0  0  0  0  0  0  0  0  0  0  0  0
   -1.6559   -0.5712    2.1232 H   0  0  0  0  0  0  0  0  0  0  0  0
   -1.7266   -2.0643    1.0877 H   0  0  0  0  0  0  0  0  0  0  0  0
   -2.0739   -0.5971   -0.8898 H   0  0  0  0  0  0  0  0  0  0  0  0
   -1.3068    1.8875   -0.7231 H   0  0  0  0  0  0  0  0  0  0  0  0
   -0.0977    1.8059    1.6231 H   0  0  0  0  0  0  0  0  0  0  0  0
  1  2  3  0
  2  3  1  0
  3  4  1  0
  4  5  1  0
  5  6  1  0
  6  7  1  0
  7  8  1  0
  8  9  1  0
  7  4  1  0
  8  4  1  0
  1 10  1  0
  3 11  1  0
  3 12  1  0
  5 13  1  0
  5 14  1  0
  6 15  1  0
  6 16  1  0
  7 17  1  0
  8 18  1  0
  9 19  1  0
M  END
