
     RDKit          3D

 17 17  0  0  0  0  0  0  0  0999 V2000
   -1.5577    2.1743   -0.3693 C   0  0  0  0  0  0  0  0  0  0  0  0
   -1.0799    1.0796   -0.2265 C   0  0  0  0  0  0  0  0  0  0  0  0
   -0.5014   -0.2290   -0.0401 C   0  0  0  0  0  0  0  0  0  0  0  0
    0.7858   -0.4967   -0.7789 C   0  0  0  0  0  0  0  0  0  0  0  0
    1.8659    0.4524   -0.3795 C   0  0  0  0  0  0  0  0  0  0  0  0
   -0.4140   -0.6290    1.4279 C   0  0  0  0  0  0  0  0  0  0  0  0
   -0.7872   -1.9336    0.9665 O   0  0  0  0  0  0  0  0  0  0  0  0
   -1.4923   -1.3022   -0.0412 C   0  0  0  0  0  0  0  0  0  0  0  0
   -2.5391   -1.5696   -0.6677 O   0  0  0  0  0  0  0  0  0  0  0  0
   -1.9909    3.1552   -0.4793 H   0  0  0  0  0  0  0  0  0  0  0  0
    0.6036   -0.4600   -1.8764 H   0  0  0  0  0  0  0  0  0  0  0  0
    1.0844   -1.5361   -0.5242 H   0  0  0  0  0  0  0  0  0  0  0  0
    2.4900    0.6705   -1.2757 H   0  0  0  0  0  0  0  0  0  0  0  0
    1.5027    1.4262    0.0002 H   0  0  0  0  0  0  0  0  0  0  0  0
    2.5391    0.0207    0.4174 H   0  0  0  0  0  0  0  0  0  0  0  0
   -1.1440   -0.1479    2.0727 H   0  0  0  0  0  0  0  0  0  0  0  0
    0.6351   -0.6747    1.7742 H   0  0  0  0  0  0  0  0  0  0  0  0
  1  2  3  0
  2  3  1  0
  3  4  1  0
  4  5  1  0
  3  6  1  0
  6  7  1  0
  7  8  1  0
  8  9  2  0
  8  3  1  0
  1 10  1  0
  4 11  1  0
  4 12  1  0
  5 13  1  0
  5 14  1  0
  5 15  1  0
  6 16  1  0
  6 17  1  0
M  END
