
     RDKit          3D

 15 15  0  0  0  0  0  0  0  0999 V2000
   -1.3506   -1.7719   -2.3066 C   0  0  0  0  0  0  0  0  0  0  0  0
   -0.5615   -1.1095   -1.6108 C   0  0  0  0  0  0  0  0  0  0  0  0
    0.3502   -0.3720   -0.8033 C   0  0  0  0  0  0  0  0  0  0  0  0
    1.6579   -0.9363   -0.6389 O   0  0  0  0  0  0  0  0  0  0  0  0
    0.2764    1.1160   -0.9275 C   0  0  0  0  0  0  0  0  0  0  0  0
   -0.1753    0.4303    0.3284 C   0  0  0  0  0  0  0  0  0  0  0  0
    0.6961    0.5403    1.4546 O   0  0  0  0  0  0  0  0  0  0  0  0
    0.2078    0.8046    2.7473 C   0  0  0  0  0  0  0  0  0  0  0  0
   -1.0243    0.9339    2.8174 O   0  0  0  0  0  0  0  0  0  0  0  0
   -2.0654   -2.3564   -2.9177 H   0  0  0  0  0  0  0  0  0  0  0  0
    1.5773   -1.8865   -0.9515 H   0  0  0  0  0  0  0  0  0  0  0  0
    1.2316    1.6638   -0.9712 H   0  0  0  0  0  0  0  0  0  0  0  0
   -0.5104    1.5523   -1.5603 H   0  0  0  0  0  0  0  0  0  0  0  0
   -1.2302    0.5197    0.5996 H   0  0  0  0  0  0  0  0  0  0  0  0
    0.9204    0.8716    3.5372 H   0  0  0  0  0  0  0  0  0  0  0  0
  1  2  3  0
  2  3  1  0
  3  4  1  0
  3  5  1  0
  5  6  1  0
  6  7  1  0
  7  8  1  0
  8  9  2  0
  6  3  1  0
  1 10  1  0
  4 11  1  0
  5 12  1  0
  5 13  1  0
  6 14  1  0
  8 15  1  0
M  END
