
     RDKit          3D

 19 20  0  0  0  0  0  0  0  0999 V2000
   -1.7985    2.5319   -0.6439 C   0  0  0  0  0  0  0  0  0  0  0  0
   -1.4381    1.4843   -0.2036 C   0  0  0  0  0  0  0  0  0  0  0  0
   -1.0049    0.2314    0.3501 C   0  0  0  0  0  0  0  0  0  0  0  0
   -1.9083   -1.0013    0.1947 C   0  0  0  0  0  0  0  0  0  0  0  0
   -0.6038   -1.7949    0.0333 C   0  0  0  0  0  0  0  0  0  0  0  0
    0.1080   -0.4615    0.1228 C   0  0  0  0  0  0  0  0  0  0  0  0
    1.4495   -0.2639   -0.4182 C   0  0  0  0  0  0  0  0  0  0  0  0
    2.2923    0.7559    0.3009 C   0  0  0  0  0  0  0  0  0  0  0  0
   -0.1188    0.1566    1.3964 O   0  0  0  0  0  0  0  0  0  0  0  0
   -2.1276    3.4640   -1.0550 H   0  0  0  0  0  0  0  0  0  0  0  0
   -2.4476   -1.2143    1.1365 H   0  0  0  0  0  0  0  0  0  0  0  0
   -2.5346   -0.9867   -0.7117 H   0  0  0  0  0  0  0  0  0  0  0  0
   -0.4991   -2.2972   -0.9251 H   0  0  0  0  0  0  0  0  0  0  0  0
   -0.4390   -2.4095    0.9217 H   0  0  0  0  0  0  0  0  0  0  0  0
    2.0259   -1.2343   -0.3647 H   0  0  0  0  0  0  0  0  0  0  0  0
    1.4195   -0.0161   -1.4996 H   0  0  0  0  0  0  0  0  0  0  0  0
    3.2047    0.9115   -0.3472 H   0  0  0  0  0  0  0  0  0  0  0  0
    2.6097    0.4101    1.3045 H   0  0  0  0  0  0  0  0  0  0  0  0
    1.8107    1.7339    0.4083 H   0  0  0  0  0  0  0  0  0  0  0  0
  1  2  3  0
  2  3  1  0
  3  4  1  0
  4  5  1  0
  5  6  1  0
  6  7  1  0
  7  8  1  0
  6  9  1  0
  6  3  1  0
  9  3  1  0
  1 10  1  0
  4 11  1  0
  4 12  1  0
  5 13  1  0
  5 14  1  0
  7 15  1  0
  7 16  1  0
  8 17  1  0
  8 18  1  0
  8 19  1  0
M  END
