
     RDKit          3D

 21 21  0  0  0  0  0  0  0  0999 V2000
    2.1163    2.6126   -0.2532 C   0  0  0  0  0  0  0  0  0  0  0  0
    1.8283    1.5205    0.2264 C   0  0  0  0  0  0  0  0  0  0  0  0
    1.4739    0.2247    0.8091 C   0  0  0  0  0  0  0  0  0  0  0  0
    0.5309   -0.4929   -0.1224 C   0  0  0  0  0  0  0  0  0  0  0  0
    0.1150   -1.8457    0.4007 C   0  0  0  0  0  0  0  0  0  0  0  0
   -1.1081   -2.0947   -0.4873 C   0  0  0  0  0  0  0  0  0  0  0  0
   -1.7210   -0.7209   -0.4434 C   0  0  0  0  0  0  0  0  0  0  0  0
   -0.7824    0.2018   -0.2337 C   0  0  0  0  0  0  0  0  0  0  0  0
   -1.0685    1.6505   -0.1387 C   0  0  0  0  0  0  0  0  0  0  0  0
    2.3724    3.5473   -0.6819 H   0  0  0  0  0  0  0  0  0  0  0  0
    2.3687   -0.3955    1.0170 H   0  0  0  0  0  0  0  0  0  0  0  0
    0.9842    0.4365    1.7787 H   0  0  0  0  0  0  0  0  0  0  0  0
    0.9427   -0.5913   -1.1349 H   0  0  0  0  0  0  0  0  0  0  0  0
   -0.1657   -1.7955    1.4625 H   0  0  0  0  0  0  0  0  0  0  0  0
    0.8910   -2.6186    0.2303 H   0  0  0  0  0  0  0  0  0  0  0  0
   -0.7726   -2.2712   -1.5064 H   0  0  0  0  0  0  0  0  0  0  0  0
   -1.7945   -2.8207   -0.0633 H   0  0  0  0  0  0  0  0  0  0  0  0
   -2.7909   -0.5771   -0.5731 H   0  0  0  0  0  0  0  0  0  0  0  0
   -2.1439    1.7848    0.0405 H   0  0  0  0  0  0  0  0  0  0  0  0
   -0.5416    2.0787    0.7563 H   0  0  0  0  0  0  0  0  0  0  0  0
   -0.7344    2.1667   -1.0832 H   0  0  0  0  0  0  0  0  0  0  0  0
  1  2  3  0
  2  3  1  0
  3  4  1  0
  4  5  1  0
  5  6  1  0
  6  7  1  0
  7  8  2  0
  8  9  1  0
  8  4  1  0
  1 10  1  0
  3 11  1  0
  3 12  1  0
  4 13  1  0
  5 14  1  0
  5 15  1  0
  6 16  1  0
  6 17  1  0
  7 18  1  0
  9 19  1  0
  9 20  1  0
  9 21  1  0
M  END
