
     RDKit          3D

 15 15  0  0  0  0  0  0  0  0999 V2000
    2.6322    0.0885    0.8634 C   0  0  0  0  0  0  0  0  0  0  0  0
    1.4781   -0.1569    0.7222 C   0  0  0  0  0  0  0  0  0  0  0  0
    0.0714   -0.4654    0.5258 C   0  0  0  0  0  0  0  0  0  0  0  0
   -0.3525   -0.6700   -0.9139 C   0  0  0  0  0  0  0  0  0  0  0  0
   -0.5266   -1.9860   -1.2971 O   0  0  0  0  0  0  0  0  0  0  0  0
   -1.5771    0.0711   -0.5555 C   0  0  0  0  0  0  0  0  0  0  0  0
   -2.7255    0.0617   -0.8874 O   0  0  0  0  0  0  0  0  0  0  0  0
   -0.7445    0.8303    0.3985 C   0  0  0  0  0  0  0  0  0  0  0  0
   -0.0490    1.8310   -0.2934 O   0  0  0  0  0  0  0  0  0  0  0  0
    3.6801    0.3248    0.9785 H   0  0  0  0  0  0  0  0  0  0  0  0
   -0.3852   -1.1359    1.2567 H   0  0  0  0  0  0  0  0  0  0  0  0
    0.2920   -0.0700   -1.5957 H   0  0  0  0  0  0  0  0  0  0  0  0
   -0.1460   -2.5739   -0.5887 H   0  0  0  0  0  0  0  0  0  0  0  0
   -1.2239    1.1551    1.3313 H   0  0  0  0  0  0  0  0  0  0  0  0
   -0.4235    2.6957    0.0554 H   0  0  0  0  0  0  0  0  0  0  0  0
  1  2  3  0
  2  3  1  0
  3  4  1  0
  4  5  1  0
  4  6  1  0
  6  7  2  0
  6  8  1  0
  8  9  1  0
  8  3  1  0
  1 10  1  0
  3 11  1  0
  4 12  1  0
  5 13  1  0
  8 14  1  0
  9 15  1  0
M  END
