
     RDKit          3D

 21 22  0  0  0  0  0  0  0  0999 V2000
    3.8723    1.7468    0.4537 C   0  0  0  0  0  0  0  0  0  0  0  0
    2.8722    1.4403   -0.1544 C   0  0  0  0  0  0  0  0  0  0  0  0
    1.6895    1.0655   -0.8983 C   0  0  0  0  0  0  0  0  0  0  0  0
    1.0415   -0.2103   -0.3332 C   0  0  0  0  0  0  0  0  0  0  0  0
   -0.1297   -0.6479   -1.0094 C   0  0  0  0  0  0  0  0  0  0  0  0
   -1.5705   -0.1886   -0.7872 C   0  0  0  0  0  0  0  0  0  0  0  0
   -1.3478   -1.0549    0.4732 C   0  0  0  0  0  0  0  0  0  0  0  0
   -2.3005   -0.7962    1.5818 C   0  0  0  0  0  0  0  0  0  0  0  0
   -0.1054   -0.1759    0.5084 C   0  0  0  0  0  0  0  0  0  0  0  0
    4.7384    2.0082    0.9998 H   0  0  0  0  0  0  0  0  0  0  0  0
    0.9554    1.8814   -0.9658 H   0  0  0  0  0  0  0  0  0  0  0  0
    1.9520    0.7920   -1.9546 H   0  0  0  0  0  0  0  0  0  0  0  0
    1.8576   -0.9300   -0.0233 H   0  0  0  0  0  0  0  0  0  0  0  0
   -0.1784   -1.7763   -1.1320 H   0  0  0  0  0  0  0  0  0  0  0  0
   -2.2607   -0.6140   -1.5105 H   0  0  0  0  0  0  0  0  0  0  0  0
   -1.6922    0.8630   -0.5263 H   0  0  0  0  0  0  0  0  0  0  0  0
   -1.2030   -2.0896    0.1527 H   0  0  0  0  0  0  0  0  0  0  0  0
   -1.9221    0.0086    2.2418 H   0  0  0  0  0  0  0  0  0  0  0  0
   -3.2902   -0.4634    1.1670 H   0  0  0  0  0  0  0  0  0  0  0  0
   -2.4898   -1.7458    2.1185 H   0  0  0  0  0  0  0  0  0  0  0  0
   -0.4887    0.8868    0.6545 H   0  0  0  0  0  0  0  0  0  0  0  0
  1  2  3  0
  2  3  1  0
  3  4  1  0
  4  5  1  0
  5  6  1  0
  6  7  1  0
  7  8  1  0
  7  9  1  0
  9  4  1  0
  9  5  1  0
  1 10  1  0
  3 11  1  0
  3 12  1  0
  4 13  1  0
  5 14  1  0
  6 15  1  0
  6 16  1  0
  7 17  1  0
  8 18  1  0
  8 19  1  0
  8 20  1  0
  9 21  1  0
M  END
