
     RDKit          3D

 19 20  0  0  0  0  0  0  0  0999 V2000
    2.9288    0.5701   -0.7303 C   0  0  0  0  0  0  0  0  0  0  0  0
    1.7479    0.5016   -0.5594 C   0  0  0  0  0  0  0  0  0  0  0  0
    0.3274    0.3949   -0.3475 C   0  0  0  0  0  0  0  0  0  0  0  0
   -0.6463    0.5404   -1.4759 C   0  0  0  0  0  0  0  0  0  0  0  0
   -1.9035   -0.0451   -0.8827 C   0  0  0  0  0  0  0  0  0  0  0  0
   -1.5461   -0.8688    0.1522 O   0  0  0  0  0  0  0  0  0  0  0  0
   -0.2877   -0.5100    0.5942 C   0  0  0  0  0  0  0  0  0  0  0  0
    0.4499   -1.4773    1.4614 C   0  0  0  0  0  0  0  0  0  0  0  0
   -0.1598    0.9459    0.9729 C   0  0  0  0  0  0  0  0  0  0  0  0
    3.9876    0.6503   -0.8853 H   0  0  0  0  0  0  0  0  0  0  0  0
   -0.3474    0.0374   -2.4049 H   0  0  0  0  0  0  0  0  0  0  0  0
   -0.8316    1.6391   -1.6331 H   0  0  0  0  0  0  0  0  0  0  0  0
   -2.6415    0.7410   -0.5961 H   0  0  0  0  0  0  0  0  0  0  0  0
   -2.3941   -0.6669   -1.6709 H   0  0  0  0  0  0  0  0  0  0  0  0
    0.8510   -0.9636    2.3589 H   0  0  0  0  0  0  0  0  0  0  0  0
   -0.2947   -2.2229    1.8688 H   0  0  0  0  0  0  0  0  0  0  0  0
    1.1941   -2.0778    0.9196 H   0  0  0  0  0  0  0  0  0  0  0  0
   -1.0461    1.5950    0.9657 H   0  0  0  0  0  0  0  0  0  0  0  0
    0.6122    1.2167    1.7380 H   0  0  0  0  0  0  0  0  0  0  0  0
  1  2  3  0
  2  3  1  0
  3  4  1  0
  4  5  1  0
  5  6  1  0
  6  7  1  0
  7  8  1  0
  7  9  1  0
  7  3  1  0
  9  3  1  0
  1 10  1  0
  4 11  1  0
  4 12  1  0
  5 13  1  0
  5 14  1  0
  8 15  1  0
  8 16  1  0
  8 17  1  0
  9 18  1  0
  9 19  1  0
M  END
