
     RDKit          3D

 19 18  0  0  0  0  0  0  0  0999 V2000
    2.2578   -0.2609   -1.4181 C   0  0  0  0  0  0  0  0  0  0  0  0
    1.6833    0.2987   -0.4921 C   0  0  0  0  0  0  0  0  0  0  0  0
    0.9895    0.9406    0.6089 C   0  0  0  0  0  0  0  0  0  0  0  0
   -0.4268    0.5148    0.7269 C   0  0  0  0  0  0  0  0  0  0  0  0
   -1.1745    0.8431   -0.5471 C   0  0  0  0  0  0  0  0  0  0  0  0
   -1.1038    2.2140   -0.7358 O   0  0  0  0  0  0  0  0  0  0  0  0
   -0.6522   -0.8867    1.2124 C   0  0  0  0  0  0  0  0  0  0  0  0
   -0.0883   -1.9297    0.3988 C   0  0  0  0  0  0  0  0  0  0  0  0
    0.3689   -2.8018   -0.2936 C   0  0  0  0  0  0  0  0  0  0  0  0
    2.7415   -0.7579   -2.2199 H   0  0  0  0  0  0  0  0  0  0  0  0
    1.5808    0.7302    1.5254 H   0  0  0  0  0  0  0  0  0  0  0  0
    1.0086    2.0481    0.4145 H   0  0  0  0  0  0  0  0  0  0  0  0
   -0.9164    1.1693    1.5245 H   0  0  0  0  0  0  0  0  0  0  0  0
   -2.2385    0.5117   -0.4385 H   0  0  0  0  0  0  0  0  0  0  0  0
   -0.7669    0.2629   -1.4083 H   0  0  0  0  0  0  0  0  0  0  0  0
   -1.9569    2.6262   -1.0005 H   0  0  0  0  0  0  0  0  0  0  0  0
   -0.3160   -0.9596    2.2693 H   0  0  0  0  0  0  0  0  0  0  0  0
   -1.7779   -1.0016    1.2583 H   0  0  0  0  0  0  0  0  0  0  0  0
    0.7877   -3.5614   -0.8992 H   0  0  0  0  0  0  0  0  0  0  0  0
  1  2  3  0
  2  3  1  0
  3  4  1  0
  4  5  1  0
  5  6  1  0
  4  7  1  0
  7  8  1  0
  8  9  3  0
  1 10  1  0
  3 11  1  0
  3 12  1  0
  4 13  1  0
  5 14  1  0
  5 15  1  0
  6 16  1  0
  7 17  1  0
  7 18  1  0
  9 19  1  0
M  END
