
     RDKit          3D

 14 13  0  0  0  0  0  0  0  0999 V2000
   -0.2377   -2.1564   -3.0710 C   0  0  0  0  0  0  0  0  0  0  0  0
    0.0568   -1.4092   -2.3296 C   0  0  0  0  0  0  0  0  0  0  0  0
    0.4226   -0.4473   -1.4079 C   0  0  0  0  0  0  0  0  0  0  0  0
    1.4739    0.2610   -1.5908 O   0  0  0  0  0  0  0  0  0  0  0  0
   -0.2640   -0.1307   -0.2072 O   0  0  0  0  0  0  0  0  0  0  0  0
    0.2483    0.9145    0.6323 C   0  0  0  0  0  0  0  0  0  0  0  0
   -0.6011    1.0110    1.8702 C   0  0  0  0  0  0  0  0  0  0  0  0
   -0.5621   -0.1878    2.5710 O   0  0  0  0  0  0  0  0  0  0  0  0
   -0.5827   -2.9947   -3.8967 H   0  0  0  0  0  0  0  0  0  0  0  0
    1.3269    0.7216    0.8463 H   0  0  0  0  0  0  0  0  0  0  0  0
    0.2253    1.8507    0.0237 H   0  0  0  0  0  0  0  0  0  0  0  0
   -1.6679    1.2607    1.5804 H   0  0  0  0  0  0  0  0  0  0  0  0
   -0.2014    1.8754    2.4454 H   0  0  0  0  0  0  0  0  0  0  0  0
    0.3632   -0.5690    2.5339 H   0  0  0  0  0  0  0  0  0  0  0  0
  1  2  3  0
  2  3  1  0
  3  4  2  0
  3  5  1  0
  5  6  1  0
  6  7  1  0
  7  8  1  0
  1  9  1  0
  6 10  1  0
  6 11  1  0
  7 12  1  0
  7 13  1  0
  8 14  1  0
M  END
