
     RDKit          3D

 17 18  0  0  0  0  0  0  0  0999 V2000
    2.4609    1.5439    0.3648 C   0  0  0  0  0  0  0  0  0  0  0  0
    1.3180    1.1757    0.5899 C   0  0  0  0  0  0  0  0  0  0  0  0
   -0.0611    0.7447    0.8380 C   0  0  0  0  0  0  0  0  0  0  0  0
   -0.3310   -0.6995    1.1220 C   0  0  0  0  0  0  0  0  0  0  0  0
    0.7209   -1.6185    1.0755 O   0  0  0  0  0  0  0  0  0  0  0  0
   -0.6783   -0.0945   -0.1582 C   0  0  0  0  0  0  0  0  0  0  0  0
   -0.0886   -0.5403   -1.4434 C   0  0  0  0  0  0  0  0  0  0  0  0
   -1.3491    0.1835   -1.9383 C   0  0  0  0  0  0  0  0  0  0  0  0
   -1.9407    0.0230   -0.6624 O   0  0  0  0  0  0  0  0  0  0  0  0
    3.4526    1.8581    0.1519 H   0  0  0  0  0  0  0  0  0  0  0  0
   -0.7194    1.4941    1.3581 H   0  0  0  0  0  0  0  0  0  0  0  0
   -1.1253   -0.9802    1.8382 H   0  0  0  0  0  0  0  0  0  0  0  0
    0.7520   -2.2162    1.8411 H   0  0  0  0  0  0  0  0  0  0  0  0
   -0.2275   -1.6313   -1.6765 H   0  0  0  0  0  0  0  0  0  0  0  0
    0.8414   -0.0978   -1.7875 H   0  0  0  0  0  0  0  0  0  0  0  0
   -1.9048   -0.3706   -2.7218 H   0  0  0  0  0  0  0  0  0  0  0  0
   -1.1199    1.2256   -2.1864 H   0  0  0  0  0  0  0  0  0  0  0  0
  1  2  3  0
  2  3  1  0
  3  4  1  0
  4  5  1  0
  4  6  1  0
  6  7  1  0
  7  8  1  0
  8  9  1  0
  6  3  1  0
  9  6  1  0
  1 10  1  0
  3 11  1  0
  4 12  1  0
  5 13  1  0
  7 14  1  0
  7 15  1  0
  8 16  1  0
  8 17  1  0
M  END
