
     RDKit          3D

 13 14  0  0  0  0  0  0  0  0999 V2000
    2.9395   -0.5765   -0.8609 C   0  0  0  0  0  0  0  0  0  0  0  0
    1.7333   -0.5711   -0.8504 C   0  0  0  0  0  0  0  0  0  0  0  0
    0.2448   -0.5610   -0.8117 C   0  0  0  0  0  0  0  0  0  0  0  0
   -0.5139    0.6369   -0.5771 C   0  0  0  0  0  0  0  0  0  0  0  0
   -1.6712    0.7725    0.4280 C   0  0  0  0  0  0  0  0  0  0  0  0
   -0.6008    0.5215    1.3307 O   0  0  0  0  0  0  0  0  0  0  0  0
   -0.3794   -0.5512    0.4601 C   0  0  0  0  0  0  0  0  0  0  0  0
    4.0000   -0.5668   -0.8810 H   0  0  0  0  0  0  0  0  0  0  0  0
   -0.1450   -1.2205   -1.6449 H   0  0  0  0  0  0  0  0  0  0  0  0
    0.1778    1.5144   -0.3644 H   0  0  0  0  0  0  0  0  0  0  0  0
   -2.4359    0.0037    0.3706 H   0  0  0  0  0  0  0  0  0  0  0  0
   -2.0452    1.8042    0.4937 H   0  0  0  0  0  0  0  0  0  0  0  0
   -1.3042   -1.2062    0.5329 H   0  0  0  0  0  0  0  0  0  0  0  0
  1  2  3  0
  2  3  1  0
  3  4  1  0
  4  5  1  0
  5  6  1  0
  6  7  1  0
  7  3  1  0
  7  4  1  0
  1  8  1  0
  3  9  1  0
  4 10  1  0
  5 11  1  0
  5 12  1  0
  7 13  1  0
M  END
