
     RDKit          3D

 17 17  0  0  0  0  0  0  0  0999 V2000
    4.1870   -1.9037    0.5317 C   0  0  0  0  0  0  0  0  0  0  0  0
    3.3977   -1.5988    0.2114 C   0  0  0  0  0  0  0  0  0  0  0  0
    2.0786   -1.0847   -0.2968 C   0  0  0  0  0  0  0  0  0  0  0  0
    1.1831   -0.7504   -0.6280 C   0  0  0  0  0  0  0  0  0  0  0  0
   -0.2763   -0.1864   -1.1688 C   0  0  0  0  0  0  0  0  0  0  0  0
   -0.0365    1.3225   -0.7212 O   0  0  0  0  0  0  0  0  0  0  0  0
   -1.1419    0.4621   -0.3649 C   0  0  0  0  0  0  0  0  0  0  0  0
   -2.4162    1.0760   -0.9881 C   0  0  0  0  0  0  0  0  0  0  0  0
   -1.0892    0.3198    1.1510 C   0  0  0  0  0  0  0  0  0  0  0  0
    5.1954   -2.3009    0.9506 H   0  0  0  0  0  0  0  0  0  0  0  0
   -0.0262    0.0342   -2.2908 H   0  0  0  0  0  0  0  0  0  0  0  0
   -3.3162    0.4658   -0.8157 H   0  0  0  0  0  0  0  0  0  0  0  0
   -2.2427    1.1118   -2.1035 H   0  0  0  0  0  0  0  0  0  0  0  0
   -2.5230    2.1263   -0.7124 H   0  0  0  0  0  0  0  0  0  0  0  0
   -0.0110    0.0239    1.3946 H   0  0  0  0  0  0  0  0  0  0  0  0
   -1.2304    1.3165    1.6456 H   0  0  0  0  0  0  0  0  0  0  0  0
   -1.7321   -0.4339    1.5600 H   0  0  0  0  0  0  0  0  0  0  0  0
  1  2  3  0
  2  3  1  0
  3  4  3  0
  4  5  1  0
  5  6  1  0
  6  7  1  0
  7  8  1  0
  7  9  1  0
  7  5  1  0
  1 10  1  0
  5 11  1  0
  8 12  1  0
  8 13  1  0
  8 14  1  0
  9 15  1  0
  9 16  1  0
  9 17  1  0
M  END
