
     RDKit          3D

 11 11  0  0  0  0  0  0  0  0999 V2000
    1.9888    1.5352   -0.8817 C   0  0  0  0  0  0  0  0  0  0  0  0
    0.9484    1.0866   -0.4778 C   0  0  0  0  0  0  0  0  0  0  0  0
   -0.3161    0.5187    0.0006 C   0  0  0  0  0  0  0  0  0  0  0  0
   -0.1483   -0.9281    0.4757 C   0  0  0  0  0  0  0  0  0  0  0  0
   -1.4907   -1.0289   -0.1250 C   0  0  0  0  0  0  0  0  0  0  0  0
   -2.5219   -1.6907    0.0657 O   0  0  0  0  0  0  0  0  0  0  0  0
   -1.1194   -0.0491   -1.0213 O   0  0  0  0  0  0  0  0  0  0  0  0
    2.9249    1.9427   -1.2261 H   0  0  0  0  0  0  0  0  0  0  0  0
   -0.8507    1.1168    0.7500 H   0  0  0  0  0  0  0  0  0  0  0  0
   -0.0748   -1.0449    1.5564 H   0  0  0  0  0  0  0  0  0  0  0  0
    0.6599   -1.4583   -0.0705 H   0  0  0  0  0  0  0  0  0  0  0  0
  1  2  3  0
  2  3  1  0
  3  4  1  0
  4  5  1  0
  5  6  2  0
  5  7  1  0
  7  3  1  0
  1  8  1  0
  3  9  1  0
  4 10  1  0
  4 11  1  0
M  END
