
     RDKit          3D

 17 17  0  0  0  0  0  0  0  0999 V2000
    2.7648   -1.5855    0.0405 C   0  0  0  0  0  0  0  0  0  0  0  0
    2.0472   -0.6507   -0.2451 C   0  0  0  0  0  0  0  0  0  0  0  0
    1.1559    0.5506   -0.6175 C   0  0  0  0  0  0  0  0  0  0  0  0
   -0.0138    0.2945    0.3675 C   0  0  0  0  0  0  0  0  0  0  0  0
   -0.6331   -1.0467   -0.0117 C   0  0  0  0  0  0  0  0  0  0  0  0
   -2.0365   -0.8456    0.2373 O   0  0  0  0  0  0  0  0  0  0  0  0
   -2.3113    0.5240    0.0611 C   0  0  0  0  0  0  0  0  0  0  0  0
   -3.3975    1.0852   -0.2669 O   0  0  0  0  0  0  0  0  0  0  0  0
   -1.0689    1.3019    0.3239 C   0  0  0  0  0  0  0  0  0  0  0  0
    3.4213   -2.4157    0.3087 H   0  0  0  0  0  0  0  0  0  0  0  0
    1.6325    1.4838   -0.4218 H   0  0  0  0  0  0  0  0  0  0  0  0
    0.7586    0.3931   -1.6324 H   0  0  0  0  0  0  0  0  0  0  0  0
    0.4655    0.1894    1.3941 H   0  0  0  0  0  0  0  0  0  0  0  0
   -0.4791   -1.3039   -1.0725 H   0  0  0  0  0  0  0  0  0  0  0  0
   -0.2064   -1.8781    0.6101 H   0  0  0  0  0  0  0  0  0  0  0  0
   -1.1437    1.7905    1.3434 H   0  0  0  0  0  0  0  0  0  0  0  0
   -0.9553    2.1130   -0.4188 H   0  0  0  0  0  0  0  0  0  0  0  0
  1  2  3  0
  2  3  1  0
  3  4  1  0
  4  5  1  0
  5  6  1  0
  6  7  1  0
  7  8  2  0
  7  9  1  0
  9  4  1  0
  1 10  1  0
  3 11  1  0
  3 12  1  0
  4 13  1  0
  5 14  1  0
  5 15  1  0
  9 16  1  0
  9 17  1  0
M  END
