
     RDKit          3D

 17 16  0  0  0  0  0  0  0  0999 V2000
    4.0493   -0.7302   -1.8290 C   0  0  0  0  0  0  0  0  0  0  0  0
    2.8882   -0.2205   -1.9978 C   0  0  0  0  0  0  0  0  0  0  0  0
    1.6393    0.3525   -2.1714 C   0  0  0  0  0  0  0  0  0  0  0  0
    1.2495    0.8846   -3.2310 O   0  0  0  0  0  0  0  0  0  0  0  0
    0.6731    0.3663   -1.0670 C   0  0  0  0  0  0  0  0  0  0  0  0
   -0.1261    0.3979   -0.1630 C   0  0  0  0  0  0  0  0  0  0  0  0
   -1.1075    0.4471    0.9842 C   0  0  0  0  0  0  0  0  0  0  0  0
   -2.4600    0.1912    0.3913 C   0  0  0  0  0  0  0  0  0  0  0  0
   -0.6473   -0.6058    1.9557 C   0  0  0  0  0  0  0  0  0  0  0  0
    5.0129   -1.1433   -1.6732 H   0  0  0  0  0  0  0  0  0  0  0  0
   -1.0274    1.4474    1.4585 H   0  0  0  0  0  0  0  0  0  0  0  0
   -2.4889    0.3750   -0.7025 H   0  0  0  0  0  0  0  0  0  0  0  0
   -2.7833   -0.8544    0.6394 H   0  0  0  0  0  0  0  0  0  0  0  0
   -3.1737    0.9046    0.8715 H   0  0  0  0  0  0  0  0  0  0  0  0
    0.3284   -0.3550    2.4174 H   0  0  0  0  0  0  0  0  0  0  0  0
   -0.5801   -1.5787    1.3850 H   0  0  0  0  0  0  0  0  0  0  0  0
   -1.4463   -0.7422    2.7318 H   0  0  0  0  0  0  0  0  0  0  0  0
  1  2  3  0
  2  3  1  0
  3  4  2  0
  3  5  1  0
  5  6  3  0
  6  7  1  0
  7  8  1  0
  7  9  1  0
  1 10  1  0
  7 11  1  0
  8 12  1  0
  8 13  1  0
  8 14  1  0
  9 15  1  0
  9 16  1  0
  9 17  1  0
M  END
