
     RDKit          3D

 17 17  0  0  0  0  0  0  0  0999 V2000
   -0.6763    2.6917    0.7201 C   0  0  0  0  0  0  0  0  0  0  0  0
   -0.4822    1.5398    0.4124 C   0  0  0  0  0  0  0  0  0  0  0  0
   -0.2413    0.1356    0.0108 C   0  0  0  0  0  0  0  0  0  0  0  0
   -1.1744   -0.1952   -0.9669 O   0  0  0  0  0  0  0  0  0  0  0  0
   -0.4325   -0.7407    1.2044 C   0  0  0  0  0  0  0  0  0  0  0  0
   -0.2838   -2.0830    0.9384 O   0  0  0  0  0  0  0  0  0  0  0  0
    1.1290    0.0672   -0.5769 C   0  0  0  0  0  0  0  0  0  0  0  0
    1.2428   -0.4316   -1.9885 C   0  0  0  0  0  0  0  0  0  0  0  0
    1.3614    0.9564   -1.6940 O   0  0  0  0  0  0  0  0  0  0  0  0
   -0.8434    3.7081    0.9900 H   0  0  0  0  0  0  0  0  0  0  0  0
   -1.9843   -0.5226   -0.5069 H   0  0  0  0  0  0  0  0  0  0  0  0
    0.3471   -0.4866    1.9817 H   0  0  0  0  0  0  0  0  0  0  0  0
   -1.4000   -0.5323    1.7046 H   0  0  0  0  0  0  0  0  0  0  0  0
   -1.1246   -2.4859    0.6123 H   0  0  0  0  0  0  0  0  0  0  0  0
    2.0141   -0.1300    0.0531 H   0  0  0  0  0  0  0  0  0  0  0  0
    2.2151   -0.8343   -2.3612 H   0  0  0  0  0  0  0  0  0  0  0  0
    0.3331   -0.6565   -2.5608 H   0  0  0  0  0  0  0  0  0  0  0  0
  1  2  3  0
  2  3  1  0
  3  4  1  0
  3  5  1  0
  5  6  1  0
  3  7  1  0
  7  8  1  0
  8  9  1  0
  9  7  1  0
  1 10  1  0
  4 11  1  0
  5 12  1  0
  5 13  1  0
  6 14  1  0
  7 15  1  0
  8 16  1  0
  8 17  1  0
M  END
