
     RDKit          3D

 19 20  0  0  0  0  0  0  0  0999 V2000
   -2.0405    1.2399   -1.5377 C   0  0  0  0  0  0  0  0  0  0  0  0
   -1.2589    0.7746   -0.6579 C   0  0  0  0  0  0  0  0  0  0  0  0
   -0.3675    0.2197    0.3376 C   0  0  0  0  0  0  0  0  0  0  0  0
   -0.2384    1.0881    1.5609 C   0  0  0  0  0  0  0  0  0  0  0  0
   -0.7050   -1.2151    0.7189 C   0  0  0  0  0  0  0  0  0  0  0  0
    0.3122   -1.6608   -0.3139 C   0  0  0  0  0  0  0  0  0  0  0  0
    0.8866   -0.2842   -0.2741 C   0  0  0  0  0  0  0  0  0  0  0  0
    1.7807    0.3110   -1.1509 C   0  0  0  0  0  0  0  0  0  0  0  0
    2.1325   -0.0254    0.2487 O   0  0  0  0  0  0  0  0  0  0  0  0
   -2.6671    1.6319   -2.2420 H   0  0  0  0  0  0  0  0  0  0  0  0
   -0.2384    2.1454    1.2123 H   0  0  0  0  0  0  0  0  0  0  0  0
   -1.1159    0.9594    2.2162 H   0  0  0  0  0  0  0  0  0  0  0  0
    0.7288    0.9672    2.0956 H   0  0  0  0  0  0  0  0  0  0  0  0
   -1.7443   -1.4497    0.4845 H   0  0  0  0  0  0  0  0  0  0  0  0
   -0.3588   -1.4337    1.7290 H   0  0  0  0  0  0  0  0  0  0  0  0
   -0.1869   -1.8674   -1.2755 H   0  0  0  0  0  0  0  0  0  0  0  0
    0.9292   -2.4859    0.0625 H   0  0  0  0  0  0  0  0  0  0  0  0
    1.8012    1.4051   -1.3251 H   0  0  0  0  0  0  0  0  0  0  0  0
    2.3504   -0.3201   -1.8891 H   0  0  0  0  0  0  0  0  0  0  0  0
  1  2  3  0
  2  3  1  0
  3  4  1  0
  3  5  1  0
  5  6  1  0
  6  7  1  0
  7  8  1  0
  8  9  1  0
  7  3  1  0
  9  7  1  0
  1 10  1  0
  4 11  1  0
  4 12  1  0
  4 13  1  0
  5 14  1  0
  5 15  1  0
  6 16  1  0
  6 17  1  0
  8 18  1  0
  8 19  1  0
M  END
