
     RDKit          3D

 19 20  0  0  0  0  0  0  0  0999 V2000
    2.3440    1.6800    0.9578 C   0  0  0  0  0  0  0  0  0  0  0  0
    2.0321    0.5169    0.7419 C   0  0  0  0  0  0  0  0  0  0  0  0
    1.6763   -0.8608    0.5081 C   0  0  0  0  0  0  0  0  0  0  0  0
    0.5675   -1.0188   -0.4676 C   0  0  0  0  0  0  0  0  0  0  0  0
   -0.7262   -0.4086   -0.1493 C   0  0  0  0  0  0  0  0  0  0  0  0
   -1.4430   -0.8762    1.1409 C   0  0  0  0  0  0  0  0  0  0  0  0
   -1.0682    0.5190    0.9036 C   0  0  0  0  0  0  0  0  0  0  0  0
   -1.8350    1.2526   -0.1743 C   0  0  0  0  0  0  0  0  0  0  0  0
   -1.5128    0.2416   -1.0751 O   0  0  0  0  0  0  0  0  0  0  0  0
    2.6131    2.6818    1.1606 H   0  0  0  0  0  0  0  0  0  0  0  0
    2.5445   -1.4649    0.1086 H   0  0  0  0  0  0  0  0  0  0  0  0
    1.4106   -1.3883    1.4654 H   0  0  0  0  0  0  0  0  0  0  0  0
    0.4051   -2.1308   -0.5956 H   0  0  0  0  0  0  0  0  0  0  0  0
    0.8846   -0.6886   -1.4948 H   0  0  0  0  0  0  0  0  0  0  0  0
   -0.7901   -1.4602    1.8106 H   0  0  0  0  0  0  0  0  0  0  0  0
   -2.4521   -1.2845    0.8848 H   0  0  0  0  0  0  0  0  0  0  0  0
   -0.4055    1.0566    1.5724 H   0  0  0  0  0  0  0  0  0  0  0  0
   -1.3543    2.2048   -0.5081 H   0  0  0  0  0  0  0  0  0  0  0  0
   -2.8904    1.4282    0.0177 H   0  0  0  0  0  0  0  0  0  0  0  0
  1  2  3  0
  2  3  1  0
  3  4  1  0
  4  5  1  0
  5  6  1  0
  6  7  1  0
  7  8  1  0
  8  9  1  0
  7  5  1  0
  9  5  1  0
  1 10  1  0
  3 11  1  0
  3 12  1  0
  4 13  1  0
  4 14  1  0
  6 15  1  0
  6 16  1  0
  7 17  1  0
  8 18  1  0
  8 19  1  0
M  END
