
     RDKit          3D

 13 14  0  0  0  0  0  0  0  0999 V2000
    2.5292    1.3124    0.1553 C   0  0  0  0  0  0  0  0  0  0  0  0
    1.6954    0.4256    0.0598 C   0  0  0  0  0  0  0  0  0  0  0  0
    0.6973   -0.6434   -0.0298 C   0  0  0  0  0  0  0  0  0  0  0  0
    0.6677   -1.4324   -1.1689 O   0  0  0  0  0  0  0  0  0  0  0  0
   -0.3398   -0.4992   -1.1518 C   0  0  0  0  0  0  0  0  0  0  0  0
   -1.4020   -0.5220   -0.0996 C   0  0  0  0  0  0  0  0  0  0  0  0
   -2.0158    0.7338    0.0074 O   0  0  0  0  0  0  0  0  0  0  0  0
   -0.3829   -0.7182    0.9626 C   0  0  0  0  0  0  0  0  0  0  0  0
   -0.4992   -0.8726    2.1665 O   0  0  0  0  0  0  0  0  0  0  0  0
    3.2532    2.0838    0.2197 H   0  0  0  0  0  0  0  0  0  0  0  0
   -0.2511    0.4026   -1.7886 H   0  0  0  0  0  0  0  0  0  0  0  0
   -2.1136   -1.3654   -0.2403 H   0  0  0  0  0  0  0  0  0  0  0  0
   -1.8384    1.0949    0.9078 H   0  0  0  0  0  0  0  0  0  0  0  0
  1  2  3  0
  2  3  1  0
  3  4  1  0
  4  5  1  0
  5  6  1  0
  6  7  1  0
  6  8  1  0
  8  9  2  0
  5  3  1  0
  8  3  1  0
  1 10  1  0
  5 11  1  0
  6 12  1  0
  7 13  1  0
M  END
