
     RDKit          3D

 17 17  0  0  0  0  0  0  0  0999 V2000
    0.7659    2.4183    0.5598 C   0  0  0  0  0  0  0  0  0  0  0  0
    0.4546    1.3012    0.2753 C   0  0  0  0  0  0  0  0  0  0  0  0
    0.0999   -0.0610   -0.0783 C   0  0  0  0  0  0  0  0  0  0  0  0
    1.2368   -0.8839   -0.6582 C   0  0  0  0  0  0  0  0  0  0  0  0
    2.3059   -0.9311    0.3845 C   0  0  0  0  0  0  0  0  0  0  0  0
    3.3620   -1.5356    0.1956 O   0  0  0  0  0  0  0  0  0  0  0  0
   -0.4866   -0.8407    1.0461 O   0  0  0  0  0  0  0  0  0  0  0  0
   -1.2236   -0.5190   -0.2093 C   0  0  0  0  0  0  0  0  0  0  0  0
   -2.4461    0.2915    0.0728 C   0  0  0  0  0  0  0  0  0  0  0  0
    1.0533    3.4242    0.7986 H   0  0  0  0  0  0  0  0  0  0  0  0
    1.6365   -0.4103   -1.5648 H   0  0  0  0  0  0  0  0  0  0  0  0
    0.8977   -1.9165   -0.9067 H   0  0  0  0  0  0  0  0  0  0  0  0
    2.2177   -0.4458    1.3505 H   0  0  0  0  0  0  0  0  0  0  0  0
   -1.4343   -1.4492   -0.8007 H   0  0  0  0  0  0  0  0  0  0  0  0
   -2.2962    1.3815   -0.0443 H   0  0  0  0  0  0  0  0  0  0  0  0
   -3.3058    0.0284   -0.6020 H   0  0  0  0  0  0  0  0  0  0  0  0
   -2.8376    0.1481    1.1089 H   0  0  0  0  0  0  0  0  0  0  0  0
  1  2  3  0
  2  3  1  0
  3  4  1  0
  4  5  1  0
  5  6  2  0
  3  7  1  0
  7  8  1  0
  8  9  1  0
  8  3  1  0
  1 10  1  0
  4 11  1  0
  4 12  1  0
  5 13  1  0
  8 14  1  0
  9 15  1  0
  9 16  1  0
  9 17  1  0
M  END
