
     RDKit          3D

 19 20  0  0  0  0  0  0  0  0999 V2000
    3.5729   -1.5498    1.1690 C   0  0  0  0  0  0  0  0  0  0  0  0
    2.3869   -1.5075    0.9518 C   0  0  0  0  0  0  0  0  0  0  0  0
    0.9507   -1.4368    0.6719 C   0  0  0  0  0  0  0  0  0  0  0  0
    0.5958    0.0139    0.3688 C   0  0  0  0  0  0  0  0  0  0  0  0
   -0.8527    0.1955    0.0684 C   0  0  0  0  0  0  0  0  0  0  0  0
   -1.1759    1.6277   -0.2257 C   0  0  0  0  0  0  0  0  0  0  0  0
   -2.3146    1.1444   -1.0606 C   0  0  0  0  0  0  0  0  0  0  0  0
   -1.1144    0.3118   -1.3931 C   0  0  0  0  0  0  0  0  0  0  0  0
   -0.3865    1.4927   -1.3554 O   0  0  0  0  0  0  0  0  0  0  0  0
    4.6215   -1.5990    1.3758 H   0  0  0  0  0  0  0  0  0  0  0  0
    0.7226   -2.0864   -0.1851 H   0  0  0  0  0  0  0  0  0  0  0  0
    0.3920   -1.7076    1.5809 H   0  0  0  0  0  0  0  0  0  0  0  0
    0.9326    0.6021    1.2699 H   0  0  0  0  0  0  0  0  0  0  0  0
    1.1916    0.3733   -0.4897 H   0  0  0  0  0  0  0  0  0  0  0  0
   -1.5773   -0.3689    0.6664 H   0  0  0  0  0  0  0  0  0  0  0  0
   -1.1749    2.3962    0.4265 H   0  0  0  0  0  0  0  0  0  0  0  0
   -2.5735    1.8680   -1.8661 H   0  0  0  0  0  0  0  0  0  0  0  0
   -3.1433    0.6406   -0.5620 H   0  0  0  0  0  0  0  0  0  0  0  0
   -1.0533   -0.4102   -2.0928 H   0  0  0  0  0  0  0  0  0  0  0  0
  1  2  3  0
  2  3  1  0
  3  4  1  0
  4  5  1  0
  5  6  1  0
  6  7  1  0
  7  8  1  0
  8  9  1  0
  8  5  1  0
  9  6  1  0
  1 10  1  0
  3 11  1  0
  3 12  1  0
  4 13  1  0
  4 14  1  0
  5 15  1  0
  6 16  1  0
  7 17  1  0
  7 18  1  0
  8 19  1  0
M  END
