
     RDKit          3D

 19 20  0  0  0  0  0  0  0  0999 V2000
   -2.0875    1.2330    1.9608 C   0  0  0  0  0  0  0  0  0  0  0  0
   -1.3413    0.3595    1.5612 C   0  0  0  0  0  0  0  0  0  0  0  0
   -0.4389   -0.6808    1.0675 C   0  0  0  0  0  0  0  0  0  0  0  0
    0.6004   -1.0056    1.9744 O   0  0  0  0  0  0  0  0  0  0  0  0
    1.5609   -1.0294    0.9341 C   0  0  0  0  0  0  0  0  0  0  0  0
    0.6143   -0.2472    0.1316 C   0  0  0  0  0  0  0  0  0  0  0  0
    0.8048    1.0821   -0.3975 C   0  0  0  0  0  0  0  0  0  0  0  0
    0.5326   -0.1370   -1.2973 C   0  0  0  0  0  0  0  0  0  0  0  0
   -0.7284   -0.0709   -2.0834 C   0  0  0  0  0  0  0  0  0  0  0  0
   -2.7364    1.9916    2.3152 H   0  0  0  0  0  0  0  0  0  0  0  0
   -0.9846   -1.6183    0.8415 H   0  0  0  0  0  0  0  0  0  0  0  0
    2.5099   -0.5172    1.1991 H   0  0  0  0  0  0  0  0  0  0  0  0
    1.7242   -2.0880    0.6522 H   0  0  0  0  0  0  0  0  0  0  0  0
    1.8186    1.5249   -0.4285 H   0  0  0  0  0  0  0  0  0  0  0  0
   -0.0312    1.8102   -0.2793 H   0  0  0  0  0  0  0  0  0  0  0  0
    1.4171   -0.4953   -1.8960 H   0  0  0  0  0  0  0  0  0  0  0  0
   -1.5206   -0.7111   -1.6343 H   0  0  0  0  0  0  0  0  0  0  0  0
   -0.5921   -0.3633   -3.1553 H   0  0  0  0  0  0  0  0  0  0  0  0
   -1.1217    0.9631   -2.0898 H   0  0  0  0  0  0  0  0  0  0  0  0
  1  2  3  0
  2  3  1  0
  3  4  1  0
  4  5  1  0
  5  6  1  0
  6  7  1  0
  7  8  1  0
  8  9  1  0
  6  3  1  0
  8  6  1  0
  1 10  1  0
  3 11  1  0
  5 12  1  0
  5 13  1  0
  7 14  1  0
  7 15  1  0
  8 16  1  0
  9 17  1  0
  9 18  1  0
  9 19  1  0
M  END
