
     RDKit          3D

 19 19  0  0  0  0  0  0  0  0999 V2000
    1.9857   -0.4570   -2.4945 C   0  0  0  0  0  0  0  0  0  0  0  0
    1.0572   -0.2260   -1.5125 C   0  0  0  0  0  0  0  0  0  0  0  0
    0.1781   -0.0302   -0.5790 C   0  0  0  0  0  0  0  0  0  0  0  0
   -0.4413    1.1554   -0.4369 O   0  0  0  0  0  0  0  0  0  0  0  0
    0.3892    2.2438   -0.0332 C   0  0  0  0  0  0  0  0  0  0  0  0
   -0.8983   -1.1309   -0.4742 C   0  0  0  0  0  0  0  0  0  0  0  0
   -1.3628   -0.9101    0.9552 C   0  0  0  0  0  0  0  0  0  0  0  0
   -0.0776   -0.6497    1.6423 C   0  0  0  0  0  0  0  0  0  0  0  0
    0.8604   -0.3524    0.7082 O   0  0  0  0  0  0  0  0  0  0  0  0
    2.7763   -0.6351   -3.3207 H   0  0  0  0  0  0  0  0  0  0  0  0
   -0.1756    3.1746   -0.1926 H   0  0  0  0  0  0  0  0  0  0  0  0
    0.3962    2.1116    1.1472 H   0  0  0  0  0  0  0  0  0  0  0  0
    1.3771    2.1604   -0.4401 H   0  0  0  0  0  0  0  0  0  0  0  0
   -0.3764   -2.0795   -0.6472 H   0  0  0  0  0  0  0  0  0  0  0  0
   -1.7025   -0.8696   -1.1496 H   0  0  0  0  0  0  0  0  0  0  0  0
   -2.1007   -0.1150    0.9569 H   0  0  0  0  0  0  0  0  0  0  0  0
   -1.8607   -1.9031    1.2478 H   0  0  0  0  0  0  0  0  0  0  0  0
    0.2250   -1.6251    2.1844 H   0  0  0  0  0  0  0  0  0  0  0  0
   -0.2495    0.1376    2.4385 H   0  0  0  0  0  0  0  0  0  0  0  0
  1  2  3  0
  2  3  1  0
  3  4  1  0
  4  5  1  0
  3  6  1  0
  6  7  1  0
  7  8  1  0
  8  9  1  0
  9  3  1  0
  1 10  1  0
  5 11  1  0
  5 12  1  0
  5 13  1  0
  6 14  1  0
  6 15  1  0
  7 16  1  0
  7 17  1  0
  8 18  1  0
  8 19  1  0
M  END
