
     RDKit          3D

 19 20  0  0  0  0  0  0  0  0999 V2000
    2.1298    1.5994    1.2830 C   0  0  0  0  0  0  0  0  0  0  0  0
    1.4379    0.8785    0.6170 C   0  0  0  0  0  0  0  0  0  0  0  0
    0.6271    0.0576   -0.1480 C   0  0  0  0  0  0  0  0  0  0  0  0
    1.0066   -0.3492   -1.5365 C   0  0  0  0  0  0  0  0  0  0  0  0
   -0.0801   -1.2240   -1.8176 O   0  0  0  0  0  0  0  0  0  0  0  0
   -0.8605   -1.1453   -0.6888 C   0  0  0  0  0  0  0  0  0  0  0  0
    0.1863   -1.3005    0.4184 C   0  0  0  0  0  0  0  0  0  0  0  0
   -0.8361    0.3455   -0.3262 C   0  0  0  0  0  0  0  0  0  0  0  0
   -1.6171    0.7350    0.8569 C   0  0  0  0  0  0  0  0  0  0  0  0
    2.7615    2.2529    1.8665 H   0  0  0  0  0  0  0  0  0  0  0  0
    0.9690    0.4955   -2.2479 H   0  0  0  0  0  0  0  0  0  0  0  0
    1.9220   -0.9543   -1.6009 H   0  0  0  0  0  0  0  0  0  0  0  0
   -1.7691   -1.6669   -0.5985 H   0  0  0  0  0  0  0  0  0  0  0  0
   -0.2134   -1.2612    1.4367 H   0  0  0  0  0  0  0  0  0  0  0  0
    0.9650   -2.0376    0.2167 H   0  0  0  0  0  0  0  0  0  0  0  0
   -1.0920    0.9200   -1.2298 H   0  0  0  0  0  0  0  0  0  0  0  0
   -1.8214    1.8355    0.7853 H   0  0  0  0  0  0  0  0  0  0  0  0
   -1.1277    0.5857    1.8349 H   0  0  0  0  0  0  0  0  0  0  0  0
   -2.5878    0.2333    0.8788 H   0  0  0  0  0  0  0  0  0  0  0  0
  1  2  3  0
  2  3  1  0
  3  4  1  0
  4  5  1  0
  5  6  1  0
  6  7  1  0
  6  8  1  0
  8  9  1  0
  7  3  1  0
  8  3  1  0
  1 10  1  0
  4 11  1  0
  4 12  1  0
  6 13  1  0
  7 14  1  0
  7 15  1  0
  8 16  1  0
  9 17  1  0
  9 18  1  0
  9 19  1  0
M  END
