
     RDKit          3D

 16 16  0  0  0  0  0  0  0  0999 V2000
   -2.7262    0.4197   -1.1704 C   0  0  0  0  0  0  0  0  0  0  0  0
   -1.9842   -0.1930   -0.4179 C   0  0  0  0  0  0  0  0  0  0  0  0
   -1.1074   -0.9415    0.4838 C   0  0  0  0  0  0  0  0  0  0  0  0
    0.0640   -1.7141   -0.1546 C   0  0  0  0  0  0  0  0  0  0  0  0
    0.2769   -0.4875    0.7051 C   0  0  0  0  0  0  0  0  0  0  0  0
    0.8124    0.6738   -0.0417 C   0  0  0  0  0  0  0  0  0  0  0  0
    1.8268    1.5312    0.6030 C   0  0  0  0  0  0  0  0  0  0  0  0
    0.4276    0.9179   -1.1597 O   0  0  0  0  0  0  0  0  0  0  0  0
   -3.3809    0.9366   -1.8257 H   0  0  0  0  0  0  0  0  0  0  0  0
   -1.6271   -1.4872    1.2895 H   0  0  0  0  0  0  0  0  0  0  0  0
    0.1772   -1.6294   -1.2406 H   0  0  0  0  0  0  0  0  0  0  0  0
    0.3376   -2.6727    0.3231 H   0  0  0  0  0  0  0  0  0  0  0  0
    0.6753   -0.6569    1.7339 H   0  0  0  0  0  0  0  0  0  0  0  0
    1.2846    2.1121    1.4056 H   0  0  0  0  0  0  0  0  0  0  0  0
    2.6497    0.9367    1.0781 H   0  0  0  0  0  0  0  0  0  0  0  0
    2.2936    2.2544   -0.0930 H   0  0  0  0  0  0  0  0  0  0  0  0
  1  2  3  0
  2  3  1  0
  3  4  1  0
  4  5  1  0
  5  6  1  0
  6  7  1  0
  6  8  2  0
  5  3  1  0
  1  9  1  0
  3 10  1  0
  4 11  1  0
  4 12  1  0
  5 13  1  0
  7 14  1  0
  7 15  1  0
  7 16  1  0
M  END
