
     RDKit          3D

 21 21  0  0  0  0  0  0  0  0999 V2000
    3.1593    2.5876   -0.1355 C   0  0  0  0  0  0  0  0  0  0  0  0
    2.1704    1.8867   -0.1168 C   0  0  0  0  0  0  0  0  0  0  0  0
    0.9907    1.0712   -0.0760 C   0  0  0  0  0  0  0  0  0  0  0  0
    1.3314   -0.4077    0.1653 C   0  0  0  0  0  0  0  0  0  0  0  0
    0.0008   -1.0049    0.6145 C   0  0  0  0  0  0  0  0  0  0  0  0
   -1.1674   -0.3827   -0.0410 C   0  0  0  0  0  0  0  0  0  0  0  0
   -2.2013   -1.4602   -0.3309 C   0  0  0  0  0  0  0  0  0  0  0  0
   -0.8896    0.4367   -1.2560 C   0  0  0  0  0  0  0  0  0  0  0  0
    0.3169    1.0700   -1.2860 O   0  0  0  0  0  0  0  0  0  0  0  0
    4.0273    3.2118   -0.1570 H   0  0  0  0  0  0  0  0  0  0  0  0
    0.2442    1.4077    0.6975 H   0  0  0  0  0  0  0  0  0  0  0  0
    1.5624   -0.8943   -0.8087 H   0  0  0  0  0  0  0  0  0  0  0  0
    2.1066   -0.5340    0.9123 H   0  0  0  0  0  0  0  0  0  0  0  0
   -0.0148   -0.8552    1.7260 H   0  0  0  0  0  0  0  0  0  0  0  0
    0.0148   -2.1232    0.4805 H   0  0  0  0  0  0  0  0  0  0  0  0
   -1.6589    0.3052    0.7095 H   0  0  0  0  0  0  0  0  0  0  0  0
   -3.0320   -1.4555    0.3980 H   0  0  0  0  0  0  0  0  0  0  0  0
   -1.7132   -2.4526   -0.2996 H   0  0  0  0  0  0  0  0  0  0  0  0
   -2.6275   -1.3545   -1.3611 H   0  0  0  0  0  0  0  0  0  0  0  0
   -0.9352   -0.2451   -2.1503 H   0  0  0  0  0  0  0  0  0  0  0  0
   -1.6849    1.1928   -1.4257 H   0  0  0  0  0  0  0  0  0  0  0  0
  1  2  3  0
  2  3  1  0
  3  4  1  0
  4  5  1  0
  5  6  1  0
  6  7  1  0
  6  8  1  0
  8  9  1  0
  9  3  1  0
  1 10  1  0
  3 11  1  0
  4 12  1  0
  4 13  1  0
  5 14  1  0
  5 15  1  0
  6 16  1  0
  7 17  1  0
  7 18  1  0
  7 19  1  0
  8 20  1  0
  8 21  1  0
M  END
