
     RDKit          3D

 23 23  0  0  0  0  0  0  0  0999 V2000
    3.6982    0.1744    0.3714 C   0  0  0  0  0  0  0  0  0  0  0  0
    2.4767    0.1631    0.3391 C   0  0  0  0  0  0  0  0  0  0  0  0
    1.0106    0.1347    0.3181 C   0  0  0  0  0  0  0  0  0  0  0  0
    0.6002   -1.2172   -0.2012 C   0  0  0  0  0  0  0  0  0  0  0  0
   -0.7340   -1.6724    0.2967 C   0  0  0  0  0  0  0  0  0  0  0  0
   -1.7893   -0.7812   -0.3661 C   0  0  0  0  0  0  0  0  0  0  0  0
   -1.7101    0.5555    0.3512 C   0  0  0  0  0  0  0  0  0  0  0  0
   -0.9248    1.5400   -0.4525 C   0  0  0  0  0  0  0  0  0  0  0  0
    0.5305    1.2615   -0.5399 C   0  0  0  0  0  0  0  0  0  0  0  0
    4.7600    0.1802    0.3866 H   0  0  0  0  0  0  0  0  0  0  0  0
    0.6735    0.2421    1.3552 H   0  0  0  0  0  0  0  0  0  0  0  0
    0.6617   -1.2494   -1.3011 H   0  0  0  0  0  0  0  0  0  0  0  0
    1.3583   -1.9541    0.1685 H   0  0  0  0  0  0  0  0  0  0  0  0
   -0.7774   -1.5364    1.3970 H   0  0  0  0  0  0  0  0  0  0  0  0
   -0.8774   -2.7219    0.0521 H   0  0  0  0  0  0  0  0  0  0  0  0
   -2.7901   -1.2354   -0.3147 H   0  0  0  0  0  0  0  0  0  0  0  0
   -1.4787   -0.6166   -1.4177 H   0  0  0  0  0  0  0  0  0  0  0  0
   -2.7577    0.9364    0.4134 H   0  0  0  0  0  0  0  0  0  0  0  0
   -1.3609    0.4350    1.3819 H   0  0  0  0  0  0  0  0  0  0  0  0
   -1.3488    1.5227   -1.4948 H   0  0  0  0  0  0  0  0  0  0  0  0
   -1.1637    2.5696   -0.0721 H   0  0  0  0  0  0  0  0  0  0  0  0
    0.8666    1.0808   -1.5974 H   0  0  0  0  0  0  0  0  0  0  0  0
    1.0764    2.1886   -0.2211 H   0  0  0  0  0  0  0  0  0  0  0  0
  1  2  3  0
  2  3  1  0
  3  4  1  0
  4  5  1  0
  5  6  1  0
  6  7  1  0
  7  8  1  0
  8  9  1  0
  9  3  1  0
  1 10  1  0
  3 11  1  0
  4 12  1  0
  4 13  1  0
  5 14  1  0
  5 15  1  0
  6 16  1  0
  6 17  1  0
  7 18  1  0
  7 19  1  0
  8 20  1  0
  8 21  1  0
  9 22  1  0
  9 23  1  0
M  END
