
     RDKit          3D

 13 12  0  0  0  0  0  0  0  0999 V2000
    4.0736   -0.3406   -0.3035 C   0  0  0  0  0  0  0  0  0  0  0  0
    2.8904   -0.2370   -0.0568 C   0  0  0  0  0  0  0  0  0  0  0  0
    1.5061   -0.1395    0.2384 C   0  0  0  0  0  0  0  0  0  0  0  0
    0.3218   -0.0553    0.5116 C   0  0  0  0  0  0  0  0  0  0  0  0
   -1.1072    0.0478    0.8262 C   0  0  0  0  0  0  0  0  0  0  0  0
   -1.6617    1.3667    0.4090 C   0  0  0  0  0  0  0  0  0  0  0  0
   -1.8876    1.5953   -0.7727 O   0  0  0  0  0  0  0  0  0  0  0  0
   -1.8950   -1.0012    0.1039 C   0  0  0  0  0  0  0  0  0  0  0  0
   -1.4558   -2.1397    0.1729 O   0  0  0  0  0  0  0  0  0  0  0  0
    5.1140   -0.4337   -0.5379 H   0  0  0  0  0  0  0  0  0  0  0  0
   -1.2115   -0.0590    1.9163 H   0  0  0  0  0  0  0  0  0  0  0  0
   -1.8870    2.1689    1.1117 H   0  0  0  0  0  0  0  0  0  0  0  0
   -2.8001   -0.7726   -0.4482 H   0  0  0  0  0  0  0  0  0  0  0  0
  1  2  3  0
  2  3  1  0
  3  4  3  0
  4  5  1  0
  5  6  1  0
  6  7  2  0
  5  8  1  0
  8  9  2  0
  1 10  1  0
  5 11  1  0
  6 12  1  0
  8 13  1  0
M  END
