
     RDKit          3D

 16 17  0  0  0  0  0  0  0  0999 V2000
    1.3602    0.4469    2.5059 C   0  0  0  0  0  0  0  0  0  0  0  0
    0.8863    0.2183    1.4226 C   0  0  0  0  0  0  0  0  0  0  0  0
    0.3093   -0.0379    0.0863 C   0  0  0  0  0  0  0  0  0  0  0  0
   -1.0171    0.5552   -0.2339 C   0  0  0  0  0  0  0  0  0  0  0  0
   -2.2278    0.2671    0.5152 C   0  0  0  0  0  0  0  0  0  0  0  0
   -1.4795    1.4455    0.8206 O   0  0  0  0  0  0  0  0  0  0  0  0
    0.7652   -1.3026   -0.5568 C   0  0  0  0  0  0  0  0  0  0  0  0
    1.3142   -0.0323   -1.0421 C   0  0  0  0  0  0  0  0  0  0  0  0
    1.7684    0.6469    3.4842 H   0  0  0  0  0  0  0  0  0  0  0  0
   -1.1563    0.9961   -1.2644 H   0  0  0  0  0  0  0  0  0  0  0  0
   -3.2047    0.5375    0.0662 H   0  0  0  0  0  0  0  0  0  0  0  0
   -2.2004   -0.5056    1.3205 H   0  0  0  0  0  0  0  0  0  0  0  0
    0.0864   -1.9034   -1.1997 H   0  0  0  0  0  0  0  0  0  0  0  0
    1.4546   -1.9767    0.0308 H   0  0  0  0  0  0  0  0  0  0  0  0
    0.9799    0.3738   -2.0354 H   0  0  0  0  0  0  0  0  0  0  0  0
    2.3611    0.2711   -0.8107 H   0  0  0  0  0  0  0  0  0  0  0  0
  1  2  3  0
  2  3  1  0
  3  4  1  0
  4  5  1  0
  5  6  1  0
  3  7  1  0
  7  8  1  0
  8  3  1  0
  6  4  1  0
  1  9  1  0
  4 10  1  0
  5 11  1  0
  5 12  1  0
  7 13  1  0
  7 14  1  0
  8 15  1  0
  8 16  1  0
M  END
