
     RDKit          3D

 23 22  0  0  0  0  0  0  0  0999 V2000
    3.1726    1.8676    0.7365 C   0  0  0  0  0  0  0  0  0  0  0  0
    2.6240    0.8520    1.0873 C   0  0  0  0  0  0  0  0  0  0  0  0
    1.9383   -0.3660    1.5194 C   0  0  0  0  0  0  0  0  0  0  0  0
    0.4986   -0.3405    1.0419 C   0  0  0  0  0  0  0  0  0  0  0  0
    0.4183   -0.2593   -0.4487 C   0  0  0  0  0  0  0  0  0  0  0  0
   -0.9461   -0.2281   -1.0296 C   0  0  0  0  0  0  0  0  0  0  0  0
   -1.8125   -1.4001   -0.7378 C   0  0  0  0  0  0  0  0  0  0  0  0
   -1.6829    1.0303   -0.6684 C   0  0  0  0  0  0  0  0  0  0  0  0
   -0.7832   -0.1970   -2.4380 O   0  0  0  0  0  0  0  0  0  0  0  0
    3.6623    2.7795    0.4370 H   0  0  0  0  0  0  0  0  0  0  0  0
    2.4734   -1.2780    1.1272 H   0  0  0  0  0  0  0  0  0  0  0  0
    2.0139   -0.4147    2.6099 H   0  0  0  0  0  0  0  0  0  0  0  0
   -0.0091    0.4639    1.5766 H   0  0  0  0  0  0  0  0  0  0  0  0
    0.0492   -1.3007    1.4245 H   0  0  0  0  0  0  0  0  0  0  0  0
    0.9392    0.6754   -0.7576 H   0  0  0  0  0  0  0  0  0  0  0  0
    1.0305   -1.0902   -0.8595 H   0  0  0  0  0  0  0  0  0  0  0  0
   -2.8713   -1.0711   -0.8328 H   0  0  0  0  0  0  0  0  0  0  0  0
   -1.7049   -2.2335   -1.4850 H   0  0  0  0  0  0  0  0  0  0  0  0
   -1.7283   -1.7886    0.2962 H   0  0  0  0  0  0  0  0  0  0  0  0
   -1.3232    1.9183   -1.2349 H   0  0  0  0  0  0  0  0  0  0  0  0
   -2.7702    0.9702   -0.8426 H   0  0  0  0  0  0  0  0  0  0  0  0
   -1.5588    1.2932    0.4201 H   0  0  0  0  0  0  0  0  0  0  0  0
   -1.6298    0.1177   -2.8682 H   0  0  0  0  0  0  0  0  0  0  0  0
  1  2  3  0
  2  3  1  0
  3  4  1  0
  4  5  1  0
  5  6  1  0
  6  7  1  0
  6  8  1  0
  6  9  1  0
  1 10  1  0
  3 11  1  0
  3 12  1  0
  4 13  1  0
  4 14  1  0
  5 15  1  0
  5 16  1  0
  7 17  1  0
  7 18  1  0
  7 19  1  0
  8 20  1  0
  8 21  1  0
  8 22  1  0
  9 23  1  0
M  END
