
     RDKit          3D

 17 18  0  0  0  0  0  0  0  0999 V2000
    2.4282   -1.8331   -1.2046 C   0  0  0  0  0  0  0  0  0  0  0  0
    1.4435   -1.4423   -0.7438 C   0  0  0  0  0  0  0  0  0  0  0  0
    0.1507   -0.9119   -0.1570 C   0  0  0  0  0  0  0  0  0  0  0  0
   -0.6783   -0.3633   -1.2036 C   0  0  0  0  0  0  0  0  0  0  0  0
   -1.1106    0.8929   -0.9596 C   0  0  0  0  0  0  0  0  0  0  0  0
   -0.5713    1.3069    0.3324 C   0  0  0  0  0  0  0  0  0  0  0  0
   -1.1131    0.6538    1.5286 C   0  0  0  0  0  0  0  0  0  0  0  0
    0.2717    0.3636    1.9104 O   0  0  0  0  0  0  0  0  0  0  0  0
    0.6483    0.3890    0.5910 C   0  0  0  0  0  0  0  0  0  0  0  0
    3.3945   -2.2143   -1.6781 H   0  0  0  0  0  0  0  0  0  0  0  0
   -0.2658   -1.5793    0.5833 H   0  0  0  0  0  0  0  0  0  0  0  0
   -0.9503   -0.8671   -2.1649 H   0  0  0  0  0  0  0  0  0  0  0  0
   -1.7620    1.4310   -1.6791 H   0  0  0  0  0  0  0  0  0  0  0  0
   -0.2635    2.3829    0.4370 H   0  0  0  0  0  0  0  0  0  0  0  0
   -1.5499    1.3315    2.2834 H   0  0  0  0  0  0  0  0  0  0  0  0
   -1.6305   -0.3074    1.3693 H   0  0  0  0  0  0  0  0  0  0  0  0
    1.5584    0.7671    0.2202 H   0  0  0  0  0  0  0  0  0  0  0  0
  1  2  3  0
  2  3  1  0
  3  4  1  0
  4  5  2  0
  5  6  1  0
  6  7  1  0
  7  8  1  0
  8  9  1  0
  9  3  1  0
  9  6  1  0
  1 10  1  0
  3 11  1  0
  4 12  1  0
  5 13  1  0
  6 14  1  0
  7 15  1  0
  7 16  1  0
  9 17  1  0
M  END
