
     RDKit          3D

 19 19  0  0  0  0  0  0  0  0999 V2000
    2.8675   -0.6789   -0.7686 C   0  0  0  0  0  0  0  0  0  0  0  0
    1.7528   -0.4227   -0.3986 C   0  0  0  0  0  0  0  0  0  0  0  0
    0.4038   -0.1146    0.0752 C   0  0  0  0  0  0  0  0  0  0  0  0
    0.2617   -0.7312    1.4712 C   0  0  0  0  0  0  0  0  0  0  0  0
    0.3141    1.3837    0.2459 C   0  0  0  0  0  0  0  0  0  0  0  0
   -0.9328    1.7945    0.6957 O   0  0  0  0  0  0  0  0  0  0  0  0
   -0.6055   -0.6492   -0.8800 C   0  0  0  0  0  0  0  0  0  0  0  0
   -2.0375   -0.5278   -0.7289 C   0  0  0  0  0  0  0  0  0  0  0  0
   -1.3413    0.2962   -1.6713 O   0  0  0  0  0  0  0  0  0  0  0  0
    3.8517   -0.8878   -1.1020 H   0  0  0  0  0  0  0  0  0  0  0  0
    0.7809   -0.0717    2.2137 H   0  0  0  0  0  0  0  0  0  0  0  0
   -0.8096   -0.8317    1.7469 H   0  0  0  0  0  0  0  0  0  0  0  0
    0.7494   -1.7105    1.5410 H   0  0  0  0  0  0  0  0  0  0  0  0
    0.5670    1.9292   -0.6853 H   0  0  0  0  0  0  0  0  0  0  0  0
    1.0518    1.7100    1.0079 H   0  0  0  0  0  0  0  0  0  0  0  0
   -1.4197    2.2153   -0.0757 H   0  0  0  0  0  0  0  0  0  0  0  0
   -0.2325   -1.5079   -1.5034 H   0  0  0  0  0  0  0  0  0  0  0  0
   -2.6919   -1.2410   -1.2500 H   0  0  0  0  0  0  0  0  0  0  0  0
   -2.5298    0.0461    0.0663 H   0  0  0  0  0  0  0  0  0  0  0  0
  1  2  3  0
  2  3  1  0
  3  4  1  0
  3  5  1  0
  5  6  1  0
  3  7  1  0
  7  8  1  0
  8  9  1  0
  9  7  1  0
  1 10  1  0
  4 11  1  0
  4 12  1  0
  4 13  1  0
  5 14  1  0
  5 15  1  0
  6 16  1  0
  7 17  1  0
  8 18  1  0
  8 19  1  0
M  END
