
     RDKit          3D

 17 18  0  0  0  0  0  0  0  0999 V2000
    3.3250    0.7154    0.4203 C   0  0  0  0  0  0  0  0  0  0  0  0
    2.2925    0.2737   -0.0188 C   0  0  0  0  0  0  0  0  0  0  0  0
    1.0311   -0.2647   -0.5311 C   0  0  0  0  0  0  0  0  0  0  0  0
   -0.1233    0.6877   -0.4096 C   0  0  0  0  0  0  0  0  0  0  0  0
    0.0205    0.5228    1.0553 C   0  0  0  0  0  0  0  0  0  0  0  0
    0.0048    1.2277    2.0187 O   0  0  0  0  0  0  0  0  0  0  0  0
    0.1647   -0.8529    0.5454 C   0  0  0  0  0  0  0  0  0  0  0  0
   -1.0068   -0.5243   -0.3382 C   0  0  0  0  0  0  0  0  0  0  0  0
   -2.2421   -0.2704    0.4835 C   0  0  0  0  0  0  0  0  0  0  0  0
    4.2384    1.1218    0.8241 H   0  0  0  0  0  0  0  0  0  0  0  0
    1.0953   -0.8587   -1.4475 H   0  0  0  0  0  0  0  0  0  0  0  0
   -0.2796    1.5339   -0.9155 H   0  0  0  0  0  0  0  0  0  0  0  0
    0.3185   -1.6910    1.0651 H   0  0  0  0  0  0  0  0  0  0  0  0
   -1.1225   -1.0923   -1.2551 H   0  0  0  0  0  0  0  0  0  0  0  0
   -2.9762   -1.0964    0.4166 H   0  0  0  0  0  0  0  0  0  0  0  0
   -1.9763   -0.1107    1.5556 H   0  0  0  0  0  0  0  0  0  0  0  0
   -2.7640    0.6783    0.1714 H   0  0  0  0  0  0  0  0  0  0  0  0
  1  2  3  0
  2  3  1  0
  3  4  1  0
  4  5  1  0
  5  6  2  0
  5  7  1  0
  7  8  1  0
  8  9  1  0
  7  3  1  0
  8  4  1  0
  1 10  1  0
  3 11  1  0
  4 12  1  0
  7 13  1  0
  8 14  1  0
  9 15  1  0
  9 16  1  0
  9 17  1  0
M  END
