
     RDKit          3D

 19 19  0  0  0  0  0  0  0  0999 V2000
    3.4790    0.4352   -0.7025 C   0  0  0  0  0  0  0  0  0  0  0  0
    2.4282   -0.0759   -1.0008 C   0  0  0  0  0  0  0  0  0  0  0  0
    1.1513   -0.6872   -1.3668 C   0  0  0  0  0  0  0  0  0  0  0  0
    0.2631   -0.6863   -0.1472 C   0  0  0  0  0  0  0  0  0  0  0  0
    0.0180    0.7099    0.3505 C   0  0  0  0  0  0  0  0  0  0  0  0
   -1.2902    0.5487    1.0963 C   0  0  0  0  0  0  0  0  0  0  0  0
   -2.0728    1.6911    0.8564 O   0  0  0  0  0  0  0  0  0  0  0  0
   -1.8763   -0.6808    0.4848 C   0  0  0  0  0  0  0  0  0  0  0  0
   -1.0067   -1.1093   -0.5138 O   0  0  0  0  0  0  0  0  0  0  0  0
    4.4090    0.8703   -0.4359 H   0  0  0  0  0  0  0  0  0  0  0  0
    0.6506   -0.2000   -2.2037 H   0  0  0  0  0  0  0  0  0  0  0  0
    1.3171   -1.7651   -1.6521 H   0  0  0  0  0  0  0  0  0  0  0  0
    0.6943   -1.2746    0.6777 H   0  0  0  0  0  0  0  0  0  0  0  0
   -0.0799    1.4536   -0.4521 H   0  0  0  0  0  0  0  0  0  0  0  0
    0.7733    1.0112    1.1200 H   0  0  0  0  0  0  0  0  0  0  0  0
   -1.1403    0.3797    2.1804 H   0  0  0  0  0  0  0  0  0  0  0  0
   -2.8755    1.3805    0.3520 H   0  0  0  0  0  0  0  0  0  0  0  0
   -1.9557   -1.5329    1.2226 H   0  0  0  0  0  0  0  0  0  0  0  0
   -2.8865   -0.4681    0.1342 H   0  0  0  0  0  0  0  0  0  0  0  0
  1  2  3  0
  2  3  1  0
  3  4  1  0
  4  5  1  0
  5  6  1  0
  6  7  1  0
  6  8  1  0
  8  9  1  0
  9  4  1  0
  1 10  1  0
  3 11  1  0
  3 12  1  0
  4 13  1  0
  5 14  1  0
  5 15  1  0
  6 16  1  0
  7 17  1  0
  8 18  1  0
  8 19  1  0
M  END
