
     RDKit          3D

 19 19  0  0  0  0  0  0  0  0999 V2000
   -0.9223   -3.2592    0.3551 C   0  0  0  0  0  0  0  0  0  0  0  0
   -1.1549   -2.0534    0.2956 C   0  0  0  0  0  0  0  0  0  0  0  0
   -1.4102   -0.6088    0.2333 C   0  0  0  0  0  0  0  0  0  0  0  0
   -2.6526   -0.4547   -0.3838 O   0  0  0  0  0  0  0  0  0  0  0  0
   -0.3421    0.0028   -0.6183 C   0  0  0  0  0  0  0  0  0  0  0  0
    1.0374   -0.2043   -0.0975 C   0  0  0  0  0  0  0  0  0  0  0  0
    2.1088    0.3696   -0.8868 O   0  0  0  0  0  0  0  0  0  0  0  0
    1.8017    1.0353    0.2779 C   0  0  0  0  0  0  0  0  0  0  0  0
    1.1055    2.3757    0.1160 C   0  0  0  0  0  0  0  0  0  0  0  0
   -0.7258   -4.2935    0.3907 H   0  0  0  0  0  0  0  0  0  0  0  0
   -1.4919   -0.1620    1.2343 H   0  0  0  0  0  0  0  0  0  0  0  0
   -3.0392   -1.2977   -0.6940 H   0  0  0  0  0  0  0  0  0  0  0  0
   -0.5396    1.0885   -0.6967 H   0  0  0  0  0  0  0  0  0  0  0  0
   -0.3957   -0.4777   -1.6326 H   0  0  0  0  0  0  0  0  0  0  0  0
    1.3258   -1.1717    0.3557 H   0  0  0  0  0  0  0  0  0  0  0  0
    2.5016    0.9614    1.1502 H   0  0  0  0  0  0  0  0  0  0  0  0
    0.8651    2.5409   -0.9550 H   0  0  0  0  0  0  0  0  0  0  0  0
    1.7715    3.1926    0.4732 H   0  0  0  0  0  0  0  0  0  0  0  0
    0.1570    2.4162    0.6839 H   0  0  0  0  0  0  0  0  0  0  0  0
  1  2  3  0
  2  3  1  0
  3  4  1  0
  3  5  1  0
  5  6  1  0
  6  7  1  0
  7  8  1  0
  8  9  1  0
  8  6  1  0
  1 10  1  0
  3 11  1  0
  4 12  1  0
  5 13  1  0
  5 14  1  0
  6 15  1  0
  8 16  1  0
  9 17  1  0
  9 18  1  0
  9 19  1  0
M  END
