
     RDKit          3D

 17 17  0  0  0  0  0  0  0  0999 V2000
    1.7669   -1.9792   -0.0763 C   0  0  0  0  0  0  0  0  0  0  0  0
    0.8398   -1.2781   -0.3967 C   0  0  0  0  0  0  0  0  0  0  0  0
   -0.2984   -0.4303   -0.7800 C   0  0  0  0  0  0  0  0  0  0  0  0
    0.1172    1.0220   -1.0420 C   0  0  0  0  0  0  0  0  0  0  0  0
    1.5175    1.1933   -1.0302 O   0  0  0  0  0  0  0  0  0  0  0  0
   -0.4397    1.4273    0.2882 C   0  0  0  0  0  0  0  0  0  0  0  0
   -1.1194    0.0694    0.3648 C   0  0  0  0  0  0  0  0  0  0  0  0
   -0.9658   -0.6191    1.6498 C   0  0  0  0  0  0  0  0  0  0  0  0
    0.1207   -1.0783    1.9532 O   0  0  0  0  0  0  0  0  0  0  0  0
    2.5850   -2.6215    0.2096 H   0  0  0  0  0  0  0  0  0  0  0  0
   -0.8708   -0.8040   -1.6562 H   0  0  0  0  0  0  0  0  0  0  0  0
   -0.3415    1.4657   -1.9335 H   0  0  0  0  0  0  0  0  0  0  0  0
    1.9008    0.2847   -1.2047 H   0  0  0  0  0  0  0  0  0  0  0  0
    0.2997    1.5996    1.1007 H   0  0  0  0  0  0  0  0  0  0  0  0
   -1.1336    2.2861    0.1763 H   0  0  0  0  0  0  0  0  0  0  0  0
   -2.1884    0.1957    0.0362 H   0  0  0  0  0  0  0  0  0  0  0  0
   -1.7900   -0.7333    2.3409 H   0  0  0  0  0  0  0  0  0  0  0  0
  1  2  3  0
  2  3  1  0
  3  4  1  0
  4  5  1  0
  4  6  1  0
  6  7  1  0
  7  8  1  0
  8  9  2  0
  7  3  1  0
  1 10  1  0
  3 11  1  0
  4 12  1  0
  5 13  1  0
  6 14  1  0
  6 15  1  0
  7 16  1  0
  8 17  1  0
M  END
