
     RDKit          3D

 15 14  0  0  0  0  0  0  0  0999 V2000
   -1.5127    1.1369    2.0812 C   0  0  0  0  0  0  0  0  0  0  0  0
   -1.6211    0.3843    1.2109 C   0  0  0  0  0  0  0  0  0  0  0  0
   -1.7822   -0.6574   -0.0358 C   0  0  0  0  0  0  0  0  0  0  0  0
   -0.5862   -0.5152   -0.7018 O   0  0  0  0  0  0  0  0  0  0  0  0
    0.3312    0.2359    0.1485 C   0  0  0  0  0  0  0  0  0  0  0  0
    1.6888    0.3033   -0.4996 C   0  0  0  0  0  0  0  0  0  0  0  0
    2.4195    1.3044   -0.2175 O   0  0  0  0  0  0  0  0  0  0  0  0
    2.1572   -0.6927   -1.3936 C   0  0  0  0  0  0  0  0  0  0  0  0
    1.7004   -1.9224   -1.3831 O   0  0  0  0  0  0  0  0  0  0  0  0
   -1.4216    1.7781    2.7970 H   0  0  0  0  0  0  0  0  0  0  0  0
   -1.8050   -1.5978    0.5183 H   0  0  0  0  0  0  0  0  0  0  0  0
   -2.6368   -0.1899   -0.4693 H   0  0  0  0  0  0  0  0  0  0  0  0
   -0.0860    1.2999    0.2312 H   0  0  0  0  0  0  0  0  0  0  0  0
    0.2655   -0.2592    1.1196 H   0  0  0  0  0  0  0  0  0  0  0  0
    2.8890   -0.6085   -2.1575 H   0  0  0  0  0  0  0  0  0  0  0  0
  1  2  3  0
  2  3  1  0
  3  4  1  0
  4  5  1  0
  5  6  1  0
  6  7  2  0
  6  8  1  0
  8  9  2  0
  1 10  1  0
  3 11  1  0
  3 12  1  0
  5 13  1  0
  5 14  1  0
  8 15  1  0
M  END
