
     RDKit          3D

 23 22  0  0  0  0  0  0  0  0999 V2000
   -0.5203    2.4198    0.8752 C   0  0  0  0  0  0  0  0  0  0  0  0
   -0.2891    1.2676    0.5961 C   0  0  0  0  0  0  0  0  0  0  0  0
    0.0092   -0.1362    0.2346 C   0  0  0  0  0  0  0  0  0  0  0  0
   -0.4697   -1.0875    1.2919 C   0  0  0  0  0  0  0  0  0  0  0  0
    1.5283   -0.2554    0.0555 C   0  0  0  0  0  0  0  0  0  0  0  0
    2.2671    0.0981    1.3024 C   0  0  0  0  0  0  0  0  0  0  0  0
   -0.5773   -0.4194   -1.1279 C   0  0  0  0  0  0  0  0  0  0  0  0
   -2.0565   -0.2368   -1.1932 C   0  0  0  0  0  0  0  0  0  0  0  0
   -0.0050    0.5333   -2.0021 O   0  0  0  0  0  0  0  0  0  0  0  0
   -0.7333    3.4334    1.1379 H   0  0  0  0  0  0  0  0  0  0  0  0
   -1.5733   -1.2121    1.1863 H   0  0  0  0  0  0  0  0  0  0  0  0
   -0.3064   -0.5670    2.2806 H   0  0  0  0  0  0  0  0  0  0  0  0
    0.0848   -2.0233    1.3369 H   0  0  0  0  0  0  0  0  0  0  0  0
    1.7360   -1.2912   -0.2652 H   0  0  0  0  0  0  0  0  0  0  0  0
    1.8062    0.4134   -0.7824 H   0  0  0  0  0  0  0  0  0  0  0  0
    3.2777    0.5085    1.0782 H   0  0  0  0  0  0  0  0  0  0  0  0
    1.6737    0.8003    1.9374 H   0  0  0  0  0  0  0  0  0  0  0  0
    2.4438   -0.8686    1.8605 H   0  0  0  0  0  0  0  0  0  0  0  0
   -0.2604   -1.4397   -1.4191 H   0  0  0  0  0  0  0  0  0  0  0  0
   -2.5206   -1.2267   -0.9133 H   0  0  0  0  0  0  0  0  0  0  0  0
   -2.3740   -0.0358   -2.2397 H   0  0  0  0  0  0  0  0  0  0  0  0
   -2.4584    0.5096   -0.5122 H   0  0  0  0  0  0  0  0  0  0  0  0
   -0.6825    0.8155   -2.6860 H   0  0  0  0  0  0  0  0  0  0  0  0
  1  2  3  0
  2  3  1  0
  3  4  1  0
  3  5  1  0
  5  6  1  0
  3  7  1  0
  7  8  1  0
  7  9  1  0
  1 10  1  0
  4 11  1  0
  4 12  1  0
  4 13  1  0
  5 14  1  0
  5 15  1  0
  6 16  1  0
  6 17  1  0
  6 18  1  0
  7 19  1  0
  8 20  1  0
  8 21  1  0
  8 22  1  0
  9 23  1  0
M  END
