
     RDKit          3D

 17 17  0  0  0  0  0  0  0  0999 V2000
   -2.0158    2.6580   -0.7137 C   0  0  0  0  0  0  0  0  0  0  0  0
   -1.1509    1.1401   -0.0902 C   0  0  0  0  0  0  0  0  0  0  0  0
   -0.6998    0.3379    0.2510 C   0  0  0  0  0  0  0  0  0  0  0  0
   -1.3815   -1.0011   -0.2477 C   0  0  0  0  0  0  0  0  0  0  0  0
   -2.0116   -2.2028   -0.6929 C   0  0  0  0  0  0  0  0  0  0  0  0
    0.6978    0.1719   -0.4087 C   0  0  0  0  0  0  0  0  0  0  0  0
    1.2017   -1.1814    0.2489 C   0  0  0  0  0  0  0  0  0  0  0  0
    1.5660   -0.3825    1.3351 O   0  0  0  0  0  0  0  0  0  0  0  0
    1.7604    0.8369    0.4767 C   0  0  0  0  0  0  0  0  0  0  0  0
   -2.4359    3.4203   -1.0177 H   0  0  0  0  0  0  0  0  0  0  0  0
   -0.5458   -0.0367    1.3846 H   0  0  0  0  0  0  0  0  0  0  0  0
   -2.5025   -3.1466   -1.0628 H   0  0  0  0  0  0  0  0  0  0  0  0
    0.7491    0.1450   -1.4083 H   0  0  0  0  0  0  0  0  0  0  0  0
    2.0969   -1.5057   -0.3441 H   0  0  0  0  0  0  0  0  0  0  0  0
    0.4345   -1.8583    0.3759 H   0  0  0  0  0  0  0  0  0  0  0  0
    1.4857    1.7630    1.0679 H   0  0  0  0  0  0  0  0  0  0  0  0
    2.7517    0.8419    0.1458 H   0  0  0  0  0  0  0  0  0  0  0  0
  1  2  3  0
  2  3  1  0
  3  4  1  0
  4  5  3  0
  3  6  1  0
  6  7  1  0
  7  8  1  0
  8  9  1  0
  9  6  1  0
  1 10  1  0
  3 11  1  0
  5 12  1  0
  6 13  1  0
  7 14  1  0
  7 15  1  0
  9 16  1  0
  9 17  1  0
M  END
