
     RDKit          3D

 17 18  0  0  0  0  0  0  0  0999 V2000
    2.8773   -0.6080    0.2418 C   0  0  0  0  0  0  0  0  0  0  0  0
    1.6954   -0.4396    0.4044 C   0  0  0  0  0  0  0  0  0  0  0  0
    0.2609   -0.2125    0.6140 C   0  0  0  0  0  0  0  0  0  0  0  0
   -0.2305   -0.9225    1.7004 O   0  0  0  0  0  0  0  0  0  0  0  0
   -0.0733    1.2846    0.6602 C   0  0  0  0  0  0  0  0  0  0  0  0
   -0.4655    1.1591   -0.8084 C   0  0  0  0  0  0  0  0  0  0  0  0
   -0.5646   -0.3190   -0.6015 C   0  0  0  0  0  0  0  0  0  0  0  0
   -1.6589   -1.0669   -0.9211 C   0  0  0  0  0  0  0  0  0  0  0  0
   -0.3648   -1.2186   -1.5967 O   0  0  0  0  0  0  0  0  0  0  0  0
    3.9304   -0.7502    0.0958 H   0  0  0  0  0  0  0  0  0  0  0  0
    0.2187   -0.6676    2.5443 H   0  0  0  0  0  0  0  0  0  0  0  0
    0.8322    1.8714    0.8045 H   0  0  0  0  0  0  0  0  0  0  0  0
   -0.9023    1.4528    1.3547 H   0  0  0  0  0  0  0  0  0  0  0  0
    0.3502    1.5119   -1.4685 H   0  0  0  0  0  0  0  0  0  0  0  0
   -1.4572    1.6095   -1.0460 H   0  0  0  0  0  0  0  0  0  0  0  0
   -2.4690   -0.7029   -1.6114 H   0  0  0  0  0  0  0  0  0  0  0  0
   -1.9790   -1.9814   -0.3665 H   0  0  0  0  0  0  0  0  0  0  0  0
  1  2  3  0
  2  3  1  0
  3  4  1  0
  3  5  1  0
  5  6  1  0
  6  7  1  0
  7  8  1  0
  8  9  1  0
  7  3  1  0
  9  7  1  0
  1 10  1  0
  4 11  1  0
  5 12  1  0
  5 13  1  0
  6 14  1  0
  6 15  1  0
  8 16  1  0
  8 17  1  0
M  END
