
     RDKit          3D

 23 23  0  0  0  0  0  0  0  0999 V2000
   -2.1258    1.9547   -1.0380 C   0  0  0  0  0  0  0  0  0  0  0  0
   -1.9779    1.0324   -0.2651 C   0  0  0  0  0  0  0  0  0  0  0  0
   -1.8274   -0.0643    0.6525 C   0  0  0  0  0  0  0  0  0  0  0  0
   -2.2286   -1.3295   -0.1018 C   0  0  0  0  0  0  0  0  0  0  0  0
   -0.4726   -0.1676    1.2437 C   0  0  0  0  0  0  0  0  0  0  0  0
    0.6082   -0.3846    0.2485 C   0  0  0  0  0  0  0  0  0  0  0  0
    0.8580    0.6850   -0.7813 C   0  0  0  0  0  0  0  0  0  0  0  0
    1.8971    0.3022    0.3201 C   0  0  0  0  0  0  0  0  0  0  0  0
    3.1548   -0.2725   -0.2638 C   0  0  0  0  0  0  0  0  0  0  0  0
   -2.2555    2.7651   -1.7155 H   0  0  0  0  0  0  0  0  0  0  0  0
   -2.6014    0.0167    1.4707 H   0  0  0  0  0  0  0  0  0  0  0  0
   -2.5100   -2.1069    0.6346 H   0  0  0  0  0  0  0  0  0  0  0  0
   -3.1423   -1.0748   -0.6794 H   0  0  0  0  0  0  0  0  0  0  0  0
   -1.4504   -1.6705   -0.7920 H   0  0  0  0  0  0  0  0  0  0  0  0
   -0.3166    0.8179    1.8042 H   0  0  0  0  0  0  0  0  0  0  0  0
   -0.4256   -0.9080    2.0903 H   0  0  0  0  0  0  0  0  0  0  0  0
    0.6391   -1.4672   -0.1636 H   0  0  0  0  0  0  0  0  0  0  0  0
    0.5427    1.7227   -0.6724 H   0  0  0  0  0  0  0  0  0  0  0  0
    1.0621    0.3169   -1.8108 H   0  0  0  0  0  0  0  0  0  0  0  0
    2.0321    1.0242    1.1422 H   0  0  0  0  0  0  0  0  0  0  0  0
    3.0256   -1.2728   -0.7080 H   0  0  0  0  0  0  0  0  0  0  0  0
    3.9749   -0.3071    0.4777 H   0  0  0  0  0  0  0  0  0  0  0  0
    3.5394    0.3881   -1.0930 H   0  0  0  0  0  0  0  0  0  0  0  0
  1  2  3  0
  2  3  1  0
  3  4  1  0
  3  5  1  0
  5  6  1  0
  6  7  1  0
  7  8  1  0
  8  9  1  0
  8  6  1  0
  1 10  1  0
  3 11  1  0
  4 12  1  0
  4 13  1  0
  4 14  1  0
  5 15  1  0
  5 16  1  0
  6 17  1  0
  7 18  1  0
  7 19  1  0
  8 20  1  0
  9 21  1  0
  9 22  1  0
  9 23  1  0
M  END
