
     RDKit          3D

 17 18  0  0  0  0  0  0  0  0999 V2000
    2.7497    1.4961   -0.0019 C   0  0  0  0  0  0  0  0  0  0  0  0
    1.6098    1.0025   -0.0581 C   0  0  0  0  0  0  0  0  0  0  0  0
    0.3229    0.4370   -0.1228 C   0  0  0  0  0  0  0  0  0  0  0  0
   -0.5807    0.7043    1.0678 C   0  0  0  0  0  0  0  0  0  0  0  0
   -1.1383   -0.5201    1.3993 O   0  0  0  0  0  0  0  0  0  0  0  0
   -1.2132   -1.2697    0.2204 C   0  0  0  0  0  0  0  0  0  0  0  0
    0.0294   -0.8955   -0.5785 C   0  0  0  0  0  0  0  0  0  0  0  0
   -0.3655   -0.2543   -1.8901 C   0  0  0  0  0  0  0  0  0  0  0  0
   -0.3049    0.9807   -1.3211 O   0  0  0  0  0  0  0  0  0  0  0  0
    3.8143    1.9456    0.0335 H   0  0  0  0  0  0  0  0  0  0  0  0
    0.0017    1.1093    1.8926 H   0  0  0  0  0  0  0  0  0  0  0  0
   -1.3335    1.4282    0.7084 H   0  0  0  0  0  0  0  0  0  0  0  0
   -2.1640   -1.0294   -0.3030 H   0  0  0  0  0  0  0  0  0  0  0  0
   -1.2568   -2.3290    0.4738 H   0  0  0  0  0  0  0  0  0  0  0  0
    0.7846   -1.7052   -0.5794 H   0  0  0  0  0  0  0  0  0  0  0  0
    0.3862   -0.4955   -2.6951 H   0  0  0  0  0  0  0  0  0  0  0  0
   -1.3417   -0.6052   -2.2435 H   0  0  0  0  0  0  0  0  0  0  0  0
  1  2  3  0
  2  3  1  0
  3  4  1  0
  4  5  1  0
  5  6  1  0
  6  7  1  0
  7  8  1  0
  8  9  1  0
  7  3  1  0
  9  3  1  0
  1 10  1  0
  4 11  1  0
  4 12  1  0
  6 13  1  0
  6 14  1  0
  7 15  1  0
  8 16  1  0
  8 17  1  0
M  END
