
     RDKit          3D

 17 18  0  0  0  0  0  0  0  0999 V2000
    2.3198    1.3695    1.2360 C   0  0  0  0  0  0  0  0  0  0  0  0
    1.3981    0.7564    0.7739 C   0  0  0  0  0  0  0  0  0  0  0  0
    0.3145    0.0639    0.2355 C   0  0  0  0  0  0  0  0  0  0  0  0
   -0.7913   -0.3446    1.1648 C   0  0  0  0  0  0  0  0  0  0  0  0
   -1.9086   -0.5340    0.3451 O   0  0  0  0  0  0  0  0  0  0  0  0
   -1.4705   -0.3749   -0.9803 C   0  0  0  0  0  0  0  0  0  0  0  0
   -0.5310    0.8365   -0.7982 C   0  0  0  0  0  0  0  0  0  0  0  0
   -0.6109   -1.4068   -1.2542 O   0  0  0  0  0  0  0  0  0  0  0  0
    0.6249   -1.1288   -0.6390 C   0  0  0  0  0  0  0  0  0  0  0  0
    3.1318    1.9310    1.6530 H   0  0  0  0  0  0  0  0  0  0  0  0
   -0.5407   -1.3435    1.5791 H   0  0  0  0  0  0  0  0  0  0  0  0
   -0.9835    0.4080    1.9576 H   0  0  0  0  0  0  0  0  0  0  0  0
   -2.2569   -0.1960   -1.6794 H   0  0  0  0  0  0  0  0  0  0  0  0
    0.0337    1.0340   -1.7099 H   0  0  0  0  0  0  0  0  0  0  0  0
   -1.0437    1.6827   -0.3502 H   0  0  0  0  0  0  0  0  0  0  0  0
    1.2960   -0.7632   -1.4458 H   0  0  0  0  0  0  0  0  0  0  0  0
    1.0183   -1.9901   -0.0879 H   0  0  0  0  0  0  0  0  0  0  0  0
  1  2  3  0
  2  3  1  0
  3  4  1  0
  4  5  1  0
  5  6  1  0
  6  7  1  0
  6  8  1  0
  8  9  1  0
  7  3  1  0
  9  3  1  0
  1 10  1  0
  4 11  1  0
  4 12  1  0
  6 13  1  0
  7 14  1  0
  7 15  1  0
  9 16  1  0
  9 17  1  0
M  END
