
     RDKit          3D

 19 20  0  0  0  0  0  0  0  0999 V2000
    2.7446   -1.1963    0.2543 C   0  0  0  0  0  0  0  0  0  0  0  0
    1.6839   -0.7207    0.2706 C   0  0  0  0  0  0  0  0  0  0  0  0
    0.2846   -0.1056    0.2878 C   0  0  0  0  0  0  0  0  0  0  0  0
    0.4319    1.2970    0.4699 C   0  0  0  0  0  0  0  0  0  0  0  0
    0.1507    1.9093   -0.6423 C   0  0  0  0  0  0  0  0  0  0  0  0
   -0.2737    0.9135   -1.7350 C   0  0  0  0  0  0  0  0  0  0  0  0
   -0.3502   -0.3784   -1.0617 C   0  0  0  0  0  0  0  0  0  0  0  0
   -1.6536   -0.6508   -0.2692 C   0  0  0  0  0  0  0  0  0  0  0  0
   -0.7105   -1.0171    0.8825 C   0  0  0  0  0  0  0  0  0  0  0  0
    3.8060   -1.6533    0.2279 H   0  0  0  0  0  0  0  0  0  0  0  0
    0.6433    1.8062    1.4372 H   0  0  0  0  0  0  0  0  0  0  0  0
    0.2663    2.9854   -0.9513 H   0  0  0  0  0  0  0  0  0  0  0  0
   -1.3762    1.2536   -1.8823 H   0  0  0  0  0  0  0  0  0  0  0  0
    0.2870    1.0418   -2.6213 H   0  0  0  0  0  0  0  0  0  0  0  0
   -0.0516   -1.2724   -1.6111 H   0  0  0  0  0  0  0  0  0  0  0  0
   -2.2614    0.2166   -0.0410 H   0  0  0  0  0  0  0  0  0  0  0  0
   -2.2017   -1.5477   -0.5965 H   0  0  0  0  0  0  0  0  0  0  0  0
   -1.0492   -0.7728    1.8910 H   0  0  0  0  0  0  0  0  0  0  0  0
   -0.3702   -2.1080    0.8286 H   0  0  0  0  0  0  0  0  0  0  0  0
  1  2  3  0
  2  3  1  0
  3  4  1  0
  4  5  2  0
  5  6  1  0
  6  7  1  0
  7  8  1  0
  8  9  1  0
  7  3  1  0
  9  3  1  0
  1 10  1  0
  4 11  1  0
  5 12  1  0
  6 13  1  0
  6 14  1  0
  7 15  1  0
  8 16  1  0
  8 17  1  0
  9 18  1  0
  9 19  1  0
M  END
