
     RDKit          3D

 21 20  0  0  0  0  0  0  0  0999 V2000
   -1.3026    2.3095   -1.1769 C   0  0  0  0  0  0  0  0  0  0  0  0
   -1.4362    1.2290   -0.5589 C   0  0  0  0  0  0  0  0  0  0  0  0
   -1.6070   -0.0805    0.2091 C   0  0  0  0  0  0  0  0  0  0  0  0
   -0.1745   -0.6667    0.1864 C   0  0  0  0  0  0  0  0  0  0  0  0
   -0.1385   -2.1082    0.5037 C   0  0  0  0  0  0  0  0  0  0  0  0
   -0.4891   -2.5563    1.7335 O   0  0  0  0  0  0  0  0  0  0  0  0
    0.6803   -0.1501   -0.9018 C   0  0  0  0  0  0  0  0  0  0  0  0
    1.0004    1.1716   -0.8561 O   0  0  0  0  0  0  0  0  0  0  0  0
    1.7914    1.5628    0.2288 C   0  0  0  0  0  0  0  0  0  0  0  0
   -1.1699    3.4441   -1.8336 H   0  0  0  0  0  0  0  0  0  0  0  0
   -2.0771   -0.6921   -0.7934 H   0  0  0  0  0  0  0  0  0  0  0  0
   -2.2464   -0.0007    0.9156 H   0  0  0  0  0  0  0  0  0  0  0  0
    0.1576   -0.1299    1.1789 H   0  0  0  0  0  0  0  0  0  0  0  0
   -0.9750   -2.7117   -0.1200 H   0  0  0  0  0  0  0  0  0  0  0  0
    0.7553   -2.6323    0.1578 H   0  0  0  0  0  0  0  0  0  0  0  0
   -0.2678   -1.9283    2.4403 H   0  0  0  0  0  0  0  0  0  0  0  0
    1.4917   -0.8972   -1.1192 H   0  0  0  0  0  0  0  0  0  0  0  0
    0.0685   -0.1978   -1.8883 H   0  0  0  0  0  0  0  0  0  0  0  0
    2.7693    1.0696    0.2424 H   0  0  0  0  0  0  0  0  0  0  0  0
    1.9566    2.6975    0.2727 H   0  0  0  0  0  0  0  0  0  0  0  0
    1.2131    1.2677    1.1789 H   0  0  0  0  0  0  0  0  0  0  0  0
  1  2  3  0
  2  3  1  0
  3  4  1  0
  4  5  1  0
  5  6  1  0
  4  7  1  0
  7  8  1  0
  8  9  1  0
  1 10  1  0
  3 11  1  0
  3 12  1  0
  4 13  1  0
  5 14  1  0
  5 15  1  0
  6 16  1  0
  7 17  1  0
  7 18  1  0
  9 19  1  0
  9 20  1  0
  9 21  1  0
M  END
