
     RDKit          3D

 15 14  0  0  0  0  0  0  0  0999 V2000
    4.6285   -0.2385   -0.0971 C   0  0  0  0  0  0  0  0  0  0  0  0
    3.0564   -0.1544   -0.1106 C   0  0  0  0  0  0  0  0  0  0  0  0
    1.5927   -0.0844   -0.1353 C   0  0  0  0  0  0  0  0  0  0  0  0
    0.4495   -0.0202   -0.1369 C   0  0  0  0  0  0  0  0  0  0  0  0
   -0.7732    0.0614   -0.1518 C   0  0  0  0  0  0  0  0  0  0  0  0
   -1.5765   -1.1895    0.2189 C   0  0  0  0  0  0  0  0  0  0  0  0
   -1.2325    0.4299   -1.5079 O   0  0  0  0  0  0  0  0  0  0  0  0
   -1.3092    1.3077    0.5502 C   0  0  0  0  0  0  0  0  0  0  0  0
   -1.7568    2.3271    1.1343 C   0  0  0  0  0  0  0  0  0  0  0  0
    5.3642   -0.2740   -0.0819 H   0  0  0  0  0  0  0  0  0  0  0  0
   -2.3238   -1.5846   -0.5533 H   0  0  0  0  0  0  0  0  0  0  0  0
   -0.6885   -2.0161    0.0907 H   0  0  0  0  0  0  0  0  0  0  0  0
   -1.8380   -1.2955    1.2309 H   0  0  0  0  0  0  0  0  0  0  0  0
   -1.4926   -0.3765   -2.0280 H   0  0  0  0  0  0  0  0  0  0  0  0
   -2.1000    3.1077    1.5776 H   0  0  0  0  0  0  0  0  0  0  0  0
  1  2  3  0
  2  3  1  0
  3  4  3  0
  4  5  1  0
  5  6  1  0
  5  7  1  0
  5  8  1  0
  8  9  3  0
  1 10  1  0
  6 11  1  0
  6 12  1  0
  6 13  1  0
  7 14  1  0
  9 15  1  0
M  END
