
     RDKit          3D

 19 20  0  0  0  0  0  0  0  0999 V2000
    0.5516    2.6366   -1.2821 C   0  0  0  0  0  0  0  0  0  0  0  0
    0.0946    1.6442   -0.7582 C   0  0  0  0  0  0  0  0  0  0  0  0
   -0.3832    0.5517   -0.1887 C   0  0  0  0  0  0  0  0  0  0  0  0
   -1.3953    0.5159    0.9358 C   0  0  0  0  0  0  0  0  0  0  0  0
   -1.0751   -0.9412    0.6399 C   0  0  0  0  0  0  0  0  0  0  0  0
   -1.1894   -0.5269   -0.8014 C   0  0  0  0  0  0  0  0  0  0  0  0
    0.3399   -0.4727    0.5931 C   0  0  0  0  0  0  0  0  0  0  0  0
    1.3611   -1.3227   -0.0718 C   0  0  0  0  0  0  0  0  0  0  0  0
    2.3562   -0.4542   -0.5797 O   0  0  0  0  0  0  0  0  0  0  0  0
    0.9628    3.5070   -1.7457 H   0  0  0  0  0  0  0  0  0  0  0  0
   -2.3993    0.8444    0.6714 H   0  0  0  0  0  0  0  0  0  0  0  0
   -0.9409    0.9018    1.8512 H   0  0  0  0  0  0  0  0  0  0  0  0
   -1.4782   -1.7294    1.0915 H   0  0  0  0  0  0  0  0  0  0  0  0
   -0.7731   -1.1727   -1.5650 H   0  0  0  0  0  0  0  0  0  0  0  0
   -2.1954   -0.1245   -1.0895 H   0  0  0  0  0  0  0  0  0  0  0  0
    0.6399   -0.1247    1.6316 H   0  0  0  0  0  0  0  0  0  0  0  0
    0.9835   -1.8879   -0.9366 H   0  0  0  0  0  0  0  0  0  0  0  0
    1.8839   -2.0139    0.6454 H   0  0  0  0  0  0  0  0  0  0  0  0
    2.6567    0.1693    0.1506 H   0  0  0  0  0  0  0  0  0  0  0  0
  1  2  3  0
  2  3  1  0
  3  4  1  0
  4  5  1  0
  5  6  1  0
  5  7  1  0
  7  8  1  0
  8  9  1  0
  6  3  1  0
  7  3  1  0
  1 10  1  0
  4 11  1  0
  4 12  1  0
  5 13  1  0
  6 14  1  0
  6 15  1  0
  7 16  1  0
  8 17  1  0
  8 18  1  0
  9 19  1  0
M  END
