
     RDKit          3D

 21 21  0  0  0  0  0  0  0  0999 V2000
    2.5737    1.4036    1.6483 C   0  0  0  0  0  0  0  0  0  0  0  0
    1.6645    1.1491    0.7302 C   0  0  0  0  0  0  0  0  0  0  0  0
    0.4466    0.8387   -0.5005 C   0  0  0  0  0  0  0  0  0  0  0  0
    0.3247    2.0873   -0.8763 O   0  0  0  0  0  0  0  0  0  0  0  0
    1.1192   -0.2784   -0.9695 C   0  0  0  0  0  0  0  0  0  0  0  0
   -0.0097   -1.2669   -0.9414 C   0  0  0  0  0  0  0  0  0  0  0  0
   -0.9029   -0.8565    0.2877 C   0  0  0  0  0  0  0  0  0  0  0  0
   -2.3274   -1.0783   -0.0615 C   0  0  0  0  0  0  0  0  0  0  0  0
   -0.5546    0.5212    0.6385 C   0  0  0  0  0  0  0  0  0  0  0  0
    3.5216    1.6677    2.5923 H   0  0  0  0  0  0  0  0  0  0  0  0
    1.2238    2.6026   -0.7663 H   0  0  0  0  0  0  0  0  0  0  0  0
    1.6568   -0.1482   -1.9774 H   0  0  0  0  0  0  0  0  0  0  0  0
    1.9719   -0.6258   -0.2904 H   0  0  0  0  0  0  0  0  0  0  0  0
   -0.5732   -1.2851   -1.9347 H   0  0  0  0  0  0  0  0  0  0  0  0
    0.3011   -2.3369   -0.7247 H   0  0  0  0  0  0  0  0  0  0  0  0
   -0.5197   -1.4754    1.1422 H   0  0  0  0  0  0  0  0  0  0  0  0
   -2.8432   -0.0642    0.3534 H   0  0  0  0  0  0  0  0  0  0  0  0
   -2.8430   -1.8533    0.4653 H   0  0  0  0  0  0  0  0  0  0  0  0
   -2.6403   -0.9806   -1.1391 H   0  0  0  0  0  0  0  0  0  0  0  0
   -1.4338    1.2551    0.6513 H   0  0  0  0  0  0  0  0  0  0  0  0
   -0.1562    0.7243    1.6726 H   0  0  0  0  0  0  0  0  0  0  0  0
  1  2  3  0
  2  3  1  0
  3  4  1  0
  3  5  1  0
  5  6  1  0
  6  7  1  0
  7  8  1  0
  7  9  1  0
  9  3  1  0
  1 10  1  0
  4 11  1  0
  5 12  1  0
  5 13  1  0
  6 14  1  0
  6 15  1  0
  7 16  1  0
  8 17  1  0
  8 18  1  0
  8 19  1  0
  9 20  1  0
  9 21  1  0
M  END
