
     RDKit          3D

 16 16  0  0  0  0  0  0  0  0999 V2000
    1.8524    1.6679    1.5103 C   0  0  0  0  0  0  0  0  0  0  0  0
    1.3503    0.4942    1.0379 C   0  0  0  0  0  0  0  0  0  0  0  0
    0.9303   -0.4616    0.6624 C   0  0  0  0  0  0  0  0  0  0  0  0
    1.0010   -0.8449   -0.7886 O   0  0  0  0  0  0  0  0  0  0  0  0
   -0.0955   -1.5598   -0.5839 C   0  0  0  0  0  0  0  0  0  0  0  0
   -0.6315   -0.6291    0.4064 C   0  0  0  0  0  0  0  0  0  0  0  0
   -1.2651    0.6464   -0.0911 C   0  0  0  0  0  0  0  0  0  0  0  0
   -0.6525    1.1026   -1.2408 O   0  0  0  0  0  0  0  0  0  0  0  0
    2.3121    2.7458    1.9541 H   0  0  0  0  0  0  0  0  0  0  0  0
    1.1154   -1.5610    1.0953 H   0  0  0  0  0  0  0  0  0  0  0  0
    0.1787   -2.5844   -0.1471 H   0  0  0  0  0  0  0  0  0  0  0  0
   -0.8394   -1.6666   -1.4344 H   0  0  0  0  0  0  0  0  0  0  0  0
   -1.1121   -1.0249    1.3040 H   0  0  0  0  0  0  0  0  0  0  0  0
   -2.2806    0.2772   -0.5213 H   0  0  0  0  0  0  0  0  0  0  0  0
   -1.5087    1.3337    0.7091 H   0  0  0  0  0  0  0  0  0  0  0  0
   -0.3549    2.0645   -1.2041 H   0  0  0  0  0  0  0  0  0  0  0  0
  1  2  3  0
  2  3  1  0
  3  4  1  0
  4  5  1  0
  5  6  1  0
  6  7  1  0
  7  8  1  0
  6  3  1  0
  1  9  1  0
  3 10  1  0
  5 11  1  0
  5 12  1  0
  6 13  1  0
  7 14  1  0
  7 15  1  0
  8 16  1  0
M  END
