
     RDKit          3D

 19 20  0  0  0  0  0  0  0  0999 V2000
    1.9106   -0.9278    2.2055 C   0  0  0  0  0  0  0  0  0  0  0  0
    1.3453   -1.2984    1.1976 C   0  0  0  0  0  0  0  0  0  0  0  0
    0.6831   -1.7395   -0.0295 C   0  0  0  0  0  0  0  0  0  0  0  0
    1.6070   -2.0528   -1.0341 O   0  0  0  0  0  0  0  0  0  0  0  0
   -0.3024   -0.7068   -0.4509 C   0  0  0  0  0  0  0  0  0  0  0  0
    0.1863    0.6577   -0.7498 C   0  0  0  0  0  0  0  0  0  0  0  0
   -0.7264    1.8197   -0.9379 C   0  0  0  0  0  0  0  0  0  0  0  0
   -1.7095    1.3153    0.1064 C   0  0  0  0  0  0  0  0  0  0  0  0
   -0.6370    0.3385    0.5372 C   0  0  0  0  0  0  0  0  0  0  0  0
    2.3901   -0.6224    3.0819 H   0  0  0  0  0  0  0  0  0  0  0  0
    0.1026   -2.6735    0.2260 H   0  0  0  0  0  0  0  0  0  0  0  0
    1.1224   -1.8993   -1.9032 H   0  0  0  0  0  0  0  0  0  0  0  0
   -1.1974   -1.1202   -1.0037 H   0  0  0  0  0  0  0  0  0  0  0  0
    1.2562    0.8293   -0.6272 H   0  0  0  0  0  0  0  0  0  0  0  0
   -0.2663    2.7618   -0.5575 H   0  0  0  0  0  0  0  0  0  0  0  0
   -1.1406    1.9928   -1.9346 H   0  0  0  0  0  0  0  0  0  0  0  0
   -2.0219    2.0547    0.8445 H   0  0  0  0  0  0  0  0  0  0  0  0
   -2.5340    0.7647   -0.4227 H   0  0  0  0  0  0  0  0  0  0  0  0
   -0.0679    0.5062    1.4519 H   0  0  0  0  0  0  0  0  0  0  0  0
  1  2  3  0
  2  3  1  0
  3  4  1  0
  3  5  1  0
  5  6  1  0
  6  7  1  0
  7  8  1  0
  8  9  1  0
  9  5  1  0
  9  6  1  0
  1 10  1  0
  3 11  1  0
  4 12  1  0
  5 13  1  0
  6 14  1  0
  7 15  1  0
  7 16  1  0
  8 17  1  0
  8 18  1  0
  9 19  1  0
M  END
