
     RDKit          3D

 17 19  0  0  0  0  0  0  0  0999 V2000
    2.8370   -0.0974    2.0147 C   0  0  0  0  0  0  0  0  0  0  0  0
    1.8712    0.2022    1.3506 C   0  0  0  0  0  0  0  0  0  0  0  0
    0.7123    0.5629    0.5726 C   0  0  0  0  0  0  0  0  0  0  0  0
    1.1292    0.9366   -0.7039 O   0  0  0  0  0  0  0  0  0  0  0  0
    0.0888    0.5700   -1.5800 C   0  0  0  0  0  0  0  0  0  0  0  0
   -1.2994    0.4605   -1.1024 C   0  0  0  0  0  0  0  0  0  0  0  0
   -1.6721    0.0366    0.2765 C   0  0  0  0  0  0  0  0  0  0  0  0
   -0.2761   -0.5708    0.4053 C   0  0  0  0  0  0  0  0  0  0  0  0
   -0.2950   -0.7387   -1.0818 C   0  0  0  0  0  0  0  0  0  0  0  0
    3.6835   -0.3508    2.6145 H   0  0  0  0  0  0  0  0  0  0  0  0
    0.2104    1.4808    0.9999 H   0  0  0  0  0  0  0  0  0  0  0  0
    0.2411    0.8497   -2.6147 H   0  0  0  0  0  0  0  0  0  0  0  0
   -2.0867    0.4389   -1.8466 H   0  0  0  0  0  0  0  0  0  0  0  0
   -2.4050   -0.8005    0.2520 H   0  0  0  0  0  0  0  0  0  0  0  0
   -1.8983    0.8300    1.0096 H   0  0  0  0  0  0  0  0  0  0  0  0
   -0.1740   -1.4345    1.0356 H   0  0  0  0  0  0  0  0  0  0  0  0
   -0.6670   -1.5867   -1.6019 H   0  0  0  0  0  0  0  0  0  0  0  0
  1  2  3  0
  2  3  1  0
  3  4  1  0
  4  5  1  0
  5  6  1  0
  6  7  1  0
  7  8  1  0
  8  9  1  0
  8  3  1  0
  9  5  1  0
  9  6  1  0
  1 10  1  0
  3 11  1  0
  5 12  1  0
  6 13  1  0
  7 14  1  0
  7 15  1  0
  8 16  1  0
  9 17  1  0
M  END
