
     RDKit          3D

 21 22  0  0  0  0  0  0  0  0999 V2000
    2.4594   -1.8729    0.4436 C   0  0  0  0  0  0  0  0  0  0  0  0
    1.6542   -0.9910    0.6229 C   0  0  0  0  0  0  0  0  0  0  0  0
    0.6544    0.0834    0.8214 C   0  0  0  0  0  0  0  0  0  0  0  0
    1.1368    1.2773    0.0533 C   0  0  0  0  0  0  0  0  0  0  0  0
   -0.0794    1.7320   -0.6959 C   0  0  0  0  0  0  0  0  0  0  0  0
   -0.9385    0.5479   -0.9488 C   0  0  0  0  0  0  0  0  0  0  0  0
   -0.4513   -0.7928   -1.2644 C   0  0  0  0  0  0  0  0  0  0  0  0
   -0.6123   -0.3907    0.1455 C   0  0  0  0  0  0  0  0  0  0  0  0
   -1.7801   -0.7973    0.9797 C   0  0  0  0  0  0  0  0  0  0  0  0
    3.1734   -2.6364    0.2728 H   0  0  0  0  0  0  0  0  0  0  0  0
    0.5331    0.2634    1.8937 H   0  0  0  0  0  0  0  0  0  0  0  0
    1.4660    2.0830    0.7285 H   0  0  0  0  0  0  0  0  0  0  0  0
    1.9833    1.0168   -0.6456 H   0  0  0  0  0  0  0  0  0  0  0  0
   -0.6434    2.4157    0.0051 H   0  0  0  0  0  0  0  0  0  0  0  0
    0.1595    2.3397   -1.5835 H   0  0  0  0  0  0  0  0  0  0  0  0
   -1.9939    0.7936   -1.2186 H   0  0  0  0  0  0  0  0  0  0  0  0
   -1.1681   -1.5084   -1.6820 H   0  0  0  0  0  0  0  0  0  0  0  0
    0.5864   -0.9499   -1.6597 H   0  0  0  0  0  0  0  0  0  0  0  0
   -2.4792    0.0592    1.0452 H   0  0  0  0  0  0  0  0  0  0  0  0
   -2.2610   -1.7351    0.6528 H   0  0  0  0  0  0  0  0  0  0  0  0
   -1.3993   -0.9375    2.0339 H   0  0  0  0  0  0  0  0  0  0  0  0
  1  2  3  0
  2  3  1  0
  3  4  1  0
  4  5  1  0
  5  6  1  0
  6  7  1  0
  7  8  1  0
  8  9  1  0
  8  3  1  0
  8  6  1  0
  1 10  1  0
  3 11  1  0
  4 12  1  0
  4 13  1  0
  5 14  1  0
  5 15  1  0
  6 16  1  0
  7 17  1  0
  7 18  1  0
  9 19  1  0
  9 20  1  0
  9 21  1  0
M  END
