
     RDKit          3D

 15 16  0  0  0  0  0  0  0  0999 V2000
    2.6168   -1.8500    1.7153 C   0  0  0  0  0  0  0  0  0  0  0  0
    1.1973   -0.7798    0.8886 C   0  0  0  0  0  0  0  0  0  0  0  0
    0.2406   -0.0642    0.3191 C   0  0  0  0  0  0  0  0  0  0  0  0
   -0.1267    1.2367    0.9887 C   0  0  0  0  0  0  0  0  0  0  0  0
   -1.0694    1.5600   -0.1924 C   0  0  0  0  0  0  0  0  0  0  0  0
   -1.1009    0.3837   -1.0734 C   0  0  0  0  0  0  0  0  0  0  0  0
   -2.2162    0.0909   -1.7590 O   0  0  0  0  0  0  0  0  0  0  0  0
    0.3370   -0.1794   -1.1431 C   0  0  0  0  0  0  0  0  0  0  0  0
    1.4181    0.6289   -0.5607 O   0  0  0  0  0  0  0  0  0  0  0  0
    3.5943   -2.5747    2.2638 H   0  0  0  0  0  0  0  0  0  0  0  0
   -0.0871    1.8831    1.7011 H   0  0  0  0  0  0  0  0  0  0  0  0
   -1.4244    2.5345   -0.1649 H   0  0  0  0  0  0  0  0  0  0  0  0
   -1.4193   -0.5634   -0.0729 H   0  0  0  0  0  0  0  0  0  0  0  0
   -2.4450   -0.9474   -1.5432 H   0  0  0  0  0  0  0  0  0  0  0  0
    0.4849   -1.3588   -1.3670 H   0  0  0  0  0  0  0  0  0  0  0  0
  1  2  3  0
  2  3  1  0
  3  4  1  0
  4  5  2  0
  5  6  1  0
  6  7  1  0
  6  8  1  0
  8  9  1  0
  8  3  1  0
  9  3  1  0
  1 10  1  0
  4 11  1  0
  5 12  1  0
  6 13  1  0
  7 14  1  0
  8 15  1  0
M  END
