
     RDKit          3D

 19 19  0  0  0  0  0  0  0  0999 V2000
    3.4041   -1.7329    0.6991 C   0  0  0  0  0  0  0  0  0  0  0  0
    2.4430   -1.0834    0.8898 C   0  0  0  0  0  0  0  0  0  0  0  0
    1.2604   -0.2841    1.1499 C   0  0  0  0  0  0  0  0  0  0  0  0
    0.7549    0.2915   -0.1490 C   0  0  0  0  0  0  0  0  0  0  0  0
   -0.4988    1.0860    0.2300 C   0  0  0  0  0  0  0  0  0  0  0  0
   -1.5527    0.1705    0.8721 C   0  0  0  0  0  0  0  0  0  0  0  0
   -1.7870    0.8829   -0.4382 C   0  0  0  0  0  0  0  0  0  0  0  0
   -1.9495    0.0544   -1.6492 C   0  0  0  0  0  0  0  0  0  0  0  0
   -2.8665    0.2380   -2.4137 O   0  0  0  0  0  0  0  0  0  0  0  0
    4.3329   -2.3548    0.5090 H   0  0  0  0  0  0  0  0  0  0  0  0
    1.5115    0.5543    1.8572 H   0  0  0  0  0  0  0  0  0  0  0  0
    0.4645   -0.8729    1.6889 H   0  0  0  0  0  0  0  0  0  0  0  0
    1.5352    0.9948   -0.5253 H   0  0  0  0  0  0  0  0  0  0  0  0
    0.4787   -0.4958   -0.8654 H   0  0  0  0  0  0  0  0  0  0  0  0
   -0.2615    2.0300    0.7421 H   0  0  0  0  0  0  0  0  0  0  0  0
   -1.3919   -0.9407    0.8354 H   0  0  0  0  0  0  0  0  0  0  0  0
   -2.0525    0.5080    1.8008 H   0  0  0  0  0  0  0  0  0  0  0  0
   -2.5648    1.6982   -0.3100 H   0  0  0  0  0  0  0  0  0  0  0  0
   -1.2600   -0.7440   -1.8981 H   0  0  0  0  0  0  0  0  0  0  0  0
  1  2  3  0
  2  3  1  0
  3  4  1  0
  4  5  1  0
  5  6  1  0
  6  7  1  0
  7  8  1  0
  8  9  2  0
  7  5  1  0
  1 10  1  0
  3 11  1  0
  3 12  1  0
  4 13  1  0
  4 14  1  0
  5 15  1  0
  6 16  1  0
  6 17  1  0
  7 18  1  0
  8 19  1  0
M  END
