
     RDKit          3D

 17 19  0  0  0  0  0  0  0  0999 V2000
    3.3672    0.7334   -0.5574 C   0  0  0  0  0  0  0  0  0  0  0  0
    2.2380    0.4683   -0.2311 C   0  0  0  0  0  0  0  0  0  0  0  0
    0.9007    0.1290    0.1611 C   0  0  0  0  0  0  0  0  0  0  0  0
    0.5215    0.3263    1.4792 O   0  0  0  0  0  0  0  0  0  0  0  0
   -0.8404    0.2499    1.5725 C   0  0  0  0  0  0  0  0  0  0  0  0
   -1.4144    0.2727    0.1712 C   0  0  0  0  0  0  0  0  0  0  0  0
   -1.3075   -1.1148   -0.4537 C   0  0  0  0  0  0  0  0  0  0  0  0
    0.1497   -0.8395   -0.6848 C   0  0  0  0  0  0  0  0  0  0  0  0
   -0.2053    0.6508   -0.6223 C   0  0  0  0  0  0  0  0  0  0  0  0
    4.3699    0.9861   -0.8568 H   0  0  0  0  0  0  0  0  0  0  0  0
   -1.2818    1.0553    2.1930 H   0  0  0  0  0  0  0  0  0  0  0  0
   -1.1622   -0.7161    2.0580 H   0  0  0  0  0  0  0  0  0  0  0  0
   -2.3405    0.8081    0.0154 H   0  0  0  0  0  0  0  0  0  0  0  0
   -1.8799   -1.1219   -1.4038 H   0  0  0  0  0  0  0  0  0  0  0  0
   -1.5291   -1.9410    0.2516 H   0  0  0  0  0  0  0  0  0  0  0  0
    0.6136   -1.2082   -1.6016 H   0  0  0  0  0  0  0  0  0  0  0  0
   -0.1994    1.2615   -1.4906 H   0  0  0  0  0  0  0  0  0  0  0  0
  1  2  3  0
  2  3  1  0
  3  4  1  0
  4  5  1  0
  5  6  1  0
  6  7  1  0
  7  8  1  0
  8  9  1  0
  8  3  1  0
  9  3  1  0
  9  6  1  0
  1 10  1  0
  5 11  1  0
  5 12  1  0
  6 13  1  0
  7 14  1  0
  7 15  1  0
  8 16  1  0
  9 17  1  0
M  END
