
     RDKit          3D

 23 23  0  0  0  0  0  0  0  0999 V2000
   -0.7990    2.9144    0.6497 C   0  0  0  0  0  0  0  0  0  0  0  0
   -0.7965    1.7225    0.4530 C   0  0  0  0  0  0  0  0  0  0  0  0
   -0.7677    0.2606    0.2111 C   0  0  0  0  0  0  0  0  0  0  0  0
    0.6232   -0.2258   -0.2090 C   0  0  0  0  0  0  0  0  0  0  0  0
    1.5988    0.1082    0.9099 C   0  0  0  0  0  0  0  0  0  0  0  0
    0.6439   -1.7362   -0.3230 C   0  0  0  0  0  0  0  0  0  0  0  0
    1.0558    0.4473   -1.4904 C   0  0  0  0  0  0  0  0  0  0  0  0
   -1.9514   -0.3098   -0.4306 C   0  0  0  0  0  0  0  0  0  0  0  0
   -1.6336   -0.6094    1.0223 C   0  0  0  0  0  0  0  0  0  0  0  0
   -0.7833    3.9597    0.8272 H   0  0  0  0  0  0  0  0  0  0  0  0
    2.1869    0.9987    0.5915 H   0  0  0  0  0  0  0  0  0  0  0  0
    1.0458    0.3166    1.8660 H   0  0  0  0  0  0  0  0  0  0  0  0
    2.2941   -0.7263    1.1282 H   0  0  0  0  0  0  0  0  0  0  0  0
    0.6312   -2.1274    0.7165 H   0  0  0  0  0  0  0  0  0  0  0  0
    1.6334   -1.9839   -0.8045 H   0  0  0  0  0  0  0  0  0  0  0  0
   -0.1239   -2.1442   -0.9751 H   0  0  0  0  0  0  0  0  0  0  0  0
    0.1893    0.7738   -2.1011 H   0  0  0  0  0  0  0  0  0  0  0  0
    1.6452   -0.2976   -2.0659 H   0  0  0  0  0  0  0  0  0  0  0  0
    1.6679    1.3352   -1.2708 H   0  0  0  0  0  0  0  0  0  0  0  0
   -1.9222   -1.1933   -1.1018 H   0  0  0  0  0  0  0  0  0  0  0  0
   -2.8222    0.3744   -0.6213 H   0  0  0  0  0  0  0  0  0  0  0  0
   -1.2716   -1.6368    1.2614 H   0  0  0  0  0  0  0  0  0  0  0  0
   -2.3441   -0.2210    1.7568 H   0  0  0  0  0  0  0  0  0  0  0  0
  1  2  3  0
  2  3  1  0
  3  4  1  0
  4  5  1  0
  4  6  1  0
  4  7  1  0
  3  8  1  0
  8  9  1  0
  9  3  1  0
  1 10  1  0
  5 11  1  0
  5 12  1  0
  5 13  1  0
  6 14  1  0
  6 15  1  0
  6 16  1  0
  7 17  1  0
  7 18  1  0
  7 19  1  0
  8 20  1  0
  8 21  1  0
  9 22  1  0
  9 23  1  0
M  END
