
     RDKit          3D

 19 21  0  0  0  0  0  0  0  0999 V2000
    2.9894   -1.2396   -0.1743 C   0  0  0  0  0  0  0  0  0  0  0  0
    1.9088   -0.7373   -0.1672 C   0  0  0  0  0  0  0  0  0  0  0  0
    0.5994   -0.1443   -0.1793 C   0  0  0  0  0  0  0  0  0  0  0  0
   -0.4629   -0.8474   -0.9761 C   0  0  0  0  0  0  0  0  0  0  0  0
   -1.7248   -0.7121   -0.1624 C   0  0  0  0  0  0  0  0  0  0  0  0
   -1.4363    0.3601    0.8713 C   0  0  0  0  0  0  0  0  0  0  0  0
   -0.5061    1.4681    0.5888 C   0  0  0  0  0  0  0  0  0  0  0  0
    0.5526    1.3495   -0.4810 C   0  0  0  0  0  0  0  0  0  0  0  0
   -0.0192    0.1920    1.1408 C   0  0  0  0  0  0  0  0  0  0  0  0
    3.9636   -1.7035   -0.1816 H   0  0  0  0  0  0  0  0  0  0  0  0
   -0.2222   -1.8783   -1.2300 H   0  0  0  0  0  0  0  0  0  0  0  0
   -0.5853   -0.3028   -1.9582 H   0  0  0  0  0  0  0  0  0  0  0  0
   -1.8143   -1.6727    0.4264 H   0  0  0  0  0  0  0  0  0  0  0  0
   -2.6210   -0.5221   -0.7521 H   0  0  0  0  0  0  0  0  0  0  0  0
   -2.1216    0.4821    1.7008 H   0  0  0  0  0  0  0  0  0  0  0  0
   -0.5849    2.3709    1.1969 H   0  0  0  0  0  0  0  0  0  0  0  0
    0.1221    1.5995   -1.4740 H   0  0  0  0  0  0  0  0  0  0  0  0
    1.4984    1.8834   -0.2730 H   0  0  0  0  0  0  0  0  0  0  0  0
    0.4645    0.0544    2.0843 H   0  0  0  0  0  0  0  0  0  0  0  0
  1  2  3  0
  2  3  1  0
  3  4  1  0
  4  5  1  0
  5  6  1  0
  6  7  1  0
  7  8  1  0
  7  9  1  0
  8  3  1  0
  9  3  1  0
  9  6  1  0
  1 10  1  0
  4 11  1  0
  4 12  1  0
  5 13  1  0
  5 14  1  0
  6 15  1  0
  7 16  1  0
  8 17  1  0
  8 18  1  0
  9 19  1  0
M  END
