
     RDKit          3D

 14 13  0  0  0  0  0  0  0  0999 V2000
    2.4232    1.5048   -0.6933 C   0  0  0  0  0  0  0  0  0  0  0  0
    1.7758    0.4904   -0.7727 C   0  0  0  0  0  0  0  0  0  0  0  0
    0.9943   -0.7540   -0.8932 C   0  0  0  0  0  0  0  0  0  0  0  0
   -0.3845   -0.4782   -0.3718 C   0  0  0  0  0  0  0  0  0  0  0  0
   -0.3690   -0.0757    0.9648 O   0  0  0  0  0  0  0  0  0  0  0  0
   -1.6945    0.1567    1.3576 C   0  0  0  0  0  0  0  0  0  0  0  0
    2.9901    2.4087   -0.6394 H   0  0  0  0  0  0  0  0  0  0  0  0
    1.4237   -1.5695   -0.2765 H   0  0  0  0  0  0  0  0  0  0  0  0
    0.8850   -1.0517   -1.9621 H   0  0  0  0  0  0  0  0  0  0  0  0
   -0.9888    0.1810   -1.0090 H   0  0  0  0  0  0  0  0  0  0  0  0
   -0.9095   -1.4805   -0.3697 H   0  0  0  0  0  0  0  0  0  0  0  0
   -1.7404    0.4779    2.4081 H   0  0  0  0  0  0  0  0  0  0  0  0
   -2.2681   -0.7899    1.2303 H   0  0  0  0  0  0  0  0  0  0  0  0
   -2.1373    0.9799    0.7492 H   0  0  0  0  0  0  0  0  0  0  0  0
  1  2  3  0
  2  3  1  0
  3  4  1  0
  4  5  1  0
  5  6  1  0
  1  7  1  0
  3  8  1  0
  3  9  1  0
  4 10  1  0
  4 11  1  0
  6 12  1  0
  6 13  1  0
  6 14  1  0
M  END
