
     RDKit          3D

 19 20  0  0  0  0  0  0  0  0999 V2000
    0.9998   -1.4457   -2.5256 C   0  0  0  0  0  0  0  0  0  0  0  0
    0.8358   -0.3980   -1.6092 C   0  0  0  0  0  0  0  0  0  0  0  0
    0.6697    0.6237   -0.6835 C   0  0  0  0  0  0  0  0  0  0  0  0
   -0.7010    1.2392   -0.7607 C   0  0  0  0  0  0  0  0  0  0  0  0
   -1.8582    0.5220   -0.2927 C   0  0  0  0  0  0  0  0  0  0  0  0
   -0.8741    0.8395    0.7419 C   0  0  0  0  0  0  0  0  0  0  0  0
    0.4601    0.1959    0.7499 C   0  0  0  0  0  0  0  0  0  0  0  0
    0.4202   -1.3083    0.8257 C   0  0  0  0  0  0  0  0  0  0  0  0
    1.3880    0.7414    1.6399 O   0  0  0  0  0  0  0  0  0  0  0  0
    1.1128   -2.1267   -3.1414 H   0  0  0  0  0  0  0  0  0  0  0  0
    1.5032    1.4068   -0.7099 H   0  0  0  0  0  0  0  0  0  0  0  0
   -0.6903    2.3354   -0.9507 H   0  0  0  0  0  0  0  0  0  0  0  0
   -2.8462    1.0366   -0.3466 H   0  0  0  0  0  0  0  0  0  0  0  0
   -2.0353   -0.5696   -0.5625 H   0  0  0  0  0  0  0  0  0  0  0  0
   -1.0302    1.7450    1.4054 H   0  0  0  0  0  0  0  0  0  0  0  0
   -0.5204   -1.6728    1.3289 H   0  0  0  0  0  0  0  0  0  0  0  0
    0.5178   -1.7369   -0.1653 H   0  0  0  0  0  0  0  0  0  0  0  0
    1.2345   -1.6205    1.5387 H   0  0  0  0  0  0  0  0  0  0  0  0
    1.4138    0.1931    2.4621 H   0  0  0  0  0  0  0  0  0  0  0  0
  1  2  3  0
  2  3  1  0
  3  4  1  0
  4  5  1  0
  5  6  1  0
  6  7  1  0
  7  8  1  0
  7  9  1  0
  7  3  1  0
  6  4  1  0
  1 10  1  0
  3 11  1  0
  4 12  1  0
  5 13  1  0
  5 14  1  0
  6 15  1  0
  8 16  1  0
  8 17  1  0
  8 18  1  0
  9 19  1  0
M  END
