
     RDKit          3D

 15 15  0  0  0  0  0  0  0  0999 V2000
   -3.1391   -0.6607    1.9012 C   0  0  0  0  0  0  0  0  0  0  0  0
   -2.6173   -0.3388    0.8769 C   0  0  0  0  0  0  0  0  0  0  0  0
   -1.9663    0.0369   -0.4004 C   0  0  0  0  0  0  0  0  0  0  0  0
   -2.1460   -0.9263   -1.3653 O   0  0  0  0  0  0  0  0  0  0  0  0
   -0.5090    0.1415   -0.1464 C   0  0  0  0  0  0  0  0  0  0  0  0
    0.6692    0.2300    0.0799 C   0  0  0  0  0  0  0  0  0  0  0  0
    2.1127    0.3228    0.3460 C   0  0  0  0  0  0  0  0  0  0  0  0
    3.0439   -0.3690   -0.4994 C   0  0  0  0  0  0  0  0  0  0  0  0
    2.8542    0.9947   -0.7561 O   0  0  0  0  0  0  0  0  0  0  0  0
   -3.5926   -0.9447    2.7912 H   0  0  0  0  0  0  0  0  0  0  0  0
   -2.3951    1.0106   -0.6824 H   0  0  0  0  0  0  0  0  0  0  0  0
   -1.5390   -0.7152   -2.1144 H   0  0  0  0  0  0  0  0  0  0  0  0
    2.4555    0.7027    1.3276 H   0  0  0  0  0  0  0  0  0  0  0  0
    2.7070   -1.1008   -1.2562 H   0  0  0  0  0  0  0  0  0  0  0  0
    4.0620   -0.5865   -0.1022 H   0  0  0  0  0  0  0  0  0  0  0  0
  1  2  3  0
  2  3  1  0
  3  4  1  0
  3  5  1  0
  5  6  3  0
  6  7  1  0
  7  8  1  0
  8  9  1  0
  9  7  1  0
  1 10  1  0
  3 11  1  0
  4 12  1  0
  7 13  1  0
  8 14  1  0
  8 15  1  0
M  END
