
     RDKit          3D

 15 15  0  0  0  0  0  0  0  0999 V2000
   -0.6232    2.0460   -1.3870 C   0  0  0  0  0  0  0  0  0  0  0  0
   -0.2240    1.0692   -0.8042 C   0  0  0  0  0  0  0  0  0  0  0  0
    0.2500   -0.1322   -0.1135 C   0  0  0  0  0  0  0  0  0  0  0  0
    1.7179   -0.3224   -0.3124 C   0  0  0  0  0  0  0  0  0  0  0  0
   -0.1404   -0.0942    1.3545 C   0  0  0  0  0  0  0  0  0  0  0  0
   -1.4932   -0.5194    1.2865 O   0  0  0  0  0  0  0  0  0  0  0  0
   -1.7232   -1.1609    0.0614 C   0  0  0  0  0  0  0  0  0  0  0  0
   -2.8634   -1.5527   -0.3098 O   0  0  0  0  0  0  0  0  0  0  0  0
   -0.5013   -1.2547   -0.5916 O   0  0  0  0  0  0  0  0  0  0  0  0
   -0.9710    2.9163   -1.9138 H   0  0  0  0  0  0  0  0  0  0  0  0
    1.9479   -0.2129   -1.3753 H   0  0  0  0  0  0  0  0  0  0  0  0
    2.2788    0.3571    0.3485 H   0  0  0  0  0  0  0  0  0  0  0  0
    1.9660   -1.3611    0.0232 H   0  0  0  0  0  0  0  0  0  0  0  0
    0.4869   -0.7304    1.9825 H   0  0  0  0  0  0  0  0  0  0  0  0
   -0.1077    0.9522    1.7510 H   0  0  0  0  0  0  0  0  0  0  0  0
  1  2  3  0
  2  3  1  0
  3  4  1  0
  3  5  1  0
  5  6  1  0
  6  7  1  0
  7  8  2  0
  7  9  1  0
  9  3  1  0
  1 10  1  0
  4 11  1  0
  4 12  1  0
  4 13  1  0
  5 14  1  0
  5 15  1  0
M  END
