
     RDKit          3D

 19 20  0  0  0  0  0  0  0  0999 V2000
   -2.5260   -0.9983   -1.5235 C   0  0  0  0  0  0  0  0  0  0  0  0
   -1.6772   -0.8618   -0.6545 C   0  0  0  0  0  0  0  0  0  0  0  0
   -0.9084   -0.7423    0.1444 C   0  0  0  0  0  0  0  0  0  0  0  0
    0.1019   -1.8584    0.5558 C   0  0  0  0  0  0  0  0  0  0  0  0
    0.0489    0.4650    0.0426 C   0  0  0  0  0  0  0  0  0  0  0  0
    0.9043    0.9180   -0.9967 C   0  0  0  0  0  0  0  0  0  0  0  0
    1.5674    1.3267    0.2728 C   0  0  0  0  0  0  0  0  0  0  0  0
    0.2649    1.6086    0.8714 C   0  0  0  0  0  0  0  0  0  0  0  0
    1.3673    0.0289    0.6808 O   0  0  0  0  0  0  0  0  0  0  0  0
   -3.4949   -1.1321   -2.4953 H   0  0  0  0  0  0  0  0  0  0  0  0
   -1.3129   -0.4429    1.2664 H   0  0  0  0  0  0  0  0  0  0  0  0
    1.1026   -1.7119    0.0756 H   0  0  0  0  0  0  0  0  0  0  0  0
    0.3368   -1.6367    1.6674 H   0  0  0  0  0  0  0  0  0  0  0  0
   -0.2533   -2.8391    0.4132 H   0  0  0  0  0  0  0  0  0  0  0  0
    1.5196    0.1616   -1.5896 H   0  0  0  0  0  0  0  0  0  0  0  0
    0.5358    1.7371   -1.6074 H   0  0  0  0  0  0  0  0  0  0  0  0
    2.4397    1.9016    0.3365 H   0  0  0  0  0  0  0  0  0  0  0  0
   -0.1518    2.6128    0.5693 H   0  0  0  0  0  0  0  0  0  0  0  0
    0.1353    1.4633    1.9709 H   0  0  0  0  0  0  0  0  0  0  0  0
  1  2  3  0
  2  3  1  0
  3  4  1  0
  3  5  1  0
  5  6  1  0
  6  7  1  0
  7  8  1  0
  7  9  1  0
  8  5  1  0
  9  5  1  0
  1 10  1  0
  3 11  1  0
  4 12  1  0
  4 13  1  0
  4 14  1  0
  6 15  1  0
  6 16  1  0
  7 17  1  0
  8 18  1  0
  8 19  1  0
M  END
