
     RDKit          3D

 18 18  0  0  0  0  0  0  0  0999 V2000
    2.1724    1.9981   -0.2386 C   0  0  0  0  0  0  0  0  0  0  0  0
    1.5606    0.9674   -0.4051 C   0  0  0  0  0  0  0  0  0  0  0  0
    0.8016   -0.2718   -0.6041 C   0  0  0  0  0  0  0  0  0  0  0  0
    1.5257   -1.5041   -0.0563 C   0  0  0  0  0  0  0  0  0  0  0  0
    0.2766   -1.9680    0.3522 O   0  0  0  0  0  0  0  0  0  0  0  0
   -0.0784   -0.6114    0.5473 C   0  0  0  0  0  0  0  0  0  0  0  0
   -1.5578   -0.4635    0.3150 C   0  0  0  0  0  0  0  0  0  0  0  0
   -1.9622    0.9313   -0.0459 C   0  0  0  0  0  0  0  0  0  0  0  0
    2.7089    2.9066   -0.0822 H   0  0  0  0  0  0  0  0  0  0  0  0
    0.3458   -0.4029   -1.5830 H   0  0  0  0  0  0  0  0  0  0  0  0
    2.1544   -1.2301    0.8136 H   0  0  0  0  0  0  0  0  0  0  0  0
    2.0255   -2.0664   -0.8435 H   0  0  0  0  0  0  0  0  0  0  0  0
    0.2713   -0.2549    1.5320 H   0  0  0  0  0  0  0  0  0  0  0  0
   -1.8821   -1.1901   -0.4390 H   0  0  0  0  0  0  0  0  0  0  0  0
   -2.0820   -0.7335    1.2625 H   0  0  0  0  0  0  0  0  0  0  0  0
   -2.4451    1.4840    0.7999 H   0  0  0  0  0  0  0  0  0  0  0  0
   -1.1191    1.5384   -0.4684 H   0  0  0  0  0  0  0  0  0  0  0  0
   -2.7160    0.8708   -0.8565 H   0  0  0  0  0  0  0  0  0  0  0  0
  1  2  3  0
  2  3  1  0
  3  4  1  0
  4  5  1  0
  5  6  1  0
  6  7  1  0
  7  8  1  0
  6  3  1  0
  1  9  1  0
  3 10  1  0
  4 11  1  0
  4 12  1  0
  6 13  1  0
  7 14  1  0
  7 15  1  0
  8 16  1  0
  8 17  1  0
  8 18  1  0
M  END
