
     RDKit          3D

 19 19  0  0  0  0  0  0  0  0999 V2000
    2.6459   -1.9246    0.2923 C   0  0  0  0  0  0  0  0  0  0  0  0
    1.8246   -1.0601    0.0280 C   0  0  0  0  0  0  0  0  0  0  0  0
    0.8519   -0.0605   -0.2945 C   0  0  0  0  0  0  0  0  0  0  0  0
    1.0702    1.0640   -0.9545 C   0  0  0  0  0  0  0  0  0  0  0  0
   -0.1894    1.8376   -1.0890 C   0  0  0  0  0  0  0  0  0  0  0  0
   -1.1463    0.8627   -0.9158 O   0  0  0  0  0  0  0  0  0  0  0  0
   -0.6090   -0.0292    0.0159 C   0  0  0  0  0  0  0  0  0  0  0  0
   -0.8740    0.4953    1.3983 C   0  0  0  0  0  0  0  0  0  0  0  0
   -1.2540   -1.3847   -0.1231 C   0  0  0  0  0  0  0  0  0  0  0  0
    3.3470   -2.6819    0.5287 H   0  0  0  0  0  0  0  0  0  0  0  0
    2.0703    1.3250   -1.3226 H   0  0  0  0  0  0  0  0  0  0  0  0
   -0.2532    2.5246   -0.2209 H   0  0  0  0  0  0  0  0  0  0  0  0
   -0.2561    2.3703   -2.0540 H   0  0  0  0  0  0  0  0  0  0  0  0
   -0.4077    1.4801    1.5280 H   0  0  0  0  0  0  0  0  0  0  0  0
   -1.9692    0.6093    1.5155 H   0  0  0  0  0  0  0  0  0  0  0  0
   -0.5028   -0.2276    2.1711 H   0  0  0  0  0  0  0  0  0  0  0  0
   -0.5178   -2.1796   -0.2916 H   0  0  0  0  0  0  0  0  0  0  0  0
   -1.9655   -1.3696   -0.9845 H   0  0  0  0  0  0  0  0  0  0  0  0
   -1.8651   -1.6511    0.7727 H   0  0  0  0  0  0  0  0  0  0  0  0
  1  2  3  0
  2  3  1  0
  3  4  2  0
  4  5  1  0
  5  6  1  0
  6  7  1  0
  7  8  1  0
  7  9  1  0
  7  3  1  0
  1 10  1  0
  4 11  1  0
  5 12  1  0
  5 13  1  0
  8 14  1  0
  8 15  1  0
  8 16  1  0
  9 17  1  0
  9 18  1  0
  9 19  1  0
M  END
