
     RDKit          3D

 17 17  0  0  0  0  0  0  0  0999 V2000
    2.6398   -1.3574    1.1186 C   0  0  0  0  0  0  0  0  0  0  0  0
    1.6071   -1.2432    0.5169 C   0  0  0  0  0  0  0  0  0  0  0  0
    0.3344   -1.0766   -0.2303 C   0  0  0  0  0  0  0  0  0  0  0  0
    0.5317    0.0252   -1.2527 C   0  0  0  0  0  0  0  0  0  0  0  0
   -0.6569    0.6474   -1.5965 O   0  0  0  0  0  0  0  0  0  0  0  0
   -1.1403    1.4528   -0.5785 C   0  0  0  0  0  0  0  0  0  0  0  0
   -1.3355    0.7005    0.7132 C   0  0  0  0  0  0  0  0  0  0  0  0
   -0.7473   -0.6432    0.7007 C   0  0  0  0  0  0  0  0  0  0  0  0
   -1.1708   -1.4600    1.5049 O   0  0  0  0  0  0  0  0  0  0  0  0
    3.5758   -1.4493    1.6462 H   0  0  0  0  0  0  0  0  0  0  0  0
    0.0977   -2.0286   -0.7295 H   0  0  0  0  0  0  0  0  0  0  0  0
    0.9510   -0.4284   -2.1845 H   0  0  0  0  0  0  0  0  0  0  0  0
    1.2602    0.7428   -0.7908 H   0  0  0  0  0  0  0  0  0  0  0  0
   -2.1409    1.8109   -0.9057 H   0  0  0  0  0  0  0  0  0  0  0  0
   -0.5199    2.3653   -0.4435 H   0  0  0  0  0  0  0  0  0  0  0  0
   -2.4124    0.6191    0.9899 H   0  0  0  0  0  0  0  0  0  0  0  0
   -0.8738    1.3229    1.5216 H   0  0  0  0  0  0  0  0  0  0  0  0
  1  2  3  0
  2  3  1  0
  3  4  1  0
  4  5  1  0
  5  6  1  0
  6  7  1  0
  7  8  1  0
  8  9  2  0
  8  3  1  0
  1 10  1  0
  3 11  1  0
  4 12  1  0
  4 13  1  0
  6 14  1  0
  6 15  1  0
  7 16  1  0
  7 17  1  0
M  END
