
     RDKit          3D

 13 14  0  0  0  0  0  0  0  0999 V2000
   -2.4228   -1.4167    0.0919 C   0  0  0  0  0  0  0  0  0  0  0  0
   -1.4869   -0.6566    0.0687 C   0  0  0  0  0  0  0  0  0  0  0  0
   -0.3455    0.2642    0.0406 C   0  0  0  0  0  0  0  0  0  0  0  0
   -0.6177    1.5511    0.4331 O   0  0  0  0  0  0  0  0  0  0  0  0
    0.6185    0.0720   -1.0800 C   0  0  0  0  0  0  0  0  0  0  0  0
    0.8963   -1.1698   -0.4800 O   0  0  0  0  0  0  0  0  0  0  0  0
    0.9192   -0.3124    0.6054 C   0  0  0  0  0  0  0  0  0  0  0  0
    1.6476    0.6080   -0.2393 C   0  0  0  0  0  0  0  0  0  0  0  0
    2.5657    1.3557   -0.2066 O   0  0  0  0  0  0  0  0  0  0  0  0
   -3.2493   -2.1081    0.1229 H   0  0  0  0  0  0  0  0  0  0  0  0
   -0.0552    2.1851   -0.0873 H   0  0  0  0  0  0  0  0  0  0  0  0
    0.4456    0.1903   -2.0672 H   0  0  0  0  0  0  0  0  0  0  0  0
    1.0847   -0.5627    1.5680 H   0  0  0  0  0  0  0  0  0  0  0  0
  1  2  3  0
  2  3  1  0
  3  4  1  0
  3  5  1  0
  5  6  1  0
  6  7  1  0
  7  8  1  0
  8  9  2  0
  7  3  1  0
  8  5  1  0
  1 10  1  0
  4 11  1  0
  5 12  1  0
  7 13  1  0
M  END
