
     RDKit          3D

 19 19  0  0  0  0  0  0  0  0999 V2000
   -1.3075    0.1540   -2.6389 C   0  0  0  0  0  0  0  0  0  0  0  0
   -0.8754    0.3167   -1.2762 C   0  0  0  0  0  0  0  0  0  0  0  0
   -0.5447    0.4547   -0.1760 C   0  0  0  0  0  0  0  0  0  0  0  0
   -0.3224    2.0295    0.0082 O   0  0  0  0  0  0  0  0  0  0  0  0
   -1.3918    0.2079    1.0598 C   0  0  0  0  0  0  0  0  0  0  0  0
   -0.9398   -1.1296    1.4573 O   0  0  0  0  0  0  0  0  0  0  0  0
    0.1141   -1.4844    0.6543 C   0  0  0  0  0  0  0  0  0  0  0  0
    0.7234   -0.0628    0.4052 C   0  0  0  0  0  0  0  0  0  0  0  0
    1.9805   -0.0224   -0.3160 C   0  0  0  0  0  0  0  0  0  0  0  0
   -1.6218    0.0227   -3.6908 H   0  0  0  0  0  0  0  0  0  0  0  0
   -0.5658    2.0975    0.9991 H   0  0  0  0  0  0  0  0  0  0  0  0
   -2.4916    0.0427    0.8049 H   0  0  0  0  0  0  0  0  0  0  0  0
   -1.2297    0.8990    1.8396 H   0  0  0  0  0  0  0  0  0  0  0  0
   -0.2736   -1.8314   -0.3268 H   0  0  0  0  0  0  0  0  0  0  0  0
    0.8897   -2.0842    1.0930 H   0  0  0  0  0  0  0  0  0  0  0  0
    0.8101    0.2955    1.5054 H   0  0  0  0  0  0  0  0  0  0  0  0
    1.9243   -0.5494   -1.2829 H   0  0  0  0  0  0  0  0  0  0  0  0
    2.8162   -0.4133    0.3587 H   0  0  0  0  0  0  0  0  0  0  0  0
    2.3056    1.0572   -0.4777 H   0  0  0  0  0  0  0  0  0  0  0  0
  1  2  3  0
  2  3  1  0
  3  4  1  0
  3  5  1  0
  5  6  1  0
  6  7  1  0
  7  8  1  0
  8  9  1  0
  8  3  1  0
  1 10  1  0
  4 11  1  0
  5 12  1  0
  5 13  1  0
  7 14  1  0
  7 15  1  0
  8 16  1  0
  9 17  1  0
  9 18  1  0
  9 19  1  0
M  END
