
     RDKit          3D

 23 23  0  0  0  0  0  0  0  0999 V2000
    0.9784    2.2507   -1.3502 C   0  0  0  0  0  0  0  0  0  0  0  0
    1.1135    1.0837   -1.0812 C   0  0  0  0  0  0  0  0  0  0  0  0
    1.2862   -0.3298   -0.7306 C   0  0  0  0  0  0  0  0  0  0  0  0
    2.4671   -0.4536    0.1859 C   0  0  0  0  0  0  0  0  0  0  0  0
    0.0474   -0.8295   -0.0306 C   0  0  0  0  0  0  0  0  0  0  0  0
   -1.1800   -0.7097   -0.8897 C   0  0  0  0  0  0  0  0  0  0  0  0
   -2.2739   -0.2436    0.0563 C   0  0  0  0  0  0  0  0  0  0  0  0
   -1.5879    0.5158    1.1392 C   0  0  0  0  0  0  0  0  0  0  0  0
   -0.2246   -0.0789    1.2434 C   0  0  0  0  0  0  0  0  0  0  0  0
    0.8449    3.2924   -1.5767 H   0  0  0  0  0  0  0  0  0  0  0  0
    1.4328   -0.9201   -1.6508 H   0  0  0  0  0  0  0  0  0  0  0  0
    2.5292    0.3792    0.9118 H   0  0  0  0  0  0  0  0  0  0  0  0
    2.4646   -1.4337    0.7114 H   0  0  0  0  0  0  0  0  0  0  0  0
    3.4273   -0.4419   -0.4091 H   0  0  0  0  0  0  0  0  0  0  0  0
    0.1900   -1.8910    0.2258 H   0  0  0  0  0  0  0  0  0  0  0  0
   -1.0627    0.0203   -1.7095 H   0  0  0  0  0  0  0  0  0  0  0  0
   -1.4795   -1.6933   -1.3286 H   0  0  0  0  0  0  0  0  0  0  0  0
   -2.9393    0.4301   -0.5186 H   0  0  0  0  0  0  0  0  0  0  0  0
   -2.8882   -1.0879    0.4236 H   0  0  0  0  0  0  0  0  0  0  0  0
   -1.4847    1.5902    0.8339 H   0  0  0  0  0  0  0  0  0  0  0  0
   -2.1370    0.5324    2.0977 H   0  0  0  0  0  0  0  0  0  0  0  0
   -0.0697   -0.7174    2.1344 H   0  0  0  0  0  0  0  0  0  0  0  0
    0.5463    0.7355    1.3121 H   0  0  0  0  0  0  0  0  0  0  0  0
  1  2  3  0
  2  3  1  0
  3  4  1  0
  3  5  1  0
  5  6  1  0
  6  7  1  0
  7  8  1  0
  8  9  1  0
  9  5  1  0
  1 10  1  0
  3 11  1  0
  4 12  1  0
  4 13  1  0
  4 14  1  0
  5 15  1  0
  6 16  1  0
  6 17  1  0
  7 18  1  0
  7 19  1  0
  8 20  1  0
  8 21  1  0
  9 22  1  0
  9 23  1  0
M  END
