
     RDKit          3D

 23 23  0  0  0  0  0  0  0  0999 V2000
    4.1092   -0.6604    1.0899 C   0  0  0  0  0  0  0  0  0  0  0  0
    3.1081   -0.6387    0.4316 C   0  0  0  0  0  0  0  0  0  0  0  0
    1.9147   -0.6115   -0.3654 C   0  0  0  0  0  0  0  0  0  0  0  0
    0.6335   -0.7452    0.4711 C   0  0  0  0  0  0  0  0  0  0  0  0
   -0.0024    0.1539   -0.5683 C   0  0  0  0  0  0  0  0  0  0  0  0
   -1.0111    1.1302   -0.0141 C   0  0  0  0  0  0  0  0  0  0  0  0
   -2.1574    0.4215    0.6702 C   0  0  0  0  0  0  0  0  0  0  0  0
   -2.8698   -0.4750   -0.2949 C   0  0  0  0  0  0  0  0  0  0  0  0
    1.3925    0.7586   -0.7499 C   0  0  0  0  0  0  0  0  0  0  0  0
    5.0000   -0.6717    1.6959 H   0  0  0  0  0  0  0  0  0  0  0  0
    1.9197   -1.3012   -1.2253 H   0  0  0  0  0  0  0  0  0  0  0  0
    0.2863   -1.7822    0.4776 H   0  0  0  0  0  0  0  0  0  0  0  0
    0.7962   -0.2557    1.4419 H   0  0  0  0  0  0  0  0  0  0  0  0
   -0.2997   -0.3923   -1.4594 H   0  0  0  0  0  0  0  0  0  0  0  0
   -1.4648    1.6418   -0.9118 H   0  0  0  0  0  0  0  0  0  0  0  0
   -0.5588    1.9065    0.6050 H   0  0  0  0  0  0  0  0  0  0  0  0
   -2.8825    1.2203    0.9777 H   0  0  0  0  0  0  0  0  0  0  0  0
   -1.8488   -0.0888    1.6002 H   0  0  0  0  0  0  0  0  0  0  0  0
   -2.5272   -1.5239   -0.1447 H   0  0  0  0  0  0  0  0  0  0  0  0
   -2.7205   -0.1724   -1.3413 H   0  0  0  0  0  0  0  0  0  0  0  0
   -3.9724   -0.4929   -0.0529 H   0  0  0  0  0  0  0  0  0  0  0  0
    1.5287    1.0344   -1.8123 H   0  0  0  0  0  0  0  0  0  0  0  0
    1.6267    1.5447   -0.0187 H   0  0  0  0  0  0  0  0  0  0  0  0
  1  2  3  0
  2  3  1  0
  3  4  1  0
  4  5  1  0
  5  6  1  0
  6  7  1  0
  7  8  1  0
  5  9  1  0
  9  3  1  0
  1 10  1  0
  3 11  1  0
  4 12  1  0
  4 13  1  0
  5 14  1  0
  6 15  1  0
  6 16  1  0
  7 17  1  0
  7 18  1  0
  8 19  1  0
  8 20  1  0
  8 21  1  0
  9 22  1  0
  9 23  1  0
M  END
