
     RDKit          3D

 17 17  0  0  0  0  0  0  0  0999 V2000
    3.7892    0.3443    0.1017 C   0  0  0  0  0  0  0  0  0  0  0  0
    2.3804    0.5648   -0.0870 C   0  0  0  0  0  0  0  0  0  0  0  0
    1.1349    0.7660   -0.2422 C   0  0  0  0  0  0  0  0  0  0  0  0
    0.0448   -0.0981    0.0047 C   0  0  0  0  0  0  0  0  0  0  0  0
   -1.2029    0.6884   -0.5963 C   0  0  0  0  0  0  0  0  0  0  0  0
   -2.1686   -0.4105   -0.7906 C   0  0  0  0  0  0  0  0  0  0  0  0
   -3.3018   -0.3707   -1.1883 O   0  0  0  0  0  0  0  0  0  0  0  0
   -1.4746   -1.6614   -0.3830 C   0  0  0  0  0  0  0  0  0  0  0  0
   -0.0967   -1.3334   -0.4457 O   0  0  0  0  0  0  0  0  0  0  0  0
    4.9127    0.1643    0.2451 H   0  0  0  0  0  0  0  0  0  0  0  0
    1.0164    1.7596   -0.9056 H   0  0  0  0  0  0  0  0  0  0  0  0
    0.9310    1.6468    0.7786 H   0  0  0  0  0  0  0  0  0  0  0  0
   -0.2749   -0.0620    1.1574 H   0  0  0  0  0  0  0  0  0  0  0  0
   -1.4817    1.4183    0.1210 H   0  0  0  0  0  0  0  0  0  0  0  0
   -0.8324    1.0849   -1.5866 H   0  0  0  0  0  0  0  0  0  0  0  0
   -1.6596   -2.5060   -1.0829 H   0  0  0  0  0  0  0  0  0  0  0  0
   -1.7162   -1.9954    0.6401 H   0  0  0  0  0  0  0  0  0  0  0  0
  1  2  3  0
  2  3  1  0
  3  4  1  0
  4  5  1  0
  5  6  1  0
  6  7  2  0
  6  8  1  0
  8  9  1  0
  9  4  1  0
  1 10  1  0
  3 11  1  0
  3 12  1  0
  4 13  1  0
  5 14  1  0
  5 15  1  0
  8 16  1  0
  8 17  1  0
M  END
