
     RDKit          3D

 17 18  0  0  0  0  0  0  0  0999 V2000
    1.8977   -1.8877   -1.3580 C   0  0  0  0  0  0  0  0  0  0  0  0
    0.9391   -1.2677   -0.2893 C   0  0  0  0  0  0  0  0  0  0  0  0
    0.2367   -0.7993    0.5240 C   0  0  0  0  0  0  0  0  0  0  0  0
   -0.9945   -0.9201    1.2571 C   0  0  0  0  0  0  0  0  0  0  0  0
   -1.3365    0.4315    0.5534 C   0  0  0  0  0  0  0  0  0  0  0  0
   -1.7534    0.0842   -0.7801 O   0  0  0  0  0  0  0  0  0  0  0  0
    0.1304    0.6954    0.6830 C   0  0  0  0  0  0  0  0  0  0  0  0
    0.6829    1.5975   -0.4797 C   0  0  0  0  0  0  0  0  0  0  0  0
    1.1456    0.1028    1.3688 O   0  0  0  0  0  0  0  0  0  0  0  0
    2.6174   -2.3350   -2.1645 H   0  0  0  0  0  0  0  0  0  0  0  0
   -0.9542   -0.8980    2.3490 H   0  0  0  0  0  0  0  0  0  0  0  0
   -1.6711   -1.7464    0.8407 H   0  0  0  0  0  0  0  0  0  0  0  0
   -2.1372    0.9453    1.0644 H   0  0  0  0  0  0  0  0  0  0  0  0
   -1.2685    0.7097   -1.4319 H   0  0  0  0  0  0  0  0  0  0  0  0
    1.4741    2.1990   -0.0119 H   0  0  0  0  0  0  0  0  0  0  0  0
   -0.1181    2.1773   -0.9262 H   0  0  0  0  0  0  0  0  0  0  0  0
    1.1095    0.9116   -1.1986 H   0  0  0  0  0  0  0  0  0  0  0  0
  1  2  3  0
  2  3  1  0
  3  4  1  0
  4  5  1  0
  5  6  1  0
  5  7  1  0
  7  8  1  0
  7  9  1  0
  7  3  1  0
  9  3  1  0
  1 10  1  0
  4 11  1  0
  4 12  1  0
  5 13  1  0
  6 14  1  0
  8 15  1  0
  8 16  1  0
  8 17  1  0
M  END
