
     RDKit          3D

 16 15  0  0  0  0  0  0  0  0999 V2000
   -2.1511    1.1583    0.6312 C   0  0  0  0  0  0  0  0  0  0  0  0
   -1.2111    0.5170    0.1867 C   0  0  0  0  0  0  0  0  0  0  0  0
   -0.0870   -0.2716   -0.3300 C   0  0  0  0  0  0  0  0  0  0  0  0
   -0.6592   -1.3174   -1.2475 C   0  0  0  0  0  0  0  0  0  0  0  0
    0.5735   -0.9940    0.7720 C   0  0  0  0  0  0  0  0  0  0  0  0
    1.0967   -1.5871    1.6824 C   0  0  0  0  0  0  0  0  0  0  0  0
    0.7831    0.5800   -0.9637 O   0  0  0  0  0  0  0  0  0  0  0  0
    1.2877    1.5529   -0.1390 C   0  0  0  0  0  0  0  0  0  0  0  0
   -2.9555    1.7268    1.0251 H   0  0  0  0  0  0  0  0  0  0  0  0
   -1.3464   -1.9888   -0.7194 H   0  0  0  0  0  0  0  0  0  0  0  0
   -1.2541   -0.8297   -2.0705 H   0  0  0  0  0  0  0  0  0  0  0  0
    0.1440   -1.9681   -1.6771 H   0  0  0  0  0  0  0  0  0  0  0  0
    1.5749   -2.1060    2.4947 H   0  0  0  0  0  0  0  0  0  0  0  0
    1.9779    2.2256   -0.6498 H   0  0  0  0  0  0  0  0  0  0  0  0
    0.4216    2.1435    0.2493 H   0  0  0  0  0  0  0  0  0  0  0  0
    1.8048    1.1586    0.7555 H   0  0  0  0  0  0  0  0  0  0  0  0
  1  2  3  0
  2  3  1  0
  3  4  1  0
  3  5  1  0
  5  6  3  0
  3  7  1  0
  7  8  1  0
  1  9  1  0
  4 10  1  0
  4 11  1  0
  4 12  1  0
  6 13  1  0
  8 14  1  0
  8 15  1  0
  8 16  1  0
M  END
