
     RDKit          3D

 19 20  0  0  0  0  0  0  0  0999 V2000
    2.5407    1.5446    0.7864 C   0  0  0  0  0  0  0  0  0  0  0  0
    1.9995    0.5108    0.4946 C   0  0  0  0  0  0  0  0  0  0  0  0
    1.3181   -0.7474    0.1417 C   0  0  0  0  0  0  0  0  0  0  0  0
    0.5673   -1.1990    1.3569 C   0  0  0  0  0  0  0  0  0  0  0  0
   -0.7852   -1.2280    1.0293 O   0  0  0  0  0  0  0  0  0  0  0  0
   -0.9645   -0.2426    0.0797 C   0  0  0  0  0  0  0  0  0  0  0  0
   -1.4403    1.1038    0.4226 C   0  0  0  0  0  0  0  0  0  0  0  0
   -2.2727    0.1924   -0.4023 C   0  0  0  0  0  0  0  0  0  0  0  0
    0.1953   -0.4755   -0.8546 C   0  0  0  0  0  0  0  0  0  0  0  0
    3.0307    2.4695    1.0484 H   0  0  0  0  0  0  0  0  0  0  0  0
    2.0282   -1.5003   -0.2476 H   0  0  0  0  0  0  0  0  0  0  0  0
    0.9345   -2.2362    1.6024 H   0  0  0  0  0  0  0  0  0  0  0  0
    0.7162   -0.5272    2.2325 H   0  0  0  0  0  0  0  0  0  0  0  0
   -1.0141    2.0187   -0.0251 H   0  0  0  0  0  0  0  0  0  0  0  0
   -1.8058    1.2427    1.4791 H   0  0  0  0  0  0  0  0  0  0  0  0
   -3.1601   -0.3145    0.0093 H   0  0  0  0  0  0  0  0  0  0  0  0
   -2.3410    0.4690   -1.4895 H   0  0  0  0  0  0  0  0  0  0  0  0
    0.0435   -1.4308   -1.4057 H   0  0  0  0  0  0  0  0  0  0  0  0
    0.4096    0.3500   -1.5265 H   0  0  0  0  0  0  0  0  0  0  0  0
  1  2  3  0
  2  3  1  0
  3  4  1  0
  4  5  1  0
  5  6  1  0
  6  7  1  0
  7  8  1  0
  6  9  1  0
  9  3  1  0
  8  6  1  0
  1 10  1  0
  3 11  1  0
  4 12  1  0
  4 13  1  0
  7 14  1  0
  7 15  1  0
  8 16  1  0
  8 17  1  0
  9 18  1  0
  9 19  1  0
M  END
