
     RDKit          3D

 17 17  0  0  0  0  0  0  0  0999 V2000
    3.7483    1.1611   -1.2764 C   0  0  0  0  0  0  0  0  0  0  0  0
    2.8325    0.2179   -1.3985 C   0  0  0  0  0  0  0  0  0  0  0  0
    1.9326   -0.7413   -1.5251 C   0  0  0  0  0  0  0  0  0  0  0  0
    2.0927   -2.0644   -1.7557 O   0  0  0  0  0  0  0  0  0  0  0  0
    0.7756   -0.5503   -0.6570 C   0  0  0  0  0  0  0  0  0  0  0  0
   -0.2997   -0.3643    0.1259 C   0  0  0  0  0  0  0  0  0  0  0  0
   -1.4661   -0.1566    0.9635 C   0  0  0  0  0  0  0  0  0  0  0  0
   -2.1063    1.1149    1.1492 C   0  0  0  0  0  0  0  0  0  0  0  0
   -2.8680   -0.1467    0.8097 C   0  0  0  0  0  0  0  0  0  0  0  0
    4.5416    1.9589   -1.1573 H   0  0  0  0  0  0  0  0  0  0  0  0
    1.3443   -0.4415   -2.6342 H   0  0  0  0  0  0  0  0  0  0  0  0
    2.3111   -2.1058   -2.8016 H   0  0  0  0  0  0  0  0  0  0  0  0
   -1.1819   -0.5618    2.1747 H   0  0  0  0  0  0  0  0  0  0  0  0
   -2.2681    1.9482    0.4844 H   0  0  0  0  0  0  0  0  0  0  0  0
   -2.2705    1.4027    2.2573 H   0  0  0  0  0  0  0  0  0  0  0  0
   -3.8013    0.1256    0.3009 H   0  0  0  0  0  0  0  0  0  0  0  0
   -3.3167   -0.7965    1.7237 H   0  0  0  0  0  0  0  0  0  0  0  0
  1  2  3  0
  2  3  1  0
  3  4  1  0
  3  5  1  0
  5  6  3  0
  6  7  1  0
  7  8  1  0
  8  9  1  0
  9  7  1  0
  1 10  1  0
  3 11  1  0
  4 12  1  0
  7 13  1  0
  8 14  1  0
  8 15  1  0
  9 16  1  0
  9 17  1  0
M  END
