
     RDKit          3D

 21 21  0  0  0  0  0  0  0  0999 V2000
    2.5689    1.3487    2.3375 C   0  0  0  0  0  0  0  0  0  0  0  0
    1.4348    1.2979    1.9427 C   0  0  0  0  0  0  0  0  0  0  0  0
    0.0072    1.2246    1.4193 C   0  0  0  0  0  0  0  0  0  0  0  0
   -0.0240    1.9307    0.0225 C   0  0  0  0  0  0  0  0  0  0  0  0
   -1.2340    1.4196   -0.4897 O   0  0  0  0  0  0  0  0  0  0  0  0
   -1.1110    0.0374   -0.2795 C   0  0  0  0  0  0  0  0  0  0  0  0
   -0.6426   -0.5875   -1.5892 C   0  0  0  0  0  0  0  0  0  0  0  0
   -0.4574   -2.0636   -1.5156 C   0  0  0  0  0  0  0  0  0  0  0  0
   -0.1291   -0.1866    0.8226 C   0  0  0  0  0  0  0  0  0  0  0  0
    3.4481    1.3735    2.6382 H   0  0  0  0  0  0  0  0  0  0  0  0
   -0.7336    1.5566    2.0549 H   0  0  0  0  0  0  0  0  0  0  0  0
    0.8317    1.4358   -0.5056 H   0  0  0  0  0  0  0  0  0  0  0  0
    0.0264    2.9966    0.1185 H   0  0  0  0  0  0  0  0  0  0  0  0
   -2.0894   -0.3511    0.0180 H   0  0  0  0  0  0  0  0  0  0  0  0
   -1.4423   -0.3821   -2.3641 H   0  0  0  0  0  0  0  0  0  0  0  0
    0.2646   -0.0500   -1.9167 H   0  0  0  0  0  0  0  0  0  0  0  0
    0.6075   -2.3694   -1.3872 H   0  0  0  0  0  0  0  0  0  0  0  0
   -0.8406   -2.5268   -2.4512 H   0  0  0  0  0  0  0  0  0  0  0  0
   -1.0375   -2.5411   -0.6697 H   0  0  0  0  0  0  0  0  0  0  0  0
    0.8648   -0.3498    0.2741 H   0  0  0  0  0  0  0  0  0  0  0  0
   -0.3125   -0.9738    1.5200 H   0  0  0  0  0  0  0  0  0  0  0  0
  1  2  3  0
  2  3  1  0
  3  4  1  0
  4  5  1  0
  5  6  1  0
  6  7  1  0
  7  8  1  0
  6  9  1  0
  9  3  1  0
  1 10  1  0
  3 11  1  0
  4 12  1  0
  4 13  1  0
  6 14  1  0
  7 15  1  0
  7 16  1  0
  8 17  1  0
  8 18  1  0
  8 19  1  0
  9 20  1  0
  9 21  1  0
M  END
