
     RDKit          3D

 14 13  0  0  0  0  0  0  0  0999 V2000
   -2.4475   -2.1962   -0.8333 C   0  0  0  0  0  0  0  0  0  0  0  0
   -2.0989   -1.1286   -0.3500 C   0  0  0  0  0  0  0  0  0  0  0  0
   -1.6654    0.1390    0.2451 C   0  0  0  0  0  0  0  0  0  0  0  0
   -2.3241    1.1629   -0.4289 O   0  0  0  0  0  0  0  0  0  0  0  0
   -0.2125    0.3139    0.1340 C   0  0  0  0  0  0  0  0  0  0  0  0
    0.9901    0.4736    0.0534 C   0  0  0  0  0  0  0  0  0  0  0  0
    2.4266    0.6531   -0.0228 C   0  0  0  0  0  0  0  0  0  0  0  0
    3.0310   -0.4224    0.6089 O   0  0  0  0  0  0  0  0  0  0  0  0
   -2.7414   -3.1178   -1.2660 H   0  0  0  0  0  0  0  0  0  0  0  0
   -1.9013    0.1085    1.3137 H   0  0  0  0  0  0  0  0  0  0  0  0
   -2.5614    1.8402    0.2636 H   0  0  0  0  0  0  0  0  0  0  0  0
    2.8047    0.7660   -1.0497 H   0  0  0  0  0  0  0  0  0  0  0  0
    2.7195    1.5625    0.5332 H   0  0  0  0  0  0  0  0  0  0  0  0
    3.9807   -0.1546    0.7986 H   0  0  0  0  0  0  0  0  0  0  0  0
  1  2  3  0
  2  3  1  0
  3  4  1  0
  3  5  1  0
  5  6  3  0
  6  7  1  0
  7  8  1  0
  1  9  1  0
  3 10  1  0
  4 11  1  0
  7 12  1  0
  7 13  1  0
  8 14  1  0
M  END
