
     RDKit          3D

 23 22  0  0  0  0  0  0  0  0999 V2000
   -2.2778   -0.4011   -2.1660 C   0  0  0  0  0  0  0  0  0  0  0  0
   -1.7667   -0.6971   -1.0744 C   0  0  0  0  0  0  0  0  0  0  0  0
   -1.1770   -1.0553    0.2459 C   0  0  0  0  0  0  0  0  0  0  0  0
   -1.7692   -0.1051    1.2542 C   0  0  0  0  0  0  0  0  0  0  0  0
    0.3180   -0.8418    0.1049 C   0  0  0  0  0  0  0  0  0  0  0  0
    0.7651   -1.7831   -1.0195 C   0  0  0  0  0  0  0  0  0  0  0  0
    0.5866    0.4787   -0.2242 O   0  0  0  0  0  0  0  0  0  0  0  0
    1.4769    1.0696    0.6835 C   0  0  0  0  0  0  0  0  0  0  0  0
    1.6870    2.4958    0.2135 C   0  0  0  0  0  0  0  0  0  0  0  0
   -2.6881   -0.1431   -3.0658 H   0  0  0  0  0  0  0  0  0  0  0  0
   -1.4532   -2.0890    0.5131 H   0  0  0  0  0  0  0  0  0  0  0  0
   -2.8768   -0.1429    1.1675 H   0  0  0  0  0  0  0  0  0  0  0  0
   -1.4004    0.9163    1.1431 H   0  0  0  0  0  0  0  0  0  0  0  0
   -1.5499   -0.5598    2.2621 H   0  0  0  0  0  0  0  0  0  0  0  0
    0.8660   -1.1199    1.0123 H   0  0  0  0  0  0  0  0  0  0  0  0
    1.8503   -1.9107   -1.0373 H   0  0  0  0  0  0  0  0  0  0  0  0
    0.3603   -1.4514   -2.0039 H   0  0  0  0  0  0  0  0  0  0  0  0
    0.3185   -2.7668   -0.7689 H   0  0  0  0  0  0  0  0  0  0  0  0
    1.0721    1.0628    1.7069 H   0  0  0  0  0  0  0  0  0  0  0  0
    2.4714    0.5423    0.6473 H   0  0  0  0  0  0  0  0  0  0  0  0
    2.5015    2.9533    0.8224 H   0  0  0  0  0  0  0  0  0  0  0  0
    0.7582    3.0526    0.4443 H   0  0  0  0  0  0  0  0  0  0  0  0
    1.9270    2.4959   -0.8609 H   0  0  0  0  0  0  0  0  0  0  0  0
  1  2  3  0
  2  3  1  0
  3  4  1  0
  3  5  1  0
  5  6  1  0
  5  7  1  0
  7  8  1  0
  8  9  1  0
  1 10  1  0
  3 11  1  0
  4 12  1  0
  4 13  1  0
  4 14  1  0
  5 15  1  0
  6 16  1  0
  6 17  1  0
  6 18  1  0
  8 19  1  0
  8 20  1  0
  9 21  1  0
  9 22  1  0
  9 23  1  0
M  END
