
     RDKit          3D

 19 20  0  0  0  0  0  0  0  0999 V2000
    2.5999    1.6235   -0.0176 C   0  0  0  0  0  0  0  0  0  0  0  0
    1.6210    0.9758   -0.2934 C   0  0  0  0  0  0  0  0  0  0  0  0
    0.4124    0.1938   -0.6422 C   0  0  0  0  0  0  0  0  0  0  0  0
   -0.8225    0.7443    0.0831 C   0  0  0  0  0  0  0  0  0  0  0  0
   -1.9155    1.0146   -0.9253 C   0  0  0  0  0  0  0  0  0  0  0  0
   -1.0160   -0.6051    0.7672 C   0  0  0  0  0  0  0  0  0  0  0  0
    0.2990   -1.0244    0.2085 C   0  0  0  0  0  0  0  0  0  0  0  0
    1.2785   -1.8053    0.7773 C   0  0  0  0  0  0  0  0  0  0  0  0
    0.4095   -2.2900   -0.2991 O   0  0  0  0  0  0  0  0  0  0  0  0
    3.4479    2.2026    0.2345 H   0  0  0  0  0  0  0  0  0  0  0  0
    0.2974    0.0602   -1.7159 H   0  0  0  0  0  0  0  0  0  0  0  0
   -0.5891    1.5538    0.7796 H   0  0  0  0  0  0  0  0  0  0  0  0
   -2.8848    0.9814   -0.3549 H   0  0  0  0  0  0  0  0  0  0  0  0
   -1.9104    0.1711   -1.6538 H   0  0  0  0  0  0  0  0  0  0  0  0
   -1.7825    1.9958   -1.3949 H   0  0  0  0  0  0  0  0  0  0  0  0
   -1.8828   -1.1504    0.3714 H   0  0  0  0  0  0  0  0  0  0  0  0
   -1.0534   -0.5338    1.8903 H   0  0  0  0  0  0  0  0  0  0  0  0
    1.1552   -2.3467    1.7360 H   0  0  0  0  0  0  0  0  0  0  0  0
    2.3363   -1.7612    0.4492 H   0  0  0  0  0  0  0  0  0  0  0  0
  1  2  3  0
  2  3  1  0
  3  4  1  0
  4  5  1  0
  4  6  1  0
  6  7  1  0
  7  8  1  0
  8  9  1  0
  7  3  1  0
  9  7  1  0
  1 10  1  0
  3 11  1  0
  4 12  1  0
  5 13  1  0
  5 14  1  0
  5 15  1  0
  6 16  1  0
  6 17  1  0
  8 18  1  0
  8 19  1  0
M  END
