
     RDKit          3D

 17 18  0  0  0  0  0  0  0  0999 V2000
    2.9028    0.6401   -0.3298 C   0  0  0  0  0  0  0  0  0  0  0  0
    1.8256    0.1214   -0.4399 C   0  0  0  0  0  0  0  0  0  0  0  0
    0.5168   -0.5196   -0.5505 C   0  0  0  0  0  0  0  0  0  0  0  0
   -0.5126    0.4780   -0.9906 C   0  0  0  0  0  0  0  0  0  0  0  0
   -0.2876    1.1509    0.3337 C   0  0  0  0  0  0  0  0  0  0  0  0
   -0.3412   -0.3247    0.6766 C   0  0  0  0  0  0  0  0  0  0  0  0
   -0.2101   -0.8505    1.8003 O   0  0  0  0  0  0  0  0  0  0  0  0
   -1.5124   -0.3836   -0.2622 C   0  0  0  0  0  0  0  0  0  0  0  0
   -1.6487   -1.6715   -0.7749 O   0  0  0  0  0  0  0  0  0  0  0  0
    3.8565    1.0886   -0.2170 H   0  0  0  0  0  0  0  0  0  0  0  0
    0.4891   -1.5052   -1.0117 H   0  0  0  0  0  0  0  0  0  0  0  0
   -0.6190    0.9038   -1.8864 H   0  0  0  0  0  0  0  0  0  0  0  0
   -1.1716    1.7375    0.6276 H   0  0  0  0  0  0  0  0  0  0  0  0
    0.6771    1.6442    0.4857 H   0  0  0  0  0  0  0  0  0  0  0  0
   -0.1280   -0.2493    2.5877 H   0  0  0  0  0  0  0  0  0  0  0  0
   -2.4334    0.1140    0.0535 H   0  0  0  0  0  0  0  0  0  0  0  0
   -1.4035   -2.3741   -0.1022 H   0  0  0  0  0  0  0  0  0  0  0  0
  1  2  3  0
  2  3  1  0
  3  4  1  0
  4  5  1  0
  5  6  1  0
  6  7  1  0
  6  8  1  0
  8  9  1  0
  6  3  1  0
  8  4  1  0
  1 10  1  0
  3 11  1  0
  4 12  1  0
  5 13  1  0
  5 14  1  0
  7 15  1  0
  8 16  1  0
  9 17  1  0
M  END
