
     RDKit          3D

 17 18  0  0  0  0  0  0  0  0999 V2000
    3.1050   -1.1575   -0.3082 C   0  0  0  0  0  0  0  0  0  0  0  0
    1.8547   -1.2381   -0.2521 C   0  0  0  0  0  0  0  0  0  0  0  0
    0.4149   -1.3057   -0.1883 C   0  0  0  0  0  0  0  0  0  0  0  0
   -0.2975   -0.4787   -1.0461 O   0  0  0  0  0  0  0  0  0  0  0  0
   -1.2399   -0.3666   -0.0137 C   0  0  0  0  0  0  0  0  0  0  0  0
   -1.5973    1.0915    0.1915 C   0  0  0  0  0  0  0  0  0  0  0  0
   -0.2092    1.6737    0.3815 C   0  0  0  0  0  0  0  0  0  0  0  0
    0.4901    0.7360    1.1359 O   0  0  0  0  0  0  0  0  0  0  0  0
   -0.1038   -0.4999    0.9724 C   0  0  0  0  0  0  0  0  0  0  0  0
    4.1403   -1.0784   -0.3412 H   0  0  0  0  0  0  0  0  0  0  0  0
    0.0115   -2.3353   -0.2356 H   0  0  0  0  0  0  0  0  0  0  0  0
   -2.0280   -1.1019    0.0383 H   0  0  0  0  0  0  0  0  0  0  0  0
   -2.2132    1.2259    1.0893 H   0  0  0  0  0  0  0  0  0  0  0  0
   -2.1159    1.4463   -0.7092 H   0  0  0  0  0  0  0  0  0  0  0  0
   -0.1960    2.6641    0.8431 H   0  0  0  0  0  0  0  0  0  0  0  0
    0.2858    1.7430   -0.6090 H   0  0  0  0  0  0  0  0  0  0  0  0
   -0.3016   -1.0184    1.9069 H   0  0  0  0  0  0  0  0  0  0  0  0
  1  2  3  0
  2  3  1  0
  3  4  1  0
  4  5  1  0
  5  6  1  0
  6  7  1  0
  7  8  1  0
  8  9  1  0
  9  3  1  0
  9  5  1  0
  1 10  1  0
  3 11  1  0
  5 12  1  0
  6 13  1  0
  6 14  1  0
  7 15  1  0
  7 16  1  0
  9 17  1  0
M  END
