
     RDKit          3D

 19 18  0  0  0  0  0  0  0  0999 V2000
   -0.5532    3.0068   -0.3072 C   0  0  0  0  0  0  0  0  0  0  0  0
   -0.9221    1.8649   -0.4782 C   0  0  0  0  0  0  0  0  0  0  0  0
   -1.3651    0.4821   -0.7107 C   0  0  0  0  0  0  0  0  0  0  0  0
   -0.7922   -0.3604    0.3979 C   0  0  0  0  0  0  0  0  0  0  0  0
    0.6654   -0.2411    0.3253 C   0  0  0  0  0  0  0  0  0  0  0  0
    1.8746   -0.1211    0.2682 C   0  0  0  0  0  0  0  0  0  0  0  0
    3.3341    0.0064    0.1876 C   0  0  0  0  0  0  0  0  0  0  0  0
   -1.2122   -1.7996    0.1460 C   0  0  0  0  0  0  0  0  0  0  0  0
   -2.6133   -1.8386    0.1496 O   0  0  0  0  0  0  0  0  0  0  0  0
   -0.2411    4.0216   -0.1607 H   0  0  0  0  0  0  0  0  0  0  0  0
   -2.4565    0.4414   -0.7135 H   0  0  0  0  0  0  0  0  0  0  0  0
   -1.0097    0.1100   -1.6867 H   0  0  0  0  0  0  0  0  0  0  0  0
   -1.1958   -0.0336    1.3677 H   0  0  0  0  0  0  0  0  0  0  0  0
    3.7401    0.5537    1.0851 H   0  0  0  0  0  0  0  0  0  0  0  0
    3.7934   -0.9984    0.1638 H   0  0  0  0  0  0  0  0  0  0  0  0
    3.5895    0.5882   -0.7310 H   0  0  0  0  0  0  0  0  0  0  0  0
   -0.7863   -2.4835    0.9159 H   0  0  0  0  0  0  0  0  0  0  0  0
   -0.9053   -2.1185   -0.8742 H   0  0  0  0  0  0  0  0  0  0  0  0
   -2.9443   -1.0804    0.6550 H   0  0  0  0  0  0  0  0  0  0  0  0
  1  2  3  0
  2  3  1  0
  3  4  1  0
  4  5  1  0
  5  6  3  0
  6  7  1  0
  4  8  1  0
  8  9  1  0
  1 10  1  0
  3 11  1  0
  3 12  1  0
  4 13  1  0
  7 14  1  0
  7 15  1  0
  7 16  1  0
  8 17  1  0
  8 18  1  0
  9 19  1  0
M  END
