
     RDKit          3D

 13 12  0  0  0  0  0  0  0  0999 V2000
    3.4402   -0.6063    0.5843 C   0  0  0  0  0  0  0  0  0  0  0  0
    2.3537   -0.2713    0.1756 C   0  0  0  0  0  0  0  0  0  0  0  0
    1.0455    0.1115   -0.2975 C   0  0  0  0  0  0  0  0  0  0  0  0
    0.8344    1.3122   -0.6054 O   0  0  0  0  0  0  0  0  0  0  0  0
    0.0146   -0.8078   -0.4222 O   0  0  0  0  0  0  0  0  0  0  0  0
   -1.2762   -0.4553   -0.8832 C   0  0  0  0  0  0  0  0  0  0  0  0
   -1.8430    0.5883    0.0802 C   0  0  0  0  0  0  0  0  0  0  0  0
    4.4148   -0.8873    0.9515 H   0  0  0  0  0  0  0  0  0  0  0  0
   -1.9139   -1.3631   -0.8879 H   0  0  0  0  0  0  0  0  0  0  0  0
   -1.1729   -0.0152   -1.9153 H   0  0  0  0  0  0  0  0  0  0  0  0
   -1.4271    1.5787   -0.0975 H   0  0  0  0  0  0  0  0  0  0  0  0
   -1.5349    0.2358    1.0972 H   0  0  0  0  0  0  0  0  0  0  0  0
   -2.9353    0.5798   -0.0506 H   0  0  0  0  0  0  0  0  0  0  0  0
  1  2  3  0
  2  3  1  0
  3  4  2  0
  3  5  1  0
  5  6  1  0
  6  7  1  0
  1  8  1  0
  6  9  1  0
  6 10  1  0
  7 11  1  0
  7 12  1  0
  7 13  1  0
M  END
