
     RDKit          3D

 15 16  0  0  0  0  0  0  0  0999 V2000
    1.6458   -1.6010   -2.0836 C   0  0  0  0  0  0  0  0  0  0  0  0
    0.6174   -1.4248   -1.2736 C   0  0  0  0  0  0  0  0  0  0  0  0
   -0.5409   -1.2263   -0.3923 C   0  0  0  0  0  0  0  0  0  0  0  0
   -0.1556   -0.1575    0.5772 C   0  0  0  0  0  0  0  0  0  0  0  0
    0.1075    1.1783   -0.1328 C   0  0  0  0  0  0  0  0  0  0  0  0
   -1.2983    1.3082   -0.1200 O   0  0  0  0  0  0  0  0  0  0  0  0
   -1.0530    0.8048    1.1182 C   0  0  0  0  0  0  0  0  0  0  0  0
    0.1383    1.7681    1.1502 C   0  0  0  0  0  0  0  0  0  0  0  0
    0.5205    2.4593    2.0159 O   0  0  0  0  0  0  0  0  0  0  0  0
    2.4969   -1.7276   -2.7483 H   0  0  0  0  0  0  0  0  0  0  0  0
   -0.8550   -2.1483    0.0372 H   0  0  0  0  0  0  0  0  0  0  0  0
   -1.3593   -0.8112   -1.0704 H   0  0  0  0  0  0  0  0  0  0  0  0
    0.7574   -0.4392    1.1853 H   0  0  0  0  0  0  0  0  0  0  0  0
    0.6470    1.2545   -0.9827 H   0  0  0  0  0  0  0  0  0  0  0  0
   -1.6685    0.7628    1.9513 H   0  0  0  0  0  0  0  0  0  0  0  0
  1  2  3  0
  2  3  1  0
  3  4  1  0
  4  5  1  0
  5  6  1  0
  6  7  1  0
  7  8  1  0
  8  9  2  0
  7  4  1  0
  8  5  1  0
  1 10  1  0
  3 11  1  0
  3 12  1  0
  4 13  1  0
  5 14  1  0
  7 15  1  0
M  END
