
     RDKit          3D

 21 22  0  0  0  0  0  0  0  0999 V2000
    3.6393    0.6016    0.9274 C   0  0  0  0  0  0  0  0  0  0  0  0
    2.4034    0.3031    0.7509 C   0  0  0  0  0  0  0  0  0  0  0  0
    0.9750   -0.0463    0.5521 C   0  0  0  0  0  0  0  0  0  0  0  0
    0.4619   -1.0362    1.5453 C   0  0  0  0  0  0  0  0  0  0  0  0
    0.0351    1.1694    0.3610 C   0  0  0  0  0  0  0  0  0  0  0  0
    0.3872    0.2269   -0.7577 C   0  0  0  0  0  0  0  0  0  0  0  0
   -0.7251   -0.5218   -1.3952 C   0  0  0  0  0  0  0  0  0  0  0  0
   -2.0650   -0.5907   -0.8084 C   0  0  0  0  0  0  0  0  0  0  0  0
   -1.8564    0.3326   -1.9705 C   0  0  0  0  0  0  0  0  0  0  0  0
    4.5637    0.8293    1.0760 H   0  0  0  0  0  0  0  0  0  0  0  0
    0.8012   -0.6931    2.5696 H   0  0  0  0  0  0  0  0  0  0  0  0
   -0.6406   -1.0550    1.5462 H   0  0  0  0  0  0  0  0  0  0  0  0
    0.8971   -2.0495    1.4483 H   0  0  0  0  0  0  0  0  0  0  0  0
   -0.9309    1.1859    0.8476 H   0  0  0  0  0  0  0  0  0  0  0  0
    0.5933    2.1497    0.4193 H   0  0  0  0  0  0  0  0  0  0  0  0
    1.0914    0.7040   -1.5182 H   0  0  0  0  0  0  0  0  0  0  0  0
   -0.4446   -1.3593   -2.1163 H   0  0  0  0  0  0  0  0  0  0  0  0
   -2.6979   -1.5063   -0.9910 H   0  0  0  0  0  0  0  0  0  0  0  0
   -2.2653   -0.0789    0.1407 H   0  0  0  0  0  0  0  0  0  0  0  0
   -2.3584    0.0179   -2.8987 H   0  0  0  0  0  0  0  0  0  0  0  0
   -1.8642    1.4167   -1.7981 H   0  0  0  0  0  0  0  0  0  0  0  0
  1  2  3  0
  2  3  1  0
  3  4  1  0
  3  5  1  0
  5  6  1  0
  6  7  1  0
  7  8  1  0
  8  9  1  0
  6  3  1  0
  9  7  1  0
  1 10  1  0
  4 11  1  0
  4 12  1  0
  4 13  1  0
  5 14  1  0
  5 15  1  0
  6 16  1  0
  7 17  1  0
  8 18  1  0
  8 19  1  0
  9 20  1  0
  9 21  1  0
M  END
