
     RDKit          3D

 19 20  0  0  0  0  0  0  0  0999 V2000
    2.8965   -1.5446    0.4859 C   0  0  0  0  0  0  0  0  0  0  0  0
    1.8954   -0.9198    0.4230 C   0  0  0  0  0  0  0  0  0  0  0  0
    0.6652   -0.1617    0.3224 C   0  0  0  0  0  0  0  0  0  0  0  0
   -0.5684   -0.6725    1.0314 C   0  0  0  0  0  0  0  0  0  0  0  0
   -1.2101   -0.9464   -0.2994 C   0  0  0  0  0  0  0  0  0  0  0  0
   -2.4469   -0.3348   -0.4716 O   0  0  0  0  0  0  0  0  0  0  0  0
   -0.0685   -0.3406   -1.0425 C   0  0  0  0  0  0  0  0  0  0  0  0
    0.5341    0.9432   -0.6833 C   0  0  0  0  0  0  0  0  0  0  0  0
   -0.2968    2.1208   -0.2253 C   0  0  0  0  0  0  0  0  0  0  0  0
    3.8099   -2.1082    0.5610 H   0  0  0  0  0  0  0  0  0  0  0  0
   -1.1503    0.0953    1.5821 H   0  0  0  0  0  0  0  0  0  0  0  0
   -0.3173   -1.5582    1.6268 H   0  0  0  0  0  0  0  0  0  0  0  0
   -1.3235   -2.0439   -0.4686 H   0  0  0  0  0  0  0  0  0  0  0  0
   -2.8333   -0.0095    0.4010 H   0  0  0  0  0  0  0  0  0  0  0  0
    0.4159   -0.9658   -1.7878 H   0  0  0  0  0  0  0  0  0  0  0  0
    1.4787    1.2093   -1.1853 H   0  0  0  0  0  0  0  0  0  0  0  0
   -1.3447    1.8173   -0.0536 H   0  0  0  0  0  0  0  0  0  0  0  0
   -0.2956    2.9542   -0.9593 H   0  0  0  0  0  0  0  0  0  0  0  0
    0.1596    2.4658    0.7433 H   0  0  0  0  0  0  0  0  0  0  0  0
  1  2  3  0
  2  3  1  0
  3  4  1  0
  4  5  1  0
  5  6  1  0
  5  7  1  0
  7  8  1  0
  8  9  1  0
  7  3  1  0
  8  3  1  0
  1 10  1  0
  4 11  1  0
  4 12  1  0
  5 13  1  0
  6 14  1  0
  7 15  1  0
  8 16  1  0
  9 17  1  0
  9 18  1  0
  9 19  1  0
M  END
