
     RDKit          3D

 13 12  0  0  0  0  0  0  0  0999 V2000
    3.3836   -0.5601   -0.6280 C   0  0  0  0  0  0  0  0  0  0  0  0
    2.1763   -0.7789   -0.6493 C   0  0  0  0  0  0  0  0  0  0  0  0
    0.7386   -1.0448   -0.6603 C   0  0  0  0  0  0  0  0  0  0  0  0
    0.0668   -0.0055    0.0464 O   0  0  0  0  0  0  0  0  0  0  0  0
   -1.3080    0.0281    0.2120 C   0  0  0  0  0  0  0  0  0  0  0  0
   -1.9526    1.1453    0.9633 C   0  0  0  0  0  0  0  0  0  0  0  0
   -1.9969   -0.8872   -0.2754 O   0  0  0  0  0  0  0  0  0  0  0  0
    4.4245   -0.3827   -0.5950 H   0  0  0  0  0  0  0  0  0  0  0  0
    0.3400   -1.1082   -1.7004 H   0  0  0  0  0  0  0  0  0  0  0  0
    0.5055   -1.9977   -0.1741 H   0  0  0  0  0  0  0  0  0  0  0  0
   -1.4151    1.3523    1.9141 H   0  0  0  0  0  0  0  0  0  0  0  0
   -2.9869    0.8550    1.1883 H   0  0  0  0  0  0  0  0  0  0  0  0
   -1.9757    2.0633    0.3583 H   0  0  0  0  0  0  0  0  0  0  0  0
  1  2  3  0
  2  3  1  0
  3  4  1  0
  4  5  1  0
  5  6  1  0
  5  7  2  0
  1  8  1  0
  3  9  1  0
  3 10  1  0
  6 11  1  0
  6 12  1  0
  6 13  1  0
M  END
