
     RDKit          3D

 19 20  0  0  0  0  0  0  0  0999 V2000
    1.8242    0.0435   -1.8493 C   0  0  0  0  0  0  0  0  0  0  0  0
    0.9800   -0.4679   -1.4320 C   0  0  0  0  0  0  0  0  0  0  0  0
   -0.2391   -1.1881   -0.8103 C   0  0  0  0  0  0  0  0  0  0  0  0
   -1.4049   -0.3778   -0.7077 C   0  0  0  0  0  0  0  0  0  0  0  0
   -1.2174    0.4738    0.5947 C   0  0  0  0  0  0  0  0  0  0  0  0
   -0.1647    1.4737    0.2847 C   0  0  0  0  0  0  0  0  0  0  0  0
    0.1238    0.2496    1.0641 C   0  0  0  0  0  0  0  0  0  0  0  0
    0.7836    0.5847    2.2465 O   0  0  0  0  0  0  0  0  0  0  0  0
    0.3470   -1.1583    0.6853 C   0  0  0  0  0  0  0  0  0  0  0  0
    2.7132    0.5671   -2.2994 H   0  0  0  0  0  0  0  0  0  0  0  0
   -0.2760   -2.2220   -1.0787 H   0  0  0  0  0  0  0  0  0  0  0  0
   -1.5432    0.3791   -1.5299 H   0  0  0  0  0  0  0  0  0  0  0  0
   -2.3674   -0.8696   -0.5494 H   0  0  0  0  0  0  0  0  0  0  0  0
   -2.0289    0.5992    1.2653 H   0  0  0  0  0  0  0  0  0  0  0  0
    0.1655    1.7365   -0.7066 H   0  0  0  0  0  0  0  0  0  0  0  0
   -0.2764    2.4020    0.9166 H   0  0  0  0  0  0  0  0  0  0  0  0
    1.5989    1.1495    1.9832 H   0  0  0  0  0  0  0  0  0  0  0  0
    1.3359   -1.5763    0.6912 H   0  0  0  0  0  0  0  0  0  0  0  0
   -0.3541   -1.7988    1.2318 H   0  0  0  0  0  0  0  0  0  0  0  0
  1  2  3  0
  2  3  1  0
  3  4  1  0
  4  5  1  0
  5  6  1  0
  6  7  1  0
  7  8  1  0
  7  9  1  0
  9  3  1  0
  7  5  1  0
  1 10  1  0
  3 11  1  0
  4 12  1  0
  4 13  1  0
  5 14  1  0
  6 15  1  0
  6 16  1  0
  8 17  1  0
  9 18  1  0
  9 19  1  0
M  END
