
     RDKit          3D

 23 23  0  0  0  0  0  0  0  0999 V2000
   -0.5700    2.7592   -0.9072 C   0  0  0  0  0  0  0  0  0  0  0  0
   -0.8458    1.6289   -0.5170 C   0  0  0  0  0  0  0  0  0  0  0  0
   -1.1930    0.2880   -0.0349 C   0  0  0  0  0  0  0  0  0  0  0  0
   -0.1999   -0.8197   -0.2667 C   0  0  0  0  0  0  0  0  0  0  0  0
    1.1063   -0.5562    0.3952 C   0  0  0  0  0  0  0  0  0  0  0  0
    2.0513   -1.7385    0.1169 C   0  0  0  0  0  0  0  0  0  0  0  0
    1.8347    0.6676   -0.0621 C   0  0  0  0  0  0  0  0  0  0  0  0
   -2.0354    0.2576    1.1897 C   0  0  0  0  0  0  0  0  0  0  0  0
   -2.6556   -0.1125   -0.0837 C   0  0  0  0  0  0  0  0  0  0  0  0
   -0.3347    3.7416   -1.2381 H   0  0  0  0  0  0  0  0  0  0  0  0
   -0.1075   -0.9199   -1.3795 H   0  0  0  0  0  0  0  0  0  0  0  0
   -0.6348   -1.7630    0.1646 H   0  0  0  0  0  0  0  0  0  0  0  0
    1.0379   -0.5058    1.5008 H   0  0  0  0  0  0  0  0  0  0  0  0
    1.5095   -2.6361    0.4604 H   0  0  0  0  0  0  0  0  0  0  0  0
    2.2561   -1.8066   -0.9675 H   0  0  0  0  0  0  0  0  0  0  0  0
    2.9922   -1.5772    0.6709 H   0  0  0  0  0  0  0  0  0  0  0  0
    2.9260    0.5111    0.1178 H   0  0  0  0  0  0  0  0  0  0  0  0
    1.6261    0.9322   -1.1142 H   0  0  0  0  0  0  0  0  0  0  0  0
    1.5350    1.5079    0.5763 H   0  0  0  0  0  0  0  0  0  0  0  0
   -1.7812   -0.5241    1.9479 H   0  0  0  0  0  0  0  0  0  0  0  0
   -2.3301    1.2142    1.6511 H   0  0  0  0  0  0  0  0  0  0  0  0
   -2.8908   -1.1647   -0.3415 H   0  0  0  0  0  0  0  0  0  0  0  0
   -3.2962    0.6158   -0.6186 H   0  0  0  0  0  0  0  0  0  0  0  0
  1  2  3  0
  2  3  1  0
  3  4  1  0
  4  5  1  0
  5  6  1  0
  5  7  1  0
  3  8  1  0
  8  9  1  0
  9  3  1  0
  1 10  1  0
  4 11  1  0
  4 12  1  0
  5 13  1  0
  6 14  1  0
  6 15  1  0
  6 16  1  0
  7 17  1  0
  7 18  1  0
  7 19  1  0
  8 20  1  0
  8 21  1  0
  9 22  1  0
  9 23  1  0
M  END
