
     RDKit          3D

 19 18  0  0  0  0  0  0  0  0999 V2000
    3.3945   -1.6339    0.2840 C   0  0  0  0  0  0  0  0  0  0  0  0
    3.3659   -0.4883    0.1194 C   0  0  0  0  0  0  0  0  0  0  0  0
    3.3266    0.6610   -0.0300 C   0  0  0  0  0  0  0  0  0  0  0  0
    1.5816    0.6074    0.0143 C   0  0  0  0  0  0  0  0  0  0  0  0
    0.3356    0.5851    0.0303 C   0  0  0  0  0  0  0  0  0  0  0  0
   -0.9929    0.5644    0.0550 C   0  0  0  0  0  0  0  0  0  0  0  0
   -1.4152    0.3287    1.5981 C   0  0  0  0  0  0  0  0  0  0  0  0
   -1.4314   -0.7239   -0.4873 O   0  0  0  0  0  0  0  0  0  0  0  0
   -2.7447   -0.4445   -0.9095 C   0  0  0  0  0  0  0  0  0  0  0  0
    3.4371   -3.1773    0.5333 H   0  0  0  0  0  0  0  0  0  0  0  0
    3.2949    1.3060   -0.9205 H   0  0  0  0  0  0  0  0  0  0  0  0
    3.3544    1.4045    0.8290 H   0  0  0  0  0  0  0  0  0  0  0  0
   -1.6499    1.3298   -0.2738 H   0  0  0  0  0  0  0  0  0  0  0  0
   -1.7890   -0.7360    1.6552 H   0  0  0  0  0  0  0  0  0  0  0  0
   -0.4911    0.3423    2.1789 H   0  0  0  0  0  0  0  0  0  0  0  0
   -2.0697    1.0884    1.9581 H   0  0  0  0  0  0  0  0  0  0  0  0
   -3.3886   -0.1707    0.0133 H   0  0  0  0  0  0  0  0  0  0  0  0
   -2.8380    0.4074   -1.5901 H   0  0  0  0  0  0  0  0  0  0  0  0
   -3.2800   -1.2505   -1.4248 H   0  0  0  0  0  0  0  0  0  0  0  0
  1  2  3  0
  2  3  1  0
  3  4  1  0
  4  5  3  0
  5  6  1  0
  6  7  1  0
  6  8  1  0
  8  9  1  0
  1 10  1  0
  3 11  1  0
  3 12  1  0
  6 13  1  0
  7 14  1  0
  7 15  1  0
  7 16  1  0
  9 17  1  0
  9 18  1  0
  9 19  1  0
M  END
