
     RDKit          3D

 21 20  0  0  0  0  0  0  0  0999 V2000
   -2.1735    1.3681    1.9402 C   0  0  0  0  0  0  0  0  0  0  0  0
   -2.4130    0.2075    1.1387 C   0  0  0  0  0  0  0  0  0  0  0  0
   -2.6231   -0.8904    0.3614 C   0  0  0  0  0  0  0  0  0  0  0  0
   -1.6117   -0.7355   -0.8629 C   0  0  0  0  0  0  0  0  0  0  0  0
   -0.1712   -0.6713   -0.1753 C   0  0  0  0  0  0  0  0  0  0  0  0
    0.0426   -1.0965    0.7940 O   0  0  0  0  0  0  0  0  0  0  0  0
    0.7948    0.0794   -1.0857 C   0  0  0  0  0  0  0  0  0  0  0  0
    1.9200    0.7589   -0.4321 C   0  0  0  0  0  0  0  0  0  0  0  0
    2.9466   -0.0520    0.3003 C   0  0  0  0  0  0  0  0  0  0  0  0
   -1.9957    2.2818    2.5877 H   0  0  0  0  0  0  0  0  0  0  0  0
   -3.6601   -0.9428   -0.0200 H   0  0  0  0  0  0  0  0  0  0  0  0
   -2.4248   -1.8208    0.8554 H   0  0  0  0  0  0  0  0  0  0  0  0
   -1.6710   -1.4892   -1.6056 H   0  0  0  0  0  0  0  0  0  0  0  0
   -1.8124    0.3024   -1.2536 H   0  0  0  0  0  0  0  0  0  0  0  0
    1.0814   -0.5292   -1.9197 H   0  0  0  0  0  0  0  0  0  0  0  0
    0.1594    0.9357   -1.5085 H   0  0  0  0  0  0  0  0  0  0  0  0
    2.4318    1.4524   -1.1145 H   0  0  0  0  0  0  0  0  0  0  0  0
    1.4859    1.5314    0.3547 H   0  0  0  0  0  0  0  0  0  0  0  0
    2.6566   -0.2046    1.3949 H   0  0  0  0  0  0  0  0  0  0  0  0
    3.9147    0.5505    0.3605 H   0  0  0  0  0  0  0  0  0  0  0  0
    3.1227   -1.0360   -0.1100 H   0  0  0  0  0  0  0  0  0  0  0  0
  1  2  3  0
  2  3  1  0
  3  4  1  0
  4  5  1  0
  5  6  2  0
  5  7  1  0
  7  8  1  0
  8  9  1  0
  1 10  1  0
  3 11  1  0
  3 12  1  0
  4 13  1  0
  4 14  1  0
  7 15  1  0
  7 16  1  0
  8 17  1  0
  8 18  1  0
  9 19  1  0
  9 20  1  0
  9 21  1  0
M  END
