
     RDKit          3D

 17 17  0  0  0  0  0  0  0  0999 V2000
    3.3405    0.6050    0.8862 C   0  0  0  0  0  0  0  0  0  0  0  0
    2.4146    0.5658    0.1075 C   0  0  0  0  0  0  0  0  0  0  0  0
    1.3662    0.5440   -0.7794 C   0  0  0  0  0  0  0  0  0  0  0  0
    0.8922   -0.7136   -1.2301 O   0  0  0  0  0  0  0  0  0  0  0  0
    0.0739   -0.1391   -0.2374 C   0  0  0  0  0  0  0  0  0  0  0  0
    0.1451   -0.7011    1.1219 C   0  0  0  0  0  0  0  0  0  0  0  0
    1.3931   -1.1183    1.4274 O   0  0  0  0  0  0  0  0  0  0  0  0
   -1.2639    0.3604   -0.7074 C   0  0  0  0  0  0  0  0  0  0  0  0
   -2.4509   -0.3821   -0.1774 C   0  0  0  0  0  0  0  0  0  0  0  0
    4.2852    0.6265    1.6664 H   0  0  0  0  0  0  0  0  0  0  0  0
    1.2244    1.3877   -1.5066 H   0  0  0  0  0  0  0  0  0  0  0  0
   -0.4418   -0.8789    1.9404 H   0  0  0  0  0  0  0  0  0  0  0  0
   -1.2738    1.4462   -0.5477 H   0  0  0  0  0  0  0  0  0  0  0  0
   -1.3083    0.2545   -1.8373 H   0  0  0  0  0  0  0  0  0  0  0  0
   -2.7755   -1.1702   -0.9275 H   0  0  0  0  0  0  0  0  0  0  0  0
   -3.3528    0.2280    0.0142 H   0  0  0  0  0  0  0  0  0  0  0  0
   -2.2684   -0.9148    0.7868 H   0  0  0  0  0  0  0  0  0  0  0  0
  1  2  3  0
  2  3  1  0
  3  4  1  0
  4  5  1  0
  5  6  1  0
  6  7  2  0
  5  8  1  0
  8  9  1  0
  5  3  1  0
  1 10  1  0
  3 11  1  0
  6 12  1  0
  8 13  1  0
  8 14  1  0
  9 15  1  0
  9 16  1  0
  9 17  1  0
M  END
