
     RDKit          3D

 19 20  0  0  0  0  0  0  0  0999 V2000
    1.4276    0.5125   -2.5464 C   0  0  0  0  0  0  0  0  0  0  0  0
    0.5034    0.2839   -1.8201 C   0  0  0  0  0  0  0  0  0  0  0  0
   -0.5766    0.0253   -0.9860 C   0  0  0  0  0  0  0  0  0  0  0  0
   -1.0137    1.6028   -0.8056 C   0  0  0  0  0  0  0  0  0  0  0  0
    0.1177   -0.1458    0.4993 C   0  0  0  0  0  0  0  0  0  0  0  0
    1.0142   -1.2672    0.4755 C   0  0  0  0  0  0  0  0  0  0  0  0
   -0.3079   -1.4082    1.1913 C   0  0  0  0  0  0  0  0  0  0  0  0
   -0.3494   -0.4491    2.4236 C   0  0  0  0  0  0  0  0  0  0  0  0
   -0.3743    0.6320    1.4716 O   0  0  0  0  0  0  0  0  0  0  0  0
    2.4327    0.7440   -3.3277 H   0  0  0  0  0  0  0  0  0  0  0  0
   -1.3555   -0.5335   -0.9812 H   0  0  0  0  0  0  0  0  0  0  0  0
   -0.5184    2.0563    0.0260 H   0  0  0  0  0  0  0  0  0  0  0  0
   -0.2856    2.1005   -1.6722 H   0  0  0  0  0  0  0  0  0  0  0  0
   -1.9301    1.8712   -1.2193 H   0  0  0  0  0  0  0  0  0  0  0  0
    1.1323   -1.8372   -0.4985 H   0  0  0  0  0  0  0  0  0  0  0  0
    1.9476   -1.2829    1.0650 H   0  0  0  0  0  0  0  0  0  0  0  0
   -1.1603   -1.9255    0.8745 H   0  0  0  0  0  0  0  0  0  0  0  0
   -1.3097   -0.4430    2.9256 H   0  0  0  0  0  0  0  0  0  0  0  0
    0.6061   -0.5362    2.9046 H   0  0  0  0  0  0  0  0  0  0  0  0
  1  2  3  0
  2  3  1  0
  3  4  1  0
  3  5  1  0
  5  6  1  0
  6  7  1  0
  7  8  1  0
  8  9  1  0
  7  5  1  0
  9  5  1  0
  1 10  1  0
  3 11  1  0
  4 12  1  0
  4 13  1  0
  4 14  1  0
  6 15  1  0
  6 16  1  0
  7 17  1  0
  8 18  1  0
  8 19  1  0
M  END
