
     RDKit          3D

 15 14  0  0  0  0  0  0  0  0999 V2000
    2.9661    0.6734    2.1352 C   0  0  0  0  0  0  0  0  0  0  0  0
    2.2275    0.3652    1.0744 C   0  0  0  0  0  0  0  0  0  0  0  0
    1.5266    0.0833    0.1044 C   0  0  0  0  0  0  0  0  0  0  0  0
    2.6478    0.0885   -1.0542 O   0  0  0  0  0  0  0  0  0  0  0  0
    0.5034   -0.2401   -0.7517 C   0  0  0  0  0  0  0  0  0  0  0  0
   -0.8342    0.2517   -0.1217 C   0  0  0  0  0  0  0  0  0  0  0  0
   -0.8500    1.2593    0.4968 O   0  0  0  0  0  0  0  0  0  0  0  0
   -2.0247   -0.6219   -0.3318 C   0  0  0  0  0  0  0  0  0  0  0  0
   -3.1716    0.1034   -0.0252 O   0  0  0  0  0  0  0  0  0  0  0  0
    3.6639    0.9695    3.1733 H   0  0  0  0  0  0  0  0  0  0  0  0
    0.4616    0.2829   -1.7097 H   0  0  0  0  0  0  0  0  0  0  0  0
    0.2809   -1.3527   -0.9235 H   0  0  0  0  0  0  0  0  0  0  0  0
   -1.9520   -1.5310    0.2479 H   0  0  0  0  0  0  0  0  0  0  0  0
   -2.0826   -0.8987   -1.4309 H   0  0  0  0  0  0  0  0  0  0  0  0
   -3.3629    0.5673   -0.8834 H   0  0  0  0  0  0  0  0  0  0  0  0
  1  2  3  0
  2  3  1  0
  3  4  2  0
  3  5  1  0
  5  6  1  0
  6  7  2  0
  6  8  1  0
  8  9  1  0
  1 10  1  0
  5 11  1  0
  5 12  1  0
  8 13  1  0
  8 14  1  0
  9 15  1  0
M  END
