
     RDKit          3D

 19 19  0  0  0  0  0  0  0  0999 V2000
    0.3141    2.5960   -0.0060 C   0  0  0  0  0  0  0  0  0  0  0  0
    0.3620    1.3942   -0.1041 C   0  0  0  0  0  0  0  0  0  0  0  0
    0.4358   -0.0563   -0.2412 C   0  0  0  0  0  0  0  0  0  0  0  0
    1.2826   -0.4876   -1.3732 C   0  0  0  0  0  0  0  0  0  0  0  0
    0.9050   -0.5973    1.1034 C   0  0  0  0  0  0  0  0  0  0  0  0
   -0.2055   -0.7191    1.9029 O   0  0  0  0  0  0  0  0  0  0  0  0
   -1.3243   -0.3798    1.1925 C   0  0  0  0  0  0  0  0  0  0  0  0
   -0.9523   -0.6902   -0.2434 C   0  0  0  0  0  0  0  0  0  0  0  0
   -1.7924   -0.1810   -1.1703 O   0  0  0  0  0  0  0  0  0  0  0  0
    0.2897    3.6633    0.0828 H   0  0  0  0  0  0  0  0  0  0  0  0
    2.0924   -1.1234   -1.0158 H   0  0  0  0  0  0  0  0  0  0  0  0
    0.6255   -1.0102   -2.1235 H   0  0  0  0  0  0  0  0  0  0  0  0
    1.6681    0.4076   -1.9077 H   0  0  0  0  0  0  0  0  0  0  0  0
    1.3133   -1.6237    0.8666 H   0  0  0  0  0  0  0  0  0  0  0  0
    1.7036    0.0383    1.5425 H   0  0  0  0  0  0  0  0  0  0  0  0
   -2.2396   -0.8704    1.5255 H   0  0  0  0  0  0  0  0  0  0  0  0
   -1.4474    0.7365    1.2988 H   0  0  0  0  0  0  0  0  0  0  0  0
   -0.8228   -1.7695   -0.3460 H   0  0  0  0  0  0  0  0  0  0  0  0
   -2.2078    0.6725   -0.9838 H   0  0  0  0  0  0  0  0  0  0  0  0
  1  2  3  0
  2  3  1  0
  3  4  1  0
  3  5  1  0
  5  6  1  0
  6  7  1  0
  7  8  1  0
  8  9  1  0
  8  3  1  0
  1 10  1  0
  4 11  1  0
  4 12  1  0
  4 13  1  0
  5 14  1  0
  5 15  1  0
  7 16  1  0
  7 17  1  0
  8 18  1  0
  9 19  1  0
M  END
