
     RDKit          3D

 17 18  0  0  0  0  0  0  0  0999 V2000
    2.9701    0.7581   -0.3277 C   0  0  0  0  0  0  0  0  0  0  0  0
    1.8789    0.2995   -0.1142 C   0  0  0  0  0  0  0  0  0  0  0  0
    0.5467   -0.2475    0.1509 C   0  0  0  0  0  0  0  0  0  0  0  0
    0.1024   -1.4655   -0.6290 C   0  0  0  0  0  0  0  0  0  0  0  0
   -1.2309   -1.5799   -0.2318 O   0  0  0  0  0  0  0  0  0  0  0  0
   -1.7150   -0.2812   -0.4559 C   0  0  0  0  0  0  0  0  0  0  0  0
   -0.6208    0.6232    0.1296 C   0  0  0  0  0  0  0  0  0  0  0  0
   -0.6161    1.9500   -0.1831 O   0  0  0  0  0  0  0  0  0  0  0  0
   -0.0957    0.1104    1.4374 C   0  0  0  0  0  0  0  0  0  0  0  0
    3.9554    1.1545   -0.5253 H   0  0  0  0  0  0  0  0  0  0  0  0
    0.7010   -2.3544   -0.4300 H   0  0  0  0  0  0  0  0  0  0  0  0
    0.0732   -1.1808   -1.7101 H   0  0  0  0  0  0  0  0  0  0  0  0
   -2.6730   -0.1471    0.0758 H   0  0  0  0  0  0  0  0  0  0  0  0
   -1.7887   -0.1632   -1.5491 H   0  0  0  0  0  0  0  0  0  0  0  0
   -1.3399    2.4709    0.2778 H   0  0  0  0  0  0  0  0  0  0  0  0
    0.4888    0.7536    2.1110 H   0  0  0  0  0  0  0  0  0  0  0  0
   -0.6365   -0.7006    1.9737 H   0  0  0  0  0  0  0  0  0  0  0  0
  1  2  3  0
  2  3  1  0
  3  4  1  0
  4  5  1  0
  5  6  1  0
  6  7  1  0
  7  8  1  0
  7  9  1  0
  7  3  1  0
  9  3  1  0
  1 10  1  0
  4 11  1  0
  4 12  1  0
  6 13  1  0
  6 14  1  0
  8 15  1  0
  9 16  1  0
  9 17  1  0
M  END
