
     RDKit          3D

 14 14  0  0  0  0  0  0  0  0999 V2000
    2.6204    0.0471    0.1937 C   0  0  0  0  0  0  0  0  0  0  0  0
    1.4794   -0.3212    0.3823 C   0  0  0  0  0  0  0  0  0  0  0  0
    0.0860   -0.7464    0.6047 C   0  0  0  0  0  0  0  0  0  0  0  0
   -0.6109   -0.9000   -0.7320 C   0  0  0  0  0  0  0  0  0  0  0  0
   -0.8983    0.5192   -1.0780 C   0  0  0  0  0  0  0  0  0  0  0  0
   -0.9519    1.2556    0.0274 C   0  0  0  0  0  0  0  0  0  0  0  0
   -0.7065    0.3877    1.1756 C   0  0  0  0  0  0  0  0  0  0  0  0
   -1.0840    0.5723    2.3591 O   0  0  0  0  0  0  0  0  0  0  0  0
    3.6198    0.3849    0.0163 H   0  0  0  0  0  0  0  0  0  0  0  0
    0.0589   -1.6425    1.2133 H   0  0  0  0  0  0  0  0  0  0  0  0
    0.0933   -1.2799   -1.5073 H   0  0  0  0  0  0  0  0  0  0  0  0
   -1.5161   -1.5089   -0.6519 H   0  0  0  0  0  0  0  0  0  0  0  0
   -1.0433    0.8942   -2.0995 H   0  0  0  0  0  0  0  0  0  0  0  0
   -1.1466    2.3379    0.0961 H   0  0  0  0  0  0  0  0  0  0  0  0
  1  2  3  0
  2  3  1  0
  3  4  1  0
  4  5  1  0
  5  6  2  0
  6  7  1  0
  7  8  2  0
  7  3  1  0
  1  9  1  0
  3 10  1  0
  4 11  1  0
  4 12  1  0
  5 13  1  0
  6 14  1  0
M  END
