
     RDKit          3D

 21 20  0  0  0  0  0  0  0  0999 V2000
   -3.7058    0.6821    0.2122 C   0  0  0  0  0  0  0  0  0  0  0  0
   -2.6847   -0.0248    0.0862 C   0  0  0  0  0  0  0  0  0  0  0  0
   -1.4561   -0.8590   -0.0429 C   0  0  0  0  0  0  0  0  0  0  0  0
   -0.6392   -0.8661    1.2058 C   0  0  0  0  0  0  0  0  0  0  0  0
    0.7614   -0.5591    0.6515 C   0  0  0  0  0  0  0  0  0  0  0  0
    1.8254   -0.5417    1.8456 C   0  0  0  0  0  0  0  0  0  0  0  0
    0.9361    0.0740   -0.2064 C   0  0  0  0  0  0  0  0  0  0  0  0
    1.1973    0.9655   -1.3826 C   0  0  0  0  0  0  0  0  0  0  0  0
    1.4941    1.9444   -2.6575 C   0  0  0  0  0  0  0  0  0  0  0  0
   -4.8500    1.4874    0.3764 H   0  0  0  0  0  0  0  0  0  0  0  0
   -1.8180   -1.7948   -0.4580 H   0  0  0  0  0  0  0  0  0  0  0  0
   -0.8706   -0.3007   -0.9014 H   0  0  0  0  0  0  0  0  0  0  0  0
   -0.7055   -1.9448    1.5385 H   0  0  0  0  0  0  0  0  0  0  0  0
   -0.8913   -0.1601    2.0253 H   0  0  0  0  0  0  0  0  0  0  0  0
    1.1365   -1.7461    0.2888 H   0  0  0  0  0  0  0  0  0  0  0  0
    2.2522   -1.5779    1.9690 H   0  0  0  0  0  0  0  0  0  0  0  0
    2.6626    0.0655    1.4182 H   0  0  0  0  0  0  0  0  0  0  0  0
    1.4073   -0.2361    2.7753 H   0  0  0  0  0  0  0  0  0  0  0  0
    0.7639    2.6527   -2.4763 H   0  0  0  0  0  0  0  0  0  0  0  0
    0.7686    1.1347   -3.3601 H   0  0  0  0  0  0  0  0  0  0  0  0
    2.4158    1.6047   -2.9073 H   0  0  0  0  0  0  0  0  0  0  0  0
  1  2  3  0
  2  3  1  0
  3  4  1  0
  4  5  1  0
  5  6  1  0
  5  7  1  0
  7  8  3  0
  8  9  1  0
  1 10  1  0
  3 11  1  0
  3 12  1  0
  4 13  1  0
  4 14  1  0
  5 15  1  0
  6 16  1  0
  6 17  1  0
  6 18  1  0
  9 19  1  0
  9 20  1  0
  9 21  1  0
M  END
