
     RDKit          3D

 17 17  0  0  0  0  0  0  0  0999 V2000
    3.5115   -0.4754   -0.0566 C   0  0  0  0  0  0  0  0  0  0  0  0
    2.3146   -0.6254   -0.0982 C   0  0  0  0  0  0  0  0  0  0  0  0
    0.8988   -0.8156   -0.1686 C   0  0  0  0  0  0  0  0  0  0  0  0
    0.3653   -1.8494    0.2958 O   0  0  0  0  0  0  0  0  0  0  0  0
    0.0654    0.2124   -0.7915 C   0  0  0  0  0  0  0  0  0  0  0  0
    0.1494    1.5840   -0.1166 C   0  0  0  0  0  0  0  0  0  0  0  0
   -0.7751    1.0778    0.8260 O   0  0  0  0  0  0  0  0  0  0  0  0
   -1.3381    0.3560   -0.2376 C   0  0  0  0  0  0  0  0  0  0  0  0
   -2.0279   -0.9113    0.1310 C   0  0  0  0  0  0  0  0  0  0  0  0
    4.5652   -0.3533   -0.0358 H   0  0  0  0  0  0  0  0  0  0  0  0
    0.1124    0.2932   -1.8918 H   0  0  0  0  0  0  0  0  0  0  0  0
   -0.3484    2.3311   -0.7430 H   0  0  0  0  0  0  0  0  0  0  0  0
    1.1308    1.8307    0.2935 H   0  0  0  0  0  0  0  0  0  0  0  0
   -1.9038    1.0637   -0.8760 H   0  0  0  0  0  0  0  0  0  0  0  0
   -1.8021   -1.7597   -0.5784 H   0  0  0  0  0  0  0  0  0  0  0  0
   -3.1358   -0.7081    0.1373 H   0  0  0  0  0  0  0  0  0  0  0  0
   -1.7824   -1.2508    1.1483 H   0  0  0  0  0  0  0  0  0  0  0  0
  1  2  3  0
  2  3  1  0
  3  4  2  0
  3  5  1  0
  5  6  1  0
  6  7  1  0
  7  8  1  0
  8  9  1  0
  8  5  1  0
  1 10  1  0
  5 11  1  0
  6 12  1  0
  6 13  1  0
  8 14  1  0
  9 15  1  0
  9 16  1  0
  9 17  1  0
M  END
