
     RDKit          3D

 17 18  0  0  0  0  0  0  0  0999 V2000
   -2.9594   -1.1914    1.2057 C   0  0  0  0  0  0  0  0  0  0  0  0
   -1.8872   -0.9045    0.7369 C   0  0  0  0  0  0  0  0  0  0  0  0
   -0.5996   -0.5825    0.1635 C   0  0  0  0  0  0  0  0  0  0  0  0
    0.4945   -1.2667    0.6223 O   0  0  0  0  0  0  0  0  0  0  0  0
    1.3144   -0.1227    0.7208 C   0  0  0  0  0  0  0  0  0  0  0  0
    2.2897   -0.1174   -0.4328 C   0  0  0  0  0  0  0  0  0  0  0  0
    0.0775    0.6967    0.4213 C   0  0  0  0  0  0  0  0  0  0  0  0
   -0.5277    0.4386   -0.9057 C   0  0  0  0  0  0  0  0  0  0  0  0
   -1.7183    1.1222   -1.1559 O   0  0  0  0  0  0  0  0  0  0  0  0
   -3.9253   -1.4441    1.6146 H   0  0  0  0  0  0  0  0  0  0  0  0
    1.7321    0.0381    1.7130 H   0  0  0  0  0  0  0  0  0  0  0  0
    2.4009    0.8795   -0.8944 H   0  0  0  0  0  0  0  0  0  0  0  0
    1.9444   -0.8002   -1.2576 H   0  0  0  0  0  0  0  0  0  0  0  0
    3.2771   -0.5128   -0.1194 H   0  0  0  0  0  0  0  0  0  0  0  0
   -0.2716    1.4576    1.1117 H   0  0  0  0  0  0  0  0  0  0  0  0
    0.1083    0.3183   -1.7853 H   0  0  0  0  0  0  0  0  0  0  0  0
   -1.7499    1.9912   -0.6541 H   0  0  0  0  0  0  0  0  0  0  0  0
  1  2  3  0
  2  3  1  0
  3  4  1  0
  4  5  1  0
  5  6  1  0
  5  7  1  0
  7  8  1  0
  8  9  1  0
  7  3  1  0
  8  3  1  0
  1 10  1  0
  5 11  1  0
  6 12  1  0
  6 13  1  0
  6 14  1  0
  7 15  1  0
  8 16  1  0
  9 17  1  0
M  END
