
     RDKit          3D

 19 19  0  0  0  0  0  0  0  0999 V2000
    2.7361    0.7429    1.1815 C   0  0  0  0  0  0  0  0  0  0  0  0
    1.6934    0.3152    0.9906 C   0  0  0  0  0  0  0  0  0  0  0  0
    0.2990   -0.2610    0.7618 C   0  0  0  0  0  0  0  0  0  0  0  0
   -0.5382    0.1383    1.7393 O   0  0  0  0  0  0  0  0  0  0  0  0
    0.3529   -1.6935    0.4751 C   0  0  0  0  0  0  0  0  0  0  0  0
   -0.4171   -2.0263   -0.5515 C   0  0  0  0  0  0  0  0  0  0  0  0
   -1.0738   -0.7934   -1.0626 C   0  0  0  0  0  0  0  0  0  0  0  0
   -0.1862    0.3018   -0.5852 C   0  0  0  0  0  0  0  0  0  0  0  0
   -0.8725    1.6305   -0.4566 C   0  0  0  0  0  0  0  0  0  0  0  0
    3.7303    1.1697    1.3569 H   0  0  0  0  0  0  0  0  0  0  0  0
   -0.6305    1.1597    1.6009 H   0  0  0  0  0  0  0  0  0  0  0  0
    0.9867   -2.4187    1.0246 H   0  0  0  0  0  0  0  0  0  0  0  0
   -0.5127   -3.0034   -0.9511 H   0  0  0  0  0  0  0  0  0  0  0  0
   -2.0878   -0.6825   -0.6183 H   0  0  0  0  0  0  0  0  0  0  0  0
   -1.1648   -0.8144   -2.1773 H   0  0  0  0  0  0  0  0  0  0  0  0
    0.6700    0.3690   -1.2888 H   0  0  0  0  0  0  0  0  0  0  0  0
   -1.8362    1.5103    0.0502 H   0  0  0  0  0  0  0  0  0  0  0  0
   -0.1659    2.3235    0.0215 H   0  0  0  0  0  0  0  0  0  0  0  0
   -0.9826    2.0323   -1.5110 H   0  0  0  0  0  0  0  0  0  0  0  0
  1  2  3  0
  2  3  1  0
  3  4  1  0
  3  5  1  0
  5  6  2  0
  6  7  1  0
  7  8  1  0
  8  9  1  0
  8  3  1  0
  1 10  1  0
  4 11  1  0
  5 12  1  0
  6 13  1  0
  7 14  1  0
  7 15  1  0
  8 16  1  0
  9 17  1  0
  9 18  1  0
  9 19  1  0
M  END
