
     RDKit          3D

 17 17  0  0  0  0  0  0  0  0999 V2000
   -1.4672   -3.2555   -0.0858 C   0  0  0  0  0  0  0  0  0  0  0  0
   -1.1630   -2.1220   -0.3161 C   0  0  0  0  0  0  0  0  0  0  0  0
   -0.8124   -0.7184   -0.6026 C   0  0  0  0  0  0  0  0  0  0  0  0
    0.7155   -0.5845   -0.5500 C   0  0  0  0  0  0  0  0  0  0  0  0
    0.5001    0.6197    0.3485 C   0  0  0  0  0  0  0  0  0  0  0  0
    0.5515    1.7947   -0.4389 O   0  0  0  0  0  0  0  0  0  0  0  0
    1.3626    2.8380   -0.0213 C   0  0  0  0  0  0  0  0  0  0  0  0
    2.0132    2.6789    1.0441 O   0  0  0  0  0  0  0  0  0  0  0  0
   -0.9287    0.1459    0.6318 C   0  0  0  0  0  0  0  0  0  0  0  0
   -1.7247   -4.2876    0.1251 H   0  0  0  0  0  0  0  0  0  0  0  0
   -1.2828   -0.2944   -1.4940 H   0  0  0  0  0  0  0  0  0  0  0  0
    1.1425   -0.3724   -1.5484 H   0  0  0  0  0  0  0  0  0  0  0  0
    1.2214   -1.3960   -0.0202 H   0  0  0  0  0  0  0  0  0  0  0  0
    1.1204    0.6126    1.2601 H   0  0  0  0  0  0  0  0  0  0  0  0
    1.4397    3.7763   -0.5969 H   0  0  0  0  0  0  0  0  0  0  0  0
   -1.0527   -0.4131    1.5543 H   0  0  0  0  0  0  0  0  0  0  0  0
   -1.6355    0.9776    0.5724 H   0  0  0  0  0  0  0  0  0  0  0  0
  1  2  3  0
  2  3  1  0
  3  4  1  0
  4  5  1  0
  5  6  1  0
  6  7  1  0
  7  8  2  0
  5  9  1  0
  9  3  1  0
  1 10  1  0
  3 11  1  0
  4 12  1  0
  4 13  1  0
  5 14  1  0
  7 15  1  0
  9 16  1  0
  9 17  1  0
M  END
