
     RDKit          3D

 23 22  0  0  0  0  0  0  0  0999 V2000
    3.1550   -0.6634    0.9849 C   0  0  0  0  0  0  0  0  0  0  0  0
    2.2040   -0.3609    0.3210 C   0  0  0  0  0  0  0  0  0  0  0  0
    1.0180    0.0028   -0.5028 C   0  0  0  0  0  0  0  0  0  0  0  0
    0.9968   -0.9523   -1.6395 C   0  0  0  0  0  0  0  0  0  0  0  0
   -0.0485   -0.7765   -2.5399 O   0  0  0  0  0  0  0  0  0  0  0  0
   -0.1624    0.0308    0.3778 C   0  0  0  0  0  0  0  0  0  0  0  0
    0.0807    1.0752    1.4628 C   0  0  0  0  0  0  0  0  0  0  0  0
   -1.4852    0.2785   -0.2385 C   0  0  0  0  0  0  0  0  0  0  0  0
   -2.5955    0.2808    0.7914 C   0  0  0  0  0  0  0  0  0  0  0  0
    4.0198   -0.9472    1.5701 H   0  0  0  0  0  0  0  0  0  0  0  0
    1.2701    1.0114   -0.9087 H   0  0  0  0  0  0  0  0  0  0  0  0
    1.1013   -2.0078   -1.3149 H   0  0  0  0  0  0  0  0  0  0  0  0
    1.9327   -0.7513   -2.2425 H   0  0  0  0  0  0  0  0  0  0  0  0
    0.2149   -1.0634   -3.4603 H   0  0  0  0  0  0  0  0  0  0  0  0
   -0.2460   -0.9447    0.9369 H   0  0  0  0  0  0  0  0  0  0  0  0
   -0.4453    0.8288    2.3943 H   0  0  0  0  0  0  0  0  0  0  0  0
   -0.2673    2.0432    1.0174 H   0  0  0  0  0  0  0  0  0  0  0  0
    1.1729    1.1947    1.5933 H   0  0  0  0  0  0  0  0  0  0  0  0
   -1.7759   -0.4098   -1.0368 H   0  0  0  0  0  0  0  0  0  0  0  0
   -1.5107    1.3090   -0.7003 H   0  0  0  0  0  0  0  0  0  0  0  0
   -3.0181    1.2970    0.9643 H   0  0  0  0  0  0  0  0  0  0  0  0
   -2.1667   -0.1345    1.7291 H   0  0  0  0  0  0  0  0  0  0  0  0
   -3.4445   -0.3401    0.4408 H   0  0  0  0  0  0  0  0  0  0  0  0
  1  2  3  0
  2  3  1  0
  3  4  1  0
  4  5  1  0
  3  6  1  0
  6  7  1  0
  6  8  1  0
  8  9  1  0
  1 10  1  0
  3 11  1  0
  4 12  1  0
  4 13  1  0
  5 14  1  0
  6 15  1  0
  7 16  1  0
  7 17  1  0
  7 18  1  0
  8 19  1  0
  8 20  1  0
  9 21  1  0
  9 22  1  0
  9 23  1  0
M  END
