
     RDKit          3D

 21 20  0  0  0  0  0  0  0  0999 V2000
   -1.5214   -1.9014    1.5713 C   0  0  0  0  0  0  0  0  0  0  0  0
   -1.1576   -0.9890    0.8293 C   0  0  0  0  0  0  0  0  0  0  0  0
   -0.7423    0.1015   -0.0748 C   0  0  0  0  0  0  0  0  0  0  0  0
   -0.5910    1.3619    0.6840 C   0  0  0  0  0  0  0  0  0  0  0  0
   -1.9205    0.3131   -0.9767 C   0  0  0  0  0  0  0  0  0  0  0  0
   -2.8476    0.4830   -1.7124 C   0  0  0  0  0  0  0  0  0  0  0  0
    0.3615   -0.3505   -0.9299 C   0  0  0  0  0  0  0  0  0  0  0  0
    1.6195   -0.8050   -0.3155 C   0  0  0  0  0  0  0  0  0  0  0  0
    2.2606    0.2961    0.4846 C   0  0  0  0  0  0  0  0  0  0  0  0
   -1.8291   -2.6754    2.2134 H   0  0  0  0  0  0  0  0  0  0  0  0
   -1.6247    1.7080    1.0050 H   0  0  0  0  0  0  0  0  0  0  0  0
   -0.2396    2.2106    0.0438 H   0  0  0  0  0  0  0  0  0  0  0  0
    0.0131    1.3546    1.5824 H   0  0  0  0  0  0  0  0  0  0  0  0
   -3.6809    0.6278   -2.3763 H   0  0  0  0  0  0  0  0  0  0  0  0
   -0.0294   -1.1796   -1.5924 H   0  0  0  0  0  0  0  0  0  0  0  0
    0.6206    0.4516   -1.6854 H   0  0  0  0  0  0  0  0  0  0  0  0
    1.5433   -1.7492    0.2654 H   0  0  0  0  0  0  0  0  0  0  0  0
    2.3399   -1.0587   -1.1501 H   0  0  0  0  0  0  0  0  0  0  0  0
    2.1008    0.2121    1.5796 H   0  0  0  0  0  0  0  0  0  0  0  0
    1.9442    1.3048    0.1806 H   0  0  0  0  0  0  0  0  0  0  0  0
    3.3805    0.2838    0.3742 H   0  0  0  0  0  0  0  0  0  0  0  0
  1  2  3  0
  2  3  1  0
  3  4  1  0
  3  5  1  0
  5  6  3  0
  3  7  1  0
  7  8  1  0
  8  9  1  0
  1 10  1  0
  4 11  1  0
  4 12  1  0
  4 13  1  0
  6 14  1  0
  7 15  1  0
  7 16  1  0
  8 17  1  0
  8 18  1  0
  9 19  1  0
  9 20  1  0
  9 21  1  0
M  END
