
     RDKit          3D

 15 16  0  0  0  0  0  0  0  0999 V2000
   -2.3149    1.0317   -0.3572 C   0  0  0  0  0  0  0  0  0  0  0  0
   -1.3850    0.6506    0.3020 C   0  0  0  0  0  0  0  0  0  0  0  0
   -0.2349    0.1885    1.0868 C   0  0  0  0  0  0  0  0  0  0  0  0
    1.0107    0.2107    0.2739 C   0  0  0  0  0  0  0  0  0  0  0  0
    0.8482    0.7291   -1.0800 C   0  0  0  0  0  0  0  0  0  0  0  0
    0.7311    1.1645   -2.1779 C   0  0  0  0  0  0  0  0  0  0  0  0
    1.0863   -1.2835    0.3474 C   0  0  0  0  0  0  0  0  0  0  0  0
    0.9819   -1.9161    1.5565 O   0  0  0  0  0  0  0  0  0  0  0  0
   -0.1704   -1.3152    1.1134 C   0  0  0  0  0  0  0  0  0  0  0  0
   -3.1537    1.3812   -0.9325 H   0  0  0  0  0  0  0  0  0  0  0  0
   -0.1117    0.6925    2.0681 H   0  0  0  0  0  0  0  0  0  0  0  0
    1.8708    0.6969    0.7831 H   0  0  0  0  0  0  0  0  0  0  0  0
    0.6312    1.5738   -3.1710 H   0  0  0  0  0  0  0  0  0  0  0  0
    1.2416   -1.8884   -0.5613 H   0  0  0  0  0  0  0  0  0  0  0  0
   -1.0312   -1.9161    0.7488 H   0  0  0  0  0  0  0  0  0  0  0  0
  1  2  3  0
  2  3  1  0
  3  4  1  0
  4  5  1  0
  5  6  3  0
  4  7  1  0
  7  8  1  0
  8  9  1  0
  9  3  1  0
  9  7  1  0
  1 10  1  0
  3 11  1  0
  4 12  1  0
  6 13  1  0
  7 14  1  0
  9 15  1  0
M  END
