
     RDKit          3D

 21 21  0  0  0  0  0  0  0  0999 V2000
    2.9667   -1.1678    0.0901 C   0  0  0  0  0  0  0  0  0  0  0  0
    2.0170   -0.5869   -0.3442 C   0  0  0  0  0  0  0  0  0  0  0  0
    0.8519    0.1181   -0.8838 C   0  0  0  0  0  0  0  0  0  0  0  0
   -0.0246   -0.7624   -1.4378 O   0  0  0  0  0  0  0  0  0  0  0  0
   -0.7170   -1.5584   -0.5793 C   0  0  0  0  0  0  0  0  0  0  0  0
   -1.3708   -0.8562    0.5648 C   0  0  0  0  0  0  0  0  0  0  0  0
   -0.4897    0.1668    1.2239 C   0  0  0  0  0  0  0  0  0  0  0  0
    0.2574    0.9821    0.2096 C   0  0  0  0  0  0  0  0  0  0  0  0
   -0.5881    2.0289   -0.4497 C   0  0  0  0  0  0  0  0  0  0  0  0
    3.8173   -1.6887    0.4994 H   0  0  0  0  0  0  0  0  0  0  0  0
    1.1602    0.8389   -1.6978 H   0  0  0  0  0  0  0  0  0  0  0  0
   -1.5442   -2.0512   -1.1716 H   0  0  0  0  0  0  0  0  0  0  0  0
   -0.0983   -2.4263   -0.2186 H   0  0  0  0  0  0  0  0  0  0  0  0
   -2.3522   -0.3971    0.2913 H   0  0  0  0  0  0  0  0  0  0  0  0
   -1.6217   -1.6267    1.3406 H   0  0  0  0  0  0  0  0  0  0  0  0
   -1.1615    0.8623    1.7827 H   0  0  0  0  0  0  0  0  0  0  0  0
    0.1928   -0.2716    1.9751 H   0  0  0  0  0  0  0  0  0  0  0  0
    1.1004    1.4782    0.7460 H   0  0  0  0  0  0  0  0  0  0  0  0
   -0.9360    1.6843   -1.4477 H   0  0  0  0  0  0  0  0  0  0  0  0
    0.0246    2.9202   -0.6133 H   0  0  0  0  0  0  0  0  0  0  0  0
   -1.4844    2.3138    0.1203 H   0  0  0  0  0  0  0  0  0  0  0  0
  1  2  3  0
  2  3  1  0
  3  4  1  0
  4  5  1  0
  5  6  1  0
  6  7  1  0
  7  8  1  0
  8  9  1  0
  8  3  1  0
  1 10  1  0
  3 11  1  0
  5 12  1  0
  5 13  1  0
  6 14  1  0
  6 15  1  0
  7 16  1  0
  7 17  1  0
  8 18  1  0
  9 19  1  0
  9 20  1  0
  9 21  1  0
M  END
