
     RDKit          3D

 17 16  0  0  0  0  0  0  0  0999 V2000
    1.6493    2.2825    0.5468 C   0  0  0  0  0  0  0  0  0  0  0  0
    1.2467    1.3344   -0.1969 C   0  0  0  0  0  0  0  0  0  0  0  0
    0.7963    0.3329   -0.9936 C   0  0  0  0  0  0  0  0  0  0  0  0
   -0.2373   -0.4400   -0.1164 C   0  0  0  0  0  0  0  0  0  0  0  0
   -1.4567    0.3866    0.2663 C   0  0  0  0  0  0  0  0  0  0  0  0
   -0.5218   -1.8697   -0.3604 C   0  0  0  0  0  0  0  0  0  0  0  0
    0.4713   -0.5171    1.1788 O   0  0  0  0  0  0  0  0  0  0  0  0
    2.0357    3.1999    1.2631 H   0  0  0  0  0  0  0  0  0  0  0  0
    0.4459    0.5774   -1.9635 H   0  0  0  0  0  0  0  0  0  0  0  0
    1.6810   -0.4249   -1.0319 H   0  0  0  0  0  0  0  0  0  0  0  0
   -1.3339    1.4497    0.1103 H   0  0  0  0  0  0  0  0  0  0  0  0
   -2.3411    0.0412   -0.3513 H   0  0  0  0  0  0  0  0  0  0  0  0
   -1.7735    0.1377    1.3209 H   0  0  0  0  0  0  0  0  0  0  0  0
    0.5309   -2.3367   -0.4657 H   0  0  0  0  0  0  0  0  0  0  0  0
   -0.9121   -2.3142    0.6414 H   0  0  0  0  0  0  0  0  0  0  0  0
   -1.0920   -2.1804   -1.2004 H   0  0  0  0  0  0  0  0  0  0  0  0
    0.8113    0.3406    1.3524 H   0  0  0  0  0  0  0  0  0  0  0  0
  1  2  3  0
  2  3  1  0
  3  4  1  0
  4  5  1  0
  4  6  1  0
  4  7  1  0
  1  8  1  0
  3  9  1  0
  3 10  1  0
  5 11  1  0
  5 12  1  0
  5 13  1  0
  6 14  1  0
  6 15  1  0
  6 16  1  0
  7 17  1  0
M  END
