
     RDKit          3D

 21 21  0  0  0  0  0  0  0  0999 V2000
   -1.0922    3.2618   -0.2305 C   0  0  0  0  0  0  0  0  0  0  0  0
   -0.7537    2.1598    0.1735 C   0  0  0  0  0  0  0  0  0  0  0  0
   -0.3407    0.8387    0.6585 C   0  0  0  0  0  0  0  0  0  0  0  0
   -1.4812    0.0592    0.7763 O   0  0  0  0  0  0  0  0  0  0  0  0
   -1.6270   -0.3548    2.1003 C   0  0  0  0  0  0  0  0  0  0  0  0
    0.6567    0.2620   -0.3221 C   0  0  0  0  0  0  0  0  0  0  0  0
    0.2818    0.0314   -1.7373 C   0  0  0  0  0  0  0  0  0  0  0  0
    0.5282   -1.1271   -0.8161 C   0  0  0  0  0  0  0  0  0  0  0  0
    1.8155   -1.8993   -0.9521 C   0  0  0  0  0  0  0  0  0  0  0  0
   -1.3719    4.2217   -0.5801 H   0  0  0  0  0  0  0  0  0  0  0  0
    0.1599    0.9302    1.6489 H   0  0  0  0  0  0  0  0  0  0  0  0
   -0.7116   -0.9555    2.3772 H   0  0  0  0  0  0  0  0  0  0  0  0
   -2.5306   -0.9667    2.1709 H   0  0  0  0  0  0  0  0  0  0  0  0
   -1.6244    0.5093    2.8007 H   0  0  0  0  0  0  0  0  0  0  0  0
    1.6719    0.6830   -0.1601 H   0  0  0  0  0  0  0  0  0  0  0  0
    1.0629    0.1976   -2.5210 H   0  0  0  0  0  0  0  0  0  0  0  0
   -0.7706    0.2536   -2.0598 H   0  0  0  0  0  0  0  0  0  0  0  0
   -0.3308   -1.7649   -0.5041 H   0  0  0  0  0  0  0  0  0  0  0  0
    1.6405   -2.9825   -1.1376 H   0  0  0  0  0  0  0  0  0  0  0  0
    2.4861   -1.5026   -1.7326 H   0  0  0  0  0  0  0  0  0  0  0  0
    2.3312   -1.8550    0.0473 H   0  0  0  0  0  0  0  0  0  0  0  0
  1  2  3  0
  2  3  1  0
  3  4  1  0
  4  5  1  0
  3  6  1  0
  6  7  1  0
  7  8  1  0
  8  9  1  0
  8  6  1  0
  1 10  1  0
  3 11  1  0
  5 12  1  0
  5 13  1  0
  5 14  1  0
  6 15  1  0
  7 16  1  0
  7 17  1  0
  8 18  1  0
  9 19  1  0
  9 20  1  0
  9 21  1  0
M  END
