
     RDKit          3D

 21 20  0  0  0  0  0  0  0  0999 V2000
    2.8074    1.8032   -0.7423 C   0  0  0  0  0  0  0  0  0  0  0  0
    2.4117    1.1398    0.1593 C   0  0  0  0  0  0  0  0  0  0  0  0
    1.9054    0.3254    1.3019 C   0  0  0  0  0  0  0  0  0  0  0  0
    1.0633   -0.7978    0.7656 C   0  0  0  0  0  0  0  0  0  0  0  0
   -0.1093   -0.2175    0.0016 C   0  0  0  0  0  0  0  0  0  0  0  0
    0.4065    0.5419   -1.0415 O   0  0  0  0  0  0  0  0  0  0  0  0
   -1.0065   -1.3143   -0.5333 C   0  0  0  0  0  0  0  0  0  0  0  0
   -2.0510   -0.8089   -1.2681 O   0  0  0  0  0  0  0  0  0  0  0  0
   -2.9053    0.0395   -0.6061 C   0  0  0  0  0  0  0  0  0  0  0  0
    3.1506    2.4140   -1.5655 H   0  0  0  0  0  0  0  0  0  0  0  0
    2.7435   -0.0443    1.9286 H   0  0  0  0  0  0  0  0  0  0  0  0
    1.2749    0.9970    1.9610 H   0  0  0  0  0  0  0  0  0  0  0  0
    0.7319   -1.4860    1.5690 H   0  0  0  0  0  0  0  0  0  0  0  0
    1.6533   -1.4030    0.0532 H   0  0  0  0  0  0  0  0  0  0  0  0
   -0.6678    0.4263    0.6864 H   0  0  0  0  0  0  0  0  0  0  0  0
   -0.0457    1.4197   -1.0382 H   0  0  0  0  0  0  0  0  0  0  0  0
   -0.4297   -2.0461   -1.1327 H   0  0  0  0  0  0  0  0  0  0  0  0
   -1.3965   -1.9044    0.3501 H   0  0  0  0  0  0  0  0  0  0  0  0
   -2.3795    0.9354   -0.2263 H   0  0  0  0  0  0  0  0  0  0  0  0
   -3.6698    0.4578   -1.3240 H   0  0  0  0  0  0  0  0  0  0  0  0
   -3.4875   -0.4777    0.1904 H   0  0  0  0  0  0  0  0  0  0  0  0
  1  2  3  0
  2  3  1  0
  3  4  1  0
  4  5  1  0
  5  6  1  0
  5  7  1  0
  7  8  1  0
  8  9  1  0
  1 10  1  0
  3 11  1  0
  3 12  1  0
  4 13  1  0
  4 14  1  0
  5 15  1  0
  6 16  1  0
  7 17  1  0
  7 18  1  0
  9 19  1  0
  9 20  1  0
  9 21  1  0
M  END
