
     RDKit          3D

 21 22  0  0  0  0  0  0  0  0999 V2000
    0.9997    2.7067    0.7782 C   0  0  0  0  0  0  0  0  0  0  0  0
    0.8707    1.5531    0.4040 C   0  0  0  0  0  0  0  0  0  0  0  0
    0.6997    0.1594   -0.0268 C   0  0  0  0  0  0  0  0  0  0  0  0
    1.4760   -0.1770   -1.2541 C   0  0  0  0  0  0  0  0  0  0  0  0
    0.9800   -0.7668    1.1640 C   0  0  0  0  0  0  0  0  0  0  0  0
   -0.5307   -0.9657    1.3484 C   0  0  0  0  0  0  0  0  0  0  0  0
   -0.7170   -0.3027    0.0356 C   0  0  0  0  0  0  0  0  0  0  0  0
   -1.8486    0.5025   -0.3621 C   0  0  0  0  0  0  0  0  0  0  0  0
   -1.4677   -0.8329   -1.0820 C   0  0  0  0  0  0  0  0  0  0  0  0
    1.1041    3.7124    1.0889 H   0  0  0  0  0  0  0  0  0  0  0  0
    1.5069    0.7002   -1.9224 H   0  0  0  0  0  0  0  0  0  0  0  0
    2.5159   -0.4049   -0.9711 H   0  0  0  0  0  0  0  0  0  0  0  0
    0.9692   -1.0005   -1.7931 H   0  0  0  0  0  0  0  0  0  0  0  0
    1.5230   -1.6619    0.8684 H   0  0  0  0  0  0  0  0  0  0  0  0
    1.4513   -0.2567    2.0273 H   0  0  0  0  0  0  0  0  0  0  0  0
   -0.7663   -2.0489    1.3338 H   0  0  0  0  0  0  0  0  0  0  0  0
   -0.9202   -0.4390    2.2438 H   0  0  0  0  0  0  0  0  0  0  0  0
   -2.8265    0.5315    0.1291 H   0  0  0  0  0  0  0  0  0  0  0  0
   -1.6333    1.4058   -0.9933 H   0  0  0  0  0  0  0  0  0  0  0  0
   -1.1798   -0.7560   -2.1351 H   0  0  0  0  0  0  0  0  0  0  0  0
   -2.2065   -1.6588   -0.8815 H   0  0  0  0  0  0  0  0  0  0  0  0
  1  2  3  0
  2  3  1  0
  3  4  1  0
  3  5  1  0
  5  6  1  0
  6  7  1  0
  7  8  1  0
  8  9  1  0
  7  3  1  0
  9  7  1  0
  1 10  1  0
  4 11  1  0
  4 12  1  0
  4 13  1  0
  5 14  1  0
  5 15  1  0
  6 16  1  0
  6 17  1  0
  8 18  1  0
  8 19  1  0
  9 20  1  0
  9 21  1  0
M  END
