
     RDKit          3D

 19 20  0  0  0  0  0  0  0  0999 V2000
    3.4057    0.1228    0.3408 C   0  0  0  0  0  0  0  0  0  0  0  0
    2.4173   -0.4278   -0.0833 C   0  0  0  0  0  0  0  0  0  0  0  0
    1.2091   -1.0734   -0.6057 C   0  0  0  0  0  0  0  0  0  0  0  0
    0.0575   -0.2359   -0.3182 C   0  0  0  0  0  0  0  0  0  0  0  0
   -1.3126   -0.7018   -0.7665 C   0  0  0  0  0  0  0  0  0  0  0  0
   -2.0778    0.5873   -0.3950 C   0  0  0  0  0  0  0  0  0  0  0  0
   -0.9067    1.3118    0.2380 C   0  0  0  0  0  0  0  0  0  0  0  0
   -0.1742    0.2764    1.0638 C   0  0  0  0  0  0  0  0  0  0  0  0
    0.0916    1.1026   -0.7411 O   0  0  0  0  0  0  0  0  0  0  0  0
    4.2899    0.6184    0.7009 H   0  0  0  0  0  0  0  0  0  0  0  0
    1.0961   -2.0608   -0.1689 H   0  0  0  0  0  0  0  0  0  0  0  0
    1.2916   -1.1985   -1.7245 H   0  0  0  0  0  0  0  0  0  0  0  0
   -1.6293   -1.5270   -0.1151 H   0  0  0  0  0  0  0  0  0  0  0  0
   -1.3751   -0.9123   -1.8340 H   0  0  0  0  0  0  0  0  0  0  0  0
   -2.8963    0.3864    0.2943 H   0  0  0  0  0  0  0  0  0  0  0  0
   -2.3532    1.0665   -1.3380 H   0  0  0  0  0  0  0  0  0  0  0  0
   -1.0380    2.2925    0.6192 H   0  0  0  0  0  0  0  0  0  0  0  0
    0.7002    0.7477    1.5457 H   0  0  0  0  0  0  0  0  0  0  0  0
   -0.7958   -0.3750    1.6833 H   0  0  0  0  0  0  0  0  0  0  0  0
  1  2  3  0
  2  3  1  0
  3  4  1  0
  4  5  1  0
  5  6  1  0
  6  7  1  0
  7  8  1  0
  7  9  1  0
  8  4  1  0
  9  4  1  0
  1 10  1  0
  3 11  1  0
  3 12  1  0
  5 13  1  0
  5 14  1  0
  6 15  1  0
  6 16  1  0
  7 17  1  0
  8 18  1  0
  8 19  1  0
M  END
