
     RDKit          3D

 15 14  0  0  0  0  0  0  0  0999 V2000
   -1.2610   -2.0742    2.1547 C   0  0  0  0  0  0  0  0  0  0  0  0
   -0.6681   -1.1137    1.6583 C   0  0  0  0  0  0  0  0  0  0  0  0
    0.0376    0.0322    1.0941 C   0  0  0  0  0  0  0  0  0  0  0  0
   -0.9083    1.1679    1.1455 C   0  0  0  0  0  0  0  0  0  0  0  0
   -1.6890    2.1067    1.2062 C   0  0  0  0  0  0  0  0  0  0  0  0
    0.4145   -0.2711   -0.3013 C   0  0  0  0  0  0  0  0  0  0  0  0
    0.0944   -1.3784   -0.7837 O   0  0  0  0  0  0  0  0  0  0  0  0
    1.1083    0.6193   -1.0981 O   0  0  0  0  0  0  0  0  0  0  0  0
    1.4235    0.2429   -2.4149 C   0  0  0  0  0  0  0  0  0  0  0  0
   -1.7529   -2.9043    2.5733 H   0  0  0  0  0  0  0  0  0  0  0  0
    0.9633    0.2720    1.6606 H   0  0  0  0  0  0  0  0  0  0  0  0
   -2.3548    2.9258    1.2646 H   0  0  0  0  0  0  0  0  0  0  0  0
    2.3735    0.7463   -2.7335 H   0  0  0  0  0  0  0  0  0  0  0  0
    0.6356    0.4990   -3.1564 H   0  0  0  0  0  0  0  0  0  0  0  0
    1.5834   -0.8706   -2.4926 H   0  0  0  0  0  0  0  0  0  0  0  0
  1  2  3  0
  2  3  1  0
  3  4  1  0
  4  5  3  0
  3  6  1  0
  6  7  2  0
  6  8  1  0
  8  9  1  0
  1 10  1  0
  3 11  1  0
  5 12  1  0
  9 13  1  0
  9 14  1  0
  9 15  1  0
M  END
