
     RDKit          3D

 19 20  0  0  0  0  0  0  0  0999 V2000
    0.3996    2.7321   -1.2081 C   0  0  0  0  0  0  0  0  0  0  0  0
    0.3022    1.5751   -0.9111 C   0  0  0  0  0  0  0  0  0  0  0  0
    0.1602    0.1436   -0.5579 C   0  0  0  0  0  0  0  0  0  0  0  0
    1.3144   -0.2746    0.3675 C   0  0  0  0  0  0  0  0  0  0  0  0
    1.2692    0.5430    1.6339 C   0  0  0  0  0  0  0  0  0  0  0  0
   -0.5139   -0.8489   -1.3139 C   0  0  0  0  0  0  0  0  0  0  0  0
   -1.6706   -1.7594   -0.8225 C   0  0  0  0  0  0  0  0  0  0  0  0
   -2.3188   -0.4927   -0.7749 O   0  0  0  0  0  0  0  0  0  0  0  0
   -1.1837   -0.1688   -0.0677 C   0  0  0  0  0  0  0  0  0  0  0  0
    0.4938    3.7656   -1.4556 H   0  0  0  0  0  0  0  0  0  0  0  0
    2.2590   -0.0696   -0.1617 H   0  0  0  0  0  0  0  0  0  0  0  0
    1.2332   -1.3614    0.5147 H   0  0  0  0  0  0  0  0  0  0  0  0
    0.4092    1.2123    1.7098 H   0  0  0  0  0  0  0  0  0  0  0  0
    2.2417    1.0540    1.7690 H   0  0  0  0  0  0  0  0  0  0  0  0
    1.2027   -0.2137    2.4706 H   0  0  0  0  0  0  0  0  0  0  0  0
   -0.9037   -0.4304   -2.3080 H   0  0  0  0  0  0  0  0  0  0  0  0
   -1.5104   -2.2152    0.1545 H   0  0  0  0  0  0  0  0  0  0  0  0
   -2.0137   -2.4315   -1.5953 H   0  0  0  0  0  0  0  0  0  0  0  0
   -1.1703   -0.7597    0.8828 H   0  0  0  0  0  0  0  0  0  0  0  0
  1  2  3  0
  2  3  1  0
  3  4  1  0
  4  5  1  0
  3  6  1  0
  6  7  1  0
  7  8  1  0
  8  9  1  0
  9  3  1  0
  9  6  1  0
  1 10  1  0
  4 11  1  0
  4 12  1  0
  5 13  1  0
  5 14  1  0
  5 15  1  0
  6 16  1  0
  7 17  1  0
  7 18  1  0
  9 19  1  0
M  END
