
     RDKit          3D

 21 22  0  0  0  0  0  0  0  0999 V2000
   -2.0574    0.2128   -2.2001 C   0  0  0  0  0  0  0  0  0  0  0  0
   -1.6567   -0.4846   -1.3612 C   0  0  0  0  0  0  0  0  0  0  0  0
   -1.1660   -1.3907   -0.2860 C   0  0  0  0  0  0  0  0  0  0  0  0
    0.3172   -1.5178   -0.1597 C   0  0  0  0  0  0  0  0  0  0  0  0
    1.1428   -0.9617   -1.3028 C   0  0  0  0  0  0  0  0  0  0  0  0
   -0.3584   -0.6599    0.8129 C   0  0  0  0  0  0  0  0  0  0  0  0
   -0.2684    0.8506    0.6889 C   0  0  0  0  0  0  0  0  0  0  0  0
    0.5092    1.5737    1.8049 C   0  0  0  0  0  0  0  0  0  0  0  0
    1.0118    1.5089    0.4065 C   0  0  0  0  0  0  0  0  0  0  0  0
   -2.4466    0.8730   -3.0250 H   0  0  0  0  0  0  0  0  0  0  0  0
   -1.8713   -2.1435    0.0473 H   0  0  0  0  0  0  0  0  0  0  0  0
    0.6587   -2.5117    0.1652 H   0  0  0  0  0  0  0  0  0  0  0  0
    0.7125    0.0023   -1.6222 H   0  0  0  0  0  0  0  0  0  0  0  0
    0.9819   -1.6551   -2.1851 H   0  0  0  0  0  0  0  0  0  0  0  0
    2.2126   -0.9657   -1.0964 H   0  0  0  0  0  0  0  0  0  0  0  0
   -0.5675   -1.0327    1.8286 H   0  0  0  0  0  0  0  0  0  0  0  0
   -1.1904    1.3676    0.3370 H   0  0  0  0  0  0  0  0  0  0  0  0
    0.1373    2.5706    2.1421 H   0  0  0  0  0  0  0  0  0  0  0  0
    0.9778    0.9600    2.6042 H   0  0  0  0  0  0  0  0  0  0  0  0
    1.9121    0.9198    0.2155 H   0  0  0  0  0  0  0  0  0  0  0  0
    1.0086    2.4842   -0.1558 H   0  0  0  0  0  0  0  0  0  0  0  0
  1  2  3  0
  2  3  1  0
  3  4  1  0
  4  5  1  0
  4  6  1  0
  6  7  1  0
  7  8  1  0
  8  9  1  0
  6  3  1  0
  9  7  1  0
  1 10  1  0
  3 11  1  0
  4 12  1  0
  5 13  1  0
  5 14  1  0
  5 15  1  0
  6 16  1  0
  7 17  1  0
  8 18  1  0
  8 19  1  0
  9 20  1  0
  9 21  1  0
M  END
