
     RDKit          3D

 17 19  0  0  0  0  0  0  0  0999 V2000
    3.1886    0.1255    1.1481 C   0  0  0  0  0  0  0  0  0  0  0  0
    2.3121    0.4400    0.3767 C   0  0  0  0  0  0  0  0  0  0  0  0
    1.2318    0.8267   -0.5422 C   0  0  0  0  0  0  0  0  0  0  0  0
    0.2855   -0.2305   -0.8964 C   0  0  0  0  0  0  0  0  0  0  0  0
   -0.1296   -1.2137    0.1704 C   0  0  0  0  0  0  0  0  0  0  0  0
    0.1552   -0.9765    1.4935 O   0  0  0  0  0  0  0  0  0  0  0  0
   -0.7003   -0.0615    0.9479 C   0  0  0  0  0  0  0  0  0  0  0  0
   -2.1748   -0.1004    1.1961 C   0  0  0  0  0  0  0  0  0  0  0  0
   -0.1203    0.9625    0.0218 C   0  0  0  0  0  0  0  0  0  0  0  0
    3.9451   -0.1454    1.8376 H   0  0  0  0  0  0  0  0  0  0  0  0
    1.4964    1.5502   -1.3400 H   0  0  0  0  0  0  0  0  0  0  0  0
   -0.2582   -0.2786   -1.8568 H   0  0  0  0  0  0  0  0  0  0  0  0
   -0.7518   -2.0777   -0.0949 H   0  0  0  0  0  0  0  0  0  0  0  0
   -2.3737   -0.9229    1.9270 H   0  0  0  0  0  0  0  0  0  0  0  0
   -2.5798    0.8158    1.6404 H   0  0  0  0  0  0  0  0  0  0  0  0
   -2.6738   -0.3859    0.2561 H   0  0  0  0  0  0  0  0  0  0  0  0
   -0.8522    1.6726   -0.3901 H   0  0  0  0  0  0  0  0  0  0  0  0
  1  2  3  0
  2  3  1  0
  3  4  1  0
  4  5  1  0
  5  6  1  0
  6  7  1  0
  7  8  1  0
  7  9  1  0
  9  3  1  0
  9  4  1  0
  7  5  1  0
  1 10  1  0
  3 11  1  0
  4 12  1  0
  5 13  1  0
  8 14  1  0
  8 15  1  0
  8 16  1  0
  9 17  1  0
M  END
