
     RDKit          3D

 17 18  0  0  0  0  0  0  0  0999 V2000
   -3.3869   -0.1421    0.6218 C   0  0  0  0  0  0  0  0  0  0  0  0
   -2.2064   -0.0919    0.4564 C   0  0  0  0  0  0  0  0  0  0  0  0
   -0.8989   -0.0487    0.2674 C   0  0  0  0  0  0  0  0  0  0  0  0
    0.1657    0.1995    1.2954 C   0  0  0  0  0  0  0  0  0  0  0  0
    0.9055    0.0573   -0.0058 C   0  0  0  0  0  0  0  0  0  0  0  0
    2.2119    0.1017   -0.2029 C   0  0  0  0  0  0  0  0  0  0  0  0
    3.3937    0.1437   -0.3618 C   0  0  0  0  0  0  0  0  0  0  0  0
   -0.1463    0.9210   -0.6142 C   0  0  0  0  0  0  0  0  0  0  0  0
   -0.0093   -1.1108   -0.2886 C   0  0  0  0  0  0  0  0  0  0  0  0
   -4.4560   -0.1882    0.7907 H   0  0  0  0  0  0  0  0  0  0  0  0
    0.1767    1.1870    1.7636 H   0  0  0  0  0  0  0  0  0  0  0  0
    0.3597   -0.6749    1.9405 H   0  0  0  0  0  0  0  0  0  0  0  0
    4.4650    0.1992   -0.5133 H   0  0  0  0  0  0  0  0  0  0  0  0
   -0.1722    1.9768   -0.2843 H   0  0  0  0  0  0  0  0  0  0  0  0
   -0.3303    0.7654   -1.6772 H   0  0  0  0  0  0  0  0  0  0  0  0
    0.1564   -2.0040    0.3346 H   0  0  0  0  0  0  0  0  0  0  0  0
   -0.2284   -1.2909   -1.3612 H   0  0  0  0  0  0  0  0  0  0  0  0
  1  2  3  0
  2  3  1  0
  3  4  1  0
  4  5  1  0
  5  6  1  0
  6  7  3  0
  5  8  1  0
  5  9  1  0
  8  3  1  0
  9  3  1  0
  1 10  1  0
  4 11  1  0
  4 12  1  0
  7 13  1  0
  8 14  1  0
  8 15  1  0
  9 16  1  0
  9 17  1  0
M  END
