
     RDKit          3D

 17 17  0  0  0  0  0  0  0  0999 V2000
    2.0691    1.0122   -0.7392 C   0  0  0  0  0  0  0  0  0  0  0  0
    1.7725    0.3718   -0.3005 C   0  0  0  0  0  0  0  0  0  0  0  0
    1.2548   -0.6929    0.4452 C   0  0  0  0  0  0  0  0  0  0  0  0
   -0.2053   -0.9240   -0.1753 C   0  0  0  0  0  0  0  0  0  0  0  0
   -1.1277   -1.5604    0.9631 C   0  0  0  0  0  0  0  0  0  0  0  0
   -0.7197   -0.9675   -1.3801 O   0  0  0  0  0  0  0  0  0  0  0  0
   -0.7742    0.3322   -0.7356 C   0  0  0  0  0  0  0  0  0  0  0  0
   -1.1010    1.3514   -0.2874 C   0  0  0  0  0  0  0  0  0  0  0  0
   -1.2729    1.8657   -0.0520 C   0  0  0  0  0  0  0  0  0  0  0  0
    2.6568    2.3180   -1.6578 H   0  0  0  0  0  0  0  0  0  0  0  0
    1.9665   -1.6404    0.1876 H   0  0  0  0  0  0  0  0  0  0  0  0
    1.0875   -0.7122    1.4611 H   0  0  0  0  0  0  0  0  0  0  0  0
   -1.1476   -2.6232    0.8976 H   0  0  0  0  0  0  0  0  0  0  0  0
   -2.1618   -1.2476    0.6249 H   0  0  0  0  0  0  0  0  0  0  0  0
   -0.7024   -0.9580    1.8706 H   0  0  0  0  0  0  0  0  0  0  0  0
    0.1656    0.7193   -1.7576 H   0  0  0  0  0  0  0  0  0  0  0  0
   -1.7602    3.3557    0.6354 H   0  0  0  0  0  0  0  0  0  0  0  0
  1  2  3  0
  2  3  1  0
  3  4  1  0
  4  5  1  0
  4  6  1  0
  6  7  1  0
  7  8  1  0
  8  9  3  0
  7  4  1  0
  1 10  1  0
  3 11  1  0
  3 12  1  0
  5 13  1  0
  5 14  1  0
  5 15  1  0
  7 16  1  0
  9 17  1  0
M  END
