
     RDKit          3D

 17 17  0  0  0  0  0  0  0  0999 V2000
    2.5281    1.5823   -1.0297 C   0  0  0  0  0  0  0  0  0  0  0  0
    1.4934    0.8781   -0.6351 C   0  0  0  0  0  0  0  0  0  0  0  0
    0.3748    0.1417   -0.2275 C   0  0  0  0  0  0  0  0  0  0  0  0
   -0.2607    0.5924    1.0494 C   0  0  0  0  0  0  0  0  0  0  0  0
   -1.4810   -0.0080    1.6259 C   0  0  0  0  0  0  0  0  0  0  0  0
    0.2821    1.5177    1.6446 O   0  0  0  0  0  0  0  0  0  0  0  0
    0.5529   -1.3512   -0.3709 C   0  0  0  0  0  0  0  0  0  0  0  0
   -0.8558   -1.4013   -0.5662 O   0  0  0  0  0  0  0  0  0  0  0  0
   -0.6665   -0.1890   -1.2760 C   0  0  0  0  0  0  0  0  0  0  0  0
    3.2860    2.1159   -1.3132 H   0  0  0  0  0  0  0  0  0  0  0  0
   -1.4510   -1.1032    1.6336 H   0  0  0  0  0  0  0  0  0  0  0  0
   -1.5620    0.3034    2.7030 H   0  0  0  0  0  0  0  0  0  0  0  0
   -2.3918    0.3041    1.0861 H   0  0  0  0  0  0  0  0  0  0  0  0
    0.9994   -1.5451   -1.3790 H   0  0  0  0  0  0  0  0  0  0  0  0
    0.9007   -1.9196    0.4791 H   0  0  0  0  0  0  0  0  0  0  0  0
   -1.4985    0.5205   -1.1820 H   0  0  0  0  0  0  0  0  0  0  0  0
   -0.2502   -0.4387   -2.2420 H   0  0  0  0  0  0  0  0  0  0  0  0
  1  2  3  0
  2  3  1  0
  3  4  1  0
  4  5  1  0
  4  6  2  0
  3  7  1  0
  7  8  1  0
  8  9  1  0
  9  3  1  0
  1 10  1  0
  5 11  1  0
  5 12  1  0
  5 13  1  0
  7 14  1  0
  7 15  1  0
  9 16  1  0
  9 17  1  0
M  END
