
     RDKit          3D

 23 22  0  0  0  0  0  0  0  0999 V2000
   -1.7535    2.4192   -0.1198 C   0  0  0  0  0  0  0  0  0  0  0  0
   -0.9776    1.5040   -0.3612 C   0  0  0  0  0  0  0  0  0  0  0  0
   -0.0690    0.4061   -0.6671 C   0  0  0  0  0  0  0  0  0  0  0  0
    0.9059    0.8080   -1.6029 O   0  0  0  0  0  0  0  0  0  0  0  0
   -0.7775   -0.7751   -1.2638 C   0  0  0  0  0  0  0  0  0  0  0  0
   -1.8311   -1.3435   -0.3488 C   0  0  0  0  0  0  0  0  0  0  0  0
    0.6589   -0.0391    0.5637 C   0  0  0  0  0  0  0  0  0  0  0  0
    1.5796   -1.1874    0.1322 C   0  0  0  0  0  0  0  0  0  0  0  0
    1.4715    1.0860    1.1609 C   0  0  0  0  0  0  0  0  0  0  0  0
   -2.4107    3.2222    0.0931 H   0  0  0  0  0  0  0  0  0  0  0  0
    0.3773    1.2325   -2.3515 H   0  0  0  0  0  0  0  0  0  0  0  0
    0.0022   -1.5399   -1.4935 H   0  0  0  0  0  0  0  0  0  0  0  0
   -1.2563   -0.4339   -2.2127 H   0  0  0  0  0  0  0  0  0  0  0  0
   -2.5933   -1.8384   -0.9997 H   0  0  0  0  0  0  0  0  0  0  0  0
   -1.3954   -2.1106    0.3033 H   0  0  0  0  0  0  0  0  0  0  0  0
   -2.3578   -0.5535    0.2147 H   0  0  0  0  0  0  0  0  0  0  0  0
   -0.0534   -0.4821    1.3130 H   0  0  0  0  0  0  0  0  0  0  0  0
    1.9394   -1.0239   -0.9129 H   0  0  0  0  0  0  0  0  0  0  0  0
    2.4129   -1.1834    0.8686 H   0  0  0  0  0  0  0  0  0  0  0  0
    1.0866   -2.1631    0.2160 H   0  0  0  0  0  0  0  0  0  0  0  0
    2.4956    0.6883    1.3954 H   0  0  0  0  0  0  0  0  0  0  0  0
    1.5155    1.9673    0.5014 H   0  0  0  0  0  0  0  0  0  0  0  0
    1.0303    1.3404    2.1504 H   0  0  0  0  0  0  0  0  0  0  0  0
  1  2  3  0
  2  3  1  0
  3  4  1  0
  3  5  1  0
  5  6  1  0
  3  7  1  0
  7  8  1  0
  7  9  1  0
  1 10  1  0
  4 11  1  0
  5 12  1  0
  5 13  1  0
  6 14  1  0
  6 15  1  0
  6 16  1  0
  7 17  1  0
  8 18  1  0
  8 19  1  0
  8 20  1  0
  9 21  1  0
  9 22  1  0
  9 23  1  0
M  END
