
     RDKit          3D

 19 20  0  0  0  0  0  0  0  0999 V2000
    3.4345    0.3229    0.1581 C   0  0  0  0  0  0  0  0  0  0  0  0
    2.3857   -0.1526    0.5205 C   0  0  0  0  0  0  0  0  0  0  0  0
    1.0862   -0.7355    0.9589 C   0  0  0  0  0  0  0  0  0  0  0  0
    0.0209    0.2438    0.6217 C   0  0  0  0  0  0  0  0  0  0  0  0
   -1.3947   -0.0614    0.9452 C   0  0  0  0  0  0  0  0  0  0  0  0
   -1.3996   -0.9862   -0.2279 C   0  0  0  0  0  0  0  0  0  0  0  0
   -0.6152    0.2020   -0.7204 C   0  0  0  0  0  0  0  0  0  0  0  0
   -0.1404    0.4020   -1.8534 O   0  0  0  0  0  0  0  0  0  0  0  0
   -1.7311    1.0137   -0.0586 C   0  0  0  0  0  0  0  0  0  0  0  0
    4.3467    0.7561   -0.1637 H   0  0  0  0  0  0  0  0  0  0  0  0
    1.1888   -0.7847    2.0805 H   0  0  0  0  0  0  0  0  0  0  0  0
    0.9622   -1.7218    0.5292 H   0  0  0  0  0  0  0  0  0  0  0  0
    0.2711    1.3046    0.8848 H   0  0  0  0  0  0  0  0  0  0  0  0
   -1.8210   -0.1988    1.8405 H   0  0  0  0  0  0  0  0  0  0  0  0
   -0.8909   -1.9428   -0.1504 H   0  0  0  0  0  0  0  0  0  0  0  0
   -2.4376   -1.0432   -0.6707 H   0  0  0  0  0  0  0  0  0  0  0  0
    0.8397    0.4295   -1.9942 H   0  0  0  0  0  0  0  0  0  0  0  0
   -2.6903    0.9182   -0.5727 H   0  0  0  0  0  0  0  0  0  0  0  0
   -1.4150    2.0342    0.2400 H   0  0  0  0  0  0  0  0  0  0  0  0
  1  2  3  0
  2  3  1  0
  3  4  1  0
  4  5  1  0
  5  6  1  0
  6  7  1  0
  7  8  1  0
  7  9  1  0
  7  4  1  0
  9  5  1  0
  1 10  1  0
  3 11  1  0
  3 12  1  0
  4 13  1  0
  5 14  1  0
  6 15  1  0
  6 16  1  0
  8 17  1  0
  9 18  1  0
  9 19  1  0
M  END
