
     RDKit          3D

 15 18  0  0  0  0  0  0  0  0999 V2000
    2.9100   -0.2124    1.1675 C   0  0  0  0  0  0  0  0  0  0  0  0
    1.5694    0.1607    0.8075 C   0  0  0  0  0  0  0  0  0  0  0  0
    0.4352    0.4935    0.4876 C   0  0  0  0  0  0  0  0  0  0  0  0
   -0.4353    1.4822   -0.2126 C   0  0  0  0  0  0  0  0  0  0  0  0
   -0.6489    1.0486   -1.5499 O   0  0  0  0  0  0  0  0  0  0  0  0
   -0.8690   -0.3420   -1.4878 C   0  0  0  0  0  0  0  0  0  0  0  0
   -1.2713   -0.6323   -0.1035 C   0  0  0  0  0  0  0  0  0  0  0  0
    0.2200   -0.7546   -0.7792 C   0  0  0  0  0  0  0  0  0  0  0  0
   -0.8555    0.3559    0.7087 C   0  0  0  0  0  0  0  0  0  0  0  0
    4.2246   -0.5553    1.5299 H   0  0  0  0  0  0  0  0  0  0  0  0
   -1.3032    2.1657    0.0068 H   0  0  0  0  0  0  0  0  0  0  0  0
   -1.7928   -0.7616   -2.0980 H   0  0  0  0  0  0  0  0  0  0  0  0
   -1.6214   -1.6105    0.3130 H   0  0  0  0  0  0  0  0  0  0  0  0
    0.7609   -1.5982   -0.5212 H   0  0  0  0  0  0  0  0  0  0  0  0
   -1.3224    0.7602    1.7315 H   0  0  0  0  0  0  0  0  0  0  0  0
  1  2  3  0
  2  3  1  0
  3  4  1  0
  4  5  1  0
  5  6  1  0
  6  7  1  0
  7  8  1  0
  7  9  1  0
  8  3  1  0
  9  3  1  0
  9  4  1  0
  8  6  1  0
  1 10  1  0
  4 11  1  0
  6 12  1  0
  7 13  1  0
  8 14  1  0
  9 15  1  0
M  END
