
     RDKit          3D

 19 19  0  0  0  0  0  0  0  0999 V2000
   -3.2986    0.7919    0.1019 C   0  0  0  0  0  0  0  0  0  0  0  0
   -2.7410   -0.2171    0.4551 C   0  0  0  0  0  0  0  0  0  0  0  0
   -2.0539   -1.4330    0.9057 C   0  0  0  0  0  0  0  0  0  0  0  0
   -0.7063   -1.1790    1.0736 O   0  0  0  0  0  0  0  0  0  0  0  0
   -0.0738   -0.7620   -0.0725 C   0  0  0  0  0  0  0  0  0  0  0  0
    1.3265   -1.3558   -0.2402 C   0  0  0  0  0  0  0  0  0  0  0  0
    1.1419    0.1230    0.1738 C   0  0  0  0  0  0  0  0  0  0  0  0
    1.5057    1.0272   -0.8023 O   0  0  0  0  0  0  0  0  0  0  0  0
    2.1649    2.1010   -0.2065 C   0  0  0  0  0  0  0  0  0  0  0  0
   -3.7765    1.6766   -0.1909 H   0  0  0  0  0  0  0  0  0  0  0  0
   -2.2568   -2.2610    0.1804 H   0  0  0  0  0  0  0  0  0  0  0  0
   -2.4400   -1.7545    1.9153 H   0  0  0  0  0  0  0  0  0  0  0  0
   -0.6179   -0.6519   -1.0151 H   0  0  0  0  0  0  0  0  0  0  0  0
    1.7270   -2.0025    0.5402 H   0  0  0  0  0  0  0  0  0  0  0  0
    1.6870   -1.5513   -1.2636 H   0  0  0  0  0  0  0  0  0  0  0  0
    1.4103    0.3688    1.2186 H   0  0  0  0  0  0  0  0  0  0  0  0
    3.0756    1.7105    0.3176 H   0  0  0  0  0  0  0  0  0  0  0  0
    2.4443    2.8769   -0.9460 H   0  0  0  0  0  0  0  0  0  0  0  0
    1.4815    2.4923    0.5762 H   0  0  0  0  0  0  0  0  0  0  0  0
  1  2  3  0
  2  3  1  0
  3  4  1  0
  4  5  1  0
  5  6  1  0
  6  7  1  0
  7  8  1  0
  8  9  1  0
  7  5  1  0
  1 10  1  0
  3 11  1  0
  3 12  1  0
  5 13  1  0
  6 14  1  0
  6 15  1  0
  7 16  1  0
  9 17  1  0
  9 18  1  0
  9 19  1  0
M  END
