
     RDKit          3D

 15 16  0  0  0  0  0  0  0  0999 V2000
    2.7868    1.0814   -0.2346 C   0  0  0  0  0  0  0  0  0  0  0  0
    1.9024    0.4967    0.3419 C   0  0  0  0  0  0  0  0  0  0  0  0
    0.8354   -0.2350    1.0607 C   0  0  0  0  0  0  0  0  0  0  0  0
   -0.3227   -0.4091    0.2050 C   0  0  0  0  0  0  0  0  0  0  0  0
   -1.0687    0.7644   -0.3705 C   0  0  0  0  0  0  0  0  0  0  0  0
   -1.8209   -0.2112   -1.1896 C   0  0  0  0  0  0  0  0  0  0  0  0
   -2.7186   -0.2183   -1.9742 O   0  0  0  0  0  0  0  0  0  0  0  0
   -0.9475   -1.2576   -0.6017 C   0  0  0  0  0  0  0  0  0  0  0  0
   -1.2018   -1.4805    0.7300 O   0  0  0  0  0  0  0  0  0  0  0  0
    3.5612    1.5912   -0.7597 H   0  0  0  0  0  0  0  0  0  0  0  0
    0.5438    0.4461    1.9171 H   0  0  0  0  0  0  0  0  0  0  0  0
    1.2192   -1.1477    1.5508 H   0  0  0  0  0  0  0  0  0  0  0  0
   -1.6669    1.2976    0.4062 H   0  0  0  0  0  0  0  0  0  0  0  0
   -0.3969    1.3745   -0.9755 H   0  0  0  0  0  0  0  0  0  0  0  0
   -0.7046   -2.0924   -1.2776 H   0  0  0  0  0  0  0  0  0  0  0  0
  1  2  3  0
  2  3  1  0
  3  4  1  0
  4  5  1  0
  5  6  1  0
  6  7  2  0
  6  8  1  0
  8  9  1  0
  8  4  1  0
  9  4  1  0
  1 10  1  0
  3 11  1  0
  3 12  1  0
  5 13  1  0
  5 14  1  0
  8 15  1  0
M  END
