
     RDKit          3D

 17 16  0  0  0  0  0  0  0  0999 V2000
    1.2906   -0.2977    2.3334 C   0  0  0  0  0  0  0  0  0  0  0  0
    0.9389    0.2867    1.2617 C   0  0  0  0  0  0  0  0  0  0  0  0
    0.5205    0.9364    0.0580 C   0  0  0  0  0  0  0  0  0  0  0  0
    1.5594    1.9103   -0.4514 C   0  0  0  0  0  0  0  0  0  0  0  0
    1.2861    2.4319   -1.5360 O   0  0  0  0  0  0  0  0  0  0  0  0
    0.2079   -0.0186   -1.0362 C   0  0  0  0  0  0  0  0  0  0  0  0
    0.8598    0.0447   -2.0510 O   0  0  0  0  0  0  0  0  0  0  0  0
   -0.8449   -1.0542   -0.9785 C   0  0  0  0  0  0  0  0  0  0  0  0
   -1.6963   -1.0286    0.2391 C   0  0  0  0  0  0  0  0  0  0  0  0
    1.5790   -0.7875    3.2007 H   0  0  0  0  0  0  0  0  0  0  0  0
   -0.4124    1.5203    0.2340 H   0  0  0  0  0  0  0  0  0  0  0  0
    2.4507    2.1036    0.1153 H   0  0  0  0  0  0  0  0  0  0  0  0
   -0.3953   -2.0739   -1.1420 H   0  0  0  0  0  0  0  0  0  0  0  0
   -1.4995   -0.8911   -1.8793 H   0  0  0  0  0  0  0  0  0  0  0  0
   -2.7528   -0.7397   -0.0395 H   0  0  0  0  0  0  0  0  0  0  0  0
   -1.4094   -0.2819    0.9921 H   0  0  0  0  0  0  0  0  0  0  0  0
   -1.6824   -2.0607    0.6795 H   0  0  0  0  0  0  0  0  0  0  0  0
  1  2  3  0
  2  3  1  0
  3  4  1  0
  4  5  2  0
  3  6  1  0
  6  7  2  0
  6  8  1  0
  8  9  1  0
  1 10  1  0
  3 11  1  0
  4 12  1  0
  8 13  1  0
  8 14  1  0
  9 15  1  0
  9 16  1  0
  9 17  1  0
M  END
