
     RDKit          3D

 21 22  0  0  0  0  0  0  0  0999 V2000
    2.8950    0.4854    2.2543 C   0  0  0  0  0  0  0  0  0  0  0  0
    2.3847   -0.1273    1.3242 C   0  0  0  0  0  0  0  0  0  0  0  0
    1.7706   -0.8375    0.2011 C   0  0  0  0  0  0  0  0  0  0  0  0
    0.8785    0.1272   -0.5421 C   0  0  0  0  0  0  0  0  0  0  0  0
    0.1631   -0.5066   -1.7641 C   0  0  0  0  0  0  0  0  0  0  0  0
   -0.5568    0.0128   -0.6125 C   0  0  0  0  0  0  0  0  0  0  0  0
   -1.4690    1.1701   -0.6109 C   0  0  0  0  0  0  0  0  0  0  0  0
   -2.1951    0.5259    0.5677 C   0  0  0  0  0  0  0  0  0  0  0  0
   -1.4345   -0.7577    0.2870 C   0  0  0  0  0  0  0  0  0  0  0  0
    3.3487    1.0050    3.0491 H   0  0  0  0  0  0  0  0  0  0  0  0
    2.5565   -1.1952   -0.5251 H   0  0  0  0  0  0  0  0  0  0  0  0
    1.2442   -1.7150    0.5769 H   0  0  0  0  0  0  0  0  0  0  0  0
    1.3341    1.1324   -0.7150 H   0  0  0  0  0  0  0  0  0  0  0  0
    0.2936   -1.5897   -1.9159 H   0  0  0  0  0  0  0  0  0  0  0  0
    0.1220    0.1106   -2.6855 H   0  0  0  0  0  0  0  0  0  0  0  0
   -2.0667    1.2312   -1.5340 H   0  0  0  0  0  0  0  0  0  0  0  0
   -0.9588    2.1111   -0.3368 H   0  0  0  0  0  0  0  0  0  0  0  0
   -3.2854    0.4663    0.3984 H   0  0  0  0  0  0  0  0  0  0  0  0
   -1.8914    0.9983    1.5276 H   0  0  0  0  0  0  0  0  0  0  0  0
   -2.1307   -1.4939   -0.1712 H   0  0  0  0  0  0  0  0  0  0  0  0
   -1.0026   -1.1534    1.2269 H   0  0  0  0  0  0  0  0  0  0  0  0
  1  2  3  0
  2  3  1  0
  3  4  1  0
  4  5  1  0
  5  6  1  0
  6  7  1  0
  7  8  1  0
  8  9  1  0
  6  4  1  0
  9  6  1  0
  1 10  1  0
  3 11  1  0
  3 12  1  0
  4 13  1  0
  5 14  1  0
  5 15  1  0
  7 16  1  0
  7 17  1  0
  8 18  1  0
  8 19  1  0
  9 20  1  0
  9 21  1  0
M  END
