
     RDKit          3D

 19 20  0  0  0  0  0  0  0  0999 V2000
    3.6525    0.7723   -0.8412 C   0  0  0  0  0  0  0  0  0  0  0  0
    2.5493    0.4327   -0.4810 C   0  0  0  0  0  0  0  0  0  0  0  0
    1.2156    0.0122   -0.0391 C   0  0  0  0  0  0  0  0  0  0  0  0
    0.0502    0.9485   -0.2544 C   0  0  0  0  0  0  0  0  0  0  0  0
   -1.0980    0.0280   -0.5996 C   0  0  0  0  0  0  0  0  0  0  0  0
   -2.3446    0.5386    0.0890 C   0  0  0  0  0  0  0  0  0  0  0  0
   -0.7234   -1.3190   -0.0442 C   0  0  0  0  0  0  0  0  0  0  0  0
    0.7975   -1.2551    0.1032 C   0  0  0  0  0  0  0  0  0  0  0  0
    1.2051   -0.5927    1.2962 O   0  0  0  0  0  0  0  0  0  0  0  0
    4.6273    1.0732   -1.1791 H   0  0  0  0  0  0  0  0  0  0  0  0
    0.3022    1.6292   -1.0965 H   0  0  0  0  0  0  0  0  0  0  0  0
   -0.1823    1.4900    0.6834 H   0  0  0  0  0  0  0  0  0  0  0  0
   -1.2893   -0.0148   -1.6951 H   0  0  0  0  0  0  0  0  0  0  0  0
   -2.5461    1.5867   -0.2115 H   0  0  0  0  0  0  0  0  0  0  0  0
   -2.1639    0.4859    1.1723 H   0  0  0  0  0  0  0  0  0  0  0  0
   -3.1972   -0.0953   -0.1579 H   0  0  0  0  0  0  0  0  0  0  0  0
   -1.0356   -2.1412   -0.7151 H   0  0  0  0  0  0  0  0  0  0  0  0
   -1.1900   -1.4029    0.9580 H   0  0  0  0  0  0  0  0  0  0  0  0
    1.3708   -2.1766   -0.1244 H   0  0  0  0  0  0  0  0  0  0  0  0
  1  2  3  0
  2  3  1  0
  3  4  1  0
  4  5  1  0
  5  6  1  0
  5  7  1  0
  7  8  1  0
  8  9  1  0
  8  3  1  0
  9  3  1  0
  1 10  1  0
  4 11  1  0
  4 12  1  0
  5 13  1  0
  6 14  1  0
  6 15  1  0
  6 16  1  0
  7 17  1  0
  7 18  1  0
  8 19  1  0
M  END
