
     RDKit          3D

 21 21  0  0  0  0  0  0  0  0999 V2000
    2.2562   -0.9403    1.5312 C   0  0  0  0  0  0  0  0  0  0  0  0
    1.3902   -1.3397    0.8365 C   0  0  0  0  0  0  0  0  0  0  0  0
    0.3524   -1.8135   -0.0234 C   0  0  0  0  0  0  0  0  0  0  0  0
    0.9429   -2.4636   -1.1535 O   0  0  0  0  0  0  0  0  0  0  0  0
   -0.5466   -0.7746   -0.5219 C   0  0  0  0  0  0  0  0  0  0  0  0
   -1.3293    0.0186    0.5454 C   0  0  0  0  0  0  0  0  0  0  0  0
   -0.4545    0.6672   -0.5062 C   0  0  0  0  0  0  0  0  0  0  0  0
    0.6840    1.5069   -0.0445 C   0  0  0  0  0  0  0  0  0  0  0  0
   -1.3199    1.4004   -1.5637 C   0  0  0  0  0  0  0  0  0  0  0  0
    3.0703   -0.5786    2.1967 H   0  0  0  0  0  0  0  0  0  0  0  0
   -0.2139   -2.6875    0.4472 H   0  0  0  0  0  0  0  0  0  0  0  0
    1.5726   -1.8002   -1.5307 H   0  0  0  0  0  0  0  0  0  0  0  0
   -1.2719   -1.1792   -1.3334 H   0  0  0  0  0  0  0  0  0  0  0  0
   -1.0157   -0.0064    1.5827 H   0  0  0  0  0  0  0  0  0  0  0  0
   -2.4387    0.0390    0.4339 H   0  0  0  0  0  0  0  0  0  0  0  0
    0.8493    1.4650    1.0505 H   0  0  0  0  0  0  0  0  0  0  0  0
    1.6139    1.2360   -0.5453 H   0  0  0  0  0  0  0  0  0  0  0  0
    0.4802    2.5879   -0.3356 H   0  0  0  0  0  0  0  0  0  0  0  0
   -0.7423    2.1900   -2.0330 H   0  0  0  0  0  0  0  0  0  0  0  0
   -1.6347    0.6758   -2.3373 H   0  0  0  0  0  0  0  0  0  0  0  0
   -2.2446    1.7968   -1.0512 H   0  0  0  0  0  0  0  0  0  0  0  0
  1  2  3  0
  2  3  1  0
  3  4  1  0
  3  5  1  0
  5  6  1  0
  6  7  1  0
  7  8  1  0
  7  9  1  0
  7  5  1  0
  1 10  1  0
  3 11  1  0
  4 12  1  0
  5 13  1  0
  6 14  1  0
  6 15  1  0
  8 16  1  0
  8 17  1  0
  8 18  1  0
  9 19  1  0
  9 20  1  0
  9 21  1  0
M  END
