
     RDKit          3D

 21 21  0  0  0  0  0  0  0  0999 V2000
    2.3097    1.8407    2.1090 C   0  0  0  0  0  0  0  0  0  0  0  0
    0.9493    0.8606    2.3052 C   0  0  0  0  0  0  0  0  0  0  0  0
    0.1078    0.2575    2.4177 C   0  0  0  0  0  0  0  0  0  0  0  0
    0.4391   -1.3025    1.7350 C   0  0  0  0  0  0  0  0  0  0  0  0
   -0.4350   -0.1863    0.9814 C   0  0  0  0  0  0  0  0  0  0  0  0
    0.6691    0.2149    0.0675 O   0  0  0  0  0  0  0  0  0  0  0  0
    0.5452   -0.2093   -1.1411 C   0  0  0  0  0  0  0  0  0  0  0  0
   -0.4976    0.4454   -1.9632 C   0  0  0  0  0  0  0  0  0  0  0  0
   -1.9211    0.3545   -1.9190 C   0  0  0  0  0  0  0  0  0  0  0  0
    3.5171    2.7095    1.9238 H   0  0  0  0  0  0  0  0  0  0  0  0
   -0.2729   -0.1977    3.4558 H   0  0  0  0  0  0  0  0  0  0  0  0
    1.5132   -1.3564    1.3137 H   0  0  0  0  0  0  0  0  0  0  0  0
   -0.1569   -2.0369    2.1155 H   0  0  0  0  0  0  0  0  0  0  0  0
   -1.2518   -0.5611    0.7349 H   0  0  0  0  0  0  0  0  0  0  0  0
    1.5540   -0.1842   -1.7926 H   0  0  0  0  0  0  0  0  0  0  0  0
    0.2815   -1.3697   -1.1372 H   0  0  0  0  0  0  0  0  0  0  0  0
   -0.1760    0.2990   -3.0707 H   0  0  0  0  0  0  0  0  0  0  0  0
   -0.1305    1.6471   -1.9573 H   0  0  0  0  0  0  0  0  0  0  0  0
   -2.5166    0.2999   -1.0279 H   0  0  0  0  0  0  0  0  0  0  0  0
   -2.3370    1.2503   -2.5044 H   0  0  0  0  0  0  0  0  0  0  0  0
   -2.1906   -0.6051   -2.6462 H   0  0  0  0  0  0  0  0  0  0  0  0
  1  2  3  0
  2  3  1  0
  3  4  1  0
  4  5  1  0
  5  6  1  0
  6  7  1  0
  7  8  1  0
  8  9  1  0
  5  3  1  0
  1 10  1  0
  3 11  1  0
  4 12  1  0
  4 13  1  0
  5 14  1  0
  7 15  1  0
  7 16  1  0
  8 17  1  0
  8 18  1  0
  9 19  1  0
  9 20  1  0
  9 21  1  0
M  END
