
     RDKit          3D

 21 22  0  0  0  0  0  0  0  0999 V2000
    0.2781    2.7009    0.7626 C   0  0  0  0  0  0  0  0  0  0  0  0
    0.1725    1.5099    0.5357 C   0  0  0  0  0  0  0  0  0  0  0  0
    0.0191    0.0629    0.2612 C   0  0  0  0  0  0  0  0  0  0  0  0
    1.2869   -0.7029    0.3712 C   0  0  0  0  0  0  0  0  0  0  0  0
    2.3429   -0.1964   -0.6209 C   0  0  0  0  0  0  0  0  0  0  0  0
   -1.2169   -0.4417    0.8793 C   0  0  0  0  0  0  0  0  0  0  0  0
   -1.2930   -1.4419   -0.2416 C   0  0  0  0  0  0  0  0  0  0  0  0
   -0.8628   -0.2071   -0.9263 C   0  0  0  0  0  0  0  0  0  0  0  0
   -1.9384    0.4735   -0.1022 C   0  0  0  0  0  0  0  0  0  0  0  0
    0.3545    3.7409    0.9516 H   0  0  0  0  0  0  0  0  0  0  0  0
    1.2063   -1.7935    0.3280 H   0  0  0  0  0  0  0  0  0  0  0  0
    1.7227   -0.4317    1.3813 H   0  0  0  0  0  0  0  0  0  0  0  0
    2.3123   -0.8705   -1.5246 H   0  0  0  0  0  0  0  0  0  0  0  0
    2.1555    0.8661   -0.8973 H   0  0  0  0  0  0  0  0  0  0  0  0
    3.3634   -0.3017   -0.2022 H   0  0  0  0  0  0  0  0  0  0  0  0
   -1.4698   -0.5727    1.8336 H   0  0  0  0  0  0  0  0  0  0  0  0
   -0.6543   -2.3178   -0.2052 H   0  0  0  0  0  0  0  0  0  0  0  0
   -2.3721   -1.7315   -0.3779 H   0  0  0  0  0  0  0  0  0  0  0  0
   -0.6545   -0.0280   -1.8861 H   0  0  0  0  0  0  0  0  0  0  0  0
   -2.9590    0.1396   -0.3664 H   0  0  0  0  0  0  0  0  0  0  0  0
   -1.7935    1.5435    0.0461 H   0  0  0  0  0  0  0  0  0  0  0  0
  1  2  3  0
  2  3  1  0
  3  4  1  0
  4  5  1  0
  3  6  1  0
  6  7  1  0
  7  8  1  0
  8  9  1  0
  8  3  1  0
  9  6  1  0
  1 10  1  0
  4 11  1  0
  4 12  1  0
  5 13  1  0
  5 14  1  0
  5 15  1  0
  6 16  1  0
  7 17  1  0
  7 18  1  0
  8 19  1  0
  9 20  1  0
  9 21  1  0
M  END
