
     RDKit          3D

 11 10  0  0  0  0  0  0  0  0999 V2000
    2.2607   -0.2729    0.6612 C   0  0  0  0  0  0  0  0  0  0  0  0
    1.2351    0.2564    0.3127 C   0  0  0  0  0  0  0  0  0  0  0  0
   -0.0198    0.8906   -0.0960 C   0  0  0  0  0  0  0  0  0  0  0  0
   -0.9336   -0.2313   -0.5750 C   0  0  0  0  0  0  0  0  0  0  0  0
   -1.1072   -1.1016    0.5158 O   0  0  0  0  0  0  0  0  0  0  0  0
    3.1856   -0.7414    0.9566 H   0  0  0  0  0  0  0  0  0  0  0  0
    0.2098    1.5422   -0.9579 H   0  0  0  0  0  0  0  0  0  0  0  0
   -0.4854    1.4344    0.7552 H   0  0  0  0  0  0  0  0  0  0  0  0
   -1.8903    0.1388   -0.9523 H   0  0  0  0  0  0  0  0  0  0  0  0
   -0.3770   -0.7778   -1.3649 H   0  0  0  0  0  0  0  0  0  0  0  0
   -2.0780   -1.1375    0.7446 H   0  0  0  0  0  0  0  0  0  0  0  0
  1  2  3  0
  2  3  1  0
  3  4  1  0
  4  5  1  0
  1  6  1  0
  3  7  1  0
  3  8  1  0
  4  9  1  0
  4 10  1  0
  5 11  1  0
M  END
