
     RDKit          3D

 19 20  0  0  0  0  0  0  0  0999 V2000
    3.4408    1.2157   -0.7595 C   0  0  0  0  0  0  0  0  0  0  0  0
    2.5509    0.9658   -0.4518 C   0  0  0  0  0  0  0  0  0  0  0  0
    1.2651    0.5968    0.0162 C   0  0  0  0  0  0  0  0  0  0  0  0
    0.7536    0.3294    1.3152 C   0  0  0  0  0  0  0  0  0  0  0  0
   -0.3520   -0.0182    0.3252 C   0  0  0  0  0  0  0  0  0  0  0  0
   -1.6907   -0.1940    0.5622 C   0  0  0  0  0  0  0  0  0  0  0  0
   -2.4428   -0.6398   -0.6919 C   0  0  0  0  0  0  0  0  0  0  0  0
    0.6409   -0.6778   -0.5176 C   0  0  0  0  0  0  0  0  0  0  0  0
    0.1133    1.2079   -0.3282 O   0  0  0  0  0  0  0  0  0  0  0  0
    4.5382    1.5392   -1.1248 H   0  0  0  0  0  0  0  0  0  0  0  0
    0.4693    1.0863    2.0569 H   0  0  0  0  0  0  0  0  0  0  0  0
    1.1422   -0.6081    1.8455 H   0  0  0  0  0  0  0  0  0  0  0  0
   -2.2161    0.7853    0.8487 H   0  0  0  0  0  0  0  0  0  0  0  0
   -1.9953   -0.8792    1.3782 H   0  0  0  0  0  0  0  0  0  0  0  0
   -2.3831    0.0626   -1.5241 H   0  0  0  0  0  0  0  0  0  0  0  0
   -3.4529   -0.9542   -0.4091 H   0  0  0  0  0  0  0  0  0  0  0  0
   -1.9103   -1.5838   -1.0544 H   0  0  0  0  0  0  0  0  0  0  0  0
    1.1334   -1.6052   -0.1938 H   0  0  0  0  0  0  0  0  0  0  0  0
    0.3957   -0.6285   -1.6073 H   0  0  0  0  0  0  0  0  0  0  0  0
  1  2  3  0
  2  3  1  0
  3  4  1  0
  4  5  1  0
  5  6  1  0
  6  7  1  0
  5  8  1  0
  5  9  1  0
  8  3  1  0
  9  3  1  0
  1 10  1  0
  4 11  1  0
  4 12  1  0
  6 13  1  0
  6 14  1  0
  7 15  1  0
  7 16  1  0
  7 17  1  0
  8 18  1  0
  8 19  1  0
M  END
