
     RDKit          3D

 21 21  0  0  0  0  0  0  0  0999 V2000
   -3.5980   -0.0247   -1.8350 C   0  0  0  0  0  0  0  0  0  0  0  0
   -2.7364   -0.1711   -0.9606 C   0  0  0  0  0  0  0  0  0  0  0  0
   -1.6570   -0.3371    0.1028 C   0  0  0  0  0  0  0  0  0  0  0  0
   -0.4698   -0.9633   -0.4873 C   0  0  0  0  0  0  0  0  0  0  0  0
    0.8346   -1.5430   -0.4202 C   0  0  0  0  0  0  0  0  0  0  0  0
    0.7774   -0.1831    0.1382 C   0  0  0  0  0  0  0  0  0  0  0  0
    0.7069   -0.1580    1.6924 C   0  0  0  0  0  0  0  0  0  0  0  0
    0.9833    0.9800   -0.4977 O   0  0  0  0  0  0  0  0  0  0  0  0
    2.0360    1.7366   -0.0547 C   0  0  0  0  0  0  0  0  0  0  0  0
   -4.3366    0.1166   -2.5810 H   0  0  0  0  0  0  0  0  0  0  0  0
   -1.4761    0.7793    0.3275 H   0  0  0  0  0  0  0  0  0  0  0  0
   -2.0964   -0.7144    1.0089 H   0  0  0  0  0  0  0  0  0  0  0  0
   -0.5456   -0.5688   -1.6816 H   0  0  0  0  0  0  0  0  0  0  0  0
    1.4440   -1.7228   -1.3683 H   0  0  0  0  0  0  0  0  0  0  0  0
    0.9779   -2.4639    0.2377 H   0  0  0  0  0  0  0  0  0  0  0  0
   -0.1344   -0.8650    1.9631 H   0  0  0  0  0  0  0  0  0  0  0  0
    0.5973    0.8396    2.0803 H   0  0  0  0  0  0  0  0  0  0  0  0
    1.6485   -0.6995    1.9979 H   0  0  0  0  0  0  0  0  0  0  0  0
    3.0218    1.2517   -0.2081 H   0  0  0  0  0  0  0  0  0  0  0  0
    2.0676    2.7326   -0.5123 H   0  0  0  0  0  0  0  0  0  0  0  0
    1.9551    1.9782    1.0580 H   0  0  0  0  0  0  0  0  0  0  0  0
  1  2  3  0
  2  3  1  0
  3  4  1  0
  4  5  1  0
  5  6  1  0
  6  7  1  0
  6  8  1  0
  8  9  1  0
  6  4  1  0
  1 10  1  0
  3 11  1  0
  3 12  1  0
  4 13  1  0
  5 14  1  0
  5 15  1  0
  7 16  1  0
  7 17  1  0
  7 18  1  0
  9 19  1  0
  9 20  1  0
  9 21  1  0
M  END
