
     RDKit          3D

 18 18  0  0  0  0  0  0  0  0999 V2000
    2.2710   -1.4207    2.0670 C   0  0  0  0  0  0  0  0  0  0  0  0
    1.6288   -0.4962    1.5967 C   0  0  0  0  0  0  0  0  0  0  0  0
    0.8374    0.6130    1.0484 C   0  0  0  0  0  0  0  0  0  0  0  0
    1.6763    1.3081    0.1825 O   0  0  0  0  0  0  0  0  0  0  0  0
   -0.3481    0.0076    0.3260 C   0  0  0  0  0  0  0  0  0  0  0  0
   -0.0377   -0.9231   -0.8196 C   0  0  0  0  0  0  0  0  0  0  0  0
   -0.7173    0.4097   -1.0301 C   0  0  0  0  0  0  0  0  0  0  0  0
   -2.1963    0.3926   -1.3789 C   0  0  0  0  0  0  0  0  0  0  0  0
    2.8157   -2.2329    2.4854 H   0  0  0  0  0  0  0  0  0  0  0  0
    0.5004    1.2998    1.8304 H   0  0  0  0  0  0  0  0  0  0  0  0
    2.1364    2.0226    0.6660 H   0  0  0  0  0  0  0  0  0  0  0  0
   -1.1382   -0.3680    1.0085 H   0  0  0  0  0  0  0  0  0  0  0  0
   -0.6897   -1.8137   -0.9638 H   0  0  0  0  0  0  0  0  0  0  0  0
    1.0160   -1.0131   -1.0865 H   0  0  0  0  0  0  0  0  0  0  0  0
   -0.0917    1.1948   -1.5460 H   0  0  0  0  0  0  0  0  0  0  0  0
   -2.3537   -0.5690   -1.9479 H   0  0  0  0  0  0  0  0  0  0  0  0
   -2.8187    0.3101   -0.4683 H   0  0  0  0  0  0  0  0  0  0  0  0
   -2.4908    1.2783   -1.9700 H   0  0  0  0  0  0  0  0  0  0  0  0
  1  2  3  0
  2  3  1  0
  3  4  1  0
  3  5  1  0
  5  6  1  0
  6  7  1  0
  7  8  1  0
  7  5  1  0
  1  9  1  0
  3 10  1  0
  4 11  1  0
  5 12  1  0
  6 13  1  0
  6 14  1  0
  7 15  1  0
  8 16  1  0
  8 17  1  0
  8 18  1  0
M  END
