
     RDKit          3D

 17 17  0  0  0  0  0  0  0  0999 V2000
    2.7027    1.9404   -0.6902 C   0  0  0  0  0  0  0  0  0  0  0  0
    1.9192    1.0053   -0.2903 C   0  0  0  0  0  0  0  0  0  0  0  0
    0.9443   -0.1460    0.2327 C   0  0  0  0  0  0  0  0  0  0  0  0
    0.1042   -0.7659   -0.7995 C   0  0  0  0  0  0  0  0  0  0  0  0
   -1.2903   -0.7515   -0.0697 C   0  0  0  0  0  0  0  0  0  0  0  0
   -2.1146   -1.5508   -0.6978 O   0  0  0  0  0  0  0  0  0  0  0  0
   -1.4112    0.5534    0.4818 C   0  0  0  0  0  0  0  0  0  0  0  0
   -0.0912    0.7023    1.1132 C   0  0  0  0  0  0  0  0  0  0  0  0
    0.2674    1.3203    2.0536 O   0  0  0  0  0  0  0  0  0  0  0  0
    3.2492    2.6020   -0.9564 H   0  0  0  0  0  0  0  0  0  0  0  0
    1.5599   -0.8280    0.8240 H   0  0  0  0  0  0  0  0  0  0  0  0
    0.1583   -0.4421   -1.7589 H   0  0  0  0  0  0  0  0  0  0  0  0
    0.4616   -1.8965   -0.7004 H   0  0  0  0  0  0  0  0  0  0  0  0
   -0.9187   -1.3833    0.9333 H   0  0  0  0  0  0  0  0  0  0  0  0
   -1.7135   -2.4884   -0.7650 H   0  0  0  0  0  0  0  0  0  0  0  0
   -2.2061    0.6618    1.2797 H   0  0  0  0  0  0  0  0  0  0  0  0
   -1.6216    1.4671   -0.1901 H   0  0  0  0  0  0  0  0  0  0  0  0
  1  2  3  0
  2  3  1  0
  3  4  1  0
  4  5  1  0
  5  6  1  0
  5  7  1  0
  7  8  1  0
  8  9  2  0
  8  3  1  0
  1 10  1  0
  3 11  1  0
  4 12  1  0
  4 13  1  0
  5 14  1  0
  6 15  1  0
  7 16  1  0
  7 17  1  0
M  END
