
     RDKit          3D

 18 17  0  0  0  0  0  0  0  0999 V2000
    1.4360    2.7338   -0.1281 C   0  0  0  0  0  0  0  0  0  0  0  0
    0.6888    1.7811   -0.0981 C   0  0  0  0  0  0  0  0  0  0  0  0
   -0.2300    0.6427   -0.0539 C   0  0  0  0  0  0  0  0  0  0  0  0
   -0.6046    0.3204    1.3983 C   0  0  0  0  0  0  0  0  0  0  0  0
   -1.4747   -0.7581    1.4355 O   0  0  0  0  0  0  0  0  0  0  0  0
    0.5345   -0.5391   -0.6542 C   0  0  0  0  0  0  0  0  0  0  0  0
   -0.2707   -1.7902   -0.6827 C   0  0  0  0  0  0  0  0  0  0  0  0
    1.0105   -0.2422   -1.9088 O   0  0  0  0  0  0  0  0  0  0  0  0
    2.0936    3.5582   -0.1705 H   0  0  0  0  0  0  0  0  0  0  0  0
   -1.1041    0.8375   -0.6758 H   0  0  0  0  0  0  0  0  0  0  0  0
   -1.0807    1.2216    1.8311 H   0  0  0  0  0  0  0  0  0  0  0  0
    0.3431    0.1412    1.9312 H   0  0  0  0  0  0  0  0  0  0  0  0
   -1.7177   -0.9019    2.3827 H   0  0  0  0  0  0  0  0  0  0  0  0
    1.4057   -0.7094    0.0272 H   0  0  0  0  0  0  0  0  0  0  0  0
   -1.3342   -1.6282   -0.9465 H   0  0  0  0  0  0  0  0  0  0  0  0
    0.1698   -2.4691   -1.4618 H   0  0  0  0  0  0  0  0  0  0  0  0
   -0.1777   -2.3261    0.2788 H   0  0  0  0  0  0  0  0  0  0  0  0
    0.3126    0.1279   -2.5042 H   0  0  0  0  0  0  0  0  0  0  0  0
  1  2  3  0
  2  3  1  0
  3  4  1  0
  4  5  1  0
  3  6  1  0
  6  7  1  0
  6  8  1  0
  1  9  1  0
  3 10  1  0
  4 11  1  0
  4 12  1  0
  5 13  1  0
  6 14  1  0
  7 15  1  0
  7 16  1  0
  7 17  1  0
  8 18  1  0
M  END
