
     RDKit          3D

 18 18  0  0  0  0  0  0  0  0999 V2000
   -0.2165   -1.8792    3.1017 C   0  0  0  0  0  0  0  0  0  0  0  0
    0.2925   -1.2459    1.5107 C   0  0  0  0  0  0  0  0  0  0  0  0
    0.6261   -0.8244    0.4122 C   0  0  0  0  0  0  0  0  0  0  0  0
    0.6820    0.8286    0.7647 C   0  0  0  0  0  0  0  0  0  0  0  0
    1.8899    1.3365    0.6412 O   0  0  0  0  0  0  0  0  0  0  0  0
   -0.1764    0.2242   -0.3041 C   0  0  0  0  0  0  0  0  0  0  0  0
   -1.6825    0.0362   -0.0400 C   0  0  0  0  0  0  0  0  0  0  0  0
    0.1157    0.6055   -1.6944 C   0  0  0  0  0  0  0  0  0  0  0  0
   -0.3675   -2.0793    3.5804 H   0  0  0  0  0  0  0  0  0  0  0  0
    1.6605   -1.0731   -0.0793 H   0  0  0  0  0  0  0  0  0  0  0  0
    0.1721    0.9984    1.8141 H   0  0  0  0  0  0  0  0  0  0  0  0
    2.4562    0.9330   -0.0919 H   0  0  0  0  0  0  0  0  0  0  0  0
   -2.2719    0.5160   -0.8142 H   0  0  0  0  0  0  0  0  0  0  0  0
   -1.9063    0.2603    0.9994 H   0  0  0  0  0  0  0  0  0  0  0  0
   -1.8341   -1.0800   -0.2080 H   0  0  0  0  0  0  0  0  0  0  0  0
   -0.6550    1.4081   -1.9403 H   0  0  0  0  0  0  0  0  0  0  0  0
    0.1409   -0.1778   -2.4367 H   0  0  0  0  0  0  0  0  0  0  0  0
    1.0742    1.2128   -1.7060 H   0  0  0  0  0  0  0  0  0  0  0  0
  1  2  3  0
  2  3  1  0
  3  4  1  0
  4  5  1  0
  4  6  1  0
  6  7  1  0
  6  8  1  0
  6  3  1  0
  1  9  1  0
  3 10  1  0
  4 11  1  0
  5 12  1  0
  7 13  1  0
  7 14  1  0
  7 15  1  0
  8 16  1  0
  8 17  1  0
  8 18  1  0
M  END
