
     RDKit          3D

 18 18  0  0  0  0  0  0  0  0999 V2000
    3.4717    0.9260   -0.5464 C   0  0  0  0  0  0  0  0  0  0  0  0
    2.5279    0.6078    0.1354 C   0  0  0  0  0  0  0  0  0  0  0  0
    1.3752    0.1950    0.9618 C   0  0  0  0  0  0  0  0  0  0  0  0
    0.2877   -0.2910    0.0510 C   0  0  0  0  0  0  0  0  0  0  0  0
   -0.1782    0.6511   -0.8663 O   0  0  0  0  0  0  0  0  0  0  0  0
   -1.0805    1.0582    0.1175 C   0  0  0  0  0  0  0  0  0  0  0  0
   -1.0805   -0.3722    0.6185 C   0  0  0  0  0  0  0  0  0  0  0  0
   -2.0502   -1.2975   -0.0303 C   0  0  0  0  0  0  0  0  0  0  0  0
    4.3058    1.1898   -1.1415 H   0  0  0  0  0  0  0  0  0  0  0  0
    1.7250   -0.6321    1.5879 H   0  0  0  0  0  0  0  0  0  0  0  0
    1.0685    1.0620    1.5407 H   0  0  0  0  0  0  0  0  0  0  0  0
    0.5510   -1.2186   -0.4914 H   0  0  0  0  0  0  0  0  0  0  0  0
   -2.0653    1.2637   -0.3684 H   0  0  0  0  0  0  0  0  0  0  0  0
   -0.7301    1.8165    0.8131 H   0  0  0  0  0  0  0  0  0  0  0  0
   -1.0692   -0.4090    1.7467 H   0  0  0  0  0  0  0  0  0  0  0  0
   -2.7819   -1.6206    0.7661 H   0  0  0  0  0  0  0  0  0  0  0  0
   -2.6475   -0.7196   -0.7661 H   0  0  0  0  0  0  0  0  0  0  0  0
   -1.6294   -2.2096   -0.4432 H   0  0  0  0  0  0  0  0  0  0  0  0
  1  2  3  0
  2  3  1  0
  3  4  1  0
  4  5  1  0
  5  6  1  0
  6  7  1  0
  7  8  1  0
  7  4  1  0
  1  9  1  0
  3 10  1  0
  3 11  1  0
  4 12  1  0
  6 13  1  0
  6 14  1  0
  7 15  1  0
  8 16  1  0
  8 17  1  0
  8 18  1  0
M  END
