
     RDKit          3D

 19 19  0  0  0  0  0  0  0  0999 V2000
    3.6447   -0.1011   -0.6024 C   0  0  0  0  0  0  0  0  0  0  0  0
    2.4826   -0.4444   -0.7625 C   0  0  0  0  0  0  0  0  0  0  0  0
    1.0949   -0.8665   -0.9640 C   0  0  0  0  0  0  0  0  0  0  0  0
    0.1731    0.2786   -0.5269 C   0  0  0  0  0  0  0  0  0  0  0  0
    0.4243    0.5207    0.7876 O   0  0  0  0  0  0  0  0  0  0  0  0
   -0.6668    0.2143    1.5454 C   0  0  0  0  0  0  0  0  0  0  0  0
   -1.8500    0.0234    0.6453 C   0  0  0  0  0  0  0  0  0  0  0  0
   -1.2597   -0.0502   -0.7225 C   0  0  0  0  0  0  0  0  0  0  0  0
   -1.8542    0.9006   -1.5599 O   0  0  0  0  0  0  0  0  0  0  0  0
    4.6466    0.2113   -0.4540 H   0  0  0  0  0  0  0  0  0  0  0  0
    0.8809   -1.7923   -0.4312 H   0  0  0  0  0  0  0  0  0  0  0  0
    0.9288   -1.0589   -2.0511 H   0  0  0  0  0  0  0  0  0  0  0  0
    0.4693    1.1406   -1.1938 H   0  0  0  0  0  0  0  0  0  0  0  0
   -0.5145   -0.7092    2.1558 H   0  0  0  0  0  0  0  0  0  0  0  0
   -0.8214    1.0689    2.2665 H   0  0  0  0  0  0  0  0  0  0  0  0
   -2.5416    0.8803    0.7030 H   0  0  0  0  0  0  0  0  0  0  0  0
   -2.3937   -0.9311    0.8675 H   0  0  0  0  0  0  0  0  0  0  0  0
   -1.3682   -1.0620   -1.1949 H   0  0  0  0  0  0  0  0  0  0  0  0
   -1.4752    1.7771   -1.3417 H   0  0  0  0  0  0  0  0  0  0  0  0
  1  2  3  0
  2  3  1  0
  3  4  1  0
  4  5  1  0
  5  6  1  0
  6  7  1  0
  7  8  1  0
  8  9  1  0
  8  4  1  0
  1 10  1  0
  3 11  1  0
  3 12  1  0
  4 13  1  0
  6 14  1  0
  6 15  1  0
  7 16  1  0
  7 17  1  0
  8 18  1  0
  9 19  1  0
M  END
