
     RDKit          3D

 17 18  0  0  0  0  0  0  0  0999 V2000
    3.2123   -0.8851   -0.9321 C   0  0  0  0  0  0  0  0  0  0  0  0
    2.0391   -0.7998   -0.6705 C   0  0  0  0  0  0  0  0  0  0  0  0
    0.6203   -0.7150   -0.3365 C   0  0  0  0  0  0  0  0  0  0  0  0
   -0.1812    0.4206   -0.8037 C   0  0  0  0  0  0  0  0  0  0  0  0
   -1.6717    0.2282   -0.8498 C   0  0  0  0  0  0  0  0  0  0  0  0
   -2.1062    0.1044    0.5628 C   0  0  0  0  0  0  0  0  0  0  0  0
   -1.0565    0.1758    1.3830 C   0  0  0  0  0  0  0  0  0  0  0  0
    0.1951    0.3540    0.6306 C   0  0  0  0  0  0  0  0  0  0  0  0
    1.1634    1.2073    1.1465 O   0  0  0  0  0  0  0  0  0  0  0  0
    4.2328   -0.9531   -1.1639 H   0  0  0  0  0  0  0  0  0  0  0  0
    0.1355   -1.6987   -0.1879 H   0  0  0  0  0  0  0  0  0  0  0  0
    0.2778    1.2507   -1.3782 H   0  0  0  0  0  0  0  0  0  0  0  0
   -2.2008    1.1091   -1.2720 H   0  0  0  0  0  0  0  0  0  0  0  0
   -1.9722   -0.7043   -1.3701 H   0  0  0  0  0  0  0  0  0  0  0  0
   -3.1505   -0.0255    0.8404 H   0  0  0  0  0  0  0  0  0  0  0  0
   -1.1586    0.1066    2.4592 H   0  0  0  0  0  0  0  0  0  0  0  0
    1.6215    0.8248    1.9421 H   0  0  0  0  0  0  0  0  0  0  0  0
  1  2  3  0
  2  3  1  0
  3  4  1  0
  4  5  1  0
  5  6  1  0
  6  7  2  0
  7  8  1  0
  8  9  1  0
  8  3  1  0
  8  4  1  0
  1 10  1  0
  3 11  1  0
  4 12  1  0
  5 13  1  0
  5 14  1  0
  6 15  1  0
  7 16  1  0
  9 17  1  0
M  END
