
     RDKit          3D

 13 13  0  0  0  0  0  0  0  0999 V2000
    2.7723    0.8699    0.1811 C   0  0  0  0  0  0  0  0  0  0  0  0
    1.6321    0.6488   -0.1280 C   0  0  0  0  0  0  0  0  0  0  0  0
    0.2540    0.3597   -0.5167 C   0  0  0  0  0  0  0  0  0  0  0  0
   -0.6410    0.7652    0.6044 C   0  0  0  0  0  0  0  0  0  0  0  0
   -0.4167    1.6379    1.5023 O   0  0  0  0  0  0  0  0  0  0  0  0
   -1.8211   -0.0675    0.4314 C   0  0  0  0  0  0  0  0  0  0  0  0
   -1.4507   -1.1673   -0.2163 C   0  0  0  0  0  0  0  0  0  0  0  0
    0.0271   -1.0859   -0.4952 C   0  0  0  0  0  0  0  0  0  0  0  0
    0.7563   -2.0898   -0.6484 O   0  0  0  0  0  0  0  0  0  0  0  0
    3.8025    1.0773    0.4765 H   0  0  0  0  0  0  0  0  0  0  0  0
   -0.0214    0.8652   -1.4630 H   0  0  0  0  0  0  0  0  0  0  0  0
   -2.8198    0.1910    0.7873 H   0  0  0  0  0  0  0  0  0  0  0  0
   -2.0736   -2.0047   -0.5153 H   0  0  0  0  0  0  0  0  0  0  0  0
  1  2  3  0
  2  3  1  0
  3  4  1  0
  4  5  2  0
  4  6  1  0
  6  7  2  0
  7  8  1  0
  8  9  2  0
  8  3  1  0
  1 10  1  0
  3 11  1  0
  6 12  1  0
  7 13  1  0
M  END
