
     RDKit          3D

 17 17  0  0  0  0  0  0  0  0999 V2000
    2.6296   -1.3699   -0.4997 C   0  0  0  0  0  0  0  0  0  0  0  0
    1.5914   -0.7595   -0.5566 C   0  0  0  0  0  0  0  0  0  0  0  0
    0.3157    0.0017   -0.6028 C   0  0  0  0  0  0  0  0  0  0  0  0
    0.6061    1.2440   -1.3180 C   0  0  0  0  0  0  0  0  0  0  0  0
    0.0788    2.2719   -0.9369 O   0  0  0  0  0  0  0  0  0  0  0  0
   -0.1739    0.1568    0.7856 C   0  0  0  0  0  0  0  0  0  0  0  0
   -1.4440    0.8826    1.0383 C   0  0  0  0  0  0  0  0  0  0  0  0
   -2.1302   -0.2389    0.5139 O   0  0  0  0  0  0  0  0  0  0  0  0
   -1.1160   -1.0090    1.1311 C   0  0  0  0  0  0  0  0  0  0  0  0
    3.5417   -1.9051   -0.4629 H   0  0  0  0  0  0  0  0  0  0  0  0
   -0.3629   -0.6113   -1.2415 H   0  0  0  0  0  0  0  0  0  0  0  0
    1.2646    1.3189   -2.1732 H   0  0  0  0  0  0  0  0  0  0  0  0
    0.5953    0.3052    1.5743 H   0  0  0  0  0  0  0  0  0  0  0  0
   -1.6511    0.8796    2.1494 H   0  0  0  0  0  0  0  0  0  0  0  0
   -1.6564    1.8214    0.5446 H   0  0  0  0  0  0  0  0  0  0  0  0
   -0.8810   -1.9478    0.6317 H   0  0  0  0  0  0  0  0  0  0  0  0
   -1.2076   -1.0406    2.2366 H   0  0  0  0  0  0  0  0  0  0  0  0
  1  2  3  0
  2  3  1  0
  3  4  1  0
  4  5  2  0
  3  6  1  0
  6  7  1  0
  7  8  1  0
  8  9  1  0
  9  6  1  0
  1 10  1  0
  3 11  1  0
  4 12  1  0
  6 13  1  0
  7 14  1  0
  7 15  1  0
  9 16  1  0
  9 17  1  0
M  END
