
     RDKit          3D

 21 20  0  0  0  0  0  0  0  0999 V2000
   -4.0243    1.6141   -0.1727 C   0  0  0  0  0  0  0  0  0  0  0  0
   -3.2853    0.6930   -0.3324 C   0  0  0  0  0  0  0  0  0  0  0  0
   -2.3652   -0.4390   -0.5247 C   0  0  0  0  0  0  0  0  0  0  0  0
   -2.7072   -1.5682    0.4179 C   0  0  0  0  0  0  0  0  0  0  0  0
   -0.9956    0.0109   -0.1896 C   0  0  0  0  0  0  0  0  0  0  0  0
    0.1304    0.3605    0.0763 C   0  0  0  0  0  0  0  0  0  0  0  0
    1.5025    0.7714    0.4028 C   0  0  0  0  0  0  0  0  0  0  0  0
    2.4968   -0.2162   -0.1969 C   0  0  0  0  0  0  0  0  0  0  0  0
    3.8913    0.2826    0.1878 C   0  0  0  0  0  0  0  0  0  0  0  0
   -4.6937    2.4474   -0.0472 H   0  0  0  0  0  0  0  0  0  0  0  0
   -2.4112   -0.8424   -1.5574 H   0  0  0  0  0  0  0  0  0  0  0  0
   -1.7658   -2.1332    0.5912 H   0  0  0  0  0  0  0  0  0  0  0  0
   -3.1453   -1.2002    1.3696 H   0  0  0  0  0  0  0  0  0  0  0  0
   -3.4146   -2.2332   -0.0941 H   0  0  0  0  0  0  0  0  0  0  0  0
    1.6157    0.8573    1.5021 H   0  0  0  0  0  0  0  0  0  0  0  0
    1.7469    1.7676   -0.0195 H   0  0  0  0  0  0  0  0  0  0  0  0
    2.4061   -0.1515   -1.2855 H   0  0  0  0  0  0  0  0  0  0  0  0
    2.3282   -1.2464    0.1691 H   0  0  0  0  0  0  0  0  0  0  0  0
    3.9292    0.5409    1.2717 H   0  0  0  0  0  0  0  0  0  0  0  0
    4.0893    1.1561   -0.4661 H   0  0  0  0  0  0  0  0  0  0  0  0
    4.6718   -0.4714   -0.0455 H   0  0  0  0  0  0  0  0  0  0  0  0
  1  2  3  0
  2  3  1  0
  3  4  1  0
  3  5  1  0
  5  6  3  0
  6  7  1  0
  7  8  1  0
  8  9  1  0
  1 10  1  0
  3 11  1  0
  4 12  1  0
  4 13  1  0
  4 14  1  0
  7 15  1  0
  7 16  1  0
  8 17  1  0
  8 18  1  0
  9 19  1  0
  9 20  1  0
  9 21  1  0
M  END
