
     RDKit          3D

 17 18  0  0  0  0  0  0  0  0999 V2000
    2.4782   -1.5109   -1.5638 C   0  0  0  0  0  0  0  0  0  0  0  0
    1.3454   -1.2425   -1.2491 C   0  0  0  0  0  0  0  0  0  0  0  0
   -0.0453   -0.9327   -0.8807 C   0  0  0  0  0  0  0  0  0  0  0  0
   -0.5039   -1.4382    0.5161 C   0  0  0  0  0  0  0  0  0  0  0  0
   -0.3299   -0.0319    0.2223 C   0  0  0  0  0  0  0  0  0  0  0  0
   -1.4143    0.9847    0.1850 C   0  0  0  0  0  0  0  0  0  0  0  0
   -0.4362    1.9501    0.7696 C   0  0  0  0  0  0  0  0  0  0  0  0
    0.6099    0.8653    0.8600 C   0  0  0  0  0  0  0  0  0  0  0  0
    1.7311    0.8979    1.3123 O   0  0  0  0  0  0  0  0  0  0  0  0
    3.4849   -1.7640   -1.8572 H   0  0  0  0  0  0  0  0  0  0  0  0
   -0.8161   -0.9942   -1.6918 H   0  0  0  0  0  0  0  0  0  0  0  0
   -1.4856   -1.9545    0.5280 H   0  0  0  0  0  0  0  0  0  0  0  0
    0.2788   -1.9465    1.0943 H   0  0  0  0  0  0  0  0  0  0  0  0
   -2.3118    0.7630    0.8194 H   0  0  0  0  0  0  0  0  0  0  0  0
   -1.7620    1.1948   -0.8490 H   0  0  0  0  0  0  0  0  0  0  0  0
   -0.6984    2.3991    1.7303 H   0  0  0  0  0  0  0  0  0  0  0  0
   -0.1249    2.7605    0.0544 H   0  0  0  0  0  0  0  0  0  0  0  0
  1  2  3  0
  2  3  1  0
  3  4  1  0
  4  5  1  0
  5  6  1  0
  6  7  1  0
  7  8  1  0
  8  9  2  0
  5  3  1  0
  8  5  1  0
  1 10  1  0
  3 11  1  0
  4 12  1  0
  4 13  1  0
  6 14  1  0
  6 15  1  0
  7 16  1  0
  7 17  1  0
M  END
