
     RDKit          3D

 17 17  0  0  0  0  0  0  0  0999 V2000
    2.6742   -0.7910    1.2545 C   0  0  0  0  0  0  0  0  0  0  0  0
    1.6070   -0.3549    0.9023 C   0  0  0  0  0  0  0  0  0  0  0  0
    0.3094    0.1751    0.4473 C   0  0  0  0  0  0  0  0  0  0  0  0
    0.2249    1.5823    0.9561 C   0  0  0  0  0  0  0  0  0  0  0  0
    1.0864    2.3721    0.6065 O   0  0  0  0  0  0  0  0  0  0  0  0
    0.2041    0.2307   -1.0387 C   0  0  0  0  0  0  0  0  0  0  0  0
   -1.2932   -0.0617   -1.2240 C   0  0  0  0  0  0  0  0  0  0  0  0
   -1.4554   -1.0886   -0.0943 C   0  0  0  0  0  0  0  0  0  0  0  0
   -0.7382   -0.5442    0.9497 O   0  0  0  0  0  0  0  0  0  0  0  0
    3.6316   -1.1791    1.5518 H   0  0  0  0  0  0  0  0  0  0  0  0
   -0.5749    1.9042    1.6180 H   0  0  0  0  0  0  0  0  0  0  0  0
    0.4534    1.2502   -1.4269 H   0  0  0  0  0  0  0  0  0  0  0  0
    0.7695   -0.5646   -1.5603 H   0  0  0  0  0  0  0  0  0  0  0  0
   -1.9066    0.8230   -0.9512 H   0  0  0  0  0  0  0  0  0  0  0  0
   -1.5146   -0.4870   -2.2008 H   0  0  0  0  0  0  0  0  0  0  0  0
   -2.5233   -1.2572    0.1437 H   0  0  0  0  0  0  0  0  0  0  0  0
   -0.9543   -2.0094   -0.4568 H   0  0  0  0  0  0  0  0  0  0  0  0
  1  2  3  0
  2  3  1  0
  3  4  1  0
  4  5  2  0
  3  6  1  0
  6  7  1  0
  7  8  1  0
  8  9  1  0
  9  3  1  0
  1 10  1  0
  4 11  1  0
  6 12  1  0
  6 13  1  0
  7 14  1  0
  7 15  1  0
  8 16  1  0
  8 17  1  0
M  END
