
     RDKit          3D

 15 14  0  0  0  0  0  0  0  0999 V2000
    2.7361    2.6755   -1.5220 C   0  0  0  0  0  0  0  0  0  0  0  0
    2.1865    1.7962   -1.1633 C   0  0  0  0  0  0  0  0  0  0  0  0
    1.4633    0.6086   -0.6615 C   0  0  0  0  0  0  0  0  0  0  0  0
    0.8203   -0.4245   -0.2047 C   0  0  0  0  0  0  0  0  0  0  0  0
    0.1388   -1.5375    0.3072 C   0  0  0  0  0  0  0  0  0  0  0  0
   -1.1156   -0.8795    1.0105 C   0  0  0  0  0  0  0  0  0  0  0  0
   -1.7682   -0.0965   -0.1605 C   0  0  0  0  0  0  0  0  0  0  0  0
    3.2548    3.5359   -1.8731 H   0  0  0  0  0  0  0  0  0  0  0  0
    0.7199   -2.1090    1.0068 H   0  0  0  0  0  0  0  0  0  0  0  0
   -0.3177   -2.1359   -0.5199 H   0  0  0  0  0  0  0  0  0  0  0  0
   -1.7895   -1.5764    1.4474 H   0  0  0  0  0  0  0  0  0  0  0  0
   -0.6681   -0.1541    1.7113 H   0  0  0  0  0  0  0  0  0  0  0  0
   -2.8635   -0.0707   -0.0437 H   0  0  0  0  0  0  0  0  0  0  0  0
   -1.4276   -0.5617   -1.0983 H   0  0  0  0  0  0  0  0  0  0  0  0
   -1.3697    0.9294   -0.0817 H   0  0  0  0  0  0  0  0  0  0  0  0
  1  2  3  0
  2  3  1  0
  3  4  3  0
  4  5  1  0
  5  6  1  0
  6  7  1  0
  1  8  1  0
  5  9  1  0
  5 10  1  0
  6 11  1  0
  6 12  1  0
  7 13  1  0
  7 14  1  0
  7 15  1  0
M  END
