
     RDKit          3D

 17 17  0  0  0  0  0  0  0  0999 V2000
    2.9097   -0.1005   -0.6075 C   0  0  0  0  0  0  0  0  0  0  0  0
    1.7848   -0.2613   -0.2119 C   0  0  0  0  0  0  0  0  0  0  0  0
    0.4163   -0.4311    0.2688 C   0  0  0  0  0  0  0  0  0  0  0  0
   -0.4367    0.7281   -0.1974 C   0  0  0  0  0  0  0  0  0  0  0  0
   -0.6949    1.7147    0.9010 C   0  0  0  0  0  0  0  0  0  0  0  0
   -1.5157   -0.2689   -0.4350 C   0  0  0  0  0  0  0  0  0  0  0  0
   -2.7291   -0.2477   -0.4328 O   0  0  0  0  0  0  0  0  0  0  0  0
   -0.4389   -1.2582   -0.6653 C   0  0  0  0  0  0  0  0  0  0  0  0
   -0.6953   -2.5471   -0.2486 O   0  0  0  0  0  0  0  0  0  0  0  0
    3.9032    0.0374   -0.9387 H   0  0  0  0  0  0  0  0  0  0  0  0
    0.3038   -0.6344    1.3453 H   0  0  0  0  0  0  0  0  0  0  0  0
   -0.0856    1.2353   -1.1159 H   0  0  0  0  0  0  0  0  0  0  0  0
   -1.7507    2.0871    0.7511 H   0  0  0  0  0  0  0  0  0  0  0  0
   -0.0612    2.6060    0.7387 H   0  0  0  0  0  0  0  0  0  0  0  0
   -0.5293    1.3403    1.9119 H   0  0  0  0  0  0  0  0  0  0  0  0
   -0.0652   -1.2279   -1.6970 H   0  0  0  0  0  0  0  0  0  0  0  0
   -0.3152   -2.7718    0.6333 H   0  0  0  0  0  0  0  0  0  0  0  0
  1  2  3  0
  2  3  1  0
  3  4  1  0
  4  5  1  0
  4  6  1  0
  6  7  2  0
  6  8  1  0
  8  9  1  0
  8  3  1  0
  1 10  1  0
  3 11  1  0
  4 12  1  0
  5 13  1  0
  5 14  1  0
  5 15  1  0
  8 16  1  0
  9 17  1  0
M  END
