
     RDKit          3D

 19 18  0  0  0  0  0  0  0  0999 V2000
    0.8557    2.4136   -1.8675 C   0  0  0  0  0  0  0  0  0  0  0  0
    0.3924    1.3781   -1.4550 C   0  0  0  0  0  0  0  0  0  0  0  0
   -0.1562    0.0973   -0.9541 C   0  0  0  0  0  0  0  0  0  0  0  0
   -1.4903    0.4409   -0.3300 C   0  0  0  0  0  0  0  0  0  0  0  0
    0.7778   -0.5201    0.0641 C   0  0  0  0  0  0  0  0  0  0  0  0
    0.9343    0.4083    1.1860 C   0  0  0  0  0  0  0  0  0  0  0  0
    1.0687    1.1781    2.1048 C   0  0  0  0  0  0  0  0  0  0  0  0
    0.2791   -1.8540    0.5111 C   0  0  0  0  0  0  0  0  0  0  0  0
   -0.9688   -1.7637    1.0942 O   0  0  0  0  0  0  0  0  0  0  0  0
    1.2752    3.3154   -2.2322 H   0  0  0  0  0  0  0  0  0  0  0  0
   -0.2853   -0.6289   -1.7682 H   0  0  0  0  0  0  0  0  0  0  0  0
   -1.2824    0.5614    0.7705 H   0  0  0  0  0  0  0  0  0  0  0  0
   -1.8811    1.4133   -0.7034 H   0  0  0  0  0  0  0  0  0  0  0  0
   -2.1999   -0.3785   -0.4319 H   0  0  0  0  0  0  0  0  0  0  0  0
    1.7548   -0.6633   -0.4773 H   0  0  0  0  0  0  0  0  0  0  0  0
    1.2039    1.8509    2.9195 H   0  0  0  0  0  0  0  0  0  0  0  0
    0.2708   -2.5549   -0.3388 H   0  0  0  0  0  0  0  0  0  0  0  0
    1.0145   -2.2678    1.2391 H   0  0  0  0  0  0  0  0  0  0  0  0
   -1.5632   -2.4261    0.6690 H   0  0  0  0  0  0  0  0  0  0  0  0
  1  2  3  0
  2  3  1  0
  3  4  1  0
  3  5  1  0
  5  6  1  0
  6  7  3  0
  5  8  1  0
  8  9  1  0
  1 10  1  0
  3 11  1  0
  4 12  1  0
  4 13  1  0
  4 14  1  0
  5 15  1  0
  7 16  1  0
  8 17  1  0
  8 18  1  0
  9 19  1  0
M  END
