
     RDKit          3D

 19 19  0  0  0  0  0  0  0  0999 V2000
    2.4373   -0.1768   -2.0242 C   0  0  0  0  0  0  0  0  0  0  0  0
    1.4541   -0.3858   -1.3298 C   0  0  0  0  0  0  0  0  0  0  0  0
    0.2704   -0.6541   -0.5151 C   0  0  0  0  0  0  0  0  0  0  0  0
   -0.0900   -2.0139   -0.5266 O   0  0  0  0  0  0  0  0  0  0  0  0
   -0.8308    0.3275   -0.4784 C   0  0  0  0  0  0  0  0  0  0  0  0
   -2.2439   -0.1966   -0.3648 C   0  0  0  0  0  0  0  0  0  0  0  0
    0.0479    0.1081    0.7340 C   0  0  0  0  0  0  0  0  0  0  0  0
    0.8866    1.2967    1.1028 C   0  0  0  0  0  0  0  0  0  0  0  0
   -0.4798   -0.5989    1.8055 O   0  0  0  0  0  0  0  0  0  0  0  0
    3.3016    0.0093   -2.6129 H   0  0  0  0  0  0  0  0  0  0  0  0
    0.4155   -2.5257    0.1657 H   0  0  0  0  0  0  0  0  0  0  0  0
   -0.6768    1.2651   -1.0845 H   0  0  0  0  0  0  0  0  0  0  0  0
   -2.4047   -0.6078    0.6310 H   0  0  0  0  0  0  0  0  0  0  0  0
   -2.9360    0.6681   -0.5712 H   0  0  0  0  0  0  0  0  0  0  0  0
   -2.4712   -0.9635   -1.1413 H   0  0  0  0  0  0  0  0  0  0  0  0
    0.9979    2.0127    0.2378 H   0  0  0  0  0  0  0  0  0  0  0  0
    1.8768    1.0595    1.4882 H   0  0  0  0  0  0  0  0  0  0  0  0
    0.3452    1.8872    1.8970 H   0  0  0  0  0  0  0  0  0  0  0  0
    0.0999   -0.5111    2.5868 H   0  0  0  0  0  0  0  0  0  0  0  0
  1  2  3  0
  2  3  1  0
  3  4  1  0
  3  5  1  0
  5  6  1  0
  5  7  1  0
  7  8  1  0
  7  9  1  0
  7  3  1  0
  1 10  1  0
  4 11  1  0
  5 12  1  0
  6 13  1  0
  6 14  1  0
  6 15  1  0
  8 16  1  0
  8 17  1  0
  8 18  1  0
  9 19  1  0
M  END
