
     RDKit          3D

 19 20  0  0  0  0  0  0  0  0999 V2000
   -1.4693    2.9769   -0.6343 C   0  0  0  0  0  0  0  0  0  0  0  0
   -1.4073    1.8735   -1.1080 C   0  0  0  0  0  0  0  0  0  0  0  0
   -1.3565    0.5288   -1.6815 C   0  0  0  0  0  0  0  0  0  0  0  0
   -0.5829   -0.3800   -0.7699 C   0  0  0  0  0  0  0  0  0  0  0  0
    0.8551    0.0447   -0.5228 C   0  0  0  0  0  0  0  0  0  0  0  0
    0.5061   -0.5440    0.7742 C   0  0  0  0  0  0  0  0  0  0  0  0
    0.8582   -1.8759    1.2410 C   0  0  0  0  0  0  0  0  0  0  0  0
    1.2674   -0.5592    1.9805 C   0  0  0  0  0  0  0  0  0  0  0  0
   -0.8031   -0.1714    0.6011 O   0  0  0  0  0  0  0  0  0  0  0  0
   -1.5392    3.9598   -0.2243 H   0  0  0  0  0  0  0  0  0  0  0  0
   -2.3710    0.0945   -1.7923 H   0  0  0  0  0  0  0  0  0  0  0  0
   -0.8700    0.5128   -2.6679 H   0  0  0  0  0  0  0  0  0  0  0  0
   -0.6462   -1.4516   -0.9847 H   0  0  0  0  0  0  0  0  0  0  0  0
    0.8884    1.1625   -0.4779 H   0  0  0  0  0  0  0  0  0  0  0  0
    1.5945   -0.4286   -1.1633 H   0  0  0  0  0  0  0  0  0  0  0  0
    0.1677   -2.5400    1.7896 H   0  0  0  0  0  0  0  0  0  0  0  0
    1.6762   -2.4007    0.7254 H   0  0  0  0  0  0  0  0  0  0  0  0
    0.8691   -0.4780    2.9907 H   0  0  0  0  0  0  0  0  0  0  0  0
    2.3628   -0.3240    1.9243 H   0  0  0  0  0  0  0  0  0  0  0  0
  1  2  3  0
  2  3  1  0
  3  4  1  0
  4  5  1  0
  5  6  1  0
  6  7  1  0
  7  8  1  0
  6  9  1  0
  9  4  1  0
  8  6  1  0
  1 10  1  0
  3 11  1  0
  3 12  1  0
  4 13  1  0
  5 14  1  0
  5 15  1  0
  7 16  1  0
  7 17  1  0
  8 18  1  0
  8 19  1  0
M  END
