
     RDKit          3D

 17 17  0  0  0  0  0  0  0  0999 V2000
   -1.4904    2.2102    1.7789 C   0  0  0  0  0  0  0  0  0  0  0  0
   -1.2197    1.2936    1.0443 C   0  0  0  0  0  0  0  0  0  0  0  0
   -0.8844    0.2186    0.1563 C   0  0  0  0  0  0  0  0  0  0  0  0
   -1.7947   -0.3604   -0.6116 C   0  0  0  0  0  0  0  0  0  0  0  0
   -1.0847   -1.4295   -1.3950 C   0  0  0  0  0  0  0  0  0  0  0  0
   -0.0309   -1.7362   -0.5348 O   0  0  0  0  0  0  0  0  0  0  0  0
    0.3768   -0.4603   -0.1252 C   0  0  0  0  0  0  0  0  0  0  0  0
    1.2809   -0.4770    0.9009 O   0  0  0  0  0  0  0  0  0  0  0  0
    2.5019    0.0942    0.5810 C   0  0  0  0  0  0  0  0  0  0  0  0
   -1.7177    3.0233    2.4169 H   0  0  0  0  0  0  0  0  0  0  0  0
   -2.8570   -0.1289   -0.6830 H   0  0  0  0  0  0  0  0  0  0  0  0
   -1.7340   -2.2720   -1.6228 H   0  0  0  0  0  0  0  0  0  0  0  0
   -0.7115   -0.9123   -2.3209 H   0  0  0  0  0  0  0  0  0  0  0  0
    0.8427    0.0224   -1.0077 H   0  0  0  0  0  0  0  0  0  0  0  0
    3.0216   -0.3988   -0.2568 H   0  0  0  0  0  0  0  0  0  0  0  0
    3.1881    0.1612    1.4396 H   0  0  0  0  0  0  0  0  0  0  0  0
    2.3131    1.1520    0.2397 H   0  0  0  0  0  0  0  0  0  0  0  0
  1  2  3  0
  2  3  1  0
  3  4  2  0
  4  5  1  0
  5  6  1  0
  6  7  1  0
  7  8  1  0
  8  9  1  0
  7  3  1  0
  1 10  1  0
  4 11  1  0
  5 12  1  0
  5 13  1  0
  7 14  1  0
  9 15  1  0
  9 16  1  0
  9 17  1  0
M  END
