
     RDKit          3D

 15 15  0  0  0  0  0  0  0  0999 V2000
    2.4919   -0.2081    0.0817 C   0  0  0  0  0  0  0  0  0  0  0  0
    1.3204   -0.4028   -0.1163 C   0  0  0  0  0  0  0  0  0  0  0  0
   -0.1129   -0.6549   -0.3809 C   0  0  0  0  0  0  0  0  0  0  0  0
   -0.4351   -1.9078   -0.8745 O   0  0  0  0  0  0  0  0  0  0  0  0
   -0.9882    0.5376   -0.7478 C   0  0  0  0  0  0  0  0  0  0  0  0
   -0.2869    1.6989   -1.0563 O   0  0  0  0  0  0  0  0  0  0  0  0
   -1.0627   -0.0531    0.5843 C   0  0  0  0  0  0  0  0  0  0  0  0
   -0.4934    0.5498    1.7906 C   0  0  0  0  0  0  0  0  0  0  0  0
   -1.0479    0.3937    2.8619 O   0  0  0  0  0  0  0  0  0  0  0  0
    3.5230   -0.0375    0.2372 H   0  0  0  0  0  0  0  0  0  0  0  0
    0.2310   -2.1808   -1.5692 H   0  0  0  0  0  0  0  0  0  0  0  0
   -1.7522    0.2807   -1.5094 H   0  0  0  0  0  0  0  0  0  0  0  0
    0.2148    1.4713   -1.9044 H   0  0  0  0  0  0  0  0  0  0  0  0
   -2.0140   -0.6336    0.7844 H   0  0  0  0  0  0  0  0  0  0  0  0
    0.4124    1.1465    1.8187 H   0  0  0  0  0  0  0  0  0  0  0  0
  1  2  3  0
  2  3  1  0
  3  4  1  0
  3  5  1  0
  5  6  1  0
  5  7  1  0
  7  8  1  0
  8  9  2  0
  7  3  1  0
  1 10  1  0
  4 11  1  0
  5 12  1  0
  6 13  1  0
  7 14  1  0
  8 15  1  0
M  END
