
     RDKit          3D

 14 14  0  0  0  0  0  0  0  0999 V2000
    3.7645    0.6604    2.2996 C   0  0  0  0  0  0  0  0  0  0  0  0
    2.8003    0.6044    1.5577 C   0  0  0  0  0  0  0  0  0  0  0  0
    1.6740    0.5279    0.6969 C   0  0  0  0  0  0  0  0  0  0  0  0
    0.7026    0.4649   -0.0195 C   0  0  0  0  0  0  0  0  0  0  0  0
   -0.4820    0.3811   -0.8787 C   0  0  0  0  0  0  0  0  0  0  0  0
   -0.9932   -1.0348   -1.2246 C   0  0  0  0  0  0  0  0  0  0  0  0
   -1.7541   -0.1603   -0.2984 C   0  0  0  0  0  0  0  0  0  0  0  0
   -2.9588    0.3324   -0.7964 O   0  0  0  0  0  0  0  0  0  0  0  0
    4.6026    0.7261    2.9494 H   0  0  0  0  0  0  0  0  0  0  0  0
   -0.6077    1.1583   -1.6744 H   0  0  0  0  0  0  0  0  0  0  0  0
   -0.3578   -1.8657   -0.8431 H   0  0  0  0  0  0  0  0  0  0  0  0
   -1.3793   -1.1882   -2.2527 H   0  0  0  0  0  0  0  0  0  0  0  0
   -1.7667   -0.4172    0.7664 H   0  0  0  0  0  0  0  0  0  0  0  0
   -3.2442    1.1268   -0.2823 H   0  0  0  0  0  0  0  0  0  0  0  0
  1  2  3  0
  2  3  1  0
  3  4  3  0
  4  5  1  0
  5  6  1  0
  6  7  1  0
  7  8  1  0
  7  5  1  0
  1  9  1  0
  5 10  1  0
  6 11  1  0
  6 12  1  0
  7 13  1  0
  8 14  1  0
M  END
