
     RDKit          3D

 17 16  0  0  0  0  0  0  0  0999 V2000
    1.9496    1.9404    3.0482 C   0  0  0  0  0  0  0  0  0  0  0  0
    1.5058    0.8709    2.6907 C   0  0  0  0  0  0  0  0  0  0  0  0
    0.9736   -0.4301    2.2310 C   0  0  0  0  0  0  0  0  0  0  0  0
    0.5237   -0.3526    0.8437 C   0  0  0  0  0  0  0  0  0  0  0  0
    0.1641   -0.2983   -0.3251 C   0  0  0  0  0  0  0  0  0  0  0  0
   -0.2650   -0.2317   -1.7185 C   0  0  0  0  0  0  0  0  0  0  0  0
   -0.7899   -1.5831   -2.1490 C   0  0  0  0  0  0  0  0  0  0  0  0
   -1.2557    0.8017   -1.8581 C   0  0  0  0  0  0  0  0  0  0  0  0
   -2.1378    1.6954   -1.9929 C   0  0  0  0  0  0  0  0  0  0  0  0
    2.3252    2.8829    3.3491 H   0  0  0  0  0  0  0  0  0  0  0  0
    0.1596   -0.7586    2.9055 H   0  0  0  0  0  0  0  0  0  0  0  0
    1.8055   -1.1708    2.2459 H   0  0  0  0  0  0  0  0  0  0  0  0
    0.6183   -0.0351   -2.3949 H   0  0  0  0  0  0  0  0  0  0  0  0
   -1.0130   -1.5792   -3.2418 H   0  0  0  0  0  0  0  0  0  0  0  0
   -0.0027   -2.3387   -1.9168 H   0  0  0  0  0  0  0  0  0  0  0  0
   -1.7046   -1.8509   -1.6130 H   0  0  0  0  0  0  0  0  0  0  0  0
   -2.8568    2.4379   -2.0955 H   0  0  0  0  0  0  0  0  0  0  0  0
  1  2  3  0
  2  3  1  0
  3  4  1  0
  4  5  3  0
  5  6  1  0
  6  7  1  0
  6  8  1  0
  8  9  3  0
  1 10  1  0
  3 11  1  0
  3 12  1  0
  6 13  1  0
  7 14  1  0
  7 15  1  0
  7 16  1  0
  9 17  1  0
M  END
