
     RDKit          3D

 18 19  0  0  0  0  0  0  0  0999 V2000
    1.7257    2.7027   -0.7696 C   0  0  0  0  0  0  0  0  0  0  0  0
    1.4873    1.6859   -0.1447 C   0  0  0  0  0  0  0  0  0  0  0  0
    1.1787    0.4687    0.6205 C   0  0  0  0  0  0  0  0  0  0  0  0
    1.3555   -0.8539   -0.1983 C   0  0  0  0  0  0  0  0  0  0  0  0
    0.0574   -0.3355    0.1772 C   0  0  0  0  0  0  0  0  0  0  0  0
   -0.9359   -1.0023    1.0398 C   0  0  0  0  0  0  0  0  0  0  0  0
   -1.9600   -0.8301   -0.0911 C   0  0  0  0  0  0  0  0  0  0  0  0
   -0.9869    0.1286   -0.7905 C   0  0  0  0  0  0  0  0  0  0  0  0
    1.9394    3.5931   -1.3001 H   0  0  0  0  0  0  0  0  0  0  0  0
    1.5433    0.4350    1.6548 H   0  0  0  0  0  0  0  0  0  0  0  0
    1.7145   -0.7281   -1.2393 H   0  0  0  0  0  0  0  0  0  0  0  0
    1.7794   -1.7100    0.3491 H   0  0  0  0  0  0  0  0  0  0  0  0
   -0.7329   -2.0876    1.1900 H   0  0  0  0  0  0  0  0  0  0  0  0
   -1.2277   -0.5040    1.9795 H   0  0  0  0  0  0  0  0  0  0  0  0
   -2.8658   -0.2821    0.1970 H   0  0  0  0  0  0  0  0  0  0  0  0
   -2.1038   -1.7543   -0.6851 H   0  0  0  0  0  0  0  0  0  0  0  0
   -0.7523   -0.1243   -1.8234 H   0  0  0  0  0  0  0  0  0  0  0  0
   -1.2158    1.1983   -0.6289 H   0  0  0  0  0  0  0  0  0  0  0  0
  1  2  3  0
  2  3  1  0
  3  4  1  0
  4  5  1  0
  5  6  1  0
  6  7  1  0
  7  8  1  0
  5  3  1  0
  8  5  1  0
  1  9  1  0
  3 10  1  0
  4 11  1  0
  4 12  1  0
  6 13  1  0
  6 14  1  0
  7 15  1  0
  7 16  1  0
  8 17  1  0
  8 18  1  0
M  END
