
     RDKit          3D

 21 20  0  0  0  0  0  0  0  0999 V2000
    2.6337   -1.7613   -0.9933 C   0  0  0  0  0  0  0  0  0  0  0  0
    2.1510   -0.6576   -0.9193 C   0  0  0  0  0  0  0  0  0  0  0  0
    1.5396    0.6853   -0.8416 C   0  0  0  0  0  0  0  0  0  0  0  0
    1.8725    1.2379    0.3651 O   0  0  0  0  0  0  0  0  0  0  0  0
    0.0879    0.6477   -1.1681 C   0  0  0  0  0  0  0  0  0  0  0  0
   -0.7653   -0.2059   -0.3036 C   0  0  0  0  0  0  0  0  0  0  0  0
   -2.0889   -0.0882   -0.8006 O   0  0  0  0  0  0  0  0  0  0  0  0
   -0.7748    0.2741    1.1204 C   0  0  0  0  0  0  0  0  0  0  0  0
   -1.6744   -0.6412    1.9607 C   0  0  0  0  0  0  0  0  0  0  0  0
    3.0781   -2.7347   -1.0535 H   0  0  0  0  0  0  0  0  0  0  0  0
    2.0358    1.3239   -1.6391 H   0  0  0  0  0  0  0  0  0  0  0  0
    1.4194    2.0796    0.5734 H   0  0  0  0  0  0  0  0  0  0  0  0
   -0.3221    1.6931   -1.1274 H   0  0  0  0  0  0  0  0  0  0  0  0
   -0.0140    0.3038   -2.2387 H   0  0  0  0  0  0  0  0  0  0  0  0
   -0.5385   -1.2925   -0.3873 H   0  0  0  0  0  0  0  0  0  0  0  0
   -2.0799    0.1892   -1.7488 H   0  0  0  0  0  0  0  0  0  0  0  0
   -1.2367    1.2748    1.1842 H   0  0  0  0  0  0  0  0  0  0  0  0
    0.1958    0.2793    1.6144 H   0  0  0  0  0  0  0  0  0  0  0  0
   -1.4632   -1.6795    1.5875 H   0  0  0  0  0  0  0  0  0  0  0  0
   -1.3505   -0.6013    3.0220 H   0  0  0  0  0  0  0  0  0  0  0  0
   -2.7054   -0.3265    1.7937 H   0  0  0  0  0  0  0  0  0  0  0  0
  1  2  3  0
  2  3  1  0
  3  4  1  0
  3  5  1  0
  5  6  1  0
  6  7  1  0
  6  8  1  0
  8  9  1  0
  1 10  1  0
  3 11  1  0
  4 12  1  0
  5 13  1  0
  5 14  1  0
  6 15  1  0
  7 16  1  0
  8 17  1  0
  8 18  1  0
  9 19  1  0
  9 20  1  0
  9 21  1  0
M  END
