
     RDKit          3D

 11 10  0  0  0  0  0  0  0  0999 V2000
    3.4165   -1.0112    1.8699 C   0  0  0  0  0  0  0  0  0  0  0  0
    2.1855   -0.6402    1.2166 C   0  0  0  0  0  0  0  0  0  0  0  0
    1.1963   -0.3603    0.7000 C   0  0  0  0  0  0  0  0  0  0  0  0
    0.0878   -0.0383    0.1075 C   0  0  0  0  0  0  0  0  0  0  0  0
   -0.9745    0.2868   -0.4801 C   0  0  0  0  0  0  0  0  0  0  0  0
   -2.1772    0.6529   -1.1896 C   0  0  0  0  0  0  0  0  0  0  0  0
   -0.2821   -0.0190   -1.9431 O   0  0  0  0  0  0  0  0  0  0  0  0
    4.2724   -1.2759    2.3443 H   0  0  0  0  0  0  0  0  0  0  0  0
   -2.1042    1.3447   -2.0209 H   0  0  0  0  0  0  0  0  0  0  0  0
   -2.8450   -0.1932   -1.5394 H   0  0  0  0  0  0  0  0  0  0  0  0
   -2.7755    1.2537   -0.3648 H   0  0  0  0  0  0  0  0  0  0  0  0
  1  2  3  0
  2  3  1  0
  3  4  3  0
  4  5  1  0
  5  6  1  0
  5  7  2  0
  1  8  1  0
  6  9  1  0
  6 10  1  0
  6 11  1  0
M  END
