
     RDKit          3D

 21 21  0  0  0  0  0  0  0  0999 V2000
    3.0413   -0.1812   -3.3259 C   0  0  0  0  0  0  0  0  0  0  0  0
    2.3722    0.3725   -2.4345 C   0  0  0  0  0  0  0  0  0  0  0  0
    1.5964    0.9869   -1.4140 C   0  0  0  0  0  0  0  0  0  0  0  0
    0.2970    1.6598   -1.5301 C   0  0  0  0  0  0  0  0  0  0  0  0
    0.2402    0.2809   -1.0847 C   0  0  0  0  0  0  0  0  0  0  0  0
    0.1867   -0.1021    0.3938 C   0  0  0  0  0  0  0  0  0  0  0  0
   -0.7114   -0.6807    0.9572 O   0  0  0  0  0  0  0  0  0  0  0  0
   -1.6574   -1.2757    1.5442 C   0  0  0  0  0  0  0  0  0  0  0  0
   -2.1212   -0.7031    2.8888 C   0  0  0  0  0  0  0  0  0  0  0  0
    3.5994   -0.6556   -4.0588 H   0  0  0  0  0  0  0  0  0  0  0  0
    2.1933    1.3360   -0.5138 H   0  0  0  0  0  0  0  0  0  0  0  0
    0.0717    2.5174   -0.8039 H   0  0  0  0  0  0  0  0  0  0  0  0
    0.0149    1.9967   -2.5713 H   0  0  0  0  0  0  0  0  0  0  0  0
   -0.0858   -0.4684   -1.8158 H   0  0  0  0  0  0  0  0  0  0  0  0
    1.2168   -0.6469    0.5160 H   0  0  0  0  0  0  0  0  0  0  0  0
    0.5468    0.9071    0.9396 H   0  0  0  0  0  0  0  0  0  0  0  0
   -2.6341   -1.4353    0.9853 H   0  0  0  0  0  0  0  0  0  0  0  0
   -1.3837   -2.3623    1.7827 H   0  0  0  0  0  0  0  0  0  0  0  0
   -2.6963    0.2142    2.6489 H   0  0  0  0  0  0  0  0  0  0  0  0
   -1.2750   -0.3575    3.5074 H   0  0  0  0  0  0  0  0  0  0  0  0
   -2.8119   -1.4027    3.3889 H   0  0  0  0  0  0  0  0  0  0  0  0
  1  2  3  0
  2  3  1  0
  3  4  1  0
  4  5  1  0
  5  6  1  0
  6  7  1  0
  7  8  1  0
  8  9  1  0
  5  3  1  0
  1 10  1  0
  3 11  1  0
  4 12  1  0
  4 13  1  0
  5 14  1  0
  6 15  1  0
  6 16  1  0
  8 17  1  0
  8 18  1  0
  9 19  1  0
  9 20  1  0
  9 21  1  0
M  END
