
     RDKit          3D

 21 22  0  0  0  0  0  0  0  0999 V2000
    1.9554   -1.9695    1.0450 C   0  0  0  0  0  0  0  0  0  0  0  0
    1.0885   -1.6132    0.2909 C   0  0  0  0  0  0  0  0  0  0  0  0
    0.0499   -1.1938   -0.6412 C   0  0  0  0  0  0  0  0  0  0  0  0
    0.5944   -0.2600   -1.7040 C   0  0  0  0  0  0  0  0  0  0  0  0
    0.4216    1.1023   -1.0674 C   0  0  0  0  0  0  0  0  0  0  0  0
   -0.9135    0.9728   -0.3790 C   0  0  0  0  0  0  0  0  0  0  0  0
   -0.8448    1.4631    1.0322 C   0  0  0  0  0  0  0  0  0  0  0  0
   -0.5990    0.0438    1.4859 C   0  0  0  0  0  0  0  0  0  0  0  0
   -0.9961   -0.4534    0.1186 C   0  0  0  0  0  0  0  0  0  0  0  0
    2.7236   -2.2756    1.7305 H   0  0  0  0  0  0  0  0  0  0  0  0
   -0.4010   -2.0537   -1.1658 H   0  0  0  0  0  0  0  0  0  0  0  0
    0.0904   -0.3565   -2.6685 H   0  0  0  0  0  0  0  0  0  0  0  0
    1.6965   -0.4845   -1.7638 H   0  0  0  0  0  0  0  0  0  0  0  0
    0.4200    1.9177   -1.8024 H   0  0  0  0  0  0  0  0  0  0  0  0
    1.2428    1.2283   -0.3377 H   0  0  0  0  0  0  0  0  0  0  0  0
   -1.7893    1.2255   -0.9696 H   0  0  0  0  0  0  0  0  0  0  0  0
   -1.8150    1.8956    1.3523 H   0  0  0  0  0  0  0  0  0  0  0  0
    0.0073    2.1326    1.2701 H   0  0  0  0  0  0  0  0  0  0  0  0
    0.4186   -0.1947    1.7954 H   0  0  0  0  0  0  0  0  0  0  0  0
   -1.3392   -0.2327    2.2634 H   0  0  0  0  0  0  0  0  0  0  0  0
   -2.0110   -0.8943    0.1152 H   0  0  0  0  0  0  0  0  0  0  0  0
  1  2  3  0
  2  3  1  0
  3  4  1  0
  4  5  1  0
  5  6  1  0
  6  7  1  0
  7  8  1  0
  8  9  1  0
  9  3  1  0
  9  6  1  0
  1 10  1  0
  3 11  1  0
  4 12  1  0
  4 13  1  0
  5 14  1  0
  5 15  1  0
  6 16  1  0
  7 17  1  0
  7 18  1  0
  8 19  1  0
  8 20  1  0
  9 21  1  0
M  END
