
     RDKit          3D

 19 19  0  0  0  0  0  0  0  0999 V2000
   -1.5707    2.5822   -0.5455 C   0  0  0  0  0  0  0  0  0  0  0  0
   -1.1641    1.4536   -0.3059 C   0  0  0  0  0  0  0  0  0  0  0  0
   -0.6955    0.0976   -0.0085 C   0  0  0  0  0  0  0  0  0  0  0  0
    0.7093   -0.2417   -0.4790 C   0  0  0  0  0  0  0  0  0  0  0  0
    1.5895    0.6386    0.1402 O   0  0  0  0  0  0  0  0  0  0  0  0
    2.9040    0.4239   -0.2140 C   0  0  0  0  0  0  0  0  0  0  0  0
   -1.1491   -0.4621    1.3177 C   0  0  0  0  0  0  0  0  0  0  0  0
   -1.7463   -0.9482   -0.0019 C   0  0  0  0  0  0  0  0  0  0  0  0
   -1.4238   -2.2774   -0.2919 O   0  0  0  0  0  0  0  0  0  0  0  0
   -1.9251    3.5572   -0.7602 H   0  0  0  0  0  0  0  0  0  0  0  0
    0.9322   -1.2664   -0.1276 H   0  0  0  0  0  0  0  0  0  0  0  0
    0.8031   -0.1363   -1.5748 H   0  0  0  0  0  0  0  0  0  0  0  0
    3.2672   -0.5981    0.0472 H   0  0  0  0  0  0  0  0  0  0  0  0
    3.0400    0.5160   -1.3133 H   0  0  0  0  0  0  0  0  0  0  0  0
    3.5182    1.1744    0.3260 H   0  0  0  0  0  0  0  0  0  0  0  0
   -1.8701    0.1114    1.9393 H   0  0  0  0  0  0  0  0  0  0  0  0
   -0.4853   -1.1440    1.8809 H   0  0  0  0  0  0  0  0  0  0  0  0
   -2.7946   -0.6520   -0.2396 H   0  0  0  0  0  0  0  0  0  0  0  0
   -1.9389   -2.8284    0.3691 H   0  0  0  0  0  0  0  0  0  0  0  0
  1  2  3  0
  2  3  1  0
  3  4  1  0
  4  5  1  0
  5  6  1  0
  3  7  1  0
  7  8  1  0
  8  9  1  0
  8  3  1  0
  1 10  1  0
  4 11  1  0
  4 12  1  0
  6 13  1  0
  6 14  1  0
  6 15  1  0
  7 16  1  0
  7 17  1  0
  8 18  1  0
  9 19  1  0
M  END
