
     RDKit          3D

 19 20  0  0  0  0  0  0  0  0999 V2000
   -1.3438    2.7271   -0.1266 C   0  0  0  0  0  0  0  0  0  0  0  0
   -0.9372    1.4874   -0.4601 C   0  0  0  0  0  0  0  0  0  0  0  0
   -0.5350    0.3148   -0.7925 C   0  0  0  0  0  0  0  0  0  0  0  0
    0.5005   -0.5264   -1.4035 C   0  0  0  0  0  0  0  0  0  0  0  0
    0.1052   -2.0002   -1.5769 C   0  0  0  0  0  0  0  0  0  0  0  0
    0.9324    0.0172   -0.1806 C   0  0  0  0  0  0  0  0  0  0  0  0
    0.8064    0.2073    1.2546 C   0  0  0  0  0  0  0  0  0  0  0  0
   -0.1266   -0.1113    2.2635 C   0  0  0  0  0  0  0  0  0  0  0  0
   -0.0247    1.2383    1.7457 O   0  0  0  0  0  0  0  0  0  0  0  0
   -1.7014    3.7622    0.1461 H   0  0  0  0  0  0  0  0  0  0  0  0
   -1.2984   -0.5222   -0.1719 H   0  0  0  0  0  0  0  0  0  0  0  0
    0.9154   -0.1241   -2.3974 H   0  0  0  0  0  0  0  0  0  0  0  0
   -0.9885   -2.1483   -1.5126 H   0  0  0  0  0  0  0  0  0  0  0  0
    0.6611   -2.6602   -0.8703 H   0  0  0  0  0  0  0  0  0  0  0  0
    0.4157   -2.2890   -2.5982 H   0  0  0  0  0  0  0  0  0  0  0  0
    1.6323    1.0077   -0.4955 H   0  0  0  0  0  0  0  0  0  0  0  0
    1.8850    0.3671    1.7111 H   0  0  0  0  0  0  0  0  0  0  0  0
   -1.1074   -0.6252    2.1271 H   0  0  0  0  0  0  0  0  0  0  0  0
    0.2091   -0.1223    3.3379 H   0  0  0  0  0  0  0  0  0  0  0  0
  1  2  3  0
  2  3  1  0
  3  4  1  0
  4  5  1  0
  4  6  1  0
  6  7  1  0
  7  8  1  0
  8  9  1  0
  6  3  1  0
  9  7  1  0
  1 10  1  0
  3 11  1  0
  4 12  1  0
  5 13  1  0
  5 14  1  0
  5 15  1  0
  6 16  1  0
  7 17  1  0
  8 18  1  0
  8 19  1  0
M  END
