
     RDKit          3D

 21 21  0  0  0  0  0  0  0  0999 V2000
    3.4884   -0.0747    0.7237 C   0  0  0  0  0  0  0  0  0  0  0  0
    2.3017    0.1367    1.0397 C   0  0  0  0  0  0  0  0  0  0  0  0
    0.9278    0.4057    1.4155 C   0  0  0  0  0  0  0  0  0  0  0  0
    0.0948    0.7791    0.2034 C   0  0  0  0  0  0  0  0  0  0  0  0
   -1.2871    0.9893    0.6978 C   0  0  0  0  0  0  0  0  0  0  0  0
   -1.9113   -0.1838    0.6321 C   0  0  0  0  0  0  0  0  0  0  0  0
   -0.9839   -1.2501    0.0904 C   0  0  0  0  0  0  0  0  0  0  0  0
   -0.0520   -0.3656   -0.7542 C   0  0  0  0  0  0  0  0  0  0  0  0
   -0.6939    0.0017   -2.0412 C   0  0  0  0  0  0  0  0  0  0  0  0
    4.5258   -0.2755    0.4439 H   0  0  0  0  0  0  0  0  0  0  0  0
    0.9455    1.3593    2.0513 H   0  0  0  0  0  0  0  0  0  0  0  0
    0.4742   -0.3649    2.0271 H   0  0  0  0  0  0  0  0  0  0  0  0
    0.4990    1.6795   -0.2976 H   0  0  0  0  0  0  0  0  0  0  0  0
   -1.7567    1.9222    1.0716 H   0  0  0  0  0  0  0  0  0  0  0  0
   -2.9206   -0.4352    0.8939 H   0  0  0  0  0  0  0  0  0  0  0  0
   -1.5023   -1.9556   -0.5802 H   0  0  0  0  0  0  0  0  0  0  0  0
   -0.4469   -1.7600    0.9107 H   0  0  0  0  0  0  0  0  0  0  0  0
    0.9404   -0.8370   -0.8857 H   0  0  0  0  0  0  0  0  0  0  0  0
   -0.0123    0.4986   -2.7482 H   0  0  0  0  0  0  0  0  0  0  0  0
   -1.0642   -0.9350   -2.5354 H   0  0  0  0  0  0  0  0  0  0  0  0
   -1.5666    0.6652   -1.8505 H   0  0  0  0  0  0  0  0  0  0  0  0
  1  2  3  0
  2  3  1  0
  3  4  1  0
  4  5  1  0
  5  6  2  0
  6  7  1  0
  7  8  1  0
  8  9  1  0
  8  4  1  0
  1 10  1  0
  3 11  1  0
  3 12  1  0
  4 13  1  0
  5 14  1  0
  6 15  1  0
  7 16  1  0
  7 17  1  0
  8 18  1  0
  9 19  1  0
  9 20  1  0
  9 21  1  0
M  END
