
     RDKit          3D

 17 17  0  0  0  0  0  0  0  0999 V2000
    2.2835    1.3083    1.6180 C   0  0  0  0  0  0  0  0  0  0  0  0
    1.6983    0.7443    0.7600 C   0  0  0  0  0  0  0  0  0  0  0  0
    1.0286    0.0677   -0.2336 C   0  0  0  0  0  0  0  0  0  0  0  0
    0.5630   -1.4789    0.1884 C   0  0  0  0  0  0  0  0  0  0  0  0
    1.5081   -1.8329    1.0497 O   0  0  0  0  0  0  0  0  0  0  0  0
   -0.4146   -1.2615   -0.6279 C   0  0  0  0  0  0  0  0  0  0  0  0
   -1.7758   -1.7358   -0.2953 O   0  0  0  0  0  0  0  0  0  0  0  0
   -0.4697    0.2402   -0.0588 C   0  0  0  0  0  0  0  0  0  0  0  0
   -1.2279    1.1034   -0.9426 C   0  0  0  0  0  0  0  0  0  0  0  0
    2.8700    1.8818    2.5036 H   0  0  0  0  0  0  0  0  0  0  0  0
    1.3764   -0.0382   -1.2376 H   0  0  0  0  0  0  0  0  0  0  0  0
   -0.3635   -1.1323   -1.7406 H   0  0  0  0  0  0  0  0  0  0  0  0
   -1.8746   -1.8480    0.6520 H   0  0  0  0  0  0  0  0  0  0  0  0
   -0.8111    0.1204    0.9982 H   0  0  0  0  0  0  0  0  0  0  0  0
   -0.9234    2.1515   -0.7977 H   0  0  0  0  0  0  0  0  0  0  0  0
   -1.1263    0.7355   -1.9932 H   0  0  0  0  0  0  0  0  0  0  0  0
   -2.3407    0.9746   -0.6965 H   0  0  0  0  0  0  0  0  0  0  0  0
  1  2  3  0
  2  3  1  0
  3  4  1  0
  4  5  2  0
  4  6  1  0
  6  7  1  0
  6  8  1  0
  8  9  1  0
  8  3  1  0
  1 10  1  0
  3 11  1  0
  6 12  1  0
  7 13  1  0
  8 14  1  0
  9 15  1  0
  9 16  1  0
  9 17  1  0
M  END
