
     RDKit          3D

 25 24  0  0  0  0  0  0  0  0999 V2000
   -3.5720    1.3567   -0.4393 C   0  0  0  0  0  0  0  0  0  0  0  0
   -2.5496    0.7228   -0.2147 C   0  0  0  0  0  0  0  0  0  0  0  0
   -1.3380   -0.0488    0.0728 C   0  0  0  0  0  0  0  0  0  0  0  0
   -1.6969   -1.5160   -0.0469 C   0  0  0  0  0  0  0  0  0  0  0  0
   -0.2886    0.3647   -0.9055 C   0  0  0  0  0  0  0  0  0  0  0  0
   -0.0432    1.8491   -0.7249 C   0  0  0  0  0  0  0  0  0  0  0  0
    0.9995   -0.3581   -0.7820 C   0  0  0  0  0  0  0  0  0  0  0  0
    1.6643   -0.1937    0.5663 C   0  0  0  0  0  0  0  0  0  0  0  0
    2.9714   -0.9573    0.6205 C   0  0  0  0  0  0  0  0  0  0  0  0
   -4.4498    1.9111   -0.6498 H   0  0  0  0  0  0  0  0  0  0  0  0
   -0.9923    0.1686    1.0961 H   0  0  0  0  0  0  0  0  0  0  0  0
   -2.6475   -1.6766    0.5034 H   0  0  0  0  0  0  0  0  0  0  0  0
   -0.9451   -2.1653    0.4281 H   0  0  0  0  0  0  0  0  0  0  0  0
   -1.8285   -1.8417   -1.0759 H   0  0  0  0  0  0  0  0  0  0  0  0
   -0.6772    0.2273   -1.9235 H   0  0  0  0  0  0  0  0  0  0  0  0
    0.9326    2.1735   -1.1119 H   0  0  0  0  0  0  0  0  0  0  0  0
   -0.9013    2.4032   -1.1627 H   0  0  0  0  0  0  0  0  0  0  0  0
   -0.0631    2.0471    0.3584 H   0  0  0  0  0  0  0  0  0  0  0  0
    1.7081    0.0915   -1.5281 H   0  0  0  0  0  0  0  0  0  0  0  0
    0.9239   -1.4311   -1.0457 H   0  0  0  0  0  0  0  0  0  0  0  0
    1.8147    0.8738    0.8278 H   0  0  0  0  0  0  0  0  0  0  0  0
    1.0208   -0.6169    1.3844 H   0  0  0  0  0  0  0  0  0  0  0  0
    2.9284   -1.8340    1.2926 H   0  0  0  0  0  0  0  0  0  0  0  0
    3.8143   -0.2888    0.9351 H   0  0  0  0  0  0  0  0  0  0  0  0
    3.2150   -1.2612   -0.4194 H   0  0  0  0  0  0  0  0  0  0  0  0
  1  2  3  0
  2  3  1  0
  3  4  1  0
  3  5  1  0
  5  6  1  0
  5  7  1  0
  7  8  1  0
  8  9  1  0
  1 10  1  0
  3 11  1  0
  4 12  1  0
  4 13  1  0
  4 14  1  0
  5 15  1  0
  6 16  1  0
  6 17  1  0
  6 18  1  0
  7 19  1  0
  7 20  1  0
  8 21  1  0
  8 22  1  0
  9 23  1  0
  9 24  1  0
  9 25  1  0
M  END
