
     RDKit          3D

 15 16  0  0  0  0  0  0  0  0999 V2000
    1.7417    0.3417   -2.4424 C   0  0  0  0  0  0  0  0  0  0  0  0
    1.3072    0.3010   -1.3493 C   0  0  0  0  0  0  0  0  0  0  0  0
    0.7768    0.2324    0.0383 C   0  0  0  0  0  0  0  0  0  0  0  0
   -0.0215   -1.0309    0.3239 C   0  0  0  0  0  0  0  0  0  0  0  0
   -0.5441   -0.7185    1.6777 C   0  0  0  0  0  0  0  0  0  0  0  0
   -0.9430    0.5628    1.5394 C   0  0  0  0  0  0  0  0  0  0  0  0
   -0.6034    0.8457    0.1169 C   0  0  0  0  0  0  0  0  0  0  0  0
   -1.0673   -0.4074   -0.5260 C   0  0  0  0  0  0  0  0  0  0  0  0
   -1.8874   -0.7350   -1.3342 O   0  0  0  0  0  0  0  0  0  0  0  0
    2.1568    0.3925   -3.4496 H   0  0  0  0  0  0  0  0  0  0  0  0
    1.5028    0.5340    0.7827 H   0  0  0  0  0  0  0  0  0  0  0  0
    0.3823   -1.9731    0.1060 H   0  0  0  0  0  0  0  0  0  0  0  0
   -0.5927   -1.3532    2.5514 H   0  0  0  0  0  0  0  0  0  0  0  0
   -1.3952    1.2249    2.2690 H   0  0  0  0  0  0  0  0  0  0  0  0
   -0.8128    1.7832   -0.3039 H   0  0  0  0  0  0  0  0  0  0  0  0
  1  2  3  0
  2  3  1  0
  3  4  1  0
  4  5  1  0
  5  6  2  0
  6  7  1  0
  7  8  1  0
  8  9  2  0
  7  3  1  0
  8  4  1  0
  1 10  1  0
  3 11  1  0
  4 12  1  0
  5 13  1  0
  6 14  1  0
  7 15  1  0
M  END
