
     RDKit          3D

 12 11  0  0  0  0  0  0  0  0999 V2000
    3.2721    0.3659    1.2272 C   0  0  0  0  0  0  0  0  0  0  0  0
    2.2441   -0.0679    0.7680 C   0  0  0  0  0  0  0  0  0  0  0  0
    1.0253   -0.6094    0.2171 C   0  0  0  0  0  0  0  0  0  0  0  0
    0.9333   -1.8442   -0.0414 O   0  0  0  0  0  0  0  0  0  0  0  0
   -0.0873    0.1748   -0.0538 O   0  0  0  0  0  0  0  0  0  0  0  0
   -1.2833   -0.2944   -0.5832 C   0  0  0  0  0  0  0  0  0  0  0  0
   -2.2534    0.8140   -0.7423 C   0  0  0  0  0  0  0  0  0  0  0  0
   -1.9415    1.9276   -0.4241 O   0  0  0  0  0  0  0  0  0  0  0  0
    4.1923    0.7351    1.6422 H   0  0  0  0  0  0  0  0  0  0  0  0
   -1.0941   -0.7557   -1.5851 H   0  0  0  0  0  0  0  0  0  0  0  0
   -1.7573   -1.1010    0.0195 H   0  0  0  0  0  0  0  0  0  0  0  0
   -3.2501    0.6553   -1.1414 H   0  0  0  0  0  0  0  0  0  0  0  0
  1  2  3  0
  2  3  1  0
  3  4  2  0
  3  5  1  0
  5  6  1  0
  6  7  1  0
  7  8  2  0
  1  9  1  0
  6 10  1  0
  6 11  1  0
  7 12  1  0
M  END
