
     RDKit          3D

 14 15  0  0  0  0  0  0  0  0999 V2000
    2.4303   -0.6694    0.6560 C   0  0  0  0  0  0  0  0  0  0  0  0
    1.3405   -0.5599   -0.0844 C   0  0  0  0  0  0  0  0  0  0  0  0
   -0.0169   -0.4049   -1.0328 C   0  0  0  0  0  0  0  0  0  0  0  0
   -0.4700    0.9205   -0.2419 C   0  0  0  0  0  0  0  0  0  0  0  0
   -1.1298    1.7881   -1.0663 O   0  0  0  0  0  0  0  0  0  0  0  0
   -1.2522   -0.0009    0.6416 C   0  0  0  0  0  0  0  0  0  0  0  0
   -2.1641   -0.9399    0.1073 O   0  0  0  0  0  0  0  0  0  0  0  0
   -0.8914   -1.2372   -0.2548 C   0  0  0  0  0  0  0  0  0  0  0  0
    3.5012   -0.7674    1.3779 H   0  0  0  0  0  0  0  0  0  0  0  0
    0.5127   -0.1009   -1.7922 H   0  0  0  0  0  0  0  0  0  0  0  0
    0.3079    1.4366    0.4043 H   0  0  0  0  0  0  0  0  0  0  0  0
   -0.8287    2.7398   -0.8187 H   0  0  0  0  0  0  0  0  0  0  0  0
   -0.9588   -0.0974    1.7394 H   0  0  0  0  0  0  0  0  0  0  0  0
   -0.3808   -2.1071    0.3648 H   0  0  0  0  0  0  0  0  0  0  0  0
  1  2  3  0
  2  3  1  0
  3  4  1  0
  4  5  1  0
  4  6  1  0
  6  7  1  0
  7  8  1  0
  8  3  1  0
  8  6  1  0
  1  9  1  0
  3 10  1  0
  4 11  1  0
  5 12  1  0
  6 13  1  0
  8 14  1  0
M  END
