
     RDKit          3D

 21 21  0  0  0  0  0  0  0  0999 V2000
    2.5864    0.7489    1.4351 C   0  0  0  0  0  0  0  0  0  0  0  0
    1.8570    0.4962    0.3779 C   0  0  0  0  0  0  0  0  0  0  0  0
    0.8649    0.1341   -1.0342 C   0  0  0  0  0  0  0  0  0  0  0  0
    1.5968   -0.8339   -1.7271 C   0  0  0  0  0  0  0  0  0  0  0  0
    0.0665    1.2894   -0.9616 C   0  0  0  0  0  0  0  0  0  0  0  0
   -0.5274   -0.0430   -0.4615 C   0  0  0  0  0  0  0  0  0  0  0  0
   -1.5165   -0.5037   -1.3142 O   0  0  0  0  0  0  0  0  0  0  0  0
   -0.7463   -0.1712    1.0075 C   0  0  0  0  0  0  0  0  0  0  0  0
   -2.2036   -0.3498    1.4201 C   0  0  0  0  0  0  0  0  0  0  0  0
    3.1109    0.9405    2.1791 H   0  0  0  0  0  0  0  0  0  0  0  0
    0.9868   -1.6439   -2.2489 H   0  0  0  0  0  0  0  0  0  0  0  0
    2.2111   -0.3428   -2.5534 H   0  0  0  0  0  0  0  0  0  0  0  0
    2.3719   -1.4353   -1.1116 H   0  0  0  0  0  0  0  0  0  0  0  0
    0.2111    1.9576    0.0212 H   0  0  0  0  0  0  0  0  0  0  0  0
   -0.3503    1.8891   -1.6964 H   0  0  0  0  0  0  0  0  0  0  0  0
   -2.3411   -0.7701   -0.8992 H   0  0  0  0  0  0  0  0  0  0  0  0
   -0.1121   -0.9778    1.4126 H   0  0  0  0  0  0  0  0  0  0  0  0
   -0.3833    0.7900    1.4998 H   0  0  0  0  0  0  0  0  0  0  0  0
   -2.4165    0.0486    2.4550 H   0  0  0  0  0  0  0  0  0  0  0  0
   -2.3790   -1.4296    1.4700 H   0  0  0  0  0  0  0  0  0  0  0  0
   -2.8872    0.2066    0.7299 H   0  0  0  0  0  0  0  0  0  0  0  0
  1  2  3  0
  2  3  1  0
  3  4  1  0
  3  5  1  0
  5  6  1  0
  6  7  1  0
  6  8  1  0
  8  9  1  0
  6  3  1  0
  1 10  1  0
  4 11  1  0
  4 12  1  0
  4 13  1  0
  5 14  1  0
  5 15  1  0
  7 16  1  0
  8 17  1  0
  8 18  1  0
  9 19  1  0
  9 20  1  0
  9 21  1  0
M  END
