
     RDKit          3D

 17 18  0  0  0  0  0  0  0  0999 V2000
    2.4887   -0.8405   -1.4883 C   0  0  0  0  0  0  0  0  0  0  0  0
    1.3814   -0.9044   -1.0243 C   0  0  0  0  0  0  0  0  0  0  0  0
    0.0714   -0.9792   -0.4521 C   0  0  0  0  0  0  0  0  0  0  0  0
   -0.8752    0.0999   -0.9863 C   0  0  0  0  0  0  0  0  0  0  0  0
   -1.4952    0.6180    0.2864 C   0  0  0  0  0  0  0  0  0  0  0  0
   -0.5453    1.5211    0.9983 C   0  0  0  0  0  0  0  0  0  0  0  0
    0.4619    0.7126    1.3274 C   0  0  0  0  0  0  0  0  0  0  0  0
    0.0090   -0.6829    1.0141 C   0  0  0  0  0  0  0  0  0  0  0  0
   -1.3919   -0.5031    1.1496 O   0  0  0  0  0  0  0  0  0  0  0  0
    3.4647   -0.7674   -1.8892 H   0  0  0  0  0  0  0  0  0  0  0  0
   -0.3847   -1.9712   -0.6137 H   0  0  0  0  0  0  0  0  0  0  0  0
   -0.2678    0.8809   -1.4986 H   0  0  0  0  0  0  0  0  0  0  0  0
   -1.6082   -0.3700   -1.6376 H   0  0  0  0  0  0  0  0  0  0  0  0
   -2.4953    0.9949    0.1948 H   0  0  0  0  0  0  0  0  0  0  0  0
   -0.6312    2.5806    1.2092 H   0  0  0  0  0  0  0  0  0  0  0  0
    1.4100    1.0442    1.7398 H   0  0  0  0  0  0  0  0  0  0  0  0
    0.4077   -1.4336    1.6704 H   0  0  0  0  0  0  0  0  0  0  0  0
  1  2  3  0
  2  3  1  0
  3  4  1  0
  4  5  1  0
  5  6  1  0
  6  7  2  0
  7  8  1  0
  8  9  1  0
  8  3  1  0
  9  5  1  0
  1 10  1  0
  3 11  1  0
  4 12  1  0
  4 13  1  0
  5 14  1  0
  6 15  1  0
  7 16  1  0
  8 17  1  0
M  END
