
     RDKit          3D

 13 13  0  0  0  0  0  0  0  0999 V2000
    2.9793    1.0315    0.2016 C   0  0  0  0  0  0  0  0  0  0  0  0
    1.8208    0.7034    0.1356 C   0  0  0  0  0  0  0  0  0  0  0  0
    0.4322    0.2862    0.0454 C   0  0  0  0  0  0  0  0  0  0  0  0
   -0.6192    1.0586    0.1269 C   0  0  0  0  0  0  0  0  0  0  0  0
   -1.8651    0.3243   -0.0035 C   0  0  0  0  0  0  0  0  0  0  0  0
   -3.0584    0.7259    0.0236 O   0  0  0  0  0  0  0  0  0  0  0  0
   -1.5046   -1.0679   -0.1867 C   0  0  0  0  0  0  0  0  0  0  0  0
   -2.2355   -2.0769   -0.3429 O   0  0  0  0  0  0  0  0  0  0  0  0
   -0.0233   -1.1095   -0.1575 C   0  0  0  0  0  0  0  0  0  0  0  0
    4.0122    1.3069    0.2619 H   0  0  0  0  0  0  0  0  0  0  0  0
   -0.5605    2.1267    0.2754 H   0  0  0  0  0  0  0  0  0  0  0  0
    0.2481   -1.7594    0.7190 H   0  0  0  0  0  0  0  0  0  0  0  0
    0.3740   -1.5500   -1.0986 H   0  0  0  0  0  0  0  0  0  0  0  0
  1  2  3  0
  2  3  1  0
  3  4  2  0
  4  5  1  0
  5  6  2  0
  5  7  1  0
  7  8  2  0
  7  9  1  0
  9  3  1  0
  1 10  1  0
  4 11  1  0
  9 12  1  0
  9 13  1  0
M  END
