
     RDKit          3D

 19 19  0  0  0  0  0  0  0  0999 V2000
   -4.2828    0.8286   -0.1067 C   0  0  0  0  0  0  0  0  0  0  0  0
   -3.1190    1.0227   -0.3593 C   0  0  0  0  0  0  0  0  0  0  0  0
   -1.6952    1.2839   -0.6581 C   0  0  0  0  0  0  0  0  0  0  0  0
   -0.8321    0.3346    0.1095 C   0  0  0  0  0  0  0  0  0  0  0  0
   -0.9099   -1.1193   -0.0372 C   0  0  0  0  0  0  0  0  0  0  0  0
    0.1632   -0.4285   -0.7658 C   0  0  0  0  0  0  0  0  0  0  0  0
    1.5545   -0.4932   -0.2921 C   0  0  0  0  0  0  0  0  0  0  0  0
    2.6923   -0.5334    0.1128 C   0  0  0  0  0  0  0  0  0  0  0  0
    4.0930   -0.5682    0.5892 C   0  0  0  0  0  0  0  0  0  0  0  0
   -5.3086    0.6535    0.1348 H   0  0  0  0  0  0  0  0  0  0  0  0
   -1.4123    2.3291   -0.4241 H   0  0  0  0  0  0  0  0  0  0  0  0
   -1.5914    1.1612   -1.7586 H   0  0  0  0  0  0  0  0  0  0  0  0
   -0.3871    0.7660    1.0336 H   0  0  0  0  0  0  0  0  0  0  0  0
   -1.7730   -1.5303   -0.6315 H   0  0  0  0  0  0  0  0  0  0  0  0
   -0.6281   -1.7687    0.7991 H   0  0  0  0  0  0  0  0  0  0  0  0
    0.0753   -0.3490   -1.8576 H   0  0  0  0  0  0  0  0  0  0  0  0
    4.4753    0.4823    0.7411 H   0  0  0  0  0  0  0  0  0  0  0  0
    4.7303   -1.0271   -0.1620 H   0  0  0  0  0  0  0  0  0  0  0  0
    4.1558   -1.0443    1.5924 H   0  0  0  0  0  0  0  0  0  0  0  0
  1  2  3  0
  2  3  1  0
  3  4  1  0
  4  5  1  0
  5  6  1  0
  6  7  1  0
  7  8  3  0
  8  9  1  0
  6  4  1  0
  1 10  1  0
  3 11  1  0
  3 12  1  0
  4 13  1  0
  5 14  1  0
  5 15  1  0
  6 16  1  0
  9 17  1  0
  9 18  1  0
  9 19  1  0
M  END
