
     RDKit          3D

 23 23  0  0  0  0  0  0  0  0999 V2000
   -1.0749    2.6883   -0.6703 C   0  0  0  0  0  0  0  0  0  0  0  0
   -0.8099    1.5099   -0.6372 C   0  0  0  0  0  0  0  0  0  0  0  0
   -0.5001    0.0689   -0.5752 C   0  0  0  0  0  0  0  0  0  0  0  0
   -0.2853   -0.5208   -1.9114 C   0  0  0  0  0  0  0  0  0  0  0  0
   -1.5219   -0.6048    0.3179 C   0  0  0  0  0  0  0  0  0  0  0  0
   -0.3358   -1.3850    0.8741 C   0  0  0  0  0  0  0  0  0  0  0  0
    0.5094   -0.1868    0.4882 C   0  0  0  0  0  0  0  0  0  0  0  0
    0.5974    0.9029    1.5020 C   0  0  0  0  0  0  0  0  0  0  0  0
    1.8655   -0.6534    0.0258 C   0  0  0  0  0  0  0  0  0  0  0  0
   -1.3028    3.7266   -0.7151 H   0  0  0  0  0  0  0  0  0  0  0  0
   -0.9608   -0.0259   -2.6391 H   0  0  0  0  0  0  0  0  0  0  0  0
   -0.5747   -1.5908   -1.8826 H   0  0  0  0  0  0  0  0  0  0  0  0
    0.7443   -0.4175   -2.2979 H   0  0  0  0  0  0  0  0  0  0  0  0
   -2.2819   -1.1957   -0.1908 H   0  0  0  0  0  0  0  0  0  0  0  0
   -1.9925    0.0797    1.0445 H   0  0  0  0  0  0  0  0  0  0  0  0
   -0.1104   -2.3160    0.3681 H   0  0  0  0  0  0  0  0  0  0  0  0
   -0.4518   -1.4291    1.9781 H   0  0  0  0  0  0  0  0  0  0  0  0
    0.5879    1.8805    0.9821 H   0  0  0  0  0  0  0  0  0  0  0  0
   -0.2702    0.9212    2.2079 H   0  0  0  0  0  0  0  0  0  0  0  0
    1.5587    0.8619    2.0764 H   0  0  0  0  0  0  0  0  0  0  0  0
    2.4210    0.2232   -0.3461 H   0  0  0  0  0  0  0  0  0  0  0  0
    2.4529   -1.1337    0.8022 H   0  0  0  0  0  0  0  0  0  0  0  0
    1.7361   -1.4037   -0.8018 H   0  0  0  0  0  0  0  0  0  0  0  0
  1  2  3  0
  2  3  1  0
  3  4  1  0
  3  5  1  0
  5  6  1  0
  6  7  1  0
  7  8  1  0
  7  9  1  0
  7  3  1  0
  1 10  1  0
  4 11  1  0
  4 12  1  0
  4 13  1  0
  5 14  1  0
  5 15  1  0
  6 16  1  0
  6 17  1  0
  8 18  1  0
  8 19  1  0
  8 20  1  0
  9 21  1  0
  9 22  1  0
  9 23  1  0
M  END
