
     RDKit          3D

 20 19  0  0  0  0  0  0  0  0999 V2000
    2.9649    2.0441   -1.1526 C   0  0  0  0  0  0  0  0  0  0  0  0
    1.8591    1.7534   -0.7161 C   0  0  0  0  0  0  0  0  0  0  0  0
    0.5186    1.4001   -0.2121 C   0  0  0  0  0  0  0  0  0  0  0  0
    0.4962    0.0018    0.2593 C   0  0  0  0  0  0  0  0  0  0  0  0
    0.8321   -0.8833   -0.8046 O   0  0  0  0  0  0  0  0  0  0  0  0
   -0.7902   -0.3714    0.8896 C   0  0  0  0  0  0  0  0  0  0  0  0
   -0.7910   -1.8012    1.4021 C   0  0  0  0  0  0  0  0  0  0  0  0
   -1.9498   -0.2950   -0.0911 C   0  0  0  0  0  0  0  0  0  0  0  0
    4.0125    2.3033   -1.5781 H   0  0  0  0  0  0  0  0  0  0  0  0
   -0.2208    1.5751   -1.0238 H   0  0  0  0  0  0  0  0  0  0  0  0
    0.2716    2.0801    0.6459 H   0  0  0  0  0  0  0  0  0  0  0  0
    1.3254   -0.1909    1.0024 H   0  0  0  0  0  0  0  0  0  0  0  0
    1.7925   -0.7678   -1.0236 H   0  0  0  0  0  0  0  0  0  0  0  0
   -1.0150    0.3105    1.7296 H   0  0  0  0  0  0  0  0  0  0  0  0
   -1.6789   -2.3524    0.9561 H   0  0  0  0  0  0  0  0  0  0  0  0
   -0.9336   -1.7684    2.4893 H   0  0  0  0  0  0  0  0  0  0  0  0
    0.1513   -2.2761    1.1452 H   0  0  0  0  0  0  0  0  0  0  0  0
   -1.6929   -0.4032   -1.1292 H   0  0  0  0  0  0  0  0  0  0  0  0
   -2.4480    0.7052    0.0628 H   0  0  0  0  0  0  0  0  0  0  0  0
   -2.7040   -1.0641    0.2313 H   0  0  0  0  0  0  0  0  0  0  0  0
  1  2  3  0
  2  3  1  0
  3  4  1  0
  4  5  1  0
  4  6  1  0
  6  7  1  0
  6  8  1  0
  1  9  1  0
  3 10  1  0
  3 11  1  0
  4 12  1  0
  5 13  1  0
  6 14  1  0
  7 15  1  0
  7 16  1  0
  7 17  1  0
  8 18  1  0
  8 19  1  0
  8 20  1  0
M  END
