
     RDKit          3D

 19 19  0  0  0  0  0  0  0  0999 V2000
    2.2204    1.8997   -0.4998 C   0  0  0  0  0  0  0  0  0  0  0  0
    1.9848    0.7254   -0.4443 C   0  0  0  0  0  0  0  0  0  0  0  0
    1.7270   -0.6803   -0.3856 C   0  0  0  0  0  0  0  0  0  0  0  0
    0.3029   -1.0462   -0.3308 C   0  0  0  0  0  0  0  0  0  0  0  0
   -0.5489   -0.5840   -1.5204 C   0  0  0  0  0  0  0  0  0  0  0  0
   -0.8585   -0.2463   -0.0451 C   0  0  0  0  0  0  0  0  0  0  0  0
   -0.8348    1.2341    0.2178 C   0  0  0  0  0  0  0  0  0  0  0  0
   -2.0546   -0.9478    0.5066 C   0  0  0  0  0  0  0  0  0  0  0  0
   -2.1775   -2.1466    0.3528 O   0  0  0  0  0  0  0  0  0  0  0  0
    2.4356    2.9401   -0.5319 H   0  0  0  0  0  0  0  0  0  0  0  0
    2.2429   -1.1805    0.4887 H   0  0  0  0  0  0  0  0  0  0  0  0
    2.1797   -1.2168   -1.2745 H   0  0  0  0  0  0  0  0  0  0  0  0
    0.1913   -2.1656   -0.1658 H   0  0  0  0  0  0  0  0  0  0  0  0
   -1.2164   -1.3051   -2.0139 H   0  0  0  0  0  0  0  0  0  0  0  0
   -0.0995    0.2020   -2.1486 H   0  0  0  0  0  0  0  0  0  0  0  0
   -0.6591    1.8405   -0.6979 H   0  0  0  0  0  0  0  0  0  0  0  0
   -1.8582    1.5771    0.5570 H   0  0  0  0  0  0  0  0  0  0  0  0
   -0.1750    1.5042    1.0662 H   0  0  0  0  0  0  0  0  0  0  0  0
   -2.8021   -0.4040    1.0349 H   0  0  0  0  0  0  0  0  0  0  0  0
  1  2  3  0
  2  3  1  0
  3  4  1  0
  4  5  1  0
  5  6  1  0
  6  7  1  0
  6  8  1  0
  8  9  2  0
  6  4  1  0
  1 10  1  0
  3 11  1  0
  3 12  1  0
  4 13  1  0
  5 14  1  0
  5 15  1  0
  7 16  1  0
  7 17  1  0
  7 18  1  0
  8 19  1  0
M  END
