
     RDKit          3D

 21 21  0  0  0  0  0  0  0  0999 V2000
    2.4742   -0.1852   -2.1423 C   0  0  0  0  0  0  0  0  0  0  0  0
    2.2779   -0.0051   -0.9170 C   0  0  0  0  0  0  0  0  0  0  0  0
    2.0394    0.1802    0.4820 C   0  0  0  0  0  0  0  0  0  0  0  0
    0.7015    0.7872    0.7257 C   0  0  0  0  0  0  0  0  0  0  0  0
   -0.4721   -0.0008    0.2668 C   0  0  0  0  0  0  0  0  0  0  0  0
   -0.5954   -0.3316   -1.1851 C   0  0  0  0  0  0  0  0  0  0  0  0
   -1.8123    0.4816    0.8149 C   0  0  0  0  0  0  0  0  0  0  0  0
   -1.8226   -0.7735    1.6450 C   0  0  0  0  0  0  0  0  0  0  0  0
   -0.6858   -1.1915    1.0065 O   0  0  0  0  0  0  0  0  0  0  0  0
    2.6541   -0.3255   -3.2025 H   0  0  0  0  0  0  0  0  0  0  0  0
    2.8602    0.8202    0.9413 H   0  0  0  0  0  0  0  0  0  0  0  0
    2.0749   -0.8229    0.9998 H   0  0  0  0  0  0  0  0  0  0  0  0
    0.5994    1.8416    0.3746 H   0  0  0  0  0  0  0  0  0  0  0  0
    0.5998    0.8503    1.8522 H   0  0  0  0  0  0  0  0  0  0  0  0
   -0.3222    0.4872   -1.8722 H   0  0  0  0  0  0  0  0  0  0  0  0
   -1.6901   -0.5328   -1.3857 H   0  0  0  0  0  0  0  0  0  0  0  0
   -0.0910   -1.3041   -1.4419 H   0  0  0  0  0  0  0  0  0  0  0  0
   -2.6276    0.5553    0.0747 H   0  0  0  0  0  0  0  0  0  0  0  0
   -1.7111    1.4167    1.4301 H   0  0  0  0  0  0  0  0  0  0  0  0
   -2.7489   -1.3572    1.4892 H   0  0  0  0  0  0  0  0  0  0  0  0
   -1.7023   -0.5901    2.7445 H   0  0  0  0  0  0  0  0  0  0  0  0
  1  2  3  0
  2  3  1  0
  3  4  1  0
  4  5  1  0
  5  6  1  0
  5  7  1  0
  7  8  1  0
  8  9  1  0
  9  5  1  0
  1 10  1  0
  3 11  1  0
  3 12  1  0
  4 13  1  0
  4 14  1  0
  6 15  1  0
  6 16  1  0
  6 17  1  0
  7 18  1  0
  7 19  1  0
  8 20  1  0
  8 21  1  0
M  END
