
     RDKit          3D

 13 14  0  0  0  0  0  0  0  0999 V2000
    2.0005   -1.2355    0.5799 C   0  0  0  0  0  0  0  0  0  0  0  0
    1.2076   -0.7208    0.1434 C   0  0  0  0  0  0  0  0  0  0  0  0
    0.0943    0.0182   -0.4499 C   0  0  0  0  0  0  0  0  0  0  0  0
    0.1344    0.5424   -1.7900 C   0  0  0  0  0  0  0  0  0  0  0  0
    0.8272    0.5442   -2.8157 O   0  0  0  0  0  0  0  0  0  0  0  0
   -1.1594    1.2642   -1.6320 O   0  0  0  0  0  0  0  0  0  0  0  0
   -0.7605    1.1091   -0.2442 C   0  0  0  0  0  0  0  0  0  0  0  0
   -1.1207   -0.0866    0.4659 C   0  0  0  0  0  0  0  0  0  0  0  0
   -0.8069    0.0434    1.8583 O   0  0  0  0  0  0  0  0  0  0  0  0
    2.9571   -1.8318    1.1080 H   0  0  0  0  0  0  0  0  0  0  0  0
   -0.5426    2.0699    0.2905 H   0  0  0  0  0  0  0  0  0  0  0  0
   -1.8851   -0.8237    0.2664 H   0  0  0  0  0  0  0  0  0  0  0  0
   -0.9458   -0.8930    2.2195 H   0  0  0  0  0  0  0  0  0  0  0  0
  1  2  3  0
  2  3  1  0
  3  4  1  0
  4  5  2  0
  4  6  1  0
  6  7  1  0
  7  8  1  0
  8  9  1  0
  7  3  1  0
  8  3  1  0
  1 10  1  0
  7 11  1  0
  8 12  1  0
  9 13  1  0
M  END
