
     RDKit          3D

 17 18  0  0  0  0  0  0  0  0999 V2000
    3.2931    1.1184   -0.5600 C   0  0  0  0  0  0  0  0  0  0  0  0
    2.3845    0.3034   -0.5077 C   0  0  0  0  0  0  0  0  0  0  0  0
    1.3082   -0.6859   -0.4345 C   0  0  0  0  0  0  0  0  0  0  0  0
    0.1943   -0.1216    0.4366 C   0  0  0  0  0  0  0  0  0  0  0  0
   -0.2492    1.0319   -0.1416 O   0  0  0  0  0  0  0  0  0  0  0  0
   -1.5926    0.9579   -0.4056 C   0  0  0  0  0  0  0  0  0  0  0  0
   -2.1328   -0.2668    0.2691 C   0  0  0  0  0  0  0  0  0  0  0  0
   -1.7625   -1.4531   -0.3765 O   0  0  0  0  0  0  0  0  0  0  0  0
   -0.9203   -1.0768    0.6391 C   0  0  0  0  0  0  0  0  0  0  0  0
    4.0739    1.8129   -0.5871 H   0  0  0  0  0  0  0  0  0  0  0  0
    0.9079   -0.9379   -1.4465 H   0  0  0  0  0  0  0  0  0  0  0  0
    1.7472   -1.5954    0.0306 H   0  0  0  0  0  0  0  0  0  0  0  0
    0.6663    0.0987    1.4229 H   0  0  0  0  0  0  0  0  0  0  0  0
   -1.7457    0.8156   -1.5095 H   0  0  0  0  0  0  0  0  0  0  0  0
   -2.1522    1.8758   -0.1446 H   0  0  0  0  0  0  0  0  0  0  0  0
   -3.0186   -0.2355    0.8955 H   0  0  0  0  0  0  0  0  0  0  0  0
   -1.0016   -1.6416    1.5885 H   0  0  0  0  0  0  0  0  0  0  0  0
  1  2  3  0
  2  3  1  0
  3  4  1  0
  4  5  1  0
  5  6  1  0
  6  7  1  0
  7  8  1  0
  8  9  1  0
  9  4  1  0
  9  7  1  0
  1 10  1  0
  3 11  1  0
  3 12  1  0
  4 13  1  0
  6 14  1  0
  6 15  1  0
  7 16  1  0
  9 17  1  0
M  END
