
     RDKit          3D

 17 18  0  0  0  0  0  0  0  0999 V2000
    2.2988    1.6134   -0.6750 C   0  0  0  0  0  0  0  0  0  0  0  0
    1.3133    0.8977   -0.6791 C   0  0  0  0  0  0  0  0  0  0  0  0
    0.1373    0.0142   -0.6776 C   0  0  0  0  0  0  0  0  0  0  0  0
   -0.4001   -0.2214   -1.9095 O   0  0  0  0  0  0  0  0  0  0  0  0
    0.2528   -1.1481    0.2591 C   0  0  0  0  0  0  0  0  0  0  0  0
    0.1992   -0.1254    1.3648 C   0  0  0  0  0  0  0  0  0  0  0  0
   -0.8675    0.3313    0.4074 C   0  0  0  0  0  0  0  0  0  0  0  0
   -1.6215    1.3198    0.4913 O   0  0  0  0  0  0  0  0  0  0  0  0
   -1.2510   -1.1286    0.3121 C   0  0  0  0  0  0  0  0  0  0  0  0
    3.1600    2.2317   -0.6653 H   0  0  0  0  0  0  0  0  0  0  0  0
    0.1880   -0.7360   -2.4888 H   0  0  0  0  0  0  0  0  0  0  0  0
    0.8516   -1.9433    0.1955 H   0  0  0  0  0  0  0  0  0  0  0  0
   -0.2373   -0.4603    2.3112 H   0  0  0  0  0  0  0  0  0  0  0  0
    1.1144    0.4653    1.3977 H   0  0  0  0  0  0  0  0  0  0  0  0
   -1.7856    1.8811   -0.2933 H   0  0  0  0  0  0  0  0  0  0  0  0
   -1.7336   -1.4373   -0.6106 H   0  0  0  0  0  0  0  0  0  0  0  0
   -1.6190   -1.5541    1.2601 H   0  0  0  0  0  0  0  0  0  0  0  0
  1  2  3  0
  2  3  1  0
  3  4  1  0
  3  5  1  0
  5  6  1  0
  6  7  1  0
  7  8  1  0
  7  9  1  0
  7  3  1  0
  9  5  1  0
  1 10  1  0
  4 11  1  0
  5 12  1  0
  6 13  1  0
  6 14  1  0
  8 15  1  0
  9 16  1  0
  9 17  1  0
M  END
