
     RDKit          3D

 19 20  0  0  0  0  0  0  0  0999 V2000
    3.2669    0.3267    1.1691 C   0  0  0  0  0  0  0  0  0  0  0  0
    2.3879    0.2233    0.3424 C   0  0  0  0  0  0  0  0  0  0  0  0
    1.3375    0.0997   -0.6767 C   0  0  0  0  0  0  0  0  0  0  0  0
    0.2242   -0.6976   -0.0556 C   0  0  0  0  0  0  0  0  0  0  0  0
   -0.9351   -0.8831   -1.0553 C   0  0  0  0  0  0  0  0  0  0  0  0
   -2.0212   -0.2877   -0.1483 C   0  0  0  0  0  0  0  0  0  0  0  0
   -1.4262    1.0417    0.1933 C   0  0  0  0  0  0  0  0  0  0  0  0
   -0.5298    0.1118    0.9694 C   0  0  0  0  0  0  0  0  0  0  0  0
   -1.6767   -0.6972    1.1456 O   0  0  0  0  0  0  0  0  0  0  0  0
    4.0324    0.4150    1.9084 H   0  0  0  0  0  0  0  0  0  0  0  0
    1.7055   -0.3255   -1.6129 H   0  0  0  0  0  0  0  0  0  0  0  0
    1.0183    1.1486   -0.9021 H   0  0  0  0  0  0  0  0  0  0  0  0
    0.6050   -1.6489    0.3105 H   0  0  0  0  0  0  0  0  0  0  0  0
   -1.1142   -1.9364   -1.2680 H   0  0  0  0  0  0  0  0  0  0  0  0
   -0.8259   -0.2290   -1.9210 H   0  0  0  0  0  0  0  0  0  0  0  0
   -3.0290   -0.3684   -0.4659 H   0  0  0  0  0  0  0  0  0  0  0  0
   -2.0323    1.6597    0.8739 H   0  0  0  0  0  0  0  0  0  0  0  0
   -0.9556    1.5872   -0.6467 H   0  0  0  0  0  0  0  0  0  0  0  0
   -0.0317    0.4601    1.8399 H   0  0  0  0  0  0  0  0  0  0  0  0
  1  2  3  0
  2  3  1  0
  3  4  1  0
  4  5  1  0
  5  6  1  0
  6  7  1  0
  7  8  1  0
  8  9  1  0
  8  4  1  0
  9  6  1  0
  1 10  1  0
  3 11  1  0
  3 12  1  0
  4 13  1  0
  5 14  1  0
  5 15  1  0
  6 16  1  0
  7 17  1  0
  7 18  1  0
  8 19  1  0
M  END
