
     RDKit          3D

 15 15  0  0  0  0  0  0  0  0999 V2000
    1.8001    2.1854   -1.5295 C   0  0  0  0  0  0  0  0  0  0  0  0
    1.1084    1.3834   -0.7904 C   0  0  0  0  0  0  0  0  0  0  0  0
    0.3602    0.5234   -0.0237 C   0  0  0  0  0  0  0  0  0  0  0  0
    0.2097   -0.9261   -0.6255 C   0  0  0  0  0  0  0  0  0  0  0  0
   -0.3990   -1.5289    0.6208 C   0  0  0  0  0  0  0  0  0  0  0  0
   -1.4353   -0.5112    1.0059 C   0  0  0  0  0  0  0  0  0  0  0  0
   -2.4319   -0.5543    1.7321 O   0  0  0  0  0  0  0  0  0  0  0  0
   -1.0253    0.7625    0.2782 C   0  0  0  0  0  0  0  0  0  0  0  0
   -1.8242    1.6710    0.0866 O   0  0  0  0  0  0  0  0  0  0  0  0
    2.3475    2.8356   -2.1391 H   0  0  0  0  0  0  0  0  0  0  0  0
    0.8909    0.2903    0.9920 H   0  0  0  0  0  0  0  0  0  0  0  0
    1.2148   -1.3210   -0.8686 H   0  0  0  0  0  0  0  0  0  0  0  0
   -0.4509   -0.8356   -1.4927 H   0  0  0  0  0  0  0  0  0  0  0  0
    0.4046   -1.4383    1.4221 H   0  0  0  0  0  0  0  0  0  0  0  0
   -0.7697   -2.5363    0.5299 H   0  0  0  0  0  0  0  0  0  0  0  0
  1  2  3  0
  2  3  1  0
  3  4  1  0
  4  5  1  0
  5  6  1  0
  6  7  2  0
  6  8  1  0
  8  9  2  0
  8  3  1  0
  1 10  1  0
  3 11  1  0
  4 12  1  0
  4 13  1  0
  5 14  1  0
  5 15  1  0
M  END
