
     RDKit          3D

 19 19  0  0  0  0  0  0  0  0999 V2000
   -0.3894    2.2398    1.7644 C   0  0  0  0  0  0  0  0  0  0  0  0
   -0.4154    1.1012    1.4321 C   0  0  0  0  0  0  0  0  0  0  0  0
   -0.4426   -0.3086    0.9944 C   0  0  0  0  0  0  0  0  0  0  0  0
    0.8866   -0.6979    0.8035 O   0  0  0  0  0  0  0  0  0  0  0  0
    1.2401    0.1040   -0.3065 C   0  0  0  0  0  0  0  0  0  0  0  0
    2.5016   -0.4442   -0.8961 C   0  0  0  0  0  0  0  0  0  0  0  0
    0.0427   -0.1458   -1.1861 C   0  0  0  0  0  0  0  0  0  0  0  0
   -0.9878   -0.3986   -0.3845 C   0  0  0  0  0  0  0  0  0  0  0  0
   -2.4038   -0.7113   -0.7149 C   0  0  0  0  0  0  0  0  0  0  0  0
   -0.3535    3.2793    2.0530 H   0  0  0  0  0  0  0  0  0  0  0  0
   -0.9802   -0.9301    1.7159 H   0  0  0  0  0  0  0  0  0  0  0  0
    1.3055    1.1629   -0.0264 H   0  0  0  0  0  0  0  0  0  0  0  0
    2.5388   -0.2692   -1.9943 H   0  0  0  0  0  0  0  0  0  0  0  0
    2.5351   -1.5326   -0.6882 H   0  0  0  0  0  0  0  0  0  0  0  0
    3.3539    0.0862   -0.3934 H   0  0  0  0  0  0  0  0  0  0  0  0
   -0.0228   -0.1347   -2.2647 H   0  0  0  0  0  0  0  0  0  0  0  0
   -2.5037   -1.2383   -1.6825 H   0  0  0  0  0  0  0  0  0  0  0  0
   -3.0266    0.2011   -0.7924 H   0  0  0  0  0  0  0  0  0  0  0  0
   -2.8785   -1.3630    0.0436 H   0  0  0  0  0  0  0  0  0  0  0  0
  1  2  3  0
  2  3  1  0
  3  4  1  0
  4  5  1  0
  5  6  1  0
  5  7  1  0
  7  8  2  0
  8  9  1  0
  8  3  1  0
  1 10  1  0
  3 11  1  0
  5 12  1  0
  6 13  1  0
  6 14  1  0
  6 15  1  0
  7 16  1  0
  9 17  1  0
  9 18  1  0
  9 19  1  0
M  END
