
     RDKit          3D

 16 16  0  0  0  0  0  0  0  0999 V2000
    3.5142    1.0382    0.1405 C   0  0  0  0  0  0  0  0  0  0  0  0
    2.4390    0.4884    0.1543 C   0  0  0  0  0  0  0  0  0  0  0  0
    1.1356   -0.2011    0.1867 C   0  0  0  0  0  0  0  0  0  0  0  0
    0.6089   -0.3806   -1.1754 O   0  0  0  0  0  0  0  0  0  0  0  0
   -0.0086    0.5648   -0.2537 C   0  0  0  0  0  0  0  0  0  0  0  0
   -1.4374    0.1983    0.0412 C   0  0  0  0  0  0  0  0  0  0  0  0
   -1.5495   -1.1412    0.7295 C   0  0  0  0  0  0  0  0  0  0  0  0
   -2.1315    0.2073   -1.1546 O   0  0  0  0  0  0  0  0  0  0  0  0
    4.4613    1.5282    0.1116 H   0  0  0  0  0  0  0  0  0  0  0  0
    1.0752   -1.0959    0.8159 H   0  0  0  0  0  0  0  0  0  0  0  0
    0.1390    1.6051   -0.5832 H   0  0  0  0  0  0  0  0  0  0  0  0
   -1.8838    0.9540    0.7117 H   0  0  0  0  0  0  0  0  0  0  0  0
   -0.7724   -1.8457    0.3846 H   0  0  0  0  0  0  0  0  0  0  0  0
   -1.4274   -1.0100    1.8047 H   0  0  0  0  0  0  0  0  0  0  0  0
   -2.5464   -1.5619    0.5187 H   0  0  0  0  0  0  0  0  0  0  0  0
   -1.6163    0.6521   -1.8724 H   0  0  0  0  0  0  0  0  0  0  0  0
  1  2  3  0
  2  3  1  0
  3  4  1  0
  4  5  1  0
  5  6  1  0
  6  7  1  0
  6  8  1  0
  5  3  1  0
  1  9  1  0
  3 10  1  0
  5 11  1  0
  6 12  1  0
  7 13  1  0
  7 14  1  0
  7 15  1  0
  8 16  1  0
M  END
