
     RDKit          3D

 15 14  0  0  0  0  0  0  0  0999 V2000
    3.4612    0.1391   -2.9012 C   0  0  0  0  0  0  0  0  0  0  0  0
    2.7793    0.0833   -1.9083 C   0  0  0  0  0  0  0  0  0  0  0  0
    1.9818   -0.0012   -0.7191 C   0  0  0  0  0  0  0  0  0  0  0  0
    2.4567   -0.1020    0.4295 O   0  0  0  0  0  0  0  0  0  0  0  0
    0.6051    0.0328   -0.8759 O   0  0  0  0  0  0  0  0  0  0  0  0
   -0.2060   -0.0479    0.2718 C   0  0  0  0  0  0  0  0  0  0  0  0
   -1.6373    0.0031   -0.0929 C   0  0  0  0  0  0  0  0  0  0  0  0
   -2.7144   -0.0620    0.9305 C   0  0  0  0  0  0  0  0  0  0  0  0
   -1.9803    0.1012   -1.2576 O   0  0  0  0  0  0  0  0  0  0  0  0
    4.0609    0.1888   -3.7831 H   0  0  0  0  0  0  0  0  0  0  0  0
    0.0064    0.8618    0.8950 H   0  0  0  0  0  0  0  0  0  0  0  0
    0.0645   -0.9116    0.9047 H   0  0  0  0  0  0  0  0  0  0  0  0
   -2.3664    0.5640    1.7850 H   0  0  0  0  0  0  0  0  0  0  0  0
   -2.8393   -1.1226    1.2824 H   0  0  0  0  0  0  0  0  0  0  0  0
   -3.6721    0.2733    0.5201 H   0  0  0  0  0  0  0  0  0  0  0  0
  1  2  3  0
  2  3  1  0
  3  4  2  0
  3  5  1  0
  5  6  1  0
  6  7  1  0
  7  8  1  0
  7  9  2  0
  1 10  1  0
  6 11  1  0
  6 12  1  0
  8 13  1  0
  8 14  1  0
  8 15  1  0
M  END
