
     RDKit          3D

 21 21  0  0  0  0  0  0  0  0999 V2000
    0.2936    1.9492    2.8510 C   0  0  0  0  0  0  0  0  0  0  0  0
   -0.5491    1.6189    1.9573 C   0  0  0  0  0  0  0  0  0  0  0  0
   -1.4984    1.2713    0.9522 C   0  0  0  0  0  0  0  0  0  0  0  0
   -1.0617    0.1651    0.0816 C   0  0  0  0  0  0  0  0  0  0  0  0
   -0.8361   -1.0573    0.9445 O   0  0  0  0  0  0  0  0  0  0  0  0
    0.1450   -0.5387   -0.0259 C   0  0  0  0  0  0  0  0  0  0  0  0
    1.4488   -0.2521    0.6249 C   0  0  0  0  0  0  0  0  0  0  0  0
    0.3005   -1.5010   -1.2114 C   0  0  0  0  0  0  0  0  0  0  0  0
    0.1743   -0.6972   -2.5049 C   0  0  0  0  0  0  0  0  0  0  0  0
    0.9652    2.2317    3.5705 H   0  0  0  0  0  0  0  0  0  0  0  0
   -2.5086    0.9938    1.4202 H   0  0  0  0  0  0  0  0  0  0  0  0
   -1.7683    2.1935    0.3527 H   0  0  0  0  0  0  0  0  0  0  0  0
   -1.9007   -0.1474   -0.6100 H   0  0  0  0  0  0  0  0  0  0  0  0
    1.7980    0.8095    0.4620 H   0  0  0  0  0  0  0  0  0  0  0  0
    2.2975   -0.8975    0.3090 H   0  0  0  0  0  0  0  0  0  0  0  0
    1.4361   -0.3848    1.7299 H   0  0  0  0  0  0  0  0  0  0  0  0
   -0.4811   -2.2843   -1.2266 H   0  0  0  0  0  0  0  0  0  0  0  0
    1.2803   -1.9753   -1.2156 H   0  0  0  0  0  0  0  0  0  0  0  0
    0.3580    0.3873   -2.3346 H   0  0  0  0  0  0  0  0  0  0  0  0
   -0.8523   -0.8146   -2.9404 H   0  0  0  0  0  0  0  0  0  0  0  0
    0.9588   -1.0703   -3.1866 H   0  0  0  0  0  0  0  0  0  0  0  0
  1  2  3  0
  2  3  1  0
  3  4  1  0
  4  5  1  0
  5  6  1  0
  6  7  1  0
  6  8  1  0
  8  9  1  0
  6  4  1  0
  1 10  1  0
  3 11  1  0
  3 12  1  0
  4 13  1  0
  7 14  1  0
  7 15  1  0
  7 16  1  0
  8 17  1  0
  8 18  1  0
  9 19  1  0
  9 20  1  0
  9 21  1  0
M  END
