
     RDKit          3D

 16 17  0  0  0  0  0  0  0  0999 V2000
    2.4857    2.1244    0.8847 C   0  0  0  0  0  0  0  0  0  0  0  0
    1.9725    1.0566    0.6558 C   0  0  0  0  0  0  0  0  0  0  0  0
    1.3708   -0.2468    0.3662 C   0  0  0  0  0  0  0  0  0  0  0  0
   -0.1075   -0.1622    0.3042 C   0  0  0  0  0  0  0  0  0  0  0  0
   -0.8615   -1.4346    0.0123 C   0  0  0  0  0  0  0  0  0  0  0  0
   -1.9965   -0.5379   -0.5012 C   0  0  0  0  0  0  0  0  0  0  0  0
   -0.9830    0.6097   -0.3704 C   0  0  0  0  0  0  0  0  0  0  0  0
   -0.7036    0.8797    0.9642 O   0  0  0  0  0  0  0  0  0  0  0  0
    2.9284    3.0871    1.0887 H   0  0  0  0  0  0  0  0  0  0  0  0
    1.7990   -0.5782   -0.6092 H   0  0  0  0  0  0  0  0  0  0  0  0
    1.6993   -1.0189    1.1109 H   0  0  0  0  0  0  0  0  0  0  0  0
   -0.3627   -1.9682   -0.8273 H   0  0  0  0  0  0  0  0  0  0  0  0
   -1.1625   -2.0382    0.8719 H   0  0  0  0  0  0  0  0  0  0  0  0
   -2.8022   -0.4134    0.2632 H   0  0  0  0  0  0  0  0  0  0  0  0
   -2.3170   -0.7449   -1.5228 H   0  0  0  0  0  0  0  0  0  0  0  0
   -0.9593    1.3858   -1.1292 H   0  0  0  0  0  0  0  0  0  0  0  0
  1  2  3  0
  2  3  1  0
  3  4  1  0
  4  5  1  0
  5  6  1  0
  6  7  1  0
  7  8  1  0
  7  4  1  0
  8  4  1  0
  1  9  1  0
  3 10  1  0
  3 11  1  0
  5 12  1  0
  5 13  1  0
  6 14  1  0
  6 15  1  0
  7 16  1  0
M  END
