
     RDKit          3D

 17 18  0  0  0  0  0  0  0  0999 V2000
    0.8029    2.7699   -0.5794 C   0  0  0  0  0  0  0  0  0  0  0  0
    0.6457    1.7115   -0.3606 C   0  0  0  0  0  0  0  0  0  0  0  0
    0.4206    0.0486   -0.0332 C   0  0  0  0  0  0  0  0  0  0  0  0
    1.5585   -0.4204   -0.2704 C   0  0  0  0  0  0  0  0  0  0  0  0
    2.8060   -0.9299   -0.5466 C   0  0  0  0  0  0  0  0  0  0  0  0
   -0.8351   -0.3283   -0.6626 C   0  0  0  0  0  0  0  0  0  0  0  0
   -1.6181    0.2535    0.4073 C   0  0  0  0  0  0  0  0  0  0  0  0
   -0.4355   -0.1273    1.1110 C   0  0  0  0  0  0  0  0  0  0  0  0
   -0.7812   -1.5636    0.2994 C   0  0  0  0  0  0  0  0  0  0  0  0
    0.9629    3.9654   -0.8128 H   0  0  0  0  0  0  0  0  0  0  0  0
    3.8458   -1.3453   -0.7881 H   0  0  0  0  0  0  0  0  0  0  0  0
   -1.0188   -0.4005   -1.6736 H   0  0  0  0  0  0  0  0  0  0  0  0
   -2.5390   -0.5026    0.6558 H   0  0  0  0  0  0  0  0  0  0  0  0
   -2.0771    1.2084    0.3234 H   0  0  0  0  0  0  0  0  0  0  0  0
   -0.1804   -0.3325    2.1049 H   0  0  0  0  0  0  0  0  0  0  0  0
   -1.7188   -1.9195    0.5911 H   0  0  0  0  0  0  0  0  0  0  0  0
    0.1615   -2.0875    0.2345 H   0  0  0  0  0  0  0  0  0  0  0  0
  1  2  3  0
  2  3  1  0
  3  4  1  0
  4  5  3  0
  3  6  1  0
  6  7  1  0
  7  8  1  0
  8  9  1  0
  8  3  1  0
  9  6  1  0
  1 10  1  0
  5 11  1  0
  6 12  1  0
  7 13  1  0
  7 14  1  0
  8 15  1  0
  9 16  1  0
  9 17  1  0
M  END
