
     RDKit          3D

 19 21  0  0  0  0  0  0  0  0999 V2000
    2.8161    0.8684    0.8347 C   0  0  0  0  0  0  0  0  0  0  0  0
    2.0549    0.2535    0.1333 C   0  0  0  0  0  0  0  0  0  0  0  0
    1.1629   -0.4887   -0.7175 C   0  0  0  0  0  0  0  0  0  0  0  0
   -0.0192    0.2922   -1.2763 C   0  0  0  0  0  0  0  0  0  0  0  0
   -0.6201    1.2686   -0.3007 C   0  0  0  0  0  0  0  0  0  0  0  0
   -1.4563    0.4910    0.6689 C   0  0  0  0  0  0  0  0  0  0  0  0
   -1.1699   -0.9562    0.3411 C   0  0  0  0  0  0  0  0  0  0  0  0
    0.1814   -1.3981   -0.0525 C   0  0  0  0  0  0  0  0  0  0  0  0
   -0.8453   -0.9382   -1.0661 C   0  0  0  0  0  0  0  0  0  0  0  0
    3.4953    1.3973    1.4583 H   0  0  0  0  0  0  0  0  0  0  0  0
    1.7348   -0.9420   -1.5685 H   0  0  0  0  0  0  0  0  0  0  0  0
    0.1421    0.6349   -2.2944 H   0  0  0  0  0  0  0  0  0  0  0  0
    0.1868    1.8506    0.1560 H   0  0  0  0  0  0  0  0  0  0  0  0
   -1.2408    1.9806   -0.9145 H   0  0  0  0  0  0  0  0  0  0  0  0
   -1.2953    0.7491    1.7150 H   0  0  0  0  0  0  0  0  0  0  0  0
   -2.5342    0.6599    0.3760 H   0  0  0  0  0  0  0  0  0  0  0  0
   -1.8139   -1.6862    0.8179 H   0  0  0  0  0  0  0  0  0  0  0  0
    0.4185   -2.4652    0.0474 H   0  0  0  0  0  0  0  0  0  0  0  0
   -1.1980   -1.5715   -1.8516 H   0  0  0  0  0  0  0  0  0  0  0  0
  1  2  3  0
  2  3  1  0
  3  4  1  0
  4  5  1  0
  5  6  1  0
  6  7  1  0
  7  8  1  0
  8  9  1  0
  8  3  1  0
  9  4  1  0
  9  7  1  0
  1 10  1  0
  3 11  1  0
  4 12  1  0
  5 13  1  0
  5 14  1  0
  6 15  1  0
  6 16  1  0
  7 17  1  0
  8 18  1  0
  9 19  1  0
M  END
