
     RDKit          3D

 16 17  0  0  0  0  0  0  0  0999 V2000
    2.4951   -1.8576    0.7339 C   0  0  0  0  0  0  0  0  0  0  0  0
    1.9727   -0.9468    0.1463 C   0  0  0  0  0  0  0  0  0  0  0  0
    1.3263    0.1768   -0.5501 C   0  0  0  0  0  0  0  0  0  0  0  0
   -0.0206    0.4952    0.0174 C   0  0  0  0  0  0  0  0  0  0  0  0
   -0.7582    1.6126   -0.6128 C   0  0  0  0  0  0  0  0  0  0  0  0
   -1.2631    0.2482   -0.8489 C   0  0  0  0  0  0  0  0  0  0  0  0
   -1.8338   -0.4441    0.3682 C   0  0  0  0  0  0  0  0  0  0  0  0
   -0.5910   -0.3206    0.9626 O   0  0  0  0  0  0  0  0  0  0  0  0
    2.9697   -2.6521    1.2422 H   0  0  0  0  0  0  0  0  0  0  0  0
    2.0442    1.0215   -0.4993 H   0  0  0  0  0  0  0  0  0  0  0  0
    1.2383   -0.0631   -1.6502 H   0  0  0  0  0  0  0  0  0  0  0  0
   -0.2948    2.1204   -1.4558 H   0  0  0  0  0  0  0  0  0  0  0  0
   -1.4059    2.2629    0.0191 H   0  0  0  0  0  0  0  0  0  0  0  0
   -1.0339   -0.3331   -1.7582 H   0  0  0  0  0  0  0  0  0  0  0  0
   -2.6496    0.1482    0.8379 H   0  0  0  0  0  0  0  0  0  0  0  0
   -2.1953   -1.4684    0.1842 H   0  0  0  0  0  0  0  0  0  0  0  0
  1  2  3  0
  2  3  1  0
  3  4  1  0
  4  5  1  0
  5  6  1  0
  6  7  1  0
  7  8  1  0
  6  4  1  0
  8  4  1  0
  1  9  1  0
  3 10  1  0
  3 11  1  0
  5 12  1  0
  5 13  1  0
  6 14  1  0
  7 15  1  0
  7 16  1  0
M  END
