
     RDKit          3D

 23 22  0  0  0  0  0  0  0  0999 V2000
    4.4730    0.5198    1.0824 C   0  0  0  0  0  0  0  0  0  0  0  0
    3.1587    0.6226    0.9173 C   0  0  0  0  0  0  0  0  0  0  0  0
    1.9502    0.7357    0.7765 C   0  0  0  0  0  0  0  0  0  0  0  0
    0.8597    0.0052    0.2221 C   0  0  0  0  0  0  0  0  0  0  0  0
    0.3813   -0.2248   -1.1584 C   0  0  0  0  0  0  0  0  0  0  0  0
   -0.8446   -1.1299   -1.1710 C   0  0  0  0  0  0  0  0  0  0  0  0
   -2.0664   -0.5533   -0.5118 C   0  0  0  0  0  0  0  0  0  0  0  0
   -2.5022    0.7347   -1.0999 C   0  0  0  0  0  0  0  0  0  0  0  0
   -1.9947   -0.6197    0.8453 O   0  0  0  0  0  0  0  0  0  0  0  0
    5.6441    0.4269    1.2153 H   0  0  0  0  0  0  0  0  0  0  0  0
    1.5326    1.7319    1.3530 H   0  0  0  0  0  0  0  0  0  0  0  0
    1.9300    1.6814   -0.2626 H   0  0  0  0  0  0  0  0  0  0  0  0
    1.1321   -1.1651    0.5595 H   0  0  0  0  0  0  0  0  0  0  0  0
   -0.0559    0.0568    0.9191 H   0  0  0  0  0  0  0  0  0  0  0  0
    1.1702   -0.5977   -1.8228 H   0  0  0  0  0  0  0  0  0  0  0  0
    0.0807    0.8155   -1.5368 H   0  0  0  0  0  0  0  0  0  0  0  0
   -0.5573   -1.9926   -0.5693 H   0  0  0  0  0  0  0  0  0  0  0  0
   -1.0701   -1.4645   -2.2284 H   0  0  0  0  0  0  0  0  0  0  0  0
   -2.9196   -1.2790   -0.8267 H   0  0  0  0  0  0  0  0  0  0  0  0
   -3.5623    0.8864   -0.8504 H   0  0  0  0  0  0  0  0  0  0  0  0
   -1.8728    1.5966   -0.8310 H   0  0  0  0  0  0  0  0  0  0  0  0
   -2.5254    0.6756   -2.2351 H   0  0  0  0  0  0  0  0  0  0  0  0
   -2.3416   -1.4625    1.2674 H   0  0  0  0  0  0  0  0  0  0  0  0
  1  2  3  0
  2  3  1  0
  3  4  1  0
  4  5  1  0
  5  6  1  0
  6  7  1  0
  7  8  1  0
  7  9  1  0
  1 10  1  0
  3 11  1  0
  3 12  1  0
  4 13  1  0
  4 14  1  0
  5 15  1  0
  5 16  1  0
  6 17  1  0
  6 18  1  0
  7 19  1  0
  8 20  1  0
  8 21  1  0
  8 22  1  0
  9 23  1  0
M  END
