
     RDKit          3D

 17 17  0  0  0  0  0  0  0  0999 V2000
    3.5671    1.2555    0.0255 C   0  0  0  0  0  0  0  0  0  0  0  0
    2.6798    0.4239   -0.0040 C   0  0  0  0  0  0  0  0  0  0  0  0
    1.6246   -0.6001   -0.0425 C   0  0  0  0  0  0  0  0  0  0  0  0
    1.2817   -1.1535    1.1846 O   0  0  0  0  0  0  0  0  0  0  0  0
    0.3429   -0.2631    0.6915 C   0  0  0  0  0  0  0  0  0  0  0  0
   -0.8972   -0.7353    0.0209 C   0  0  0  0  0  0  0  0  0  0  0  0
   -1.6822   -1.5347    0.8819 O   0  0  0  0  0  0  0  0  0  0  0  0
   -1.6892    0.4770   -0.4183 C   0  0  0  0  0  0  0  0  0  0  0  0
   -2.8508    0.1196   -1.1003 O   0  0  0  0  0  0  0  0  0  0  0  0
    4.3466    1.9722    0.0668 H   0  0  0  0  0  0  0  0  0  0  0  0
    1.5805   -1.2473   -0.9332 H   0  0  0  0  0  0  0  0  0  0  0  0
    0.2803    0.7486    1.1613 H   0  0  0  0  0  0  0  0  0  0  0  0
   -0.6731   -1.3958   -0.8638 H   0  0  0  0  0  0  0  0  0  0  0  0
   -1.8796   -1.0249    1.7124 H   0  0  0  0  0  0  0  0  0  0  0  0
   -1.8691    1.0944    0.4668 H   0  0  0  0  0  0  0  0  0  0  0  0
   -1.0434    0.9979   -1.1841 H   0  0  0  0  0  0  0  0  0  0  0  0
   -3.1189    0.8655   -1.6656 H   0  0  0  0  0  0  0  0  0  0  0  0
  1  2  3  0
  2  3  1  0
  3  4  1  0
  4  5  1  0
  5  6  1  0
  6  7  1  0
  6  8  1  0
  8  9  1  0
  5  3  1  0
  1 10  1  0
  3 11  1  0
  5 12  1  0
  6 13  1  0
  7 14  1  0
  8 15  1  0
  8 16  1  0
  9 17  1  0
M  END
