
     RDKit          3D

 17 18  0  0  0  0  0  0  0  0999 V2000
    2.3592   -1.7143   -0.6111 C   0  0  0  0  0  0  0  0  0  0  0  0
    1.1883   -1.4659   -0.7605 C   0  0  0  0  0  0  0  0  0  0  0  0
   -0.2448   -1.1535   -0.9202 C   0  0  0  0  0  0  0  0  0  0  0  0
   -0.3777    0.3574   -1.0565 C   0  0  0  0  0  0  0  0  0  0  0  0
   -0.3878    0.8114    0.3729 C   0  0  0  0  0  0  0  0  0  0  0  0
   -0.2716   -0.4841    1.1301 C   0  0  0  0  0  0  0  0  0  0  0  0
   -0.9102   -1.4087    0.2735 O   0  0  0  0  0  0  0  0  0  0  0  0
   -0.9713    1.9745    0.8569 C   0  0  0  0  0  0  0  0  0  0  0  0
    0.4432    1.8672    0.7365 O   0  0  0  0  0  0  0  0  0  0  0  0
    3.4002   -1.9381   -0.4965 H   0  0  0  0  0  0  0  0  0  0  0  0
   -0.6378   -1.6983   -1.7794 H   0  0  0  0  0  0  0  0  0  0  0  0
    0.5296    0.7192   -1.5682 H   0  0  0  0  0  0  0  0  0  0  0  0
   -1.2912    0.6173   -1.6182 H   0  0  0  0  0  0  0  0  0  0  0  0
    0.7634   -0.8398    1.2363 H   0  0  0  0  0  0  0  0  0  0  0  0
   -0.7807   -0.4097    2.1025 H   0  0  0  0  0  0  0  0  0  0  0  0
   -1.4725    2.7122    0.1880 H   0  0  0  0  0  0  0  0  0  0  0  0
   -1.3384    2.0531    1.9138 H   0  0  0  0  0  0  0  0  0  0  0  0
  1  2  3  0
  2  3  1  0
  3  4  1  0
  4  5  1  0
  5  6  1  0
  6  7  1  0
  5  8  1  0
  8  9  1  0
  7  3  1  0
  9  5  1  0
  1 10  1  0
  3 11  1  0
  4 12  1  0
  4 13  1  0
  6 14  1  0
  6 15  1  0
  8 16  1  0
  8 17  1  0
M  END
