
     RDKit          3D

 17 17  0  0  0  0  0  0  0  0999 V2000
    3.1282    1.3500    0.7681 C   0  0  0  0  0  0  0  0  0  0  0  0
    2.1873    0.1204    0.6605 C   0  0  0  0  0  0  0  0  0  0  0  0
    1.4458   -0.8202    0.5892 C   0  0  0  0  0  0  0  0  0  0  0  0
    0.2224   -0.2264   -0.2864 C   0  0  0  0  0  0  0  0  0  0  0  0
   -0.8629   -1.1528   -0.6196 C   0  0  0  0  0  0  0  0  0  0  0  0
   -1.1155    0.0220    0.2896 C   0  0  0  0  0  0  0  0  0  0  0  0
   -1.3785   -0.1512    1.6485 O   0  0  0  0  0  0  0  0  0  0  0  0
   -1.7599    1.2651   -0.2314 C   0  0  0  0  0  0  0  0  0  0  0  0
   -2.1152    1.3564   -1.3888 O   0  0  0  0  0  0  0  0  0  0  0  0
    3.7491    2.1655    0.8453 H   0  0  0  0  0  0  0  0  0  0  0  0
    0.9084   -1.3186    1.4270 H   0  0  0  0  0  0  0  0  0  0  0  0
    1.5788   -1.7390   -0.1356 H   0  0  0  0  0  0  0  0  0  0  0  0
    0.6160    0.5457   -0.9476 H   0  0  0  0  0  0  0  0  0  0  0  0
   -0.9278   -2.1515   -0.2501 H   0  0  0  0  0  0  0  0  0  0  0  0
   -1.3451   -0.9633   -1.6940 H   0  0  0  0  0  0  0  0  0  0  0  0
   -2.3877   -0.3967    1.7672 H   0  0  0  0  0  0  0  0  0  0  0  0
   -1.9437    2.0947    0.4178 H   0  0  0  0  0  0  0  0  0  0  0  0
  1  2  3  0
  2  3  1  0
  3  4  1  0
  4  5  1  0
  5  6  1  0
  6  7  1  0
  6  8  1  0
  8  9  2  0
  6  4  1  0
  1 10  1  0
  3 11  1  0
  3 12  1  0
  4 13  1  0
  5 14  1  0
  5 15  1  0
  7 16  1  0
  8 17  1  0
M  END
