
     RDKit          3D

 13 12  0  0  0  0  0  0  0  0999 V2000
    2.2136   -0.5283   -0.7179 C   0  0  0  0  0  0  0  0  0  0  0  0
    1.2109   -0.0343   -0.4558 C   0  0  0  0  0  0  0  0  0  0  0  0
   -0.1320    0.6179   -0.1261 C   0  0  0  0  0  0  0  0  0  0  0  0
   -0.1533    1.1692    1.1221 C   0  0  0  0  0  0  0  0  0  0  0  0
   -0.1636    1.6701    2.2718 C   0  0  0  0  0  0  0  0  0  0  0  0
   -1.1543   -0.5066   -0.3077 C   0  0  0  0  0  0  0  0  0  0  0  0
   -0.8454   -1.5550    0.5650 O   0  0  0  0  0  0  0  0  0  0  0  0
    3.1662   -0.9983   -0.9811 H   0  0  0  0  0  0  0  0  0  0  0  0
   -0.3418    1.2920   -1.0216 H   0  0  0  0  0  0  0  0  0  0  0  0
   -0.1723    2.1212    3.2754 H   0  0  0  0  0  0  0  0  0  0  0  0
   -2.1496   -0.0892   -0.0634 H   0  0  0  0  0  0  0  0  0  0  0  0
   -1.1452   -0.9021   -1.3403 H   0  0  0  0  0  0  0  0  0  0  0  0
   -0.3332   -2.2566    0.0572 H   0  0  0  0  0  0  0  0  0  0  0  0
  1  2  3  0
  2  3  1  0
  3  4  1  0
  4  5  3  0
  3  6  1  0
  6  7  1  0
  1  8  1  0
  3  9  1  0
  5 10  1  0
  6 11  1  0
  6 12  1  0
  7 13  1  0
M  END
