
     RDKit          3D

 19 19  0  0  0  0  0  0  0  0999 V2000
   -1.3990    2.8165   -0.2882 C   0  0  0  0  0  0  0  0  0  0  0  0
   -0.9122    1.7357   -0.0001 C   0  0  0  0  0  0  0  0  0  0  0  0
   -0.3124    0.4553    0.3290 C   0  0  0  0  0  0  0  0  0  0  0  0
   -0.8646   -0.1732    1.4422 O   0  0  0  0  0  0  0  0  0  0  0  0
   -0.0972   -0.4769   -0.8494 C   0  0  0  0  0  0  0  0  0  0  0  0
   -1.1311   -1.5777   -0.9561 C   0  0  0  0  0  0  0  0  0  0  0  0
    1.1800   -0.9156   -0.1606 C   0  0  0  0  0  0  0  0  0  0  0  0
    1.2172    0.5001    0.4316 C   0  0  0  0  0  0  0  0  0  0  0  0
    1.7096    0.5692    1.7104 O   0  0  0  0  0  0  0  0  0  0  0  0
   -1.8369    3.7497   -0.5338 H   0  0  0  0  0  0  0  0  0  0  0  0
   -0.6437    0.2644    2.2916 H   0  0  0  0  0  0  0  0  0  0  0  0
    0.0454    0.1305   -1.7646 H   0  0  0  0  0  0  0  0  0  0  0  0
   -0.6808   -2.4151   -1.5285 H   0  0  0  0  0  0  0  0  0  0  0  0
   -1.3533   -1.8833    0.1085 H   0  0  0  0  0  0  0  0  0  0  0  0
   -2.0384   -1.2162   -1.4747 H   0  0  0  0  0  0  0  0  0  0  0  0
    2.0188   -1.1693   -0.8024 H   0  0  0  0  0  0  0  0  0  0  0  0
    0.9240   -1.6845    0.6038 H   0  0  0  0  0  0  0  0  0  0  0  0
    1.5891    1.2252   -0.3031 H   0  0  0  0  0  0  0  0  0  0  0  0
    2.5854    0.0653    1.7446 H   0  0  0  0  0  0  0  0  0  0  0  0
  1  2  3  0
  2  3  1  0
  3  4  1  0
  3  5  1  0
  5  6  1  0
  5  7  1  0
  7  8  1  0
  8  9  1  0
  8  3  1  0
  1 10  1  0
  4 11  1  0
  5 12  1  0
  6 13  1  0
  6 14  1  0
  6 15  1  0
  7 16  1  0
  7 17  1  0
  8 18  1  0
  9 19  1  0
M  END
