
     RDKit          3D

 19 19  0  0  0  0  0  0  0  0999 V2000
    3.5746    0.7461    0.1835 C   0  0  0  0  0  0  0  0  0  0  0  0
    2.5852    0.0587    0.0574 C   0  0  0  0  0  0  0  0  0  0  0  0
    1.3730   -0.7525   -0.0938 C   0  0  0  0  0  0  0  0  0  0  0  0
    0.1956   -0.0944    0.5963 C   0  0  0  0  0  0  0  0  0  0  0  0
   -0.0920    1.2447    0.0389 C   0  0  0  0  0  0  0  0  0  0  0  0
   -1.3951    1.3691   -0.1446 C   0  0  0  0  0  0  0  0  0  0  0  0
   -2.1507    0.1552    0.2546 C   0  0  0  0  0  0  0  0  0  0  0  0
   -1.0316   -0.8932    0.2277 C   0  0  0  0  0  0  0  0  0  0  0  0
   -0.8605   -1.3552   -1.0711 O   0  0  0  0  0  0  0  0  0  0  0  0
    4.4490    1.3448    0.2868 H   0  0  0  0  0  0  0  0  0  0  0  0
    1.5409   -1.7281    0.4106 H   0  0  0  0  0  0  0  0  0  0  0  0
    1.0874   -0.8609   -1.1615 H   0  0  0  0  0  0  0  0  0  0  0  0
    0.3358   -0.0617    1.6989 H   0  0  0  0  0  0  0  0  0  0  0  0
    0.6449    2.0383   -0.1977 H   0  0  0  0  0  0  0  0  0  0  0  0
   -1.8976    2.2632   -0.5480 H   0  0  0  0  0  0  0  0  0  0  0  0
   -2.9158   -0.1001   -0.5131 H   0  0  0  0  0  0  0  0  0  0  0  0
   -2.5715    0.2146    1.2665 H   0  0  0  0  0  0  0  0  0  0  0  0
   -1.2264   -1.7113    0.9462 H   0  0  0  0  0  0  0  0  0  0  0  0
   -1.6452   -1.8772   -1.3779 H   0  0  0  0  0  0  0  0  0  0  0  0
  1  2  3  0
  2  3  1  0
  3  4  1  0
  4  5  1  0
  5  6  2  0
  6  7  1  0
  7  8  1  0
  8  9  1  0
  8  4  1  0
  1 10  1  0
  3 11  1  0
  3 12  1  0
  4 13  1  0
  5 14  1  0
  6 15  1  0
  7 16  1  0
  7 17  1  0
  8 18  1  0
  9 19  1  0
M  END
