
     RDKit          3D

 19 20  0  0  0  0  0  0  0  0999 V2000
    3.4596   -0.1750   -0.7622 C   0  0  0  0  0  0  0  0  0  0  0  0
    2.3126   -0.2039   -0.9349 C   0  0  0  0  0  0  0  0  0  0  0  0
    0.8611   -0.2548   -1.1320 C   0  0  0  0  0  0  0  0  0  0  0  0
    0.3479   -1.4876   -0.8308 O   0  0  0  0  0  0  0  0  0  0  0  0
   -0.7650   -1.3471   -0.0702 C   0  0  0  0  0  0  0  0  0  0  0  0
   -0.8844    0.0466    0.4056 C   0  0  0  0  0  0  0  0  0  0  0  0
   -1.1032    0.2012    1.8999 C   0  0  0  0  0  0  0  0  0  0  0  0
   -1.2369    1.1520   -0.5118 C   0  0  0  0  0  0  0  0  0  0  0  0
    0.1812    0.7801   -0.2822 C   0  0  0  0  0  0  0  0  0  0  0  0
    4.5957   -0.1613   -0.5774 H   0  0  0  0  0  0  0  0  0  0  0  0
    0.6742   -0.0279   -2.2361 H   0  0  0  0  0  0  0  0  0  0  0  0
   -1.6509   -1.5892   -0.7029 H   0  0  0  0  0  0  0  0  0  0  0  0
   -0.7823   -2.0914    0.7802 H   0  0  0  0  0  0  0  0  0  0  0  0
   -0.1568    0.4685    2.4301 H   0  0  0  0  0  0  0  0  0  0  0  0
   -1.8676    0.9746    2.1355 H   0  0  0  0  0  0  0  0  0  0  0  0
   -1.5147   -0.7530    2.2707 H   0  0  0  0  0  0  0  0  0  0  0  0
   -1.7566    0.9095   -1.4515 H   0  0  0  0  0  0  0  0  0  0  0  0
   -1.5593    2.1331   -0.0895 H   0  0  0  0  0  0  0  0  0  0  0  0
    0.8453    1.4257    0.3123 H   0  0  0  0  0  0  0  0  0  0  0  0
  1  2  3  0
  2  3  1  0
  3  4  1  0
  4  5  1  0
  5  6  1  0
  6  7  1  0
  6  8  1  0
  8  9  1  0
  9  3  1  0
  9  6  1  0
  1 10  1  0
  3 11  1  0
  5 12  1  0
  5 13  1  0
  7 14  1  0
  7 15  1  0
  7 16  1  0
  8 17  1  0
  8 18  1  0
  9 19  1  0
M  END
