
     RDKit          3D

 23 22  0  0  0  0  0  0  0  0999 V2000
    3.4362    1.2141    1.1775 C   0  0  0  0  0  0  0  0  0  0  0  0
    2.5593    0.6326    0.5944 C   0  0  0  0  0  0  0  0  0  0  0  0
    1.4923   -0.0893   -0.1445 C   0  0  0  0  0  0  0  0  0  0  0  0
    1.5272    0.3641   -1.5736 C   0  0  0  0  0  0  0  0  0  0  0  0
    2.7886    0.0566   -2.0823 O   0  0  0  0  0  0  0  0  0  0  0  0
    0.2022    0.2507    0.5507 C   0  0  0  0  0  0  0  0  0  0  0  0
   -0.9356   -0.4562   -0.1451 C   0  0  0  0  0  0  0  0  0  0  0  0
   -2.2667   -0.1523    0.5148 C   0  0  0  0  0  0  0  0  0  0  0  0
   -3.3111   -0.9247   -0.2794 C   0  0  0  0  0  0  0  0  0  0  0  0
    4.2365    1.7221    1.7008 H   0  0  0  0  0  0  0  0  0  0  0  0
    1.6860   -1.1895   -0.1550 H   0  0  0  0  0  0  0  0  0  0  0  0
    1.2341    1.3940   -1.7480 H   0  0  0  0  0  0  0  0  0  0  0  0
    0.8279   -0.3168   -2.1432 H   0  0  0  0  0  0  0  0  0  0  0  0
    3.2387    0.9305   -2.2753 H   0  0  0  0  0  0  0  0  0  0  0  0
    0.2093   -0.1089    1.6135 H   0  0  0  0  0  0  0  0  0  0  0  0
    0.0809    1.3518    0.5314 H   0  0  0  0  0  0  0  0  0  0  0  0
   -0.9663   -0.2209   -1.2259 H   0  0  0  0  0  0  0  0  0  0  0  0
   -0.7113   -1.5442   -0.0625 H   0  0  0  0  0  0  0  0  0  0  0  0
   -2.4898    0.9289    0.4287 H   0  0  0  0  0  0  0  0  0  0  0  0
   -2.2443   -0.5137    1.5609 H   0  0  0  0  0  0  0  0  0  0  0  0
   -2.9357   -1.9720   -0.4046 H   0  0  0  0  0  0  0  0  0  0  0  0
   -4.2237   -0.9405    0.3150 H   0  0  0  0  0  0  0  0  0  0  0  0
   -3.4345   -0.4165   -1.2544 H   0  0  0  0  0  0  0  0  0  0  0  0
  1  2  3  0
  2  3  1  0
  3  4  1  0
  4  5  1  0
  3  6  1  0
  6  7  1  0
  7  8  1  0
  8  9  1  0
  1 10  1  0
  3 11  1  0
  4 12  1  0
  4 13  1  0
  5 14  1  0
  6 15  1  0
  6 16  1  0
  7 17  1  0
  7 18  1  0
  8 19  1  0
  8 20  1  0
  9 21  1  0
  9 22  1  0
  9 23  1  0
M  END
