
     RDKit          3D

 21 21  0  0  0  0  0  0  0  0999 V2000
   -2.5798    1.1323    1.4125 C   0  0  0  0  0  0  0  0  0  0  0  0
   -1.8758    0.6669    0.5504 C   0  0  0  0  0  0  0  0  0  0  0  0
   -1.0216    0.0799   -0.4837 C   0  0  0  0  0  0  0  0  0  0  0  0
   -1.4438   -1.3578   -0.7773 C   0  0  0  0  0  0  0  0  0  0  0  0
    0.4000    0.1464    0.0289 C   0  0  0  0  0  0  0  0  0  0  0  0
    0.6628   -0.5902    1.3151 C   0  0  0  0  0  0  0  0  0  0  0  0
    1.1153    1.4143   -0.2650 C   0  0  0  0  0  0  0  0  0  0  0  0
    1.5437    0.1603   -0.9342 C   0  0  0  0  0  0  0  0  0  0  0  0
    2.7779   -0.3303   -0.5025 O   0  0  0  0  0  0  0  0  0  0  0  0
   -3.2087    1.5262    2.1686 H   0  0  0  0  0  0  0  0  0  0  0  0
   -1.1191    0.6286   -1.4425 H   0  0  0  0  0  0  0  0  0  0  0  0
   -1.8946   -1.4622   -1.7797 H   0  0  0  0  0  0  0  0  0  0  0  0
   -2.1921   -1.7086   -0.0295 H   0  0  0  0  0  0  0  0  0  0  0  0
   -0.5491   -1.9939   -0.6760 H   0  0  0  0  0  0  0  0  0  0  0  0
    1.7490   -0.7441    1.4670 H   0  0  0  0  0  0  0  0  0  0  0  0
    0.2664   -0.0822    2.2059 H   0  0  0  0  0  0  0  0  0  0  0  0
    0.2103   -1.6151    1.2363 H   0  0  0  0  0  0  0  0  0  0  0  0
    0.6445    2.1665   -0.9323 H   0  0  0  0  0  0  0  0  0  0  0  0
    1.6902    1.8642    0.5651 H   0  0  0  0  0  0  0  0  0  0  0  0
    1.3588    0.0388   -2.0267 H   0  0  0  0  0  0  0  0  0  0  0  0
    3.4658    0.0599   -1.1005 H   0  0  0  0  0  0  0  0  0  0  0  0
  1  2  3  0
  2  3  1  0
  3  4  1  0
  3  5  1  0
  5  6  1  0
  5  7  1  0
  7  8  1  0
  8  9  1  0
  8  5  1  0
  1 10  1  0
  3 11  1  0
  4 12  1  0
  4 13  1  0
  4 14  1  0
  6 15  1  0
  6 16  1  0
  6 17  1  0
  7 18  1  0
  7 19  1  0
  8 20  1  0
  9 21  1  0
M  END
