
     RDKit          3D

 17 17  0  0  0  0  0  0  0  0999 V2000
   -0.6802   -2.5115    1.8230 C   0  0  0  0  0  0  0  0  0  0  0  0
   -0.3610   -1.4268    1.2240 C   0  0  0  0  0  0  0  0  0  0  0  0
    0.0124   -0.1713    0.5042 C   0  0  0  0  0  0  0  0  0  0  0  0
   -0.4722    0.8966    1.2926 O   0  0  0  0  0  0  0  0  0  0  0  0
    0.5218    1.6254    2.0075 C   0  0  0  0  0  0  0  0  0  0  0  0
    1.7061    1.3953    1.9909 O   0  0  0  0  0  0  0  0  0  0  0  0
   -0.5289   -0.1945   -0.8662 C   0  0  0  0  0  0  0  0  0  0  0  0
   -0.4464    0.8597   -1.8827 C   0  0  0  0  0  0  0  0  0  0  0  0
    0.5615   -0.1958   -1.9591 C   0  0  0  0  0  0  0  0  0  0  0  0
   -0.9309   -3.3861    2.3242 H   0  0  0  0  0  0  0  0  0  0  0  0
    1.1155   -0.1640    0.5756 H   0  0  0  0  0  0  0  0  0  0  0  0
    0.1224    2.4794    2.6185 H   0  0  0  0  0  0  0  0  0  0  0  0
   -1.3212   -1.0026   -1.0067 H   0  0  0  0  0  0  0  0  0  0  0  0
   -1.2604    0.8929   -2.6334 H   0  0  0  0  0  0  0  0  0  0  0  0
   -0.1057    1.9007   -1.6075 H   0  0  0  0  0  0  0  0  0  0  0  0
    0.4760   -1.0488   -2.6703 H   0  0  0  0  0  0  0  0  0  0  0  0
    1.5911    0.0516   -1.7346 H   0  0  0  0  0  0  0  0  0  0  0  0
  1  2  3  0
  2  3  1  0
  3  4  1  0
  4  5  1  0
  5  6  2  0
  3  7  1  0
  7  8  1  0
  8  9  1  0
  9  7  1  0
  1 10  1  0
  3 11  1  0
  5 12  1  0
  7 13  1  0
  8 14  1  0
  8 15  1  0
  9 16  1  0
  9 17  1  0
M  END
