
     RDKit          3D

 15 15  0  0  0  0  0  0  0  0999 V2000
   -1.8483    2.0676    0.6958 C   0  0  0  0  0  0  0  0  0  0  0  0
   -1.0669    1.1677    0.5142 C   0  0  0  0  0  0  0  0  0  0  0  0
   -0.1450    0.0780    0.2800 C   0  0  0  0  0  0  0  0  0  0  0  0
    1.2033    0.4855   -0.2539 C   0  0  0  0  0  0  0  0  0  0  0  0
    2.0029   -0.6384   -0.4399 O   0  0  0  0  0  0  0  0  0  0  0  0
   -0.1322   -1.0203    1.2949 C   0  0  0  0  0  0  0  0  0  0  0  0
    0.0412   -1.9016    0.1809 O   0  0  0  0  0  0  0  0  0  0  0  0
   -0.7208   -1.0039   -0.5582 C   0  0  0  0  0  0  0  0  0  0  0  0
   -1.5135   -1.1741   -1.5025 O   0  0  0  0  0  0  0  0  0  0  0  0
   -2.5479    2.8497    0.8454 H   0  0  0  0  0  0  0  0  0  0  0  0
    1.7133    1.2000    0.4316 H   0  0  0  0  0  0  0  0  0  0  0  0
    1.0091    0.9955   -1.2420 H   0  0  0  0  0  0  0  0  0  0  0  0
    2.3809   -0.9029    0.4375 H   0  0  0  0  0  0  0  0  0  0  0  0
   -1.1095   -1.1428    1.7785 H   0  0  0  0  0  0  0  0  0  0  0  0
    0.7333   -1.0600    1.9709 H   0  0  0  0  0  0  0  0  0  0  0  0
  1  2  3  0
  2  3  1  0
  3  4  1  0
  4  5  1  0
  3  6  1  0
  6  7  1  0
  7  8  1  0
  8  9  2  0
  8  3  1  0
  1 10  1  0
  4 11  1  0
  4 12  1  0
  5 13  1  0
  6 14  1  0
  6 15  1  0
M  END
