
     RDKit          3D

 17 16  0  0  0  0  0  0  0  0999 V2000
   -1.7677    1.2502    1.3823 C   0  0  0  0  0  0  0  0  0  0  0  0
   -1.0136    0.6574    0.6395 C   0  0  0  0  0  0  0  0  0  0  0  0
   -0.1101   -0.0562   -0.2834 C   0  0  0  0  0  0  0  0  0  0  0  0
   -0.7622   -0.0153   -1.6486 C   0  0  0  0  0  0  0  0  0  0  0  0
    0.0159   -1.4808    0.1855 C   0  0  0  0  0  0  0  0  0  0  0  0
    1.1124    0.5812   -0.3898 O   0  0  0  0  0  0  0  0  0  0  0  0
    1.7746    0.6721    0.8341 C   0  0  0  0  0  0  0  0  0  0  0  0
   -2.4327    1.7767    2.0160 H   0  0  0  0  0  0  0  0  0  0  0  0
   -1.4349   -0.8884   -1.7822 H   0  0  0  0  0  0  0  0  0  0  0  0
   -0.0475   -0.0318   -2.4774 H   0  0  0  0  0  0  0  0  0  0  0  0
   -1.3604    0.9073   -1.7212 H   0  0  0  0  0  0  0  0  0  0  0  0
   -0.1660   -1.5919    1.2782 H   0  0  0  0  0  0  0  0  0  0  0  0
    1.0419   -1.8533   -0.0811 H   0  0  0  0  0  0  0  0  0  0  0  0
   -0.6824   -2.1152   -0.4007 H   0  0  0  0  0  0  0  0  0  0  0  0
    1.9679   -0.3316    1.2584 H   0  0  0  0  0  0  0  0  0  0  0  0
    2.7188    1.2247    0.6572 H   0  0  0  0  0  0  0  0  0  0  0  0
    1.1461    1.2950    1.5336 H   0  0  0  0  0  0  0  0  0  0  0  0
  1  2  3  0
  2  3  1  0
  3  4  1  0
  3  5  1  0
  3  6  1  0
  6  7  1  0
  1  8  1  0
  4  9  1  0
  4 10  1  0
  4 11  1  0
  5 12  1  0
  5 13  1  0
  5 14  1  0
  7 15  1  0
  7 16  1  0
  7 17  1  0
M  END
