
     RDKit          3D

 17 17  0  0  0  0  0  0  0  0999 V2000
    2.7618    1.6401    1.7481 C   0  0  0  0  0  0  0  0  0  0  0  0
    1.9900    0.6295    1.6362 C   0  0  0  0  0  0  0  0  0  0  0  0
    0.9254   -0.7644    1.4542 C   0  0  0  0  0  0  0  0  0  0  0  0
    0.9133   -1.0830    2.4409 O   0  0  0  0  0  0  0  0  0  0  0  0
    0.7119   -0.5996   -0.0428 C   0  0  0  0  0  0  0  0  0  0  0  0
   -0.8210   -0.7147   -0.1395 C   0  0  0  0  0  0  0  0  0  0  0  0
   -1.3363   -0.6345   -1.5338 C   0  0  0  0  0  0  0  0  0  0  0  0
   -1.2519    0.7557   -1.4778 O   0  0  0  0  0  0  0  0  0  0  0  0
   -1.5102    0.6506   -0.0901 C   0  0  0  0  0  0  0  0  0  0  0  0
    3.4494    2.5563    1.8312 H   0  0  0  0  0  0  0  0  0  0  0  0
    1.2294   -1.2616   -0.6573 H   0  0  0  0  0  0  0  0  0  0  0  0
    0.8108    0.5417   -0.3763 H   0  0  0  0  0  0  0  0  0  0  0  0
   -1.2497   -1.5078    0.4807 H   0  0  0  0  0  0  0  0  0  0  0  0
   -0.7406   -1.1604   -2.3017 H   0  0  0  0  0  0  0  0  0  0  0  0
   -2.4101   -0.9931   -1.6873 H   0  0  0  0  0  0  0  0  0  0  0  0
   -0.9153    1.3706    0.5248 H   0  0  0  0  0  0  0  0  0  0  0  0
   -2.5569    0.5746    0.1886 H   0  0  0  0  0  0  0  0  0  0  0  0
  1  2  3  0
  2  3  1  0
  3  4  2  0
  3  5  1  0
  5  6  1  0
  6  7  1  0
  7  8  1  0
  8  9  1  0
  9  6  1  0
  1 10  1  0
  5 11  1  0
  5 12  1  0
  6 13  1  0
  7 14  1  0
  7 15  1  0
  9 16  1  0
  9 17  1  0
M  END
