
     RDKit          3D

 17 17  0  0  0  0  0  0  0  0999 V2000
   -2.6874    1.1034   -1.2777 C   0  0  0  0  0  0  0  0  0  0  0  0
   -1.5085    0.8681   -1.1064 C   0  0  0  0  0  0  0  0  0  0  0  0
   -0.0841    0.6035   -0.9168 C   0  0  0  0  0  0  0  0  0  0  0  0
    0.2076   -0.8988   -0.8155 C   0  0  0  0  0  0  0  0  0  0  0  0
    0.9369   -0.6124    0.4762 C   0  0  0  0  0  0  0  0  0  0  0  0
    0.3620   -1.4235    1.5716 C   0  0  0  0  0  0  0  0  0  0  0  0
   -0.7776   -1.8118    1.5208 O   0  0  0  0  0  0  0  0  0  0  0  0
    0.3775    0.8131    0.4936 C   0  0  0  0  0  0  0  0  0  0  0  0
    1.3891    1.7542    0.6666 O   0  0  0  0  0  0  0  0  0  0  0  0
   -3.7303    1.3301   -1.4345 H   0  0  0  0  0  0  0  0  0  0  0  0
    0.5337    1.0758   -1.7084 H   0  0  0  0  0  0  0  0  0  0  0  0
    0.8090   -1.3070   -1.6363 H   0  0  0  0  0  0  0  0  0  0  0  0
   -0.7305   -1.4759   -0.7142 H   0  0  0  0  0  0  0  0  0  0  0  0
    2.0505   -0.6452    0.4005 H   0  0  0  0  0  0  0  0  0  0  0  0
    0.9844   -1.6591    2.4152 H   0  0  0  0  0  0  0  0  0  0  0  0
   -0.4130    0.9713    1.2523 H   0  0  0  0  0  0  0  0  0  0  0  0
    2.2807    1.3141    0.8128 H   0  0  0  0  0  0  0  0  0  0  0  0
  1  2  3  0
  2  3  1  0
  3  4  1  0
  4  5  1  0
  5  6  1  0
  6  7  2  0
  5  8  1  0
  8  9  1  0
  8  3  1  0
  1 10  1  0
  3 11  1  0
  4 12  1  0
  4 13  1  0
  5 14  1  0
  6 15  1  0
  8 16  1  0
  9 17  1  0
M  END
