
     RDKit          3D

 17 18  0  0  0  0  0  0  0  0999 V2000
    3.4864    0.0046    0.1066 C   0  0  0  0  0  0  0  0  0  0  0  0
    2.3022    0.1655    0.0399 C   0  0  0  0  0  0  0  0  0  0  0  0
    0.8550    0.3857   -0.0313 C   0  0  0  0  0  0  0  0  0  0  0  0
    0.0940   -0.6837    0.6751 C   0  0  0  0  0  0  0  0  0  0  0  0
    0.5224   -1.5509   -0.3242 O   0  0  0  0  0  0  0  0  0  0  0  0
    0.1608   -0.4354   -1.0638 C   0  0  0  0  0  0  0  0  0  0  0  0
   -1.0675   -0.3656   -0.2073 C   0  0  0  0  0  0  0  0  0  0  0  0
   -1.6363    1.0117    0.0013 C   0  0  0  0  0  0  0  0  0  0  0  0
   -1.9772   -1.3749   -0.4380 O   0  0  0  0  0  0  0  0  0  0  0  0
    4.5473   -0.1413    0.1536 H   0  0  0  0  0  0  0  0  0  0  0  0
    0.5415    1.4166    0.1121 H   0  0  0  0  0  0  0  0  0  0  0  0
    0.0772   -0.8762    1.6652 H   0  0  0  0  0  0  0  0  0  0  0  0
    0.2055   -0.3348   -2.0650 H   0  0  0  0  0  0  0  0  0  0  0  0
   -1.3501    1.3932    1.0174 H   0  0  0  0  0  0  0  0  0  0  0  0
   -2.7455    0.9834   -0.0076 H   0  0  0  0  0  0  0  0  0  0  0  0
   -1.2639    1.7067   -0.7922 H   0  0  0  0  0  0  0  0  0  0  0  0
   -2.7517   -1.3047    0.1508 H   0  0  0  0  0  0  0  0  0  0  0  0
  1  2  3  0
  2  3  1  0
  3  4  1  0
  4  5  1  0
  5  6  1  0
  6  7  1  0
  7  8  1  0
  7  9  1  0
  6  3  1  0
  7  4  1  0
  1 10  1  0
  3 11  1  0
  4 12  1  0
  6 13  1  0
  8 14  1  0
  8 15  1  0
  8 16  1  0
  9 17  1  0
M  END
