
     RDKit          3D

 18 17  0  0  0  0  0  0  0  0999 V2000
   -3.2091   -1.0023   -0.2842 C   0  0  0  0  0  0  0  0  0  0  0  0
   -2.2740   -1.4471    0.3047 C   0  0  0  0  0  0  0  0  0  0  0  0
   -1.1193   -2.0001    1.0057 C   0  0  0  0  0  0  0  0  0  0  0  0
    0.1067   -2.0227    0.1064 C   0  0  0  0  0  0  0  0  0  0  0  0
    0.4527   -0.6620   -0.3372 C   0  0  0  0  0  0  0  0  0  0  0  0
    0.7402    0.4562   -0.6821 C   0  0  0  0  0  0  0  0  0  0  0  0
    1.1127    1.8326   -1.0924 C   0  0  0  0  0  0  0  0  0  0  0  0
    1.7510    2.5343    0.0829 C   0  0  0  0  0  0  0  0  0  0  0  0
   -4.0166   -0.6007   -0.8072 H   0  0  0  0  0  0  0  0  0  0  0  0
   -1.2858   -3.0242    1.3672 H   0  0  0  0  0  0  0  0  0  0  0  0
   -0.9497   -1.3560    1.8922 H   0  0  0  0  0  0  0  0  0  0  0  0
    0.9449   -2.5148    0.6396 H   0  0  0  0  0  0  0  0  0  0  0  0
   -0.0897   -2.6008   -0.8167 H   0  0  0  0  0  0  0  0  0  0  0  0
    0.2141    2.4214   -1.3681 H   0  0  0  0  0  0  0  0  0  0  0  0
    1.8654    1.7919   -1.8995 H   0  0  0  0  0  0  0  0  0  0  0  0
    1.4456    3.5896    0.1173 H   0  0  0  0  0  0  0  0  0  0  0  0
    2.8707    2.5276   -0.0037 H   0  0  0  0  0  0  0  0  0  0  0  0
    1.4402    2.0771    1.0539 H   0  0  0  0  0  0  0  0  0  0  0  0
  1  2  3  0
  2  3  1  0
  3  4  1  0
  4  5  1  0
  5  6  3  0
  6  7  1  0
  7  8  1  0
  1  9  1  0
  3 10  1  0
  3 11  1  0
  4 12  1  0
  4 13  1  0
  7 14  1  0
  7 15  1  0
  8 16  1  0
  8 17  1  0
  8 18  1  0
M  END
