
     RDKit          3D

 19 20  0  0  0  0  0  0  0  0999 V2000
    3.6077   -0.2727    0.0782 C   0  0  0  0  0  0  0  0  0  0  0  0
    2.4079   -0.3324    0.1435 C   0  0  0  0  0  0  0  0  0  0  0  0
    1.0092   -0.4263    0.2230 C   0  0  0  0  0  0  0  0  0  0  0  0
    0.2099   -0.2058   -1.0717 C   0  0  0  0  0  0  0  0  0  0  0  0
   -0.8853    0.1148   -0.0449 C   0  0  0  0  0  0  0  0  0  0  0  0
   -2.0337    0.8641   -0.4492 C   0  0  0  0  0  0  0  0  0  0  0  0
   -0.9717   -1.1775    0.6874 C   0  0  0  0  0  0  0  0  0  0  0  0
    0.4060   -1.4971    0.8219 O   0  0  0  0  0  0  0  0  0  0  0  0
    0.2477    0.8160    0.7166 C   0  0  0  0  0  0  0  0  0  0  0  0
    4.6678   -0.2134    0.0032 H   0  0  0  0  0  0  0  0  0  0  0  0
    0.4831    0.6855   -1.6310 H   0  0  0  0  0  0  0  0  0  0  0  0
    0.0644   -1.1431   -1.6071 H   0  0  0  0  0  0  0  0  0  0  0  0
   -2.1774    0.8163   -1.5654 H   0  0  0  0  0  0  0  0  0  0  0  0
   -1.9102    1.9523   -0.2218 H   0  0  0  0  0  0  0  0  0  0  0  0
   -2.9472    0.5165    0.0727 H   0  0  0  0  0  0  0  0  0  0  0  0
   -1.4428   -1.9994    0.1263 H   0  0  0  0  0  0  0  0  0  0  0  0
   -1.3986   -1.0446    1.6965 H   0  0  0  0  0  0  0  0  0  0  0  0
    0.6168    1.7209    0.2354 H   0  0  0  0  0  0  0  0  0  0  0  0
    0.0464    0.8259    1.7863 H   0  0  0  0  0  0  0  0  0  0  0  0
  1  2  3  0
  2  3  1  0
  3  4  1  0
  4  5  1  0
  5  6  1  0
  5  7  1  0
  7  8  1  0
  5  9  1  0
  8  3  1  0
  9  3  1  0
  1 10  1  0
  4 11  1  0
  4 12  1  0
  6 13  1  0
  6 14  1  0
  6 15  1  0
  7 16  1  0
  7 17  1  0
  9 18  1  0
  9 19  1  0
M  END
