
     RDKit          3D

 13 14  0  0  0  0  0  0  0  0999 V2000
    1.4816   -2.1264   -0.5215 C   0  0  0  0  0  0  0  0  0  0  0  0
    1.0088   -1.0399   -0.2701 C   0  0  0  0  0  0  0  0  0  0  0  0
    0.4509    0.2802    0.0472 C   0  0  0  0  0  0  0  0  0  0  0  0
    1.1991    1.3155   -0.4694 O   0  0  0  0  0  0  0  0  0  0  0  0
    0.1218    0.3771    1.4905 C   0  0  0  0  0  0  0  0  0  0  0  0
    0.7251    0.4705    2.5202 O   0  0  0  0  0  0  0  0  0  0  0  0
   -1.3034    0.3084    1.1205 C   0  0  0  0  0  0  0  0  0  0  0  0
   -1.7566   -0.7123    0.2935 O   0  0  0  0  0  0  0  0  0  0  0  0
   -1.0451    0.3621   -0.2215 C   0  0  0  0  0  0  0  0  0  0  0  0
    1.9087   -3.0729   -0.7300 H   0  0  0  0  0  0  0  0  0  0  0  0
    0.7074    2.1466   -0.5907 H   0  0  0  0  0  0  0  0  0  0  0  0
   -2.0738    0.7478    1.7577 H   0  0  0  0  0  0  0  0  0  0  0  0
   -1.4246    0.9432   -1.0552 H   0  0  0  0  0  0  0  0  0  0  0  0
  1  2  3  0
  2  3  1  0
  3  4  1  0
  3  5  1  0
  5  6  2  0
  5  7  1  0
  7  8  1  0
  8  9  1  0
  9  3  1  0
  9  7  1  0
  1 10  1  0
  4 11  1  0
  7 12  1  0
  9 13  1  0
M  END
