
     RDKit          3D

 19 19  0  0  0  0  0  0  0  0999 V2000
   -2.1023    1.6475    0.9268 C   0  0  0  0  0  0  0  0  0  0  0  0
   -0.8694    1.3405    0.7360 C   0  0  0  0  0  0  0  0  0  0  0  0
    0.7003    0.9664    0.4831 C   0  0  0  0  0  0  0  0  0  0  0  0
    1.4076    1.8814    0.3204 C   0  0  0  0  0  0  0  0  0  0  0  0
    2.2878    3.0243    0.1432 C   0  0  0  0  0  0  0  0  0  0  0  0
    0.8496   -0.3009    1.3279 C   0  0  0  0  0  0  0  0  0  0  0  0
    0.6832   -0.4863   -0.1347 C   0  0  0  0  0  0  0  0  0  0  0  0
   -0.5962   -0.8656   -0.7650 C   0  0  0  0  0  0  0  0  0  0  0  0
   -0.7381   -2.2564   -1.2707 C   0  0  0  0  0  0  0  0  0  0  0  0
   -3.0827    1.8938    1.0968 H   0  0  0  0  0  0  0  0  0  0  0  0
    2.9087    3.8209    0.0022 H   0  0  0  0  0  0  0  0  0  0  0  0
    1.7672   -0.6881    1.7484 H   0  0  0  0  0  0  0  0  0  0  0  0
   -0.0292   -0.5245    2.0085 H   0  0  0  0  0  0  0  0  0  0  0  0
    1.5938   -0.7010   -0.7168 H   0  0  0  0  0  0  0  0  0  0  0  0
   -0.7337   -0.2126   -1.7031 H   0  0  0  0  0  0  0  0  0  0  0  0
   -1.4649   -0.6250   -0.1005 H   0  0  0  0  0  0  0  0  0  0  0  0
   -0.1425   -2.5325   -2.1553 H   0  0  0  0  0  0  0  0  0  0  0  0
   -0.5801   -3.0161   -0.4348 H   0  0  0  0  0  0  0  0  0  0  0  0
   -1.8590   -2.3657   -1.5125 H   0  0  0  0  0  0  0  0  0  0  0  0
  1  2  3  0
  2  3  1  0
  3  4  1  0
  4  5  3  0
  3  6  1  0
  6  7  1  0
  7  8  1  0
  8  9  1  0
  7  3  1  0
  1 10  1  0
  5 11  1  0
  6 12  1  0
  6 13  1  0
  7 14  1  0
  8 15  1  0
  8 16  1  0
  9 17  1  0
  9 18  1  0
  9 19  1  0
M  END
