
     RDKit          3D

 21 22  0  0  0  0  0  0  0  0999 V2000
    2.0852    1.6708   -1.4464 C   0  0  0  0  0  0  0  0  0  0  0  0
    1.7027    0.7623   -0.4414 C   0  0  0  0  0  0  0  0  0  0  0  0
    1.4576    0.1577    0.2072 C   0  0  0  0  0  0  0  0  0  0  0  0
    0.1403   -0.6404    0.4894 C   0  0  0  0  0  0  0  0  0  0  0  0
   -1.1106   -0.0080    0.8903 C   0  0  0  0  0  0  0  0  0  0  0  0
   -2.0924    0.7733    0.0921 C   0  0  0  0  0  0  0  0  0  0  0  0
   -1.0301    1.5636    0.7715 C   0  0  0  0  0  0  0  0  0  0  0  0
   -0.1103   -1.4568   -0.8424 C   0  0  0  0  0  0  0  0  0  0  0  0
    0.2374   -2.1586    0.4401 C   0  0  0  0  0  0  0  0  0  0  0  0
    2.4286    2.5224   -2.3662 H   0  0  0  0  0  0  0  0  0  0  0  0
    1.6087    0.5333    1.4929 H   0  0  0  0  0  0  0  0  0  0  0  0
    2.2694   -0.7892    0.5851 H   0  0  0  0  0  0  0  0  0  0  0  0
   -1.3668   -0.2228    2.0350 H   0  0  0  0  0  0  0  0  0  0  0  0
   -2.0593    0.7605   -1.0397 H   0  0  0  0  0  0  0  0  0  0  0  0
   -3.1430    0.7775    0.4085 H   0  0  0  0  0  0  0  0  0  0  0  0
   -0.1817    1.9924    0.1415 H   0  0  0  0  0  0  0  0  0  0  0  0
   -1.1104    2.0612    1.7151 H   0  0  0  0  0  0  0  0  0  0  0  0
    0.6445   -1.3540   -1.6697 H   0  0  0  0  0  0  0  0  0  0  0  0
   -1.1345   -1.4484   -1.1638 H   0  0  0  0  0  0  0  0  0  0  0  0
    1.2650   -2.6376    0.4146 H   0  0  0  0  0  0  0  0  0  0  0  0
   -0.5001   -2.8591    0.8826 H   0  0  0  0  0  0  0  0  0  0  0  0
  1  2  3  0
  2  3  1  0
  3  4  1  0
  4  5  1  0
  5  6  1  0
  6  7  1  0
  4  8  1  0
  8  9  1  0
  9  4  1  0
  7  5  1  0
  1 10  1  0
  3 11  1  0
  3 12  1  0
  5 13  1  0
  6 14  1  0
  6 15  1  0
  7 16  1  0
  7 17  1  0
  8 18  1  0
  8 19  1  0
  9 20  1  0
  9 21  1  0
M  END
