
     RDKit          3D

 21 20  0  0  0  0  0  0  0  0999 V2000
    2.7741    1.6927   -0.9491 C   0  0  0  0  0  0  0  0  0  0  0  0
    2.5362    0.6878   -0.3743 C   0  0  0  0  0  0  0  0  0  0  0  0
    2.2315   -0.5402    0.3527 C   0  0  0  0  0  0  0  0  0  0  0  0
    0.7737   -0.7307    0.6514 C   0  0  0  0  0  0  0  0  0  0  0  0
    0.0192   -0.6578   -0.6610 C   0  0  0  0  0  0  0  0  0  0  0  0
   -1.4541   -0.9071   -0.4599 C   0  0  0  0  0  0  0  0  0  0  0  0
   -2.1091    0.0440    0.4947 C   0  0  0  0  0  0  0  0  0  0  0  0
   -2.0815    1.4618    0.1426 C   0  0  0  0  0  0  0  0  0  0  0  0
   -2.7319    2.2337    0.8710 O   0  0  0  0  0  0  0  0  0  0  0  0
    2.9965    2.5777   -1.4594 H   0  0  0  0  0  0  0  0  0  0  0  0
    2.6682   -1.4226   -0.1690 H   0  0  0  0  0  0  0  0  0  0  0  0
    2.7184   -0.4335    1.3832 H   0  0  0  0  0  0  0  0  0  0  0  0
    0.6366   -1.7290    1.1377 H   0  0  0  0  0  0  0  0  0  0  0  0
    0.4568   -0.0059    1.4020 H   0  0  0  0  0  0  0  0  0  0  0  0
    0.1943    0.3520   -1.0531 H   0  0  0  0  0  0  0  0  0  0  0  0
    0.4541   -1.3859   -1.3620 H   0  0  0  0  0  0  0  0  0  0  0  0
   -1.9932   -0.8875   -1.4185 H   0  0  0  0  0  0  0  0  0  0  0  0
   -1.6394   -1.9376   -0.0542 H   0  0  0  0  0  0  0  0  0  0  0  0
   -3.1933   -0.2533    0.6446 H   0  0  0  0  0  0  0  0  0  0  0  0
   -1.6798   -0.1157    1.5414 H   0  0  0  0  0  0  0  0  0  0  0  0
   -1.5774    1.9571   -0.6607 H   0  0  0  0  0  0  0  0  0  0  0  0
  1  2  3  0
  2  3  1  0
  3  4  1  0
  4  5  1  0
  5  6  1  0
  6  7  1  0
  7  8  1  0
  8  9  2  0
  1 10  1  0
  3 11  1  0
  3 12  1  0
  4 13  1  0
  4 14  1  0
  5 15  1  0
  5 16  1  0
  6 17  1  0
  6 18  1  0
  7 19  1  0
  7 20  1  0
  8 21  1  0
M  END
