
     RDKit          3D

 21 21  0  0  0  0  0  0  0  0999 V2000
   -1.8398   -2.2767    0.3960 C   0  0  0  0  0  0  0  0  0  0  0  0
   -1.4304   -1.2202   -0.0458 C   0  0  0  0  0  0  0  0  0  0  0  0
   -0.9353    0.0578   -0.6079 C   0  0  0  0  0  0  0  0  0  0  0  0
   -1.0624    1.1805    0.3257 C   0  0  0  0  0  0  0  0  0  0  0  0
   -0.3971    1.0973    1.6467 C   0  0  0  0  0  0  0  0  0  0  0  0
    0.2201   -0.0997   -1.5018 C   0  0  0  0  0  0  0  0  0  0  0  0
    1.4318   -0.7106   -0.9373 C   0  0  0  0  0  0  0  0  0  0  0  0
    2.1919   -0.1572    0.1170 C   0  0  0  0  0  0  0  0  0  0  0  0
    2.6809   -0.0863   -1.2380 O   0  0  0  0  0  0  0  0  0  0  0  0
   -2.2070   -3.1865    0.7920 H   0  0  0  0  0  0  0  0  0  0  0  0
   -1.8070    0.2943   -1.3934 H   0  0  0  0  0  0  0  0  0  0  0  0
   -0.7526    2.1362   -0.1729 H   0  0  0  0  0  0  0  0  0  0  0  0
   -2.1751    1.3304    0.5189 H   0  0  0  0  0  0  0  0  0  0  0  0
   -0.0467    0.0699    1.8977 H   0  0  0  0  0  0  0  0  0  0  0  0
    0.4118    1.8413    1.8180 H   0  0  0  0  0  0  0  0  0  0  0  0
   -1.1650    1.3608    2.4375 H   0  0  0  0  0  0  0  0  0  0  0  0
   -0.0564   -0.7186   -2.4256 H   0  0  0  0  0  0  0  0  0  0  0  0
    0.5036    0.8858   -2.0036 H   0  0  0  0  0  0  0  0  0  0  0  0
    1.5576   -1.8257   -1.1674 H   0  0  0  0  0  0  0  0  0  0  0  0
    2.7735   -0.8387    0.7832 H   0  0  0  0  0  0  0  0  0  0  0  0
    2.1037    0.8659    0.4894 H   0  0  0  0  0  0  0  0  0  0  0  0
  1  2  3  0
  2  3  1  0
  3  4  1  0
  4  5  1  0
  3  6  1  0
  6  7  1  0
  7  8  1  0
  8  9  1  0
  9  7  1  0
  1 10  1  0
  3 11  1  0
  4 12  1  0
  4 13  1  0
  5 14  1  0
  5 15  1  0
  5 16  1  0
  6 17  1  0
  6 18  1  0
  7 19  1  0
  8 20  1  0
  8 21  1  0
M  END
