
     RDKit          3D

 15 16  0  0  0  0  0  0  0  0999 V2000
    3.2950    0.5953   -0.9904 C   0  0  0  0  0  0  0  0  0  0  0  0
    2.1290    0.3072   -1.1133 C   0  0  0  0  0  0  0  0  0  0  0  0
    0.7123   -0.0179   -1.2605 C   0  0  0  0  0  0  0  0  0  0  0  0
    0.3727   -0.2841   -2.4456 O   0  0  0  0  0  0  0  0  0  0  0  0
   -0.1607   -0.0341   -0.2256 C   0  0  0  0  0  0  0  0  0  0  0  0
   -0.9310   -1.2091    0.2938 C   0  0  0  0  0  0  0  0  0  0  0  0
   -1.2382   -0.0427    1.1721 C   0  0  0  0  0  0  0  0  0  0  0  0
   -1.3889    0.7887   -0.0529 C   0  0  0  0  0  0  0  0  0  0  0  0
    0.1363    0.2469    1.1060 O   0  0  0  0  0  0  0  0  0  0  0  0
    4.3197    0.8374   -0.8675 H   0  0  0  0  0  0  0  0  0  0  0  0
   -0.3047   -1.9642    0.7660 H   0  0  0  0  0  0  0  0  0  0  0  0
   -1.7332   -1.5919   -0.3426 H   0  0  0  0  0  0  0  0  0  0  0  0
   -1.7919   -0.0275    2.0133 H   0  0  0  0  0  0  0  0  0  0  0  0
   -2.2363    0.5568   -0.7221 H   0  0  0  0  0  0  0  0  0  0  0  0
   -1.1800    1.8393    0.1412 H   0  0  0  0  0  0  0  0  0  0  0  0
  1  2  3  0
  2  3  1  0
  3  4  2  0
  3  5  1  0
  5  6  1  0
  6  7  1  0
  7  8  1  0
  7  9  1  0
  8  5  1  0
  9  5  1  0
  1 10  1  0
  6 11  1  0
  6 12  1  0
  7 13  1  0
  8 14  1  0
  8 15  1  0
M  END
