
     RDKit          3D

 18 18  0  0  0  0  0  0  0  0999 V2000
   -0.2974    2.8254   -0.3940 C   0  0  0  0  0  0  0  0  0  0  0  0
   -0.2176    1.1902   -0.3842 C   0  0  0  0  0  0  0  0  0  0  0  0
   -0.1663   -0.1364   -0.3569 C   0  0  0  0  0  0  0  0  0  0  0  0
    0.0013   -0.0877    1.2970 C   0  0  0  0  0  0  0  0  0  0  0  0
    1.2001    0.9151    1.3595 C   0  0  0  0  0  0  0  0  0  0  0  0
    0.0931   -1.0859   -1.2147 C   0  0  0  0  0  0  0  0  0  0  0  0
   -0.8043   -1.9170   -0.1511 C   0  0  0  0  0  0  0  0  0  0  0  0
   -1.5292   -0.7524   -0.1430 O   0  0  0  0  0  0  0  0  0  0  0  0
   -0.3623    3.9000   -0.3863 H   0  0  0  0  0  0  0  0  0  0  0  0
    0.3189   -0.9376    1.7872 H   0  0  0  0  0  0  0  0  0  0  0  0
   -0.8767    0.4170    1.6187 H   0  0  0  0  0  0  0  0  0  0  0  0
    1.7774    0.6951    2.2290 H   0  0  0  0  0  0  0  0  0  0  0  0
    0.7229    1.9707    1.5472 H   0  0  0  0  0  0  0  0  0  0  0  0
    1.5420    0.9579    0.3177 H   0  0  0  0  0  0  0  0  0  0  0  0
   -0.6987   -1.1327   -2.1257 H   0  0  0  0  0  0  0  0  0  0  0  0
    0.9264   -1.7545   -1.5465 H   0  0  0  0  0  0  0  0  0  0  0  0
   -0.1712   -2.3442    0.5925 H   0  0  0  0  0  0  0  0  0  0  0  0
   -1.4583   -2.7229   -0.6417 H   0  0  0  0  0  0  0  0  0  0  0  0
  1  2  3  0
  2  3  1  0
  3  4  1  0
  4  5  1  0
  3  6  1  0
  6  7  1  0
  7  8  1  0
  8  3  1  0
  1  9  1  0
  4 10  1  0
  4 11  1  0
  5 12  1  0
  5 13  1  0
  5 14  1  0
  6 15  1  0
  6 16  1  0
  7 17  1  0
  7 18  1  0
M  END
