
     RDKit          3D

 17 18  0  0  0  0  0  0  0  0999 V2000
    2.6848    0.6395    1.0211 C   0  0  0  0  0  0  0  0  0  0  0  0
    1.6356    0.5104    0.4415 C   0  0  0  0  0  0  0  0  0  0  0  0
    0.3852    0.3790   -0.2606 C   0  0  0  0  0  0  0  0  0  0  0  0
    0.1939   -0.6555   -1.3255 C   0  0  0  0  0  0  0  0  0  0  0  0
   -0.6492   -1.4255   -0.3131 C   0  0  0  0  0  0  0  0  0  0  0  0
   -0.7393   -0.2416    0.5840 C   0  0  0  0  0  0  0  0  0  0  0  0
   -0.4850   -0.4443    1.9396 O   0  0  0  0  0  0  0  0  0  0  0  0
   -0.8111    1.1424    0.1183 C   0  0  0  0  0  0  0  0  0  0  0  0
   -1.6471    1.4994   -0.9588 O   0  0  0  0  0  0  0  0  0  0  0  0
    3.6193    0.7732    1.5357 H   0  0  0  0  0  0  0  0  0  0  0  0
   -0.4509   -0.2627   -2.1357 H   0  0  0  0  0  0  0  0  0  0  0  0
    1.0985   -1.1905   -1.6571 H   0  0  0  0  0  0  0  0  0  0  0  0
   -1.6117   -1.7585   -0.7501 H   0  0  0  0  0  0  0  0  0  0  0  0
   -0.0369   -2.2280    0.1556 H   0  0  0  0  0  0  0  0  0  0  0  0
   -1.3287   -0.7725    2.3314 H   0  0  0  0  0  0  0  0  0  0  0  0
   -0.7114    1.9355    0.8607 H   0  0  0  0  0  0  0  0  0  0  0  0
   -1.1461    2.0997   -1.5870 H   0  0  0  0  0  0  0  0  0  0  0  0
  1  2  3  0
  2  3  1  0
  3  4  1  0
  4  5  1  0
  5  6  1  0
  6  7  1  0
  6  8  1  0
  8  9  1  0
  6  3  1  0
  8  3  1  0
  1 10  1  0
  4 11  1  0
  4 12  1  0
  5 13  1  0
  5 14  1  0
  7 15  1  0
  8 16  1  0
  9 17  1  0
M  END
