
     RDKit          3D

 19 18  0  0  0  0  0  0  0  0999 V2000
    1.4007    2.9480    1.5999 C   0  0  0  0  0  0  0  0  0  0  0  0
    0.9186    1.7443    1.4242 C   0  0  0  0  0  0  0  0  0  0  0  0
    0.3465    0.3356    1.2429 C   0  0  0  0  0  0  0  0  0  0  0  0
    1.2660   -0.5038    1.7852 O   0  0  0  0  0  0  0  0  0  0  0  0
    0.2074    0.2031   -0.2336 C   0  0  0  0  0  0  0  0  0  0  0  0
   -0.3051   -1.0485   -0.8164 C   0  0  0  0  0  0  0  0  0  0  0  0
   -0.3798   -0.7783   -2.3411 C   0  0  0  0  0  0  0  0  0  0  0  0
   -1.6181   -1.3928   -0.3032 C   0  0  0  0  0  0  0  0  0  0  0  0
   -2.3989   -2.0145   -1.0446 O   0  0  0  0  0  0  0  0  0  0  0  0
    1.7561    3.8183    1.7431 H   0  0  0  0  0  0  0  0  0  0  0  0
   -0.6447    0.3815    1.7029 H   0  0  0  0  0  0  0  0  0  0  0  0
    1.6237   -0.1368    2.6222 H   0  0  0  0  0  0  0  0  0  0  0  0
   -0.4607    1.0558   -0.5507 H   0  0  0  0  0  0  0  0  0  0  0  0
    1.1806    0.4454   -0.7260 H   0  0  0  0  0  0  0  0  0  0  0  0
    0.4495   -1.8781   -0.6900 H   0  0  0  0  0  0  0  0  0  0  0  0
   -0.7483   -1.6407   -2.8894 H   0  0  0  0  0  0  0  0  0  0  0  0
   -1.1494    0.0316   -2.4261 H   0  0  0  0  0  0  0  0  0  0  0  0
    0.5860   -0.3890   -2.6345 H   0  0  0  0  0  0  0  0  0  0  0  0
   -2.0301   -1.1811    0.6610 H   0  0  0  0  0  0  0  0  0  0  0  0
  1  2  3  0
  2  3  1  0
  3  4  1  0
  3  5  1  0
  5  6  1  0
  6  7  1  0
  6  8  1  0
  8  9  2  0
  1 10  1  0
  3 11  1  0
  4 12  1  0
  5 13  1  0
  5 14  1  0
  6 15  1  0
  7 16  1  0
  7 17  1  0
  7 18  1  0
  8 19  1  0
M  END
