
     RDKit          3D

 17 18  0  0  0  0  0  0  0  0999 V2000
    2.8269    1.7612   -0.2817 C   0  0  0  0  0  0  0  0  0  0  0  0
    2.1725    0.7525   -0.4158 C   0  0  0  0  0  0  0  0  0  0  0  0
    1.3910   -0.4903   -0.5947 C   0  0  0  0  0  0  0  0  0  0  0  0
    0.5400   -0.4221   -1.8215 O   0  0  0  0  0  0  0  0  0  0  0  0
    0.0638   -0.5303   -0.4208 C   0  0  0  0  0  0  0  0  0  0  0  0
   -0.9586   -1.5734   -0.2889 C   0  0  0  0  0  0  0  0  0  0  0  0
   -1.9325   -0.6055   -0.6221 O   0  0  0  0  0  0  0  0  0  0  0  0
   -1.0346    0.3886   -0.1601 C   0  0  0  0  0  0  0  0  0  0  0  0
   -1.2984    0.5971    1.3132 C   0  0  0  0  0  0  0  0  0  0  0  0
    3.4147    2.6442   -0.1685 H   0  0  0  0  0  0  0  0  0  0  0  0
    2.0210   -1.4031   -0.6526 H   0  0  0  0  0  0  0  0  0  0  0  0
   -1.1030   -1.9027    0.7619 H   0  0  0  0  0  0  0  0  0  0  0  0
   -0.8813   -2.3913   -1.0299 H   0  0  0  0  0  0  0  0  0  0  0  0
   -1.1515    1.2819   -0.7984 H   0  0  0  0  0  0  0  0  0  0  0  0
   -1.2647    1.6539    1.6166 H   0  0  0  0  0  0  0  0  0  0  0  0
   -0.5308    0.0473    1.9241 H   0  0  0  0  0  0  0  0  0  0  0  0
   -2.2746    0.1920    1.6392 H   0  0  0  0  0  0  0  0  0  0  0  0
  1  2  3  0
  2  3  1  0
  3  4  1  0
  4  5  1  0
  5  6  1  0
  6  7  1  0
  7  8  1  0
  8  9  1  0
  5  3  1  0
  8  5  1  0
  1 10  1  0
  3 11  1  0
  6 12  1  0
  6 13  1  0
  8 14  1  0
  9 15  1  0
  9 16  1  0
  9 17  1  0
M  END
