
     RDKit          3D

 17 17  0  0  0  0  0  0  0  0999 V2000
   -0.3060    2.7957    0.0451 C   0  0  0  0  0  0  0  0  0  0  0  0
    0.1510    1.6647   -0.0525 C   0  0  0  0  0  0  0  0  0  0  0  0
    0.6867    0.3061   -0.1616 C   0  0  0  0  0  0  0  0  0  0  0  0
    2.1840    0.2820   -0.3141 C   0  0  0  0  0  0  0  0  0  0  0  0
   -0.0017   -0.4525   -1.0990 O   0  0  0  0  0  0  0  0  0  0  0  0
   -0.5705   -1.2902   -0.1345 C   0  0  0  0  0  0  0  0  0  0  0  0
   -2.0634   -1.1059   -0.0759 C   0  0  0  0  0  0  0  0  0  0  0  0
    0.2125   -0.6229    0.9166 C   0  0  0  0  0  0  0  0  0  0  0  0
    0.4633   -0.6702    2.1058 O   0  0  0  0  0  0  0  0  0  0  0  0
   -0.7023    3.7734    0.1481 H   0  0  0  0  0  0  0  0  0  0  0  0
    2.5908   -0.7209   -0.1136 H   0  0  0  0  0  0  0  0  0  0  0  0
    2.5981    1.0337    0.3832 H   0  0  0  0  0  0  0  0  0  0  0  0
    2.4701    0.5846   -1.3442 H   0  0  0  0  0  0  0  0  0  0  0  0
   -0.3292   -2.3549   -0.2951 H   0  0  0  0  0  0  0  0  0  0  0  0
   -2.5157   -1.4345    0.8614 H   0  0  0  0  0  0  0  0  0  0  0  0
   -2.3662   -0.0622   -0.2865 H   0  0  0  0  0  0  0  0  0  0  0  0
   -2.5013   -1.7260   -0.8877 H   0  0  0  0  0  0  0  0  0  0  0  0
  1  2  3  0
  2  3  1  0
  3  4  1  0
  3  5  1  0
  5  6  1  0
  6  7  1  0
  6  8  1  0
  8  9  2  0
  8  3  1  0
  1 10  1  0
  4 11  1  0
  4 12  1  0
  4 13  1  0
  6 14  1  0
  7 15  1  0
  7 16  1  0
  7 17  1  0
M  END
