
     RDKit          3D

 19 19  0  0  0  0  0  0  0  0999 V2000
    2.5720   -1.6985    0.1163 C   0  0  0  0  0  0  0  0  0  0  0  0
    2.1937   -0.5519    0.0545 C   0  0  0  0  0  0  0  0  0  0  0  0
    1.7269    0.8096   -0.0008 C   0  0  0  0  0  0  0  0  0  0  0  0
    0.5167    1.0369    0.5954 O   0  0  0  0  0  0  0  0  0  0  0  0
   -0.5392    0.3407    0.0928 C   0  0  0  0  0  0  0  0  0  0  0  0
   -0.8743    0.5586   -1.3624 C   0  0  0  0  0  0  0  0  0  0  0  0
   -0.7566   -1.0477    0.5916 C   0  0  0  0  0  0  0  0  0  0  0  0
   -2.0097   -0.7398    1.1247 O   0  0  0  0  0  0  0  0  0  0  0  0
   -1.7897    0.6046    0.9316 C   0  0  0  0  0  0  0  0  0  0  0  0
    2.9161   -2.7157    0.1573 H   0  0  0  0  0  0  0  0  0  0  0  0
    1.7441    1.1720   -1.0700 H   0  0  0  0  0  0  0  0  0  0  0  0
    2.4813    1.4548    0.5162 H   0  0  0  0  0  0  0  0  0  0  0  0
   -1.4507   -0.3551   -1.6885 H   0  0  0  0  0  0  0  0  0  0  0  0
   -1.5944    1.3991   -1.4203 H   0  0  0  0  0  0  0  0  0  0  0  0
   -0.0005    0.6756   -2.0087 H   0  0  0  0  0  0  0  0  0  0  0  0
   -0.8800   -1.7918   -0.2186 H   0  0  0  0  0  0  0  0  0  0  0  0
   -0.0408   -1.4165    1.3423 H   0  0  0  0  0  0  0  0  0  0  0  0
   -2.6204    1.0760    0.3860 H   0  0  0  0  0  0  0  0  0  0  0  0
   -1.5945    1.1891    1.8603 H   0  0  0  0  0  0  0  0  0  0  0  0
  1  2  3  0
  2  3  1  0
  3  4  1  0
  4  5  1  0
  5  6  1  0
  5  7  1  0
  7  8  1  0
  8  9  1  0
  9  5  1  0
  1 10  1  0
  3 11  1  0
  3 12  1  0
  6 13  1  0
  6 14  1  0
  6 15  1  0
  7 16  1  0
  7 17  1  0
  9 18  1  0
  9 19  1  0
M  END
