
     RDKit          3D

 21 21  0  0  0  0  0  0  0  0999 V2000
    3.0749   -0.3661   -1.2027 C   0  0  0  0  0  0  0  0  0  0  0  0
    1.9358   -0.7005   -1.0017 C   0  0  0  0  0  0  0  0  0  0  0  0
    0.4283   -1.1275   -0.7201 C   0  0  0  0  0  0  0  0  0  0  0  0
   -0.2675    0.1868   -1.1693 C   0  0  0  0  0  0  0  0  0  0  0  0
   -1.2199    0.6008   -0.0537 C   0  0  0  0  0  0  0  0  0  0  0  0
   -2.0838   -0.5189    0.4307 C   0  0  0  0  0  0  0  0  0  0  0  0
   -0.2865    1.1084    1.0500 C   0  0  0  0  0  0  0  0  0  0  0  0
    0.8142    0.0923    1.1812 C   0  0  0  0  0  0  0  0  0  0  0  0
    0.4069   -1.1463    0.6292 O   0  0  0  0  0  0  0  0  0  0  0  0
    4.0491   -0.0884   -1.3897 H   0  0  0  0  0  0  0  0  0  0  0  0
    0.2109   -1.8901   -1.3463 H   0  0  0  0  0  0  0  0  0  0  0  0
   -0.8110    0.0538   -2.0661 H   0  0  0  0  0  0  0  0  0  0  0  0
    0.5174    0.9641   -1.2707 H   0  0  0  0  0  0  0  0  0  0  0  0
   -1.8009    1.4610   -0.4140 H   0  0  0  0  0  0  0  0  0  0  0  0
   -1.8392   -1.5086   -0.0091 H   0  0  0  0  0  0  0  0  0  0  0  0
   -2.0441   -0.5767    1.5569 H   0  0  0  0  0  0  0  0  0  0  0  0
   -3.1371   -0.2691    0.1776 H   0  0  0  0  0  0  0  0  0  0  0  0
   -0.8259    1.2493    1.9972 H   0  0  0  0  0  0  0  0  0  0  0  0
    0.1614    2.0828    0.7389 H   0  0  0  0  0  0  0  0  0  0  0  0
    1.0240   -0.0248    2.2661 H   0  0  0  0  0  0  0  0  0  0  0  0
    1.6934    0.4180    0.6156 H   0  0  0  0  0  0  0  0  0  0  0  0
  1  2  3  0
  2  3  1  0
  3  4  1  0
  4  5  1  0
  5  6  1  0
  5  7  1  0
  7  8  1  0
  8  9  1  0
  9  3  1  0
  1 10  1  0
  3 11  1  0
  4 12  1  0
  4 13  1  0
  5 14  1  0
  6 15  1  0
  6 16  1  0
  6 17  1  0
  7 18  1  0
  7 19  1  0
  8 20  1  0
  8 21  1  0
M  END
