
     RDKit          3D

 19 20  0  0  0  0  0  0  0  0999 V2000
    3.1768    0.4529   -2.0514 C   0  0  0  0  0  0  0  0  0  0  0  0
    2.0290    0.4279   -1.8587 C   0  0  0  0  0  0  0  0  0  0  0  0
    0.6478    0.4067   -1.6037 C   0  0  0  0  0  0  0  0  0  0  0  0
   -0.2612   -0.7663   -1.4518 C   0  0  0  0  0  0  0  0  0  0  0  0
   -0.9810    0.2873   -0.4772 C   0  0  0  0  0  0  0  0  0  0  0  0
   -1.6971   -0.3840    0.6229 C   0  0  0  0  0  0  0  0  0  0  0  0
   -0.9347    0.0790    1.8273 C   0  0  0  0  0  0  0  0  0  0  0  0
    0.4869    0.1821    1.2321 C   0  0  0  0  0  0  0  0  0  0  0  0
    0.5066    0.2777    0.0005 C   0  0  0  0  0  0  0  0  0  0  0  0
    4.2873    0.4931   -2.2405 H   0  0  0  0  0  0  0  0  0  0  0  0
    0.0861    1.4108   -1.6940 H   0  0  0  0  0  0  0  0  0  0  0  0
    0.0625   -1.5171   -0.5819 H   0  0  0  0  0  0  0  0  0  0  0  0
   -0.8662   -1.2261   -2.1525 H   0  0  0  0  0  0  0  0  0  0  0  0
   -1.2966    1.1526   -0.9767 H   0  0  0  0  0  0  0  0  0  0  0  0
   -2.7715   -0.1825    0.6729 H   0  0  0  0  0  0  0  0  0  0  0  0
   -1.5556   -1.5064    0.5195 H   0  0  0  0  0  0  0  0  0  0  0  0
   -1.2271    1.0253    2.2622 H   0  0  0  0  0  0  0  0  0  0  0  0
   -0.9734   -0.7152    2.6137 H   0  0  0  0  0  0  0  0  0  0  0  0
    1.2812    0.1021    2.0576 H   0  0  0  0  0  0  0  0  0  0  0  0
  1  2  3  0
  2  3  1  0
  3  4  1  0
  4  5  1  0
  5  6  1  0
  6  7  1  0
  7  8  1  0
  8  9  2  0
  9  3  1  0
  9  5  1  0
  1 10  1  0
  3 11  1  0
  4 12  1  0
  4 13  1  0
  5 14  1  0
  6 15  1  0
  6 16  1  0
  7 17  1  0
  7 18  1  0
  8 19  1  0
M  END
