
     RDKit          3D

 17 18  0  0  0  0  0  0  0  0999 V2000
    2.7948    1.6307   -0.8411 C   0  0  0  0  0  0  0  0  0  0  0  0
    1.7519    1.3562   -0.2430 C   0  0  0  0  0  0  0  0  0  0  0  0
    0.5244    1.0565    0.4707 C   0  0  0  0  0  0  0  0  0  0  0  0
   -0.6429    0.9324   -0.4114 C   0  0  0  0  0  0  0  0  0  0  0  0
   -1.1789   -0.2378   -0.3099 C   0  0  0  0  0  0  0  0  0  0  0  0
   -1.9162   -1.5512   -0.3074 C   0  0  0  0  0  0  0  0  0  0  0  0
   -0.6683   -2.0953    0.1268 O   0  0  0  0  0  0  0  0  0  0  0  0
   -0.6077   -0.9414    0.9161 C   0  0  0  0  0  0  0  0  0  0  0  0
    0.6598   -0.2790    1.1689 C   0  0  0  0  0  0  0  0  0  0  0  0
    3.7305    1.8903   -1.3733 H   0  0  0  0  0  0  0  0  0  0  0  0
    0.3823    1.8267    1.2841 H   0  0  0  0  0  0  0  0  0  0  0  0
   -0.9482    1.7913   -1.0473 H   0  0  0  0  0  0  0  0  0  0  0  0
   -2.1681   -1.9580   -1.3060 H   0  0  0  0  0  0  0  0  0  0  0  0
   -2.7089   -1.5420    0.4387 H   0  0  0  0  0  0  0  0  0  0  0  0
   -1.3803   -0.9953    1.7550 H   0  0  0  0  0  0  0  0  0  0  0  0
    1.5323   -0.8767    0.8236 H   0  0  0  0  0  0  0  0  0  0  0  0
    0.8435   -0.0072    2.2737 H   0  0  0  0  0  0  0  0  0  0  0  0
  1  2  3  0
  2  3  1  0
  3  4  1  0
  4  5  2  0
  5  6  1  0
  6  7  1  0
  7  8  1  0
  8  9  1  0
  9  3  1  0
  8  5  1  0
  1 10  1  0
  3 11  1  0
  4 12  1  0
  6 13  1  0
  6 14  1  0
  8 15  1  0
  9 16  1  0
  9 17  1  0
M  END
