
     RDKit          3D

 17 16  0  0  0  0  0  0  0  0999 V2000
    2.8492    0.5937    0.4834 C   0  0  0  0  0  0  0  0  0  0  0  0
    1.7679    0.1145    0.2474 C   0  0  0  0  0  0  0  0  0  0  0  0
    0.4436   -0.4492   -0.0512 C   0  0  0  0  0  0  0  0  0  0  0  0
    0.5589   -1.1351   -1.2455 O   0  0  0  0  0  0  0  0  0  0  0  0
    0.0909   -1.3675    1.0481 C   0  0  0  0  0  0  0  0  0  0  0  0
   -0.0520   -2.5446    0.8145 O   0  0  0  0  0  0  0  0  0  0  0  0
   -0.5469    0.6774   -0.2160 C   0  0  0  0  0  0  0  0  0  0  0  0
   -1.8792    0.1451   -0.6689 C   0  0  0  0  0  0  0  0  0  0  0  0
   -0.6956    1.4010    0.9697 O   0  0  0  0  0  0  0  0  0  0  0  0
    3.7793    1.0107    0.6850 H   0  0  0  0  0  0  0  0  0  0  0  0
    0.3361   -0.5033   -1.9750 H   0  0  0  0  0  0  0  0  0  0  0  0
   -0.0372   -0.9913    2.0451 H   0  0  0  0  0  0  0  0  0  0  0  0
   -0.1540    1.3322   -1.0159 H   0  0  0  0  0  0  0  0  0  0  0  0
   -2.6645    0.3215    0.1013 H   0  0  0  0  0  0  0  0  0  0  0  0
   -1.8440   -0.9600   -0.8096 H   0  0  0  0  0  0  0  0  0  0  0  0
   -2.1821    0.6357   -1.6123 H   0  0  0  0  0  0  0  0  0  0  0  0
    0.2296    1.7191    1.1998 H   0  0  0  0  0  0  0  0  0  0  0  0
  1  2  3  0
  2  3  1  0
  3  4  1  0
  3  5  1  0
  5  6  2  0
  3  7  1  0
  7  8  1  0
  7  9  1  0
  1 10  1  0
  4 11  1  0
  5 12  1  0
  7 13  1  0
  8 14  1  0
  8 15  1  0
  8 16  1  0
  9 17  1  0
M  END
