
     RDKit          3D

 14 13  0  0  0  0  0  0  0  0999 V2000
    5.4399   -0.0319    0.8134 C   0  0  0  0  0  0  0  0  0  0  0  0
    4.2303   -0.0782    0.6273 C   0  0  0  0  0  0  0  0  0  0  0  0
    2.8390   -0.1497    0.4038 C   0  0  0  0  0  0  0  0  0  0  0  0
    1.6419   -0.2253    0.2272 C   0  0  0  0  0  0  0  0  0  0  0  0
    0.2350   -0.3373    0.0283 C   0  0  0  0  0  0  0  0  0  0  0  0
   -0.9561   -0.4502   -0.1292 C   0  0  0  0  0  0  0  0  0  0  0  0
   -2.4142   -0.5697   -0.3398 C   0  0  0  0  0  0  0  0  0  0  0  0
   -2.9012    0.7696   -0.8211 C   0  0  0  0  0  0  0  0  0  0  0  0
    6.4879    0.0100    0.9617 H   0  0  0  0  0  0  0  0  0  0  0  0
   -2.6553   -1.3218   -1.1000 H   0  0  0  0  0  0  0  0  0  0  0  0
   -2.8475   -0.8467    0.6402 H   0  0  0  0  0  0  0  0  0  0  0  0
   -2.9073    0.7801   -1.9312 H   0  0  0  0  0  0  0  0  0  0  0  0
   -2.2553    1.5573   -0.3948 H   0  0  0  0  0  0  0  0  0  0  0  0
   -3.9370    0.8938   -0.4323 H   0  0  0  0  0  0  0  0  0  0  0  0
  1  2  3  0
  2  3  1  0
  3  4  3  0
  4  5  1  0
  5  6  3  0
  6  7  1  0
  7  8  1  0
  1  9  1  0
  7 10  1  0
  7 11  1  0
  8 12  1  0
  8 13  1  0
  8 14  1  0
M  END
