
     RDKit          3D

 19 19  0  0  0  0  0  0  0  0999 V2000
    3.2809    1.4017   -0.7661 C   0  0  0  0  0  0  0  0  0  0  0  0
    2.2869    0.8630   -1.1766 C   0  0  0  0  0  0  0  0  0  0  0  0
    1.1124    0.2036   -1.6815 C   0  0  0  0  0  0  0  0  0  0  0  0
    0.4320   -0.5454   -0.7536 O   0  0  0  0  0  0  0  0  0  0  0  0
   -0.0184    0.2027    0.3291 C   0  0  0  0  0  0  0  0  0  0  0  0
    0.0350   -0.3977    1.6867 C   0  0  0  0  0  0  0  0  0  0  0  0
   -1.2856   -0.1396    0.9970 C   0  0  0  0  0  0  0  0  0  0  0  0
   -2.0558   -1.3824    0.6317 C   0  0  0  0  0  0  0  0  0  0  0  0
   -2.0693    0.9254    1.4401 O   0  0  0  0  0  0  0  0  0  0  0  0
    4.1633    1.8962   -0.4118 H   0  0  0  0  0  0  0  0  0  0  0  0
    1.4507   -0.5200   -2.4782 H   0  0  0  0  0  0  0  0  0  0  0  0
    0.4264    0.9028   -2.2430 H   0  0  0  0  0  0  0  0  0  0  0  0
    0.2491    1.2785    0.2706 H   0  0  0  0  0  0  0  0  0  0  0  0
    0.3532   -1.4506    1.8527 H   0  0  0  0  0  0  0  0  0  0  0  0
    0.1929    0.2422    2.5902 H   0  0  0  0  0  0  0  0  0  0  0  0
   -2.2914   -1.4024   -0.4732 H   0  0  0  0  0  0  0  0  0  0  0  0
   -2.9891   -1.4956    1.1798 H   0  0  0  0  0  0  0  0  0  0  0  0
   -1.4448   -2.2911    0.8027 H   0  0  0  0  0  0  0  0  0  0  0  0
   -1.8285    1.7086    0.8828 H   0  0  0  0  0  0  0  0  0  0  0  0
  1  2  3  0
  2  3  1  0
  3  4  1  0
  4  5  1  0
  5  6  1  0
  6  7  1  0
  7  8  1  0
  7  9  1  0
  7  5  1  0
  1 10  1  0
  3 11  1  0
  3 12  1  0
  5 13  1  0
  6 14  1  0
  6 15  1  0
  8 16  1  0
  8 17  1  0
  8 18  1  0
  9 19  1  0
M  END
