
     RDKit          3D

 13 12  0  0  0  0  0  0  0  0999 V2000
   -4.7001    1.1966   -0.6348 C   0  0  0  0  0  0  0  0  0  0  0  0
   -3.6025    0.7316   -0.3105 C   0  0  0  0  0  0  0  0  0  0  0  0
   -2.3841    0.2088    0.0591 C   0  0  0  0  0  0  0  0  0  0  0  0
   -1.2710   -0.2466    0.4012 C   0  0  0  0  0  0  0  0  0  0  0  0
   -0.0842   -0.7539    0.7790 C   0  0  0  0  0  0  0  0  0  0  0  0
    1.1847   -0.4497    0.5826 C   0  0  0  0  0  0  0  0  0  0  0  0
    2.3397   -0.1928    0.4045 C   0  0  0  0  0  0  0  0  0  0  0  0
    3.7712    0.1405    0.2049 C   0  0  0  0  0  0  0  0  0  0  0  0
    4.8520    0.3960    0.0734 C   0  0  0  0  0  0  0  0  0  0  0  0
   -5.7211    1.6222   -0.9162 H   0  0  0  0  0  0  0  0  0  0  0  0
   -0.1640   -1.9378    0.1629 H   0  0  0  0  0  0  0  0  0  0  0  0
   -0.1972   -1.3586    1.8348 H   0  0  0  0  0  0  0  0  0  0  0  0
    5.9766    0.6436   -0.0632 H   0  0  0  0  0  0  0  0  0  0  0  0
  1  2  3  0
  2  3  1  0
  3  4  3  0
  4  5  1  0
  5  6  1  0
  6  7  3  0
  7  8  1  0
  8  9  3  0
  1 10  1  0
  5 11  1  0
  5 12  1  0
  9 13  1  0
M  END
