
     RDKit          3D

 23 23  0  0  0  0  0  0  0  0999 V2000
    2.0613   -3.4494    1.3547 C   0  0  0  0  0  0  0  0  0  0  0  0
    1.6192   -2.3434    1.5314 C   0  0  0  0  0  0  0  0  0  0  0  0
    1.1135   -1.0114    1.7462 C   0  0  0  0  0  0  0  0  0  0  0  0
    0.7325   -0.3091    0.4815 C   0  0  0  0  0  0  0  0  0  0  0  0
    0.1955    1.1049    0.7070 C   0  0  0  0  0  0  0  0  0  0  0  0
    0.8737    2.1489   -0.1263 C   0  0  0  0  0  0  0  0  0  0  0  0
   -0.6420    0.0479    0.1379 C   0  0  0  0  0  0  0  0  0  0  0  0
   -1.0840    0.0653   -1.3139 C   0  0  0  0  0  0  0  0  0  0  0  0
   -2.5437    0.4640   -1.4110 C   0  0  0  0  0  0  0  0  0  0  0  0
    2.4572   -4.4150    1.2148 H   0  0  0  0  0  0  0  0  0  0  0  0
    0.2665   -1.0598    2.4756 H   0  0  0  0  0  0  0  0  0  0  0  0
    1.9220   -0.3902    2.2316 H   0  0  0  0  0  0  0  0  0  0  0  0
    1.4348   -0.4718   -0.3593 H   0  0  0  0  0  0  0  0  0  0  0  0
   -0.0220    1.4261    1.7430 H   0  0  0  0  0  0  0  0  0  0  0  0
    0.8584    3.1464    0.3645 H   0  0  0  0  0  0  0  0  0  0  0  0
    0.4796    2.2633   -1.1360 H   0  0  0  0  0  0  0  0  0  0  0  0
    1.9670    1.8658   -0.1640 H   0  0  0  0  0  0  0  0  0  0  0  0
   -1.4465   -0.3827    0.8039 H   0  0  0  0  0  0  0  0  0  0  0  0
   -0.4300    0.6371   -1.9663 H   0  0  0  0  0  0  0  0  0  0  0  0
   -1.0249   -1.0092   -1.6535 H   0  0  0  0  0  0  0  0  0  0  0  0
   -2.8628    0.8508   -0.4130 H   0  0  0  0  0  0  0  0  0  0  0  0
   -3.1992   -0.4130   -1.6538 H   0  0  0  0  0  0  0  0  0  0  0  0
   -2.7262    1.2346   -2.1794 H   0  0  0  0  0  0  0  0  0  0  0  0
  1  2  3  0
  2  3  1  0
  3  4  1  0
  4  5  1  0
  5  6  1  0
  5  7  1  0
  7  8  1  0
  8  9  1  0
  7  4  1  0
  1 10  1  0
  3 11  1  0
  3 12  1  0
  4 13  1  0
  5 14  1  0
  6 15  1  0
  6 16  1  0
  6 17  1  0
  7 18  1  0
  8 19  1  0
  8 20  1  0
  9 21  1  0
  9 22  1  0
  9 23  1  0
M  END
