
     RDKit          3D

 17 18  0  0  0  0  0  0  0  0999 V2000
    2.9868   -1.0335   -0.0806 C   0  0  0  0  0  0  0  0  0  0  0  0
    1.8901   -0.5327   -0.1858 C   0  0  0  0  0  0  0  0  0  0  0  0
    0.5536    0.0603   -0.2965 C   0  0  0  0  0  0  0  0  0  0  0  0
   -0.5691   -0.7516   -0.8604 C   0  0  0  0  0  0  0  0  0  0  0  0
   -1.7448   -0.6387    0.0532 C   0  0  0  0  0  0  0  0  0  0  0  0
   -1.4435    0.4651    0.9711 C   0  0  0  0  0  0  0  0  0  0  0  0
   -2.2225    1.0658    1.6668 O   0  0  0  0  0  0  0  0  0  0  0  0
    0.0074    0.7324    0.9066 C   0  0  0  0  0  0  0  0  0  0  0  0
    0.4736    1.5473   -0.2583 C   0  0  0  0  0  0  0  0  0  0  0  0
    3.9490   -1.4691    0.0148 H   0  0  0  0  0  0  0  0  0  0  0  0
   -0.7880   -0.4327   -1.9034 H   0  0  0  0  0  0  0  0  0  0  0  0
   -0.2421   -1.8202   -0.9103 H   0  0  0  0  0  0  0  0  0  0  0  0
   -2.6542   -0.4465   -0.5781 H   0  0  0  0  0  0  0  0  0  0  0  0
   -1.9700   -1.5988    0.5848 H   0  0  0  0  0  0  0  0  0  0  0  0
    0.6208    0.6641    1.8240 H   0  0  0  0  0  0  0  0  0  0  0  0
   -0.2749    2.0974   -0.8448 H   0  0  0  0  0  0  0  0  0  0  0  0
    1.4277    2.0913   -0.1031 H   0  0  0  0  0  0  0  0  0  0  0  0
  1  2  3  0
  2  3  1  0
  3  4  1  0
  4  5  1  0
  5  6  1  0
  6  7  2  0
  6  8  1  0
  8  9  1  0
  8  3  1  0
  9  3  1  0
  1 10  1  0
  4 11  1  0
  4 12  1  0
  5 13  1  0
  5 14  1  0
  8 15  1  0
  9 16  1  0
  9 17  1  0
M  END
