
     RDKit          3D

 19 19  0  0  0  0  0  0  0  0999 V2000
    2.8589    1.0029    0.4336 C   0  0  0  0  0  0  0  0  0  0  0  0
    2.3464    0.4873   -0.4435 C   0  0  0  0  0  0  0  0  0  0  0  0
    1.6521   -0.1797   -1.6250 C   0  0  0  0  0  0  0  0  0  0  0  0
    0.1560   -0.2310   -1.2724 C   0  0  0  0  0  0  0  0  0  0  0  0
   -0.3552    1.0211   -1.0809 O   0  0  0  0  0  0  0  0  0  0  0  0
   -1.3150    0.8762   -0.0939 C   0  0  0  0  0  0  0  0  0  0  0  0
   -0.7026   -0.2091    0.7824 C   0  0  0  0  0  0  0  0  0  0  0  0
   -1.7363   -0.9667    1.5556 C   0  0  0  0  0  0  0  0  0  0  0  0
   -0.0584   -0.9619   -0.1472 O   0  0  0  0  0  0  0  0  0  0  0  0
    3.3588    1.4791    1.2663 H   0  0  0  0  0  0  0  0  0  0  0  0
    2.0231   -1.2015   -1.6918 H   0  0  0  0  0  0  0  0  0  0  0  0
    1.8869    0.4240   -2.4748 H   0  0  0  0  0  0  0  0  0  0  0  0
   -0.4171   -0.6556   -2.1576 H   0  0  0  0  0  0  0  0  0  0  0  0
   -1.4072    1.7819    0.5547 H   0  0  0  0  0  0  0  0  0  0  0  0
   -2.3231    0.5979   -0.4614 H   0  0  0  0  0  0  0  0  0  0  0  0
   -0.0119    0.2613    1.5347 H   0  0  0  0  0  0  0  0  0  0  0  0
   -2.6202   -0.3557    1.7176 H   0  0  0  0  0  0  0  0  0  0  0  0
   -2.0219   -1.9238    1.0704 H   0  0  0  0  0  0  0  0  0  0  0  0
   -1.3135   -1.2464    2.5335 H   0  0  0  0  0  0  0  0  0  0  0  0
  1  2  3  0
  2  3  1  0
  3  4  1  0
  4  5  1  0
  5  6  1  0
  6  7  1  0
  7  8  1  0
  7  9  1  0
  9  4  1  0
  1 10  1  0
  3 11  1  0
  3 12  1  0
  4 13  1  0
  6 14  1  0
  6 15  1  0
  7 16  1  0
  8 17  1  0
  8 18  1  0
  8 19  1  0
M  END
