
     RDKit          3D

 17 17  0  0  0  0  0  0  0  0999 V2000
    3.6198    0.3027   -0.0203 C   0  0  0  0  0  0  0  0  0  0  0  0
    2.4465    0.1500   -0.2540 C   0  0  0  0  0  0  0  0  0  0  0  0
    1.0071   -0.0634   -0.5397 C   0  0  0  0  0  0  0  0  0  0  0  0
    0.2845    1.1674   -0.1380 C   0  0  0  0  0  0  0  0  0  0  0  0
   -0.9647    1.0405    0.2782 C   0  0  0  0  0  0  0  0  0  0  0  0
   -1.5961   -0.2858    0.3328 C   0  0  0  0  0  0  0  0  0  0  0  0
   -2.8348   -0.2871   -0.3150 O   0  0  0  0  0  0  0  0  0  0  0  0
   -0.7665   -1.3822   -0.2922 C   0  0  0  0  0  0  0  0  0  0  0  0
    0.5492   -1.1609    0.1654 O   0  0  0  0  0  0  0  0  0  0  0  0
    4.6543    0.4458    0.2020 H   0  0  0  0  0  0  0  0  0  0  0  0
    0.8743   -0.1755   -1.6331 H   0  0  0  0  0  0  0  0  0  0  0  0
    0.7168    2.1503   -0.1661 H   0  0  0  0  0  0  0  0  0  0  0  0
   -1.5203    1.9349    0.5800 H   0  0  0  0  0  0  0  0  0  0  0  0
   -1.7068   -0.5553    1.4131 H   0  0  0  0  0  0  0  0  0  0  0  0
   -2.8667    0.3856   -1.0346 H   0  0  0  0  0  0  0  0  0  0  0  0
   -1.1640   -2.3409    0.0828 H   0  0  0  0  0  0  0  0  0  0  0  0
   -0.7325   -1.3262   -1.3921 H   0  0  0  0  0  0  0  0  0  0  0  0
  1  2  3  0
  2  3  1  0
  3  4  1  0
  4  5  2  0
  5  6  1  0
  6  7  1  0
  6  8  1  0
  8  9  1  0
  9  3  1  0
  1 10  1  0
  3 11  1  0
  4 12  1  0
  5 13  1  0
  6 14  1  0
  7 15  1  0
  8 16  1  0
  8 17  1  0
M  END
