
     RDKit          3D

 14 15  0  0  0  0  0  0  0  0999 V2000
    2.9959   -0.3828    0.0613 C   0  0  0  0  0  0  0  0  0  0  0  0
    1.7796   -0.2298   -0.0558 C   0  0  0  0  0  0  0  0  0  0  0  0
    0.4158   -0.0438   -0.1689 C   0  0  0  0  0  0  0  0  0  0  0  0
   -0.1692    1.3104    0.1555 C   0  0  0  0  0  0  0  0  0  0  0  0
   -1.4597    1.0837   -0.0909 C   0  0  0  0  0  0  0  0  0  0  0  0
   -1.3860   -0.3427   -0.5894 C   0  0  0  0  0  0  0  0  0  0  0  0
   -0.5504   -0.9802    0.4738 C   0  0  0  0  0  0  0  0  0  0  0  0
   -0.2300   -0.3319   -1.3692 O   0  0  0  0  0  0  0  0  0  0  0  0
    4.0360   -0.5086    0.1449 H   0  0  0  0  0  0  0  0  0  0  0  0
    0.3480    2.2123    0.4972 H   0  0  0  0  0  0  0  0  0  0  0  0
   -2.3449    1.6825    0.0164 H   0  0  0  0  0  0  0  0  0  0  0  0
   -2.2793   -0.7976   -0.9280 H   0  0  0  0  0  0  0  0  0  0  0  0
   -0.3742   -2.0451    0.3523 H   0  0  0  0  0  0  0  0  0  0  0  0
   -0.7815   -0.6265    1.5009 H   0  0  0  0  0  0  0  0  0  0  0  0
  1  2  3  0
  2  3  1  0
  3  4  1  0
  4  5  2  0
  5  6  1  0
  6  7  1  0
  6  8  1  0
  7  3  1  0
  8  3  1  0
  1  9  1  0
  4 10  1  0
  5 11  1  0
  6 12  1  0
  7 13  1  0
  7 14  1  0
M  END
