
     RDKit          3D

 17 16  0  0  0  0  0  0  0  0999 V2000
    4.4427    0.4306    0.0458 C   0  0  0  0  0  0  0  0  0  0  0  0
    3.1747    0.3672    0.0695 C   0  0  0  0  0  0  0  0  0  0  0  0
    1.8822    0.3051    0.0744 C   0  0  0  0  0  0  0  0  0  0  0  0
    0.6203    0.2440    0.0672 C   0  0  0  0  0  0  0  0  0  0  0  0
   -0.9330    0.1930    0.0671 C   0  0  0  0  0  0  0  0  0  0  0  0
   -1.2378   -1.1695   -0.5673 C   0  0  0  0  0  0  0  0  0  0  0  0
   -1.4313    1.2321   -0.5464 O   0  0  0  0  0  0  0  0  0  0  0  0
   -1.1092    0.0747    1.5798 C   0  0  0  0  0  0  0  0  0  0  0  0
   -2.3414   -0.0474    2.0669 O   0  0  0  0  0  0  0  0  0  0  0  0
    5.5161    0.4954    0.0210 H   0  0  0  0  0  0  0  0  0  0  0  0
   -0.7604   -1.9854    0.0734 H   0  0  0  0  0  0  0  0  0  0  0  0
   -2.3009   -1.3947   -0.5105 H   0  0  0  0  0  0  0  0  0  0  0  0
   -0.8159   -1.2657   -1.5807 H   0  0  0  0  0  0  0  0  0  0  0  0
   -0.8710    1.4526   -1.3981 H   0  0  0  0  0  0  0  0  0  0  0  0
   -0.5821    1.0052    2.0470 H   0  0  0  0  0  0  0  0  0  0  0  0
   -0.4333   -0.7981    1.9304 H   0  0  0  0  0  0  0  0  0  0  0  0
   -2.8199    0.8607    2.0219 H   0  0  0  0  0  0  0  0  0  0  0  0
  1  2  3  0
  2  3  1  0
  3  4  3  0
  4  5  1  0
  5  6  1  0
  5  7  1  0
  5  8  1  0
  8  9  1  0
  1 10  1  0
  6 11  1  0
  6 12  1  0
  6 13  1  0
  7 14  1  0
  8 15  1  0
  8 16  1  0
  9 17  1  0
M  END
