
     RDKit          3D

 17 16  0  0  0  0  0  0  0  0999 V2000
    2.7001   -1.2846   -1.6815 C   0  0  0  0  0  0  0  0  0  0  0  0
    2.1569   -0.5107   -0.9325 C   0  0  0  0  0  0  0  0  0  0  0  0
    1.5135    0.3956   -0.0228 C   0  0  0  0  0  0  0  0  0  0  0  0
    2.0605    1.4907    0.2505 O   0  0  0  0  0  0  0  0  0  0  0  0
    0.2142    0.0671    0.6032 C   0  0  0  0  0  0  0  0  0  0  0  0
   -0.2014    1.2171    1.5058 C   0  0  0  0  0  0  0  0  0  0  0  0
   -0.8192   -0.2751   -0.3715 C   0  0  0  0  0  0  0  0  0  0  0  0
   -2.1805   -0.6307    0.0858 C   0  0  0  0  0  0  0  0  0  0  0  0
   -0.5663   -0.2690   -1.5548 O   0  0  0  0  0  0  0  0  0  0  0  0
    3.1810   -1.9600   -2.3608 H   0  0  0  0  0  0  0  0  0  0  0  0
    0.4437   -0.7902    1.3078 H   0  0  0  0  0  0  0  0  0  0  0  0
   -0.8176    0.9156    2.3467 H   0  0  0  0  0  0  0  0  0  0  0  0
    0.7045    1.7787    1.7808 H   0  0  0  0  0  0  0  0  0  0  0  0
   -0.8059    1.9110    0.8521 H   0  0  0  0  0  0  0  0  0  0  0  0
   -2.5204    0.2195    0.7426 H   0  0  0  0  0  0  0  0  0  0  0  0
   -2.1502   -1.5610    0.7236 H   0  0  0  0  0  0  0  0  0  0  0  0
   -2.9129   -0.7140   -0.7362 H   0  0  0  0  0  0  0  0  0  0  0  0
  1  2  3  0
  2  3  1  0
  3  4  2  0
  3  5  1  0
  5  6  1  0
  5  7  1  0
  7  8  1  0
  7  9  2  0
  1 10  1  0
  5 11  1  0
  6 12  1  0
  6 13  1  0
  6 14  1  0
  8 15  1  0
  8 16  1  0
  8 17  1  0
M  END
