
     RDKit          3D

 17 17  0  0  0  0  0  0  0  0999 V2000
    0.3027   -0.0530    3.0093 C   0  0  0  0  0  0  0  0  0  0  0  0
    0.6110   -0.4262    2.2769 C   0  0  0  0  0  0  0  0  0  0  0  0
    1.1102   -1.0383    1.1203 C   0  0  0  0  0  0  0  0  0  0  0  0
    0.3064   -0.3697   -0.0628 C   0  0  0  0  0  0  0  0  0  0  0  0
   -0.5676    0.5562    0.1922 C   0  0  0  0  0  0  0  0  0  0  0  0
   -1.2245    1.1238   -1.1001 C   0  0  0  0  0  0  0  0  0  0  0  0
   -0.7427    0.1830   -2.0931 C   0  0  0  0  0  0  0  0  0  0  0  0
   -1.1148   -0.0003   -3.2742 O   0  0  0  0  0  0  0  0  0  0  0  0
    0.3923   -0.6312   -1.4596 C   0  0  0  0  0  0  0  0  0  0  0  0
   -0.2347    0.6343    4.3456 H   0  0  0  0  0  0  0  0  0  0  0  0
    1.0239   -2.1089    1.0502 H   0  0  0  0  0  0  0  0  0  0  0  0
    2.1854   -0.7121    0.9143 H   0  0  0  0  0  0  0  0  0  0  0  0
   -0.8826    1.0108    1.0870 H   0  0  0  0  0  0  0  0  0  0  0  0
   -2.3019    1.2588   -0.9688 H   0  0  0  0  0  0  0  0  0  0  0  0
   -0.6788    2.1386   -1.2314 H   0  0  0  0  0  0  0  0  0  0  0  0
    0.5001   -1.5615   -1.9564 H   0  0  0  0  0  0  0  0  0  0  0  0
    1.3157   -0.0045   -1.8495 H   0  0  0  0  0  0  0  0  0  0  0  0
  1  2  3  0
  2  3  1  0
  3  4  1  0
  4  5  2  0
  5  6  1  0
  6  7  1  0
  7  8  2  0
  7  9  1  0
  9  4  1  0
  1 10  1  0
  3 11  1  0
  3 12  1  0
  5 13  1  0
  6 14  1  0
  6 15  1  0
  9 16  1  0
  9 17  1  0
M  END
