
     RDKit          3D

 17 18  0  0  0  0  0  0  0  0999 V2000
    2.3688   -0.8374    2.0596 C   0  0  0  0  0  0  0  0  0  0  0  0
    1.6790   -0.4998    1.1084 C   0  0  0  0  0  0  0  0  0  0  0  0
    0.8808   -0.1084   -0.0233 C   0  0  0  0  0  0  0  0  0  0  0  0
    1.5419    0.0571   -1.2139 O   0  0  0  0  0  0  0  0  0  0  0  0
    0.7520   -1.0408   -1.1407 C   0  0  0  0  0  0  0  0  0  0  0  0
   -0.7458   -0.7139   -1.2069 C   0  0  0  0  0  0  0  0  0  0  0  0
   -0.5828   -0.0958    0.1324 C   0  0  0  0  0  0  0  0  0  0  0  0
   -1.1392    1.2624    0.3746 C   0  0  0  0  0  0  0  0  0  0  0  0
   -0.8904    2.1683   -0.6246 O   0  0  0  0  0  0  0  0  0  0  0  0
    2.9756   -1.1370    2.8755 H   0  0  0  0  0  0  0  0  0  0  0  0
    1.0837   -2.0546   -1.0203 H   0  0  0  0  0  0  0  0  0  0  0  0
   -1.3893   -1.6151   -1.2605 H   0  0  0  0  0  0  0  0  0  0  0  0
   -0.9063   -0.0463   -2.0641 H   0  0  0  0  0  0  0  0  0  0  0  0
   -0.9174   -0.8004    0.9274 H   0  0  0  0  0  0  0  0  0  0  0  0
   -2.2515    1.1697    0.5498 H   0  0  0  0  0  0  0  0  0  0  0  0
   -0.7417    1.6075    1.3672 H   0  0  0  0  0  0  0  0  0  0  0  0
   -1.7174    2.6844   -0.8405 H   0  0  0  0  0  0  0  0  0  0  0  0
  1  2  3  0
  2  3  1  0
  3  4  1  0
  4  5  1  0
  5  6  1  0
  6  7  1  0
  7  8  1  0
  8  9  1  0
  5  3  1  0
  7  3  1  0
  1 10  1  0
  5 11  1  0
  6 12  1  0
  6 13  1  0
  7 14  1  0
  8 15  1  0
  8 16  1  0
  9 17  1  0
M  END
