
     RDKit          3D

 23 23  0  0  0  0  0  0  0  0999 V2000
   -0.6714   -1.7303    1.9021 C   0  0  0  0  0  0  0  0  0  0  0  0
   -0.7452   -0.8616    1.0922 C   0  0  0  0  0  0  0  0  0  0  0  0
   -0.8605    0.1963    0.1021 C   0  0  0  0  0  0  0  0  0  0  0  0
   -1.9528    1.1845    0.3705 C   0  0  0  0  0  0  0  0  0  0  0  0
   -0.8207   -0.3323   -1.3395 C   0  0  0  0  0  0  0  0  0  0  0  0
    0.6891   -0.1569   -1.2551 C   0  0  0  0  0  0  0  0  0  0  0  0
    1.3879   -1.3814   -0.7764 C   0  0  0  0  0  0  0  0  0  0  0  0
    0.4346    0.9104   -0.2208 C   0  0  0  0  0  0  0  0  0  0  0  0
    1.4180    1.0290    0.8856 C   0  0  0  0  0  0  0  0  0  0  0  0
   -0.5960   -2.5114    2.6106 H   0  0  0  0  0  0  0  0  0  0  0  0
   -2.8701    0.6918    0.8014 H   0  0  0  0  0  0  0  0  0  0  0  0
   -1.6829    1.9955    1.0513 H   0  0  0  0  0  0  0  0  0  0  0  0
   -2.3301    1.6663   -0.5773 H   0  0  0  0  0  0  0  0  0  0  0  0
   -1.1703   -1.3590   -1.4399 H   0  0  0  0  0  0  0  0  0  0  0  0
   -1.2351    0.4242   -2.0133 H   0  0  0  0  0  0  0  0  0  0  0  0
    1.1041    0.2140   -2.2033 H   0  0  0  0  0  0  0  0  0  0  0  0
    0.7471   -2.2840   -0.7662 H   0  0  0  0  0  0  0  0  0  0  0  0
    2.2864   -1.5537   -1.3940 H   0  0  0  0  0  0  0  0  0  0  0  0
    1.7557   -1.2440    0.2651 H   0  0  0  0  0  0  0  0  0  0  0  0
    0.2425    1.8773   -0.7275 H   0  0  0  0  0  0  0  0  0  0  0  0
    1.4469    2.0933    1.2230 H   0  0  0  0  0  0  0  0  0  0  0  0
    0.9893    0.4733    1.7711 H   0  0  0  0  0  0  0  0  0  0  0  0
    2.4335    0.6587    0.6383 H   0  0  0  0  0  0  0  0  0  0  0  0
  1  2  3  0
  2  3  1  0
  3  4  1  0
  3  5  1  0
  5  6  1  0
  6  7  1  0
  6  8  1  0
  8  9  1  0
  8  3  1  0
  1 10  1  0
  4 11  1  0
  4 12  1  0
  4 13  1  0
  5 14  1  0
  5 15  1  0
  6 16  1  0
  7 17  1  0
  7 18  1  0
  7 19  1  0
  8 20  1  0
  9 21  1  0
  9 22  1  0
  9 23  1  0
M  END
