
     RDKit          3D

 19 21  0  0  0  0  0  0  0  0999 V2000
    2.0735    1.8017    0.5854 C   0  0  0  0  0  0  0  0  0  0  0  0
    0.9477    0.7553   -0.2629 C   0  0  0  0  0  0  0  0  0  0  0  0
    0.2376    0.0987   -0.7868 C   0  0  0  0  0  0  0  0  0  0  0  0
   -1.2856    0.6313   -0.4194 C   0  0  0  0  0  0  0  0  0  0  0  0
   -1.2604    2.0211    0.1187 C   0  0  0  0  0  0  0  0  0  0  0  0
   -0.6749   -0.3653    0.5897 C   0  0  0  0  0  0  0  0  0  0  0  0
   -0.2982   -1.7676    0.2188 C   0  0  0  0  0  0  0  0  0  0  0  0
    0.9789   -2.2679   -0.0455 C   0  0  0  0  0  0  0  0  0  0  0  0
    0.2330   -1.3667   -1.0691 C   0  0  0  0  0  0  0  0  0  0  0  0
    2.9197    2.6034    1.2502 H   0  0  0  0  0  0  0  0  0  0  0  0
   -2.0639    0.2703   -1.0615 H   0  0  0  0  0  0  0  0  0  0  0  0
   -1.8499    2.0035    1.1364 H   0  0  0  0  0  0  0  0  0  0  0  0
   -0.1309    2.1266    0.5508 H   0  0  0  0  0  0  0  0  0  0  0  0
   -1.4171    2.8826   -0.5151 H   0  0  0  0  0  0  0  0  0  0  0  0
   -0.2766   -0.0937    1.5810 H   0  0  0  0  0  0  0  0  0  0  0  0
   -1.2837   -2.4115    0.1567 H   0  0  0  0  0  0  0  0  0  0  0  0
    1.8585   -1.8298    0.4972 H   0  0  0  0  0  0  0  0  0  0  0  0
    1.2068   -3.2850   -0.4651 H   0  0  0  0  0  0  0  0  0  0  0  0
    0.0856   -1.8071   -2.0594 H   0  0  0  0  0  0  0  0  0  0  0  0
  1  2  3  0
  2  3  1  0
  3  4  1  0
  4  5  1  0
  4  6  1  0
  6  7  1  0
  7  8  1  0
  8  9  1  0
  6  3  1  0
  9  7  1  0
  9  3  1  0
  1 10  1  0
  4 11  1  0
  5 12  1  0
  5 13  1  0
  5 14  1  0
  6 15  1  0
  7 16  1  0
  8 17  1  0
  8 18  1  0
  9 19  1  0
M  END
