
     RDKit          3D

 21 21  0  0  0  0  0  0  0  0999 V2000
    3.0124    2.1627    1.4558 C   0  0  0  0  0  0  0  0  0  0  0  0
    2.3492    1.2371    0.9373 C   0  0  0  0  0  0  0  0  0  0  0  0
    1.5839    0.1470    0.3548 C   0  0  0  0  0  0  0  0  0  0  0  0
    0.1090    0.3193    0.5673 C   0  0  0  0  0  0  0  0  0  0  0  0
   -0.3273    1.5065   -0.0183 O   0  0  0  0  0  0  0  0  0  0  0  0
   -0.5411    0.7821   -1.1970 C   0  0  0  0  0  0  0  0  0  0  0  0
   -0.8069   -0.4244   -0.3227 C   0  0  0  0  0  0  0  0  0  0  0  0
   -2.2621   -0.4264    0.0672 C   0  0  0  0  0  0  0  0  0  0  0  0
   -0.3926   -1.7525   -0.8440 C   0  0  0  0  0  0  0  0  0  0  0  0
    3.5530    2.9385    1.8732 H   0  0  0  0  0  0  0  0  0  0  0  0
    1.9821   -0.7738    0.8536 H   0  0  0  0  0  0  0  0  0  0  0  0
    1.8884    0.0405   -0.7003 H   0  0  0  0  0  0  0  0  0  0  0  0
   -0.1533    0.3168    1.6600 H   0  0  0  0  0  0  0  0  0  0  0  0
   -1.4544    1.1593   -1.7201 H   0  0  0  0  0  0  0  0  0  0  0  0
    0.3248    0.6452   -1.8359 H   0  0  0  0  0  0  0  0  0  0  0  0
   -2.4528   -1.4437    0.5083 H   0  0  0  0  0  0  0  0  0  0  0  0
   -2.9473   -0.3308   -0.7912 H   0  0  0  0  0  0  0  0  0  0  0  0
   -2.4839    0.2826    0.8953 H   0  0  0  0  0  0  0  0  0  0  0  0
   -0.3884   -1.7076   -1.9519 H   0  0  0  0  0  0  0  0  0  0  0  0
    0.5628   -2.1391   -0.4402 H   0  0  0  0  0  0  0  0  0  0  0  0
   -1.1555   -2.5393   -0.5791 H   0  0  0  0  0  0  0  0  0  0  0  0
  1  2  3  0
  2  3  1  0
  3  4  1  0
  4  5  1  0
  5  6  1  0
  6  7  1  0
  7  8  1  0
  7  9  1  0
  7  4  1  0
  1 10  1  0
  3 11  1  0
  3 12  1  0
  4 13  1  0
  6 14  1  0
  6 15  1  0
  8 16  1  0
  8 17  1  0
  8 18  1  0
  9 19  1  0
  9 20  1  0
  9 21  1  0
M  END
