
     RDKit          3D

 21 21  0  0  0  0  0  0  0  0999 V2000
    3.2116    0.0672   -0.2762 C   0  0  0  0  0  0  0  0  0  0  0  0
    2.0343   -0.2544   -0.3284 C   0  0  0  0  0  0  0  0  0  0  0  0
    0.6249   -0.6362   -0.4162 C   0  0  0  0  0  0  0  0  0  0  0  0
    0.2005   -1.3072    0.8700 C   0  0  0  0  0  0  0  0  0  0  0  0
   -1.0320   -1.8847    0.6567 O   0  0  0  0  0  0  0  0  0  0  0  0
   -1.8988   -1.1399   -0.0960 C   0  0  0  0  0  0  0  0  0  0  0  0
   -1.5904    0.3299   -0.1317 C   0  0  0  0  0  0  0  0  0  0  0  0
   -0.1758    0.6230   -0.5622 C   0  0  0  0  0  0  0  0  0  0  0  0
    0.4150    1.7736    0.2291 C   0  0  0  0  0  0  0  0  0  0  0  0
    4.2357    0.3486   -0.2442 H   0  0  0  0  0  0  0  0  0  0  0  0
    0.4090   -1.2915   -1.2716 H   0  0  0  0  0  0  0  0  0  0  0  0
    0.1251   -0.5747    1.7000 H   0  0  0  0  0  0  0  0  0  0  0  0
    0.9175   -2.1046    1.1598 H   0  0  0  0  0  0  0  0  0  0  0  0
   -1.9468   -1.5117   -1.1472 H   0  0  0  0  0  0  0  0  0  0  0  0
   -2.9143   -1.2450    0.3556 H   0  0  0  0  0  0  0  0  0  0  0  0
   -2.2587    0.7921   -0.8883 H   0  0  0  0  0  0  0  0  0  0  0  0
   -1.7993    0.8348    0.8287 H   0  0  0  0  0  0  0  0  0  0  0  0
   -0.1292    0.9141   -1.6446 H   0  0  0  0  0  0  0  0  0  0  0  0
    0.9410    1.4496    1.1303 H   0  0  0  0  0  0  0  0  0  0  0  0
   -0.4618    2.4333    0.4942 H   0  0  0  0  0  0  0  0  0  0  0  0
    1.0924    2.3836   -0.4178 H   0  0  0  0  0  0  0  0  0  0  0  0
  1  2  3  0
  2  3  1  0
  3  4  1  0
  4  5  1  0
  5  6  1  0
  6  7  1  0
  7  8  1  0
  8  9  1  0
  8  3  1  0
  1 10  1  0
  3 11  1  0
  4 12  1  0
  4 13  1  0
  6 14  1  0
  6 15  1  0
  7 16  1  0
  7 17  1  0
  8 18  1  0
  9 19  1  0
  9 20  1  0
  9 21  1  0
M  END
