
     RDKit          3D

 19 18  0  0  0  0  0  0  0  0999 V2000
   -0.8125    3.2025   -0.2788 C   0  0  0  0  0  0  0  0  0  0  0  0
   -0.7326    2.0014   -0.3134 C   0  0  0  0  0  0  0  0  0  0  0  0
   -0.6462    0.5151   -0.3421 C   0  0  0  0  0  0  0  0  0  0  0  0
   -1.8994   -0.0090    0.2576 C   0  0  0  0  0  0  0  0  0  0  0  0
   -2.0098   -1.4800    0.3207 C   0  0  0  0  0  0  0  0  0  0  0  0
   -1.1169   -2.1721   -0.0964 O   0  0  0  0  0  0  0  0  0  0  0  0
    0.5335    0.0663    0.1567 O   0  0  0  0  0  0  0  0  0  0  0  0
    1.4392   -0.4701   -0.7058 C   0  0  0  0  0  0  0  0  0  0  0  0
    2.6616   -0.9159    0.1087 C   0  0  0  0  0  0  0  0  0  0  0  0
   -0.8873    4.2773   -0.2579 H   0  0  0  0  0  0  0  0  0  0  0  0
   -0.6675    0.2906   -1.4499 H   0  0  0  0  0  0  0  0  0  0  0  0
   -2.1257    0.4574    1.2596 H   0  0  0  0  0  0  0  0  0  0  0  0
   -2.7338    0.3159   -0.4386 H   0  0  0  0  0  0  0  0  0  0  0  0
   -2.8838   -1.9529    0.7374 H   0  0  0  0  0  0  0  0  0  0  0  0
    1.8666    0.3570   -1.3569 H   0  0  0  0  0  0  0  0  0  0  0  0
    1.1275   -1.3023   -1.3259 H   0  0  0  0  0  0  0  0  0  0  0  0
    3.4553   -1.2319   -0.5961 H   0  0  0  0  0  0  0  0  0  0  0  0
    3.0337   -0.1179    0.7563 H   0  0  0  0  0  0  0  0  0  0  0  0
    2.3980   -1.8312    0.6989 H   0  0  0  0  0  0  0  0  0  0  0  0
  1  2  3  0
  2  3  1  0
  3  4  1  0
  4  5  1  0
  5  6  2  0
  3  7  1  0
  7  8  1  0
  8  9  1  0
  1 10  1  0
  3 11  1  0
  4 12  1  0
  4 13  1  0
  5 14  1  0
  8 15  1  0
  8 16  1  0
  9 17  1  0
  9 18  1  0
  9 19  1  0
M  END
