
     RDKit          3D

 14 14  0  0  0  0  0  0  0  0999 V2000
    2.5682    0.2493   -0.2974 C   0  0  0  0  0  0  0  0  0  0  0  0
    1.4499    0.0482    0.0460 C   0  0  0  0  0  0  0  0  0  0  0  0
    0.0914   -0.2148    0.4824 C   0  0  0  0  0  0  0  0  0  0  0  0
   -0.0363   -0.6289    1.8037 O   0  0  0  0  0  0  0  0  0  0  0  0
   -0.9061    0.8947    0.2085 C   0  0  0  0  0  0  0  0  0  0  0  0
   -1.1838    0.2423   -1.0957 C   0  0  0  0  0  0  0  0  0  0  0  0
   -1.5948    0.6045   -2.1772 O   0  0  0  0  0  0  0  0  0  0  0  0
   -0.7364   -1.0370   -0.4842 C   0  0  0  0  0  0  0  0  0  0  0  0
    3.5694    0.4239   -0.6143 H   0  0  0  0  0  0  0  0  0  0  0  0
    0.6098   -0.1332    2.3593 H   0  0  0  0  0  0  0  0  0  0  0  0
   -0.4516    1.8992    0.1016 H   0  0  0  0  0  0  0  0  0  0  0  0
   -1.7443    0.9152    0.9177 H   0  0  0  0  0  0  0  0  0  0  0  0
   -0.1189   -1.6001   -1.2089 H   0  0  0  0  0  0  0  0  0  0  0  0
   -1.5164   -1.6633   -0.0415 H   0  0  0  0  0  0  0  0  0  0  0  0
  1  2  3  0
  2  3  1  0
  3  4  1  0
  3  5  1  0
  5  6  1  0
  6  7  2  0
  6  8  1  0
  8  3  1  0
  1  9  1  0
  4 10  1  0
  5 11  1  0
  5 12  1  0
  8 13  1  0
  8 14  1  0
M  END
