
     RDKit          3D

 14 14  0  0  0  0  0  0  0  0999 V2000
    2.0404   -1.1071    0.2016 C   0  0  0  0  0  0  0  0  0  0  0  0
    0.9073   -0.9865    0.3728 C   0  0  0  0  0  0  0  0  0  0  0  0
   -0.8100   -0.7890    0.6597 C   0  0  0  0  0  0  0  0  0  0  0  0
   -0.5808    0.6676    1.2127 C   0  0  0  0  0  0  0  0  0  0  0  0
   -0.2152    1.4153    0.2287 C   0  0  0  0  0  0  0  0  0  0  0  0
   -0.1633    0.5967   -1.0627 C   0  0  0  0  0  0  0  0  0  0  0  0
   -1.0888   -0.6395   -0.6843 C   0  0  0  0  0  0  0  0  0  0  0  0
   -1.7129   -1.0565   -1.6105 O   0  0  0  0  0  0  0  0  0  0  0  0
    3.1249   -1.2298    0.0196 H   0  0  0  0  0  0  0  0  0  0  0  0
   -0.8495   -1.5076    1.4183 H   0  0  0  0  0  0  0  0  0  0  0  0
   -0.7626    0.8858    2.2488 H   0  0  0  0  0  0  0  0  0  0  0  0
    0.0879    2.4573    0.1366 H   0  0  0  0  0  0  0  0  0  0  0  0
   -0.7305    1.1251   -1.8355 H   0  0  0  0  0  0  0  0  0  0  0  0
    0.7531    0.1683   -1.3058 H   0  0  0  0  0  0  0  0  0  0  0  0
  1  2  3  0
  2  3  1  0
  3  4  1  0
  4  5  2  0
  5  6  1  0
  6  7  1  0
  7  8  2  0
  7  3  1  0
  1  9  1  0
  3 10  1  0
  4 11  1  0
  5 12  1  0
  6 13  1  0
  6 14  1  0
M  END
