
     RDKit          3D

 17 18  0  0  0  0  0  0  0  0999 V2000
    2.0474    2.2591    0.5754 C   0  0  0  0  0  0  0  0  0  0  0  0
    1.7695    1.0867    0.4708 C   0  0  0  0  0  0  0  0  0  0  0  0
    1.4061   -0.3407    0.3346 C   0  0  0  0  0  0  0  0  0  0  0  0
    0.7930   -0.7137    1.5237 O   0  0  0  0  0  0  0  0  0  0  0  0
    0.4227   -0.4294   -0.8146 C   0  0  0  0  0  0  0  0  0  0  0  0
   -0.1216   -1.6558   -1.0598 O   0  0  0  0  0  0  0  0  0  0  0  0
   -1.3756   -1.0437   -1.1608 C   0  0  0  0  0  0  0  0  0  0  0  0
   -2.0003   -0.6708    0.1196 C   0  0  0  0  0  0  0  0  0  0  0  0
   -0.8902    0.1847   -0.4093 C   0  0  0  0  0  0  0  0  0  0  0  0
    2.2778    3.2889    0.6719 H   0  0  0  0  0  0  0  0  0  0  0  0
    2.3051   -0.9459    0.1895 H   0  0  0  0  0  0  0  0  0  0  0  0
    0.1779    0.0054    1.8711 H   0  0  0  0  0  0  0  0  0  0  0  0
    0.8893    0.0317   -1.7267 H   0  0  0  0  0  0  0  0  0  0  0  0
   -1.8043   -0.8155   -2.1377 H   0  0  0  0  0  0  0  0  0  0  0  0
   -3.0021   -0.2010    0.0726 H   0  0  0  0  0  0  0  0  0  0  0  0
   -1.7628   -1.2339    1.0217 H   0  0  0  0  0  0  0  0  0  0  0  0
   -1.1321    1.1937   -0.8272 H   0  0  0  0  0  0  0  0  0  0  0  0
  1  2  3  0
  2  3  1  0
  3  4  1  0
  3  5  1  0
  5  6  1  0
  6  7  1  0
  7  8  1  0
  8  9  1  0
  9  5  1  0
  9  7  1  0
  1 10  1  0
  3 11  1  0
  4 12  1  0
  5 13  1  0
  7 14  1  0
  8 15  1  0
  8 16  1  0
  9 17  1  0
M  END
