
     RDKit          3D

 19 19  0  0  0  0  0  0  0  0999 V2000
    2.8319    2.6709    0.8291 C   0  0  0  0  0  0  0  0  0  0  0  0
    1.8530    1.9948    0.6257 C   0  0  0  0  0  0  0  0  0  0  0  0
    0.6574    1.1434    0.3899 C   0  0  0  0  0  0  0  0  0  0  0  0
    0.9288    0.3019   -0.7998 O   0  0  0  0  0  0  0  0  0  0  0  0
    0.7347   -0.2197    0.5768 C   0  0  0  0  0  0  0  0  0  0  0  0
   -0.3449   -1.2307    0.5965 C   0  0  0  0  0  0  0  0  0  0  0  0
   -0.0847   -2.3581   -0.1824 O   0  0  0  0  0  0  0  0  0  0  0  0
   -1.6400   -0.6751   -0.0058 C   0  0  0  0  0  0  0  0  0  0  0  0
   -1.4308   -0.2840   -1.4481 C   0  0  0  0  0  0  0  0  0  0  0  0
    3.6949    3.2693    1.0274 H   0  0  0  0  0  0  0  0  0  0  0  0
   -0.2586    1.7250    0.3120 H   0  0  0  0  0  0  0  0  0  0  0  0
    1.7259   -0.6545    0.9427 H   0  0  0  0  0  0  0  0  0  0  0  0
   -0.5699   -1.5714    1.6220 H   0  0  0  0  0  0  0  0  0  0  0  0
    0.6509   -2.2380   -0.8175 H   0  0  0  0  0  0  0  0  0  0  0  0
   -1.9733    0.2047    0.6083 H   0  0  0  0  0  0  0  0  0  0  0  0
   -2.4451   -1.4429    0.1071 H   0  0  0  0  0  0  0  0  0  0  0  0
   -2.4221   -0.4731   -1.9752 H   0  0  0  0  0  0  0  0  0  0  0  0
   -1.2475    0.7869   -1.5945 H   0  0  0  0  0  0  0  0  0  0  0  0
   -0.6605   -0.9495   -1.9219 H   0  0  0  0  0  0  0  0  0  0  0  0
  1  2  3  0
  2  3  1  0
  3  4  1  0
  4  5  1  0
  5  6  1  0
  6  7  1  0
  6  8  1  0
  8  9  1  0
  5  3  1  0
  1 10  1  0
  3 11  1  0
  5 12  1  0
  6 13  1  0
  7 14  1  0
  8 15  1  0
  8 16  1  0
  9 17  1  0
  9 18  1  0
  9 19  1  0
M  END
