
     RDKit          3D

 13 14  0  0  0  0  0  0  0  0999 V2000
    1.6764   -0.3295   -2.2865 C   0  0  0  0  0  0  0  0  0  0  0  0
    1.1680   -0.0694   -1.2225 C   0  0  0  0  0  0  0  0  0  0  0  0
    0.5338    0.2486    0.0551 C   0  0  0  0  0  0  0  0  0  0  0  0
   -0.6255    1.2161    0.0674 C   0  0  0  0  0  0  0  0  0  0  0  0
   -1.7498    0.4518    0.4968 O   0  0  0  0  0  0  0  0  0  0  0  0
   -1.3101   -0.5376    1.3807 C   0  0  0  0  0  0  0  0  0  0  0  0
   -1.8966   -1.0340    2.3547 O   0  0  0  0  0  0  0  0  0  0  0  0
    0.0462   -0.9016    0.9209 C   0  0  0  0  0  0  0  0  0  0  0  0
    1.1351   -0.1311    1.2284 O   0  0  0  0  0  0  0  0  0  0  0  0
    2.1160   -0.5735   -3.2402 H   0  0  0  0  0  0  0  0  0  0  0  0
   -0.4289    2.0322    0.7731 H   0  0  0  0  0  0  0  0  0  0  0  0
   -0.8244    1.5252   -0.9627 H   0  0  0  0  0  0  0  0  0  0  0  0
    0.1597   -1.8972    0.4347 H   0  0  0  0  0  0  0  0  0  0  0  0
  1  2  3  0
  2  3  1  0
  3  4  1  0
  4  5  1  0
  5  6  1  0
  6  7  2  0
  6  8  1  0
  8  9  1  0
  8  3  1  0
  9  3  1  0
  1 10  1  0
  4 11  1  0
  4 12  1  0
  8 13  1  0
M  END
