
     RDKit          3D

 19 20  0  0  0  0  0  0  0  0999 V2000
    3.2842   -0.9003   -0.2098 C   0  0  0  0  0  0  0  0  0  0  0  0
    1.9590   -0.6430   -0.2019 C   0  0  0  0  0  0  0  0  0  0  0  0
    0.8006   -0.4367   -0.2044 C   0  0  0  0  0  0  0  0  0  0  0  0
   -0.2042   -0.9849    0.8192 C   0  0  0  0  0  0  0  0  0  0  0  0
   -1.5142   -0.7325    0.1105 C   0  0  0  0  0  0  0  0  0  0  0  0
   -1.2666    0.4617   -0.7990 C   0  0  0  0  0  0  0  0  0  0  0  0
   -1.6877    1.6375   -0.1463 O   0  0  0  0  0  0  0  0  0  0  0  0
   -0.4579    1.7014    0.5841 C   0  0  0  0  0  0  0  0  0  0  0  0
    0.1715    0.9293   -0.5393 C   0  0  0  0  0  0  0  0  0  0  0  0
    4.3891   -1.1343   -0.2118 H   0  0  0  0  0  0  0  0  0  0  0  0
    0.2424   -1.0425   -1.1863 H   0  0  0  0  0  0  0  0  0  0  0  0
    0.0123   -2.1107    0.9080 H   0  0  0  0  0  0  0  0  0  0  0  0
   -0.1080   -0.5787    1.8092 H   0  0  0  0  0  0  0  0  0  0  0  0
   -1.7102   -1.6486   -0.5407 H   0  0  0  0  0  0  0  0  0  0  0  0
   -2.3183   -0.4986    0.8025 H   0  0  0  0  0  0  0  0  0  0  0  0
   -1.5684    0.3407   -1.8400 H   0  0  0  0  0  0  0  0  0  0  0  0
   -0.4533    1.3459    1.5903 H   0  0  0  0  0  0  0  0  0  0  0  0
   -0.1828    2.7842    0.5742 H   0  0  0  0  0  0  0  0  0  0  0  0
    0.6125    1.5102   -1.3185 H   0  0  0  0  0  0  0  0  0  0  0  0
  1  2  3  0
  2  3  1  0
  3  4  1  0
  4  5  1  0
  5  6  1  0
  6  7  1  0
  7  8  1  0
  8  9  1  0
  9  3  1  0
  9  6  1  0
  1 10  1  0
  3 11  1  0
  4 12  1  0
  4 13  1  0
  5 14  1  0
  5 15  1  0
  6 16  1  0
  8 17  1  0
  8 18  1  0
  9 19  1  0
M  END
