
     RDKit          3D

 19 18  0  0  0  0  0  0  0  0999 V2000
    3.3452    1.9063    1.0033 C   0  0  0  0  0  0  0  0  0  0  0  0
    3.0178    0.7464    1.0425 C   0  0  0  0  0  0  0  0  0  0  0  0
    2.6220   -0.6641    1.0645 C   0  0  0  0  0  0  0  0  0  0  0  0
    1.5752   -0.8975    0.1332 O   0  0  0  0  0  0  0  0  0  0  0  0
    0.3525   -0.2452    0.2212 C   0  0  0  0  0  0  0  0  0  0  0  0
    0.1532    0.5841    1.1546 O   0  0  0  0  0  0  0  0  0  0  0  0
   -0.6622   -0.5642   -0.7995 C   0  0  0  0  0  0  0  0  0  0  0  0
   -1.9466    0.2079   -0.5970 C   0  0  0  0  0  0  0  0  0  0  0  0
   -2.9289   -0.1777   -1.6824 C   0  0  0  0  0  0  0  0  0  0  0  0
    3.6260    2.9469    0.9821 H   0  0  0  0  0  0  0  0  0  0  0  0
    2.2642   -0.9015    2.0818 H   0  0  0  0  0  0  0  0  0  0  0  0
    3.4644   -1.3344    0.7426 H   0  0  0  0  0  0  0  0  0  0  0  0
   -0.8563   -1.6478   -0.8169 H   0  0  0  0  0  0  0  0  0  0  0  0
   -0.2548   -0.3116   -1.8140 H   0  0  0  0  0  0  0  0  0  0  0  0
   -2.4006   -0.0506    0.3735 H   0  0  0  0  0  0  0  0  0  0  0  0
   -1.7379    1.2935   -0.6097 H   0  0  0  0  0  0  0  0  0  0  0  0
   -3.5126   -1.0696   -1.3127 H   0  0  0  0  0  0  0  0  0  0  0  0
   -2.4189   -0.4490   -2.6170 H   0  0  0  0  0  0  0  0  0  0  0  0
   -3.7016    0.6280   -1.8284 H   0  0  0  0  0  0  0  0  0  0  0  0
  1  2  3  0
  2  3  1  0
  3  4  1  0
  4  5  1  0
  5  6  2  0
  5  7  1  0
  7  8  1  0
  8  9  1  0
  1 10  1  0
  3 11  1  0
  3 12  1  0
  7 13  1  0
  7 14  1  0
  8 15  1  0
  8 16  1  0
  9 17  1  0
  9 18  1  0
  9 19  1  0
M  END
