
     RDKit          3D

 17 16  0  0  0  0  0  0  0  0999 V2000
    4.1933   -1.5824    2.7498 C   0  0  0  0  0  0  0  0  0  0  0  0
    3.7349   -1.4222    2.1062 C   0  0  0  0  0  0  0  0  0  0  0  0
    2.7869   -1.0827    0.7926 C   0  0  0  0  0  0  0  0  0  0  0  0
    2.0108   -0.8281   -0.2849 C   0  0  0  0  0  0  0  0  0  0  0  0
    1.4971   -0.6511   -1.0066 C   0  0  0  0  0  0  0  0  0  0  0  0
   -0.0733   -0.0639   -0.5172 C   0  0  0  0  0  0  0  0  0  0  0  0
   -1.0831    0.3055   -0.2137 C   0  0  0  0  0  0  0  0  0  0  0  0
   -2.3277    0.7428    0.1465 C   0  0  0  0  0  0  0  0  0  0  0  0
   -3.0558    1.3824   -1.0208 C   0  0  0  0  0  0  0  0  0  0  0  0
    4.9388   -1.8414    3.8061 H   0  0  0  0  0  0  0  0  0  0  0  0
    1.5874    0.3311   -1.8294 H   0  0  0  0  0  0  0  0  0  0  0  0
    0.9276   -1.2576   -1.9624 H   0  0  0  0  0  0  0  0  0  0  0  0
   -3.0397   -0.0958    0.5311 H   0  0  0  0  0  0  0  0  0  0  0  0
   -2.4041    1.4790    1.0178 H   0  0  0  0  0  0  0  0  0  0  0  0
   -4.0837    1.6188   -0.7884 H   0  0  0  0  0  0  0  0  0  0  0  0
   -2.5379    2.3284   -1.4004 H   0  0  0  0  0  0  0  0  0  0  0  0
   -3.0718    0.6371   -1.8758 H   0  0  0  0  0  0  0  0  0  0  0  0
  1  2  3  0
  2  3  1  0
  3  4  3  0
  4  5  1  0
  5  6  1  0
  6  7  3  0
  7  8  1  0
  8  9  1  0
  1 10  1  0
  5 11  1  0
  5 12  1  0
  8 13  1  0
  8 14  1  0
  9 15  1  0
  9 16  1  0
  9 17  1  0
M  END
