
     RDKit          3D

 18 17  0  0  0  0  0  0  0  0999 V2000
   -0.2913    1.8589   -2.0674 C   0  0  0  0  0  0  0  0  0  0  0  0
   -0.0929    0.9315   -1.3969 C   0  0  0  0  0  0  0  0  0  0  0  0
    0.1760   -0.2422   -0.5688 C   0  0  0  0  0  0  0  0  0  0  0  0
    0.8751    0.1135    0.6614 C   0  0  0  0  0  0  0  0  0  0  0  0
    1.4531    0.4163    1.7090 C   0  0  0  0  0  0  0  0  0  0  0  0
    2.1391    0.7727    2.9410 C   0  0  0  0  0  0  0  0  0  0  0  0
   -1.1562   -0.9204   -0.2790 C   0  0  0  0  0  0  0  0  0  0  0  0
   -1.7788   -1.3123   -1.6063 C   0  0  0  0  0  0  0  0  0  0  0  0
   -0.4650    2.7643   -2.7168 H   0  0  0  0  0  0  0  0  0  0  0  0
    0.8591   -0.9366   -1.1191 H   0  0  0  0  0  0  0  0  0  0  0  0
    1.6116    0.4498    3.8497 H   0  0  0  0  0  0  0  0  0  0  0  0
    2.2555    1.9021    3.0259 H   0  0  0  0  0  0  0  0  0  0  0  0
    3.1566    0.3305    2.8754 H   0  0  0  0  0  0  0  0  0  0  0  0
   -1.0313   -1.7953    0.3690 H   0  0  0  0  0  0  0  0  0  0  0  0
   -1.8709   -0.1969    0.1866 H   0  0  0  0  0  0  0  0  0  0  0  0
   -2.8865   -1.4646   -1.4909 H   0  0  0  0  0  0  0  0  0  0  0  0
   -1.6282   -0.4536   -2.3152 H   0  0  0  0  0  0  0  0  0  0  0  0
   -1.3247   -2.2177   -2.0575 H   0  0  0  0  0  0  0  0  0  0  0  0
  1  2  3  0
  2  3  1  0
  3  4  1  0
  4  5  3  0
  5  6  1  0
  3  7  1  0
  7  8  1  0
  1  9  1  0
  3 10  1  0
  6 11  1  0
  6 12  1  0
  6 13  1  0
  7 14  1  0
  7 15  1  0
  8 16  1  0
  8 17  1  0
  8 18  1  0
M  END
