
     RDKit          3D

 13 14  0  0  0  0  0  0  0  0999 V2000
    2.8994   -0.3066    0.4635 C   0  0  0  0  0  0  0  0  0  0  0  0
    1.7144   -0.2017    0.2754 C   0  0  0  0  0  0  0  0  0  0  0  0
    0.3427   -0.0933    0.0696 C   0  0  0  0  0  0  0  0  0  0  0  0
   -0.2456    1.2531   -0.2496 C   0  0  0  0  0  0  0  0  0  0  0  0
   -1.5571    0.9199   -0.3473 C   0  0  0  0  0  0  0  0  0  0  0  0
   -1.4748   -0.5559   -0.0506 C   0  0  0  0  0  0  0  0  0  0  0  0
   -0.5568   -0.5626    1.0279 O   0  0  0  0  0  0  0  0  0  0  0  0
   -0.3505   -0.9884   -0.8802 C   0  0  0  0  0  0  0  0  0  0  0  0
   -0.1905   -1.7097   -1.8283 O   0  0  0  0  0  0  0  0  0  0  0  0
    3.9622   -0.3908    0.6161 H   0  0  0  0  0  0  0  0  0  0  0  0
    0.2285    2.2098   -0.3683 H   0  0  0  0  0  0  0  0  0  0  0  0
   -2.4086    1.5350   -0.5721 H   0  0  0  0  0  0  0  0  0  0  0  0
   -2.3635   -1.1088    0.0388 H   0  0  0  0  0  0  0  0  0  0  0  0
  1  2  3  0
  2  3  1  0
  3  4  1  0
  4  5  2  0
  5  6  1  0
  6  7  1  0
  6  8  1  0
  8  9  2  0
  7  3  1  0
  8  3  1  0
  1 10  1  0
  4 11  1  0
  5 12  1  0
  6 13  1  0
M  END
