
     RDKit          3D

 23 23  0  0  0  0  0  0  0  0999 V2000
    3.3581   -1.5833   -0.4878 C   0  0  0  0  0  0  0  0  0  0  0  0
    2.1761   -1.3276   -0.4263 C   0  0  0  0  0  0  0  0  0  0  0  0
    0.7701   -1.0072   -0.3348 C   0  0  0  0  0  0  0  0  0  0  0  0
    0.2474   -0.9081    1.0927 C   0  0  0  0  0  0  0  0  0  0  0  0
   -0.6380    0.2080    0.5683 C   0  0  0  0  0  0  0  0  0  0  0  0
   -1.9258   -0.3704    0.0780 C   0  0  0  0  0  0  0  0  0  0  0  0
   -0.8100    1.3739    1.5086 C   0  0  0  0  0  0  0  0  0  0  0  0
    0.4272    0.4635   -0.4406 C   0  0  0  0  0  0  0  0  0  0  0  0
    0.0076    0.9505   -1.7846 C   0  0  0  0  0  0  0  0  0  0  0  0
    4.4046   -1.8094   -0.5607 H   0  0  0  0  0  0  0  0  0  0  0  0
    0.0925   -1.5820   -1.0219 H   0  0  0  0  0  0  0  0  0  0  0  0
   -0.2976   -1.8108    1.4331 H   0  0  0  0  0  0  0  0  0  0  0  0
    1.0516   -0.5433    1.7576 H   0  0  0  0  0  0  0  0  0  0  0  0
   -1.8679   -0.9140   -0.8612 H   0  0  0  0  0  0  0  0  0  0  0  0
   -2.3946   -1.0699    0.8240 H   0  0  0  0  0  0  0  0  0  0  0  0
   -2.7025    0.4334   -0.0658 H   0  0  0  0  0  0  0  0  0  0  0  0
   -1.8527    1.3157    1.8993 H   0  0  0  0  0  0  0  0  0  0  0  0
   -0.7989    2.2914    0.8601 H   0  0  0  0  0  0  0  0  0  0  0  0
   -0.0574    1.4173    2.3029 H   0  0  0  0  0  0  0  0  0  0  0  0
    1.2273    1.0948   -0.0175 H   0  0  0  0  0  0  0  0  0  0  0  0
    0.8375    1.4864   -2.2749 H   0  0  0  0  0  0  0  0  0  0  0  0
   -0.8009    1.7142   -1.6185 H   0  0  0  0  0  0  0  0  0  0  0  0
   -0.4538    0.1767   -2.4299 H   0  0  0  0  0  0  0  0  0  0  0  0
  1  2  3  0
  2  3  1  0
  3  4  1  0
  4  5  1  0
  5  6  1  0
  5  7  1  0
  5  8  1  0
  8  9  1  0
  8  3  1  0
  1 10  1  0
  3 11  1  0
  4 12  1  0
  4 13  1  0
  6 14  1  0
  6 15  1  0
  6 16  1  0
  7 17  1  0
  7 18  1  0
  7 19  1  0
  8 20  1  0
  9 21  1  0
  9 22  1  0
  9 23  1  0
M  END
