
     RDKit          3D

 17 16  0  0  0  0  0  0  0  0999 V2000
    2.6771    0.5363   -1.7978 C   0  0  0  0  0  0  0  0  0  0  0  0
    1.8491   -0.2365   -1.9146 C   0  0  0  0  0  0  0  0  0  0  0  0
    0.7552   -1.2235   -2.0723 C   0  0  0  0  0  0  0  0  0  0  0  0
    0.7139   -2.0658   -2.9260 O   0  0  0  0  0  0  0  0  0  0  0  0
   -0.3412   -1.1027   -1.0550 C   0  0  0  0  0  0  0  0  0  0  0  0
   -0.0622    0.0191   -0.0833 C   0  0  0  0  0  0  0  0  0  0  0  0
   -1.1529    0.1519    0.9135 C   0  0  0  0  0  0  0  0  0  0  0  0
   -1.2129    1.0596    2.0174 C   0  0  0  0  0  0  0  0  0  0  0  0
   -2.1063   -0.6572    0.6956 O   0  0  0  0  0  0  0  0  0  0  0  0
    3.4900    1.3164   -1.6827 H   0  0  0  0  0  0  0  0  0  0  0  0
   -0.4010   -2.0436   -0.4984 H   0  0  0  0  0  0  0  0  0  0  0  0
   -1.2700   -0.9165   -1.6113 H   0  0  0  0  0  0  0  0  0  0  0  0
    0.9379   -0.0293    0.3775 H   0  0  0  0  0  0  0  0  0  0  0  0
   -0.1431    0.9714   -0.7131 H   0  0  0  0  0  0  0  0  0  0  0  0
   -1.1490    2.1468    1.6353 H   0  0  0  0  0  0  0  0  0  0  0  0
   -2.2085    1.0397    2.5619 H   0  0  0  0  0  0  0  0  0  0  0  0
   -0.3763    1.0338    2.7716 H   0  0  0  0  0  0  0  0  0  0  0  0
  1  2  3  0
  2  3  1  0
  3  4  2  0
  3  5  1  0
  5  6  1  0
  6  7  1  0
  7  8  1  0
  7  9  2  0
  1 10  1  0
  5 11  1  0
  5 12  1  0
  6 13  1  0
  6 14  1  0
  8 15  1  0
  8 16  1  0
  8 17  1  0
M  END
