
     RDKit          3D

 17 16  0  0  0  0  0  0  0  0999 V2000
    0.0402    2.8238    0.2583 C   0  0  0  0  0  0  0  0  0  0  0  0
   -0.4424    1.7383    0.4174 C   0  0  0  0  0  0  0  0  0  0  0  0
   -1.0656    0.3902    0.6311 C   0  0  0  0  0  0  0  0  0  0  0  0
   -0.5116   -0.5715   -0.3779 C   0  0  0  0  0  0  0  0  0  0  0  0
   -1.1786   -1.9546   -0.1848 C   0  0  0  0  0  0  0  0  0  0  0  0
    0.9272   -0.8015   -0.2765 C   0  0  0  0  0  0  0  0  0  0  0  0
    1.3314   -1.9997   -0.0691 O   0  0  0  0  0  0  0  0  0  0  0  0
    1.9198    0.2403   -0.3964 C   0  0  0  0  0  0  0  0  0  0  0  0
    2.7711    1.1052   -0.4896 C   0  0  0  0  0  0  0  0  0  0  0  0
    0.4476    3.7466    0.1054 H   0  0  0  0  0  0  0  0  0  0  0  0
   -2.1467    0.5173    0.4033 H   0  0  0  0  0  0  0  0  0  0  0  0
   -0.8880    0.0394    1.6465 H   0  0  0  0  0  0  0  0  0  0  0  0
   -0.7330   -0.2706   -1.4182 H   0  0  0  0  0  0  0  0  0  0  0  0
   -0.6072   -2.4708    0.5902 H   0  0  0  0  0  0  0  0  0  0  0  0
   -1.1593   -2.5292   -1.1139 H   0  0  0  0  0  0  0  0  0  0  0  0
   -2.2266   -1.8542    0.1269 H   0  0  0  0  0  0  0  0  0  0  0  0
    3.5215    1.8511   -0.5565 H   0  0  0  0  0  0  0  0  0  0  0  0
  1  2  3  0
  2  3  1  0
  3  4  1  0
  4  5  1  0
  4  6  1  0
  6  7  2  0
  6  8  1  0
  8  9  3  0
  1 10  1  0
  3 11  1  0
  3 12  1  0
  4 13  1  0
  5 14  1  0
  5 15  1  0
  5 16  1  0
  9 17  1  0
M  END
