
     RDKit          3D

 17 16  0  0  0  0  0  0  0  0999 V2000
   -3.2513   -0.5556   -1.3226 C   0  0  0  0  0  0  0  0  0  0  0  0
   -2.1400   -1.0668   -0.7608 C   0  0  0  0  0  0  0  0  0  0  0  0
   -0.8864   -1.6497   -0.1447 C   0  0  0  0  0  0  0  0  0  0  0  0
   -1.2817   -1.7208    1.3493 C   0  0  0  0  0  0  0  0  0  0  0  0
    0.0885   -0.5972   -0.3104 C   0  0  0  0  0  0  0  0  0  0  0  0
    1.0311    0.4520   -0.4606 C   0  0  0  0  0  0  0  0  0  0  0  0
    1.8713    1.4107   -0.6012 C   0  0  0  0  0  0  0  0  0  0  0  0
    3.1683    1.3886    0.0810 C   0  0  0  0  0  0  0  0  0  0  0  0
    3.4492    1.7915    1.1990 O   0  0  0  0  0  0  0  0  0  0  0  0
   -4.3229   -0.0776   -1.8747 H   0  0  0  0  0  0  0  0  0  0  0  0
   -0.7216   -2.5298   -0.6366 H   0  0  0  0  0  0  0  0  0  0  0  0
   -2.2070   -2.3078    1.5282 H   0  0  0  0  0  0  0  0  0  0  0  0
   -0.3878   -2.0545    1.9545 H   0  0  0  0  0  0  0  0  0  0  0  0
   -1.5593   -0.6724    1.6688 H   0  0  0  0  0  0  0  0  0  0  0  0
    1.3490    2.3171    0.1970 H   0  0  0  0  0  0  0  0  0  0  0  0
    1.7022    2.1697   -1.4607 H   0  0  0  0  0  0  0  0  0  0  0  0
    4.0982    0.9573   -0.4056 H   0  0  0  0  0  0  0  0  0  0  0  0
  1  2  3  0
  2  3  1  0
  3  4  1  0
  3  5  1  0
  5  6  3  0
  6  7  1  0
  7  8  1  0
  8  9  2  0
  1 10  1  0
  3 11  1  0
  4 12  1  0
  4 13  1  0
  4 14  1  0
  7 15  1  0
  7 16  1  0
  8 17  1  0
M  END
