
     RDKit          3D

 15 15  0  0  0  0  0  0  0  0999 V2000
    3.1059    1.1031    0.2848 C   0  0  0  0  0  0  0  0  0  0  0  0
    1.9921    0.7742    0.6561 C   0  0  0  0  0  0  0  0  0  0  0  0
    0.6708    0.4067    1.0814 C   0  0  0  0  0  0  0  0  0  0  0  0
    0.4513   -0.0020    2.2683 O   0  0  0  0  0  0  0  0  0  0  0  0
   -0.4232    0.5187    0.0964 C   0  0  0  0  0  0  0  0  0  0  0  0
   -1.6764    0.1465    0.5743 O   0  0  0  0  0  0  0  0  0  0  0  0
   -1.4351   -1.1403    0.0620 C   0  0  0  0  0  0  0  0  0  0  0  0
   -0.4871   -0.5670   -0.9413 C   0  0  0  0  0  0  0  0  0  0  0  0
   -1.1013   -0.0646   -2.1065 O   0  0  0  0  0  0  0  0  0  0  0  0
    4.0679    1.4029   -0.0407 H   0  0  0  0  0  0  0  0  0  0  0  0
   -0.4355    1.5455   -0.3262 H   0  0  0  0  0  0  0  0  0  0  0  0
   -0.9315   -1.8322    0.7486 H   0  0  0  0  0  0  0  0  0  0  0  0
   -2.3148   -1.5934   -0.4456 H   0  0  0  0  0  0  0  0  0  0  0  0
    0.4385   -1.1192   -1.1254 H   0  0  0  0  0  0  0  0  0  0  0  0
   -1.9215    0.4211   -1.8115 H   0  0  0  0  0  0  0  0  0  0  0  0
  1  2  3  0
  2  3  1  0
  3  4  2  0
  3  5  1  0
  5  6  1  0
  6  7  1  0
  7  8  1  0
  8  9  1  0
  8  5  1  0
  1 10  1  0
  5 11  1  0
  7 12  1  0
  7 13  1  0
  8 14  1  0
  9 15  1  0
M  END
