
     RDKit          3D

 17 17  0  0  0  0  0  0  0  0999 V2000
    4.1867    1.8746   -0.3384 C   0  0  0  0  0  0  0  0  0  0  0  0
    3.3942    1.1959   -0.1331 C   0  0  0  0  0  0  0  0  0  0  0  0
    2.3850    0.3046    0.1294 C   0  0  0  0  0  0  0  0  0  0  0  0
    1.1765   -0.7495    0.4343 C   0  0  0  0  0  0  0  0  0  0  0  0
    0.0610   -1.6899    0.7053 C   0  0  0  0  0  0  0  0  0  0  0  0
   -0.9173   -0.6348    0.1686 C   0  0  0  0  0  0  0  0  0  0  0  0
   -1.5905    0.6071    0.3204 C   0  0  0  0  0  0  0  0  0  0  0  0
   -2.1650   -0.5591   -0.5043 C   0  0  0  0  0  0  0  0  0  0  0  0
   -2.3368   -0.2857   -1.8981 O   0  0  0  0  0  0  0  0  0  0  0  0
    4.9568    2.5580   -0.5437 H   0  0  0  0  0  0  0  0  0  0  0  0
    0.4661   -2.0401    1.5422 H   0  0  0  0  0  0  0  0  0  0  0  0
    0.1790   -2.4019   -0.1928 H   0  0  0  0  0  0  0  0  0  0  0  0
   -0.1328   -0.1409   -0.9948 H   0  0  0  0  0  0  0  0  0  0  0  0
   -1.5608    1.5772   -0.3070 H   0  0  0  0  0  0  0  0  0  0  0  0
   -2.1505    0.8970    1.2639 H   0  0  0  0  0  0  0  0  0  0  0  0
   -3.0605   -1.0244   -0.0705 H   0  0  0  0  0  0  0  0  0  0  0  0
   -2.8910    0.5120   -1.9882 H   0  0  0  0  0  0  0  0  0  0  0  0
  1  2  3  0
  2  3  1  0
  3  4  3  0
  4  5  1  0
  5  6  1  0
  6  7  1  0
  7  8  1  0
  8  9  1  0
  8  6  1  0
  1 10  1  0
  5 11  1  0
  5 12  1  0
  6 13  1  0
  7 14  1  0
  7 15  1  0
  8 16  1  0
  9 17  1  0
M  END
