
     RDKit          3D

 21 21  0  0  0  0  0  0  0  0999 V2000
    0.7698    0.6786    2.4083 C   0  0  0  0  0  0  0  0  0  0  0  0
    0.0904   -0.0635    1.5648 C   0  0  0  0  0  0  0  0  0  0  0  0
   -0.6234   -0.8197    0.6730 C   0  0  0  0  0  0  0  0  0  0  0  0
   -0.9923   -2.2080    0.9940 C   0  0  0  0  0  0  0  0  0  0  0  0
   -1.2410   -0.0952   -0.5054 C   0  0  0  0  0  0  0  0  0  0  0  0
    0.1697    0.4177   -0.7002 C   0  0  0  0  0  0  0  0  0  0  0  0
    0.5593    1.0162   -1.9256 O   0  0  0  0  0  0  0  0  0  0  0  0
    0.9363    2.3499   -1.6205 C   0  0  0  0  0  0  0  0  0  0  0  0
    0.5823   -0.9782   -0.5267 C   0  0  0  0  0  0  0  0  0  0  0  0
    1.3651    1.3458    3.1597 H   0  0  0  0  0  0  0  0  0  0  0  0
   -0.5323   -2.3619    2.0479 H   0  0  0  0  0  0  0  0  0  0  0  0
   -2.0487   -2.4513    1.0061 H   0  0  0  0  0  0  0  0  0  0  0  0
   -0.3912   -2.9313    0.3581 H   0  0  0  0  0  0  0  0  0  0  0  0
   -1.9408    0.7068   -0.2299 H   0  0  0  0  0  0  0  0  0  0  0  0
   -1.5602   -0.8283   -1.2697 H   0  0  0  0  0  0  0  0  0  0  0  0
    0.4200    1.1498    0.0835 H   0  0  0  0  0  0  0  0  0  0  0  0
   -0.0842    2.7310   -1.1790 H   0  0  0  0  0  0  0  0  0  0  0  0
    1.3379    2.9261   -2.4081 H   0  0  0  0  0  0  0  0  0  0  0  0
    1.5822    2.3239   -0.7407 H   0  0  0  0  0  0  0  0  0  0  0  0
    1.4837   -1.2092    0.0104 H   0  0  0  0  0  0  0  0  0  0  0  0
    0.1174   -1.6992   -1.1997 H   0  0  0  0  0  0  0  0  0  0  0  0
  1  2  3  0
  2  3  1  0
  3  4  1  0
  3  5  1  0
  5  6  1  0
  6  7  1  0
  7  8  1  0
  6  9  1  0
  9  3  1  0
  1 10  1  0
  4 11  1  0
  4 12  1  0
  4 13  1  0
  5 14  1  0
  5 15  1  0
  6 16  1  0
  8 17  1  0
  8 18  1  0
  8 19  1  0
  9 20  1  0
  9 21  1  0
M  END
