
     RDKit          3D

 15 17  0  0  0  0  0  0  0  0999 V2000
    2.9290    1.1159    0.2026 C   0  0  0  0  0  0  0  0  0  0  0  0
    1.8050    0.7394    0.5212 C   0  0  0  0  0  0  0  0  0  0  0  0
    0.4300    0.2885    0.8850 C   0  0  0  0  0  0  0  0  0  0  0  0
    0.6390   -0.7650    1.7741 O   0  0  0  0  0  0  0  0  0  0  0  0
    0.0372   -1.1771    0.6588 C   0  0  0  0  0  0  0  0  0  0  0  0
   -1.3886   -0.6295    0.4937 C   0  0  0  0  0  0  0  0  0  0  0  0
   -1.8604    0.3768   -0.4530 C   0  0  0  0  0  0  0  0  0  0  0  0
   -0.4703    0.3565   -0.2792 C   0  0  0  0  0  0  0  0  0  0  0  0
    0.1748   -0.3137   -1.3770 O   0  0  0  0  0  0  0  0  0  0  0  0
    3.8985    1.4344   -0.0719 H   0  0  0  0  0  0  0  0  0  0  0  0
    0.4853   -1.7499   -0.1453 H   0  0  0  0  0  0  0  0  0  0  0  0
   -1.8312   -0.4063    1.4639 H   0  0  0  0  0  0  0  0  0  0  0  0
   -2.4035   -0.0593   -1.3329 H   0  0  0  0  0  0  0  0  0  0  0  0
   -2.3915    1.3336   -0.1600 H   0  0  0  0  0  0  0  0  0  0  0  0
   -0.0534    0.2016   -2.1800 H   0  0  0  0  0  0  0  0  0  0  0  0
  1  2  3  0
  2  3  1  0
  3  4  1  0
  4  5  1  0
  5  6  1  0
  6  7  1  0
  7  8  1  0
  8  9  1  0
  5  3  1  0
  8  6  1  0
  8  3  1  0
  1 10  1  0
  5 11  1  0
  6 12  1  0
  7 13  1  0
  7 14  1  0
  9 15  1  0
M  END
