
     RDKit          3D

 21 21  0  0  0  0  0  0  0  0999 V2000
    2.7720    0.8352    0.3330 C   0  0  0  0  0  0  0  0  0  0  0  0
    1.8504    0.7937   -0.4459 C   0  0  0  0  0  0  0  0  0  0  0  0
    0.7498    0.7275   -1.4019 C   0  0  0  0  0  0  0  0  0  0  0  0
    1.1296   -0.2066   -2.3839 O   0  0  0  0  0  0  0  0  0  0  0  0
   -0.4794    0.2291   -0.7491 C   0  0  0  0  0  0  0  0  0  0  0  0
   -0.9916    1.0361    0.3817 C   0  0  0  0  0  0  0  0  0  0  0  0
   -1.0672    0.0958    1.5407 C   0  0  0  0  0  0  0  0  0  0  0  0
   -1.1639   -1.3075    0.9889 C   0  0  0  0  0  0  0  0  0  0  0  0
   -0.3179   -1.1996   -0.2650 C   0  0  0  0  0  0  0  0  0  0  0  0
    3.5836    0.8631    1.0317 H   0  0  0  0  0  0  0  0  0  0  0  0
    0.5306    1.7220   -1.8672 H   0  0  0  0  0  0  0  0  0  0  0  0
    2.0130   -0.5781   -2.2323 H   0  0  0  0  0  0  0  0  0  0  0  0
   -1.2899    0.1859   -1.5340 H   0  0  0  0  0  0  0  0  0  0  0  0
   -2.0301    1.4211    0.2005 H   0  0  0  0  0  0  0  0  0  0  0  0
   -0.3266    1.8829    0.6772 H   0  0  0  0  0  0  0  0  0  0  0  0
   -0.1224    0.1534    2.1090 H   0  0  0  0  0  0  0  0  0  0  0  0
   -1.9598    0.2763    2.1803 H   0  0  0  0  0  0  0  0  0  0  0  0
   -0.7052   -1.9911    1.7222 H   0  0  0  0  0  0  0  0  0  0  0  0
   -2.1926   -1.6177    0.7655 H   0  0  0  0  0  0  0  0  0  0  0  0
   -0.7425   -1.9321   -0.9880 H   0  0  0  0  0  0  0  0  0  0  0  0
    0.7602   -1.3894   -0.0633 H   0  0  0  0  0  0  0  0  0  0  0  0
  1  2  3  0
  2  3  1  0
  3  4  1  0
  3  5  1  0
  5  6  1  0
  6  7  1  0
  7  8  1  0
  8  9  1  0
  9  5  1  0
  1 10  1  0
  3 11  1  0
  4 12  1  0
  5 13  1  0
  6 14  1  0
  6 15  1  0
  7 16  1  0
  7 17  1  0
  8 18  1  0
  8 19  1  0
  9 20  1  0
  9 21  1  0
M  END
