
     RDKit          3D

 19 19  0  0  0  0  0  0  0  0999 V2000
   -3.6204   -0.8379    0.2142 C   0  0  0  0  0  0  0  0  0  0  0  0
   -2.4208   -1.0432    0.4305 C   0  0  0  0  0  0  0  0  0  0  0  0
   -1.0293   -1.2708    0.7021 C   0  0  0  0  0  0  0  0  0  0  0  0
   -0.1589   -0.1042    0.3620 C   0  0  0  0  0  0  0  0  0  0  0  0
    1.3333   -0.3791    0.6584 C   0  0  0  0  0  0  0  0  0  0  0  0
    1.9814    0.6453    1.3417 O   0  0  0  0  0  0  0  0  0  0  0  0
    0.8295   -0.1345   -0.7298 C   0  0  0  0  0  0  0  0  0  0  0  0
    1.2323    1.2039   -1.3102 C   0  0  0  0  0  0  0  0  0  0  0  0
    0.1287    1.8695   -1.8417 O   0  0  0  0  0  0  0  0  0  0  0  0
   -4.6689   -0.6670    0.0422 H   0  0  0  0  0  0  0  0  0  0  0  0
   -0.9420   -1.4417    1.8166 H   0  0  0  0  0  0  0  0  0  0  0  0
   -0.6987   -2.2180    0.2380 H   0  0  0  0  0  0  0  0  0  0  0  0
   -0.5419    0.8863    0.6850 H   0  0  0  0  0  0  0  0  0  0  0  0
    1.6589   -1.3833    0.9086 H   0  0  0  0  0  0  0  0  0  0  0  0
    2.8386    0.8736    0.8663 H   0  0  0  0  0  0  0  0  0  0  0  0
    0.8967   -1.0127   -1.4395 H   0  0  0  0  0  0  0  0  0  0  0  0
    2.0704    1.1239   -2.0514 H   0  0  0  0  0  0  0  0  0  0  0  0
    1.5920    1.8490   -0.4820 H   0  0  0  0  0  0  0  0  0  0  0  0
   -0.4810    2.0410   -1.0553 H   0  0  0  0  0  0  0  0  0  0  0  0
  1  2  3  0
  2  3  1  0
  3  4  1  0
  4  5  1  0
  5  6  1  0
  5  7  1  0
  7  8  1  0
  8  9  1  0
  7  4  1  0
  1 10  1  0
  3 11  1  0
  3 12  1  0
  4 13  1  0
  5 14  1  0
  6 15  1  0
  7 16  1  0
  8 17  1  0
  8 18  1  0
  9 19  1  0
M  END
