
     RDKit          3D

 21 20  0  0  0  0  0  0  0  0999 V2000
   -1.0131   -1.7631    1.7828 C   0  0  0  0  0  0  0  0  0  0  0  0
   -0.5325   -0.9774    0.9345 C   0  0  0  0  0  0  0  0  0  0  0  0
    0.0118   -0.0741   -0.0051 C   0  0  0  0  0  0  0  0  0  0  0  0
   -0.6925    1.2660    0.1508 C   0  0  0  0  0  0  0  0  0  0  0  0
   -0.4322    1.7270    1.5808 C   0  0  0  0  0  0  0  0  0  0  0  0
   -1.0314    2.9593    1.8070 O   0  0  0  0  0  0  0  0  0  0  0  0
   -0.1880   -0.5886   -1.4137 C   0  0  0  0  0  0  0  0  0  0  0  0
    0.3892   -1.7972   -1.6469 O   0  0  0  0  0  0  0  0  0  0  0  0
    1.7639   -1.7714   -1.3739 C   0  0  0  0  0  0  0  0  0  0  0  0
   -1.4084   -2.4344    2.5179 H   0  0  0  0  0  0  0  0  0  0  0  0
    1.1201    0.0577    0.0990 H   0  0  0  0  0  0  0  0  0  0  0  0
   -0.2911    2.0537   -0.5233 H   0  0  0  0  0  0  0  0  0  0  0  0
   -1.7660    1.1097    0.0414 H   0  0  0  0  0  0  0  0  0  0  0  0
    0.6864    1.8052    1.7368 H   0  0  0  0  0  0  0  0  0  0  0  0
   -0.7931    0.9841    2.2912 H   0  0  0  0  0  0  0  0  0  0  0  0
   -1.1823    3.3482    0.8830 H   0  0  0  0  0  0  0  0  0  0  0  0
    0.2480    0.2111   -2.0883 H   0  0  0  0  0  0  0  0  0  0  0  0
   -1.2721   -0.6375   -1.6932 H   0  0  0  0  0  0  0  0  0  0  0  0
    2.2763   -0.9998   -1.9692 H   0  0  0  0  0  0  0  0  0  0  0  0
    2.1372   -2.7878   -1.7334 H   0  0  0  0  0  0  0  0  0  0  0  0
    1.9700   -1.6907   -0.2836 H   0  0  0  0  0  0  0  0  0  0  0  0
  1  2  3  0
  2  3  1  0
  3  4  1  0
  4  5  1  0
  5  6  1  0
  3  7  1  0
  7  8  1  0
  8  9  1  0
  1 10  1  0
  3 11  1  0
  4 12  1  0
  4 13  1  0
  5 14  1  0
  5 15  1  0
  6 16  1  0
  7 17  1  0
  7 18  1  0
  9 19  1  0
  9 20  1  0
  9 21  1  0
M  END
