
     RDKit          3D

 17 16  0  0  0  0  0  0  0  0999 V2000
   -1.5666    0.5811    2.0904 C   0  0  0  0  0  0  0  0  0  0  0  0
   -0.9155   -0.1766    1.7236 C   0  0  0  0  0  0  0  0  0  0  0  0
    0.0356   -1.2457    1.2092 C   0  0  0  0  0  0  0  0  0  0  0  0
   -0.3513   -1.7009    0.0081 O   0  0  0  0  0  0  0  0  0  0  0  0
   -0.4200   -0.8728   -1.0484 C   0  0  0  0  0  0  0  0  0  0  0  0
    0.7995   -0.2163   -1.5582 C   0  0  0  0  0  0  0  0  0  0  0  0
    1.4643    0.6266   -0.6641 O   0  0  0  0  0  0  0  0  0  0  0  0
    0.9387    1.8068   -0.1585 C   0  0  0  0  0  0  0  0  0  0  0  0
   -0.2001    2.1806   -0.5089 O   0  0  0  0  0  0  0  0  0  0  0  0
   -2.2843    1.3948    2.4853 H   0  0  0  0  0  0  0  0  0  0  0  0
    1.0189   -0.7558    1.1251 H   0  0  0  0  0  0  0  0  0  0  0  0
    0.0306   -2.0402    1.9833 H   0  0  0  0  0  0  0  0  0  0  0  0
   -0.9230   -1.4436   -1.8966 H   0  0  0  0  0  0  0  0  0  0  0  0
   -1.1666   -0.0423   -0.8531 H   0  0  0  0  0  0  0  0  0  0  0  0
    1.5266   -0.8960   -2.0532 H   0  0  0  0  0  0  0  0  0  0  0  0
    0.4526    0.4495   -2.4137 H   0  0  0  0  0  0  0  0  0  0  0  0
    1.5606    2.3510    0.5295 H   0  0  0  0  0  0  0  0  0  0  0  0
  1  2  3  0
  2  3  1  0
  3  4  1  0
  4  5  1  0
  5  6  1  0
  6  7  1  0
  7  8  1  0
  8  9  2  0
  1 10  1  0
  3 11  1  0
  3 12  1  0
  5 13  1  0
  5 14  1  0
  6 15  1  0
  6 16  1  0
  8 17  1  0
M  END
