
     RDKit          3D

 17 17  0  0  0  0  0  0  0  0999 V2000
    3.1358    0.3833   -1.0029 C   0  0  0  0  0  0  0  0  0  0  0  0
    1.9806   -0.2003   -0.8461 C   0  0  0  0  0  0  0  0  0  0  0  0
    0.8886   -0.7518   -0.6774 C   0  0  0  0  0  0  0  0  0  0  0  0
   -0.3042    0.2539   -0.8060 C   0  0  0  0  0  0  0  0  0  0  0  0
   -0.8846    0.3361    0.3274 C   0  0  0  0  0  0  0  0  0  0  0  0
   -2.0627    1.2307    0.6044 C   0  0  0  0  0  0  0  0  0  0  0  0
   -0.2955   -0.5812    1.3162 C   0  0  0  0  0  0  0  0  0  0  0  0
    0.4739   -1.5465    0.5194 C   0  0  0  0  0  0  0  0  0  0  0  0
    0.6865   -2.6817    0.7982 O   0  0  0  0  0  0  0  0  0  0  0  0
    4.2385    0.9176   -1.1566 H   0  0  0  0  0  0  0  0  0  0  0  0
    0.5358   -1.4610   -1.6218 H   0  0  0  0  0  0  0  0  0  0  0  0
   -0.4816    0.6985   -1.7464 H   0  0  0  0  0  0  0  0  0  0  0  0
   -1.7561    1.8554    1.4738 H   0  0  0  0  0  0  0  0  0  0  0  0
   -2.2414    1.9375   -0.2730 H   0  0  0  0  0  0  0  0  0  0  0  0
   -2.9953    0.7021    0.7955 H   0  0  0  0  0  0  0  0  0  0  0  0
   -1.1959   -1.0923    1.7772 H   0  0  0  0  0  0  0  0  0  0  0  0
    0.2776   -0.0003    2.0632 H   0  0  0  0  0  0  0  0  0  0  0  0
  1  2  3  0
  2  3  1  0
  3  4  1  0
  4  5  2  0
  5  6  1  0
  5  7  1  0
  7  8  1  0
  8  9  2  0
  8  3  1  0
  1 10  1  0
  3 11  1  0
  4 12  1  0
  6 13  1  0
  6 14  1  0
  6 15  1  0
  7 16  1  0
  7 17  1  0
M  END
