
     RDKit          3D

 19 19  0  0  0  0  0  0  0  0999 V2000
    2.6153   -0.7249   -1.1600 C   0  0  0  0  0  0  0  0  0  0  0  0
    1.5024   -0.4767   -0.7565 C   0  0  0  0  0  0  0  0  0  0  0  0
    0.1679   -0.1678   -0.2483 C   0  0  0  0  0  0  0  0  0  0  0  0
   -0.8823   -1.0505   -0.8879 C   0  0  0  0  0  0  0  0  0  0  0  0
   -0.9447   -0.9181   -2.2575 O   0  0  0  0  0  0  0  0  0  0  0  0
   -0.1242    1.2919   -0.2504 C   0  0  0  0  0  0  0  0  0  0  0  0
    0.0945    1.2881    1.2647 C   0  0  0  0  0  0  0  0  0  0  0  0
    0.0578   -0.2239    1.2607 C   0  0  0  0  0  0  0  0  0  0  0  0
   -1.1831   -0.6552    1.7373 O   0  0  0  0  0  0  0  0  0  0  0  0
    3.5979   -0.9602   -1.5184 H   0  0  0  0  0  0  0  0  0  0  0  0
   -0.7091   -2.1161   -0.6366 H   0  0  0  0  0  0  0  0  0  0  0  0
   -1.8865   -0.8087   -0.4316 H   0  0  0  0  0  0  0  0  0  0  0  0
   -1.7648   -0.4157   -2.4883 H   0  0  0  0  0  0  0  0  0  0  0  0
   -1.1446    1.5935   -0.5598 H   0  0  0  0  0  0  0  0  0  0  0  0
    0.6498    1.9304   -0.7390 H   0  0  0  0  0  0  0  0  0  0  0  0
    1.0943    1.6333    1.5721 H   0  0  0  0  0  0  0  0  0  0  0  0
   -0.7552    1.7737    1.7543 H   0  0  0  0  0  0  0  0  0  0  0  0
    0.9226   -0.7344    1.6890 H   0  0  0  0  0  0  0  0  0  0  0  0
   -1.3082   -0.2587    2.6561 H   0  0  0  0  0  0  0  0  0  0  0  0
  1  2  3  0
  2  3  1  0
  3  4  1  0
  4  5  1  0
  3  6  1  0
  6  7  1  0
  7  8  1  0
  8  9  1  0
  8  3  1  0
  1 10  1  0
  4 11  1  0
  4 12  1  0
  5 13  1  0
  6 14  1  0
  6 15  1  0
  7 16  1  0
  7 17  1  0
  8 18  1  0
  9 19  1  0
M  END
