
     RDKit          3D

 19 19  0  0  0  0  0  0  0  0999 V2000
   -2.5154    0.9406    0.9630 C   0  0  0  0  0  0  0  0  0  0  0  0
   -1.6611    0.4416    0.5534 C   0  0  0  0  0  0  0  0  0  0  0  0
   -0.5658   -0.1761    0.0483 C   0  0  0  0  0  0  0  0  0  0  0  0
    0.8359    0.3962    0.1889 C   0  0  0  0  0  0  0  0  0  0  0  0
    1.1172    1.4083   -0.7117 O   0  0  0  0  0  0  0  0  0  0  0  0
    2.4864    1.7199   -0.5502 C   0  0  0  0  0  0  0  0  0  0  0  0
   -0.4595   -1.7075    0.3729 C   0  0  0  0  0  0  0  0  0  0  0  0
   -1.4811   -1.6598   -0.7424 C   0  0  0  0  0  0  0  0  0  0  0  0
   -0.7237   -0.6516   -1.3150 O   0  0  0  0  0  0  0  0  0  0  0  0
   -3.5372    1.5481    1.4778 H   0  0  0  0  0  0  0  0  0  0  0  0
    1.6003   -0.3796    0.1211 H   0  0  0  0  0  0  0  0  0  0  0  0
    0.8564    0.9134    1.1965 H   0  0  0  0  0  0  0  0  0  0  0  0
    2.8667    2.5076   -1.1843 H   0  0  0  0  0  0  0  0  0  0  0  0
    2.6192    1.9674    0.5337 H   0  0  0  0  0  0  0  0  0  0  0  0
    3.0052    0.7364   -0.7031 H   0  0  0  0  0  0  0  0  0  0  0  0
   -0.9080   -1.9577    1.3598 H   0  0  0  0  0  0  0  0  0  0  0  0
    0.5005   -2.1106    0.1413 H   0  0  0  0  0  0  0  0  0  0  0  0
   -1.5602   -2.6188   -1.2942 H   0  0  0  0  0  0  0  0  0  0  0  0
   -2.4757   -1.3176   -0.4557 H   0  0  0  0  0  0  0  0  0  0  0  0
  1  2  3  0
  2  3  1  0
  3  4  1  0
  4  5  1  0
  5  6  1  0
  3  7  1  0
  7  8  1  0
  8  9  1  0
  9  3  1  0
  1 10  1  0
  4 11  1  0
  4 12  1  0
  6 13  1  0
  6 14  1  0
  6 15  1  0
  7 16  1  0
  7 17  1  0
  8 18  1  0
  8 19  1  0
M  END
