
     RDKit          3D

 17 16  0  0  0  0  0  0  0  0999 V2000
   -3.8420   -2.0966    0.0418 C   0  0  0  0  0  0  0  0  0  0  0  0
   -3.1985   -1.7114   -0.8602 C   0  0  0  0  0  0  0  0  0  0  0  0
   -2.7268   -1.4313   -1.5308 C   0  0  0  0  0  0  0  0  0  0  0  0
   -1.5629   -0.3711   -0.6486 C   0  0  0  0  0  0  0  0  0  0  0  0
   -0.8065    0.2998   -0.0914 C   0  0  0  0  0  0  0  0  0  0  0  0
    0.1012    1.1127    0.5805 C   0  0  0  0  0  0  0  0  0  0  0  0
    1.3709    1.0529    0.6471 C   0  0  0  0  0  0  0  0  0  0  0  0
    2.7168    0.9975    0.7408 C   0  0  0  0  0  0  0  0  0  0  0  0
    4.2337    0.9566    0.8311 C   0  0  0  0  0  0  0  0  0  0  0  0
   -4.6386   -2.5808    1.2020 H   0  0  0  0  0  0  0  0  0  0  0  0
   -2.8621   -0.3596   -2.3055 H   0  0  0  0  0  0  0  0  0  0  0  0
   -1.7615   -1.7235   -2.2631 H   0  0  0  0  0  0  0  0  0  0  0  0
   -0.2489    0.8412    1.7771 H   0  0  0  0  0  0  0  0  0  0  0  0
   -0.3850    2.2456    0.6245 H   0  0  0  0  0  0  0  0  0  0  0  0
    4.5672   -0.0215    0.5813 H   0  0  0  0  0  0  0  0  0  0  0  0
    4.4567    1.0541    1.9668 H   0  0  0  0  0  0  0  0  0  0  0  0
    4.5863    1.7353    0.1593 H   0  0  0  0  0  0  0  0  0  0  0  0
  1  2  3  0
  2  3  1  0
  3  4  1  0
  4  5  3  0
  5  6  1  0
  6  7  1  0
  7  8  3  0
  8  9  1  0
  1 10  1  0
  3 11  1  0
  3 12  1  0
  6 13  1  0
  6 14  1  0
  9 15  1  0
  9 16  1  0
  9 17  1  0
M  END
