
     RDKit          3D

 21 21  0  0  0  0  0  0  0  0999 V2000
    3.5768    0.6885   -0.2306 C   0  0  0  0  0  0  0  0  0  0  0  0
    2.3220    0.0629   -0.6660 C   0  0  0  0  0  0  0  0  0  0  0  0
    1.2516   -0.4583   -1.0551 C   0  0  0  0  0  0  0  0  0  0  0  0
    1.2316    0.2056   -2.5608 O   0  0  0  0  0  0  0  0  0  0  0  0
   -0.0937   -0.1854   -0.7966 C   0  0  0  0  0  0  0  0  0  0  0  0
   -0.8410   -0.1001    0.5339 C   0  0  0  0  0  0  0  0  0  0  0  0
   -0.4517    1.1216    1.3594 C   0  0  0  0  0  0  0  0  0  0  0  0
   -1.4751   -1.2464    1.1615 C   0  0  0  0  0  0  0  0  0  0  0  0
   -2.3690   -0.2784    0.3679 C   0  0  0  0  0  0  0  0  0  0  0  0
    4.4264    1.1283    0.0565 H   0  0  0  0  0  0  0  0  0  0  0  0
    1.4301   -1.5364   -1.4714 H   0  0  0  0  0  0  0  0  0  0  0  0
    2.2286    0.1394   -2.6855 H   0  0  0  0  0  0  0  0  0  0  0  0
   -0.7308   -0.9736   -1.4068 H   0  0  0  0  0  0  0  0  0  0  0  0
   -0.5086    0.7951   -1.3609 H   0  0  0  0  0  0  0  0  0  0  0  0
    0.3134    1.7117    0.7291 H   0  0  0  0  0  0  0  0  0  0  0  0
   -0.0639    0.9445    2.3382 H   0  0  0  0  0  0  0  0  0  0  0  0
   -1.3567    1.8337    1.4646 H   0  0  0  0  0  0  0  0  0  0  0  0
   -1.6894   -1.2551    2.2637 H   0  0  0  0  0  0  0  0  0  0  0  0
   -1.3951   -2.2728    0.7662 H   0  0  0  0  0  0  0  0  0  0  0  0
   -2.7249   -0.6729   -0.6334 H   0  0  0  0  0  0  0  0  0  0  0  0
   -3.0804    0.3480    0.8969 H   0  0  0  0  0  0  0  0  0  0  0  0
  1  2  3  0
  2  3  1  0
  3  4  1  0
  3  5  1  0
  5  6  1  0
  6  7  1  0
  6  8  1  0
  8  9  1  0
  9  6  1  0
  1 10  1  0
  3 11  1  0
  4 12  1  0
  5 13  1  0
  5 14  1  0
  7 15  1  0
  7 16  1  0
  7 17  1  0
  8 18  1  0
  8 19  1  0
  9 20  1  0
  9 21  1  0
M  END
