
     RDKit          3D

 17 16  0  0  0  0  0  0  0  0999 V2000
    1.0021   -2.3379   -1.3063 C   0  0  0  0  0  0  0  0  0  0  0  0
    0.4760   -1.2492   -0.8678 C   0  0  0  0  0  0  0  0  0  0  0  0
   -0.1224   -0.0469   -0.4011 C   0  0  0  0  0  0  0  0  0  0  0  0
    0.8061    0.7499    0.4703 C   0  0  0  0  0  0  0  0  0  0  0  0
    2.0047    1.1491   -0.2809 C   0  0  0  0  0  0  0  0  0  0  0  0
    3.0906    0.6124   -0.0457 O   0  0  0  0  0  0  0  0  0  0  0  0
   -1.3863   -0.4491    0.3511 C   0  0  0  0  0  0  0  0  0  0  0  0
   -2.1571    0.6466    0.9020 C   0  0  0  0  0  0  0  0  0  0  0  0
   -1.9128    1.8125    0.8401 O   0  0  0  0  0  0  0  0  0  0  0  0
    1.4322   -3.2151   -1.6424 H   0  0  0  0  0  0  0  0  0  0  0  0
   -0.4130    0.5796   -1.3061 H   0  0  0  0  0  0  0  0  0  0  0  0
    0.3457    1.6182    1.0002 H   0  0  0  0  0  0  0  0  0  0  0  0
    1.1383    0.0346    1.2763 H   0  0  0  0  0  0  0  0  0  0  0  0
    1.9154    1.9279   -1.0478 H   0  0  0  0  0  0  0  0  0  0  0  0
   -2.0132   -0.9487   -0.4407 H   0  0  0  0  0  0  0  0  0  0  0  0
   -1.1248   -1.2574    1.0529 H   0  0  0  0  0  0  0  0  0  0  0  0
   -3.0813    0.3734    1.4459 H   0  0  0  0  0  0  0  0  0  0  0  0
  1  2  3  0
  2  3  1  0
  3  4  1  0
  4  5  1  0
  5  6  2  0
  3  7  1  0
  7  8  1  0
  8  9  2  0
  1 10  1  0
  3 11  1  0
  4 12  1  0
  4 13  1  0
  5 14  1  0
  7 15  1  0
  7 16  1  0
  8 17  1  0
M  END
