
     RDKit          3D

 21 21  0  0  0  0  0  0  0  0999 V2000
   -0.9489    1.7016    2.3170 C   0  0  0  0  0  0  0  0  0  0  0  0
   -0.5660    1.0634    1.3487 C   0  0  0  0  0  0  0  0  0  0  0  0
   -0.1119    0.2786    0.1983 C   0  0  0  0  0  0  0  0  0  0  0  0
    1.0442    1.0209   -0.4261 C   0  0  0  0  0  0  0  0  0  0  0  0
    1.6183    0.3403   -1.6186 C   0  0  0  0  0  0  0  0  0  0  0  0
    0.2288   -1.1084    0.6299 C   0  0  0  0  0  0  0  0  0  0  0  0
   -0.9860   -1.8984    0.1618 C   0  0  0  0  0  0  0  0  0  0  0  0
   -1.4014   -1.2380   -0.9864 O   0  0  0  0  0  0  0  0  0  0  0  0
   -1.2440    0.1139   -0.7813 C   0  0  0  0  0  0  0  0  0  0  0  0
   -1.2714    2.2554    3.1598 H   0  0  0  0  0  0  0  0  0  0  0  0
    0.6657    2.0219   -0.7166 H   0  0  0  0  0  0  0  0  0  0  0  0
    1.8033    1.2034    0.3828 H   0  0  0  0  0  0  0  0  0  0  0  0
    1.2431   -0.6999   -1.7292 H   0  0  0  0  0  0  0  0  0  0  0  0
    2.7275    0.2941   -1.4823 H   0  0  0  0  0  0  0  0  0  0  0  0
    1.4444    0.9443   -2.5317 H   0  0  0  0  0  0  0  0  0  0  0  0
    1.1221   -1.5355    0.1826 H   0  0  0  0  0  0  0  0  0  0  0  0
    0.3479   -1.1916    1.7395 H   0  0  0  0  0  0  0  0  0  0  0  0
   -0.7120   -2.9328   -0.1223 H   0  0  0  0  0  0  0  0  0  0  0  0
   -1.8031   -1.8652    0.8916 H   0  0  0  0  0  0  0  0  0  0  0  0
   -2.1753    0.5999   -0.3922 H   0  0  0  0  0  0  0  0  0  0  0  0
   -1.0255    0.6321   -1.7595 H   0  0  0  0  0  0  0  0  0  0  0  0
  1  2  3  0
  2  3  1  0
  3  4  1  0
  4  5  1  0
  3  6  1  0
  6  7  1  0
  7  8  1  0
  8  9  1  0
  9  3  1  0
  1 10  1  0
  4 11  1  0
  4 12  1  0
  5 13  1  0
  5 14  1  0
  5 15  1  0
  6 16  1  0
  6 17  1  0
  7 18  1  0
  7 19  1  0
  9 20  1  0
  9 21  1  0
M  END
