
     RDKit          3D

 15 16  0  0  0  0  0  0  0  0999 V2000
    3.1583   -0.2692   -0.2688 C   0  0  0  0  0  0  0  0  0  0  0  0
    2.0695    0.0162   -0.0316 C   0  0  0  0  0  0  0  0  0  0  0  0
    0.5855    0.3965    0.3172 C   0  0  0  0  0  0  0  0  0  0  0  0
   -0.0725    1.1823   -0.7305 C   0  0  0  0  0  0  0  0  0  0  0  0
    0.1200    2.0243   -1.5436 O   0  0  0  0  0  0  0  0  0  0  0  0
   -1.3047    0.3884   -0.3270 C   0  0  0  0  0  0  0  0  0  0  0  0
   -2.0905    0.8984    0.6743 O   0  0  0  0  0  0  0  0  0  0  0  0
   -1.3546   -0.9513   -0.8836 C   0  0  0  0  0  0  0  0  0  0  0  0
   -0.3217   -0.7847    0.1358 C   0  0  0  0  0  0  0  0  0  0  0  0
    4.4118   -0.6202   -0.5516 H   0  0  0  0  0  0  0  0  0  0  0  0
    0.5325    0.8512    1.2866 H   0  0  0  0  0  0  0  0  0  0  0  0
   -1.6946    0.5797    1.5493 H   0  0  0  0  0  0  0  0  0  0  0  0
   -2.2756   -1.5257   -0.5800 H   0  0  0  0  0  0  0  0  0  0  0  0
   -1.1451   -1.0207   -1.9773 H   0  0  0  0  0  0  0  0  0  0  0  0
   -0.6183   -1.1652    1.1581 H   0  0  0  0  0  0  0  0  0  0  0  0
  1  2  3  0
  2  3  1  0
  3  4  1  0
  4  5  2  0
  4  6  1  0
  6  7  1  0
  6  8  1  0
  8  9  1  0
  9  3  1  0
  9  6  1  0
  1 10  1  0
  3 11  1  0
  7 12  1  0
  8 13  1  0
  8 14  1  0
  9 15  1  0
M  END
