
     RDKit          3D

 14 14  0  0  0  0  0  0  0  0999 V2000
   -2.0226    2.1688    0.0085 C   0  0  0  0  0  0  0  0  0  0  0  0
   -1.3350    1.2748    0.2419 C   0  0  0  0  0  0  0  0  0  0  0  0
   -0.4140    0.0482    0.5787 C   0  0  0  0  0  0  0  0  0  0  0  0
   -0.8848   -1.2267    0.3187 C   0  0  0  0  0  0  0  0  0  0  0  0
   -0.0549   -1.6024   -0.6507 O   0  0  0  0  0  0  0  0  0  0  0  0
    0.5896   -0.2143   -0.6928 C   0  0  0  0  0  0  0  0  0  0  0  0
    1.7627   -0.2568   -0.4498 C   0  0  0  0  0  0  0  0  0  0  0  0
    3.0817   -0.3190   -0.1942 C   0  0  0  0  0  0  0  0  0  0  0  0
   -2.7282    3.1192   -0.2288 H   0  0  0  0  0  0  0  0  0  0  0  0
    0.3260    0.2889    1.4348 H   0  0  0  0  0  0  0  0  0  0  0  0
   -0.9501   -1.8219    1.3439 H   0  0  0  0  0  0  0  0  0  0  0  0
   -2.0019   -1.1748   -0.0638 H   0  0  0  0  0  0  0  0  0  0  0  0
    0.2077    0.0850   -1.6997 H   0  0  0  0  0  0  0  0  0  0  0  0
    4.4238   -0.3691    0.0534 H   0  0  0  0  0  0  0  0  0  0  0  0
  1  2  3  0
  2  3  1  0
  3  4  1  0
  4  5  1  0
  5  6  1  0
  6  7  1  0
  7  8  3  0
  6  3  1  0
  1  9  1  0
  3 10  1  0
  4 11  1  0
  4 12  1  0
  6 13  1  0
  8 14  1  0
M  END
