
     RDKit          3D

 17 18  0  0  0  0  0  0  0  0999 V2000
    2.3712   -0.9559    1.3903 C   0  0  0  0  0  0  0  0  0  0  0  0
    1.6273   -0.4015    0.6115 C   0  0  0  0  0  0  0  0  0  0  0  0
    0.7244    0.2679   -0.3054 C   0  0  0  0  0  0  0  0  0  0  0  0
    0.4177    1.6658    0.2430 C   0  0  0  0  0  0  0  0  0  0  0  0
   -0.8435    1.5588    0.8386 O   0  0  0  0  0  0  0  0  0  0  0  0
   -1.5624    0.7562   -0.0733 C   0  0  0  0  0  0  0  0  0  0  0  0
   -0.6038   -0.3837   -0.2758 C   0  0  0  0  0  0  0  0  0  0  0  0
   -0.8901   -1.7455   -0.1337 C   0  0  0  0  0  0  0  0  0  0  0  0
   -0.8422   -1.2172   -1.4293 O   0  0  0  0  0  0  0  0  0  0  0  0
    3.0233   -1.4488    2.0804 H   0  0  0  0  0  0  0  0  0  0  0  0
    1.1484    0.3446   -1.3366 H   0  0  0  0  0  0  0  0  0  0  0  0
    1.1541    1.9883    0.9844 H   0  0  0  0  0  0  0  0  0  0  0  0
    0.4118    2.3552   -0.6294 H   0  0  0  0  0  0  0  0  0  0  0  0
   -1.6232    1.3098   -1.0351 H   0  0  0  0  0  0  0  0  0  0  0  0
   -2.5275    0.4616    0.3405 H   0  0  0  0  0  0  0  0  0  0  0  0
   -0.0856   -2.4698    0.1700 H   0  0  0  0  0  0  0  0  0  0  0  0
   -1.8998   -2.0856    0.1748 H   0  0  0  0  0  0  0  0  0  0  0  0
  1  2  3  0
  2  3  1  0
  3  4  1  0
  4  5  1  0
  5  6  1  0
  6  7  1  0
  7  8  1  0
  8  9  1  0
  7  3  1  0
  9  7  1  0
  1 10  1  0
  3 11  1  0
  4 12  1  0
  4 13  1  0
  6 14  1  0
  6 15  1  0
  8 16  1  0
  8 17  1  0
M  END
