
     RDKit          3D

 23 22  0  0  0  0  0  0  0  0999 V2000
   -0.7779   -2.8610   -0.9173 C   0  0  0  0  0  0  0  0  0  0  0  0
   -0.7058   -1.6407   -0.6952 C   0  0  0  0  0  0  0  0  0  0  0  0
   -0.6512   -0.3153   -0.4522 C   0  0  0  0  0  0  0  0  0  0  0  0
   -1.4837    0.6311   -0.9758 O   0  0  0  0  0  0  0  0  0  0  0  0
   -0.7750    1.2427   -2.0691 C   0  0  0  0  0  0  0  0  0  0  0  0
    0.2107    0.1680    0.7129 C   0  0  0  0  0  0  0  0  0  0  0  0
    1.6758   -0.1416    0.3780 C   0  0  0  0  0  0  0  0  0  0  0  0
   -0.0585    1.5839    1.0408 C   0  0  0  0  0  0  0  0  0  0  0  0
   -0.1814   -0.7610    1.8881 C   0  0  0  0  0  0  0  0  0  0  0  0
   -0.8236   -3.9567   -1.1217 H   0  0  0  0  0  0  0  0  0  0  0  0
    0.2845   -0.0889   -1.3689 H   0  0  0  0  0  0  0  0  0  0  0  0
   -1.2828    2.0862   -2.5081 H   0  0  0  0  0  0  0  0  0  0  0  0
   -0.6438    0.3804   -2.7676 H   0  0  0  0  0  0  0  0  0  0  0  0
    0.2164    1.5238   -1.7043 H   0  0  0  0  0  0  0  0  0  0  0  0
    2.0644    0.6693   -0.3073 H   0  0  0  0  0  0  0  0  0  0  0  0
    2.2973   -0.3113    1.2597 H   0  0  0  0  0  0  0  0  0  0  0  0
    1.6954   -1.0648   -0.2799 H   0  0  0  0  0  0  0  0  0  0  0  0
   -0.7141    2.0888    0.3363 H   0  0  0  0  0  0  0  0  0  0  0  0
    0.8954    2.1692    1.1198 H   0  0  0  0  0  0  0  0  0  0  0  0
   -0.5581    1.6929    2.0548 H   0  0  0  0  0  0  0  0  0  0  0  0
   -1.2305   -0.6527    2.1562 H   0  0  0  0  0  0  0  0  0  0  0  0
    0.0099   -1.8186    1.5064 H   0  0  0  0  0  0  0  0  0  0  0  0
    0.5367   -0.6238    2.7144 H   0  0  0  0  0  0  0  0  0  0  0  0
  1  2  3  0
  2  3  1  0
  3  4  1  0
  4  5  1  0
  3  6  1  0
  6  7  1  0
  6  8  1  0
  6  9  1  0
  1 10  1  0
  3 11  1  0
  5 12  1  0
  5 13  1  0
  5 14  1  0
  7 15  1  0
  7 16  1  0
  7 17  1  0
  8 18  1  0
  8 19  1  0
  8 20  1  0
  9 21  1  0
  9 22  1  0
  9 23  1  0
M  END
