
     RDKit          3D

 19 20  0  0  0  0  0  0  0  0999 V2000
    2.8306   -0.7718   -1.0621 C   0  0  0  0  0  0  0  0  0  0  0  0
    2.2527    0.1968   -0.6115 C   0  0  0  0  0  0  0  0  0  0  0  0
    1.5662    1.3570   -0.0460 C   0  0  0  0  0  0  0  0  0  0  0  0
    0.2253    1.3872   -0.3432 O   0  0  0  0  0  0  0  0  0  0  0  0
   -0.5033    0.4480    0.0387 C   0  0  0  0  0  0  0  0  0  0  0  0
   -0.7238    0.0237    1.4940 C   0  0  0  0  0  0  0  0  0  0  0  0
   -1.6334   -0.8687    0.7122 C   0  0  0  0  0  0  0  0  0  0  0  0
   -0.4766   -1.0111   -0.2638 C   0  0  0  0  0  0  0  0  0  0  0  0
   -2.0066    0.3506   -0.0789 C   0  0  0  0  0  0  0  0  0  0  0  0
    3.3344   -1.6359   -1.4450 H   0  0  0  0  0  0  0  0  0  0  0  0
    1.6436    1.2349    1.0724 H   0  0  0  0  0  0  0  0  0  0  0  0
    2.1056    2.2766   -0.3572 H   0  0  0  0  0  0  0  0  0  0  0  0
    0.1363   -0.4919    1.9194 H   0  0  0  0  0  0  0  0  0  0  0  0
   -1.2099    0.7829    2.1240 H   0  0  0  0  0  0  0  0  0  0  0  0
   -2.2244   -1.6045    1.0343 H   0  0  0  0  0  0  0  0  0  0  0  0
    0.3606   -1.5890    0.1924 H   0  0  0  0  0  0  0  0  0  0  0  0
   -0.7623   -1.3037   -1.2886 H   0  0  0  0  0  0  0  0  0  0  0  0
   -2.3266    0.1031   -1.1031 H   0  0  0  0  0  0  0  0  0  0  0  0
   -2.5885    1.1159    0.4393 H   0  0  0  0  0  0  0  0  0  0  0  0
  1  2  3  0
  2  3  1  0
  3  4  1  0
  4  5  1  0
  5  6  1  0
  6  7  1  0
  7  8  1  0
  7  9  1  0
  8  5  1  0
  9  5  1  0
  1 10  1  0
  3 11  1  0
  3 12  1  0
  6 13  1  0
  6 14  1  0
  7 15  1  0
  8 16  1  0
  8 17  1  0
  9 18  1  0
  9 19  1  0
M  END
