
     RDKit          3D

 21 21  0  0  0  0  0  0  0  0999 V2000
    2.4493    0.7008   -2.0555 C   0  0  0  0  0  0  0  0  0  0  0  0
    2.2067   -0.0768   -1.1741 C   0  0  0  0  0  0  0  0  0  0  0  0
    1.9157   -1.0149   -0.0746 C   0  0  0  0  0  0  0  0  0  0  0  0
    0.3855   -1.2231   -0.1344 C   0  0  0  0  0  0  0  0  0  0  0  0
   -0.3165    0.0591   -0.4525 C   0  0  0  0  0  0  0  0  0  0  0  0
   -0.0492    1.2242    0.3733 C   0  0  0  0  0  0  0  0  0  0  0  0
   -0.9413    1.3822    1.3372 C   0  0  0  0  0  0  0  0  0  0  0  0
   -1.9631    0.3070    1.3092 C   0  0  0  0  0  0  0  0  0  0  0  0
   -1.8225   -0.2141   -0.1151 C   0  0  0  0  0  0  0  0  0  0  0  0
    2.6833    1.4309   -2.9133 H   0  0  0  0  0  0  0  0  0  0  0  0
    2.2002   -0.6224    0.8866 H   0  0  0  0  0  0  0  0  0  0  0  0
    2.3295   -2.0251   -0.2927 H   0  0  0  0  0  0  0  0  0  0  0  0
    0.2010   -1.9234   -0.9697 H   0  0  0  0  0  0  0  0  0  0  0  0
   -0.0082   -1.5918    0.8217 H   0  0  0  0  0  0  0  0  0  0  0  0
   -0.3011    0.2781   -1.5527 H   0  0  0  0  0  0  0  0  0  0  0  0
    0.8238    1.9072    0.2606 H   0  0  0  0  0  0  0  0  0  0  0  0
   -0.8884    2.2507    2.0497 H   0  0  0  0  0  0  0  0  0  0  0  0
   -1.5398   -0.5100    2.0184 H   0  0  0  0  0  0  0  0  0  0  0  0
   -2.9451    0.5495    1.6398 H   0  0  0  0  0  0  0  0  0  0  0  0
   -2.4188    0.4101   -0.7782 H   0  0  0  0  0  0  0  0  0  0  0  0
   -2.0009   -1.2981   -0.1837 H   0  0  0  0  0  0  0  0  0  0  0  0
  1  2  3  0
  2  3  1  0
  3  4  1  0
  4  5  1  0
  5  6  1  0
  6  7  2  0
  7  8  1  0
  8  9  1  0
  9  5  1  0
  1 10  1  0
  3 11  1  0
  3 12  1  0
  4 13  1  0
  4 14  1  0
  5 15  1  0
  6 16  1  0
  7 17  1  0
  8 18  1  0
  8 19  1  0
  9 20  1  0
  9 21  1  0
M  END
