
     RDKit          3D

 16 16  0  0  0  0  0  0  0  0999 V2000
    3.0186    0.3411    0.4136 C   0  0  0  0  0  0  0  0  0  0  0  0
    2.0617   -0.2452    0.0361 C   0  0  0  0  0  0  0  0  0  0  0  0
    0.8867   -0.9773   -0.4052 C   0  0  0  0  0  0  0  0  0  0  0  0
   -0.3111   -0.5508    0.3472 C   0  0  0  0  0  0  0  0  0  0  0  0
   -0.8199    0.8398    0.3463 C   0  0  0  0  0  0  0  0  0  0  0  0
    0.0076    1.8123   -0.2459 O   0  0  0  0  0  0  0  0  0  0  0  0
   -1.4971   -0.1209   -0.5387 C   0  0  0  0  0  0  0  0  0  0  0  0
   -2.6879   -0.7264   -0.2392 O   0  0  0  0  0  0  0  0  0  0  0  0
    3.8693    0.8841    0.7540 H   0  0  0  0  0  0  0  0  0  0  0  0
    0.7490   -0.8513   -1.4894 H   0  0  0  0  0  0  0  0  0  0  0  0
    1.0090   -2.0896   -0.2524 H   0  0  0  0  0  0  0  0  0  0  0  0
   -0.5597   -1.1454    1.2532 H   0  0  0  0  0  0  0  0  0  0  0  0
   -1.3146    1.2231    1.2607 H   0  0  0  0  0  0  0  0  0  0  0  0
   -0.4533    2.6768   -0.1995 H   0  0  0  0  0  0  0  0  0  0  0  0
   -1.3023    0.0019   -1.6240 H   0  0  0  0  0  0  0  0  0  0  0  0
   -2.6558   -1.0723    0.6879 H   0  0  0  0  0  0  0  0  0  0  0  0
  1  2  3  0
  2  3  1  0
  3  4  1  0
  4  5  1  0
  5  6  1  0
  5  7  1  0
  7  8  1  0
  7  4  1  0
  1  9  1  0
  3 10  1  0
  3 11  1  0
  4 12  1  0
  5 13  1  0
  6 14  1  0
  7 15  1  0
  8 16  1  0
M  END
