
     RDKit          3D

 19 19  0  0  0  0  0  0  0  0999 V2000
   -3.3282   -0.2432   -1.5254 C   0  0  0  0  0  0  0  0  0  0  0  0
   -2.4179   -0.6765   -0.8174 C   0  0  0  0  0  0  0  0  0  0  0  0
   -1.3142   -1.1783    0.0163 C   0  0  0  0  0  0  0  0  0  0  0  0
   -0.7581   -0.1205    0.9693 C   0  0  0  0  0  0  0  0  0  0  0  0
    0.5794    0.0681    0.7415 O   0  0  0  0  0  0  0  0  0  0  0  0
    1.1332    1.0023    1.5890 C   0  0  0  0  0  0  0  0  0  0  0  0
    2.6077    1.2062    1.2156 C   0  0  0  0  0  0  0  0  0  0  0  0
   -0.1627   -1.6614   -0.9241 C   0  0  0  0  0  0  0  0  0  0  0  0
   -0.9057   -2.4597   -0.0734 O   0  0  0  0  0  0  0  0  0  0  0  0
   -4.1827    0.1572   -2.1643 H   0  0  0  0  0  0  0  0  0  0  0  0
   -0.9610   -0.2726    2.0125 H   0  0  0  0  0  0  0  0  0  0  0  0
   -1.2403    0.8597    0.6311 H   0  0  0  0  0  0  0  0  0  0  0  0
    0.6263    1.9706    1.6140 H   0  0  0  0  0  0  0  0  0  0  0  0
    1.0868    0.6420    2.6594 H   0  0  0  0  0  0  0  0  0  0  0  0
    3.2632    0.8366    2.0283 H   0  0  0  0  0  0  0  0  0  0  0  0
    2.7613    0.5851    0.2840 H   0  0  0  0  0  0  0  0  0  0  0  0
    2.7708    2.2630    0.9476 H   0  0  0  0  0  0  0  0  0  0  0  0
   -0.4222   -1.5465   -2.0025 H   0  0  0  0  0  0  0  0  0  0  0  0
    0.8644   -1.4319   -0.5765 H   0  0  0  0  0  0  0  0  0  0  0  0
  1  2  3  0
  2  3  1  0
  3  4  1  0
  4  5  1  0
  5  6  1  0
  6  7  1  0
  3  8  1  0
  8  9  1  0
  9  3  1  0
  1 10  1  0
  4 11  1  0
  4 12  1  0
  6 13  1  0
  6 14  1  0
  7 15  1  0
  7 16  1  0
  7 17  1  0
  8 18  1  0
  8 19  1  0
M  END
