
     RDKit          3D

 21 21  0  0  0  0  0  0  0  0999 V2000
    3.1590    0.3723    1.1986 C   0  0  0  0  0  0  0  0  0  0  0  0
    2.4258    0.1361    0.2465 C   0  0  0  0  0  0  0  0  0  0  0  0
    1.5495   -0.1708   -0.8852 C   0  0  0  0  0  0  0  0  0  0  0  0
    0.2753   -0.7437   -0.3596 C   0  0  0  0  0  0  0  0  0  0  0  0
   -0.6527   -1.0703   -1.5362 C   0  0  0  0  0  0  0  0  0  0  0  0
   -0.9775    0.2884   -1.5580 O   0  0  0  0  0  0  0  0  0  0  0  0
   -0.8378    0.2574   -0.1508 C   0  0  0  0  0  0  0  0  0  0  0  0
   -0.4430    1.5544    0.4604 C   0  0  0  0  0  0  0  0  0  0  0  0
   -2.0598   -0.3607    0.4643 C   0  0  0  0  0  0  0  0  0  0  0  0
    3.8059    0.5835    2.0106 H   0  0  0  0  0  0  0  0  0  0  0  0
    1.9991   -0.9136   -1.5784 H   0  0  0  0  0  0  0  0  0  0  0  0
    1.2994    0.7367   -1.4691 H   0  0  0  0  0  0  0  0  0  0  0  0
    0.3331   -1.5693    0.3491 H   0  0  0  0  0  0  0  0  0  0  0  0
   -0.1415   -1.4573   -2.4272 H   0  0  0  0  0  0  0  0  0  0  0  0
   -1.5043   -1.7201   -1.2239 H   0  0  0  0  0  0  0  0  0  0  0  0
   -0.2459    2.2743   -0.3848 H   0  0  0  0  0  0  0  0  0  0  0  0
   -1.2761    1.9297    1.0827 H   0  0  0  0  0  0  0  0  0  0  0  0
    0.4627    1.5243    1.0726 H   0  0  0  0  0  0  0  0  0  0  0  0
   -2.9211   -0.4045   -0.2533 H   0  0  0  0  0  0  0  0  0  0  0  0
   -2.4267    0.1648    1.3604 H   0  0  0  0  0  0  0  0  0  0  0  0
   -1.8232   -1.4117    0.7775 H   0  0  0  0  0  0  0  0  0  0  0  0
  1  2  3  0
  2  3  1  0
  3  4  1  0
  4  5  1  0
  5  6  1  0
  6  7  1  0
  7  8  1  0
  7  9  1  0
  7  4  1  0
  1 10  1  0
  3 11  1  0
  3 12  1  0
  4 13  1  0
  5 14  1  0
  5 15  1  0
  8 16  1  0
  8 17  1  0
  8 18  1  0
  9 19  1  0
  9 20  1  0
  9 21  1  0
M  END
