
     RDKit          3D

 17 17  0  0  0  0  0  0  0  0999 V2000
   -0.4340    2.1302    2.0654 C   0  0  0  0  0  0  0  0  0  0  0  0
   -0.4063    1.0923    1.0617 C   0  0  0  0  0  0  0  0  0  0  0  0
   -0.3718    0.2059    0.1917 C   0  0  0  0  0  0  0  0  0  0  0  0
   -1.2628    0.5075   -0.8937 O   0  0  0  0  0  0  0  0  0  0  0  0
   -1.4473   -0.2028   -1.9654 C   0  0  0  0  0  0  0  0  0  0  0  0
   -0.0295   -1.2301    0.4031 C   0  0  0  0  0  0  0  0  0  0  0  0
    0.9920   -0.3768   -0.3905 C   0  0  0  0  0  0  0  0  0  0  0  0
    2.1933    0.0831    0.2027 C   0  0  0  0  0  0  0  0  0  0  0  0
    3.1554    0.4818    0.5689 O   0  0  0  0  0  0  0  0  0  0  0  0
   -0.4709    2.9120    2.8316 H   0  0  0  0  0  0  0  0  0  0  0  0
   -0.5801   -0.3344   -2.6677 H   0  0  0  0  0  0  0  0  0  0  0  0
   -1.9636   -1.1647   -1.7985 H   0  0  0  0  0  0  0  0  0  0  0  0
   -2.1859    0.3625   -2.6263 H   0  0  0  0  0  0  0  0  0  0  0  0
    0.3000   -1.4475    1.4511 H   0  0  0  0  0  0  0  0  0  0  0  0
   -0.4090   -2.1095   -0.0837 H   0  0  0  0  0  0  0  0  0  0  0  0
    0.9711   -0.4600   -1.5223 H   0  0  0  0  0  0  0  0  0  0  0  0
    1.9494   -0.4495    1.5044 H   0  0  0  0  0  0  0  0  0  0  0  0
  1  2  3  0
  2  3  1  0
  3  4  1  0
  4  5  1  0
  3  6  1  0
  6  7  1  0
  7  8  1  0
  8  9  2  0
  7  3  1  0
  1 10  1  0
  5 11  1  0
  5 12  1  0
  5 13  1  0
  6 14  1  0
  6 15  1  0
  7 16  1  0
  8 17  1  0
M  END
