
     RDKit          3D

 19 20  0  0  0  0  0  0  0  0999 V2000
   -1.8905   -2.3028    0.5242 C   0  0  0  0  0  0  0  0  0  0  0  0
   -1.3167   -1.3861   -0.0200 C   0  0  0  0  0  0  0  0  0  0  0  0
   -0.6001   -0.2856   -0.6727 C   0  0  0  0  0  0  0  0  0  0  0  0
   -1.2640    0.4428   -1.7603 C   0  0  0  0  0  0  0  0  0  0  0  0
   -1.2185    1.1371   -0.4642 C   0  0  0  0  0  0  0  0  0  0  0  0
    0.1604    1.6613   -0.0693 C   0  0  0  0  0  0  0  0  0  0  0  0
    0.5842    0.2232    0.0683 C   0  0  0  0  0  0  0  0  0  0  0  0
    1.9373   -0.1153   -0.4851 C   0  0  0  0  0  0  0  0  0  0  0  0
    2.0273   -1.5259   -0.4979 O   0  0  0  0  0  0  0  0  0  0  0  0
   -2.3949   -3.1227    0.9895 H   0  0  0  0  0  0  0  0  0  0  0  0
   -2.2568    0.0603   -2.0699 H   0  0  0  0  0  0  0  0  0  0  0  0
   -0.6945    0.8863   -2.6202 H   0  0  0  0  0  0  0  0  0  0  0  0
   -2.0442    1.2063    0.2347 H   0  0  0  0  0  0  0  0  0  0  0  0
    0.5921    2.1987   -0.9577 H   0  0  0  0  0  0  0  0  0  0  0  0
    0.1922    2.2475    0.8518 H   0  0  0  0  0  0  0  0  0  0  0  0
    0.5613   -0.0560    1.1623 H   0  0  0  0  0  0  0  0  0  0  0  0
    2.6952    0.3358    0.1809 H   0  0  0  0  0  0  0  0  0  0  0  0
    2.0525    0.2043   -1.5398 H   0  0  0  0  0  0  0  0  0  0  0  0
    2.8776   -1.8092   -0.0783 H   0  0  0  0  0  0  0  0  0  0  0  0
  1  2  3  0
  2  3  1  0
  3  4  1  0
  4  5  1  0
  5  6  1  0
  6  7  1  0
  7  8  1  0
  8  9  1  0
  5  3  1  0
  7  3  1  0
  1 10  1  0
  4 11  1  0
  4 12  1  0
  5 13  1  0
  6 14  1  0
  6 15  1  0
  7 16  1  0
  8 17  1  0
  8 18  1  0
  9 19  1  0
M  END
