
     RDKit          3D

 17 16  0  0  0  0  0  0  0  0999 V2000
    2.9628   -1.2487    0.5089 C   0  0  0  0  0  0  0  0  0  0  0  0
    2.0393   -0.7780    0.8921 C   0  0  0  0  0  0  0  0  0  0  0  0
    0.7993   -0.1456    1.4253 C   0  0  0  0  0  0  0  0  0  0  0  0
   -0.2331   -0.0810    0.3580 C   0  0  0  0  0  0  0  0  0  0  0  0
   -1.4843    0.5830    0.9538 C   0  0  0  0  0  0  0  0  0  0  0  0
   -2.5275    0.5126    0.0359 O   0  0  0  0  0  0  0  0  0  0  0  0
    0.1045    0.7181   -0.7505 O   0  0  0  0  0  0  0  0  0  0  0  0
   -0.0269    0.2595   -2.0434 C   0  0  0  0  0  0  0  0  0  0  0  0
   -0.4687   -0.9106   -2.1818 O   0  0  0  0  0  0  0  0  0  0  0  0
    3.9435   -1.7663    0.1008 H   0  0  0  0  0  0  0  0  0  0  0  0
    1.0745    0.8442    1.7949 H   0  0  0  0  0  0  0  0  0  0  0  0
    0.4379   -0.7779    2.2977 H   0  0  0  0  0  0  0  0  0  0  0  0
   -0.5745   -1.0938    0.0476 H   0  0  0  0  0  0  0  0  0  0  0  0
   -1.7805    0.1824    1.9068 H   0  0  0  0  0  0  0  0  0  0  0  0
   -1.2543    1.6908    1.0548 H   0  0  0  0  0  0  0  0  0  0  0  0
   -3.2557    1.1189    0.3313 H   0  0  0  0  0  0  0  0  0  0  0  0
    0.2437    0.8923   -2.8894 H   0  0  0  0  0  0  0  0  0  0  0  0
  1  2  3  0
  2  3  1  0
  3  4  1  0
  4  5  1  0
  5  6  1  0
  4  7  1  0
  7  8  1  0
  8  9  2  0
  1 10  1  0
  3 11  1  0
  3 12  1  0
  4 13  1  0
  5 14  1  0
  5 15  1  0
  6 16  1  0
  8 17  1  0
M  END
