
     RDKit          3D

 13 14  0  0  0  0  0  0  0  0999 V2000
    2.7088   -0.6226   -0.3698 C   0  0  0  0  0  0  0  0  0  0  0  0
    1.5415   -0.3571   -0.3282 C   0  0  0  0  0  0  0  0  0  0  0  0
    0.2341   -0.0496   -0.2602 C   0  0  0  0  0  0  0  0  0  0  0  0
   -0.3682    1.1553    0.3264 C   0  0  0  0  0  0  0  0  0  0  0  0
   -1.4654    0.3503   -0.2913 C   0  0  0  0  0  0  0  0  0  0  0  0
   -0.8383   -0.8655    0.3504 C   0  0  0  0  0  0  0  0  0  0  0  0
   -0.5995    0.1244   -1.3541 O   0  0  0  0  0  0  0  0  0  0  0  0
    3.7606   -0.8812   -0.4059 H   0  0  0  0  0  0  0  0  0  0  0  0
   -0.1382    2.1273   -0.1108 H   0  0  0  0  0  0  0  0  0  0  0  0
   -0.4391    1.1413    1.4370 H   0  0  0  0  0  0  0  0  0  0  0  0
   -2.4458    0.5627   -0.3353 H   0  0  0  0  0  0  0  0  0  0  0  0
   -1.0854   -1.8342   -0.1132 H   0  0  0  0  0  0  0  0  0  0  0  0
   -0.8651   -0.8510    1.4549 H   0  0  0  0  0  0  0  0  0  0  0  0
  1  2  3  0
  2  3  1  0
  3  4  1  0
  4  5  1  0
  5  6  1  0
  5  7  1  0
  6  3  1  0
  7  3  1  0
  1  8  1  0
  4  9  1  0
  4 10  1  0
  5 11  1  0
  6 12  1  0
  6 13  1  0
M  END
