
     RDKit          3D

 19 20  0  0  0  0  0  0  0  0999 V2000
    1.8966   -0.7421    2.4622 C   0  0  0  0  0  0  0  0  0  0  0  0
    0.8644   -0.4998    1.9460 C   0  0  0  0  0  0  0  0  0  0  0  0
   -0.3700   -0.2104    1.3189 C   0  0  0  0  0  0  0  0  0  0  0  0
   -0.2463    1.2151    0.7409 C   0  0  0  0  0  0  0  0  0  0  0  0
   -1.0773    1.2112   -0.5786 C   0  0  0  0  0  0  0  0  0  0  0  0
   -1.1382   -0.2216   -0.7686 C   0  0  0  0  0  0  0  0  0  0  0  0
   -0.3586   -1.3335   -1.1935 C   0  0  0  0  0  0  0  0  0  0  0  0
    0.2803   -0.6100   -0.2520 C   0  0  0  0  0  0  0  0  0  0  0  0
    1.3904    0.0431   -0.3175 O   0  0  0  0  0  0  0  0  0  0  0  0
    3.1074   -1.0233    3.0508 H   0  0  0  0  0  0  0  0  0  0  0  0
   -1.0713   -0.9420    1.1939 H   0  0  0  0  0  0  0  0  0  0  0  0
    0.8532    1.3255    0.2470 H   0  0  0  0  0  0  0  0  0  0  0  0
   -0.3016    2.0848    1.3715 H   0  0  0  0  0  0  0  0  0  0  0  0
   -2.0789    1.6398   -0.3145 H   0  0  0  0  0  0  0  0  0  0  0  0
   -0.5754    1.7815   -1.3602 H   0  0  0  0  0  0  0  0  0  0  0  0
   -2.0597   -0.6180   -0.2190 H   0  0  0  0  0  0  0  0  0  0  0  0
   -0.6979   -2.3558   -0.9713 H   0  0  0  0  0  0  0  0  0  0  0  0
   -0.1128   -1.2814   -2.3122 H   0  0  0  0  0  0  0  0  0  0  0  0
    1.6956    0.5367   -1.1169 H   0  0  0  0  0  0  0  0  0  0  0  0
  1  2  3  0
  2  3  1  0
  3  4  1  0
  4  5  1  0
  5  6  1  0
  6  7  1  0
  7  8  1  0
  8  9  1  0
  8  3  1  0
  8  6  1  0
  1 10  1  0
  3 11  1  0
  4 12  1  0
  4 13  1  0
  5 14  1  0
  5 15  1  0
  6 16  1  0
  7 17  1  0
  7 18  1  0
  9 19  1  0
M  END
