
     RDKit          3D

 20 20  0  0  0  0  0  0  0  0999 V2000
    3.1576    0.8461   -0.3219 C   0  0  0  0  0  0  0  0  0  0  0  0
    1.9593    0.7712   -0.4629 C   0  0  0  0  0  0  0  0  0  0  0  0
    0.5162    0.7018   -0.6334 C   0  0  0  0  0  0  0  0  0  0  0  0
   -0.3989    0.8416    0.5359 C   0  0  0  0  0  0  0  0  0  0  0  0
   -1.7688    1.4627    0.3649 C   0  0  0  0  0  0  0  0  0  0  0  0
   -0.1092   -0.5065    0.0377 C   0  0  0  0  0  0  0  0  0  0  0  0
    0.7821   -1.4404    0.8301 C   0  0  0  0  0  0  0  0  0  0  0  0
   -1.0917   -1.2451   -0.8564 C   0  0  0  0  0  0  0  0  0  0  0  0
    4.1869    0.9004   -0.1873 H   0  0  0  0  0  0  0  0  0  0  0  0
    0.0732    1.0624   -1.5967 H   0  0  0  0  0  0  0  0  0  0  0  0
    0.1072    1.1574    1.4749 H   0  0  0  0  0  0  0  0  0  0  0  0
   -1.7895    2.0145   -0.5895 H   0  0  0  0  0  0  0  0  0  0  0  0
   -2.5612    0.6814    0.2877 H   0  0  0  0  0  0  0  0  0  0  0  0
   -2.0335    2.1372    1.1920 H   0  0  0  0  0  0  0  0  0  0  0  0
    1.2796   -2.1971    0.1722 H   0  0  0  0  0  0  0  0  0  0  0  0
    1.5367   -0.8999    1.4334 H   0  0  0  0  0  0  0  0  0  0  0  0
    0.1223   -1.9837    1.5392 H   0  0  0  0  0  0  0  0  0  0  0  0
   -1.8764   -1.7530   -0.2560 H   0  0  0  0  0  0  0  0  0  0  0  0
   -1.5984   -0.5420   -1.5610 H   0  0  0  0  0  0  0  0  0  0  0  0
   -0.4934   -2.0089   -1.4029 H   0  0  0  0  0  0  0  0  0  0  0  0
  1  2  3  0
  2  3  1  0
  3  4  1  0
  4  5  1  0
  4  6  1  0
  6  7  1  0
  6  8  1  0
  6  3  1  0
  1  9  1  0
  3 10  1  0
  4 11  1  0
  5 12  1  0
  5 13  1  0
  5 14  1  0
  7 15  1  0
  7 16  1  0
  7 17  1  0
  8 18  1  0
  8 19  1  0
  8 20  1  0
M  END
