
     RDKit          3D

 17 18  0  0  0  0  0  0  0  0999 V2000
    2.7599   -0.8524    0.8350 C   0  0  0  0  0  0  0  0  0  0  0  0
    1.9122   -0.2906    0.1554 C   0  0  0  0  0  0  0  0  0  0  0  0
    0.9033    0.4048   -0.6487 C   0  0  0  0  0  0  0  0  0  0  0  0
    0.8088    1.7329   -0.2289 O   0  0  0  0  0  0  0  0  0  0  0  0
   -0.2058    1.3469    0.6510 C   0  0  0  0  0  0  0  0  0  0  0  0
   -0.4473    0.1726   -0.1826 C   0  0  0  0  0  0  0  0  0  0  0  0
   -0.8767   -1.1088    0.3935 C   0  0  0  0  0  0  0  0  0  0  0  0
   -2.1582   -0.8636   -0.1157 O   0  0  0  0  0  0  0  0  0  0  0  0
   -1.6068    0.0520   -1.0446 C   0  0  0  0  0  0  0  0  0  0  0  0
    3.4816   -1.3521    1.4270 H   0  0  0  0  0  0  0  0  0  0  0  0
    1.1446    0.3391   -1.7237 H   0  0  0  0  0  0  0  0  0  0  0  0
   -0.9895    2.1249    0.6656 H   0  0  0  0  0  0  0  0  0  0  0  0
    0.2602    1.1358    1.6426 H   0  0  0  0  0  0  0  0  0  0  0  0
   -0.8314   -1.2326    1.4908 H   0  0  0  0  0  0  0  0  0  0  0  0
   -0.4776   -2.0198   -0.1214 H   0  0  0  0  0  0  0  0  0  0  0  0
   -1.4254   -0.5264   -1.9951 H   0  0  0  0  0  0  0  0  0  0  0  0
   -2.2517    0.9372   -1.2000 H   0  0  0  0  0  0  0  0  0  0  0  0
  1  2  3  0
  2  3  1  0
  3  4  1  0
  4  5  1  0
  5  6  1  0
  6  7  1  0
  7  8  1  0
  8  9  1  0
  6  3  1  0
  9  6  1  0
  1 10  1  0
  3 11  1  0
  5 12  1  0
  5 13  1  0
  7 14  1  0
  7 15  1  0
  9 16  1  0
  9 17  1  0
M  END
