
     RDKit          3D

 14 13  0  0  0  0  0  0  0  0999 V2000
    2.5126    1.4511   -1.1823 C   0  0  0  0  0  0  0  0  0  0  0  0
    1.6846    0.6049   -0.9399 C   0  0  0  0  0  0  0  0  0  0  0  0
    0.6783   -0.4296   -0.6200 C   0  0  0  0  0  0  0  0  0  0  0  0
   -0.2066    0.1665    0.4564 C   0  0  0  0  0  0  0  0  0  0  0  0
   -1.2929   -0.8198    0.8711 C   0  0  0  0  0  0  0  0  0  0  0  0
   -2.0886   -0.2457    1.8589 O   0  0  0  0  0  0  0  0  0  0  0  0
    3.2356    2.2051   -1.4118 H   0  0  0  0  0  0  0  0  0  0  0  0
    1.1674   -1.3403   -0.2630 H   0  0  0  0  0  0  0  0  0  0  0  0
    0.1314   -0.6572   -1.5336 H   0  0  0  0  0  0  0  0  0  0  0  0
    0.3819    0.4637    1.3483 H   0  0  0  0  0  0  0  0  0  0  0  0
   -0.6440    1.0924    0.0417 H   0  0  0  0  0  0  0  0  0  0  0  0
   -0.8526   -1.7336    1.3096 H   0  0  0  0  0  0  0  0  0  0  0  0
   -1.9186   -1.0369   -0.0344 H   0  0  0  0  0  0  0  0  0  0  0  0
   -2.7884    0.2797    1.3695 H   0  0  0  0  0  0  0  0  0  0  0  0
  1  2  3  0
  2  3  1  0
  3  4  1  0
  4  5  1  0
  5  6  1  0
  1  7  1  0
  3  8  1  0
  3  9  1  0
  4 10  1  0
  4 11  1  0
  5 12  1  0
  5 13  1  0
  6 14  1  0
M  END
