
     RDKit          3D

 19 19  0  0  0  0  0  0  0  0999 V2000
    2.9557    1.3979   -0.1181 C   0  0  0  0  0  0  0  0  0  0  0  0
    2.2631    0.8639   -0.2030 C   0  0  0  0  0  0  0  0  0  0  0  0
    1.0993   -0.0018   -0.3389 C   0  0  0  0  0  0  0  0  0  0  0  0
    1.2323   -1.1930   -1.0024 O   0  0  0  0  0  0  0  0  0  0  0  0
    0.1866   -0.2413    0.8879 C   0  0  0  0  0  0  0  0  0  0  0  0
   -0.9304   -0.2883   -0.2336 C   0  0  0  0  0  0  0  0  0  0  0  0
   -2.2315   -0.0933    0.4102 C   0  0  0  0  0  0  0  0  0  0  0  0
   -0.7642   -1.4416   -1.0032 O   0  0  0  0  0  0  0  0  0  0  0  0
   -0.1790    0.8263   -0.8650 C   0  0  0  0  0  0  0  0  0  0  0  0
    4.0864    2.2883    0.0012 H   0  0  0  0  0  0  0  0  0  0  0  0
    1.4347   -1.9260   -0.3919 H   0  0  0  0  0  0  0  0  0  0  0  0
    0.0709    0.6057    1.5603 H   0  0  0  0  0  0  0  0  0  0  0  0
    0.2912   -1.2080    1.3772 H   0  0  0  0  0  0  0  0  0  0  0  0
   -2.6817   -1.1143    0.6060 H   0  0  0  0  0  0  0  0  0  0  0  0
   -2.1539    0.4178    1.4190 H   0  0  0  0  0  0  0  0  0  0  0  0
   -2.9648    0.5083   -0.1863 H   0  0  0  0  0  0  0  0  0  0  0  0
   -1.4383   -2.1366   -0.8198 H   0  0  0  0  0  0  0  0  0  0  0  0
   -0.0769    0.9814   -1.8918 H   0  0  0  0  0  0  0  0  0  0  0  0
   -0.1994    1.7545   -0.2041 H   0  0  0  0  0  0  0  0  0  0  0  0
  1  2  3  0
  2  3  1  0
  3  4  1  0
  3  5  1  0
  5  6  1  0
  6  7  1  0
  6  8  1  0
  6  9  1  0
  9  3  1  0
  1 10  1  0
  4 11  1  0
  5 12  1  0
  5 13  1  0
  7 14  1  0
  7 15  1  0
  7 16  1  0
  8 17  1  0
  9 18  1  0
  9 19  1  0
M  END
