
     RDKit          3D

 19 20  0  0  0  0  0  0  0  0999 V2000
    2.0534    3.0145   -0.5447 C   0  0  0  0  0  0  0  0  0  0  0  0
    0.9030    1.9446    0.2474 C   0  0  0  0  0  0  0  0  0  0  0  0
    0.0331    1.1451    0.8576 C   0  0  0  0  0  0  0  0  0  0  0  0
    0.9640    0.0444    1.5856 C   0  0  0  0  0  0  0  0  0  0  0  0
    0.1489    0.0808   -0.5750 C   0  0  0  0  0  0  0  0  0  0  0  0
   -0.4782   -1.1870   -0.2015 C   0  0  0  0  0  0  0  0  0  0  0  0
   -1.8632   -1.6967   -0.1561 C   0  0  0  0  0  0  0  0  0  0  0  0
   -2.3024   -0.4119   -0.5417 O   0  0  0  0  0  0  0  0  0  0  0  0
   -1.0331   -0.2856   -1.2067 C   0  0  0  0  0  0  0  0  0  0  0  0
    2.8426    3.7457   -1.0868 H   0  0  0  0  0  0  0  0  0  0  0  0
   -0.9354    1.2447    0.7102 H   0  0  0  0  0  0  0  0  0  0  0  0
    0.6471   -0.3347    2.4707 H   0  0  0  0  0  0  0  0  0  0  0  0
    2.0328    0.3700    1.5688 H   0  0  0  0  0  0  0  0  0  0  0  0
    1.0738   -0.8146    0.7599 H   0  0  0  0  0  0  0  0  0  0  0  0
    1.1635    0.1637   -0.8692 H   0  0  0  0  0  0  0  0  0  0  0  0
    0.2197   -2.0848   -0.4562 H   0  0  0  0  0  0  0  0  0  0  0  0
   -2.0869   -2.5117   -0.8269 H   0  0  0  0  0  0  0  0  0  0  0  0
   -2.2884   -1.9505    0.8569 H   0  0  0  0  0  0  0  0  0  0  0  0
   -1.0942   -0.4760   -2.3061 H   0  0  0  0  0  0  0  0  0  0  0  0
  1  2  3  0
  2  3  1  0
  3  4  1  0
  3  5  1  0
  5  6  1  0
  6  7  1  0
  7  8  1  0
  8  9  1  0
  9  5  1  0
  9  6  1  0
  1 10  1  0
  3 11  1  0
  4 12  1  0
  4 13  1  0
  4 14  1  0
  5 15  1  0
  6 16  1  0
  7 17  1  0
  7 18  1  0
  9 19  1  0
M  END
