
     RDKit          3D

 19 19  0  0  0  0  0  0  0  0999 V2000
    1.8633   -2.9487   -0.6857 C   0  0  0  0  0  0  0  0  0  0  0  0
    1.1364   -1.8553   -0.9076 C   0  0  0  0  0  0  0  0  0  0  0  0
    0.3941   -0.7702   -1.1456 C   0  0  0  0  0  0  0  0  0  0  0  0
    0.2211   -0.2922   -2.3179 O   0  0  0  0  0  0  0  0  0  0  0  0
   -0.3225    0.0165   -0.0669 C   0  0  0  0  0  0  0  0  0  0  0  0
   -1.3150   -0.8118    0.6879 C   0  0  0  0  0  0  0  0  0  0  0  0
   -0.8592    1.3440   -0.4921 C   0  0  0  0  0  0  0  0  0  0  0  0
    0.2048    2.0520    0.3261 C   0  0  0  0  0  0  0  0  0  0  0  0
    0.6871    0.7220    0.8285 C   0  0  0  0  0  0  0  0  0  0  0  0
    2.4085   -3.7971   -0.5122 H   0  0  0  0  0  0  0  0  0  0  0  0
   -0.9942   -1.8706    0.7518 H   0  0  0  0  0  0  0  0  0  0  0  0
   -1.4132   -0.4060    1.7223 H   0  0  0  0  0  0  0  0  0  0  0  0
   -2.3340   -0.8204    0.2581 H   0  0  0  0  0  0  0  0  0  0  0  0
   -0.8116    1.5106   -1.5830 H   0  0  0  0  0  0  0  0  0  0  0  0
   -1.8828    1.5608   -0.0610 H   0  0  0  0  0  0  0  0  0  0  0  0
   -0.1968    2.6918    1.1360 H   0  0  0  0  0  0  0  0  0  0  0  0
    0.9202    2.6063   -0.3463 H   0  0  0  0  0  0  0  0  0  0  0  0
    1.7487    0.5321    0.5003 H   0  0  0  0  0  0  0  0  0  0  0  0
    0.5453    0.5361    1.9070 H   0  0  0  0  0  0  0  0  0  0  0  0
  1  2  3  0
  2  3  1  0
  3  4  2  0
  3  5  1  0
  5  6  1  0
  5  7  1  0
  7  8  1  0
  8  9  1  0
  9  5  1  0
  1 10  1  0
  6 11  1  0
  6 12  1  0
  6 13  1  0
  7 14  1  0
  7 15  1  0
  8 16  1  0
  8 17  1  0
  9 18  1  0
  9 19  1  0
M  END
