
     RDKit          3D

 19 18  0  0  0  0  0  0  0  0999 V2000
    1.6420    1.9798    1.6852 C   0  0  0  0  0  0  0  0  0  0  0  0
    1.2383    1.3131    0.7623 C   0  0  0  0  0  0  0  0  0  0  0  0
    0.7522    0.4869   -0.3379 C   0  0  0  0  0  0  0  0  0  0  0  0
    1.4602   -0.8128   -0.3570 C   0  0  0  0  0  0  0  0  0  0  0  0
    2.0297   -1.8764   -0.3862 C   0  0  0  0  0  0  0  0  0  0  0  0
   -0.7198    0.2035   -0.1737 C   0  0  0  0  0  0  0  0  0  0  0  0
   -1.1770   -0.6577   -1.3412 C   0  0  0  0  0  0  0  0  0  0  0  0
   -1.0129   -0.4621    1.1521 C   0  0  0  0  0  0  0  0  0  0  0  0
   -1.4086    1.4082   -0.2685 O   0  0  0  0  0  0  0  0  0  0  0  0
    1.9937    2.5788    2.4838 H   0  0  0  0  0  0  0  0  0  0  0  0
    0.8871    1.0201   -1.3015 H   0  0  0  0  0  0  0  0  0  0  0  0
    2.5397   -2.8044   -0.4262 H   0  0  0  0  0  0  0  0  0  0  0  0
   -0.9576   -0.0726   -2.2589 H   0  0  0  0  0  0  0  0  0  0  0  0
   -0.6473   -1.6309   -1.3594 H   0  0  0  0  0  0  0  0  0  0  0  0
   -2.2805   -0.7759   -1.2795 H   0  0  0  0  0  0  0  0  0  0  0  0
   -2.0758   -0.3370    1.4373 H   0  0  0  0  0  0  0  0  0  0  0  0
   -0.7313   -1.5321    1.1402 H   0  0  0  0  0  0  0  0  0  0  0  0
   -0.4213    0.0897    1.9229 H   0  0  0  0  0  0  0  0  0  0  0  0
   -1.1108    1.8817   -1.0937 H   0  0  0  0  0  0  0  0  0  0  0  0
  1  2  3  0
  2  3  1  0
  3  4  1  0
  4  5  3  0
  3  6  1  0
  6  7  1  0
  6  8  1  0
  6  9  1  0
  1 10  1  0
  3 11  1  0
  5 12  1  0
  7 13  1  0
  7 14  1  0
  7 15  1  0
  8 16  1  0
  8 17  1  0
  8 18  1  0
  9 19  1  0
M  END
