
     RDKit          3D

 19 19  0  0  0  0  0  0  0  0999 V2000
    2.2774    2.0661   -0.3127 C   0  0  0  0  0  0  0  0  0  0  0  0
    1.7309    1.0639   -0.7053 C   0  0  0  0  0  0  0  0  0  0  0  0
    1.0764   -0.1788   -1.1714 C   0  0  0  0  0  0  0  0  0  0  0  0
    0.0038   -0.4951   -0.1558 C   0  0  0  0  0  0  0  0  0  0  0  0
    0.5620   -0.7062    1.2415 C   0  0  0  0  0  0  0  0  0  0  0  0
   -1.2844   -1.0699   -0.4784 C   0  0  0  0  0  0  0  0  0  0  0  0
   -1.9433   -1.7420    0.5771 O   0  0  0  0  0  0  0  0  0  0  0  0
   -1.2100    0.4222   -0.3016 C   0  0  0  0  0  0  0  0  0  0  0  0
   -1.6078    1.0130    0.8769 O   0  0  0  0  0  0  0  0  0  0  0  0
    2.7462    2.9643    0.0321 H   0  0  0  0  0  0  0  0  0  0  0  0
    0.6451    0.0040   -2.1797 H   0  0  0  0  0  0  0  0  0  0  0  0
    1.8710   -0.9480   -1.1750 H   0  0  0  0  0  0  0  0  0  0  0  0
    0.2313   -1.7492    1.5270 H   0  0  0  0  0  0  0  0  0  0  0  0
    1.6511   -0.6685    1.2848 H   0  0  0  0  0  0  0  0  0  0  0  0
    0.1315    0.0050    1.9651 H   0  0  0  0  0  0  0  0  0  0  0  0
   -1.5637   -1.4911   -1.4614 H   0  0  0  0  0  0  0  0  0  0  0  0
   -2.8473   -1.3531    0.6544 H   0  0  0  0  0  0  0  0  0  0  0  0
   -1.3431    0.9925   -1.2273 H   0  0  0  0  0  0  0  0  0  0  0  0
   -1.1272    1.8710    1.0098 H   0  0  0  0  0  0  0  0  0  0  0  0
  1  2  3  0
  2  3  1  0
  3  4  1  0
  4  5  1  0
  4  6  1  0
  6  7  1  0
  6  8  1  0
  8  9  1  0
  8  4  1  0
  1 10  1  0
  3 11  1  0
  3 12  1  0
  5 13  1  0
  5 14  1  0
  5 15  1  0
  6 16  1  0
  7 17  1  0
  8 18  1  0
  9 19  1  0
M  END
