
     RDKit          3D

 19 18  0  0  0  0  0  0  0  0999 V2000
    4.2793    1.1141    0.5639 C   0  0  0  0  0  0  0  0  0  0  0  0
    3.2189    0.6313    0.2334 C   0  0  0  0  0  0  0  0  0  0  0  0
    1.9842    0.0423   -0.1500 C   0  0  0  0  0  0  0  0  0  0  0  0
    0.9390   -0.4602   -0.4935 C   0  0  0  0  0  0  0  0  0  0  0  0
   -0.3435   -1.0661   -0.9099 C   0  0  0  0  0  0  0  0  0  0  0  0
   -0.3499   -2.3562   -0.4731 O   0  0  0  0  0  0  0  0  0  0  0  0
   -1.4563   -0.2601   -0.2805 C   0  0  0  0  0  0  0  0  0  0  0  0
   -1.3860    1.1853   -0.7486 C   0  0  0  0  0  0  0  0  0  0  0  0
   -1.3355   -0.2388    1.2242 C   0  0  0  0  0  0  0  0  0  0  0  0
    5.2075    1.5544    0.8635 H   0  0  0  0  0  0  0  0  0  0  0  0
   -0.4726   -1.0323   -2.0056 H   0  0  0  0  0  0  0  0  0  0  0  0
    0.1927   -2.4702    0.3583 H   0  0  0  0  0  0  0  0  0  0  0  0
   -2.4183   -0.6872   -0.5704 H   0  0  0  0  0  0  0  0  0  0  0  0
   -1.1830    1.2422   -1.8237 H   0  0  0  0  0  0  0  0  0  0  0  0
   -0.6210    1.7370   -0.1368 H   0  0  0  0  0  0  0  0  0  0  0  0
   -2.3681    1.6586   -0.5155 H   0  0  0  0  0  0  0  0  0  0  0  0
   -0.7294   -1.0744    1.6242 H   0  0  0  0  0  0  0  0  0  0  0  0
   -2.3396   -0.2182    1.6775 H   0  0  0  0  0  0  0  0  0  0  0  0
   -0.8185    0.6985    1.5627 H   0  0  0  0  0  0  0  0  0  0  0  0
  1  2  3  0
  2  3  1  0
  3  4  3  0
  4  5  1  0
  5  6  1  0
  5  7  1  0
  7  8  1  0
  7  9  1  0
  1 10  1  0
  5 11  1  0
  6 12  1  0
  7 13  1  0
  8 14  1  0
  8 15  1  0
  8 16  1  0
  9 17  1  0
  9 18  1  0
  9 19  1  0
M  END
