
     RDKit          3D

 19 20  0  0  0  0  0  0  0  0999 V2000
    2.7221    1.3257    0.8259 C   0  0  0  0  0  0  0  0  0  0  0  0
    2.1605    0.3501    0.3548 C   0  0  0  0  0  0  0  0  0  0  0  0
    1.5053   -0.8280   -0.2267 C   0  0  0  0  0  0  0  0  0  0  0  0
    1.0764   -1.7460    0.6944 O   0  0  0  0  0  0  0  0  0  0  0  0
   -0.0412   -1.9963   -0.1222 C   0  0  0  0  0  0  0  0  0  0  0  0
    0.0682   -0.5638   -0.6042 C   0  0  0  0  0  0  0  0  0  0  0  0
   -0.6850    0.3257    0.3563 C   0  0  0  0  0  0  0  0  0  0  0  0
   -2.1282    0.5663   -0.0612 C   0  0  0  0  0  0  0  0  0  0  0  0
   -1.1342    1.6765   -0.0390 C   0  0  0  0  0  0  0  0  0  0  0  0
    3.2232    2.1659    1.2331 H   0  0  0  0  0  0  0  0  0  0  0  0
    2.0486   -1.2997   -1.0622 H   0  0  0  0  0  0  0  0  0  0  0  0
    0.1162   -2.7378   -0.9162 H   0  0  0  0  0  0  0  0  0  0  0  0
   -0.9590   -2.1797    0.5069 H   0  0  0  0  0  0  0  0  0  0  0  0
   -0.1124   -0.3980   -1.6705 H   0  0  0  0  0  0  0  0  0  0  0  0
   -0.4826    0.0848    1.4195 H   0  0  0  0  0  0  0  0  0  0  0  0
   -2.4550    0.2506   -1.0706 H   0  0  0  0  0  0  0  0  0  0  0  0
   -2.8615    0.4536    0.7520 H   0  0  0  0  0  0  0  0  0  0  0  0
   -1.2696    2.4022    0.7900 H   0  0  0  0  0  0  0  0  0  0  0  0
   -0.7918    2.1478   -0.9823 H   0  0  0  0  0  0  0  0  0  0  0  0
  1  2  3  0
  2  3  1  0
  3  4  1  0
  4  5  1  0
  5  6  1  0
  6  7  1  0
  7  8  1  0
  8  9  1  0
  6  3  1  0
  9  7  1  0
  1 10  1  0
  3 11  1  0
  5 12  1  0
  5 13  1  0
  6 14  1  0
  7 15  1  0
  8 16  1  0
  8 17  1  0
  9 18  1  0
  9 19  1  0
M  END
