
     RDKit          3D

 17 17  0  0  0  0  0  0  0  0999 V2000
   -2.7646    0.2136    0.0649 C   0  0  0  0  0  0  0  0  0  0  0  0
   -2.0326   -0.8742    0.2680 C   0  0  0  0  0  0  0  0  0  0  0  0
   -1.3355   -1.8766    0.4491 C   0  0  0  0  0  0  0  0  0  0  0  0
    0.1489   -1.3580    0.7571 C   0  0  0  0  0  0  0  0  0  0  0  0
    0.2798   -0.0738    1.5079 O   0  0  0  0  0  0  0  0  0  0  0  0
    0.6742   -0.2883    0.1613 C   0  0  0  0  0  0  0  0  0  0  0  0
    1.4288    0.4615   -0.7817 C   0  0  0  0  0  0  0  0  0  0  0  0
    1.5776    1.3962   -0.7675 C   0  0  0  0  0  0  0  0  0  0  0  0
    1.8397    2.8781   -0.7409 C   0  0  0  0  0  0  0  0  0  0  0  0
   -3.7474    1.7005   -0.2297 H   0  0  0  0  0  0  0  0  0  0  0  0
   -1.6928   -2.3640    1.4492 H   0  0  0  0  0  0  0  0  0  0  0  0
   -1.2479   -2.4198   -0.4294 H   0  0  0  0  0  0  0  0  0  0  0  0
    0.6355   -2.0331    1.5599 H   0  0  0  0  0  0  0  0  0  0  0  0
   -0.5193    0.2424   -0.3842 H   0  0  0  0  0  0  0  0  0  0  0  0
    2.7555    0.1476   -0.2085 H   0  0  0  0  0  0  0  0  0  0  0  0
    1.8698   -0.2123   -1.6667 H   0  0  0  0  0  0  0  0  0  0  0  0
    2.1305    4.4602   -0.6863 H   0  0  0  0  0  0  0  0  0  0  0  0
  1  2  3  0
  2  3  1  0
  3  4  1  0
  4  5  1  0
  5  6  1  0
  6  7  1  0
  7  8  1  0
  8  9  3  0
  6  4  1  0
  1 10  1  0
  3 11  1  0
  3 12  1  0
  4 13  1  0
  6 14  1  0
  7 15  1  0
  7 16  1  0
  9 17  1  0
M  END
