
     RDKit          3D

 15 17  0  0  0  0  0  0  0  0999 V2000
    2.0078    1.7670   -1.4398 C   0  0  0  0  0  0  0  0  0  0  0  0
    1.1995    1.0703   -0.9022 C   0  0  0  0  0  0  0  0  0  0  0  0
    0.2193    0.2498   -0.2768 C   0  0  0  0  0  0  0  0  0  0  0  0
    0.5135   -1.1634    0.1664 C   0  0  0  0  0  0  0  0  0  0  0  0
   -0.8493   -1.3926    0.8428 C   0  0  0  0  0  0  0  0  0  0  0  0
   -0.8877   -0.3259    1.7047 O   0  0  0  0  0  0  0  0  0  0  0  0
   -0.6466    0.7431    0.8525 C   0  0  0  0  0  0  0  0  0  0  0  0
   -1.2116    0.3200   -0.4379 C   0  0  0  0  0  0  0  0  0  0  0  0
   -1.6898   -0.9801   -0.1816 O   0  0  0  0  0  0  0  0  0  0  0  0
    2.7407    2.3857   -1.9137 H   0  0  0  0  0  0  0  0  0  0  0  0
    0.6370   -1.8695   -0.6602 H   0  0  0  0  0  0  0  0  0  0  0  0
    1.3059   -1.1756    0.9133 H   0  0  0  0  0  0  0  0  0  0  0  0
   -0.9921   -2.3688    1.2301 H   0  0  0  0  0  0  0  0  0  0  0  0
   -0.5808    1.7599    1.2066 H   0  0  0  0  0  0  0  0  0  0  0  0
   -1.7659    0.9802   -1.1044 H   0  0  0  0  0  0  0  0  0  0  0  0
  1  2  3  0
  2  3  1  0
  3  4  1  0
  4  5  1  0
  5  6  1  0
  6  7  1  0
  7  8  1  0
  8  9  1  0
  7  3  1  0
  8  3  1  0
  9  5  1  0
  1 10  1  0
  4 11  1  0
  4 12  1  0
  5 13  1  0
  7 14  1  0
  8 15  1  0
M  END
