
     RDKit          3D

 17 17  0  0  0  0  0  0  0  0999 V2000
    2.9449    1.0723    1.5220 C   0  0  0  0  0  0  0  0  0  0  0  0
    2.3938    0.2878    0.7737 C   0  0  0  0  0  0  0  0  0  0  0  0
    1.7205   -0.6559   -0.1158 C   0  0  0  0  0  0  0  0  0  0  0  0
    0.2560   -0.3212   -0.2292 C   0  0  0  0  0  0  0  0  0  0  0  0
   -0.3188    0.6904    0.3984 C   0  0  0  0  0  0  0  0  0  0  0  0
   -1.7701    0.7628    0.0880 C   0  0  0  0  0  0  0  0  0  0  0  0
   -2.0750   -0.5507   -0.5558 C   0  0  0  0  0  0  0  0  0  0  0  0
   -0.7362   -1.0364   -1.0246 C   0  0  0  0  0  0  0  0  0  0  0  0
   -0.5274   -1.8902   -1.9249 O   0  0  0  0  0  0  0  0  0  0  0  0
    3.4380    1.7555    2.1608 H   0  0  0  0  0  0  0  0  0  0  0  0
    1.8069   -1.6759    0.3155 H   0  0  0  0  0  0  0  0  0  0  0  0
    2.2025   -0.6200   -1.1208 H   0  0  0  0  0  0  0  0  0  0  0  0
    0.2287    1.3795    1.0628 H   0  0  0  0  0  0  0  0  0  0  0  0
   -1.8965    1.5616   -0.6678 H   0  0  0  0  0  0  0  0  0  0  0  0
   -2.3546    0.9515    1.0087 H   0  0  0  0  0  0  0  0  0  0  0  0
   -2.7553   -0.4328   -1.4208 H   0  0  0  0  0  0  0  0  0  0  0  0
   -2.5575   -1.2783    0.1322 H   0  0  0  0  0  0  0  0  0  0  0  0
  1  2  3  0
  2  3  1  0
  3  4  1  0
  4  5  2  0
  5  6  1  0
  6  7  1  0
  7  8  1  0
  8  9  2  0
  8  4  1  0
  1 10  1  0
  3 11  1  0
  3 12  1  0
  5 13  1  0
  6 14  1  0
  6 15  1  0
  7 16  1  0
  7 17  1  0
M  END
