
     RDKit          3D

 13 13  0  0  0  0  0  0  0  0999 V2000
    1.5263    0.8174    1.9915 C   0  0  0  0  0  0  0  0  0  0  0  0
    1.0991    0.8896    0.9179 C   0  0  0  0  0  0  0  0  0  0  0  0
    0.5074    0.9750   -0.5208 C   0  0  0  0  0  0  0  0  0  0  0  0
   -0.7337    1.7824   -0.3081 O   0  0  0  0  0  0  0  0  0  0  0  0
   -1.2437    0.6944    0.2279 C   0  0  0  0  0  0  0  0  0  0  0  0
   -2.0205    0.2524    1.1381 O   0  0  0  0  0  0  0  0  0  0  0  0
   -0.4015   -0.0585   -0.8305 C   0  0  0  0  0  0  0  0  0  0  0  0
   -0.3335   -1.4339   -0.5632 C   0  0  0  0  0  0  0  0  0  0  0  0
   -0.2594   -2.6315   -0.3278 C   0  0  0  0  0  0  0  0  0  0  0  0
    1.8909    0.7574    2.9544 H   0  0  0  0  0  0  0  0  0  0  0  0
    1.1767    1.5491   -1.1353 H   0  0  0  0  0  0  0  0  0  0  0  0
   -1.0177    0.1556   -1.7979 H   0  0  0  0  0  0  0  0  0  0  0  0
   -0.1904   -3.7494   -0.1283 H   0  0  0  0  0  0  0  0  0  0  0  0
  1  2  3  0
  2  3  1  0
  3  4  1  0
  4  5  1  0
  5  6  2  0
  5  7  1  0
  7  8  1  0
  8  9  3  0
  7  3  1  0
  1 10  1  0
  3 11  1  0
  7 12  1  0
  9 13  1  0
M  END
