
     RDKit          3D

 17 17  0  0  0  0  0  0  0  0999 V2000
    2.6696   -0.5953   -1.1364 C   0  0  0  0  0  0  0  0  0  0  0  0
    1.6595   -0.4032   -0.5082 C   0  0  0  0  0  0  0  0  0  0  0  0
    0.4498   -0.1557    0.2393 C   0  0  0  0  0  0  0  0  0  0  0  0
    0.4719    1.0804    1.0597 C   0  0  0  0  0  0  0  0  0  0  0  0
   -0.0292    1.2091    2.1412 O   0  0  0  0  0  0  0  0  0  0  0  0
   -0.0876   -1.3781    0.8999 C   0  0  0  0  0  0  0  0  0  0  0  0
   -1.2837   -1.2698    0.1831 O   0  0  0  0  0  0  0  0  0  0  0  0
   -0.7883   -0.2509   -0.6222 C   0  0  0  0  0  0  0  0  0  0  0  0
   -1.6528    0.9788   -0.5519 C   0  0  0  0  0  0  0  0  0  0  0  0
    3.5611   -0.7726   -1.7055 H   0  0  0  0  0  0  0  0  0  0  0  0
    0.9887    1.9392    0.6376 H   0  0  0  0  0  0  0  0  0  0  0  0
   -0.2132   -1.3253    2.0120 H   0  0  0  0  0  0  0  0  0  0  0  0
    0.4132   -2.3365    0.5912 H   0  0  0  0  0  0  0  0  0  0  0  0
   -0.5577   -0.5254   -1.6554 H   0  0  0  0  0  0  0  0  0  0  0  0
   -2.1940    1.0842   -1.5114 H   0  0  0  0  0  0  0  0  0  0  0  0
   -2.4190    0.8865    0.2572 H   0  0  0  0  0  0  0  0  0  0  0  0
   -0.9883    1.8347   -0.3301 H   0  0  0  0  0  0  0  0  0  0  0  0
  1  2  3  0
  2  3  1  0
  3  4  1  0
  4  5  2  0
  3  6  1  0
  6  7  1  0
  7  8  1  0
  8  9  1  0
  8  3  1  0
  1 10  1  0
  4 11  1  0
  6 12  1  0
  6 13  1  0
  8 14  1  0
  9 15  1  0
  9 16  1  0
  9 17  1  0
M  END
