
     RDKit          3D

 23 23  0  0  0  0  0  0  0  0999 V2000
    2.3838    0.2692    2.2030 C   0  0  0  0  0  0  0  0  0  0  0  0
    1.9008   -0.5694    1.4841 C   0  0  0  0  0  0  0  0  0  0  0  0
    1.3318   -1.6082    0.6082 C   0  0  0  0  0  0  0  0  0  0  0  0
    0.2114   -0.9554   -0.1867 C   0  0  0  0  0  0  0  0  0  0  0  0
    0.7684    0.1847   -1.0068 C   0  0  0  0  0  0  0  0  0  0  0  0
   -0.4320    0.7334   -1.7921 C   0  0  0  0  0  0  0  0  0  0  0  0
   -1.2499    1.4522   -0.7458 C   0  0  0  0  0  0  0  0  0  0  0  0
   -1.8052    0.5005    0.2778 C   0  0  0  0  0  0  0  0  0  0  0  0
   -0.8885   -0.5578    0.7342 C   0  0  0  0  0  0  0  0  0  0  0  0
    2.8138    1.0303    2.8335 H   0  0  0  0  0  0  0  0  0  0  0  0
    2.0942   -2.0738   -0.0302 H   0  0  0  0  0  0  0  0  0  0  0  0
    0.9177   -2.4040    1.2605 H   0  0  0  0  0  0  0  0  0  0  0  0
   -0.1347   -1.7149   -0.9229 H   0  0  0  0  0  0  0  0  0  0  0  0
    1.5174   -0.1976   -1.6998 H   0  0  0  0  0  0  0  0  0  0  0  0
    1.2052    0.9911   -0.3639 H   0  0  0  0  0  0  0  0  0  0  0  0
   -1.0174   -0.1432   -2.1446 H   0  0  0  0  0  0  0  0  0  0  0  0
   -0.1238    1.4133   -2.5802 H   0  0  0  0  0  0  0  0  0  0  0  0
   -0.6057    2.2069   -0.2519 H   0  0  0  0  0  0  0  0  0  0  0  0
   -2.0761    1.9668   -1.2845 H   0  0  0  0  0  0  0  0  0  0  0  0
   -2.7276    0.0535   -0.1959 H   0  0  0  0  0  0  0  0  0  0  0  0
   -2.1908    1.1217    1.1145 H   0  0  0  0  0  0  0  0  0  0  0  0
   -0.4204   -0.2322    1.6988 H   0  0  0  0  0  0  0  0  0  0  0  0
   -1.4725   -1.4670    0.9908 H   0  0  0  0  0  0  0  0  0  0  0  0
  1  2  3  0
  2  3  1  0
  3  4  1  0
  4  5  1  0
  5  6  1  0
  6  7  1  0
  7  8  1  0
  8  9  1  0
  9  4  1  0
  1 10  1  0
  3 11  1  0
  3 12  1  0
  4 13  1  0
  5 14  1  0
  5 15  1  0
  6 16  1  0
  6 17  1  0
  7 18  1  0
  7 19  1  0
  8 20  1  0
  8 21  1  0
  9 22  1  0
  9 23  1  0
M  END
