
     RDKit          3D

 17 17  0  0  0  0  0  0  0  0999 V2000
   -3.0722   -1.2343   -1.8788 C   0  0  0  0  0  0  0  0  0  0  0  0
   -2.0097   -0.7987   -1.7337 C   0  0  0  0  0  0  0  0  0  0  0  0
   -0.7446   -0.2705   -1.5399 C   0  0  0  0  0  0  0  0  0  0  0  0
   -1.0701    0.3499    0.0145 C   0  0  0  0  0  0  0  0  0  0  0  0
    0.3259    0.8020    0.3741 C   0  0  0  0  0  0  0  0  0  0  0  0
    1.1642   -0.4576    0.2670 O   0  0  0  0  0  0  0  0  0  0  0  0
    1.1462    0.2133    1.3944 C   0  0  0  0  0  0  0  0  0  0  0  0
    2.5829    0.8413    1.7847 C   0  0  0  0  0  0  0  0  0  0  0  0
    3.5868    1.2884    2.0757 C   0  0  0  0  0  0  0  0  0  0  0  0
   -4.2440   -1.7302   -2.0309 H   0  0  0  0  0  0  0  0  0  0  0  0
    0.0962   -0.8111   -1.2712 H   0  0  0  0  0  0  0  0  0  0  0  0
   -0.6053    0.7979   -1.9867 H   0  0  0  0  0  0  0  0  0  0  0  0
   -1.4681   -0.4741    0.4645 H   0  0  0  0  0  0  0  0  0  0  0  0
   -1.6907    1.1932   -0.2549 H   0  0  0  0  0  0  0  0  0  0  0  0
    0.7713    1.5540   -0.3515 H   0  0  0  0  0  0  0  0  0  0  0  0
    0.7322   -0.2038    2.3324 H   0  0  0  0  0  0  0  0  0  0  0  0
    4.4990    1.6749    2.3401 H   0  0  0  0  0  0  0  0  0  0  0  0
  1  2  3  0
  2  3  1  0
  3  4  1  0
  4  5  1  0
  5  6  1  0
  6  7  1  0
  7  8  1  0
  8  9  3  0
  7  5  1  0
  1 10  1  0
  3 11  1  0
  3 12  1  0
  4 13  1  0
  4 14  1  0
  5 15  1  0
  7 16  1  0
  9 17  1  0
M  END
