
     RDKit          3D

 17 18  0  0  0  0  0  0  0  0999 V2000
    1.2945    0.4955   -2.3868 C   0  0  0  0  0  0  0  0  0  0  0  0
    0.7006    0.1188   -1.3943 C   0  0  0  0  0  0  0  0  0  0  0  0
    0.0012   -0.3133   -0.1956 C   0  0  0  0  0  0  0  0  0  0  0  0
    0.8570   -0.5775    0.8450 O   0  0  0  0  0  0  0  0  0  0  0  0
    1.6179    0.5109    1.2304 C   0  0  0  0  0  0  0  0  0  0  0  0
   -1.1028    0.6263    0.2258 C   0  0  0  0  0  0  0  0  0  0  0  0
   -2.0248   -0.5540    0.2670 C   0  0  0  0  0  0  0  0  0  0  0  0
   -2.2294   -1.1900   -0.9275 O   0  0  0  0  0  0  0  0  0  0  0  0
   -0.9863   -1.4334   -0.4005 C   0  0  0  0  0  0  0  0  0  0  0  0
    1.8120    0.8356   -3.2341 H   0  0  0  0  0  0  0  0  0  0  0  0
    2.2639    0.1736    2.0722 H   0  0  0  0  0  0  0  0  0  0  0  0
    1.0399    1.3675    1.5904 H   0  0  0  0  0  0  0  0  0  0  0  0
    2.2805    0.8654    0.4142 H   0  0  0  0  0  0  0  0  0  0  0  0
   -1.4489    1.3298   -0.5882 H   0  0  0  0  0  0  0  0  0  0  0  0
   -0.9464    1.1018    1.2085 H   0  0  0  0  0  0  0  0  0  0  0  0
   -2.3977   -0.9521    1.2196 H   0  0  0  0  0  0  0  0  0  0  0  0
   -0.7313   -2.4049    0.0540 H   0  0  0  0  0  0  0  0  0  0  0  0
  1  2  3  0
  2  3  1  0
  3  4  1  0
  4  5  1  0
  3  6  1  0
  6  7  1  0
  7  8  1  0
  8  9  1  0
  9  3  1  0
  9  7  1  0
  1 10  1  0
  5 11  1  0
  5 12  1  0
  5 13  1  0
  6 14  1  0
  6 15  1  0
  7 16  1  0
  9 17  1  0
M  END
