
     RDKit          3D

 15 15  0  0  0  0  0  0  0  0999 V2000
    0.5239    2.7367   -0.3340 C   0  0  0  0  0  0  0  0  0  0  0  0
    0.2254    1.4036    0.2265 C   0  0  0  0  0  0  0  0  0  0  0  0
    0.0063    0.4627    0.6061 C   0  0  0  0  0  0  0  0  0  0  0  0
    0.7051   -0.2635   -1.0472 C   0  0  0  0  0  0  0  0  0  0  0  0
    1.1528   -0.7567   -2.1423 C   0  0  0  0  0  0  0  0  0  0  0  0
   -1.1935   -0.4978    0.4981 C   0  0  0  0  0  0  0  0  0  0  0  0
   -1.7674   -1.1090   -0.5234 O   0  0  0  0  0  0  0  0  0  0  0  0
   -0.0698   -0.9650    1.2318 C   0  0  0  0  0  0  0  0  0  0  0  0
    1.0060   -1.7145    0.6690 O   0  0  0  0  0  0  0  0  0  0  0  0
    0.8503    4.1514   -0.9134 H   0  0  0  0  0  0  0  0  0  0  0  0
    1.4201   -1.0559   -2.8117 H   0  0  0  0  0  0  0  0  0  0  0  0
   -2.0728    0.0772    1.0777 H   0  0  0  0  0  0  0  0  0  0  0  0
   -2.6839   -0.8548   -0.8698 H   0  0  0  0  0  0  0  0  0  0  0  0
    0.1580   -0.6428    2.3578 H   0  0  0  0  0  0  0  0  0  0  0  0
    1.7395   -0.9718    0.5087 H   0  0  0  0  0  0  0  0  0  0  0  0
  1  2  3  0
  2  3  1  0
  3  4  1  0
  4  5  3  0
  3  6  1  0
  6  7  1  0
  6  8  1  0
  8  9  1  0
  8  3  1  0
  1 10  1  0
  5 11  1  0
  6 12  1  0
  7 13  1  0
  8 14  1  0
  9 15  1  0
M  END
