
     RDKit          3D

 25 24  0  0  0  0  0  0  0  0999 V2000
    3.2733   -0.7415   -1.1227 C   0  0  0  0  0  0  0  0  0  0  0  0
    2.5926   -0.7415   -0.1251 C   0  0  0  0  0  0  0  0  0  0  0  0
    1.7882   -0.7443    1.0989 C   0  0  0  0  0  0  0  0  0  0  0  0
    0.9715    0.5512    1.0791 C   0  0  0  0  0  0  0  0  0  0  0  0
    0.0952    0.5964   -0.1220 C   0  0  0  0  0  0  0  0  0  0  0  0
   -0.6917    1.8899   -0.1013 C   0  0  0  0  0  0  0  0  0  0  0  0
   -0.7980   -0.6044   -0.2717 C   0  0  0  0  0  0  0  0  0  0  0  0
   -1.7302   -0.8024    0.8723 C   0  0  0  0  0  0  0  0  0  0  0  0
   -1.6352   -0.3952   -1.5294 C   0  0  0  0  0  0  0  0  0  0  0  0
    3.8827   -0.7346   -1.9934 H   0  0  0  0  0  0  0  0  0  0  0  0
    1.1501   -1.6295    1.0839 H   0  0  0  0  0  0  0  0  0  0  0  0
    2.4663   -0.7288    1.9613 H   0  0  0  0  0  0  0  0  0  0  0  0
    0.4121    0.7044    2.0064 H   0  0  0  0  0  0  0  0  0  0  0  0
    1.7393    1.3653    0.9609 H   0  0  0  0  0  0  0  0  0  0  0  0
    0.7203    0.6435   -1.0534 H   0  0  0  0  0  0  0  0  0  0  0  0
   -1.0200    2.0792   -1.1355 H   0  0  0  0  0  0  0  0  0  0  0  0
   -1.5022    1.8902    0.6360 H   0  0  0  0  0  0  0  0  0  0  0  0
    0.0509    2.6909    0.1849 H   0  0  0  0  0  0  0  0  0  0  0  0
   -0.1963   -1.5075   -0.4437 H   0  0  0  0  0  0  0  0  0  0  0  0
   -2.4131   -1.6376    0.6196 H   0  0  0  0  0  0  0  0  0  0  0  0
   -1.2158   -1.0968    1.8103 H   0  0  0  0  0  0  0  0  0  0  0  0
   -2.3374    0.0842    1.0863 H   0  0  0  0  0  0  0  0  0  0  0  0
   -0.9813   -0.3796   -2.4158 H   0  0  0  0  0  0  0  0  0  0  0  0
   -2.3399   -1.2554   -1.6492 H   0  0  0  0  0  0  0  0  0  0  0  0
   -2.2812    0.5037   -1.4369 H   0  0  0  0  0  0  0  0  0  0  0  0
  1  2  3  0
  2  3  1  0
  3  4  1  0
  4  5  1  0
  5  6  1  0
  5  7  1  0
  7  8  1  0
  7  9  1  0
  1 10  1  0
  3 11  1  0
  3 12  1  0
  4 13  1  0
  4 14  1  0
  5 15  1  0
  6 16  1  0
  6 17  1  0
  6 18  1  0
  7 19  1  0
  8 20  1  0
  8 21  1  0
  8 22  1  0
  9 23  1  0
  9 24  1  0
  9 25  1  0
M  END
