
     RDKit          3D

 14 13  0  0  0  0  0  0  0  0999 V2000
    3.4183   -0.6583   -1.9549 C   0  0  0  0  0  0  0  0  0  0  0  0
    2.5626   -1.1126   -1.2341 C   0  0  0  0  0  0  0  0  0  0  0  0
    1.6159   -1.6290   -0.4063 C   0  0  0  0  0  0  0  0  0  0  0  0
    1.2846   -2.7326    0.0008 O   0  0  0  0  0  0  0  0  0  0  0  0
    0.6239   -0.6856    0.3230 C   0  0  0  0  0  0  0  0  0  0  0  0
   -0.0914    0.0064    0.8556 C   0  0  0  0  0  0  0  0  0  0  0  0
   -1.0807    0.9719    1.5888 C   0  0  0  0  0  0  0  0  0  0  0  0
   -2.4402    0.8208    1.0476 C   0  0  0  0  0  0  0  0  0  0  0  0
    4.1901   -0.2539   -2.6227 H   0  0  0  0  0  0  0  0  0  0  0  0
   -0.9441    0.9540    2.6795 H   0  0  0  0  0  0  0  0  0  0  0  0
   -0.6966    1.9706    1.1151 H   0  0  0  0  0  0  0  0  0  0  0  0
   -2.4376    0.1376    0.1858 H   0  0  0  0  0  0  0  0  0  0  0  0
   -3.1798    0.3738    1.7234 H   0  0  0  0  0  0  0  0  0  0  0  0
   -2.8251    1.8368    0.6178 H   0  0  0  0  0  0  0  0  0  0  0  0
  1  2  3  0
  2  3  1  0
  3  4  2  0
  3  5  1  0
  5  6  3  0
  6  7  1  0
  7  8  1  0
  1  9  1  0
  7 10  1  0
  7 11  1  0
  8 12  1  0
  8 13  1  0
  8 14  1  0
M  END
