
     RDKit          3D

 15 15  0  0  0  0  0  0  0  0999 V2000
   -0.3912    3.2824    0.9646 C   0  0  0  0  0  0  0  0  0  0  0  0
   -0.2111    1.8561    0.7935 C   0  0  0  0  0  0  0  0  0  0  0  0
   -0.0459    0.6323    0.6402 C   0  0  0  0  0  0  0  0  0  0  0  0
   -0.8347   -0.4242    0.0097 C   0  0  0  0  0  0  0  0  0  0  0  0
   -1.0387   -1.7127    0.7608 C   0  0  0  0  0  0  0  0  0  0  0  0
   -1.1985   -2.7294    1.3700 C   0  0  0  0  0  0  0  0  0  0  0  0
    0.7561   -0.2107   -0.2650 C   0  0  0  0  0  0  0  0  0  0  0  0
    1.1244   -0.0633   -1.5664 C   0  0  0  0  0  0  0  0  0  0  0  0
    1.5079    0.0741   -2.8419 C   0  0  0  0  0  0  0  0  0  0  0  0
   -0.5058    4.2435    1.0893 H   0  0  0  0  0  0  0  0  0  0  0  0
    0.3182    0.1347    1.7582 H   0  0  0  0  0  0  0  0  0  0  0  0
   -1.2284   -0.4894   -1.0963 H   0  0  0  0  0  0  0  0  0  0  0  0
   -1.3303   -3.6681    1.9216 H   0  0  0  0  0  0  0  0  0  0  0  0
    1.2829   -1.0938    0.2849 H   0  0  0  0  0  0  0  0  0  0  0  0
    1.7951    0.1685   -3.8233 H   0  0  0  0  0  0  0  0  0  0  0  0
  1  2  3  0
  2  3  1  0
  3  4  1  0
  4  5  1  0
  5  6  3  0
  4  7  1  0
  7  8  1  0
  8  9  3  0
  7  3  1  0
  1 10  1  0
  3 11  1  0
  4 12  1  0
  6 13  1  0
  7 14  1  0
  9 15  1  0
M  END
