
     RDKit          3D

 16 15  0  0  0  0  0  0  0  0999 V2000
   -0.9320    2.9201   -0.4883 C   0  0  0  0  0  0  0  0  0  0  0  0
   -1.1316    1.8176   -0.7080 C   0  0  0  0  0  0  0  0  0  0  0  0
   -1.4853    0.0399   -1.0712 C   0  0  0  0  0  0  0  0  0  0  0  0
    0.2269   -0.2028   -0.6149 C   0  0  0  0  0  0  0  0  0  0  0  0
    1.2439   -0.3478   -0.3244 C   0  0  0  0  0  0  0  0  0  0  0  0
    2.7192   -0.5354    0.1115 C   0  0  0  0  0  0  0  0  0  0  0  0
   -1.8539   -0.0319    0.2921 O   0  0  0  0  0  0  0  0  0  0  0  0
   -1.4514   -1.2033    0.9310 C   0  0  0  0  0  0  0  0  0  0  0  0
   -0.7675    3.8568   -0.2926 H   0  0  0  0  0  0  0  0  0  0  0  0
   -1.2420    0.0604   -1.9177 H   0  0  0  0  0  0  0  0  0  0  0  0
    3.0922    0.3496    0.5780 H   0  0  0  0  0  0  0  0  0  0  0  0
    3.2773   -0.9327   -0.7207 H   0  0  0  0  0  0  0  0  0  0  0  0
    2.6583   -1.3301    0.9105 H   0  0  0  0  0  0  0  0  0  0  0  0
   -0.4024   -1.4214    0.8797 H   0  0  0  0  0  0  0  0  0  0  0  0
   -1.8277   -1.0421    2.0012 H   0  0  0  0  0  0  0  0  0  0  0  0
   -2.1242   -1.9969    0.4336 H   0  0  0  0  0  0  0  0  0  0  0  0
  1  2  3  0
  2  3  1  0
  3  4  1  0
  4  5  3  0
  5  6  1  0
  3  7  1  0
  7  8  1  0
  1  9  1  0
  3 10  1  0
  6 11  1  0
  6 12  1  0
  6 13  1  0
  8 14  1  0
  8 15  1  0
  8 16  1  0
M  END
