
     RDKit          3D

 19 19  0  0  0  0  0  0  0  0999 V2000
    0.0651    2.9744   -0.0579 C   0  0  0  0  0  0  0  0  0  0  0  0
    0.2764    1.6248   -0.0251 C   0  0  0  0  0  0  0  0  0  0  0  0
    0.4715    0.2695   -0.0092 C   0  0  0  0  0  0  0  0  0  0  0  0
    1.8662   -0.1718   -0.3888 C   0  0  0  0  0  0  0  0  0  0  0  0
    2.0393   -1.5212   -0.3826 O   0  0  0  0  0  0  0  0  0  0  0  0
   -0.2075   -0.4567    1.1299 C   0  0  0  0  0  0  0  0  0  0  0  0
   -1.4970   -0.3200    0.2927 C   0  0  0  0  0  0  0  0  0  0  0  0
   -2.4267   -1.3069    0.4817 O   0  0  0  0  0  0  0  0  0  0  0  0
   -0.5624   -0.5209   -0.8915 C   0  0  0  0  0  0  0  0  0  0  0  0
   -0.0893    3.9680   -0.0653 H   0  0  0  0  0  0  0  0  0  0  0  0
    2.0038    0.1807   -1.4584 H   0  0  0  0  0  0  0  0  0  0  0  0
    2.6237    0.3540    0.1875 H   0  0  0  0  0  0  0  0  0  0  0  0
    1.8068   -1.9791    0.4539 H   0  0  0  0  0  0  0  0  0  0  0  0
   -0.2725    0.1847    2.0303 H   0  0  0  0  0  0  0  0  0  0  0  0
    0.0416   -1.4956    1.3261 H   0  0  0  0  0  0  0  0  0  0  0  0
   -1.8915    0.7281    0.3572 H   0  0  0  0  0  0  0  0  0  0  0  0
   -3.1884   -1.1553   -0.1078 H   0  0  0  0  0  0  0  0  0  0  0  0
   -0.2689   -1.5239   -1.1241 H   0  0  0  0  0  0  0  0  0  0  0  0
   -0.7903    0.1672   -1.7483 H   0  0  0  0  0  0  0  0  0  0  0  0
  1  2  3  0
  2  3  1  0
  3  4  1  0
  4  5  1  0
  3  6  1  0
  6  7  1  0
  7  8  1  0
  7  9  1  0
  9  3  1  0
  1 10  1  0
  4 11  1  0
  4 12  1  0
  5 13  1  0
  6 14  1  0
  6 15  1  0
  7 16  1  0
  8 17  1  0
  9 18  1  0
  9 19  1  0
M  END
