
     RDKit          3D

 20 19  0  0  0  0  0  0  0  0999 V2000
    2.9223   -0.5974   -1.8354 C   0  0  0  0  0  0  0  0  0  0  0  0
    1.7539   -0.7878   -1.6173 C   0  0  0  0  0  0  0  0  0  0  0  0
    0.3135   -1.0421   -1.3625 C   0  0  0  0  0  0  0  0  0  0  0  0
   -0.0847   -0.4467   -0.0038 C   0  0  0  0  0  0  0  0  0  0  0  0
    0.1812    1.0156   -0.0814 C   0  0  0  0  0  0  0  0  0  0  0  0
   -0.1398    1.7917    1.1532 C   0  0  0  0  0  0  0  0  0  0  0  0
   -1.5302   -0.8071    0.2343 C   0  0  0  0  0  0  0  0  0  0  0  0
   -1.9882   -0.3120    1.4515 O   0  0  0  0  0  0  0  0  0  0  0  0
    3.9467   -0.4422   -2.0408 H   0  0  0  0  0  0  0  0  0  0  0  0
   -0.2777   -0.5553   -2.1658 H   0  0  0  0  0  0  0  0  0  0  0  0
    0.1797   -2.1303   -1.3911 H   0  0  0  0  0  0  0  0  0  0  0  0
    0.5701   -0.8868    0.7746 H   0  0  0  0  0  0  0  0  0  0  0  0
    1.2878    1.1287   -0.2557 H   0  0  0  0  0  0  0  0  0  0  0  0
   -0.4028    1.4820   -0.9192 H   0  0  0  0  0  0  0  0  0  0  0  0
    0.3383    2.8075    1.1501 H   0  0  0  0  0  0  0  0  0  0  0  0
    0.3693    1.2692    2.0156 H   0  0  0  0  0  0  0  0  0  0  0  0
   -1.1963    1.8702    1.4022 H   0  0  0  0  0  0  0  0  0  0  0  0
   -1.6396   -1.9104    0.2848 H   0  0  0  0  0  0  0  0  0  0  0  0
   -2.1926   -0.4577   -0.5583 H   0  0  0  0  0  0  0  0  0  0  0  0
   -2.4110   -0.9891    2.0233 H   0  0  0  0  0  0  0  0  0  0  0  0
  1  2  3  0
  2  3  1  0
  3  4  1  0
  4  5  1  0
  5  6  1  0
  4  7  1  0
  7  8  1  0
  1  9  1  0
  3 10  1  0
  3 11  1  0
  4 12  1  0
  5 13  1  0
  5 14  1  0
  6 15  1  0
  6 16  1  0
  6 17  1  0
  7 18  1  0
  7 19  1  0
  8 20  1  0
M  END
