
     RDKit          3D

 17 18  0  0  0  0  0  0  0  0999 V2000
    3.1526   -0.8925   -0.0658 C   0  0  0  0  0  0  0  0  0  0  0  0
    2.1535   -0.7480    0.4682 C   0  0  0  0  0  0  0  0  0  0  0  0
    0.8238   -0.5441    1.1527 C   0  0  0  0  0  0  0  0  0  0  0  0
   -0.1079   -0.1583    0.0835 C   0  0  0  0  0  0  0  0  0  0  0  0
    0.0528   -0.0370   -1.1972 C   0  0  0  0  0  0  0  0  0  0  0  0
   -1.2210    0.3754   -1.7606 C   0  0  0  0  0  0  0  0  0  0  0  0
   -1.9140    1.4654   -1.8606 O   0  0  0  0  0  0  0  0  0  0  0  0
   -1.5746    1.3558   -0.6146 C   0  0  0  0  0  0  0  0  0  0  0  0
   -1.5633    0.2376    0.3942 C   0  0  0  0  0  0  0  0  0  0  0  0
    4.1065   -1.0310   -0.5544 H   0  0  0  0  0  0  0  0  0  0  0  0
    0.9842    0.1909    1.9500 H   0  0  0  0  0  0  0  0  0  0  0  0
    0.5625   -1.5158    1.6447 H   0  0  0  0  0  0  0  0  0  0  0  0
    0.9625   -0.2158   -1.7436 H   0  0  0  0  0  0  0  0  0  0  0  0
   -1.8769   -0.5443   -1.8660 H   0  0  0  0  0  0  0  0  0  0  0  0
   -0.7530    2.0887   -0.3266 H   0  0  0  0  0  0  0  0  0  0  0  0
   -1.6342    0.6064    1.4100 H   0  0  0  0  0  0  0  0  0  0  0  0
   -2.1535   -0.6336    0.1259 H   0  0  0  0  0  0  0  0  0  0  0  0
  1  2  3  0
  2  3  1  0
  3  4  1  0
  4  5  2  0
  5  6  1  0
  6  7  1  0
  7  8  1  0
  8  9  1  0
  9  4  1  0
  8  6  1  0
  1 10  1  0
  3 11  1  0
  3 12  1  0
  5 13  1  0
  6 14  1  0
  8 15  1  0
  9 16  1  0
  9 17  1  0
M  END
