
     RDKit          3D

 14 14  0  0  0  0  0  0  0  0999 V2000
    2.6021   -1.7605    0.1525 C   0  0  0  0  0  0  0  0  0  0  0  0
    1.5510   -1.3009    0.5968 C   0  0  0  0  0  0  0  0  0  0  0  0
    0.3166   -0.7861    1.1059 C   0  0  0  0  0  0  0  0  0  0  0  0
   -0.2678   -1.4274    2.0114 O   0  0  0  0  0  0  0  0  0  0  0  0
   -0.2573    0.4568    0.5903 C   0  0  0  0  0  0  0  0  0  0  0  0
   -1.4269    0.3459   -0.3299 C   0  0  0  0  0  0  0  0  0  0  0  0
   -0.6291    1.3983   -1.0648 C   0  0  0  0  0  0  0  0  0  0  0  0
    0.5320    1.0067   -0.4052 O   0  0  0  0  0  0  0  0  0  0  0  0
    3.5051   -2.1434   -0.2406 H   0  0  0  0  0  0  0  0  0  0  0  0
   -0.4547    1.1909    1.4007 H   0  0  0  0  0  0  0  0  0  0  0  0
   -1.5193   -0.5760   -0.9102 H   0  0  0  0  0  0  0  0  0  0  0  0
   -2.3826    0.7736    0.0502 H   0  0  0  0  0  0  0  0  0  0  0  0
   -0.6353    1.2194   -2.1569 H   0  0  0  0  0  0  0  0  0  0  0  0
   -0.9340    2.4438   -0.8002 H   0  0  0  0  0  0  0  0  0  0  0  0
  1  2  3  0
  2  3  1  0
  3  4  2  0
  3  5  1  0
  5  6  1  0
  6  7  1  0
  7  8  1  0
  8  5  1  0
  1  9  1  0
  5 10  1  0
  6 11  1  0
  6 12  1  0
  7 13  1  0
  7 14  1  0
M  END
