
     RDKit          3D

 17 18  0  0  0  0  0  0  0  0999 V2000
    2.5636   -0.9240   -1.1487 C   0  0  0  0  0  0  0  0  0  0  0  0
    1.0329   -1.0012   -0.9204 C   0  0  0  0  0  0  0  0  0  0  0  0
   -0.2352   -1.0736   -0.7370 C   0  0  0  0  0  0  0  0  0  0  0  0
   -0.6609    0.4667   -0.6748 C   0  0  0  0  0  0  0  0  0  0  0  0
    0.2106    1.2750    0.2662 C   0  0  0  0  0  0  0  0  0  0  0  0
    0.4672    0.3809    1.4042 C   0  0  0  0  0  0  0  0  0  0  0  0
   -0.7441   -0.1468    1.4862 C   0  0  0  0  0  0  0  0  0  0  0  0
   -1.5599    0.6890    0.5785 C   0  0  0  0  0  0  0  0  0  0  0  0
   -0.9142    1.9515    0.5885 O   0  0  0  0  0  0  0  0  0  0  0  0
    3.4971   -0.8754   -1.2868 H   0  0  0  0  0  0  0  0  0  0  0  0
   -0.8305   -1.5487   -1.5613 H   0  0  0  0  0  0  0  0  0  0  0  0
   -0.5743   -1.5394    0.2537 H   0  0  0  0  0  0  0  0  0  0  0  0
   -1.0439    0.8337   -1.5588 H   0  0  0  0  0  0  0  0  0  0  0  0
    1.1276    1.6981   -0.2055 H   0  0  0  0  0  0  0  0  0  0  0  0
    1.3802    0.2250    2.0122 H   0  0  0  0  0  0  0  0  0  0  0  0
   -1.1256   -1.0590    2.0373 H   0  0  0  0  0  0  0  0  0  0  0  0
   -2.5906    0.6482    0.5668 H   0  0  0  0  0  0  0  0  0  0  0  0
  1  2  3  0
  2  3  1  0
  3  4  1  0
  4  5  1  0
  5  6  1  0
  6  7  2  0
  7  8  1  0
  8  9  1  0
  8  4  1  0
  9  5  1  0
  1 10  1  0
  3 11  1  0
  3 12  1  0
  4 13  1  0
  5 14  1  0
  6 15  1  0
  7 16  1  0
  8 17  1  0
M  END
