
     RDKit          3D

 21 22  0  0  0  0  0  0  0  0999 V2000
    3.0858    0.9475   -1.6574 C   0  0  0  0  0  0  0  0  0  0  0  0
    2.0388    0.5989   -1.1639 C   0  0  0  0  0  0  0  0  0  0  0  0
    0.7580    0.1858   -0.5865 C   0  0  0  0  0  0  0  0  0  0  0  0
   -0.2323    1.2685   -0.4206 C   0  0  0  0  0  0  0  0  0  0  0  0
   -1.4765    0.9527    0.3003 C   0  0  0  0  0  0  0  0  0  0  0  0
   -1.5728   -0.3133    1.0312 C   0  0  0  0  0  0  0  0  0  0  0  0
   -0.2986   -1.0175    1.3569 C   0  0  0  0  0  0  0  0  0  0  0  0
    0.7493   -0.9376    0.3009 C   0  0  0  0  0  0  0  0  0  0  0  0
    0.1905   -1.1067   -1.1272 C   0  0  0  0  0  0  0  0  0  0  0  0
    4.0022    1.2692   -2.1025 H   0  0  0  0  0  0  0  0  0  0  0  0
    0.3040    2.1320    0.0782 H   0  0  0  0  0  0  0  0  0  0  0  0
   -0.4337    1.6787   -1.4576 H   0  0  0  0  0  0  0  0  0  0  0  0
   -1.7279    1.8105    0.9945 H   0  0  0  0  0  0  0  0  0  0  0  0
   -2.3274    0.9888   -0.4483 H   0  0  0  0  0  0  0  0  0  0  0  0
   -2.2199   -1.0583    0.4800 H   0  0  0  0  0  0  0  0  0  0  0  0
   -2.1100   -0.1659    2.0028 H   0  0  0  0  0  0  0  0  0  0  0  0
   -0.4962   -2.1136    1.5096 H   0  0  0  0  0  0  0  0  0  0  0  0
    0.1453   -0.6704    2.3147 H   0  0  0  0  0  0  0  0  0  0  0  0
    1.6718   -1.4859    0.5253 H   0  0  0  0  0  0  0  0  0  0  0  0
    0.8320   -1.7244   -1.8057 H   0  0  0  0  0  0  0  0  0  0  0  0
   -0.8825   -1.2391   -1.2573 H   0  0  0  0  0  0  0  0  0  0  0  0
  1  2  3  0
  2  3  1  0
  3  4  1  0
  4  5  1  0
  5  6  1  0
  6  7  1  0
  7  8  1  0
  8  9  1  0
  8  3  1  0
  9  3  1  0
  1 10  1  0
  4 11  1  0
  4 12  1  0
  5 13  1  0
  5 14  1  0
  6 15  1  0
  6 16  1  0
  7 17  1  0
  7 18  1  0
  8 19  1  0
  9 20  1  0
  9 21  1  0
M  END
