
     RDKit          3D

 17 18  0  0  0  0  0  0  0  0999 V2000
    3.1638   -0.7424   -0.2843 C   0  0  0  0  0  0  0  0  0  0  0  0
    2.2645   -0.2652   -0.5674 C   0  0  0  0  0  0  0  0  0  0  0  0
    0.9519    0.4206   -0.9868 C   0  0  0  0  0  0  0  0  0  0  0  0
   -0.1576   -0.3939   -0.5287 C   0  0  0  0  0  0  0  0  0  0  0  0
   -1.6001   -0.0835   -0.7938 C   0  0  0  0  0  0  0  0  0  0  0  0
   -1.9401    0.7988    0.2600 O   0  0  0  0  0  0  0  0  0  0  0  0
   -1.5502   -0.0639    1.3304 C   0  0  0  0  0  0  0  0  0  0  0  0
   -0.1908   -0.5834    1.0002 C   0  0  0  0  0  0  0  0  0  0  0  0
    0.0015   -1.6353    0.1191 O   0  0  0  0  0  0  0  0  0  0  0  0
    4.1918   -1.2640    0.0363 H   0  0  0  0  0  0  0  0  0  0  0  0
    1.0596    0.7423   -2.0177 H   0  0  0  0  0  0  0  0  0  0  0  0
    0.9892    1.3697   -0.3543 H   0  0  0  0  0  0  0  0  0  0  0  0
   -1.8641    0.2575   -1.7690 H   0  0  0  0  0  0  0  0  0  0  0  0
   -2.2094   -1.0099   -0.5909 H   0  0  0  0  0  0  0  0  0  0  0  0
   -1.4711    0.5915    2.2042 H   0  0  0  0  0  0  0  0  0  0  0  0
   -2.3521   -0.8325    1.3813 H   0  0  0  0  0  0  0  0  0  0  0  0
    0.7131   -0.3061    1.5613 H   0  0  0  0  0  0  0  0  0  0  0  0
  1  2  3  0
  2  3  1  0
  3  4  1  0
  4  5  1  0
  5  6  1  0
  6  7  1  0
  7  8  1  0
  8  9  1  0
  8  4  1  0
  9  4  1  0
  1 10  1  0
  3 11  1  0
  3 12  1  0
  5 13  1  0
  5 14  1  0
  7 15  1  0
  7 16  1  0
  8 17  1  0
M  END
