
     RDKit          3D

 19 18  0  0  0  0  0  0  0  0999 V2000
    2.2697    2.5676    0.3297 C   0  0  0  0  0  0  0  0  0  0  0  0
    1.7012    1.5477   -0.0187 C   0  0  0  0  0  0  0  0  0  0  0  0
    1.0307    0.3070   -0.4222 C   0  0  0  0  0  0  0  0  0  0  0  0
    1.7255   -0.8356    0.1713 C   0  0  0  0  0  0  0  0  0  0  0  0
    2.3106   -1.7603    0.6650 C   0  0  0  0  0  0  0  0  0  0  0  0
   -0.3897    0.4015    0.1151 C   0  0  0  0  0  0  0  0  0  0  0  0
   -0.2866    0.5219    1.4916 O   0  0  0  0  0  0  0  0  0  0  0  0
   -1.2253   -0.7767   -0.3025 C   0  0  0  0  0  0  0  0  0  0  0  0
   -2.6044   -0.6038    0.2670 C   0  0  0  0  0  0  0  0  0  0  0  0
    2.7678    3.4531    0.6377 H   0  0  0  0  0  0  0  0  0  0  0  0
    1.0432    0.2629   -1.5352 H   0  0  0  0  0  0  0  0  0  0  0  0
    2.8435   -2.5759    1.1175 H   0  0  0  0  0  0  0  0  0  0  0  0
   -0.8354    1.3281   -0.2900 H   0  0  0  0  0  0  0  0  0  0  0  0
    0.6345    0.4689    1.8292 H   0  0  0  0  0  0  0  0  0  0  0  0
   -0.7839   -1.6854    0.1933 H   0  0  0  0  0  0  0  0  0  0  0  0
   -1.2085   -0.9710   -1.3714 H   0  0  0  0  0  0  0  0  0  0  0  0
   -2.8350    0.4716    0.4992 H   0  0  0  0  0  0  0  0  0  0  0  0
   -3.4020   -0.9702   -0.4292 H   0  0  0  0  0  0  0  0  0  0  0  0
   -2.7559   -1.1513    1.2256 H   0  0  0  0  0  0  0  0  0  0  0  0
  1  2  3  0
  2  3  1  0
  3  4  1  0
  4  5  3  0
  3  6  1  0
  6  7  1  0
  6  8  1  0
  8  9  1  0
  1 10  1  0
  3 11  1  0
  5 12  1  0
  6 13  1  0
  7 14  1  0
  8 15  1  0
  8 16  1  0
  9 17  1  0
  9 18  1  0
  9 19  1  0
M  END
