
     RDKit          3D

 13 12  0  0  0  0  0  0  0  0999 V2000
    2.3069   -1.1873   -1.2068 C   0  0  0  0  0  0  0  0  0  0  0  0
    1.1890   -0.7064   -0.9583 C   0  0  0  0  0  0  0  0  0  0  0  0
   -0.1293   -0.1488   -0.6903 C   0  0  0  0  0  0  0  0  0  0  0  0
   -0.2088    1.1608   -1.2069 O   0  0  0  0  0  0  0  0  0  0  0  0
   -0.2893    0.0144    0.8358 C   0  0  0  0  0  0  0  0  0  0  0  0
   -1.5910    0.5425    1.1324 C   0  0  0  0  0  0  0  0  0  0  0  0
   -2.2570   -0.2499    1.9519 O   0  0  0  0  0  0  0  0  0  0  0  0
    3.2854   -1.6018   -1.4410 H   0  0  0  0  0  0  0  0  0  0  0  0
   -0.8995   -0.7807   -1.1099 H   0  0  0  0  0  0  0  0  0  0  0  0
    0.2407    1.7806   -0.5907 H   0  0  0  0  0  0  0  0  0  0  0  0
    0.5641    0.7024    1.0997 H   0  0  0  0  0  0  0  0  0  0  0  0
   -0.0943   -0.9745    1.3209 H   0  0  0  0  0  0  0  0  0  0  0  0
   -2.1170    1.3816    0.8632 H   0  0  0  0  0  0  0  0  0  0  0  0
  1  2  3  0
  2  3  1  0
  3  4  1  0
  3  5  1  0
  5  6  1  0
  6  7  2  0
  1  8  1  0
  3  9  1  0
  4 10  1  0
  5 11  1  0
  5 12  1  0
  6 13  1  0
M  END
