
     RDKit          3D

 17 17  0  0  0  0  0  0  0  0999 V2000
    2.9633    0.8282    0.2706 C   0  0  0  0  0  0  0  0  0  0  0  0
    2.0310    0.4025   -0.3183 C   0  0  0  0  0  0  0  0  0  0  0  0
    0.8754   -0.1158   -1.0384 C   0  0  0  0  0  0  0  0  0  0  0  0
    0.9296   -0.0474   -2.2647 O   0  0  0  0  0  0  0  0  0  0  0  0
   -0.2841   -0.6700   -0.3577 C   0  0  0  0  0  0  0  0  0  0  0  0
   -0.1050   -1.9774    0.3576 C   0  0  0  0  0  0  0  0  0  0  0  0
   -1.5207   -0.5389   -1.1103 O   0  0  0  0  0  0  0  0  0  0  0  0
   -1.3090    0.1940    0.1470 C   0  0  0  0  0  0  0  0  0  0  0  0
   -1.3080    1.6742   -0.0939 C   0  0  0  0  0  0  0  0  0  0  0  0
    3.8523    1.2413    0.8246 H   0  0  0  0  0  0  0  0  0  0  0  0
    0.2550   -1.9505    1.3666 H   0  0  0  0  0  0  0  0  0  0  0  0
    0.5882   -2.6437   -0.2559 H   0  0  0  0  0  0  0  0  0  0  0  0
   -1.0787   -2.5578    0.3795 H   0  0  0  0  0  0  0  0  0  0  0  0
   -1.9530   -0.1617    0.9516 H   0  0  0  0  0  0  0  0  0  0  0  0
   -0.2779    2.1047   -0.1799 H   0  0  0  0  0  0  0  0  0  0  0  0
   -1.9321    2.0191   -0.9335 H   0  0  0  0  0  0  0  0  0  0  0  0
   -1.7263    2.1993    0.8341 H   0  0  0  0  0  0  0  0  0  0  0  0
  1  2  3  0
  2  3  1  0
  3  4  2  0
  3  5  1  0
  5  6  1  0
  5  7  1  0
  7  8  1  0
  8  9  1  0
  8  5  1  0
  1 10  1  0
  6 11  1  0
  6 12  1  0
  6 13  1  0
  8 14  1  0
  9 15  1  0
  9 16  1  0
  9 17  1  0
M  END
