
     RDKit          3D

 17 18  0  0  0  0  0  0  0  0999 V2000
   -1.6873    1.6819    0.8513 C   0  0  0  0  0  0  0  0  0  0  0  0
   -0.8978    0.9540    0.2767 C   0  0  0  0  0  0  0  0  0  0  0  0
    0.0222    0.0716   -0.4076 C   0  0  0  0  0  0  0  0  0  0  0  0
   -0.5033   -0.7595   -1.3628 O   0  0  0  0  0  0  0  0  0  0  0  0
   -1.4649   -1.6198   -0.8388 C   0  0  0  0  0  0  0  0  0  0  0  0
    1.0412   -0.5089    0.5126 C   0  0  0  0  0  0  0  0  0  0  0  0
    1.6022    0.8557    0.6945 C   0  0  0  0  0  0  0  0  0  0  0  0
    1.3492    0.6536   -0.7712 C   0  0  0  0  0  0  0  0  0  0  0  0
    1.8762   -0.6156   -0.6001 O   0  0  0  0  0  0  0  0  0  0  0  0
   -2.3759    2.3206    1.3401 H   0  0  0  0  0  0  0  0  0  0  0  0
   -1.8568   -2.2639   -1.6345 H   0  0  0  0  0  0  0  0  0  0  0  0
   -2.2915   -1.1024   -0.3378 H   0  0  0  0  0  0  0  0  0  0  0  0
   -0.9373   -2.2044   -0.0327 H   0  0  0  0  0  0  0  0  0  0  0  0
    0.9033   -1.2210    1.2135 H   0  0  0  0  0  0  0  0  0  0  0  0
    0.9751    1.5883    1.1990 H   0  0  0  0  0  0  0  0  0  0  0  0
    2.6902    0.8672    0.9315 H   0  0  0  0  0  0  0  0  0  0  0  0
    1.5553    1.3025   -1.5130 H   0  0  0  0  0  0  0  0  0  0  0  0
  1  2  3  0
  2  3  1  0
  3  4  1  0
  4  5  1  0
  3  6  1  0
  6  7  1  0
  7  8  1  0
  8  9  1  0
  8  3  1  0
  9  6  1  0
  1 10  1  0
  5 11  1  0
  5 12  1  0
  5 13  1  0
  6 14  1  0
  7 15  1  0
  7 16  1  0
  8 17  1  0
M  END
