
     RDKit          3D

 20 20  0  0  0  0  0  0  0  0999 V2000
    3.6338   -0.5267   -0.8141 C   0  0  0  0  0  0  0  0  0  0  0  0
    2.4649   -0.2645   -1.0885 C   0  0  0  0  0  0  0  0  0  0  0  0
    1.0806    0.0470   -1.3877 C   0  0  0  0  0  0  0  0  0  0  0  0
    0.3198    0.2538   -0.0822 C   0  0  0  0  0  0  0  0  0  0  0  0
    0.3407   -0.9735    0.7656 C   0  0  0  0  0  0  0  0  0  0  0  0
   -1.0662    0.7029   -0.4218 C   0  0  0  0  0  0  0  0  0  0  0  0
   -1.9468    0.9631    0.8268 C   0  0  0  0  0  0  0  0  0  0  0  0
   -2.2766   -0.0840   -0.1962 C   0  0  0  0  0  0  0  0  0  0  0  0
    4.6613   -0.7457   -0.5578 H   0  0  0  0  0  0  0  0  0  0  0  0
    0.9593    1.0259   -1.9304 H   0  0  0  0  0  0  0  0  0  0  0  0
    0.5870   -0.7199   -2.0098 H   0  0  0  0  0  0  0  0  0  0  0  0
    0.9223    1.0549    0.4602 H   0  0  0  0  0  0  0  0  0  0  0  0
   -0.4407   -1.7004    0.4527 H   0  0  0  0  0  0  0  0  0  0  0  0
    0.1256   -0.7405    1.8444 H   0  0  0  0  0  0  0  0  0  0  0  0
    1.3522   -1.4569    0.7752 H   0  0  0  0  0  0  0  0  0  0  0  0
   -1.1617    1.5339   -1.1931 H   0  0  0  0  0  0  0  0  0  0  0  0
   -2.5130    1.9379    0.8480 H   0  0  0  0  0  0  0  0  0  0  0  0
   -1.5505    0.6760    1.8094 H   0  0  0  0  0  0  0  0  0  0  0  0
   -2.3295   -1.0931    0.2243 H   0  0  0  0  0  0  0  0  0  0  0  0
   -3.1627    0.1098   -0.8699 H   0  0  0  0  0  0  0  0  0  0  0  0
  1  2  3  0
  2  3  1  0
  3  4  1  0
  4  5  1  0
  4  6  1  0
  6  7  1  0
  7  8  1  0
  8  6  1  0
  1  9  1  0
  3 10  1  0
  3 11  1  0
  4 12  1  0
  5 13  1  0
  5 14  1  0
  5 15  1  0
  6 16  1  0
  7 17  1  0
  7 18  1  0
  8 19  1  0
  8 20  1  0
M  END
