
     RDKit          3D

 19 20  0  0  0  0  0  0  0  0999 V2000
    2.9313    0.3786   -0.5853 C   0  0  0  0  0  0  0  0  0  0  0  0
    1.8034    0.4362   -0.1647 C   0  0  0  0  0  0  0  0  0  0  0  0
    0.4232    0.4981    0.3276 C   0  0  0  0  0  0  0  0  0  0  0  0
   -0.0780    1.8208    0.8134 C   0  0  0  0  0  0  0  0  0  0  0  0
   -0.0282   -0.7231    1.0455 C   0  0  0  0  0  0  0  0  0  0  0  0
   -1.2658   -0.6037    1.6660 O   0  0  0  0  0  0  0  0  0  0  0  0
   -1.8418   -0.7899    0.4019 C   0  0  0  0  0  0  0  0  0  0  0  0
   -0.5590   -0.4086   -0.3052 C   0  0  0  0  0  0  0  0  0  0  0  0
   -0.2028   -1.2457   -1.4947 C   0  0  0  0  0  0  0  0  0  0  0  0
    3.9470    0.3195   -0.9465 H   0  0  0  0  0  0  0  0  0  0  0  0
   -1.0955    2.0502    0.4494 H   0  0  0  0  0  0  0  0  0  0  0  0
    0.6414    2.6565    0.6510 H   0  0  0  0  0  0  0  0  0  0  0  0
   -0.1741    1.7494    1.9361 H   0  0  0  0  0  0  0  0  0  0  0  0
    0.6376   -1.5610    1.2357 H   0  0  0  0  0  0  0  0  0  0  0  0
   -2.0974   -1.8639    0.2357 H   0  0  0  0  0  0  0  0  0  0  0  0
   -2.6741   -0.1186    0.1899 H   0  0  0  0  0  0  0  0  0  0  0  0
   -0.0642   -0.6266   -2.4173 H   0  0  0  0  0  0  0  0  0  0  0  0
   -1.0351   -1.9403   -1.7256 H   0  0  0  0  0  0  0  0  0  0  0  0
    0.7322   -1.8526   -1.3130 H   0  0  0  0  0  0  0  0  0  0  0  0
  1  2  3  0
  2  3  1  0
  3  4  1  0
  3  5  1  0
  5  6  1  0
  6  7  1  0
  7  8  1  0
  8  9  1  0
  8  3  1  0
  8  5  1  0
  1 10  1  0
  4 11  1  0
  4 12  1  0
  4 13  1  0
  5 14  1  0
  7 15  1  0
  7 16  1  0
  9 17  1  0
  9 18  1  0
  9 19  1  0
M  END
