
     RDKit          3D

 19 19  0  0  0  0  0  0  0  0999 V2000
   -2.7354    1.9384    1.0104 C   0  0  0  0  0  0  0  0  0  0  0  0
   -2.0816    1.0667    0.5074 C   0  0  0  0  0  0  0  0  0  0  0  0
   -1.2886    0.0193   -0.0982 C   0  0  0  0  0  0  0  0  0  0  0  0
   -1.5852   -1.3615    0.3128 C   0  0  0  0  0  0  0  0  0  0  0  0
   -2.5678   -2.0192    0.5851 O   0  0  0  0  0  0  0  0  0  0  0  0
   -0.1262   -1.6403    0.2577 C   0  0  0  0  0  0  0  0  0  0  0  0
    0.1015   -0.1525    0.4947 C   0  0  0  0  0  0  0  0  0  0  0  0
    1.1169    0.4841   -0.4122 C   0  0  0  0  0  0  0  0  0  0  0  0
    2.5264    0.3482    0.1216 C   0  0  0  0  0  0  0  0  0  0  0  0
   -3.3039    2.7248    1.4667 H   0  0  0  0  0  0  0  0  0  0  0  0
   -1.2405    0.0756   -1.2172 H   0  0  0  0  0  0  0  0  0  0  0  0
    0.2646   -1.8818   -0.7686 H   0  0  0  0  0  0  0  0  0  0  0  0
    0.2692   -2.3042    1.0424 H   0  0  0  0  0  0  0  0  0  0  0  0
    0.1809    0.1024    1.5600 H   0  0  0  0  0  0  0  0  0  0  0  0
    0.8264    1.5401   -0.5475 H   0  0  0  0  0  0  0  0  0  0  0  0
    1.0643   -0.0252   -1.4019 H   0  0  0  0  0  0  0  0  0  0  0  0
    3.2166    0.6395   -0.6929 H   0  0  0  0  0  0  0  0  0  0  0  0
    2.6721    1.1179    0.9291 H   0  0  0  0  0  0  0  0  0  0  0  0
    2.6901   -0.6722    0.4999 H   0  0  0  0  0  0  0  0  0  0  0  0
  1  2  3  0
  2  3  1  0
  3  4  1  0
  4  5  2  0
  4  6  1  0
  6  7  1  0
  7  8  1  0
  8  9  1  0
  7  3  1  0
  1 10  1  0
  3 11  1  0
  6 12  1  0
  6 13  1  0
  7 14  1  0
  8 15  1  0
  8 16  1  0
  9 17  1  0
  9 18  1  0
  9 19  1  0
M  END
