
     RDKit          3D

 13 12  0  0  0  0  0  0  0  0999 V2000
    2.3697   -0.8763    1.2414 C   0  0  0  0  0  0  0  0  0  0  0  0
    2.2856   -0.3792   -0.2881 C   0  0  0  0  0  0  0  0  0  0  0  0
    2.2087   -0.0072   -1.4291 C   0  0  0  0  0  0  0  0  0  0  0  0
    2.8579    0.3265   -2.3727 O   0  0  0  0  0  0  0  0  0  0  0  0
    0.5697    0.0402   -1.6605 C   0  0  0  0  0  0  0  0  0  0  0  0
    1.0293   -0.1015    0.2018 O   0  0  0  0  0  0  0  0  0  0  0  0
   -0.5144    0.0003   -0.9106 C   0  0  0  0  0  0  0  0  0  0  0  0
   -1.5252   -0.0292   -0.2002 C   0  0  0  0  0  0  0  0  0  0  0  0
   -2.6804   -0.0615    0.6322 C   0  0  0  0  0  0  0  0  0  0  0  0
    2.4033   -1.1781    2.1650 H   0  0  0  0  0  0  0  0  0  0  0  0
   -3.2839   -1.0164    0.4283 H   0  0  0  0  0  0  0  0  0  0  0  0
   -2.4265   -0.0673    1.7445 H   0  0  0  0  0  0  0  0  0  0  0  0
   -3.2939    0.8567    0.4480 H   0  0  0  0  0  0  0  0  0  0  0  0
  1  2  3  0
  2  3  1  0
  3  4  2  0
  3  5  1  0
  5  6  2  0
  5  7  1  0
  7  8  3  0
  8  9  1  0
  1 10  1  0
  9 11  1  0
  9 12  1  0
  9 13  1  0
M  END
