
     RDKit          3D

 19 20  0  0  0  0  0  0  0  0999 V2000
   -1.5494    1.7084    1.1640 C   0  0  0  0  0  0  0  0  0  0  0  0
   -0.9872    0.6727    0.9003 C   0  0  0  0  0  0  0  0  0  0  0  0
   -0.3158   -0.5913    0.5827 C   0  0  0  0  0  0  0  0  0  0  0  0
   -0.6750   -1.8434    1.2735 C   0  0  0  0  0  0  0  0  0  0  0  0
   -1.2676   -1.6508   -0.0615 C   0  0  0  0  0  0  0  0  0  0  0  0
   -0.5203   -1.4932   -1.2042 O   0  0  0  0  0  0  0  0  0  0  0  0
    0.4863   -0.7229   -0.6649 C   0  0  0  0  0  0  0  0  0  0  0  0
    0.7997    0.5675   -1.3811 C   0  0  0  0  0  0  0  0  0  0  0  0
    1.5887    1.4374   -0.4254 C   0  0  0  0  0  0  0  0  0  0  0  0
   -2.0345    2.6379    1.4067 H   0  0  0  0  0  0  0  0  0  0  0  0
   -1.3266   -1.7613    2.1402 H   0  0  0  0  0  0  0  0  0  0  0  0
    0.1273   -2.6148    1.3367 H   0  0  0  0  0  0  0  0  0  0  0  0
   -2.3403   -1.3865   -0.0978 H   0  0  0  0  0  0  0  0  0  0  0  0
    1.3816   -1.3648   -0.4773 H   0  0  0  0  0  0  0  0  0  0  0  0
    1.3464    0.4155   -2.3163 H   0  0  0  0  0  0  0  0  0  0  0  0
   -0.1619    1.1021   -1.5623 H   0  0  0  0  0  0  0  0  0  0  0  0
    1.4209    1.0991    0.6104 H   0  0  0  0  0  0  0  0  0  0  0  0
    1.3648    2.5159   -0.5665 H   0  0  0  0  0  0  0  0  0  0  0  0
    2.6630    1.2727   -0.6574 H   0  0  0  0  0  0  0  0  0  0  0  0
  1  2  3  0
  2  3  1  0
  3  4  1  0
  4  5  1  0
  5  6  1  0
  6  7  1  0
  7  8  1  0
  8  9  1  0
  5  3  1  0
  7  3  1  0
  1 10  1  0
  4 11  1  0
  4 12  1  0
  5 13  1  0
  7 14  1  0
  8 15  1  0
  8 16  1  0
  9 17  1  0
  9 18  1  0
  9 19  1  0
M  END
