
     RDKit          3D

 12 12  0  0  0  0  0  0  0  0999 V2000
    2.4296    0.6844   -0.1650 C   0  0  0  0  0  0  0  0  0  0  0  0
    1.2532    0.3998   -0.1419 C   0  0  0  0  0  0  0  0  0  0  0  0
   -0.1753    0.0668   -0.0929 C   0  0  0  0  0  0  0  0  0  0  0  0
   -0.4636   -1.4019   -0.0430 C   0  0  0  0  0  0  0  0  0  0  0  0
   -1.1485    1.0557    0.0671 C   0  0  0  0  0  0  0  0  0  0  0  0
   -0.8949    0.6561   -1.2697 O   0  0  0  0  0  0  0  0  0  0  0  0
    3.4664    0.9422   -0.1748 H   0  0  0  0  0  0  0  0  0  0  0  0
    0.1042   -1.8764   -0.8926 H   0  0  0  0  0  0  0  0  0  0  0  0
    0.0249   -1.8014    0.8812 H   0  0  0  0  0  0  0  0  0  0  0  0
   -1.5162   -1.6688   -0.1295 H   0  0  0  0  0  0  0  0  0  0  0  0
   -0.8847    2.1167    0.2413 H   0  0  0  0  0  0  0  0  0  0  0  0
   -2.1952    0.8269    0.3586 H   0  0  0  0  0  0  0  0  0  0  0  0
  1  2  3  0
  2  3  1  0
  3  4  1  0
  3  5  1  0
  5  6  1  0
  6  3  1  0
  1  7  1  0
  4  8  1  0
  4  9  1  0
  4 10  1  0
  5 11  1  0
  5 12  1  0
M  END
