
     RDKit          3D

 19 19  0  0  0  0  0  0  0  0999 V2000
    1.7503   -0.2041    3.0920 C   0  0  0  0  0  0  0  0  0  0  0  0
    1.2822   -0.2691    2.0339 C   0  0  0  0  0  0  0  0  0  0  0  0
    0.7089   -0.3269    0.7123 C   0  0  0  0  0  0  0  0  0  0  0  0
    0.6237    0.7007   -0.0930 C   0  0  0  0  0  0  0  0  0  0  0  0
    0.0340    0.6249   -1.4274 C   0  0  0  0  0  0  0  0  0  0  0  0
   -0.9869    1.8019   -1.5379 C   0  0  0  0  0  0  0  0  0  0  0  0
   -0.5294   -0.5528   -1.7721 O   0  0  0  0  0  0  0  0  0  0  0  0
   -0.9727   -1.3282   -0.7387 C   0  0  0  0  0  0  0  0  0  0  0  0
    0.1383   -1.6615    0.2660 C   0  0  0  0  0  0  0  0  0  0  0  0
    2.2116   -0.1433    4.1132 H   0  0  0  0  0  0  0  0  0  0  0  0
    1.0173    1.6799    0.2533 H   0  0  0  0  0  0  0  0  0  0  0  0
    0.8140    0.8444   -2.2290 H   0  0  0  0  0  0  0  0  0  0  0  0
   -1.4796    1.7694   -2.4949 H   0  0  0  0  0  0  0  0  0  0  0  0
   -1.6229    1.8819   -0.6625 H   0  0  0  0  0  0  0  0  0  0  0  0
   -0.3221    2.7178   -1.5603 H   0  0  0  0  0  0  0  0  0  0  0  0
   -1.3871   -2.2907   -1.1192 H   0  0  0  0  0  0  0  0  0  0  0  0
   -1.8256   -0.8491   -0.1945 H   0  0  0  0  0  0  0  0  0  0  0  0
   -0.3486   -2.1128    1.1401 H   0  0  0  0  0  0  0  0  0  0  0  0
    0.8944   -2.2824   -0.2168 H   0  0  0  0  0  0  0  0  0  0  0  0
  1  2  3  0
  2  3  1  0
  3  4  2  0
  4  5  1  0
  5  6  1  0
  5  7  1  0
  7  8  1  0
  8  9  1  0
  9  3  1  0
  1 10  1  0
  4 11  1  0
  5 12  1  0
  6 13  1  0
  6 14  1  0
  6 15  1  0
  8 16  1  0
  8 17  1  0
  9 18  1  0
  9 19  1  0
M  END
