
     RDKit          3D

 21 21  0  0  0  0  0  0  0  0999 V2000
   -1.8144    2.6760   -0.9138 C   0  0  0  0  0  0  0  0  0  0  0  0
   -1.3604    1.5653   -0.9149 C   0  0  0  0  0  0  0  0  0  0  0  0
   -0.8015    0.2032   -0.8907 C   0  0  0  0  0  0  0  0  0  0  0  0
   -1.5246   -0.6797   -1.8575 C   0  0  0  0  0  0  0  0  0  0  0  0
   -0.7321   -0.3370    0.5334 C   0  0  0  0  0  0  0  0  0  0  0  0
    0.5454   -0.9039   -0.0306 C   0  0  0  0  0  0  0  0  0  0  0  0
    1.7089   -0.9317    0.9345 C   0  0  0  0  0  0  0  0  0  0  0  0
    2.0900    0.4156    1.4368 C   0  0  0  0  0  0  0  0  0  0  0  0
    0.5726    0.1721   -0.9164 O   0  0  0  0  0  0  0  0  0  0  0  0
   -2.2176    3.6745   -0.8982 H   0  0  0  0  0  0  0  0  0  0  0  0
   -0.9147   -1.4875   -2.2754 H   0  0  0  0  0  0  0  0  0  0  0  0
   -2.3831   -1.1382   -1.3158 H   0  0  0  0  0  0  0  0  0  0  0  0
   -1.9394   -0.0592   -2.6597 H   0  0  0  0  0  0  0  0  0  0  0  0
   -0.6254    0.4866    1.2380 H   0  0  0  0  0  0  0  0  0  0  0  0
   -1.5451   -1.0628    0.7030 H   0  0  0  0  0  0  0  0  0  0  0  0
    0.4152   -1.8983   -0.4795 H   0  0  0  0  0  0  0  0  0  0  0  0
    1.4994   -1.6157    1.7940 H   0  0  0  0  0  0  0  0  0  0  0  0
    2.5572   -1.3948    0.3911 H   0  0  0  0  0  0  0  0  0  0  0  0
    3.1462    0.6224    1.1739 H   0  0  0  0  0  0  0  0  0  0  0  0
    1.4211    1.1719    0.9371 H   0  0  0  0  0  0  0  0  0  0  0  0
    1.9024    0.5213    2.5271 H   0  0  0  0  0  0  0  0  0  0  0  0
  1  2  3  0
  2  3  1  0
  3  4  1  0
  3  5  1  0
  5  6  1  0
  6  7  1  0
  7  8  1  0
  6  9  1  0
  9  3  1  0
  1 10  1  0
  4 11  1  0
  4 12  1  0
  4 13  1  0
  5 14  1  0
  5 15  1  0
  6 16  1  0
  7 17  1  0
  7 18  1  0
  8 19  1  0
  8 20  1  0
  8 21  1  0
M  END
