
     RDKit          3D

 19 19  0  0  0  0  0  0  0  0999 V2000
    3.6692    1.9882    0.3431 C   0  0  0  0  0  0  0  0  0  0  0  0
    3.0061    1.4947   -0.6868 C   0  0  0  0  0  0  0  0  0  0  0  0
    2.2795    0.9514   -1.8545 C   0  0  0  0  0  0  0  0  0  0  0  0
    0.7624    0.5249   -0.7185 C   0  0  0  0  0  0  0  0  0  0  0  0
   -0.0843    0.2905   -0.0637 C   0  0  0  0  0  0  0  0  0  0  0  0
   -0.8003    0.1077    0.4951 C   0  0  0  0  0  0  0  0  0  0  0  0
   -1.4126   -0.9686    1.5820 C   0  0  0  0  0  0  0  0  0  0  0  0
   -1.4933   -1.8183    0.3625 C   0  0  0  0  0  0  0  0  0  0  0  0
   -2.1261   -0.5976   -0.3332 C   0  0  0  0  0  0  0  0  0  0  0  0
    4.0577    2.2940    0.9653 H   0  0  0  0  0  0  0  0  0  0  0  0
    1.6463    1.5829   -2.3067 H   0  0  0  0  0  0  0  0  0  0  0  0
    2.4062   -0.1054   -1.9462 H   0  0  0  0  0  0  0  0  0  0  0  0
   -1.5023    1.0914    1.0652 H   0  0  0  0  0  0  0  0  0  0  0  0
   -0.7113   -0.9766    2.3464 H   0  0  0  0  0  0  0  0  0  0  0  0
   -2.4318   -0.5176    1.8251 H   0  0  0  0  0  0  0  0  0  0  0  0
   -0.4635   -1.9813   -0.0565 H   0  0  0  0  0  0  0  0  0  0  0  0
   -2.0871   -2.7021    0.3217 H   0  0  0  0  0  0  0  0  0  0  0  0
   -2.9171   -0.0947    0.0702 H   0  0  0  0  0  0  0  0  0  0  0  0
   -1.7975   -0.5636   -1.4108 H   0  0  0  0  0  0  0  0  0  0  0  0
  1  2  3  0
  2  3  1  0
  3  4  1  0
  4  5  3  0
  5  6  1  0
  6  7  1  0
  7  8  1  0
  8  9  1  0
  9  6  1  0
  1 10  1  0
  3 11  1  0
  3 12  1  0
  6 13  1  0
  7 14  1  0
  7 15  1  0
  8 16  1  0
  8 17  1  0
  9 18  1  0
  9 19  1  0
M  END
