
     RDKit          3D

 19 18  0  0  0  0  0  0  0  0999 V2000
   -2.5388    1.3832   -0.1145 C   0  0  0  0  0  0  0  0  0  0  0  0
   -1.7680    0.4738    0.0777 C   0  0  0  0  0  0  0  0  0  0  0  0
   -0.8271   -0.6446    0.2877 C   0  0  0  0  0  0  0  0  0  0  0  0
   -1.3751   -1.8137   -0.4886 C   0  0  0  0  0  0  0  0  0  0  0  0
    0.5026   -0.2843   -0.3360 C   0  0  0  0  0  0  0  0  0  0  0  0
    1.1024    0.9654    0.2709 C   0  0  0  0  0  0  0  0  0  0  0  0
    1.3120    0.7860    1.6335 O   0  0  0  0  0  0  0  0  0  0  0  0
    2.4129    1.1881   -0.3719 C   0  0  0  0  0  0  0  0  0  0  0  0
    3.4189    1.1876    0.3021 O   0  0  0  0  0  0  0  0  0  0  0  0
   -3.2244    2.1877   -0.2775 H   0  0  0  0  0  0  0  0  0  0  0  0
   -0.7391   -0.9094    1.3505 H   0  0  0  0  0  0  0  0  0  0  0  0
   -1.5744   -1.4603   -1.5217 H   0  0  0  0  0  0  0  0  0  0  0  0
   -0.5345   -2.5567   -0.5875 H   0  0  0  0  0  0  0  0  0  0  0  0
   -2.2595   -2.2776   -0.0076 H   0  0  0  0  0  0  0  0  0  0  0  0
    0.3236   -0.1493   -1.4166 H   0  0  0  0  0  0  0  0  0  0  0  0
    1.2215   -1.1084   -0.1897 H   0  0  0  0  0  0  0  0  0  0  0  0
    0.4256    1.8417    0.1596 H   0  0  0  0  0  0  0  0  0  0  0  0
    1.6087   -0.1631    1.7605 H   0  0  0  0  0  0  0  0  0  0  0  0
    2.5127    1.3539   -1.4346 H   0  0  0  0  0  0  0  0  0  0  0  0
  1  2  3  0
  2  3  1  0
  3  4  1  0
  3  5  1  0
  5  6  1  0
  6  7  1  0
  6  8  1  0
  8  9  2  0
  1 10  1  0
  3 11  1  0
  4 12  1  0
  4 13  1  0
  4 14  1  0
  5 15  1  0
  5 16  1  0
  6 17  1  0
  7 18  1  0
  8 19  1  0
M  END
