
     RDKit          3D

 14 15  0  0  0  0  0  0  0  0999 V2000
    2.5629    0.2335    0.2649 C   0  0  0  0  0  0  0  0  0  0  0  0
    1.4618   -0.2913    0.2006 C   0  0  0  0  0  0  0  0  0  0  0  0
    0.1302   -0.9548    0.1211 C   0  0  0  0  0  0  0  0  0  0  0  0
   -0.8012   -0.3487    1.1164 C   0  0  0  0  0  0  0  0  0  0  0  0
   -0.9830    0.9423    0.6063 O   0  0  0  0  0  0  0  0  0  0  0  0
   -0.5220    0.9340   -0.7313 C   0  0  0  0  0  0  0  0  0  0  0  0
   -0.7573   -0.4949   -1.0851 C   0  0  0  0  0  0  0  0  0  0  0  0
   -0.0573   -1.5907   -1.0000 O   0  0  0  0  0  0  0  0  0  0  0  0
    3.5115    0.6945    0.3317 H   0  0  0  0  0  0  0  0  0  0  0  0
   -1.7561   -0.9264    1.1312 H   0  0  0  0  0  0  0  0  0  0  0  0
   -0.3245   -0.3283    2.1211 H   0  0  0  0  0  0  0  0  0  0  0  0
    0.5173    1.2549   -0.7216 H   0  0  0  0  0  0  0  0  0  0  0  0
   -1.1147    1.5905   -1.3726 H   0  0  0  0  0  0  0  0  0  0  0  0
   -1.8675   -0.7143   -0.9828 H   0  0  0  0  0  0  0  0  0  0  0  0
  1  2  3  0
  2  3  1  0
  3  4  1  0
  4  5  1  0
  5  6  1  0
  6  7  1  0
  7  8  1  0
  7  3  1  0
  8  3  1  0
  1  9  1  0
  4 10  1  0
  4 11  1  0
  6 12  1  0
  6 13  1  0
  7 14  1  0
M  END
