
     RDKit          3D

 19 21  0  0  0  0  0  0  0  0999 V2000
    3.3657   -0.7958   -0.0321 C   0  0  0  0  0  0  0  0  0  0  0  0
    2.1924   -0.5381    0.0686 C   0  0  0  0  0  0  0  0  0  0  0  0
    0.7916   -0.2058    0.1821 C   0  0  0  0  0  0  0  0  0  0  0  0
    0.4127    0.9603    1.0504 C   0  0  0  0  0  0  0  0  0  0  0  0
   -1.0511    1.1306    0.7931 C   0  0  0  0  0  0  0  0  0  0  0  0
   -1.2845    0.5352   -0.5776 C   0  0  0  0  0  0  0  0  0  0  0  0
   -1.6454   -0.9465   -0.3960 C   0  0  0  0  0  0  0  0  0  0  0  0
   -0.1751   -1.2053   -0.2787 C   0  0  0  0  0  0  0  0  0  0  0  0
    0.0481    0.0444   -1.0432 C   0  0  0  0  0  0  0  0  0  0  0  0
    4.3989   -1.0175   -0.1032 H   0  0  0  0  0  0  0  0  0  0  0  0
    0.6821    0.8458    2.1049 H   0  0  0  0  0  0  0  0  0  0  0  0
    0.9241    1.8625    0.6040 H   0  0  0  0  0  0  0  0  0  0  0  0
   -1.6297    0.5753    1.5812 H   0  0  0  0  0  0  0  0  0  0  0  0
   -1.3991    2.1843    0.8540 H   0  0  0  0  0  0  0  0  0  0  0  0
   -1.9059    1.0878   -1.2625 H   0  0  0  0  0  0  0  0  0  0  0  0
   -2.2717   -1.1520    0.4672 H   0  0  0  0  0  0  0  0  0  0  0  0
   -2.0650   -1.2988   -1.3773 H   0  0  0  0  0  0  0  0  0  0  0  0
    0.2010   -2.1755   -0.5930 H   0  0  0  0  0  0  0  0  0  0  0  0
    0.4110    0.1093   -2.0420 H   0  0  0  0  0  0  0  0  0  0  0  0
  1  2  3  0
  2  3  1  0
  3  4  1  0
  4  5  1  0
  5  6  1  0
  6  7  1  0
  7  8  1  0
  8  9  1  0
  8  3  1  0
  9  3  1  0
  9  6  1  0
  1 10  1  0
  4 11  1  0
  4 12  1  0
  5 13  1  0
  5 14  1  0
  6 15  1  0
  7 16  1  0
  7 17  1  0
  8 18  1  0
  9 19  1  0
M  END
