
     RDKit          3D

 21 20  0  0  0  0  0  0  0  0999 V2000
    0.8633    2.3886   -0.7726 C   0  0  0  0  0  0  0  0  0  0  0  0
    0.7381    1.2384   -0.4298 C   0  0  0  0  0  0  0  0  0  0  0  0
    0.5751   -0.1619    0.0115 C   0  0  0  0  0  0  0  0  0  0  0  0
    1.8296   -0.8025    0.0522 O   0  0  0  0  0  0  0  0  0  0  0  0
   -0.2372   -0.8780   -1.0110 C   0  0  0  0  0  0  0  0  0  0  0  0
    0.5429   -0.7918   -2.3284 C   0  0  0  0  0  0  0  0  0  0  0  0
    0.0377   -0.1750    1.3971 C   0  0  0  0  0  0  0  0  0  0  0  0
   -1.2831    0.4823    1.5897 C   0  0  0  0  0  0  0  0  0  0  0  0
   -2.2960   -0.0888    0.8389 O   0  0  0  0  0  0  0  0  0  0  0  0
    0.9704    3.4170   -1.0601 H   0  0  0  0  0  0  0  0  0  0  0  0
    2.4720   -0.2910    0.6149 H   0  0  0  0  0  0  0  0  0  0  0  0
   -1.2323   -0.4153   -1.2084 H   0  0  0  0  0  0  0  0  0  0  0  0
   -0.4108   -1.9340   -0.8044 H   0  0  0  0  0  0  0  0  0  0  0  0
    1.3077   -1.6079   -2.2624 H   0  0  0  0  0  0  0  0  0  0  0  0
    1.1164    0.1635   -2.3685 H   0  0  0  0  0  0  0  0  0  0  0  0
   -0.0773   -0.9846   -3.1978 H   0  0  0  0  0  0  0  0  0  0  0  0
   -0.0065   -1.1991    1.8167 H   0  0  0  0  0  0  0  0  0  0  0  0
    0.7779    0.3722    2.0387 H   0  0  0  0  0  0  0  0  0  0  0  0
   -1.5730    0.3415    2.6640 H   0  0  0  0  0  0  0  0  0  0  0  0
   -1.2251    1.5811    1.4495 H   0  0  0  0  0  0  0  0  0  0  0  0
   -2.8897   -0.6547    1.3710 H   0  0  0  0  0  0  0  0  0  0  0  0
  1  2  3  0
  2  3  1  0
  3  4  1  0
  3  5  1  0
  5  6  1  0
  3  7  1  0
  7  8  1  0
  8  9  1  0
  1 10  1  0
  4 11  1  0
  5 12  1  0
  5 13  1  0
  6 14  1  0
  6 15  1  0
  6 16  1  0
  7 17  1  0
  7 18  1  0
  8 19  1  0
  8 20  1  0
  9 21  1  0
M  END
