
     RDKit          3D

 19 20  0  0  0  0  0  0  0  0999 V2000
    3.2364    0.7738    0.7058 C   0  0  0  0  0  0  0  0  0  0  0  0
    2.0798    0.7245    0.3574 C   0  0  0  0  0  0  0  0  0  0  0  0
    0.7127    0.6881   -0.0664 C   0  0  0  0  0  0  0  0  0  0  0  0
   -0.0421    1.6509   -0.6165 C   0  0  0  0  0  0  0  0  0  0  0  0
   -1.3478    0.9748   -0.7874 C   0  0  0  0  0  0  0  0  0  0  0  0
   -1.4755    0.2198    0.5283 C   0  0  0  0  0  0  0  0  0  0  0  0
   -0.1957   -0.4552    0.0119 C   0  0  0  0  0  0  0  0  0  0  0  0
    0.1865   -1.7264    0.5281 C   0  0  0  0  0  0  0  0  0  0  0  0
   -0.8847   -0.3714   -1.3618 C   0  0  0  0  0  0  0  0  0  0  0  0
    4.2366    0.8338    1.0133 H   0  0  0  0  0  0  0  0  0  0  0  0
    0.2254    2.6657   -0.8736 H   0  0  0  0  0  0  0  0  0  0  0  0
   -2.1746    1.4544   -1.2077 H   0  0  0  0  0  0  0  0  0  0  0  0
   -2.3299   -0.4980    0.5505 H   0  0  0  0  0  0  0  0  0  0  0  0
   -1.3482    0.8125    1.4333 H   0  0  0  0  0  0  0  0  0  0  0  0
   -0.1110   -1.8617    1.6076 H   0  0  0  0  0  0  0  0  0  0  0  0
   -0.2636   -2.6071    0.0078 H   0  0  0  0  0  0  0  0  0  0  0  0
    1.2773   -1.8879    0.5077 H   0  0  0  0  0  0  0  0  0  0  0  0
   -0.1006   -0.2950   -2.1258 H   0  0  0  0  0  0  0  0  0  0  0  0
   -1.6811   -1.0959   -1.5147 H   0  0  0  0  0  0  0  0  0  0  0  0
  1  2  3  0
  2  3  1  0
  3  4  2  0
  4  5  1  0
  5  6  1  0
  6  7  1  0
  7  8  1  0
  7  9  1  0
  7  3  1  0
  9  5  1  0
  1 10  1  0
  4 11  1  0
  5 12  1  0
  6 13  1  0
  6 14  1  0
  8 15  1  0
  8 16  1  0
  8 17  1  0
  9 18  1  0
  9 19  1  0
M  END
