
     RDKit          3D

 16 17  0  0  0  0  0  0  0  0999 V2000
    2.6761   -0.6117   -0.9122 C   0  0  0  0  0  0  0  0  0  0  0  0
    1.7474   -0.3837   -0.1575 C   0  0  0  0  0  0  0  0  0  0  0  0
    0.6270   -0.0879    0.7406 C   0  0  0  0  0  0  0  0  0  0  0  0
   -0.3379    0.9645    0.1934 C   0  0  0  0  0  0  0  0  0  0  0  0
   -0.5847    0.4496   -1.1840 C   0  0  0  0  0  0  0  0  0  0  0  0
   -0.7282   -0.9361   -0.9052 O   0  0  0  0  0  0  0  0  0  0  0  0
   -0.5757   -0.9986    0.4536 C   0  0  0  0  0  0  0  0  0  0  0  0
   -1.4076    0.1855    0.9737 C   0  0  0  0  0  0  0  0  0  0  0  0
    3.4928   -0.8194   -1.5553 H   0  0  0  0  0  0  0  0  0  0  0  0
    0.8758    0.0119    1.7943 H   0  0  0  0  0  0  0  0  0  0  0  0
   -0.1836    1.9739    0.4124 H   0  0  0  0  0  0  0  0  0  0  0  0
    0.2818    0.6447   -1.8098 H   0  0  0  0  0  0  0  0  0  0  0  0
   -1.5373    0.8608   -1.5731 H   0  0  0  0  0  0  0  0  0  0  0  0
   -0.6391   -1.9105    0.9868 H   0  0  0  0  0  0  0  0  0  0  0  0
   -1.3115    0.3825    2.0370 H   0  0  0  0  0  0  0  0  0  0  0  0
   -2.3953    0.2746    0.5053 H   0  0  0  0  0  0  0  0  0  0  0  0
  1  2  3  0
  2  3  1  0
  3  4  1  0
  4  5  1  0
  5  6  1  0
  6  7  1  0
  7  8  1  0
  7  3  1  0
  8  4  1  0
  1  9  1  0
  3 10  1  0
  4 11  1  0
  5 12  1  0
  5 13  1  0
  7 14  1  0
  8 15  1  0
  8 16  1  0
M  END
