
     RDKit          3D

 19 20  0  0  0  0  0  0  0  0999 V2000
    3.6136    0.1773    1.2089 C   0  0  0  0  0  0  0  0  0  0  0  0
    2.5098    0.1631    0.6678 C   0  0  0  0  0  0  0  0  0  0  0  0
    1.2186    0.1678    0.0206 C   0  0  0  0  0  0  0  0  0  0  0  0
    0.6455   -0.7902   -0.6816 C   0  0  0  0  0  0  0  0  0  0  0  0
   -0.6794   -0.3781   -1.1685 C   0  0  0  0  0  0  0  0  0  0  0  0
   -1.8262   -1.1388   -0.4876 C   0  0  0  0  0  0  0  0  0  0  0  0
   -1.3995   -0.3721    0.7764 C   0  0  0  0  0  0  0  0  0  0  0  0
   -1.0234    0.7331   -0.1860 C   0  0  0  0  0  0  0  0  0  0  0  0
    0.3007    1.3551    0.0679 C   0  0  0  0  0  0  0  0  0  0  0  0
    4.5522    0.1845    1.6887 H   0  0  0  0  0  0  0  0  0  0  0  0
    1.0790   -1.7506   -0.8804 H   0  0  0  0  0  0  0  0  0  0  0  0
   -0.8077   -0.1517   -2.2174 H   0  0  0  0  0  0  0  0  0  0  0  0
   -2.8224   -0.7674   -0.8107 H   0  0  0  0  0  0  0  0  0  0  0  0
   -1.6986   -2.2163   -0.4411 H   0  0  0  0  0  0  0  0  0  0  0  0
   -0.5321   -0.8275    1.2613 H   0  0  0  0  0  0  0  0  0  0  0  0
   -2.2472   -0.1159    1.4382 H   0  0  0  0  0  0  0  0  0  0  0  0
   -1.8434    1.3905   -0.5047 H   0  0  0  0  0  0  0  0  0  0  0  0
    0.3694    1.8997    1.0365 H   0  0  0  0  0  0  0  0  0  0  0  0
    0.5912    2.0038   -0.7884 H   0  0  0  0  0  0  0  0  0  0  0  0
  1  2  3  0
  2  3  1  0
  3  4  2  0
  4  5  1  0
  5  6  1  0
  6  7  1  0
  7  8  1  0
  8  9  1  0
  9  3  1  0
  8  5  1  0
  1 10  1  0
  4 11  1  0
  5 12  1  0
  6 13  1  0
  6 14  1  0
  7 15  1  0
  7 16  1  0
  8 17  1  0
  9 18  1  0
  9 19  1  0
M  END
