
     RDKit          3D

 17 16  0  0  0  0  0  0  0  0999 V2000
   -1.8165    2.7467   -1.2109 C   0  0  0  0  0  0  0  0  0  0  0  0
   -1.8265    1.5703   -1.3786 C   0  0  0  0  0  0  0  0  0  0  0  0
   -1.8541    0.1243   -1.5863 C   0  0  0  0  0  0  0  0  0  0  0  0
   -1.1124   -0.5803   -0.4432 C   0  0  0  0  0  0  0  0  0  0  0  0
    0.2325   -0.1537   -0.3913 O   0  0  0  0  0  0  0  0  0  0  0  0
    1.0582   -0.6888    0.5859 C   0  0  0  0  0  0  0  0  0  0  0  0
    0.5566   -1.5302    1.3758 O   0  0  0  0  0  0  0  0  0  0  0  0
    2.4684   -0.3306    0.7459 C   0  0  0  0  0  0  0  0  0  0  0  0
    3.0240   -1.0256    1.8011 O   0  0  0  0  0  0  0  0  0  0  0  0
   -1.8198    3.7905   -1.0482 H   0  0  0  0  0  0  0  0  0  0  0  0
   -2.9178   -0.1816   -1.6061 H   0  0  0  0  0  0  0  0  0  0  0  0
   -1.3755   -0.2007   -2.5120 H   0  0  0  0  0  0  0  0  0  0  0  0
   -1.1834   -1.6600   -0.5650 H   0  0  0  0  0  0  0  0  0  0  0  0
   -1.6804   -0.3013    0.4787 H   0  0  0  0  0  0  0  0  0  0  0  0
    3.0523   -0.4092   -0.1895 H   0  0  0  0  0  0  0  0  0  0  0  0
    2.5038    0.7592    1.0266 H   0  0  0  0  0  0  0  0  0  0  0  0
    2.6905   -1.9290    1.9267 H   0  0  0  0  0  0  0  0  0  0  0  0
  1  2  3  0
  2  3  1  0
  3  4  1  0
  4  5  1  0
  5  6  1  0
  6  7  2  0
  6  8  1  0
  8  9  1  0
  1 10  1  0
  3 11  1  0
  3 12  1  0
  4 13  1  0
  4 14  1  0
  8 15  1  0
  8 16  1  0
  9 17  1  0
M  END
