
     RDKit          3D

 21 21  0  0  0  0  0  0  0  0999 V2000
    3.4429    1.3756    0.5490 C   0  0  0  0  0  0  0  0  0  0  0  0
    2.3168    0.9975    0.7310 C   0  0  0  0  0  0  0  0  0  0  0  0
    0.9139    0.5479    0.9403 C   0  0  0  0  0  0  0  0  0  0  0  0
    0.5049   -0.2075   -0.2787 C   0  0  0  0  0  0  0  0  0  0  0  0
    1.4464   -1.3986   -0.4538 C   0  0  0  0  0  0  0  0  0  0  0  0
   -0.9162   -0.6305   -0.1949 C   0  0  0  0  0  0  0  0  0  0  0  0
   -1.8294    0.5333   -0.0958 C   0  0  0  0  0  0  0  0  0  0  0  0
   -3.2891    0.3330    0.0036 C   0  0  0  0  0  0  0  0  0  0  0  0
   -2.7261    0.6208   -1.2523 O   0  0  0  0  0  0  0  0  0  0  0  0
    4.4477    1.6968    0.3868 H   0  0  0  0  0  0  0  0  0  0  0  0
    0.9115   -0.0647    1.8635 H   0  0  0  0  0  0  0  0  0  0  0  0
    0.2513    1.4095    1.0888 H   0  0  0  0  0  0  0  0  0  0  0  0
    0.7010    0.4729   -1.1555 H   0  0  0  0  0  0  0  0  0  0  0  0
    1.4305   -1.6347   -1.5363 H   0  0  0  0  0  0  0  0  0  0  0  0
    1.1162   -2.2726    0.1213 H   0  0  0  0  0  0  0  0  0  0  0  0
    2.4834   -1.1479   -0.1547 H   0  0  0  0  0  0  0  0  0  0  0  0
   -1.0879   -1.3884    0.6215 H   0  0  0  0  0  0  0  0  0  0  0  0
   -1.1380   -1.2348   -1.1269 H   0  0  0  0  0  0  0  0  0  0  0  0
   -1.4593    1.5315    0.2112 H   0  0  0  0  0  0  0  0  0  0  0  0
   -3.9042    1.1712    0.3826 H   0  0  0  0  0  0  0  0  0  0  0  0
   -3.6161   -0.7102    0.2101 H   0  0  0  0  0  0  0  0  0  0  0  0
  1  2  3  0
  2  3  1  0
  3  4  1  0
  4  5  1  0
  4  6  1  0
  6  7  1  0
  7  8  1  0
  8  9  1  0
  9  7  1  0
  1 10  1  0
  3 11  1  0
  3 12  1  0
  4 13  1  0
  5 14  1  0
  5 15  1  0
  5 16  1  0
  6 17  1  0
  6 18  1  0
  7 19  1  0
  8 20  1  0
  8 21  1  0
M  END
