
     RDKit          3D

 19 19  0  0  0  0  0  0  0  0999 V2000
    2.5755    0.7552    2.8212 C   0  0  0  0  0  0  0  0  0  0  0  0
    1.5956    0.1563    2.3909 C   0  0  0  0  0  0  0  0  0  0  0  0
    0.4124   -0.5567    1.8975 C   0  0  0  0  0  0  0  0  0  0  0  0
   -0.1489    0.2844    0.7466 C   0  0  0  0  0  0  0  0  0  0  0  0
   -1.3784   -0.2910    0.1039 C   0  0  0  0  0  0  0  0  0  0  0  0
   -0.5612   -0.5182   -1.1226 C   0  0  0  0  0  0  0  0  0  0  0  0
   -0.9464    0.3253   -2.3190 C   0  0  0  0  0  0  0  0  0  0  0  0
    0.6465    0.0542   -0.4822 C   0  0  0  0  0  0  0  0  0  0  0  0
    1.7992    0.2640   -0.7863 O   0  0  0  0  0  0  0  0  0  0  0  0
    3.4177    1.2736    3.1725 H   0  0  0  0  0  0  0  0  0  0  0  0
   -0.3677   -0.6094    2.6567 H   0  0  0  0  0  0  0  0  0  0  0  0
    0.6699   -1.5781    1.5414 H   0  0  0  0  0  0  0  0  0  0  0  0
   -0.2577    1.3429    1.0208 H   0  0  0  0  0  0  0  0  0  0  0  0
   -1.7056   -1.2857    0.5243 H   0  0  0  0  0  0  0  0  0  0  0  0
   -2.2375    0.3953    0.0109 H   0  0  0  0  0  0  0  0  0  0  0  0
   -0.4014   -1.5744   -1.4227 H   0  0  0  0  0  0  0  0  0  0  0  0
   -1.9616    0.0598   -2.6218 H   0  0  0  0  0  0  0  0  0  0  0  0
   -0.2575    0.0984   -3.1359 H   0  0  0  0  0  0  0  0  0  0  0  0
   -0.8932    1.4040   -2.1125 H   0  0  0  0  0  0  0  0  0  0  0  0
  1  2  3  0
  2  3  1  0
  3  4  1  0
  4  5  1  0
  5  6  1  0
  6  7  1  0
  6  8  1  0
  8  9  2  0
  8  4  1  0
  1 10  1  0
  3 11  1  0
  3 12  1  0
  4 13  1  0
  5 14  1  0
  5 15  1  0
  6 16  1  0
  7 17  1  0
  7 18  1  0
  7 19  1  0
M  END
