
     RDKit          3D

 23 22  0  0  0  0  0  0  0  0999 V2000
   -2.7161    2.4825   -0.3727 C   0  0  0  0  0  0  0  0  0  0  0  0
   -2.7025    1.2665   -0.3655 C   0  0  0  0  0  0  0  0  0  0  0  0
   -2.6993   -0.1698   -0.3607 C   0  0  0  0  0  0  0  0  0  0  0  0
   -1.4906   -0.7343   -0.7072 O   0  0  0  0  0  0  0  0  0  0  0  0
   -0.4263   -0.2586    0.0687 C   0  0  0  0  0  0  0  0  0  0  0  0
   -0.0043   -1.5211    0.8729 C   0  0  0  0  0  0  0  0  0  0  0  0
    0.6796    0.0403   -0.8893 C   0  0  0  0  0  0  0  0  0  0  0  0
    1.9409    0.5888   -0.3524 C   0  0  0  0  0  0  0  0  0  0  0  0
    2.6955   -0.2206    0.6369 C   0  0  0  0  0  0  0  0  0  0  0  0
   -2.7455    3.5126   -0.3788 H   0  0  0  0  0  0  0  0  0  0  0  0
   -3.4960   -0.5144   -1.0977 H   0  0  0  0  0  0  0  0  0  0  0  0
   -3.0095   -0.6031    0.6154 H   0  0  0  0  0  0  0  0  0  0  0  0
   -0.6761    0.5396    0.7611 H   0  0  0  0  0  0  0  0  0  0  0  0
    0.5746   -1.2623    1.7608 H   0  0  0  0  0  0  0  0  0  0  0  0
   -0.9726   -1.9385    1.2489 H   0  0  0  0  0  0  0  0  0  0  0  0
    0.4910   -2.1939    0.1515 H   0  0  0  0  0  0  0  0  0  0  0  0
    0.2863    0.6682   -1.7512 H   0  0  0  0  0  0  0  0  0  0  0  0
    0.9732   -0.9392   -1.4126 H   0  0  0  0  0  0  0  0  0  0  0  0
    1.7723    1.6348    0.0359 H   0  0  0  0  0  0  0  0  0  0  0  0
    2.6199    0.7413   -1.2573 H   0  0  0  0  0  0  0  0  0  0  0  0
    2.4778    0.1729    1.6725 H   0  0  0  0  0  0  0  0  0  0  0  0
    2.6144   -1.3007    0.5784 H   0  0  0  0  0  0  0  0  0  0  0  0
    3.8136    0.0089    0.5423 H   0  0  0  0  0  0  0  0  0  0  0  0
  1  2  3  0
  2  3  1  0
  3  4  1  0
  4  5  1  0
  5  6  1  0
  5  7  1  0
  7  8  1  0
  8  9  1  0
  1 10  1  0
  3 11  1  0
  3 12  1  0
  5 13  1  0
  6 14  1  0
  6 15  1  0
  6 16  1  0
  7 17  1  0
  7 18  1  0
  8 19  1  0
  8 20  1  0
  9 21  1  0
  9 22  1  0
  9 23  1  0
M  END
