
     RDKit          3D

 17 18  0  0  0  0  0  0  0  0999 V2000
    2.7464    1.2412    1.2482 C   0  0  0  0  0  0  0  0  0  0  0  0
    1.7184    0.6032    1.1500 C   0  0  0  0  0  0  0  0  0  0  0  0
    0.4884   -0.1851    1.0210 C   0  0  0  0  0  0  0  0  0  0  0  0
    0.6552   -1.5458    0.9921 O   0  0  0  0  0  0  0  0  0  0  0  0
   -0.3185   -1.5719   -0.0272 C   0  0  0  0  0  0  0  0  0  0  0  0
    0.1812   -1.2190   -1.3584 C   0  0  0  0  0  0  0  0  0  0  0  0
   -0.0296   -0.1634   -0.3833 C   0  0  0  0  0  0  0  0  0  0  0  0
   -1.1418    0.8251   -0.6339 C   0  0  0  0  0  0  0  0  0  0  0  0
   -2.2608    0.5862    0.1538 O   0  0  0  0  0  0  0  0  0  0  0  0
    3.6432    1.8181    1.3405 H   0  0  0  0  0  0  0  0  0  0  0  0
   -0.2793    0.0901    1.7821 H   0  0  0  0  0  0  0  0  0  0  0  0
   -1.3179   -1.9364    0.1947 H   0  0  0  0  0  0  0  0  0  0  0  0
   -0.4758   -1.2666   -2.2284 H   0  0  0  0  0  0  0  0  0  0  0  0
    1.2412   -1.5032   -1.5984 H   0  0  0  0  0  0  0  0  0  0  0  0
   -1.3728    0.9526   -1.7006 H   0  0  0  0  0  0  0  0  0  0  0  0
   -0.7436    1.8268   -0.2943 H   0  0  0  0  0  0  0  0  0  0  0  0
   -2.7340    1.4480    0.3422 H   0  0  0  0  0  0  0  0  0  0  0  0
  1  2  3  0
  2  3  1  0
  3  4  1  0
  4  5  1  0
  5  6  1  0
  6  7  1  0
  7  8  1  0
  8  9  1  0
  7  3  1  0
  7  5  1  0
  1 10  1  0
  3 11  1  0
  5 12  1  0
  6 13  1  0
  6 14  1  0
  8 15  1  0
  8 16  1  0
  9 17  1  0
M  END
