
     RDKit          3D

 21 21  0  0  0  0  0  0  0  0999 V2000
   -1.1433    3.1291    0.5861 C   0  0  0  0  0  0  0  0  0  0  0  0
   -0.7865    2.0570    1.0025 C   0  0  0  0  0  0  0  0  0  0  0  0
   -0.3260    0.7503    1.5209 C   0  0  0  0  0  0  0  0  0  0  0  0
    0.5015    0.1367    0.3845 C   0  0  0  0  0  0  0  0  0  0  0  0
    0.9620   -1.0977    0.8170 O   0  0  0  0  0  0  0  0  0  0  0  0
    2.3611   -1.1167    0.7921 C   0  0  0  0  0  0  0  0  0  0  0  0
   -0.4486    0.0079   -0.7898 C   0  0  0  0  0  0  0  0  0  0  0  0
   -1.6468   -0.8875   -0.4697 C   0  0  0  0  0  0  0  0  0  0  0  0
   -0.6513   -1.2598   -1.4917 C   0  0  0  0  0  0  0  0  0  0  0  0
   -1.4768    4.0746    0.2198 H   0  0  0  0  0  0  0  0  0  0  0  0
   -1.2136    0.1074    1.6872 H   0  0  0  0  0  0  0  0  0  0  0  0
    0.2525    0.8445    2.4418 H   0  0  0  0  0  0  0  0  0  0  0  0
    1.3438    0.8070    0.1248 H   0  0  0  0  0  0  0  0  0  0  0  0
    2.7365   -2.0942    1.1342 H   0  0  0  0  0  0  0  0  0  0  0  0
    2.6965   -0.3412    1.5232 H   0  0  0  0  0  0  0  0  0  0  0  0
    2.7586   -0.8054   -0.1959 H   0  0  0  0  0  0  0  0  0  0  0  0
   -0.6493    0.9682   -1.3005 H   0  0  0  0  0  0  0  0  0  0  0  0
   -2.6447   -0.4818   -0.7445 H   0  0  0  0  0  0  0  0  0  0  0  0
   -1.6508   -1.4725    0.4515 H   0  0  0  0  0  0  0  0  0  0  0  0
   -0.9933   -1.1931   -2.5557 H   0  0  0  0  0  0  0  0  0  0  0  0
    0.0185   -2.1328   -1.3212 H   0  0  0  0  0  0  0  0  0  0  0  0
  1  2  3  0
  2  3  1  0
  3  4  1  0
  4  5  1  0
  5  6  1  0
  4  7  1  0
  7  8  1  0
  8  9  1  0
  9  7  1  0
  1 10  1  0
  3 11  1  0
  3 12  1  0
  4 13  1  0
  6 14  1  0
  6 15  1  0
  6 16  1  0
  7 17  1  0
  8 18  1  0
  8 19  1  0
  9 20  1  0
  9 21  1  0
M  END
