
     RDKit          3D

 19 20  0  0  0  0  0  0  0  0999 V2000
    2.5965   -2.1297    0.3328 C   0  0  0  0  0  0  0  0  0  0  0  0
    1.9513   -1.1191    0.3811 C   0  0  0  0  0  0  0  0  0  0  0  0
    1.1805    0.1070    0.4627 C   0  0  0  0  0  0  0  0  0  0  0  0
    0.2417    0.0995    1.4837 O   0  0  0  0  0  0  0  0  0  0  0  0
   -0.9545    0.5697    0.9973 C   0  0  0  0  0  0  0  0  0  0  0  0
   -1.6081   -0.5501    0.2109 C   0  0  0  0  0  0  0  0  0  0  0  0
   -0.6319   -0.7217   -0.9638 C   0  0  0  0  0  0  0  0  0  0  0  0
    0.3767    0.3807   -0.7844 C   0  0  0  0  0  0  0  0  0  0  0  0
   -0.5324    1.4702   -0.1812 C   0  0  0  0  0  0  0  0  0  0  0  0
    3.1551   -3.0242    0.2751 H   0  0  0  0  0  0  0  0  0  0  0  0
    1.8247    0.9973    0.6295 H   0  0  0  0  0  0  0  0  0  0  0  0
   -1.5993    1.0690    1.6953 H   0  0  0  0  0  0  0  0  0  0  0  0
   -2.5608   -0.2116   -0.2112 H   0  0  0  0  0  0  0  0  0  0  0  0
   -1.6820   -1.4848    0.8022 H   0  0  0  0  0  0  0  0  0  0  0  0
   -0.2086   -1.7296   -0.8873 H   0  0  0  0  0  0  0  0  0  0  0  0
   -1.1433   -0.5347   -1.9343 H   0  0  0  0  0  0  0  0  0  0  0  0
    0.9170    0.6927   -1.6470 H   0  0  0  0  0  0  0  0  0  0  0  0
   -1.3761    1.6930   -0.8276 H   0  0  0  0  0  0  0  0  0  0  0  0
    0.0535    2.3216    0.1662 H   0  0  0  0  0  0  0  0  0  0  0  0
  1  2  3  0
  2  3  1  0
  3  4  1  0
  4  5  1  0
  5  6  1  0
  6  7  1  0
  7  8  1  0
  8  9  1  0
  8  3  1  0
  9  5  1  0
  1 10  1  0
  3 11  1  0
  5 12  1  0
  6 13  1  0
  6 14  1  0
  7 15  1  0
  7 16  1  0
  8 17  1  0
  9 18  1  0
  9 19  1  0
M  END
