
     RDKit          3D

 17 16  0  0  0  0  0  0  0  0999 V2000
    3.4728   -1.6246    1.8986 C   0  0  0  0  0  0  0  0  0  0  0  0
    2.2639   -1.4979    1.3070 C   0  0  0  0  0  0  0  0  0  0  0  0
    0.6356   -1.3263    0.5312 C   0  0  0  0  0  0  0  0  0  0  0  0
   -0.3184   -1.2281    0.0938 C   0  0  0  0  0  0  0  0  0  0  0  0
   -1.3699   -1.1397   -0.3836 C   0  0  0  0  0  0  0  0  0  0  0  0
   -2.3331    0.6002    0.1392 C   0  0  0  0  0  0  0  0  0  0  0  0
   -2.9934    1.7790    0.4862 C   0  0  0  0  0  0  0  0  0  0  0  0
   -0.4230    0.5603   -0.4380 C   0  0  0  0  0  0  0  0  0  0  0  0
    0.7082    0.3290   -1.2634 C   0  0  0  0  0  0  0  0  0  0  0  0
    4.1806   -1.6929    2.2564 H   0  0  0  0  0  0  0  0  0  0  0  0
   -1.8901   -1.0289    0.8098 H   0  0  0  0  0  0  0  0  0  0  0  0
   -3.8067    3.1935    0.8959 H   0  0  0  0  0  0  0  0  0  0  0  0
   -1.1702    1.1970   -0.7456 H   0  0  0  0  0  0  0  0  0  0  0  0
   -0.2653    0.4769    0.6442 H   0  0  0  0  0  0  0  0  0  0  0  0
    0.5134    0.1616   -2.4063 H   0  0  0  0  0  0  0  0  0  0  0  0
    1.5896   -0.2506   -1.1399 H   0  0  0  0  0  0  0  0  0  0  0  0
    1.2062    1.4915   -1.3933 H   0  0  0  0  0  0  0  0  0  0  0  0
  1  2  3  0
  2  3  1  0
  3  4  3  0
  4  5  1  0
  5  6  1  0
  6  7  3  0
  5  8  1  0
  8  9  1  0
  1 10  1  0
  5 11  1  0
  7 12  1  0
  8 13  1  0
  8 14  1  0
  9 15  1  0
  9 16  1  0
  9 17  1  0
M  END
