
     RDKit          3D

 15 16  0  0  0  0  0  0  0  0999 V2000
    3.1751   -1.0444    0.4669 C   0  0  0  0  0  0  0  0  0  0  0  0
    1.9902   -0.8383    0.3832 C   0  0  0  0  0  0  0  0  0  0  0  0
    0.5386   -0.5613    0.2711 C   0  0  0  0  0  0  0  0  0  0  0  0
    0.1137   -0.6267   -1.0794 O   0  0  0  0  0  0  0  0  0  0  0  0
   -0.9162    0.1423   -0.6523 C   0  0  0  0  0  0  0  0  0  0  0  0
   -1.9696   -0.6153    0.0272 C   0  0  0  0  0  0  0  0  0  0  0  0
   -1.9083   -1.8219    0.1058 O   0  0  0  0  0  0  0  0  0  0  0  0
   -0.9790    1.5493   -0.3586 C   0  0  0  0  0  0  0  0  0  0  0  0
    0.2009    0.8836    0.1207 C   0  0  0  0  0  0  0  0  0  0  0  0
    4.1989   -1.2303    0.5268 H   0  0  0  0  0  0  0  0  0  0  0  0
    0.0337   -1.1537    1.0014 H   0  0  0  0  0  0  0  0  0  0  0  0
   -2.8473   -0.1782    0.4922 H   0  0  0  0  0  0  0  0  0  0  0  0
   -1.0562    2.2299   -1.2533 H   0  0  0  0  0  0  0  0  0  0  0  0
   -1.6439    1.9652    0.4495 H   0  0  0  0  0  0  0  0  0  0  0  0
    1.0693    1.3000   -0.5012 H   0  0  0  0  0  0  0  0  0  0  0  0
  1  2  3  0
  2  3  1  0
  3  4  1  0
  4  5  1  0
  5  6  1  0
  6  7  2  0
  5  8  1  0
  8  9  1  0
  9  3  1  0
  9  5  1  0
  1 10  1  0
  3 11  1  0
  6 12  1  0
  8 13  1  0
  8 14  1  0
  9 15  1  0
M  END
