
     RDKit          3D

 17 18  0  0  0  0  0  0  0  0999 V2000
    2.1166   -0.6038    1.8136 C   0  0  0  0  0  0  0  0  0  0  0  0
    1.0994   -0.2621    1.7131 C   0  0  0  0  0  0  0  0  0  0  0  0
   -0.2497    0.1873    1.5551 C   0  0  0  0  0  0  0  0  0  0  0  0
   -0.6481    0.3581    0.1676 C   0  0  0  0  0  0  0  0  0  0  0  0
    0.0673    1.3121   -0.7845 C   0  0  0  0  0  0  0  0  0  0  0  0
   -0.1178   -0.1156   -1.0839 C   0  0  0  0  0  0  0  0  0  0  0  0
    0.9949   -0.9278   -1.2728 O   0  0  0  0  0  0  0  0  0  0  0  0
   -1.4871   -0.7404   -1.2437 C   0  0  0  0  0  0  0  0  0  0  0  0
   -1.9953    0.0792   -0.2143 O   0  0  0  0  0  0  0  0  0  0  0  0
    3.3084   -1.0227    1.9444 H   0  0  0  0  0  0  0  0  0  0  0  0
   -0.9466   -0.5333    2.1117 H   0  0  0  0  0  0  0  0  0  0  0  0
   -0.3970    1.1791    2.1139 H   0  0  0  0  0  0  0  0  0  0  0  0
    0.9787    1.7063   -0.3265 H   0  0  0  0  0  0  0  0  0  0  0  0
   -0.5975    2.1187   -1.1927 H   0  0  0  0  0  0  0  0  0  0  0  0
    1.3698   -0.7577   -2.1915 H   0  0  0  0  0  0  0  0  0  0  0  0
   -1.9396   -0.5570   -2.2311 H   0  0  0  0  0  0  0  0  0  0  0  0
   -1.5564   -1.8111   -0.8783 H   0  0  0  0  0  0  0  0  0  0  0  0
  1  2  3  0
  2  3  1  0
  3  4  1  0
  4  5  1  0
  5  6  1  0
  6  7  1  0
  6  8  1  0
  8  9  1  0
  6  4  1  0
  9  4  1  0
  1 10  1  0
  3 11  1  0
  3 12  1  0
  5 13  1  0
  5 14  1  0
  7 15  1  0
  8 16  1  0
  8 17  1  0
M  END
