
     RDKit          3D

 17 19  0  0  0  0  0  0  0  0999 V2000
    3.1753   -0.5476   -0.4352 C   0  0  0  0  0  0  0  0  0  0  0  0
    2.0634   -0.2715   -0.1172 C   0  0  0  0  0  0  0  0  0  0  0  0
    0.7183    0.0553    0.2772 C   0  0  0  0  0  0  0  0  0  0  0  0
    0.0342    1.1585   -0.4766 C   0  0  0  0  0  0  0  0  0  0  0  0
   -1.3982    0.7672   -0.6480 C   0  0  0  0  0  0  0  0  0  0  0  0
   -1.5775   -0.3635    0.3393 C   0  0  0  0  0  0  0  0  0  0  0  0
   -0.7082   -0.4706    1.5346 C   0  0  0  0  0  0  0  0  0  0  0  0
    0.4866    0.1955    1.6430 O   0  0  0  0  0  0  0  0  0  0  0  0
   -0.2886   -1.0451    0.2688 C   0  0  0  0  0  0  0  0  0  0  0  0
    4.1752   -0.8086   -0.7367 H   0  0  0  0  0  0  0  0  0  0  0  0
    0.0571    2.1319    0.0601 H   0  0  0  0  0  0  0  0  0  0  0  0
    0.5455    1.3390   -1.4513 H   0  0  0  0  0  0  0  0  0  0  0  0
   -2.1118    1.5930   -0.4868 H   0  0  0  0  0  0  0  0  0  0  0  0
   -1.5124    0.3290   -1.6612 H   0  0  0  0  0  0  0  0  0  0  0  0
   -2.5351   -0.8693    0.3715 H   0  0  0  0  0  0  0  0  0  0  0  0
   -1.0340   -1.1326    2.3365 H   0  0  0  0  0  0  0  0  0  0  0  0
   -0.0900   -2.0608    0.0293 H   0  0  0  0  0  0  0  0  0  0  0  0
  1  2  3  0
  2  3  1  0
  3  4  1  0
  4  5  1  0
  5  6  1  0
  6  7  1  0
  7  8  1  0
  7  9  1  0
  8  3  1  0
  9  3  1  0
  9  6  1  0
  1 10  1  0
  4 11  1  0
  4 12  1  0
  5 13  1  0
  5 14  1  0
  6 15  1  0
  7 16  1  0
  9 17  1  0
M  END
