
     RDKit          3D

 15 15  0  0  0  0  0  0  0  0999 V2000
    2.9551   -0.1849    1.2291 C   0  0  0  0  0  0  0  0  0  0  0  0
    1.8068   -0.1030    0.8427 C   0  0  0  0  0  0  0  0  0  0  0  0
    0.4297   -0.0258    0.3684 C   0  0  0  0  0  0  0  0  0  0  0  0
    0.2665    1.2293   -0.4832 C   0  0  0  0  0  0  0  0  0  0  0  0
   -1.1580    1.3608   -0.6267 O   0  0  0  0  0  0  0  0  0  0  0  0
   -1.8738    0.1916   -0.3399 C   0  0  0  0  0  0  0  0  0  0  0  0
   -3.0483    0.2135    0.1143 O   0  0  0  0  0  0  0  0  0  0  0  0
   -1.2658   -1.1532   -0.5638 C   0  0  0  0  0  0  0  0  0  0  0  0
    0.1230   -1.1165   -0.3980 O   0  0  0  0  0  0  0  0  0  0  0  0
    3.9612   -0.2441    1.5629 H   0  0  0  0  0  0  0  0  0  0  0  0
   -0.3116    0.0242    1.1936 H   0  0  0  0  0  0  0  0  0  0  0  0
    0.6979    2.0535    0.0851 H   0  0  0  0  0  0  0  0  0  0  0  0
    0.6649    1.1030   -1.4951 H   0  0  0  0  0  0  0  0  0  0  0  0
   -1.7117   -1.9067    0.1215 H   0  0  0  0  0  0  0  0  0  0  0  0
   -1.5357   -1.4418   -1.6111 H   0  0  0  0  0  0  0  0  0  0  0  0
  1  2  3  0
  2  3  1  0
  3  4  1  0
  4  5  1  0
  5  6  1  0
  6  7  2  0
  6  8  1  0
  8  9  1  0
  9  3  1  0
  1 10  1  0
  3 11  1  0
  4 12  1  0
  4 13  1  0
  8 14  1  0
  8 15  1  0
M  END
