
     RDKit          3D

 21 20  0  0  0  0  0  0  0  0999 V2000
    0.2383    2.8214   -0.4771 C   0  0  0  0  0  0  0  0  0  0  0  0
   -0.0837    1.3950   -0.2323 C   0  0  0  0  0  0  0  0  0  0  0  0
   -0.3108    0.3227   -0.0422 C   0  0  0  0  0  0  0  0  0  0  0  0
   -1.7914   -0.0892   -0.6630 C   0  0  0  0  0  0  0  0  0  0  0  0
   -0.5654   -0.2107    1.3991 C   0  0  0  0  0  0  0  0  0  0  0  0
    0.5019   -0.0956    2.2193 O   0  0  0  0  0  0  0  0  0  0  0  0
    0.6270   -0.8233   -0.6640 C   0  0  0  0  0  0  0  0  0  0  0  0
    2.0472   -0.4811   -0.3230 C   0  0  0  0  0  0  0  0  0  0  0  0
    0.2312   -1.1136   -1.8920 O   0  0  0  0  0  0  0  0  0  0  0  0
    0.4832    3.9273   -0.6694 H   0  0  0  0  0  0  0  0  0  0  0  0
   -2.4638    0.4388    0.0741 H   0  0  0  0  0  0  0  0  0  0  0  0
   -1.7999    0.3490   -1.5954 H   0  0  0  0  0  0  0  0  0  0  0  0
   -1.8368   -1.1216   -0.5354 H   0  0  0  0  0  0  0  0  0  0  0  0
   -1.3884    0.5347    1.7370 H   0  0  0  0  0  0  0  0  0  0  0  0
   -1.0011   -1.1694    1.2928 H   0  0  0  0  0  0  0  0  0  0  0  0
    0.2733   -0.5555    3.0881 H   0  0  0  0  0  0  0  0  0  0  0  0
    0.4125   -1.7253    0.0605 H   0  0  0  0  0  0  0  0  0  0  0  0
    2.4134    0.2039   -1.1610 H   0  0  0  0  0  0  0  0  0  0  0  0
    2.6718   -1.4108   -0.2691 H   0  0  0  0  0  0  0  0  0  0  0  0
    2.1120    0.0666    0.6222 H   0  0  0  0  0  0  0  0  0  0  0  0
   -0.7706   -1.2633   -1.9691 H   0  0  0  0  0  0  0  0  0  0  0  0
  1  2  3  0
  2  3  1  0
  3  4  1  0
  3  5  1  0
  5  6  1  0
  3  7  1  0
  7  8  1  0
  7  9  1  0
  1 10  1  0
  4 11  1  0
  4 12  1  0
  4 13  1  0
  5 14  1  0
  5 15  1  0
  6 16  1  0
  7 17  1  0
  8 18  1  0
  8 19  1  0
  8 20  1  0
  9 21  1  0
M  END
