
     RDKit          3D

 14 13  0  0  0  0  0  0  0  0999 V2000
   -2.0425    0.0150    3.4198 C   0  0  0  0  0  0  0  0  0  0  0  0
   -1.5966    0.1566    2.2848 C   0  0  0  0  0  0  0  0  0  0  0  0
   -1.0429    0.3136    0.9349 C   0  0  0  0  0  0  0  0  0  0  0  0
   -1.1792    1.4046    0.4411 O   0  0  0  0  0  0  0  0  0  0  0  0
   -0.3858   -0.9149    0.3942 C   0  0  0  0  0  0  0  0  0  0  0  0
    0.4140   -0.3639   -0.8123 C   0  0  0  0  0  0  0  0  0  0  0  0
    1.0627    0.0573   -1.7804 C   0  0  0  0  0  0  0  0  0  0  0  0
    1.7961    0.5059   -2.8596 C   0  0  0  0  0  0  0  0  0  0  0  0
   -2.4553   -0.1030    4.4278 H   0  0  0  0  0  0  0  0  0  0  0  0
    0.3099   -1.3526    1.1031 H   0  0  0  0  0  0  0  0  0  0  0  0
   -1.0691   -1.6549   -0.0763 H   0  0  0  0  0  0  0  0  0  0  0  0
    2.8177    0.8772   -2.4969 H   0  0  0  0  0  0  0  0  0  0  0  0
    2.0699   -0.3112   -3.6165 H   0  0  0  0  0  0  0  0  0  0  0  0
    1.3011    1.3702   -3.3983 H   0  0  0  0  0  0  0  0  0  0  0  0
  1  2  3  0
  2  3  1  0
  3  4  2  0
  3  5  1  0
  5  6  1  0
  6  7  3  0
  7  8  1  0
  1  9  1  0
  5 10  1  0
  5 11  1  0
  8 12  1  0
  8 13  1  0
  8 14  1  0
M  END
