
     RDKit          3D

 18 19  0  0  0  0  0  0  0  0999 V2000
    1.3827    2.6981   -0.3014 C   0  0  0  0  0  0  0  0  0  0  0  0
    1.3148    1.4587   -0.2906 C   0  0  0  0  0  0  0  0  0  0  0  0
    1.2239    0.0579   -0.2907 C   0  0  0  0  0  0  0  0  0  0  0  0
    0.6896   -0.5041    1.0275 C   0  0  0  0  0  0  0  0  0  0  0  0
   -0.8044   -0.2859    0.9791 C   0  0  0  0  0  0  0  0  0  0  0  0
   -1.6698   -1.2815    0.2938 C   0  0  0  0  0  0  0  0  0  0  0  0
   -1.1660   -0.0766   -0.4428 C   0  0  0  0  0  0  0  0  0  0  0  0
    0.0572   -0.3030   -1.2770 C   0  0  0  0  0  0  0  0  0  0  0  0
    1.4629    3.8086   -0.3090 H   0  0  0  0  0  0  0  0  0  0  0  0
    2.1202   -0.4965   -0.5319 H   0  0  0  0  0  0  0  0  0  0  0  0
    1.1117    0.0872    1.8458 H   0  0  0  0  0  0  0  0  0  0  0  0
    0.9404   -1.5515    1.1907 H   0  0  0  0  0  0  0  0  0  0  0  0
   -1.2128    0.3337    1.7932 H   0  0  0  0  0  0  0  0  0  0  0  0
   -2.7032   -1.3501    0.6181 H   0  0  0  0  0  0  0  0  0  0  0  0
   -1.1883   -2.2717    0.0716 H   0  0  0  0  0  0  0  0  0  0  0  0
   -1.8290    0.7603   -0.6721 H   0  0  0  0  0  0  0  0  0  0  0  0
    0.1201   -1.3699   -1.5255 H   0  0  0  0  0  0  0  0  0  0  0  0
    0.1500    0.2866   -2.1789 H   0  0  0  0  0  0  0  0  0  0  0  0
  1  2  3  0
  2  3  1  0
  3  4  1  0
  4  5  1  0
  5  6  1  0
  6  7  1  0
  7  8  1  0
  8  3  1  0
  7  5  1  0
  1  9  1  0
  3 10  1  0
  4 11  1  0
  4 12  1  0
  5 13  1  0
  6 14  1  0
  6 15  1  0
  7 16  1  0
  8 17  1  0
  8 18  1  0
M  END
