
     RDKit          3D

 17 18  0  0  0  0  0  0  0  0999 V2000
    3.2087    0.4127    0.0879 C   0  0  0  0  0  0  0  0  0  0  0  0
    2.0123    0.5871    0.0554 C   0  0  0  0  0  0  0  0  0  0  0  0
    0.5971    0.7970   -0.0078 C   0  0  0  0  0  0  0  0  0  0  0  0
   -0.0158    0.7262    1.2699 O   0  0  0  0  0  0  0  0  0  0  0  0
   -0.9916   -0.2099    1.0837 C   0  0  0  0  0  0  0  0  0  0  0  0
   -0.2138   -1.3536    0.4108 C   0  0  0  0  0  0  0  0  0  0  0  0
   -0.0968   -0.3271   -0.6980 C   0  0  0  0  0  0  0  0  0  0  0  0
   -1.5458    0.0378   -0.3280 C   0  0  0  0  0  0  0  0  0  0  0  0
   -1.8297    1.3815   -0.5586 O   0  0  0  0  0  0  0  0  0  0  0  0
    4.2618    0.2504    0.1003 H   0  0  0  0  0  0  0  0  0  0  0  0
    0.2793    1.7418   -0.4497 H   0  0  0  0  0  0  0  0  0  0  0  0
   -1.6819   -0.4704    1.8407 H   0  0  0  0  0  0  0  0  0  0  0  0
   -0.8734   -2.1983    0.1087 H   0  0  0  0  0  0  0  0  0  0  0  0
    0.7149   -1.6271    0.9148 H   0  0  0  0  0  0  0  0  0  0  0  0
    0.1132   -0.6174   -1.6809 H   0  0  0  0  0  0  0  0  0  0  0  0
   -2.2934   -0.6874   -0.6344 H   0  0  0  0  0  0  0  0  0  0  0  0
   -1.6451    1.5567   -1.5147 H   0  0  0  0  0  0  0  0  0  0  0  0
  1  2  3  0
  2  3  1  0
  3  4  1  0
  4  5  1  0
  5  6  1  0
  6  7  1  0
  7  8  1  0
  8  9  1  0
  7  3  1  0
  8  5  1  0
  1 10  1  0
  3 11  1  0
  5 12  1  0
  6 13  1  0
  6 14  1  0
  7 15  1  0
  8 16  1  0
  9 17  1  0
M  END
