
     RDKit          3D

 21 20  0  0  0  0  0  0  0  0999 V2000
   -1.3499    2.2255   -1.4078 C   0  0  0  0  0  0  0  0  0  0  0  0
   -1.1685    1.2389   -0.7360 C   0  0  0  0  0  0  0  0  0  0  0  0
   -0.9399    0.0299    0.0887 C   0  0  0  0  0  0  0  0  0  0  0  0
   -1.2337   -1.1483   -0.8486 C   0  0  0  0  0  0  0  0  0  0  0  0
   -1.9707   -0.0307    1.1816 C   0  0  0  0  0  0  0  0  0  0  0  0
    0.4394   -0.0384    0.5832 C   0  0  0  0  0  0  0  0  0  0  0  0
    0.6296   -0.0546    1.7848 O   0  0  0  0  0  0  0  0  0  0  0  0
    1.6219   -0.0889   -0.3120 C   0  0  0  0  0  0  0  0  0  0  0  0
    2.8993   -0.1541    0.4577 C   0  0  0  0  0  0  0  0  0  0  0  0
   -1.5166    3.0922   -2.0077 H   0  0  0  0  0  0  0  0  0  0  0  0
   -0.4358   -1.9214   -0.6505 H   0  0  0  0  0  0  0  0  0  0  0  0
   -1.1062   -0.8565   -1.8986 H   0  0  0  0  0  0  0  0  0  0  0  0
   -2.1881   -1.6233   -0.6298 H   0  0  0  0  0  0  0  0  0  0  0  0
   -1.7089    0.6929    2.0037 H   0  0  0  0  0  0  0  0  0  0  0  0
   -2.9347    0.3644    0.7664 H   0  0  0  0  0  0  0  0  0  0  0  0
   -2.0768   -1.0381    1.6065 H   0  0  0  0  0  0  0  0  0  0  0  0
    1.6450    0.8249   -0.9440 H   0  0  0  0  0  0  0  0  0  0  0  0
    1.5882   -1.0064   -0.9676 H   0  0  0  0  0  0  0  0  0  0  0  0
    2.8477    0.3352    1.4512 H   0  0  0  0  0  0  0  0  0  0  0  0
    3.2675   -1.2055    0.5970 H   0  0  0  0  0  0  0  0  0  0  0  0
    3.6910    0.3624   -0.1182 H   0  0  0  0  0  0  0  0  0  0  0  0
  1  2  3  0
  2  3  1  0
  3  4  1  0
  3  5  1  0
  3  6  1  0
  6  7  2  0
  6  8  1  0
  8  9  1  0
  1 10  1  0
  4 11  1  0
  4 12  1  0
  4 13  1  0
  5 14  1  0
  5 15  1  0
  5 16  1  0
  8 17  1  0
  8 18  1  0
  9 19  1  0
  9 20  1  0
  9 21  1  0
M  END
