
     RDKit          3D

 17 19  0  0  0  0  0  0  0  0999 V2000
    2.8929   -0.4415   -1.4780 C   0  0  0  0  0  0  0  0  0  0  0  0
    1.7709   -0.1095   -1.1336 C   0  0  0  0  0  0  0  0  0  0  0  0
    0.4229    0.3060   -0.7263 C   0  0  0  0  0  0  0  0  0  0  0  0
   -0.3907   -0.8812   -0.2413 C   0  0  0  0  0  0  0  0  0  0  0  0
   -1.8656   -0.6619   -0.2619 C   0  0  0  0  0  0  0  0  0  0  0  0
   -1.1247   -0.4591    0.9784 C   0  0  0  0  0  0  0  0  0  0  0  0
   -0.5085    0.8294    1.3922 C   0  0  0  0  0  0  0  0  0  0  0  0
   -0.6488    1.9807    0.6562 O   0  0  0  0  0  0  0  0  0  0  0  0
    0.5663    1.1402    0.5110 C   0  0  0  0  0  0  0  0  0  0  0  0
    3.8681   -0.7253   -1.7785 H   0  0  0  0  0  0  0  0  0  0  0  0
   -0.1220    0.8196   -1.5482 H   0  0  0  0  0  0  0  0  0  0  0  0
    0.0543   -1.8773   -0.2134 H   0  0  0  0  0  0  0  0  0  0  0  0
   -2.2567    0.1619   -0.8944 H   0  0  0  0  0  0  0  0  0  0  0  0
   -2.5260   -1.5617   -0.3021 H   0  0  0  0  0  0  0  0  0  0  0  0
   -1.2486   -1.2011    1.8006 H   0  0  0  0  0  0  0  0  0  0  0  0
   -0.3771    1.0221    2.4943 H   0  0  0  0  0  0  0  0  0  0  0  0
    1.4932    1.6586    0.7450 H   0  0  0  0  0  0  0  0  0  0  0  0
  1  2  3  0
  2  3  1  0
  3  4  1  0
  4  5  1  0
  5  6  1  0
  6  7  1  0
  7  8  1  0
  8  9  1  0
  9  3  1  0
  6  4  1  0
  9  7  1  0
  1 10  1  0
  3 11  1  0
  4 12  1  0
  5 13  1  0
  5 14  1  0
  6 15  1  0
  7 16  1  0
  9 17  1  0
M  END
