
     RDKit          3D

 18 17  0  0  0  0  0  0  0  0999 V2000
    0.0407    1.1627    3.0554 C   0  0  0  0  0  0  0  0  0  0  0  0
    0.4603    0.5035    2.0645 C   0  0  0  0  0  0  0  0  0  0  0  0
    0.9202   -0.2475    0.9561 C   0  0  0  0  0  0  0  0  0  0  0  0
   -0.1907   -0.4485   -0.0507 C   0  0  0  0  0  0  0  0  0  0  0  0
    0.2465   -1.2392   -1.2452 C   0  0  0  0  0  0  0  0  0  0  0  0
    1.2770   -0.6667   -1.9563 O   0  0  0  0  0  0  0  0  0  0  0  0
   -0.6674    0.9423   -0.4034 C   0  0  0  0  0  0  0  0  0  0  0  0
   -1.7028    0.9230   -1.3287 O   0  0  0  0  0  0  0  0  0  0  0  0
   -0.3163    1.6909    3.8702 H   0  0  0  0  0  0  0  0  0  0  0  0
    1.3695   -1.2436    1.2375 H   0  0  0  0  0  0  0  0  0  0  0  0
    1.7370    0.2820    0.3805 H   0  0  0  0  0  0  0  0  0  0  0  0
   -1.0445   -0.9584    0.4406 H   0  0  0  0  0  0  0  0  0  0  0  0
   -0.6228   -1.3334   -1.9294 H   0  0  0  0  0  0  0  0  0  0  0  0
    0.5692   -2.2585   -0.9551 H   0  0  0  0  0  0  0  0  0  0  0  0
    0.9947   -0.1351   -2.7347 H   0  0  0  0  0  0  0  0  0  0  0  0
   -1.0766    1.3741    0.5323 H   0  0  0  0  0  0  0  0  0  0  0  0
    0.1780    1.5944   -0.7371 H   0  0  0  0  0  0  0  0  0  0  0  0
   -2.1720    0.0580   -1.1966 H   0  0  0  0  0  0  0  0  0  0  0  0
  1  2  3  0
  2  3  1  0
  3  4  1  0
  4  5  1  0
  5  6  1  0
  4  7  1  0
  7  8  1  0
  1  9  1  0
  3 10  1  0
  3 11  1  0
  4 12  1  0
  5 13  1  0
  5 14  1  0
  6 15  1  0
  7 16  1  0
  7 17  1  0
  8 18  1  0
M  END
