
     RDKit          3D

 13 12  0  0  0  0  0  0  0  0999 V2000
   -2.6030    1.6491   -0.2685 C   0  0  0  0  0  0  0  0  0  0  0  0
   -1.7581    0.7971    0.1574 C   0  0  0  0  0  0  0  0  0  0  0  0
   -0.7100   -0.2952    0.7063 C   0  0  0  0  0  0  0  0  0  0  0  0
    0.5998   -0.0708    0.1679 C   0  0  0  0  0  0  0  0  0  0  0  0
    1.8738    0.1716   -0.3507 C   0  0  0  0  0  0  0  0  0  0  0  0
    2.8677    0.3532   -0.7365 C   0  0  0  0  0  0  0  0  0  0  0  0
    3.3937    1.0874   -1.8034 O   0  0  0  0  0  0  0  0  0  0  0  0
   -1.2573   -1.5363   -0.0600 C   0  0  0  0  0  0  0  0  0  0  0  0
   -0.1831   -2.1793   -0.5111 O   0  0  0  0  0  0  0  0  0  0  0  0
   -3.2059    2.2496   -0.5624 H   0  0  0  0  0  0  0  0  0  0  0  0
   -0.8167   -0.3409    1.7336 H   0  0  0  0  0  0  0  0  0  0  0  0
    3.9731   -0.0610   -0.3256 H   0  0  0  0  0  0  0  0  0  0  0  0
   -2.1739   -1.8244   -0.2173 H   0  0  0  0  0  0  0  0  0  0  0  0
  1  2  3  0
  2  3  1  0
  3  4  1  0
  4  5  3  0
  5  6  1  0
  6  7  2  0
  3  8  1  0
  8  9  2  0
  1 10  1  0
  3 11  1  0
  6 12  1  0
  8 13  1  0
M  END
