
     RDKit          3D

 21 20  0  0  0  0  0  0  0  0999 V2000
   -2.5763    2.6853   -0.1438 C   0  0  0  0  0  0  0  0  0  0  0  0
   -2.0466    1.6183   -0.3765 C   0  0  0  0  0  0  0  0  0  0  0  0
   -1.3865    0.3402   -0.6463 C   0  0  0  0  0  0  0  0  0  0  0  0
   -2.2075   -0.6984   -0.2382 O   0  0  0  0  0  0  0  0  0  0  0  0
   -0.0367    0.3046    0.0368 C   0  0  0  0  0  0  0  0  0  0  0  0
   -0.1932    0.4632    1.5309 C   0  0  0  0  0  0  0  0  0  0  0  0
    0.7183   -0.9358   -0.3070 C   0  0  0  0  0  0  0  0  0  0  0  0
    2.0515   -0.9391    0.3867 C   0  0  0  0  0  0  0  0  0  0  0  0
    2.7635   -2.1124    0.0603 O   0  0  0  0  0  0  0  0  0  0  0  0
   -3.0370    3.6199    0.0684 H   0  0  0  0  0  0  0  0  0  0  0  0
   -1.2141    0.2082   -1.7432 H   0  0  0  0  0  0  0  0  0  0  0  0
   -1.8193   -1.5311   -0.6296 H   0  0  0  0  0  0  0  0  0  0  0  0
    0.5380    1.1764   -0.3424 H   0  0  0  0  0  0  0  0  0  0  0  0
   -0.6651   -0.4325    1.9802 H   0  0  0  0  0  0  0  0  0  0  0  0
    0.7845    0.6273    2.0063 H   0  0  0  0  0  0  0  0  0  0  0  0
   -0.8420    1.3695    1.7079 H   0  0  0  0  0  0  0  0  0  0  0  0
    0.9153   -0.9605   -1.3972 H   0  0  0  0  0  0  0  0  0  0  0  0
    0.1197   -1.8042    0.0380 H   0  0  0  0  0  0  0  0  0  0  0  0
    1.9405   -0.9764    1.5010 H   0  0  0  0  0  0  0  0  0  0  0  0
    2.6667   -0.0821    0.0982 H   0  0  0  0  0  0  0  0  0  0  0  0
    3.5263   -1.9406   -0.5206 H   0  0  0  0  0  0  0  0  0  0  0  0
  1  2  3  0
  2  3  1  0
  3  4  1  0
  3  5  1  0
  5  6  1  0
  5  7  1  0
  7  8  1  0
  8  9  1  0
  1 10  1  0
  3 11  1  0
  4 12  1  0
  5 13  1  0
  6 14  1  0
  6 15  1  0
  6 16  1  0
  7 17  1  0
  7 18  1  0
  8 19  1  0
  8 20  1  0
  9 21  1  0
M  END
