
     RDKit          3D

 19 19  0  0  0  0  0  0  0  0999 V2000
    2.6311   -0.3137   -1.5751 C   0  0  0  0  0  0  0  0  0  0  0  0
    1.7591   -0.7618   -1.1500 C   0  0  0  0  0  0  0  0  0  0  0  0
    0.6113   -1.3779   -0.5938 C   0  0  0  0  0  0  0  0  0  0  0  0
    0.3947   -0.6669    0.8172 C   0  0  0  0  0  0  0  0  0  0  0  0
   -0.5449    0.1618    0.0156 C   0  0  0  0  0  0  0  0  0  0  0  0
   -0.0173    1.4880   -0.4954 C   0  0  0  0  0  0  0  0  0  0  0  0
   -1.8686    0.3771    0.7089 C   0  0  0  0  0  0  0  0  0  0  0  0
   -2.3912   -0.7792    1.2950 O   0  0  0  0  0  0  0  0  0  0  0  0
   -0.6080   -0.8234   -0.9396 O   0  0  0  0  0  0  0  0  0  0  0  0
    3.7486    0.2510   -2.1051 H   0  0  0  0  0  0  0  0  0  0  0  0
    0.7329   -2.4659   -0.3754 H   0  0  0  0  0  0  0  0  0  0  0  0
    1.3357   -0.1504    1.0884 H   0  0  0  0  0  0  0  0  0  0  0  0
    0.0085   -1.4206    1.4951 H   0  0  0  0  0  0  0  0  0  0  0  0
    1.0213    1.6211   -0.2237 H   0  0  0  0  0  0  0  0  0  0  0  0
   -0.5957    2.3541   -0.0361 H   0  0  0  0  0  0  0  0  0  0  0  0
   -0.1495    1.5362   -1.5963 H   0  0  0  0  0  0  0  0  0  0  0  0
   -2.6008    0.8501    0.0336 H   0  0  0  0  0  0  0  0  0  0  0  0
   -1.7063    1.0795    1.5523 H   0  0  0  0  0  0  0  0  0  0  0  0
   -1.7611   -0.9590    2.0846 H   0  0  0  0  0  0  0  0  0  0  0  0
  1  2  3  0
  2  3  1  0
  3  4  1  0
  4  5  1  0
  5  6  1  0
  5  7  1  0
  7  8  1  0
  5  9  1  0
  9  3  1  0
  1 10  1  0
  3 11  1  0
  4 12  1  0
  4 13  1  0
  6 14  1  0
  6 15  1  0
  6 16  1  0
  7 17  1  0
  7 18  1  0
  8 19  1  0
M  END
