
     RDKit          3D

 17 17  0  0  0  0  0  0  0  0999 V2000
    2.2085    2.3348   -0.4388 C   0  0  0  0  0  0  0  0  0  0  0  0
    1.5596    1.6973    0.4217 C   0  0  0  0  0  0  0  0  0  0  0  0
    0.8238    0.9389    1.4214 C   0  0  0  0  0  0  0  0  0  0  0  0
   -0.7104    1.1760    1.4081 C   0  0  0  0  0  0  0  0  0  0  0  0
   -0.0686   -0.1526    1.0705 C   0  0  0  0  0  0  0  0  0  0  0  0
   -0.2783   -0.6298   -0.3109 C   0  0  0  0  0  0  0  0  0  0  0  0
    0.0656    0.1627   -1.2675 O   0  0  0  0  0  0  0  0  0  0  0  0
   -0.8009   -1.8242   -0.6909 O   0  0  0  0  0  0  0  0  0  0  0  0
   -1.0090   -2.3048   -1.9900 C   0  0  0  0  0  0  0  0  0  0  0  0
    2.7413    2.8821   -1.1712 H   0  0  0  0  0  0  0  0  0  0  0  0
    1.3090    0.9361    2.4187 H   0  0  0  0  0  0  0  0  0  0  0  0
   -1.1370    1.3601    2.3982 H   0  0  0  0  0  0  0  0  0  0  0  0
   -1.1316    1.7719    0.5894 H   0  0  0  0  0  0  0  0  0  0  0  0
   -0.3163   -0.9116    1.8704 H   0  0  0  0  0  0  0  0  0  0  0  0
   -1.4678   -3.3329   -1.8758 H   0  0  0  0  0  0  0  0  0  0  0  0
   -0.0544   -2.3737   -2.5708 H   0  0  0  0  0  0  0  0  0  0  0  0
   -1.7334   -1.7302   -2.5968 H   0  0  0  0  0  0  0  0  0  0  0  0
  1  2  3  0
  2  3  1  0
  3  4  1  0
  4  5  1  0
  5  6  1  0
  6  7  2  0
  6  8  1  0
  8  9  1  0
  5  3  1  0
  1 10  1  0
  3 11  1  0
  4 12  1  0
  4 13  1  0
  5 14  1  0
  9 15  1  0
  9 16  1  0
  9 17  1  0
M  END
