
     RDKit          3D

 19 19  0  0  0  0  0  0  0  0999 V2000
    2.5236   -1.9011   -0.1196 C   0  0  0  0  0  0  0  0  0  0  0  0
    2.0864   -0.7666   -0.3983 C   0  0  0  0  0  0  0  0  0  0  0  0
    1.5641    0.5603   -0.7486 C   0  0  0  0  0  0  0  0  0  0  0  0
    0.1595    0.6336   -0.0818 C   0  0  0  0  0  0  0  0  0  0  0  0
   -0.3839    2.0039   -0.2143 C   0  0  0  0  0  0  0  0  0  0  0  0
   -1.4545    2.2471   -0.6434 O   0  0  0  0  0  0  0  0  0  0  0  0
   -0.0703   -0.1433    1.1315 C   0  0  0  0  0  0  0  0  0  0  0  0
   -0.6967   -0.5655   -0.2128 C   0  0  0  0  0  0  0  0  0  0  0  0
   -2.2134   -0.4682   -0.2087 C   0  0  0  0  0  0  0  0  0  0  0  0
    2.9010   -2.8777    0.1080 H   0  0  0  0  0  0  0  0  0  0  0  0
    2.1757    1.3662   -0.3171 H   0  0  0  0  0  0  0  0  0  0  0  0
    1.4676    0.6999   -1.8200 H   0  0  0  0  0  0  0  0  0  0  0  0
    0.2908    2.8026    0.1320 H   0  0  0  0  0  0  0  0  0  0  0  0
   -0.7943    0.1868    1.9243 H   0  0  0  0  0  0  0  0  0  0  0  0
    0.5783   -0.9661    1.4955 H   0  0  0  0  0  0  0  0  0  0  0  0
   -0.2969   -1.4331   -0.7161 H   0  0  0  0  0  0  0  0  0  0  0  0
   -2.6467   -1.4331   -0.5030 H   0  0  0  0  0  0  0  0  0  0  0  0
   -2.5888   -0.2582    0.8229 H   0  0  0  0  0  0  0  0  0  0  0  0
   -2.6013    0.3124   -0.8552 H   0  0  0  0  0  0  0  0  0  0  0  0
  1  2  3  0
  2  3  1  0
  3  4  1  0
  4  5  1  0
  5  6  2  0
  4  7  1  0
  7  8  1  0
  8  9  1  0
  8  4  1  0
  1 10  1  0
  3 11  1  0
  3 12  1  0
  5 13  1  0
  7 14  1  0
  7 15  1  0
  8 16  1  0
  9 17  1  0
  9 18  1  0
  9 19  1  0
M  END
