
     RDKit          3D

 16 16  0  0  0  0  0  0  0  0999 V2000
    2.8081    0.5205    0.5748 C   0  0  0  0  0  0  0  0  0  0  0  0
    1.8093   -0.0781    0.2596 C   0  0  0  0  0  0  0  0  0  0  0  0
    0.5701   -0.8003   -0.1165 C   0  0  0  0  0  0  0  0  0  0  0  0
    0.6483   -1.2631   -1.4259 O   0  0  0  0  0  0  0  0  0  0  0  0
   -0.5426    0.2133   -0.0553 C   0  0  0  0  0  0  0  0  0  0  0  0
   -0.9046    0.9337   -1.3494 C   0  0  0  0  0  0  0  0  0  0  0  0
   -1.7255   -0.1892    0.7990 C   0  0  0  0  0  0  0  0  0  0  0  0
   -0.8430    0.8417    1.1454 O   0  0  0  0  0  0  0  0  0  0  0  0
    3.6819    1.0427    0.8693 H   0  0  0  0  0  0  0  0  0  0  0  0
    0.4120   -1.5862    0.6274 H   0  0  0  0  0  0  0  0  0  0  0  0
    1.4617   -1.8573   -1.4843 H   0  0  0  0  0  0  0  0  0  0  0  0
   -0.6180    1.9938   -1.3254 H   0  0  0  0  0  0  0  0  0  0  0  0
   -0.3803    0.4118   -2.1706 H   0  0  0  0  0  0  0  0  0  0  0  0
   -1.9999    0.8610   -1.5584 H   0  0  0  0  0  0  0  0  0  0  0  0
   -1.6465   -1.0958    1.4370 H   0  0  0  0  0  0  0  0  0  0  0  0
   -2.7310    0.0515    0.4378 H   0  0  0  0  0  0  0  0  0  0  0  0
  1  2  3  0
  2  3  1  0
  3  4  1  0
  3  5  1  0
  5  6  1  0
  5  7  1  0
  7  8  1  0
  8  5  1  0
  1  9  1  0
  3 10  1  0
  4 11  1  0
  6 12  1  0
  6 13  1  0
  6 14  1  0
  7 15  1  0
  7 16  1  0
M  END
