
     RDKit          3D

 19 19  0  0  0  0  0  0  0  0999 V2000
   -2.7830   -0.7009   -2.1791 C   0  0  0  0  0  0  0  0  0  0  0  0
   -2.1663   -0.4724   -1.1559 C   0  0  0  0  0  0  0  0  0  0  0  0
   -1.4417   -0.1956    0.0956 C   0  0  0  0  0  0  0  0  0  0  0  0
   -1.4988    1.2837    0.4442 C   0  0  0  0  0  0  0  0  0  0  0  0
   -0.0028   -0.6477   -0.0549 C   0  0  0  0  0  0  0  0  0  0  0  0
    0.6583    0.0431   -1.1326 O   0  0  0  0  0  0  0  0  0  0  0  0
    1.0965    0.2703    0.2562 C   0  0  0  0  0  0  0  0  0  0  0  0
    2.4783   -0.3298    0.4178 C   0  0  0  0  0  0  0  0  0  0  0  0
    2.9664   -0.1634    1.6870 O   0  0  0  0  0  0  0  0  0  0  0  0
   -3.3251   -0.8880   -3.0662 H   0  0  0  0  0  0  0  0  0  0  0  0
   -1.9627   -0.7310    0.8880 H   0  0  0  0  0  0  0  0  0  0  0  0
   -0.8603    1.4173    1.3398 H   0  0  0  0  0  0  0  0  0  0  0  0
   -2.5626    1.5270    0.6382 H   0  0  0  0  0  0  0  0  0  0  0  0
   -1.0778    1.8586   -0.3861 H   0  0  0  0  0  0  0  0  0  0  0  0
    0.2086   -1.7291    0.0336 H   0  0  0  0  0  0  0  0  0  0  0  0
    0.9873    1.3298    0.4788 H   0  0  0  0  0  0  0  0  0  0  0  0
    2.4315   -1.4205    0.2115 H   0  0  0  0  0  0  0  0  0  0  0  0
    3.1441    0.1688   -0.3405 H   0  0  0  0  0  0  0  0  0  0  0  0
    3.7100   -0.8061    1.8246 H   0  0  0  0  0  0  0  0  0  0  0  0
  1  2  3  0
  2  3  1  0
  3  4  1  0
  3  5  1  0
  5  6  1  0
  6  7  1  0
  7  8  1  0
  8  9  1  0
  7  5  1  0
  1 10  1  0
  3 11  1  0
  4 12  1  0
  4 13  1  0
  4 14  1  0
  5 15  1  0
  7 16  1  0
  8 17  1  0
  8 18  1  0
  9 19  1  0
M  END
