
     RDKit          3D

 16 16  0  0  0  0  0  0  0  0999 V2000
    1.7530   -2.5266   -0.0671 C   0  0  0  0  0  0  0  0  0  0  0  0
    1.1512   -1.5103   -0.1207 C   0  0  0  0  0  0  0  0  0  0  0  0
    0.4044   -0.2795   -0.1764 C   0  0  0  0  0  0  0  0  0  0  0  0
   -1.0471   -0.4302   -0.4920 C   0  0  0  0  0  0  0  0  0  0  0  0
   -2.0294    0.6507   -0.1200 C   0  0  0  0  0  0  0  0  0  0  0  0
   -1.4342   -1.4037   -1.0385 O   0  0  0  0  0  0  0  0  0  0  0  0
    0.6246    0.6811    1.0040 C   0  0  0  0  0  0  0  0  0  0  0  0
    1.1031    1.0035   -0.4427 C   0  0  0  0  0  0  0  0  0  0  0  0
    2.3026   -3.4923   -0.0138 H   0  0  0  0  0  0  0  0  0  0  0  0
   -2.9187    0.5199   -0.7524 H   0  0  0  0  0  0  0  0  0  0  0  0
   -2.3146    0.5406    0.9537 H   0  0  0  0  0  0  0  0  0  0  0  0
   -1.5914    1.6605   -0.2623 H   0  0  0  0  0  0  0  0  0  0  0  0
   -0.2427    1.3027    1.3294 H   0  0  0  0  0  0  0  0  0  0  0  0
    1.4501    0.4737    1.7234 H   0  0  0  0  0  0  0  0  0  0  0  0
    2.2026    0.9403   -0.5927 H   0  0  0  0  0  0  0  0  0  0  0  0
    0.5865    1.8694   -0.9319 H   0  0  0  0  0  0  0  0  0  0  0  0
  1  2  3  0
  2  3  1  0
  3  4  1  0
  4  5  1  0
  4  6  2  0
  3  7  1  0
  7  8  1  0
  8  3  1  0
  1  9  1  0
  5 10  1  0
  5 11  1  0
  5 12  1  0
  7 13  1  0
  7 14  1  0
  8 15  1  0
  8 16  1  0
M  END
