
     RDKit          3D

 17 18  0  0  0  0  0  0  0  0999 V2000
   -3.4223   -0.8187   -0.7213 C   0  0  0  0  0  0  0  0  0  0  0  0
   -2.3900   -0.2727   -0.8762 C   0  0  0  0  0  0  0  0  0  0  0  0
   -0.8812    0.5058   -1.0789 C   0  0  0  0  0  0  0  0  0  0  0  0
   -0.8585    1.2439    0.1567 C   0  0  0  0  0  0  0  0  0  0  0  0
    0.6486    0.8998    0.0368 C   0  0  0  0  0  0  0  0  0  0  0  0
    1.0044   -0.3560    0.7459 C   0  0  0  0  0  0  0  0  0  0  0  0
    2.3392   -0.6045    0.5271 C   0  0  0  0  0  0  0  0  0  0  0  0
    3.6962   -0.8338    0.3143 C   0  0  0  0  0  0  0  0  0  0  0  0
    0.1539   -0.5367   -0.4944 C   0  0  0  0  0  0  0  0  0  0  0  0
   -4.2787   -1.2589   -0.5830 H   0  0  0  0  0  0  0  0  0  0  0  0
   -0.9179    0.5663   -2.0774 H   0  0  0  0  0  0  0  0  0  0  0  0
   -1.2269    2.1906    0.1942 H   0  0  0  0  0  0  0  0  0  0  0  0
   -1.2617    0.5378    1.0306 H   0  0  0  0  0  0  0  0  0  0  0  0
    1.2065    1.3788   -0.8279 H   0  0  0  0  0  0  0  0  0  0  0  0
    0.6768   -0.5028    1.7724 H   0  0  0  0  0  0  0  0  0  0  0  0
    4.8766   -1.0517    0.1200 H   0  0  0  0  0  0  0  0  0  0  0  0
    0.6351   -1.0870   -1.2814 H   0  0  0  0  0  0  0  0  0  0  0  0
  1  2  3  0
  2  3  1  0
  3  4  1  0
  4  5  1  0
  5  6  1  0
  6  7  1  0
  7  8  3  0
  6  9  1  0
  9  3  1  0
  9  5  1  0
  1 10  1  0
  3 11  1  0
  4 12  1  0
  4 13  1  0
  5 14  1  0
  6 15  1  0
  8 16  1  0
  9 17  1  0
M  END
