
     RDKit          3D

 21 21  0  0  0  0  0  0  0  0999 V2000
   -2.3638    2.0922    0.8600 C   0  0  0  0  0  0  0  0  0  0  0  0
   -1.6337    1.2472    0.3748 C   0  0  0  0  0  0  0  0  0  0  0  0
   -0.7556    0.2284   -0.2375 C   0  0  0  0  0  0  0  0  0  0  0  0
   -1.2347   -0.0656   -1.6445 C   0  0  0  0  0  0  0  0  0  0  0  0
    0.6475    0.7539   -0.2875 C   0  0  0  0  0  0  0  0  0  0  0  0
    1.7208   -0.2702   -0.3457 C   0  0  0  0  0  0  0  0  0  0  0  0
    1.4443   -1.3601    0.6615 C   0  0  0  0  0  0  0  0  0  0  0  0
    0.2014   -0.9743    1.4150 C   0  0  0  0  0  0  0  0  0  0  0  0
   -0.8490   -0.9649    0.4840 O   0  0  0  0  0  0  0  0  0  0  0  0
   -2.9917    2.8341    1.2993 H   0  0  0  0  0  0  0  0  0  0  0  0
   -2.3397    0.1604   -1.7046 H   0  0  0  0  0  0  0  0  0  0  0  0
   -0.6608    0.5185   -2.3992 H   0  0  0  0  0  0  0  0  0  0  0  0
   -1.0409   -1.1377   -1.8469 H   0  0  0  0  0  0  0  0  0  0  0  0
    0.7624    1.4939    0.5399 H   0  0  0  0  0  0  0  0  0  0  0  0
    0.7212    1.3781   -1.2259 H   0  0  0  0  0  0  0  0  0  0  0  0
    1.7734   -0.6543   -1.3837 H   0  0  0  0  0  0  0  0  0  0  0  0
    2.6924    0.2228   -0.0549 H   0  0  0  0  0  0  0  0  0  0  0  0
    2.3167   -1.5237    1.3376 H   0  0  0  0  0  0  0  0  0  0  0  0
    1.2526   -2.2983    0.0601 H   0  0  0  0  0  0  0  0  0  0  0  0
    0.3182    0.0130    1.8620 H   0  0  0  0  0  0  0  0  0  0  0  0
    0.0191   -1.6934    2.2364 H   0  0  0  0  0  0  0  0  0  0  0  0
  1  2  3  0
  2  3  1  0
  3  4  1  0
  3  5  1  0
  5  6  1  0
  6  7  1  0
  7  8  1  0
  8  9  1  0
  9  3  1  0
  1 10  1  0
  4 11  1  0
  4 12  1  0
  4 13  1  0
  5 14  1  0
  5 15  1  0
  6 16  1  0
  6 17  1  0
  7 18  1  0
  7 19  1  0
  8 20  1  0
  8 21  1  0
M  END
