
     RDKit          3D

 19 18  0  0  0  0  0  0  0  0999 V2000
   -0.0054    2.3591   -1.1542 C   0  0  0  0  0  0  0  0  0  0  0  0
   -0.3504    1.3105   -0.6452 C   0  0  0  0  0  0  0  0  0  0  0  0
   -0.7737    0.0658   -0.0290 C   0  0  0  0  0  0  0  0  0  0  0  0
   -2.0875   -0.3281   -0.7182 C   0  0  0  0  0  0  0  0  0  0  0  0
   -1.1028    0.3181    1.2995 O   0  0  0  0  0  0  0  0  0  0  0  0
    0.1681   -1.0514   -0.2165 C   0  0  0  0  0  0  0  0  0  0  0  0
    1.5201   -0.9173    0.2996 C   0  0  0  0  0  0  0  0  0  0  0  0
    2.1082    0.2048    1.0489 C   0  0  0  0  0  0  0  0  0  0  0  0
    2.2654   -1.8842    0.0713 O   0  0  0  0  0  0  0  0  0  0  0  0
    0.2845    3.2748   -1.6135 H   0  0  0  0  0  0  0  0  0  0  0  0
   -2.4392   -1.2591   -0.2304 H   0  0  0  0  0  0  0  0  0  0  0  0
   -2.8423    0.4756   -0.6000 H   0  0  0  0  0  0  0  0  0  0  0  0
   -1.8580   -0.5341   -1.7868 H   0  0  0  0  0  0  0  0  0  0  0  0
   -1.8412   -0.2378    1.6338 H   0  0  0  0  0  0  0  0  0  0  0  0
    0.2085   -1.2830   -1.3208 H   0  0  0  0  0  0  0  0  0  0  0  0
   -0.2833   -1.9749    0.2228 H   0  0  0  0  0  0  0  0  0  0  0  0
    1.6503    1.1775    0.8873 H   0  0  0  0  0  0  0  0  0  0  0  0
    2.1992   -0.0229    2.1478 H   0  0  0  0  0  0  0  0  0  0  0  0
    3.1795    0.3068    0.7036 H   0  0  0  0  0  0  0  0  0  0  0  0
  1  2  3  0
  2  3  1  0
  3  4  1  0
  3  5  1  0
  3  6  1  0
  6  7  1  0
  7  8  1  0
  7  9  2  0
  1 10  1  0
  4 11  1  0
  4 12  1  0
  4 13  1  0
  5 14  1  0
  6 15  1  0
  6 16  1  0
  8 17  1  0
  8 18  1  0
  8 19  1  0
M  END
