
     RDKit          3D

 21 21  0  0  0  0  0  0  0  0999 V2000
    3.6835    0.1278    0.1893 C   0  0  0  0  0  0  0  0  0  0  0  0
    2.5108    0.0837   -0.1458 C   0  0  0  0  0  0  0  0  0  0  0  0
    1.0985    0.0146   -0.5300 C   0  0  0  0  0  0  0  0  0  0  0  0
    0.3969   -1.0036    0.3368 C   0  0  0  0  0  0  0  0  0  0  0  0
   -0.9580   -1.3773   -0.1889 C   0  0  0  0  0  0  0  0  0  0  0  0
   -2.0400   -0.4121    0.2223 C   0  0  0  0  0  0  0  0  0  0  0  0
   -1.7078    1.0029   -0.2436 C   0  0  0  0  0  0  0  0  0  0  0  0
   -0.5936    1.4333    0.4489 O   0  0  0  0  0  0  0  0  0  0  0  0
    0.5007    1.3903   -0.4080 C   0  0  0  0  0  0  0  0  0  0  0  0
    4.6822    0.1603    0.4916 H   0  0  0  0  0  0  0  0  0  0  0  0
    1.0525   -0.3399   -1.5907 H   0  0  0  0  0  0  0  0  0  0  0  0
    0.3572   -0.6210    1.3755 H   0  0  0  0  0  0  0  0  0  0  0  0
    1.0193   -1.9290    0.3280 H   0  0  0  0  0  0  0  0  0  0  0  0
   -0.8923   -1.4516   -1.2836 H   0  0  0  0  0  0  0  0  0  0  0  0
   -1.2213   -2.3672    0.2008 H   0  0  0  0  0  0  0  0  0  0  0  0
   -2.9566   -0.7052   -0.3624 H   0  0  0  0  0  0  0  0  0  0  0  0
   -2.2291   -0.4617    1.2937 H   0  0  0  0  0  0  0  0  0  0  0  0
   -1.5148    0.9504   -1.3400 H   0  0  0  0  0  0  0  0  0  0  0  0
   -2.5943    1.6451   -0.0626 H   0  0  0  0  0  0  0  0  0  0  0  0
    1.2446    2.1289   -0.0273 H   0  0  0  0  0  0  0  0  0  0  0  0
    0.1614    1.7312   -1.4125 H   0  0  0  0  0  0  0  0  0  0  0  0
  1  2  3  0
  2  3  1  0
  3  4  1  0
  4  5  1  0
  5  6  1  0
  6  7  1  0
  7  8  1  0
  8  9  1  0
  9  3  1  0
  1 10  1  0
  3 11  1  0
  4 12  1  0
  4 13  1  0
  5 14  1  0
  5 15  1  0
  6 16  1  0
  6 17  1  0
  7 18  1  0
  7 19  1  0
  9 20  1  0
  9 21  1  0
M  END
