
     RDKit          3D

 15 15  0  0  0  0  0  0  0  0999 V2000
   -1.5391   -2.5632   -0.1311 C   0  0  0  0  0  0  0  0  0  0  0  0
   -1.2901   -1.4378   -0.4865 C   0  0  0  0  0  0  0  0  0  0  0  0
   -0.9965   -0.0467   -0.9019 C   0  0  0  0  0  0  0  0  0  0  0  0
    0.2654    0.1017   -1.4772 O   0  0  0  0  0  0  0  0  0  0  0  0
    0.7939    0.0261   -0.1881 C   0  0  0  0  0  0  0  0  0  0  0  0
    1.9944    0.8417    0.0232 C   0  0  0  0  0  0  0  0  0  0  0  0
    2.9754    1.4975    0.1770 C   0  0  0  0  0  0  0  0  0  0  0  0
   -0.4596    0.7076    0.2981 C   0  0  0  0  0  0  0  0  0  0  0  0
   -0.9682    0.2268    1.4964 O   0  0  0  0  0  0  0  0  0  0  0  0
   -1.7505   -3.5677    0.1693 H   0  0  0  0  0  0  0  0  0  0  0  0
   -1.8173    0.4486   -1.4420 H   0  0  0  0  0  0  0  0  0  0  0  0
    0.9097   -1.0371    0.1025 H   0  0  0  0  0  0  0  0  0  0  0  0
    3.8456    2.0961    0.3022 H   0  0  0  0  0  0  0  0  0  0  0  0
   -0.3912    1.7910    0.1849 H   0  0  0  0  0  0  0  0  0  0  0  0
   -1.5719    0.9155    1.8732 H   0  0  0  0  0  0  0  0  0  0  0  0
  1  2  3  0
  2  3  1  0
  3  4  1  0
  4  5  1  0
  5  6  1  0
  6  7  3  0
  5  8  1  0
  8  9  1  0
  8  3  1  0
  1 10  1  0
  3 11  1  0
  5 12  1  0
  7 13  1  0
  8 14  1  0
  9 15  1  0
M  END
