
     RDKit          3D

 21 21  0  0  0  0  0  0  0  0999 V2000
   -0.6395    2.3843   -1.4229 C   0  0  0  0  0  0  0  0  0  0  0  0
   -0.1016    1.5067   -0.8120 C   0  0  0  0  0  0  0  0  0  0  0  0
    0.5768    0.4461   -0.0638 C   0  0  0  0  0  0  0  0  0  0  0  0
   -0.3018    0.0553    1.0935 C   0  0  0  0  0  0  0  0  0  0  0  0
   -1.2047    1.1380    1.5666 C   0  0  0  0  0  0  0  0  0  0  0  0
   -1.1124   -1.0641    0.5264 C   0  0  0  0  0  0  0  0  0  0  0  0
   -0.3339   -1.6759   -0.4196 O   0  0  0  0  0  0  0  0  0  0  0  0
    0.6617   -0.8399   -0.8391 C   0  0  0  0  0  0  0  0  0  0  0  0
    2.0038   -1.5072   -0.5205 C   0  0  0  0  0  0  0  0  0  0  0  0
   -1.0996    3.1667   -1.9701 H   0  0  0  0  0  0  0  0  0  0  0  0
    1.5715    0.7485    0.3067 H   0  0  0  0  0  0  0  0  0  0  0  0
    0.3209   -0.3217    1.9262 H   0  0  0  0  0  0  0  0  0  0  0  0
   -0.8926    2.1571    1.3113 H   0  0  0  0  0  0  0  0  0  0  0  0
   -1.2966    1.0572    2.6765 H   0  0  0  0  0  0  0  0  0  0  0  0
   -2.2334    0.9923    1.1757 H   0  0  0  0  0  0  0  0  0  0  0  0
   -2.0824   -0.6703    0.1250 H   0  0  0  0  0  0  0  0  0  0  0  0
   -1.3050   -1.7863    1.3528 H   0  0  0  0  0  0  0  0  0  0  0  0
    0.6193   -0.7026   -1.9274 H   0  0  0  0  0  0  0  0  0  0  0  0
    2.1840   -2.3636   -1.2043 H   0  0  0  0  0  0  0  0  0  0  0  0
    2.8064   -0.7656   -0.5073 H   0  0  0  0  0  0  0  0  0  0  0  0
    1.8592   -1.9550    0.5043 H   0  0  0  0  0  0  0  0  0  0  0  0
  1  2  3  0
  2  3  1  0
  3  4  1  0
  4  5  1  0
  4  6  1  0
  6  7  1  0
  7  8  1  0
  8  9  1  0
  8  3  1  0
  1 10  1  0
  3 11  1  0
  4 12  1  0
  5 13  1  0
  5 14  1  0
  5 15  1  0
  6 16  1  0
  6 17  1  0
  8 18  1  0
  9 19  1  0
  9 20  1  0
  9 21  1  0
M  END
