
     RDKit          3D

 17 18  0  0  0  0  0  0  0  0999 V2000
    3.3090    0.8189   -0.3674 C   0  0  0  0  0  0  0  0  0  0  0  0
    2.2127    0.3573   -0.1673 C   0  0  0  0  0  0  0  0  0  0  0  0
    0.8986   -0.2236    0.0755 C   0  0  0  0  0  0  0  0  0  0  0  0
    0.0768   -0.5396   -1.1252 C   0  0  0  0  0  0  0  0  0  0  0  0
   -1.2285   -1.0323   -0.5308 C   0  0  0  0  0  0  0  0  0  0  0  0
   -1.4618    0.1645    0.4169 C   0  0  0  0  0  0  0  0  0  0  0  0
   -1.5970   -0.2546    1.7175 O   0  0  0  0  0  0  0  0  0  0  0  0
   -0.1494    0.8617    0.1494 C   0  0  0  0  0  0  0  0  0  0  0  0
   -0.1281    0.8534   -1.2607 O   0  0  0  0  0  0  0  0  0  0  0  0
    4.2889    1.2241   -0.5603 H   0  0  0  0  0  0  0  0  0  0  0  0
    0.8675   -0.9607    0.9029 H   0  0  0  0  0  0  0  0  0  0  0  0
    0.4918   -1.0586   -1.9548 H   0  0  0  0  0  0  0  0  0  0  0  0
   -2.0078   -1.0968   -1.2918 H   0  0  0  0  0  0  0  0  0  0  0  0
   -1.0708   -1.9437    0.0498 H   0  0  0  0  0  0  0  0  0  0  0  0
   -2.2844    0.7653    0.0264 H   0  0  0  0  0  0  0  0  0  0  0  0
   -2.2917    0.2909    2.1660 H   0  0  0  0  0  0  0  0  0  0  0  0
    0.0741    1.7741    0.6474 H   0  0  0  0  0  0  0  0  0  0  0  0
  1  2  3  0
  2  3  1  0
  3  4  1  0
  4  5  1  0
  5  6  1  0
  6  7  1  0
  6  8  1  0
  8  9  1  0
  8  3  1  0
  9  4  1  0
  1 10  1  0
  3 11  1  0
  4 12  1  0
  5 13  1  0
  5 14  1  0
  6 15  1  0
  7 16  1  0
  8 17  1  0
M  END
