
     RDKit          3D

 16 16  0  0  0  0  0  0  0  0999 V2000
    2.6254    0.1273   -1.0431 C   0  0  0  0  0  0  0  0  0  0  0  0
    1.5819    0.2533   -0.4385 C   0  0  0  0  0  0  0  0  0  0  0  0
    0.3173    0.3805    0.2891 C   0  0  0  0  0  0  0  0  0  0  0  0
    0.2893    1.5242    1.0820 O   0  0  0  0  0  0  0  0  0  0  0  0
   -0.8176    0.3707   -0.7144 C   0  0  0  0  0  0  0  0  0  0  0  0
   -1.7661   -0.6110   -0.1340 C   0  0  0  0  0  0  0  0  0  0  0  0
   -1.1726   -1.3039    0.8792 O   0  0  0  0  0  0  0  0  0  0  0  0
    0.0997   -0.8518    1.0949 C   0  0  0  0  0  0  0  0  0  0  0  0
    3.5428    0.0349   -1.5714 H   0  0  0  0  0  0  0  0  0  0  0  0
    0.7196    2.2872    0.6551 H   0  0  0  0  0  0  0  0  0  0  0  0
   -1.2091    1.3890   -0.8477 H   0  0  0  0  0  0  0  0  0  0  0  0
   -0.4623    0.0220   -1.7283 H   0  0  0  0  0  0  0  0  0  0  0  0
   -2.1455   -1.3362   -0.8887 H   0  0  0  0  0  0  0  0  0  0  0  0
   -2.6667   -0.0685    0.2335 H   0  0  0  0  0  0  0  0  0  0  0  0
    0.1783   -0.5902    2.1914 H   0  0  0  0  0  0  0  0  0  0  0  0
    0.8857   -1.6276    0.9407 H   0  0  0  0  0  0  0  0  0  0  0  0
  1  2  3  0
  2  3  1  0
  3  4  1  0
  3  5  1  0
  5  6  1  0
  6  7  1  0
  7  8  1  0
  8  3  1  0
  1  9  1  0
  4 10  1  0
  5 11  1  0
  5 12  1  0
  6 13  1  0
  6 14  1  0
  8 15  1  0
  8 16  1  0
M  END
