
     RDKit          3D

 19 18  0  0  0  0  0  0  0  0999 V2000
    4.8454    0.8857    0.4925 C   0  0  0  0  0  0  0  0  0  0  0  0
    3.7043    0.4852    0.5118 C   0  0  0  0  0  0  0  0  0  0  0  0
    2.3271    0.0115    0.5569 C   0  0  0  0  0  0  0  0  0  0  0  0
    1.6934    0.0640    1.6308 O   0  0  0  0  0  0  0  0  0  0  0  0
    1.6910   -0.4956   -0.5453 O   0  0  0  0  0  0  0  0  0  0  0  0
    0.3613   -0.9748   -0.5911 C   0  0  0  0  0  0  0  0  0  0  0  0
   -0.6493    0.0738   -0.2258 C   0  0  0  0  0  0  0  0  0  0  0  0
   -2.0334   -0.5206   -0.3013 C   0  0  0  0  0  0  0  0  0  0  0  0
   -3.0240    0.5600    0.0737 C   0  0  0  0  0  0  0  0  0  0  0  0
    5.8440    1.2386    0.4572 H   0  0  0  0  0  0  0  0  0  0  0  0
    0.2184   -1.8425    0.1115 H   0  0  0  0  0  0  0  0  0  0  0  0
    0.2125   -1.3810   -1.6114 H   0  0  0  0  0  0  0  0  0  0  0  0
   -0.5744    0.8958   -0.9668 H   0  0  0  0  0  0  0  0  0  0  0  0
   -0.4251    0.5024    0.7673 H   0  0  0  0  0  0  0  0  0  0  0  0
   -2.1574   -1.3554    0.4112 H   0  0  0  0  0  0  0  0  0  0  0  0
   -2.2943   -0.8842   -1.2937 H   0  0  0  0  0  0  0  0  0  0  0  0
   -3.1831    0.5031    1.1547 H   0  0  0  0  0  0  0  0  0  0  0  0
   -3.9813    0.3973   -0.4534 H   0  0  0  0  0  0  0  0  0  0  0  0
   -2.5752    1.5386   -0.1790 H   0  0  0  0  0  0  0  0  0  0  0  0
  1  2  3  0
  2  3  1  0
  3  4  2  0
  3  5  1  0
  5  6  1  0
  6  7  1  0
  7  8  1  0
  8  9  1  0
  1 10  1  0
  6 11  1  0
  6 12  1  0
  7 13  1  0
  7 14  1  0
  8 15  1  0
  8 16  1  0
  9 17  1  0
  9 18  1  0
  9 19  1  0
M  END
