
     RDKit          3D

 17 17  0  0  0  0  0  0  0  0999 V2000
    3.5775    0.5590    0.9454 C   0  0  0  0  0  0  0  0  0  0  0  0
    2.5871    0.9038    0.3829 C   0  0  0  0  0  0  0  0  0  0  0  0
    1.3883    1.3314   -0.3210 C   0  0  0  0  0  0  0  0  0  0  0  0
    0.4009    0.1911   -0.3331 C   0  0  0  0  0  0  0  0  0  0  0  0
   -0.8191    0.6847   -1.0717 O   0  0  0  0  0  0  0  0  0  0  0  0
   -0.8083    0.2905    0.3569 C   0  0  0  0  0  0  0  0  0  0  0  0
   -1.7864   -0.8139    0.5819 C   0  0  0  0  0  0  0  0  0  0  0  0
   -2.2620   -1.3376   -0.7196 C   0  0  0  0  0  0  0  0  0  0  0  0
   -3.0736   -2.2513   -0.7906 O   0  0  0  0  0  0  0  0  0  0  0  0
    4.4701    0.2432    1.4633 H   0  0  0  0  0  0  0  0  0  0  0  0
    1.6840    1.5258   -1.3934 H   0  0  0  0  0  0  0  0  0  0  0  0
    0.9475    2.2512    0.0639 H   0  0  0  0  0  0  0  0  0  0  0  0
    0.7233   -0.7289   -0.8490 H   0  0  0  0  0  0  0  0  0  0  0  0
   -1.0312    1.2130    0.9703 H   0  0  0  0  0  0  0  0  0  0  0  0
   -2.7010   -0.4559    1.1465 H   0  0  0  0  0  0  0  0  0  0  0  0
   -1.3909   -1.6207    1.2410 H   0  0  0  0  0  0  0  0  0  0  0  0
   -1.9063   -0.9281   -1.6738 H   0  0  0  0  0  0  0  0  0  0  0  0
  1  2  3  0
  2  3  1  0
  3  4  1  0
  4  5  1  0
  5  6  1  0
  6  7  1  0
  7  8  1  0
  8  9  2  0
  6  4  1  0
  1 10  1  0
  3 11  1  0
  3 12  1  0
  4 13  1  0
  6 14  1  0
  7 15  1  0
  7 16  1  0
  8 17  1  0
M  END
