
     RDKit          3D

 18 18  0  0  0  0  0  0  0  0999 V2000
    3.1575   -0.3612    1.2663 C   0  0  0  0  0  0  0  0  0  0  0  0
    2.1407   -0.2443    0.6242 C   0  0  0  0  0  0  0  0  0  0  0  0
    0.8826   -0.1149   -0.1449 C   0  0  0  0  0  0  0  0  0  0  0  0
   -0.1239   -1.1942    0.1700 C   0  0  0  0  0  0  0  0  0  0  0  0
   -1.1800   -0.1118    0.2899 C   0  0  0  0  0  0  0  0  0  0  0  0
   -1.9896   -0.0131   -0.9627 C   0  0  0  0  0  0  0  0  0  0  0  0
   -0.0815    0.8825    0.4617 C   0  0  0  0  0  0  0  0  0  0  0  0
   -0.2095    2.0713   -0.2242 O   0  0  0  0  0  0  0  0  0  0  0  0
    4.0414   -0.4744    1.8409 H   0  0  0  0  0  0  0  0  0  0  0  0
    1.0761    0.0119   -1.2257 H   0  0  0  0  0  0  0  0  0  0  0  0
   -0.3379   -1.8999   -0.6498 H   0  0  0  0  0  0  0  0  0  0  0  0
    0.1437   -1.6625    1.1511 H   0  0  0  0  0  0  0  0  0  0  0  0
   -1.8382   -0.2640    1.1735 H   0  0  0  0  0  0  0  0  0  0  0  0
   -2.6367    0.8842   -0.9515 H   0  0  0  0  0  0  0  0  0  0  0  0
   -2.6015   -0.9425   -1.0557 H   0  0  0  0  0  0  0  0  0  0  0  0
   -1.3199   -0.0045   -1.8623 H   0  0  0  0  0  0  0  0  0  0  0  0
    0.1628    1.0530    1.5296 H   0  0  0  0  0  0  0  0  0  0  0  0
    0.7139    2.3844   -0.4698 H   0  0  0  0  0  0  0  0  0  0  0  0
  1  2  3  0
  2  3  1  0
  3  4  1  0
  4  5  1  0
  5  6  1  0
  5  7  1  0
  7  8  1  0
  7  3  1  0
  1  9  1  0
  3 10  1  0
  4 11  1  0
  4 12  1  0
  5 13  1  0
  6 14  1  0
  6 15  1  0
  6 16  1  0
  7 17  1  0
  8 18  1  0
M  END
