
     RDKit          3D

 19 20  0  0  0  0  0  0  0  0999 V2000
    2.5148   -0.8242   -1.5265 C   0  0  0  0  0  0  0  0  0  0  0  0
    1.6432   -0.4903   -0.7939 C   0  0  0  0  0  0  0  0  0  0  0  0
    0.5683   -0.0977    0.0834 C   0  0  0  0  0  0  0  0  0  0  0  0
    0.3410    1.3870    0.2017 C   0  0  0  0  0  0  0  0  0  0  0  0
   -0.8010    1.2705   -0.7797 C   0  0  0  0  0  0  0  0  0  0  0  0
   -0.8045   -0.2142   -0.5305 C   0  0  0  0  0  0  0  0  0  0  0  0
   -1.6531   -0.7089    0.5807 C   0  0  0  0  0  0  0  0  0  0  0  0
   -0.8932   -0.9403    1.6848 O   0  0  0  0  0  0  0  0  0  0  0  0
    0.4340   -0.8051    1.3808 C   0  0  0  0  0  0  0  0  0  0  0  0
    3.2894   -1.1266   -2.2021 H   0  0  0  0  0  0  0  0  0  0  0  0
    1.1659    2.0409   -0.0856 H   0  0  0  0  0  0  0  0  0  0  0  0
   -0.0629    1.6896    1.1966 H   0  0  0  0  0  0  0  0  0  0  0  0
   -0.4620    1.5354   -1.8005 H   0  0  0  0  0  0  0  0  0  0  0  0
   -1.7282    1.7817   -0.4872 H   0  0  0  0  0  0  0  0  0  0  0  0
   -0.8172   -0.7775   -1.4807 H   0  0  0  0  0  0  0  0  0  0  0  0
   -2.5317   -0.0369    0.7746 H   0  0  0  0  0  0  0  0  0  0  0  0
   -2.1059   -1.6800    0.2600 H   0  0  0  0  0  0  0  0  0  0  0  0
    0.9282   -0.2256    2.1892 H   0  0  0  0  0  0  0  0  0  0  0  0
    0.9749   -1.7778    1.3348 H   0  0  0  0  0  0  0  0  0  0  0  0
  1  2  3  0
  2  3  1  0
  3  4  1  0
  4  5  1  0
  5  6  1  0
  6  7  1  0
  7  8  1  0
  8  9  1  0
  6  3  1  0
  9  3  1  0
  1 10  1  0
  4 11  1  0
  4 12  1  0
  5 13  1  0
  5 14  1  0
  6 15  1  0
  7 16  1  0
  7 17  1  0
  9 18  1  0
  9 19  1  0
M  END
