
     RDKit          3D

 23 23  0  0  0  0  0  0  0  0999 V2000
    2.7095    2.4016   -0.1679 C   0  0  0  0  0  0  0  0  0  0  0  0
    1.9763    1.4389    0.5203 C   0  0  0  0  0  0  0  0  0  0  0  0
    1.2746    0.4902    1.1725 C   0  0  0  0  0  0  0  0  0  0  0  0
   -0.1694    0.3823    0.7951 C   0  0  0  0  0  0  0  0  0  0  0  0
   -0.7513   -0.7637    1.5878 C   0  0  0  0  0  0  0  0  0  0  0  0
   -0.9394   -1.5368    0.3163 C   0  0  0  0  0  0  0  0  0  0  0  0
   -0.5223   -0.3247   -0.4599 C   0  0  0  0  0  0  0  0  0  0  0  0
    0.5041   -0.5043   -1.5236 C   0  0  0  0  0  0  0  0  0  0  0  0
   -1.7879    0.3055   -1.0882 C   0  0  0  0  0  0  0  0  0  0  0  0
    3.2489    3.1000   -0.6853 H   0  0  0  0  0  0  0  0  0  0  0  0
    1.4537    0.4995    2.2892 H   0  0  0  0  0  0  0  0  0  0  0  0
    1.7737   -0.5552    0.9229 H   0  0  0  0  0  0  0  0  0  0  0  0
   -0.7182    1.3625    0.9468 H   0  0  0  0  0  0  0  0  0  0  0  0
   -1.6944   -0.4581    2.0864 H   0  0  0  0  0  0  0  0  0  0  0  0
   -0.0018   -1.2193    2.2914 H   0  0  0  0  0  0  0  0  0  0  0  0
   -0.2095   -2.3925    0.1824 H   0  0  0  0  0  0  0  0  0  0  0  0
   -1.9762   -1.8951    0.1234 H   0  0  0  0  0  0  0  0  0  0  0  0
    0.9648    0.5085   -1.7167 H   0  0  0  0  0  0  0  0  0  0  0  0
   -0.0828   -0.7180   -2.4809 H   0  0  0  0  0  0  0  0  0  0  0  0
    1.2225   -1.3085   -1.4336 H   0  0  0  0  0  0  0  0  0  0  0  0
   -2.5481    0.4509   -0.2998 H   0  0  0  0  0  0  0  0  0  0  0  0
   -1.5396    1.2310   -1.6139 H   0  0  0  0  0  0  0  0  0  0  0  0
   -2.1874   -0.4945   -1.7645 H   0  0  0  0  0  0  0  0  0  0  0  0
  1  2  3  0
  2  3  1  0
  3  4  1  0
  4  5  1  0
  5  6  1  0
  6  7  1  0
  7  8  1  0
  7  9  1  0
  7  4  1  0
  1 10  1  0
  3 11  1  0
  3 12  1  0
  4 13  1  0
  5 14  1  0
  5 15  1  0
  6 16  1  0
  6 17  1  0
  8 18  1  0
  8 19  1  0
  8 20  1  0
  9 21  1  0
  9 22  1  0
  9 23  1  0
M  END
