
     RDKit          3D

 17 17  0  0  0  0  0  0  0  0999 V2000
   -2.1611   -2.0020   -1.1364 C   0  0  0  0  0  0  0  0  0  0  0  0
   -1.8184   -1.2607   -0.6043 C   0  0  0  0  0  0  0  0  0  0  0  0
   -1.2468   -0.0792    0.2636 C   0  0  0  0  0  0  0  0  0  0  0  0
   -1.2457    1.2355   -0.3355 C   0  0  0  0  0  0  0  0  0  0  0  0
   -0.2568    1.4213   -1.4241 O   0  0  0  0  0  0  0  0  0  0  0  0
   -0.3018    2.0995   -0.0392 C   0  0  0  0  0  0  0  0  0  0  0  0
    1.0423    0.9259    0.5433 C   0  0  0  0  0  0  0  0  0  0  0  0
    1.6223    0.4318    0.7882 C   0  0  0  0  0  0  0  0  0  0  0  0
    3.0472   -0.7645    1.3843 C   0  0  0  0  0  0  0  0  0  0  0  0
   -2.5975   -2.9286   -1.8118 H   0  0  0  0  0  0  0  0  0  0  0  0
   -2.3045   -0.0728    0.9897 H   0  0  0  0  0  0  0  0  0  0  0  0
   -0.5155   -0.4129    0.9730 H   0  0  0  0  0  0  0  0  0  0  0  0
   -2.2410    1.2697   -0.9458 H   0  0  0  0  0  0  0  0  0  0  0  0
    0.3301    2.9822   -0.1123 H   0  0  0  0  0  0  0  0  0  0  0  0
    2.4214   -1.6523    0.6935 H   0  0  0  0  0  0  0  0  0  0  0  0
    2.6001   -0.7661    2.2194 H   0  0  0  0  0  0  0  0  0  0  0  0
    3.6257   -0.4267    0.5026 H   0  0  0  0  0  0  0  0  0  0  0  0
  1  2  3  0
  2  3  1  0
  3  4  1  0
  4  5  1  0
  5  6  1  0
  6  7  1  0
  7  8  3  0
  8  9  1  0
  6  4  1  0
  1 10  1  0
  3 11  1  0
  3 12  1  0
  4 13  1  0
  6 14  1  0
  9 15  1  0
  9 16  1  0
  9 17  1  0
M  END
