
     RDKit          3D

 21 21  0  0  0  0  0  0  0  0999 V2000
    3.1466    1.8943    1.3466 C   0  0  0  0  0  0  0  0  0  0  0  0
    2.3336    0.8940    0.3157 C   0  0  0  0  0  0  0  0  0  0  0  0
    1.7673    0.2177   -0.4066 C   0  0  0  0  0  0  0  0  0  0  0  0
    0.4678   -0.5284   -0.0827 C   0  0  0  0  0  0  0  0  0  0  0  0
    0.2462   -1.7092   -1.0321 C   0  0  0  0  0  0  0  0  0  0  0  0
   -0.5688   -1.0793   -1.8474 O   0  0  0  0  0  0  0  0  0  0  0  0
   -0.7153   -0.0278   -0.8907 C   0  0  0  0  0  0  0  0  0  0  0  0
   -2.0867    0.0075   -0.3460 C   0  0  0  0  0  0  0  0  0  0  0  0
   -2.1661    0.9288    0.9018 C   0  0  0  0  0  0  0  0  0  0  0  0
    3.7320    2.6284    2.1057 H   0  0  0  0  0  0  0  0  0  0  0  0
    2.5665   -0.6289   -0.8331 H   0  0  0  0  0  0  0  0  0  0  0  0
    2.3114   -0.9221    0.7215 H   0  0  0  0  0  0  0  0  0  0  0  0
    0.1985   -0.8323    0.9670 H   0  0  0  0  0  0  0  0  0  0  0  0
    1.3007   -2.1312   -1.3708 H   0  0  0  0  0  0  0  0  0  0  0  0
   -0.1971   -2.6385   -0.4720 H   0  0  0  0  0  0  0  0  0  0  0  0
   -0.4434    0.9818   -1.3714 H   0  0  0  0  0  0  0  0  0  0  0  0
   -2.7834    0.4142   -1.1560 H   0  0  0  0  0  0  0  0  0  0  0  0
   -2.5526   -0.9894   -0.1274 H   0  0  0  0  0  0  0  0  0  0  0  0
   -1.3145    0.7995    1.5945 H   0  0  0  0  0  0  0  0  0  0  0  0
   -2.1025    1.9929    0.5230 H   0  0  0  0  0  0  0  0  0  0  0  0
   -3.1403    0.7281    1.4605 H   0  0  0  0  0  0  0  0  0  0  0  0
  1  2  3  0
  2  3  1  0
  3  4  1  0
  4  5  1  0
  5  6  1  0
  6  7  1  0
  7  8  1  0
  8  9  1  0
  7  4  1  0
  1 10  1  0
  3 11  1  0
  3 12  1  0
  4 13  1  0
  5 14  1  0
  5 15  1  0
  7 16  1  0
  8 17  1  0
  8 18  1  0
  9 19  1  0
  9 20  1  0
  9 21  1  0
M  END
