
     RDKit          3D

 19 19  0  0  0  0  0  0  0  0999 V2000
    1.5079    2.0617    1.5593 C   0  0  0  0  0  0  0  0  0  0  0  0
    0.9631    1.0053    1.3376 C   0  0  0  0  0  0  0  0  0  0  0  0
    0.3074   -0.2826    1.0717 C   0  0  0  0  0  0  0  0  0  0  0  0
   -0.8605   -0.4621    1.9586 C   0  0  0  0  0  0  0  0  0  0  0  0
   -1.3296    0.4983    2.5370 O   0  0  0  0  0  0  0  0  0  0  0  0
   -0.0617   -0.3405   -0.3908 C   0  0  0  0  0  0  0  0  0  0  0  0
   -0.7512   -1.6168   -0.8259 C   0  0  0  0  0  0  0  0  0  0  0  0
    0.8612    0.3172   -1.3961 C   0  0  0  0  0  0  0  0  0  0  0  0
   -0.4890    0.8881   -1.1094 C   0  0  0  0  0  0  0  0  0  0  0  0
    1.9717    2.9967    1.7579 H   0  0  0  0  0  0  0  0  0  0  0  0
    1.0531   -1.1076    1.2508 H   0  0  0  0  0  0  0  0  0  0  0  0
   -1.3244   -1.4241    2.1192 H   0  0  0  0  0  0  0  0  0  0  0  0
    0.0181   -2.4005   -1.0151 H   0  0  0  0  0  0  0  0  0  0  0  0
   -1.3846   -1.4500   -1.7190 H   0  0  0  0  0  0  0  0  0  0  0  0
   -1.3921   -1.9395    0.0458 H   0  0  0  0  0  0  0  0  0  0  0  0
    0.9674   -0.1453   -2.4107 H   0  0  0  0  0  0  0  0  0  0  0  0
    1.7656    0.7805   -0.9838 H   0  0  0  0  0  0  0  0  0  0  0  0
   -0.5299    1.8230   -0.5488 H   0  0  0  0  0  0  0  0  0  0  0  0
   -1.2924    0.7983   -1.8745 H   0  0  0  0  0  0  0  0  0  0  0  0
  1  2  3  0
  2  3  1  0
  3  4  1  0
  4  5  2  0
  3  6  1  0
  6  7  1  0
  6  8  1  0
  8  9  1  0
  9  6  1  0
  1 10  1  0
  3 11  1  0
  4 12  1  0
  7 13  1  0
  7 14  1  0
  7 15  1  0
  8 16  1  0
  8 17  1  0
  9 18  1  0
  9 19  1  0
M  END
