
     RDKit          3D

 16 15  0  0  0  0  0  0  0  0999 V2000
    1.2181    2.2354    0.3558 C   0  0  0  0  0  0  0  0  0  0  0  0
    0.4686    1.2611    0.2715 C   0  0  0  0  0  0  0  0  0  0  0  0
   -0.4164    0.0835    0.1813 C   0  0  0  0  0  0  0  0  0  0  0  0
   -1.5401    0.3314   -0.7982 C   0  0  0  0  0  0  0  0  0  0  0  0
   -0.8683   -0.2916    1.4341 O   0  0  0  0  0  0  0  0  0  0  0  0
    0.4350   -1.0523   -0.3937 C   0  0  0  0  0  0  0  0  0  0  0  0
    1.5842   -1.2896    0.5161 C   0  0  0  0  0  0  0  0  0  0  0  0
    2.3140   -0.3283    0.7972 O   0  0  0  0  0  0  0  0  0  0  0  0
    1.8586    3.0689    0.4135 H   0  0  0  0  0  0  0  0  0  0  0  0
   -1.1186    0.3883   -1.8368 H   0  0  0  0  0  0  0  0  0  0  0  0
   -2.0380    1.3202   -0.6533 H   0  0  0  0  0  0  0  0  0  0  0  0
   -2.2896   -0.4745   -0.7976 H   0  0  0  0  0  0  0  0  0  0  0  0
   -1.8828   -0.2717    1.4937 H   0  0  0  0  0  0  0  0  0  0  0  0
    0.7421   -0.7371   -1.4150 H   0  0  0  0  0  0  0  0  0  0  0  0
   -0.2215   -1.9548   -0.4777 H   0  0  0  0  0  0  0  0  0  0  0  0
    1.7547   -2.2889    0.9091 H   0  0  0  0  0  0  0  0  0  0  0  0
  1  2  3  0
  2  3  1  0
  3  4  1  0
  3  5  1  0
  3  6  1  0
  6  7  1  0
  7  8  2  0
  1  9  1  0
  4 10  1  0
  4 11  1  0
  4 12  1  0
  5 13  1  0
  6 14  1  0
  6 15  1  0
  7 16  1  0
M  END
