
     RDKit          3D

 21 21  0  0  0  0  0  0  0  0999 V2000
    3.4489   -0.7827    0.3691 C   0  0  0  0  0  0  0  0  0  0  0  0
    2.2867   -0.5952    0.1168 C   0  0  0  0  0  0  0  0  0  0  0  0
    0.8768   -0.3890   -0.2031 C   0  0  0  0  0  0  0  0  0  0  0  0
    0.0157   -1.0735    0.8568 C   0  0  0  0  0  0  0  0  0  0  0  0
   -1.4040   -1.0835    0.2783 C   0  0  0  0  0  0  0  0  0  0  0  0
   -1.9048    0.3493    0.4064 C   0  0  0  0  0  0  0  0  0  0  0  0
   -1.8278    0.9998   -0.7877 O   0  0  0  0  0  0  0  0  0  0  0  0
   -0.5989    1.3640   -1.2173 C   0  0  0  0  0  0  0  0  0  0  0  0
    0.5436    1.0657   -0.3124 C   0  0  0  0  0  0  0  0  0  0  0  0
    4.4745   -0.9614    0.5785 H   0  0  0  0  0  0  0  0  0  0  0  0
    0.6039   -0.8709   -1.1748 H   0  0  0  0  0  0  0  0  0  0  0  0
    0.3906   -2.0748    1.0626 H   0  0  0  0  0  0  0  0  0  0  0  0
   -0.0403   -0.4712    1.7788 H   0  0  0  0  0  0  0  0  0  0  0  0
   -1.3174   -1.3437   -0.8123 H   0  0  0  0  0  0  0  0  0  0  0  0
   -2.0153   -1.8044    0.8182 H   0  0  0  0  0  0  0  0  0  0  0  0
   -2.9987    0.2763    0.6783 H   0  0  0  0  0  0  0  0  0  0  0  0
   -1.4190    0.8930    1.2235 H   0  0  0  0  0  0  0  0  0  0  0  0
   -0.3985    0.9039   -2.1988 H   0  0  0  0  0  0  0  0  0  0  0  0
   -0.6054    2.4780   -1.3908 H   0  0  0  0  0  0  0  0  0  0  0  0
    0.4350    1.5549    0.6894 H   0  0  0  0  0  0  0  0  0  0  0  0
    1.4544    1.5655   -0.7596 H   0  0  0  0  0  0  0  0  0  0  0  0
  1  2  3  0
  2  3  1  0
  3  4  1  0
  4  5  1  0
  5  6  1  0
  6  7  1  0
  7  8  1  0
  8  9  1  0
  9  3  1  0
  1 10  1  0
  3 11  1  0
  4 12  1  0
  4 13  1  0
  5 14  1  0
  5 15  1  0
  6 16  1  0
  6 17  1  0
  8 18  1  0
  8 19  1  0
  9 20  1  0
  9 21  1  0
M  END
