
     RDKit          3D

 19 18  0  0  0  0  0  0  0  0999 V2000
    3.3087   -0.4825    1.9044 C   0  0  0  0  0  0  0  0  0  0  0  0
    2.3296   -0.7240    1.2631 C   0  0  0  0  0  0  0  0  0  0  0  0
    1.0930   -1.0276    0.4842 C   0  0  0  0  0  0  0  0  0  0  0  0
    0.4733    0.2834    0.1427 C   0  0  0  0  0  0  0  0  0  0  0  0
   -0.7998    0.1529   -0.6793 C   0  0  0  0  0  0  0  0  0  0  0  0
   -0.5558   -0.5569   -1.9771 C   0  0  0  0  0  0  0  0  0  0  0  0
   -1.3656    1.4470   -0.8861 O   0  0  0  0  0  0  0  0  0  0  0  0
   -2.5969    1.7631   -0.3709 C   0  0  0  0  0  0  0  0  0  0  0  0
   -3.1938    0.8345    0.2931 O   0  0  0  0  0  0  0  0  0  0  0  0
    4.1880   -0.2599    2.5028 H   0  0  0  0  0  0  0  0  0  0  0  0
    1.4633   -1.5718   -0.4314 H   0  0  0  0  0  0  0  0  0  0  0  0
    0.4115   -1.6934    1.0351 H   0  0  0  0  0  0  0  0  0  0  0  0
    1.1960    0.9006   -0.4048 H   0  0  0  0  0  0  0  0  0  0  0  0
    0.2228    0.7885    1.1213 H   0  0  0  0  0  0  0  0  0  0  0  0
   -1.5187   -0.4397   -0.0861 H   0  0  0  0  0  0  0  0  0  0  0  0
   -0.4594    0.1921   -2.8133 H   0  0  0  0  0  0  0  0  0  0  0  0
    0.3417   -1.1711   -2.0272 H   0  0  0  0  0  0  0  0  0  0  0  0
   -1.4574   -1.1637   -2.2846 H   0  0  0  0  0  0  0  0  0  0  0  0
   -3.0806    2.7285   -0.4908 H   0  0  0  0  0  0  0  0  0  0  0  0
  1  2  3  0
  2  3  1  0
  3  4  1  0
  4  5  1  0
  5  6  1  0
  5  7  1  0
  7  8  1  0
  8  9  2  0
  1 10  1  0
  3 11  1  0
  3 12  1  0
  4 13  1  0
  4 14  1  0
  5 15  1  0
  6 16  1  0
  6 17  1  0
  6 18  1  0
  8 19  1  0
M  END
