
     RDKit          3D

 15 14  0  0  0  0  0  0  0  0999 V2000
    0.1794    1.3892    3.2914 C   0  0  0  0  0  0  0  0  0  0  0  0
   -0.0963    0.5409    2.2728 C   0  0  0  0  0  0  0  0  0  0  0  0
   -0.3577   -0.2943    1.2643 C   0  0  0  0  0  0  0  0  0  0  0  0
   -0.1967    0.0348   -0.0329 O   0  0  0  0  0  0  0  0  0  0  0  0
   -0.4880   -1.0447   -0.8222 C   0  0  0  0  0  0  0  0  0  0  0  0
   -0.2003   -0.6878   -2.3161 C   0  0  0  0  0  0  0  0  0  0  0  0
   -0.6649   -1.3372   -3.1237 O   0  0  0  0  0  0  0  0  0  0  0  0
    0.7021    0.5188   -2.4014 C   0  0  0  0  0  0  0  0  0  0  0  0
    1.5135    1.5961   -2.4744 C   0  0  0  0  0  0  0  0  0  0  0  0
    0.3753    2.0281    4.0740 H   0  0  0  0  0  0  0  0  0  0  0  0
   -0.2721   -1.3750    1.5832 H   0  0  0  0  0  0  0  0  0  0  0  0
   -1.6315   -0.3731    1.2518 H   0  0  0  0  0  0  0  0  0  0  0  0
   -1.3622   -1.6316   -0.7131 H   0  0  0  0  0  0  0  0  0  0  0  0
    0.3867   -1.7741   -0.5461 H   0  0  0  0  0  0  0  0  0  0  0  0
    2.1127    2.4099   -2.5422 H   0  0  0  0  0  0  0  0  0  0  0  0
  1  2  3  0
  2  3  1  0
  3  4  1  0
  4  5  1  0
  5  6  1  0
  6  7  2  0
  6  8  1  0
  8  9  3  0
  1 10  1  0
  3 11  1  0
  3 12  1  0
  5 13  1  0
  5 14  1  0
  9 15  1  0
M  END
