
     RDKit          3D

 13 12  0  0  0  0  0  0  0  0999 V2000
   -1.3889    2.2928    0.3564 C   0  0  0  0  0  0  0  0  0  0  0  0
   -0.6936    1.0701    0.3518 C   0  0  0  0  0  0  0  0  0  0  0  0
    0.0217   -0.1458    0.3519 C   0  0  0  0  0  0  0  0  0  0  0  0
    1.2517    0.0522    0.0175 C   0  0  0  0  0  0  0  0  0  0  0  0
    2.3254    0.2155   -0.2561 C   0  0  0  0  0  0  0  0  0  0  0  0
   -0.2670   -1.3381    1.0672 C   0  0  0  0  0  0  0  0  0  0  0  0
   -0.2977   -2.4297    0.3451 O   0  0  0  0  0  0  0  0  0  0  0  0
   -0.6652   -0.6088   -1.1677 C   0  0  0  0  0  0  0  0  0  0  0  0
   -1.7886   -1.0495   -0.9808 O   0  0  0  0  0  0  0  0  0  0  0  0
   -1.9562    3.2776    0.3561 H   0  0  0  0  0  0  0  0  0  0  0  0
    3.8967    0.4435   -0.6512 H   0  0  0  0  0  0  0  0  0  0  0  0
   -0.4410   -1.3644    2.0900 H   0  0  0  0  0  0  0  0  0  0  0  0
    0.0027   -0.4153   -1.8802 H   0  0  0  0  0  0  0  0  0  0  0  0
  1  2  3  0
  2  3  1  0
  3  4  1  0
  4  5  3  0
  3  6  1  0
  6  7  2  0
  3  8  1  0
  8  9  2  0
  1 10  1  0
  5 11  1  0
  6 12  1  0
  8 13  1  0
M  END
