
     RDKit          3D

 15 16  0  0  0  0  0  0  0  0999 V2000
    1.8630    1.2659    2.1010 C   0  0  0  0  0  0  0  0  0  0  0  0
    1.0794    0.8068    1.3340 C   0  0  0  0  0  0  0  0  0  0  0  0
    0.1406    0.2364    0.4293 C   0  0  0  0  0  0  0  0  0  0  0  0
    0.2384    0.6498   -1.0381 C   0  0  0  0  0  0  0  0  0  0  0  0
   -0.4500   -0.7181   -1.1770 C   0  0  0  0  0  0  0  0  0  0  0  0
   -1.7142   -0.4809   -0.4014 C   0  0  0  0  0  0  0  0  0  0  0  0
   -1.1938    0.2295    0.7151 O   0  0  0  0  0  0  0  0  0  0  0  0
    0.4665   -1.1408   -0.0958 C   0  0  0  0  0  0  0  0  0  0  0  0
    1.1728   -2.0186    0.3277 O   0  0  0  0  0  0  0  0  0  0  0  0
    2.5474    1.6841    2.7910 H   0  0  0  0  0  0  0  0  0  0  0  0
    1.2516    0.5619   -1.4537 H   0  0  0  0  0  0  0  0  0  0  0  0
   -0.3781    1.4861   -1.3473 H   0  0  0  0  0  0  0  0  0  0  0  0
   -0.4402   -1.1891   -2.1128 H   0  0  0  0  0  0  0  0  0  0  0  0
   -2.1014   -1.4600   -0.0652 H   0  0  0  0  0  0  0  0  0  0  0  0
   -2.4820    0.0870   -0.9240 H   0  0  0  0  0  0  0  0  0  0  0  0
  1  2  3  0
  2  3  1  0
  3  4  1  0
  4  5  1  0
  5  6  1  0
  6  7  1  0
  5  8  1  0
  8  9  2  0
  7  3  1  0
  8  3  1  0
  1 10  1  0
  4 11  1  0
  4 12  1  0
  5 13  1  0
  6 14  1  0
  6 15  1  0
M  END
