
     RDKit          3D

 21 21  0  0  0  0  0  0  0  0999 V2000
    1.9582   -0.7016   -1.8348 C   0  0  0  0  0  0  0  0  0  0  0  0
    0.7130   -0.2692   -1.1291 C   0  0  0  0  0  0  0  0  0  0  0  0
   -0.1675    0.0441   -0.6276 C   0  0  0  0  0  0  0  0  0  0  0  0
   -1.5967   -0.4631   -1.2613 C   0  0  0  0  0  0  0  0  0  0  0  0
   -0.5414    1.6458   -0.7617 C   0  0  0  0  0  0  0  0  0  0  0  0
   -0.4710   -0.1654    0.8994 C   0  0  0  0  0  0  0  0  0  0  0  0
    0.3852    0.4619    1.8927 C   0  0  0  0  0  0  0  0  0  0  0  0
    0.5299   -0.9928    1.5993 C   0  0  0  0  0  0  0  0  0  0  0  0
    1.6764   -1.4081    0.9093 O   0  0  0  0  0  0  0  0  0  0  0  0
    2.8758   -1.0111   -2.3399 H   0  0  0  0  0  0  0  0  0  0  0  0
   -2.3276    0.0862   -0.6692 H   0  0  0  0  0  0  0  0  0  0  0  0
   -1.5909    0.0445   -2.2676 H   0  0  0  0  0  0  0  0  0  0  0  0
   -1.6024   -1.5073   -1.2412 H   0  0  0  0  0  0  0  0  0  0  0  0
   -0.7813    1.7463   -1.8123 H   0  0  0  0  0  0  0  0  0  0  0  0
   -1.4707    1.6438   -0.1672 H   0  0  0  0  0  0  0  0  0  0  0  0
    0.2970    2.2120   -0.4384 H   0  0  0  0  0  0  0  0  0  0  0  0
   -1.5186   -0.4082    1.0963 H   0  0  0  0  0  0  0  0  0  0  0  0
    1.1039    1.2419    1.5643 H   0  0  0  0  0  0  0  0  0  0  0  0
   -0.1952    0.7736    2.8319 H   0  0  0  0  0  0  0  0  0  0  0  0
    0.2504   -1.7748    2.3393 H   0  0  0  0  0  0  0  0  0  0  0  0
    2.4736   -1.1985    1.4178 H   0  0  0  0  0  0  0  0  0  0  0  0
  1  2  3  0
  2  3  1  0
  3  4  1  0
  3  5  1  0
  3  6  1  0
  6  7  1  0
  7  8  1  0
  8  9  1  0
  8  6  1  0
  1 10  1  0
  4 11  1  0
  4 12  1  0
  4 13  1  0
  5 14  1  0
  5 15  1  0
  5 16  1  0
  6 17  1  0
  7 18  1  0
  7 19  1  0
  8 20  1  0
  9 21  1  0
M  END
