
     RDKit          3D

 18 17  0  0  0  0  0  0  0  0999 V2000
   -3.0921    1.5752    1.8654 C   0  0  0  0  0  0  0  0  0  0  0  0
   -2.0559    0.9621    1.6395 C   0  0  0  0  0  0  0  0  0  0  0  0
   -0.8402    0.2481    1.3764 C   0  0  0  0  0  0  0  0  0  0  0  0
   -0.6734   -0.0438   -0.1057 C   0  0  0  0  0  0  0  0  0  0  0  0
   -0.6412    1.2061   -0.9264 C   0  0  0  0  0  0  0  0  0  0  0  0
    0.6581   -0.6755   -0.2607 C   0  0  0  0  0  0  0  0  0  0  0  0
    1.7509   -1.2104   -0.3732 C   0  0  0  0  0  0  0  0  0  0  0  0
    3.0549   -1.8629   -0.4876 C   0  0  0  0  0  0  0  0  0  0  0  0
   -4.0044    2.1065    2.0641 H   0  0  0  0  0  0  0  0  0  0  0  0
    0.0702    0.7229    1.8025 H   0  0  0  0  0  0  0  0  0  0  0  0
   -0.9332   -0.7750    1.8476 H   0  0  0  0  0  0  0  0  0  0  0  0
   -1.4940   -0.7138   -0.4263 H   0  0  0  0  0  0  0  0  0  0  0  0
   -1.3363    1.0473   -1.8009 H   0  0  0  0  0  0  0  0  0  0  0  0
    0.3487    1.4017   -1.3582 H   0  0  0  0  0  0  0  0  0  0  0  0
   -1.0369    2.0804   -0.3621 H   0  0  0  0  0  0  0  0  0  0  0  0
    3.2743   -2.1884   -1.5485 H   0  0  0  0  0  0  0  0  0  0  0  0
    3.8112   -1.1230   -0.1792 H   0  0  0  0  0  0  0  0  0  0  0  0
    3.1391   -2.7577    0.1479 H   0  0  0  0  0  0  0  0  0  0  0  0
  1  2  3  0
  2  3  1  0
  3  4  1  0
  4  5  1  0
  4  6  1  0
  6  7  3  0
  7  8  1  0
  1  9  1  0
  3 10  1  0
  3 11  1  0
  4 12  1  0
  5 13  1  0
  5 14  1  0
  5 15  1  0
  8 16  1  0
  8 17  1  0
  8 18  1  0
M  END
