
     RDKit          3D

 19 19  0  0  0  0  0  0  0  0999 V2000
    2.7748   -1.9298   -0.5621 C   0  0  0  0  0  0  0  0  0  0  0  0
    1.7532   -1.3150   -0.3631 C   0  0  0  0  0  0  0  0  0  0  0  0
    0.5366   -0.6027   -0.1225 C   0  0  0  0  0  0  0  0  0  0  0  0
    0.3910    0.7027   -0.2267 C   0  0  0  0  0  0  0  0  0  0  0  0
    1.4524    1.6922   -0.6122 C   0  0  0  0  0  0  0  0  0  0  0  0
   -0.9828    1.1213    0.0881 C   0  0  0  0  0  0  0  0  0  0  0  0
   -1.7983   -0.1238    0.0491 C   0  0  0  0  0  0  0  0  0  0  0  0
   -2.6516   -0.1294    1.1553 O   0  0  0  0  0  0  0  0  0  0  0  0
   -0.7585   -1.2056    0.2809 C   0  0  0  0  0  0  0  0  0  0  0  0
    3.6883   -2.4643   -0.7511 H   0  0  0  0  0  0  0  0  0  0  0  0
    1.2816    2.6720   -0.1461 H   0  0  0  0  0  0  0  0  0  0  0  0
    2.4282    1.2442   -0.3870 H   0  0  0  0  0  0  0  0  0  0  0  0
    1.3654    1.8133   -1.7192 H   0  0  0  0  0  0  0  0  0  0  0  0
   -1.0099    1.6270    1.0874 H   0  0  0  0  0  0  0  0  0  0  0  0
   -1.3774    1.8346   -0.6885 H   0  0  0  0  0  0  0  0  0  0  0  0
   -2.3449   -0.2737   -0.9020 H   0  0  0  0  0  0  0  0  0  0  0  0
   -3.0306   -1.0323    1.2397 H   0  0  0  0  0  0  0  0  0  0  0  0
   -0.7301   -1.5144    1.3648 H   0  0  0  0  0  0  0  0  0  0  0  0
   -0.9873   -2.1163   -0.3176 H   0  0  0  0  0  0  0  0  0  0  0  0
  1  2  3  0
  2  3  1  0
  3  4  2  0
  4  5  1  0
  4  6  1  0
  6  7  1  0
  7  8  1  0
  7  9  1  0
  9  3  1  0
  1 10  1  0
  5 11  1  0
  5 12  1  0
  5 13  1  0
  6 14  1  0
  6 15  1  0
  7 16  1  0
  8 17  1  0
  9 18  1  0
  9 19  1  0
M  END
