
     RDKit          3D

 15 14  0  0  0  0  0  0  0  0999 V2000
    2.3255    3.0793   -0.3621 C   0  0  0  0  0  0  0  0  0  0  0  0
    1.9521    1.4430   -0.1416 C   0  0  0  0  0  0  0  0  0  0  0  0
    1.7660    0.5532   -0.0180 C   0  0  0  0  0  0  0  0  0  0  0  0
    2.3177    0.3838    1.4798 O   0  0  0  0  0  0  0  0  0  0  0  0
    1.2988   -0.5874   -0.3471 O   0  0  0  0  0  0  0  0  0  0  0  0
    0.8049   -1.8846   -0.5377 C   0  0  0  0  0  0  0  0  0  0  0  0
   -0.5672   -1.3304   -0.1856 C   0  0  0  0  0  0  0  0  0  0  0  0
   -1.6827   -0.8632    0.0863 C   0  0  0  0  0  0  0  0  0  0  0  0
   -3.0722   -0.2643    0.4048 C   0  0  0  0  0  0  0  0  0  0  0  0
    2.5930    4.2839   -0.5456 H   0  0  0  0  0  0  0  0  0  0  0  0
    1.0512   -2.1981   -1.4610 H   0  0  0  0  0  0  0  0  0  0  0  0
    0.9941   -2.5929    0.3800 H   0  0  0  0  0  0  0  0  0  0  0  0
   -2.7613    0.9068    0.0898 H   0  0  0  0  0  0  0  0  0  0  0  0
   -3.6200   -0.5498   -0.4979 H   0  0  0  0  0  0  0  0  0  0  0  0
   -3.3998   -0.3794    1.3403 H   0  0  0  0  0  0  0  0  0  0  0  0
  1  2  3  0
  2  3  1  0
  3  4  2  0
  3  5  1  0
  5  6  1  0
  6  7  1  0
  7  8  3  0
  8  9  1  0
  1 10  1  0
  6 11  1  0
  6 12  1  0
  9 13  1  0
  9 14  1  0
  9 15  1  0
M  END
