
     RDKit          3D

 19 19  0  0  0  0  0  0  0  0999 V2000
    3.1516    1.0946    0.6627 C   0  0  0  0  0  0  0  0  0  0  0  0
    2.3330    0.4130    0.1044 C   0  0  0  0  0  0  0  0  0  0  0  0
    1.3391   -0.4206   -0.5685 C   0  0  0  0  0  0  0  0  0  0  0  0
    0.2859   -0.7768    0.4382 C   0  0  0  0  0  0  0  0  0  0  0  0
   -0.8403   -1.6319   -0.0322 C   0  0  0  0  0  0  0  0  0  0  0  0
   -1.6978   -0.8923    0.8085 O   0  0  0  0  0  0  0  0  0  0  0  0
   -0.8430    0.1958    0.5932 C   0  0  0  0  0  0  0  0  0  0  0  0
   -1.2604    0.9550   -0.6168 C   0  0  0  0  0  0  0  0  0  0  0  0
   -2.5679    1.4356   -0.4529 O   0  0  0  0  0  0  0  0  0  0  0  0
    3.8704    1.7071    1.1407 H   0  0  0  0  0  0  0  0  0  0  0  0
    1.8548   -1.3535   -0.8760 H   0  0  0  0  0  0  0  0  0  0  0  0
    0.9107    0.0727   -1.4462 H   0  0  0  0  0  0  0  0  0  0  0  0
    0.6740   -1.1153    1.4000 H   0  0  0  0  0  0  0  0  0  0  0  0
   -0.7346   -2.6984    0.2743 H   0  0  0  0  0  0  0  0  0  0  0  0
   -1.1128   -1.5850   -1.0930 H   0  0  0  0  0  0  0  0  0  0  0  0
   -0.7383    0.8816    1.4645 H   0  0  0  0  0  0  0  0  0  0  0  0
   -1.2162    0.3995   -1.5565 H   0  0  0  0  0  0  0  0  0  0  0  0
   -0.6203    1.8709   -0.7603 H   0  0  0  0  0  0  0  0  0  0  0  0
   -2.7879    1.4480    0.5160 H   0  0  0  0  0  0  0  0  0  0  0  0
  1  2  3  0
  2  3  1  0
  3  4  1  0
  4  5  1  0
  5  6  1  0
  6  7  1  0
  7  8  1  0
  8  9  1  0
  7  4  1  0
  1 10  1  0
  3 11  1  0
  3 12  1  0
  4 13  1  0
  5 14  1  0
  5 15  1  0
  7 16  1  0
  8 17  1  0
  8 18  1  0
  9 19  1  0
M  END
