
     RDKit          3D

 21 22  0  0  0  0  0  0  0  0999 V2000
    2.8001   -1.7520    0.4312 C   0  0  0  0  0  0  0  0  0  0  0  0
    1.9681   -0.9141    0.2071 C   0  0  0  0  0  0  0  0  0  0  0  0
    0.9519    0.0891   -0.0692 C   0  0  0  0  0  0  0  0  0  0  0  0
    1.5668    1.3409   -0.6613 C   0  0  0  0  0  0  0  0  0  0  0  0
    0.0242    0.3952    1.0925 C   0  0  0  0  0  0  0  0  0  0  0  0
   -1.1557    0.0640    0.2367 C   0  0  0  0  0  0  0  0  0  0  0  0
   -2.2968   -0.7414    0.7548 C   0  0  0  0  0  0  0  0  0  0  0  0
   -1.2827    0.6169   -1.1254 C   0  0  0  0  0  0  0  0  0  0  0  0
   -0.2551   -0.3999   -0.8316 C   0  0  0  0  0  0  0  0  0  0  0  0
    3.5391   -2.5020    0.6307 H   0  0  0  0  0  0  0  0  0  0  0  0
    2.5149    1.5417   -0.0973 H   0  0  0  0  0  0  0  0  0  0  0  0
    0.9218    2.2146   -0.4985 H   0  0  0  0  0  0  0  0  0  0  0  0
    1.7579    1.1482   -1.7366 H   0  0  0  0  0  0  0  0  0  0  0  0
    0.0596    1.4545    1.4147 H   0  0  0  0  0  0  0  0  0  0  0  0
    0.2275   -0.3020    1.9238 H   0  0  0  0  0  0  0  0  0  0  0  0
   -2.5292   -1.5435    0.0104 H   0  0  0  0  0  0  0  0  0  0  0  0
   -2.1493   -1.2113    1.7214 H   0  0  0  0  0  0  0  0  0  0  0  0
   -3.1829   -0.0736    0.8276 H   0  0  0  0  0  0  0  0  0  0  0  0
   -2.1395    0.2785   -1.7290 H   0  0  0  0  0  0  0  0  0  0  0  0
   -1.0538    1.6917   -1.2360 H   0  0  0  0  0  0  0  0  0  0  0  0
   -0.2869   -1.3952   -1.2658 H   0  0  0  0  0  0  0  0  0  0  0  0
  1  2  3  0
  2  3  1  0
  3  4  1  0
  3  5  1  0
  5  6  1  0
  6  7  1  0
  6  8  1  0
  8  9  1  0
  9  3  1  0
  9  6  1  0
  1 10  1  0
  4 11  1  0
  4 12  1  0
  4 13  1  0
  5 14  1  0
  5 15  1  0
  7 16  1  0
  7 17  1  0
  7 18  1  0
  8 19  1  0
  8 20  1  0
  9 21  1  0
M  END
