
     RDKit          3D

 18 17  0  0  0  0  0  0  0  0999 V2000
    2.9806    0.6451   -1.1867 C   0  0  0  0  0  0  0  0  0  0  0  0
    1.7488   -0.0351   -1.0749 C   0  0  0  0  0  0  0  0  0  0  0  0
    0.5405   -0.6884   -0.9833 C   0  0  0  0  0  0  0  0  0  0  0  0
   -0.5508   -0.1820   -0.2220 C   0  0  0  0  0  0  0  0  0  0  0  0
   -1.4160    0.9660   -0.5471 C   0  0  0  0  0  0  0  0  0  0  0  0
   -1.2631   -1.2784    0.5269 C   0  0  0  0  0  0  0  0  0  0  0  0
    0.2292    0.5483    1.0642 C   0  0  0  0  0  0  0  0  0  0  0  0
    0.8337    1.1334    2.0487 C   0  0  0  0  0  0  0  0  0  0  0  0
    3.8455    1.1350   -1.2721 H   0  0  0  0  0  0  0  0  0  0  0  0
    0.1954   -1.0435   -2.0421 H   0  0  0  0  0  0  0  0  0  0  0  0
    0.7943   -1.7521   -0.4946 H   0  0  0  0  0  0  0  0  0  0  0  0
   -2.4951    0.5414   -0.5694 H   0  0  0  0  0  0  0  0  0  0  0  0
   -1.4677    1.7434    0.2065 H   0  0  0  0  0  0  0  0  0  0  0  0
   -1.1782    1.4717   -1.5119 H   0  0  0  0  0  0  0  0  0  0  0  0
   -2.3234   -1.1021    0.6468 H   0  0  0  0  0  0  0  0  0  0  0  0
   -0.9629   -2.2421   -0.0018 H   0  0  0  0  0  0  0  0  0  0  0  0
   -0.8119   -1.4697    1.5657 H   0  0  0  0  0  0  0  0  0  0  0  0
    1.3014    1.6092    2.8185 H   0  0  0  0  0  0  0  0  0  0  0  0
  1  2  3  0
  2  3  1  0
  3  4  1  0
  4  5  1  0
  4  6  1  0
  4  7  1  0
  7  8  3  0
  1  9  1  0
  3 10  1  0
  3 11  1  0
  5 12  1  0
  5 13  1  0
  5 14  1  0
  6 15  1  0
  6 16  1  0
  6 17  1  0
  8 18  1  0
M  END
