
     RDKit          3D

 19 19  0  0  0  0  0  0  0  0999 V2000
    2.5199   -1.5992   -0.0857 C   0  0  0  0  0  0  0  0  0  0  0  0
    1.6580   -0.7688    0.0702 C   0  0  0  0  0  0  0  0  0  0  0  0
    0.6176    0.2690    0.2579 C   0  0  0  0  0  0  0  0  0  0  0  0
    0.9791    1.6213   -0.2747 C   0  0  0  0  0  0  0  0  0  0  0  0
    0.1637    0.2643    1.5658 O   0  0  0  0  0  0  0  0  0  0  0  0
   -0.7236   -0.7470    1.2156 C   0  0  0  0  0  0  0  0  0  0  0  0
   -0.7062   -0.2808   -0.2179 C   0  0  0  0  0  0  0  0  0  0  0  0
   -1.7752    0.7225   -0.4843 C   0  0  0  0  0  0  0  0  0  0  0  0
   -0.5575   -1.2610   -1.1679 O   0  0  0  0  0  0  0  0  0  0  0  0
    3.2708   -2.3445   -0.2291 H   0  0  0  0  0  0  0  0  0  0  0  0
    0.7852    1.5974   -1.3788 H   0  0  0  0  0  0  0  0  0  0  0  0
    0.3791    2.3716    0.2522 H   0  0  0  0  0  0  0  0  0  0  0  0
    2.0658    1.7930   -0.1346 H   0  0  0  0  0  0  0  0  0  0  0  0
   -1.7228   -0.5883    1.7098 H   0  0  0  0  0  0  0  0  0  0  0  0
   -0.3532   -1.7721    1.3089 H   0  0  0  0  0  0  0  0  0  0  0  0
   -1.3982    1.6932   -0.8480 H   0  0  0  0  0  0  0  0  0  0  0  0
   -2.4525    0.8345    0.4047 H   0  0  0  0  0  0  0  0  0  0  0  0
   -2.4363    0.3002   -1.2892 H   0  0  0  0  0  0  0  0  0  0  0  0
   -0.3136   -2.1054   -0.6747 H   0  0  0  0  0  0  0  0  0  0  0  0
  1  2  3  0
  2  3  1  0
  3  4  1  0
  3  5  1  0
  5  6  1  0
  6  7  1  0
  7  8  1  0
  7  9  1  0
  7  3  1  0
  1 10  1  0
  4 11  1  0
  4 12  1  0
  4 13  1  0
  6 14  1  0
  6 15  1  0
  8 16  1  0
  8 17  1  0
  8 18  1  0
  9 19  1  0
M  END
