
     RDKit          3D

 21 20  0  0  0  0  0  0  0  0999 V2000
   -1.9112   -0.2953   -2.7531 C   0  0  0  0  0  0  0  0  0  0  0  0
   -1.8186    0.2835   -1.7118 C   0  0  0  0  0  0  0  0  0  0  0  0
   -1.7007    1.0135   -0.4504 C   0  0  0  0  0  0  0  0  0  0  0  0
   -2.9205    1.3311    0.0693 O   0  0  0  0  0  0  0  0  0  0  0  0
   -0.8189    0.1733    0.4645 C   0  0  0  0  0  0  0  0  0  0  0  0
    0.5053    0.0446   -0.2608 C   0  0  0  0  0  0  0  0  0  0  0  0
    1.5099   -0.7668    0.5163 C   0  0  0  0  0  0  0  0  0  0  0  0
    1.8274   -0.1782    1.8527 C   0  0  0  0  0  0  0  0  0  0  0  0
    2.6703   -0.8502   -0.2523 O   0  0  0  0  0  0  0  0  0  0  0  0
   -2.0103   -0.8136   -3.7115 H   0  0  0  0  0  0  0  0  0  0  0  0
   -1.1602    1.9888   -0.6126 H   0  0  0  0  0  0  0  0  0  0  0  0
   -3.0054    1.2850    1.0486 H   0  0  0  0  0  0  0  0  0  0  0  0
   -1.2671   -0.8337    0.6033 H   0  0  0  0  0  0  0  0  0  0  0  0
   -0.7510    0.7053    1.4250 H   0  0  0  0  0  0  0  0  0  0  0  0
    0.8930    1.0498   -0.5074 H   0  0  0  0  0  0  0  0  0  0  0  0
    0.2879   -0.5045   -1.2025 H   0  0  0  0  0  0  0  0  0  0  0  0
    1.0968   -1.7913    0.6049 H   0  0  0  0  0  0  0  0  0  0  0  0
    1.6127    0.9082    1.9136 H   0  0  0  0  0  0  0  0  0  0  0  0
    1.3359   -0.7475    2.6922 H   0  0  0  0  0  0  0  0  0  0  0  0
    2.9209   -0.2830    2.0316 H   0  0  0  0  0  0  0  0  0  0  0  0
    2.7039   -1.7190   -0.7654 H   0  0  0  0  0  0  0  0  0  0  0  0
  1  2  3  0
  2  3  1  0
  3  4  1  0
  3  5  1  0
  5  6  1  0
  6  7  1  0
  7  8  1  0
  7  9  1  0
  1 10  1  0
  3 11  1  0
  4 12  1  0
  5 13  1  0
  5 14  1  0
  6 15  1  0
  6 16  1  0
  7 17  1  0
  8 18  1  0
  8 19  1  0
  8 20  1  0
  9 21  1  0
M  END
