
     RDKit          3D

 17 16  0  0  0  0  0  0  0  0999 V2000
    3.2302    0.3314   -0.5139 C   0  0  0  0  0  0  0  0  0  0  0  0
    2.1080    0.1198    0.0357 C   0  0  0  0  0  0  0  0  0  0  0  0
    0.8557   -0.0926    0.6544 C   0  0  0  0  0  0  0  0  0  0  0  0
    0.0294    1.0291    0.7135 O   0  0  0  0  0  0  0  0  0  0  0  0
   -1.2713    0.7722    0.8108 C   0  0  0  0  0  0  0  0  0  0  0  0
   -1.0567   -0.8662    1.1937 C   0  0  0  0  0  0  0  0  0  0  0  0
   -0.9043   -2.1080    1.4769 C   0  0  0  0  0  0  0  0  0  0  0  0
   -1.3799    0.4713   -0.8981 C   0  0  0  0  0  0  0  0  0  0  0  0
   -1.1365    1.8538   -1.2400 O   0  0  0  0  0  0  0  0  0  0  0  0
    4.2637    0.5135   -1.0369 H   0  0  0  0  0  0  0  0  0  0  0  0
    0.3354   -0.9006   -0.0531 H   0  0  0  0  0  0  0  0  0  0  0  0
    0.9476   -0.6661    1.5718 H   0  0  0  0  0  0  0  0  0  0  0  0
   -2.2116    0.5864    0.8811 H   0  0  0  0  0  0  0  0  0  0  0  0
   -0.7647   -3.1805    1.7040 H   0  0  0  0  0  0  0  0  0  0  0  0
   -2.3682    0.2048   -0.9974 H   0  0  0  0  0  0  0  0  0  0  0  0
   -0.5419   -0.1250   -1.1341 H   0  0  0  0  0  0  0  0  0  0  0  0
   -0.1352    2.0567   -1.0863 H   0  0  0  0  0  0  0  0  0  0  0  0
  1  2  3  0
  2  3  1  0
  3  4  1  0
  4  5  1  0
  5  6  1  0
  6  7  3  0
  5  8  1  0
  8  9  1  0
  1 10  1  0
  3 11  1  0
  3 12  1  0
  5 13  1  0
  7 14  1  0
  8 15  1  0
  8 16  1  0
  9 17  1  0
M  END
