
     RDKit          3D

 19 18  0  0  0  0  0  0  0  0999 V2000
   -2.7773    1.2382    1.0873 C   0  0  0  0  0  0  0  0  0  0  0  0
   -1.8255    0.5827    0.7437 C   0  0  0  0  0  0  0  0  0  0  0  0
   -0.6709   -0.2058    0.3020 C   0  0  0  0  0  0  0  0  0  0  0  0
   -1.1199   -0.9274   -0.9763 C   0  0  0  0  0  0  0  0  0  0  0  0
   -0.3317   -1.2201    1.3293 C   0  0  0  0  0  0  0  0  0  0  0  0
    0.3654    0.6555   -0.0579 O   0  0  0  0  0  0  0  0  0  0  0  0
    1.6007    0.2910   -0.5193 C   0  0  0  0  0  0  0  0  0  0  0  0
    2.5644    1.3740   -0.8474 C   0  0  0  0  0  0  0  0  0  0  0  0
    1.8524   -0.9289   -0.6400 O   0  0  0  0  0  0  0  0  0  0  0  0
   -3.6204    1.7991    1.3973 H   0  0  0  0  0  0  0  0  0  0  0  0
   -1.2419   -0.1057   -1.7377 H   0  0  0  0  0  0  0  0  0  0  0  0
   -2.0533   -1.4538   -0.7614 H   0  0  0  0  0  0  0  0  0  0  0  0
   -0.2982   -1.6060   -1.2592 H   0  0  0  0  0  0  0  0  0  0  0  0
    0.4968   -0.9306    1.9970 H   0  0  0  0  0  0  0  0  0  0  0  0
   -0.1466   -2.2211    0.8471 H   0  0  0  0  0  0  0  0  0  0  0  0
   -1.2191   -1.3783    1.9781 H   0  0  0  0  0  0  0  0  0  0  0  0
    2.5733    2.1675   -0.0744 H   0  0  0  0  0  0  0  0  0  0  0  0
    2.2703    1.8912   -1.8058 H   0  0  0  0  0  0  0  0  0  0  0  0
    3.5815    0.9787   -1.0026 H   0  0  0  0  0  0  0  0  0  0  0  0
  1  2  3  0
  2  3  1  0
  3  4  1  0
  3  5  1  0
  3  6  1  0
  6  7  1  0
  7  8  1  0
  7  9  2  0
  1 10  1  0
  4 11  1  0
  4 12  1  0
  4 13  1  0
  5 14  1  0
  5 15  1  0
  5 16  1  0
  8 17  1  0
  8 18  1  0
  8 19  1  0
M  END
