
     RDKit          3D

 21 21  0  0  0  0  0  0  0  0999 V2000
    2.2138    1.6961    0.1380 C   0  0  0  0  0  0  0  0  0  0  0  0
    1.2495    0.9992   -0.0469 C   0  0  0  0  0  0  0  0  0  0  0  0
    0.0681    0.1342   -0.2552 C   0  0  0  0  0  0  0  0  0  0  0  0
    0.5207   -1.2882   -0.4103 C   0  0  0  0  0  0  0  0  0  0  0  0
    1.2663   -1.8083    0.7965 C   0  0  0  0  0  0  0  0  0  0  0  0
   -0.7687    0.5469   -1.4453 C   0  0  0  0  0  0  0  0  0  0  0  0
   -1.9448    0.6810   -0.5196 C   0  0  0  0  0  0  0  0  0  0  0  0
   -1.0567    0.3903    0.6813 C   0  0  0  0  0  0  0  0  0  0  0  0
   -0.8017    1.5290    1.4539 O   0  0  0  0  0  0  0  0  0  0  0  0
    3.0877    2.3058    0.3104 H   0  0  0  0  0  0  0  0  0  0  0  0
   -0.2662   -1.9818   -0.7074 H   0  0  0  0  0  0  0  0  0  0  0  0
    1.2711   -1.2943   -1.2549 H   0  0  0  0  0  0  0  0  0  0  0  0
    2.1279   -1.1269    1.0259 H   0  0  0  0  0  0  0  0  0  0  0  0
    0.6493   -1.9212    1.6863 H   0  0  0  0  0  0  0  0  0  0  0  0
    1.7006   -2.7963    0.4911 H   0  0  0  0  0  0  0  0  0  0  0  0
   -0.4217    1.4961   -1.9107 H   0  0  0  0  0  0  0  0  0  0  0  0
   -0.8724   -0.2251   -2.2293 H   0  0  0  0  0  0  0  0  0  0  0  0
   -2.6571   -0.1638   -0.7102 H   0  0  0  0  0  0  0  0  0  0  0  0
   -2.4244    1.6641   -0.5040 H   0  0  0  0  0  0  0  0  0  0  0  0
   -1.3878   -0.4399    1.3173 H   0  0  0  0  0  0  0  0  0  0  0  0
   -1.5535    1.6030    2.0931 H   0  0  0  0  0  0  0  0  0  0  0  0
  1  2  3  0
  2  3  1  0
  3  4  1  0
  4  5  1  0
  3  6  1  0
  6  7  1  0
  7  8  1  0
  8  9  1  0
  8  3  1  0
  1 10  1  0
  4 11  1  0
  4 12  1  0
  5 13  1  0
  5 14  1  0
  5 15  1  0
  6 16  1  0
  6 17  1  0
  7 18  1  0
  7 19  1  0
  8 20  1  0
  9 21  1  0
M  END
