
     RDKit          3D

 17 18  0  0  0  0  0  0  0  0999 V2000
    3.1534   -0.8307   -0.4702 C   0  0  0  0  0  0  0  0  0  0  0  0
    2.0115   -0.7929    0.1405 C   0  0  0  0  0  0  0  0  0  0  0  0
    0.7694   -0.7684    0.7845 C   0  0  0  0  0  0  0  0  0  0  0  0
    0.3768    0.4904    1.2318 O   0  0  0  0  0  0  0  0  0  0  0  0
   -0.4795    1.1534    0.3863 C   0  0  0  0  0  0  0  0  0  0  0  0
   -1.8037    0.3771    0.3895 C   0  0  0  0  0  0  0  0  0  0  0  0
   -1.0891   -0.5684   -0.5845 C   0  0  0  0  0  0  0  0  0  0  0  0
   -0.3612    0.6965   -1.0576 C   0  0  0  0  0  0  0  0  0  0  0  0
   -0.2245   -1.4123    0.0585 O   0  0  0  0  0  0  0  0  0  0  0  0
    4.0849   -0.8528   -0.9500 H   0  0  0  0  0  0  0  0  0  0  0  0
    0.8705   -1.3750    1.7408 H   0  0  0  0  0  0  0  0  0  0  0  0
   -0.5587    2.2203    0.5622 H   0  0  0  0  0  0  0  0  0  0  0  0
   -2.5603    0.9344   -0.1739 H   0  0  0  0  0  0  0  0  0  0  0  0
   -2.0914   -0.0526    1.3416 H   0  0  0  0  0  0  0  0  0  0  0  0
   -1.7228   -1.0524   -1.3280 H   0  0  0  0  0  0  0  0  0  0  0  0
    0.6510    0.5328   -1.4182 H   0  0  0  0  0  0  0  0  0  0  0  0
   -1.0262    1.3006   -1.6952 H   0  0  0  0  0  0  0  0  0  0  0  0
  1  2  3  0
  2  3  1  0
  3  4  1  0
  4  5  1  0
  5  6  1  0
  6  7  1  0
  7  8  1  0
  7  9  1  0
  9  3  1  0
  8  5  1  0
  1 10  1  0
  3 11  1  0
  5 12  1  0
  6 13  1  0
  6 14  1  0
  7 15  1  0
  8 16  1  0
  8 17  1  0
M  END
