
     RDKit          3D

 21 22  0  0  0  0  0  0  0  0999 V2000
    3.4379   -0.3941    1.5420 C   0  0  0  0  0  0  0  0  0  0  0  0
    2.4521   -0.2300    0.8433 C   0  0  0  0  0  0  0  0  0  0  0  0
    1.2723   -0.0196    0.0313 C   0  0  0  0  0  0  0  0  0  0  0  0
    0.6351   -1.3391   -0.3267 C   0  0  0  0  0  0  0  0  0  0  0  0
   -0.6957   -0.8669   -0.8951 C   0  0  0  0  0  0  0  0  0  0  0  0
   -1.8419   -0.7972    0.0013 C   0  0  0  0  0  0  0  0  0  0  0  0
   -1.0247    0.4218   -0.1517 C   0  0  0  0  0  0  0  0  0  0  0  0
   -1.5949    1.5774   -0.9029 C   0  0  0  0  0  0  0  0  0  0  0  0
    0.1638    0.6860    0.7599 C   0  0  0  0  0  0  0  0  0  0  0  0
    4.3058   -0.5364    2.1345 H   0  0  0  0  0  0  0  0  0  0  0  0
    1.4901    0.5010   -0.9246 H   0  0  0  0  0  0  0  0  0  0  0  0
    0.4933   -1.8964    0.6229 H   0  0  0  0  0  0  0  0  0  0  0  0
    1.1931   -1.9024   -1.0912 H   0  0  0  0  0  0  0  0  0  0  0  0
   -0.7623   -0.8020   -1.9936 H   0  0  0  0  0  0  0  0  0  0  0  0
   -2.8672   -0.7443   -0.4325 H   0  0  0  0  0  0  0  0  0  0  0  0
   -1.8131   -1.3897    0.9416 H   0  0  0  0  0  0  0  0  0  0  0  0
   -2.6939    1.7011   -0.7442 H   0  0  0  0  0  0  0  0  0  0  0  0
   -1.1385    2.5111   -0.4908 H   0  0  0  0  0  0  0  0  0  0  0  0
   -1.3296    1.5823   -1.9877 H   0  0  0  0  0  0  0  0  0  0  0  0
   -0.0388    0.1768    1.7220 H   0  0  0  0  0  0  0  0  0  0  0  0
    0.3571    1.7606    0.8506 H   0  0  0  0  0  0  0  0  0  0  0  0
  1  2  3  0
  2  3  1  0
  3  4  1  0
  4  5  1  0
  5  6  1  0
  6  7  1  0
  7  8  1  0
  7  9  1  0
  9  3  1  0
  7  5  1  0
  1 10  1  0
  3 11  1  0
  4 12  1  0
  4 13  1  0
  5 14  1  0
  6 15  1  0
  6 16  1  0
  8 17  1  0
  8 18  1  0
  8 19  1  0
  9 20  1  0
  9 21  1  0
M  END
