
     RDKit          3D

 19 18  0  0  0  0  0  0  0  0999 V2000
    3.8188    0.8411   -0.8586 C   0  0  0  0  0  0  0  0  0  0  0  0
    2.7605    0.1284   -0.7692 C   0  0  0  0  0  0  0  0  0  0  0  0
    1.6015   -0.6363   -0.6924 C   0  0  0  0  0  0  0  0  0  0  0  0
    0.5279    0.2419   -0.2314 O   0  0  0  0  0  0  0  0  0  0  0  0
   -0.6774   -0.4216   -0.3725 C   0  0  0  0  0  0  0  0  0  0  0  0
   -0.9986   -1.2783    0.8635 C   0  0  0  0  0  0  0  0  0  0  0  0
   -1.8413    0.2855   -0.8431 C   0  0  0  0  0  0  0  0  0  0  0  0
   -1.7471    1.6187   -1.5969 C   0  0  0  0  0  0  0  0  0  0  0  0
   -2.9838   -0.1187   -0.6933 O   0  0  0  0  0  0  0  0  0  0  0  0
    5.0049    1.6697   -0.9554 H   0  0  0  0  0  0  0  0  0  0  0  0
    1.6358   -1.6044   -0.6529 H   0  0  0  0  0  0  0  0  0  0  0  0
    1.8627   -0.7424    0.7829 H   0  0  0  0  0  0  0  0  0  0  0  0
   -0.4157   -1.2384   -1.1569 H   0  0  0  0  0  0  0  0  0  0  0  0
   -1.4915   -0.7186    1.6459 H   0  0  0  0  0  0  0  0  0  0  0  0
   -0.0437   -1.7268    1.2317 H   0  0  0  0  0  0  0  0  0  0  0  0
   -1.6584   -2.0916    0.5440 H   0  0  0  0  0  0  0  0  0  0  0  0
   -2.7349    2.1425   -1.4082 H   0  0  0  0  0  0  0  0  0  0  0  0
   -0.9426    2.2393   -1.2491 H   0  0  0  0  0  0  0  0  0  0  0  0
   -1.6770    1.4100   -2.6892 H   0  0  0  0  0  0  0  0  0  0  0  0
  1  2  3  0
  2  3  1  0
  3  4  1  0
  4  5  1  0
  5  6  1  0
  5  7  1  0
  7  8  1  0
  7  9  2  0
  1 10  1  0
  3 11  1  0
  3 12  1  0
  5 13  1  0
  6 14  1  0
  6 15  1  0
  6 16  1  0
  8 17  1  0
  8 18  1  0
  8 19  1  0
M  END
