
     RDKit          3D

 17 17  0  0  0  0  0  0  0  0999 V2000
   -3.7438    0.4283   -0.2030 C   0  0  0  0  0  0  0  0  0  0  0  0
   -2.6209    0.4876   -0.6654 C   0  0  0  0  0  0  0  0  0  0  0  0
   -1.2938    0.5766   -1.1946 C   0  0  0  0  0  0  0  0  0  0  0  0
   -0.9076    1.5184   -1.9493 O   0  0  0  0  0  0  0  0  0  0  0  0
   -0.3344   -0.4951   -0.8256 C   0  0  0  0  0  0  0  0  0  0  0  0
   -0.0037   -0.2796    0.6203 C   0  0  0  0  0  0  0  0  0  0  0  0
    0.5860    1.0744    0.7841 O   0  0  0  0  0  0  0  0  0  0  0  0
    1.3050   -0.0759    1.1606 C   0  0  0  0  0  0  0  0  0  0  0  0
    2.5995   -0.1798    0.3934 C   0  0  0  0  0  0  0  0  0  0  0  0
   -4.7242    0.3584    0.2054 H   0  0  0  0  0  0  0  0  0  0  0  0
   -0.8551   -1.4456   -0.9804 H   0  0  0  0  0  0  0  0  0  0  0  0
    0.5516   -0.5025   -1.4962 H   0  0  0  0  0  0  0  0  0  0  0  0
   -0.8459   -0.4531    1.3018 H   0  0  0  0  0  0  0  0  0  0  0  0
    1.4359   -0.1994    2.2493 H   0  0  0  0  0  0  0  0  0  0  0  0
    2.5500    0.3761   -0.5859 H   0  0  0  0  0  0  0  0  0  0  0  0
    2.8907   -1.2193    0.2342 H   0  0  0  0  0  0  0  0  0  0  0  0
    3.4106    0.3626    0.9512 H   0  0  0  0  0  0  0  0  0  0  0  0
  1  2  3  0
  2  3  1  0
  3  4  2  0
  3  5  1  0
  5  6  1  0
  6  7  1  0
  7  8  1  0
  8  9  1  0
  8  6  1  0
  1 10  1  0
  5 11  1  0
  5 12  1  0
  6 13  1  0
  8 14  1  0
  9 15  1  0
  9 16  1  0
  9 17  1  0
M  END
