
     RDKit          3D

 14 13  0  0  0  0  0  0  0  0999 V2000
   -1.8046    1.2089    2.1391 C   0  0  0  0  0  0  0  0  0  0  0  0
   -1.5746    0.6395    1.1387 C   0  0  0  0  0  0  0  0  0  0  0  0
   -1.2761   -0.0922   -0.0998 C   0  0  0  0  0  0  0  0  0  0  0  0
    0.1523    0.0792   -0.4744 C   0  0  0  0  0  0  0  0  0  0  0  0
    1.3127    0.2093   -0.7589 C   0  0  0  0  0  0  0  0  0  0  0  0
    2.7297    0.3579   -1.0836 C   0  0  0  0  0  0  0  0  0  0  0  0
   -1.5867   -1.5207    0.0785 C   0  0  0  0  0  0  0  0  0  0  0  0
   -0.7597   -2.2506    0.5790 O   0  0  0  0  0  0  0  0  0  0  0  0
   -2.0142    1.7336    3.0959 H   0  0  0  0  0  0  0  0  0  0  0  0
   -1.9098    0.3661   -0.9033 H   0  0  0  0  0  0  0  0  0  0  0  0
    3.2922   -0.3367   -0.4567 H   0  0  0  0  0  0  0  0  0  0  0  0
    3.0222    1.4093   -0.8869 H   0  0  0  0  0  0  0  0  0  0  0  0
    2.9393    0.1386   -2.1481 H   0  0  0  0  0  0  0  0  0  0  0  0
   -2.5226   -1.9420   -0.2195 H   0  0  0  0  0  0  0  0  0  0  0  0
  1  2  3  0
  2  3  1  0
  3  4  1  0
  4  5  3  0
  5  6  1  0
  3  7  1  0
  7  8  2  0
  1  9  1  0
  3 10  1  0
  6 11  1  0
  6 12  1  0
  6 13  1  0
  7 14  1  0
M  END
