
     RDKit          3D

 13 12  0  0  0  0  0  0  0  0999 V2000
   -1.8582    0.1941    2.8161 C   0  0  0  0  0  0  0  0  0  0  0  0
   -0.6464   -0.3338    2.2888 C   0  0  0  0  0  0  0  0  0  0  0  0
    0.5447   -0.8388    1.7944 C   0  0  0  0  0  0  0  0  0  0  0  0
    0.6842   -0.4660    0.4217 C   0  0  0  0  0  0  0  0  0  0  0  0
    0.8058   -0.1159   -0.8615 C   0  0  0  0  0  0  0  0  0  0  0  0
    0.9544    0.2464   -2.2554 C   0  0  0  0  0  0  0  0  0  0  0  0
    1.9939    0.0364   -2.8876 O   0  0  0  0  0  0  0  0  0  0  0  0
   -0.1904    0.8740   -2.8899 C   0  0  0  0  0  0  0  0  0  0  0  0
   -1.2200    1.0143   -2.0683 O   0  0  0  0  0  0  0  0  0  0  0  0
   -2.6687    0.5549    3.1837 H   0  0  0  0  0  0  0  0  0  0  0  0
    1.4154   -0.4509    2.4289 H   0  0  0  0  0  0  0  0  0  0  0  0
    0.5222   -1.9388    1.8847 H   0  0  0  0  0  0  0  0  0  0  0  0
   -0.3366    1.2242   -3.8555 H   0  0  0  0  0  0  0  0  0  0  0  0
  1  2  3  0
  2  3  1  0
  3  4  1  0
  4  5  3  0
  5  6  1  0
  6  7  2  0
  6  8  1  0
  8  9  2  0
  1 10  1  0
  3 11  1  0
  3 12  1  0
  8 13  1  0
M  END
