
     RDKit          3D

 19 19  0  0  0  0  0  0  0  0999 V2000
    3.9473    0.3200    1.1331 C   0  0  0  0  0  0  0  0  0  0  0  0
    2.8018   -0.0620    1.1675 C   0  0  0  0  0  0  0  0  0  0  0  0
    1.4095   -0.5325    1.2344 C   0  0  0  0  0  0  0  0  0  0  0  0
    0.4417    0.5584    0.9430 C   0  0  0  0  0  0  0  0  0  0  0  0
   -0.5965    0.0154    0.3184 C   0  0  0  0  0  0  0  0  0  0  0  0
   -1.7891    0.7206   -0.1569 C   0  0  0  0  0  0  0  0  0  0  0  0
   -1.9980    0.6032   -1.6500 C   0  0  0  0  0  0  0  0  0  0  0  0
   -0.2543   -1.4480    0.2220 C   0  0  0  0  0  0  0  0  0  0  0  0
    1.1609   -1.4137    0.1901 O   0  0  0  0  0  0  0  0  0  0  0  0
    4.9552    0.6471    1.0987 H   0  0  0  0  0  0  0  0  0  0  0  0
    1.1881   -0.9994    2.2146 H   0  0  0  0  0  0  0  0  0  0  0  0
    0.5496    1.6139    1.1897 H   0  0  0  0  0  0  0  0  0  0  0  0
   -2.7353    0.3333    0.3184 H   0  0  0  0  0  0  0  0  0  0  0  0
   -1.7340    1.7784    0.0951 H   0  0  0  0  0  0  0  0  0  0  0  0
   -1.5247   -0.3067   -2.0772 H   0  0  0  0  0  0  0  0  0  0  0  0
   -1.5576    1.4609   -2.2061 H   0  0  0  0  0  0  0  0  0  0  0  0
   -3.0776    0.5855   -1.9081 H   0  0  0  0  0  0  0  0  0  0  0  0
   -0.5065   -1.9490    1.1864 H   0  0  0  0  0  0  0  0  0  0  0  0
   -0.6807   -1.9255   -0.6575 H   0  0  0  0  0  0  0  0  0  0  0  0
  1  2  3  0
  2  3  1  0
  3  4  1  0
  4  5  2  0
  5  6  1  0
  6  7  1  0
  5  8  1  0
  8  9  1  0
  9  3  1  0
  1 10  1  0
  3 11  1  0
  4 12  1  0
  6 13  1  0
  6 14  1  0
  7 15  1  0
  7 16  1  0
  7 17  1  0
  8 18  1  0
  8 19  1  0
M  END
