
     RDKit          3D

 17 18  0  0  0  0  0  0  0  0999 V2000
    2.0690    2.1601    0.0808 C   0  0  0  0  0  0  0  0  0  0  0  0
    1.2541    1.3051   -0.1508 C   0  0  0  0  0  0  0  0  0  0  0  0
    0.2849    0.2671   -0.4499 C   0  0  0  0  0  0  0  0  0  0  0  0
    0.5316   -0.7247   -1.5280 C   0  0  0  0  0  0  0  0  0  0  0  0
    0.7367   -1.1674   -0.1310 C   0  0  0  0  0  0  0  0  0  0  0  0
   -0.3211   -1.6074    0.7603 C   0  0  0  0  0  0  0  0  0  0  0  0
   -1.3267   -0.7786    0.9158 C   0  0  0  0  0  0  0  0  0  0  0  0
   -1.0813    0.4230    0.0984 C   0  0  0  0  0  0  0  0  0  0  0  0
   -1.2390    1.5778    0.8718 O   0  0  0  0  0  0  0  0  0  0  0  0
    2.7936    2.9265    0.3064 H   0  0  0  0  0  0  0  0  0  0  0  0
   -0.3832   -1.0751   -2.0799 H   0  0  0  0  0  0  0  0  0  0  0  0
    1.4563   -0.5969   -2.1243 H   0  0  0  0  0  0  0  0  0  0  0  0
    1.7883   -1.2747    0.2448 H   0  0  0  0  0  0  0  0  0  0  0  0
   -0.3062   -2.5775    1.2894 H   0  0  0  0  0  0  0  0  0  0  0  0
   -2.2312   -0.9309    1.5540 H   0  0  0  0  0  0  0  0  0  0  0  0
   -1.8128    0.4427   -0.7687 H   0  0  0  0  0  0  0  0  0  0  0  0
   -2.2130    1.6308    1.1110 H   0  0  0  0  0  0  0  0  0  0  0  0
  1  2  3  0
  2  3  1  0
  3  4  1  0
  4  5  1  0
  5  6  1  0
  6  7  2  0
  7  8  1  0
  8  9  1  0
  5  3  1  0
  8  3  1  0
  1 10  1  0
  4 11  1  0
  4 12  1  0
  5 13  1  0
  6 14  1  0
  7 15  1  0
  8 16  1  0
  9 17  1  0
M  END
