
     RDKit          3D

 19 19  0  0  0  0  0  0  0  0999 V2000
    2.0414    2.0571    1.7796 C   0  0  0  0  0  0  0  0  0  0  0  0
    1.2692    0.9657    1.4754 C   0  0  0  0  0  0  0  0  0  0  0  0
    0.2653   -0.5046    1.0765 C   0  0  0  0  0  0  0  0  0  0  0  0
    1.5142   -0.9391    0.1061 C   0  0  0  0  0  0  0  0  0  0  0  0
    0.0949   -0.8720   -0.2081 C   0  0  0  0  0  0  0  0  0  0  0  0
   -0.3545   -2.1449   -0.5706 O   0  0  0  0  0  0  0  0  0  0  0  0
   -0.3564    0.3246   -1.1678 C   0  0  0  0  0  0  0  0  0  0  0  0
   -1.7816    0.7041   -0.9028 C   0  0  0  0  0  0  0  0  0  0  0  0
   -2.5463   -0.5263   -0.8959 O   0  0  0  0  0  0  0  0  0  0  0  0
    2.5201    2.7126    1.9590 H   0  0  0  0  0  0  0  0  0  0  0  0
    0.4253   -0.9457    2.0718 H   0  0  0  0  0  0  0  0  0  0  0  0
    2.0743   -0.0927   -0.3863 H   0  0  0  0  0  0  0  0  0  0  0  0
    2.1713   -1.6036    0.6595 H   0  0  0  0  0  0  0  0  0  0  0  0
   -0.1947   -2.6662    0.3417 H   0  0  0  0  0  0  0  0  0  0  0  0
    0.2812    1.2507   -0.7535 H   0  0  0  0  0  0  0  0  0  0  0  0
   -0.1263    0.2284   -2.1768 H   0  0  0  0  0  0  0  0  0  0  0  0
   -2.1089    1.5193   -0.3692 H   0  0  0  0  0  0  0  0  0  0  0  0
   -2.1546    1.0550   -2.0197 H   0  0  0  0  0  0  0  0  0  0  0  0
   -3.0339   -0.5226   -0.0189 H   0  0  0  0  0  0  0  0  0  0  0  0
  1  2  3  0
  2  3  1  0
  3  4  1  0
  4  5  1  0
  5  6  1  0
  5  7  1  0
  7  8  1  0
  8  9  1  0
  5  3  1  0
  1 10  1  0
  3 11  1  0
  4 12  1  0
  4 13  1  0
  6 14  1  0
  7 15  1  0
  7 16  1  0
  8 17  1  0
  8 18  1  0
  9 19  1  0
M  END
