
     RDKit          3D

 19 19  0  0  0  0  0  0  0  0999 V2000
    3.3986   -0.7872    0.7420 C   0  0  0  0  0  0  0  0  0  0  0  0
    2.3965   -0.2946    0.1375 C   0  0  0  0  0  0  0  0  0  0  0  0
    1.2649    0.2417   -0.5540 C   0  0  0  0  0  0  0  0  0  0  0  0
    0.3539   -0.8109   -1.2827 C   0  0  0  0  0  0  0  0  0  0  0  0
    0.7677   -2.1415   -1.0445 O   0  0  0  0  0  0  0  0  0  0  0  0
   -0.1189   -0.0180   -0.1080 C   0  0  0  0  0  0  0  0  0  0  0  0
   -0.3525   -0.6934    1.1064 O   0  0  0  0  0  0  0  0  0  0  0  0
   -1.1342    1.0857   -0.3894 C   0  0  0  0  0  0  0  0  0  0  0  0
   -2.5045    0.7759    0.0923 C   0  0  0  0  0  0  0  0  0  0  0  0
    4.2378   -1.2206    1.2538 H   0  0  0  0  0  0  0  0  0  0  0  0
    1.4351    1.1987   -1.1184 H   0  0  0  0  0  0  0  0  0  0  0  0
    0.0704   -0.5480   -2.3102 H   0  0  0  0  0  0  0  0  0  0  0  0
    1.0276   -2.1368   -0.0523 H   0  0  0  0  0  0  0  0  0  0  0  0
   -0.1895   -0.0937    1.8804 H   0  0  0  0  0  0  0  0  0  0  0  0
   -1.1999    1.2898   -1.4848 H   0  0  0  0  0  0  0  0  0  0  0  0
   -0.7617    2.0158    0.0678 H   0  0  0  0  0  0  0  0  0  0  0  0
   -2.7640   -0.3195    0.1019 H   0  0  0  0  0  0  0  0  0  0  0  0
   -2.6835    1.1412    1.1206 H   0  0  0  0  0  0  0  0  0  0  0  0
   -3.2440    1.3154   -0.5598 H   0  0  0  0  0  0  0  0  0  0  0  0
  1  2  3  0
  2  3  1  0
  3  4  1  0
  4  5  1  0
  4  6  1  0
  6  7  1  0
  6  8  1  0
  8  9  1  0
  6  3  1  0
  1 10  1  0
  3 11  1  0
  4 12  1  0
  5 13  1  0
  7 14  1  0
  8 15  1  0
  8 16  1  0
  9 17  1  0
  9 18  1  0
  9 19  1  0
M  END
