
     RDKit          3D

 23 23  0  0  0  0  0  0  0  0999 V2000
   -2.7526    2.4649    2.0670 C   0  0  0  0  0  0  0  0  0  0  0  0
   -2.3963    1.5942    1.2828 C   0  0  0  0  0  0  0  0  0  0  0  0
   -1.9540    0.5436    0.3625 C   0  0  0  0  0  0  0  0  0  0  0  0
   -0.9010   -0.2951    1.0940 C   0  0  0  0  0  0  0  0  0  0  0  0
   -0.4191   -1.3817    0.1920 C   0  0  0  0  0  0  0  0  0  0  0  0
    0.2114   -0.9141   -1.0777 C   0  0  0  0  0  0  0  0  0  0  0  0
    1.4193   -0.0467   -0.8822 C   0  0  0  0  0  0  0  0  0  0  0  0
    2.0462    0.4188   -2.1900 C   0  0  0  0  0  0  0  0  0  0  0  0
    2.7725   -0.4777   -1.2511 C   0  0  0  0  0  0  0  0  0  0  0  0
   -3.0446    3.2153    2.7237 H   0  0  0  0  0  0  0  0  0  0  0  0
   -1.5383    0.9721   -0.5808 H   0  0  0  0  0  0  0  0  0  0  0  0
   -2.8345   -0.0731    0.0970 H   0  0  0  0  0  0  0  0  0  0  0  0
   -1.4525   -0.7805    1.9330 H   0  0  0  0  0  0  0  0  0  0  0  0
   -0.1304    0.3301    1.5380 H   0  0  0  0  0  0  0  0  0  0  0  0
    0.2797   -2.0464    0.7302 H   0  0  0  0  0  0  0  0  0  0  0  0
   -1.2976   -2.0023   -0.0836 H   0  0  0  0  0  0  0  0  0  0  0  0
   -0.4944   -0.3665   -1.7237 H   0  0  0  0  0  0  0  0  0  0  0  0
    0.5395   -1.8151   -1.6371 H   0  0  0  0  0  0  0  0  0  0  0  0
    1.3363    0.7093   -0.0675 H   0  0  0  0  0  0  0  0  0  0  0  0
    2.3298    1.4885   -2.2730 H   0  0  0  0  0  0  0  0  0  0  0  0
    1.6652    0.0073   -3.1433 H   0  0  0  0  0  0  0  0  0  0  0  0
    2.9876   -1.4924   -1.6503 H   0  0  0  0  0  0  0  0  0  0  0  0
    3.6279   -0.0525   -0.6914 H   0  0  0  0  0  0  0  0  0  0  0  0
  1  2  3  0
  2  3  1  0
  3  4  1  0
  4  5  1  0
  5  6  1  0
  6  7  1  0
  7  8  1  0
  8  9  1  0
  9  7  1  0
  1 10  1  0
  3 11  1  0
  3 12  1  0
  4 13  1  0
  4 14  1  0
  5 15  1  0
  5 16  1  0
  6 17  1  0
  6 18  1  0
  7 19  1  0
  8 20  1  0
  8 21  1  0
  9 22  1  0
  9 23  1  0
M  END
