
     RDKit          3D

 19 20  0  0  0  0  0  0  0  0999 V2000
   -0.6331   -1.6348   -2.0367 C   0  0  0  0  0  0  0  0  0  0  0  0
    0.1369   -0.9455   -1.3630 C   0  0  0  0  0  0  0  0  0  0  0  0
    1.0471   -0.1027   -0.5725 C   0  0  0  0  0  0  0  0  0  0  0  0
    0.3326    0.3665    0.6971 C   0  0  0  0  0  0  0  0  0  0  0  0
   -0.9043    1.1918    0.3322 C   0  0  0  0  0  0  0  0  0  0  0  0
   -1.5723    0.5171    1.5169 C   0  0  0  0  0  0  0  0  0  0  0  0
   -0.6480   -0.6662    1.2436 C   0  0  0  0  0  0  0  0  0  0  0  0
    2.4666    0.0020   -0.7971 C   0  0  0  0  0  0  0  0  0  0  0  0
    1.5819    0.9743   -1.3444 O   0  0  0  0  0  0  0  0  0  0  0  0
   -1.2858   -2.2315   -2.6261 H   0  0  0  0  0  0  0  0  0  0  0  0
    0.9966    0.7741    1.4303 H   0  0  0  0  0  0  0  0  0  0  0  0
   -1.3768    0.9048   -0.6031 H   0  0  0  0  0  0  0  0  0  0  0  0
   -0.7718    2.2629    0.5079 H   0  0  0  0  0  0  0  0  0  0  0  0
   -1.3885    1.0021    2.4829 H   0  0  0  0  0  0  0  0  0  0  0  0
   -2.6418    0.3412    1.3552 H   0  0  0  0  0  0  0  0  0  0  0  0
   -0.2569   -1.1538    2.1426 H   0  0  0  0  0  0  0  0  0  0  0  0
   -1.0991   -1.3159    0.4877 H   0  0  0  0  0  0  0  0  0  0  0  0
    2.9431   -0.6699   -1.5268 H   0  0  0  0  0  0  0  0  0  0  0  0
    3.0737    0.3834    0.0756 H   0  0  0  0  0  0  0  0  0  0  0  0
  1  2  3  0
  2  3  1  0
  3  4  1  0
  4  5  1  0
  5  6  1  0
  6  7  1  0
  3  8  1  0
  8  9  1  0
  9  3  1  0
  7  4  1  0
  1 10  1  0
  4 11  1  0
  5 12  1  0
  5 13  1  0
  6 14  1  0
  6 15  1  0
  7 16  1  0
  7 17  1  0
  8 18  1  0
  8 19  1  0
M  END
