
     RDKit          3D

 21 21  0  0  0  0  0  0  0  0999 V2000
    2.4438   -0.4459    1.7005 C   0  0  0  0  0  0  0  0  0  0  0  0
    1.5272   -0.6588    1.0123 C   0  0  0  0  0  0  0  0  0  0  0  0
    0.4092   -0.9376    0.1890 C   0  0  0  0  0  0  0  0  0  0  0  0
   -0.9116   -0.9782    0.9138 C   0  0  0  0  0  0  0  0  0  0  0  0
   -1.5128   -0.3484   -0.3574 C   0  0  0  0  0  0  0  0  0  0  0  0
   -0.1013    0.1104   -0.7307 C   0  0  0  0  0  0  0  0  0  0  0  0
    0.2516   -0.2433   -2.1849 C   0  0  0  0  0  0  0  0  0  0  0  0
    0.2398    1.3803   -0.4639 O   0  0  0  0  0  0  0  0  0  0  0  0
   -0.1686    1.9618    0.7020 C   0  0  0  0  0  0  0  0  0  0  0  0
    3.3539   -0.2139    2.3877 H   0  0  0  0  0  0  0  0  0  0  0  0
    0.5633   -1.9380   -0.3439 H   0  0  0  0  0  0  0  0  0  0  0  0
   -0.9885   -0.3801    1.8134 H   0  0  0  0  0  0  0  0  0  0  0  0
   -1.3241   -2.0071    1.0720 H   0  0  0  0  0  0  0  0  0  0  0  0
   -2.2417    0.4048   -0.1265 H   0  0  0  0  0  0  0  0  0  0  0  0
   -1.8200   -1.1684   -1.0566 H   0  0  0  0  0  0  0  0  0  0  0  0
    1.1813   -0.8326   -2.2569 H   0  0  0  0  0  0  0  0  0  0  0  0
    0.3701    0.6665   -2.7868 H   0  0  0  0  0  0  0  0  0  0  0  0
   -0.5499   -0.9167   -2.5933 H   0  0  0  0  0  0  0  0  0  0  0  0
    0.1980    3.0334    0.7309 H   0  0  0  0  0  0  0  0  0  0  0  0
    0.3487    1.4914    1.5563 H   0  0  0  0  0  0  0  0  0  0  0  0
   -1.2684    2.0203    0.8232 H   0  0  0  0  0  0  0  0  0  0  0  0
  1  2  3  0
  2  3  1  0
  3  4  1  0
  4  5  1  0
  5  6  1  0
  6  7  1  0
  6  8  1  0
  8  9  1  0
  6  3  1  0
  1 10  1  0
  3 11  1  0
  4 12  1  0
  4 13  1  0
  5 14  1  0
  5 15  1  0
  7 16  1  0
  7 17  1  0
  7 18  1  0
  9 19  1  0
  9 20  1  0
  9 21  1  0
M  END
