
     RDKit          3D

 17 18  0  0  0  0  0  0  0  0999 V2000
    2.6851    0.1982   -1.3637 C   0  0  0  0  0  0  0  0  0  0  0  0
    1.6161   -0.2132   -0.9862 C   0  0  0  0  0  0  0  0  0  0  0  0
    0.3268   -0.6935   -0.5541 C   0  0  0  0  0  0  0  0  0  0  0  0
    0.0082   -2.0316   -0.6803 O   0  0  0  0  0  0  0  0  0  0  0  0
    0.3192   -2.1715    0.6821 C   0  0  0  0  0  0  0  0  0  0  0  0
    0.1377   -0.7166    0.9543 C   0  0  0  0  0  0  0  0  0  0  0  0
   -0.6844    0.1621    0.0877 C   0  0  0  0  0  0  0  0  0  0  0  0
   -0.4750    1.5209    0.2452 O   0  0  0  0  0  0  0  0  0  0  0  0
   -1.6876    2.1758    0.1045 C   0  0  0  0  0  0  0  0  0  0  0  0
    3.6214    0.5748   -1.6856 H   0  0  0  0  0  0  0  0  0  0  0  0
   -0.3701   -2.8295    1.2297 H   0  0  0  0  0  0  0  0  0  0  0  0
    1.4083   -2.4415    0.7476 H   0  0  0  0  0  0  0  0  0  0  0  0
    0.8988   -0.2414    1.6028 H   0  0  0  0  0  0  0  0  0  0  0  0
   -1.7401   -0.1286   -0.1132 H   0  0  0  0  0  0  0  0  0  0  0  0
   -2.3574    1.7794    0.8937 H   0  0  0  0  0  0  0  0  0  0  0  0
   -1.5798    3.2623    0.1250 H   0  0  0  0  0  0  0  0  0  0  0  0
   -2.1271    1.7938   -0.8631 H   0  0  0  0  0  0  0  0  0  0  0  0
  1  2  3  0
  2  3  1  0
  3  4  1  0
  4  5  1  0
  5  6  1  0
  6  7  1  0
  7  8  1  0
  8  9  1  0
  6  3  1  0
  7  3  1  0
  1 10  1  0
  5 11  1  0
  5 12  1  0
  6 13  1  0
  7 14  1  0
  9 15  1  0
  9 16  1  0
  9 17  1  0
M  END
