
     RDKit          3D

 17 16  0  0  0  0  0  0  0  0999 V2000
    2.5484    0.7051   -0.0639 C   0  0  0  0  0  0  0  0  0  0  0  0
    1.7074   -0.0799   -0.3675 C   0  0  0  0  0  0  0  0  0  0  0  0
    0.7053   -1.0261   -0.7470 C   0  0  0  0  0  0  0  0  0  0  0  0
   -0.4392   -0.9182    0.2378 C   0  0  0  0  0  0  0  0  0  0  0  0
   -1.4935   -1.7263   -0.0615 O   0  0  0  0  0  0  0  0  0  0  0  0
   -0.6786    0.4303    0.7573 C   0  0  0  0  0  0  0  0  0  0  0  0
   -0.9692    1.5121   -0.2116 C   0  0  0  0  0  0  0  0  0  0  0  0
    3.3560    1.4327    0.2278 H   0  0  0  0  0  0  0  0  0  0  0  0
    1.0585   -2.0779   -0.8298 H   0  0  0  0  0  0  0  0  0  0  0  0
    0.2882   -0.7332   -1.7761 H   0  0  0  0  0  0  0  0  0  0  0  0
    0.0288   -1.5012    1.1583 H   0  0  0  0  0  0  0  0  0  0  0  0
   -1.3553   -2.6839    0.1668 H   0  0  0  0  0  0  0  0  0  0  0  0
    0.1342    0.7777    1.4429 H   0  0  0  0  0  0  0  0  0  0  0  0
   -1.6142    0.3463    1.4171 H   0  0  0  0  0  0  0  0  0  0  0  0
   -2.0568    1.6680   -0.2777 H   0  0  0  0  0  0  0  0  0  0  0  0
   -0.6413    1.3561   -1.2595 H   0  0  0  0  0  0  0  0  0  0  0  0
   -0.5786    2.5181    0.1866 H   0  0  0  0  0  0  0  0  0  0  0  0
  1  2  3  0
  2  3  1  0
  3  4  1  0
  4  5  1  0
  4  6  1  0
  6  7  1  0
  1  8  1  0
  3  9  1  0
  3 10  1  0
  4 11  1  0
  5 12  1  0
  6 13  1  0
  6 14  1  0
  7 15  1  0
  7 16  1  0
  7 17  1  0
M  END
