
     RDKit          3D

 19 19  0  0  0  0  0  0  0  0999 V2000
    2.1387    1.8684    0.5124 C   0  0  0  0  0  0  0  0  0  0  0  0
    1.4382    0.9206    0.2590 C   0  0  0  0  0  0  0  0  0  0  0  0
    0.5656   -0.2173   -0.0522 C   0  0  0  0  0  0  0  0  0  0  0  0
    1.3365   -1.3520   -0.4991 C   0  0  0  0  0  0  0  0  0  0  0  0
    1.9927   -2.3195   -0.8584 C   0  0  0  0  0  0  0  0  0  0  0  0
   -0.3995    0.1775   -1.1651 C   0  0  0  0  0  0  0  0  0  0  0  0
   -1.4067    0.9730   -0.3543 C   0  0  0  0  0  0  0  0  0  0  0  0
   -1.7256   -0.0457    0.7289 C   0  0  0  0  0  0  0  0  0  0  0  0
   -0.3493   -0.5426    1.1108 C   0  0  0  0  0  0  0  0  0  0  0  0
    2.7479    2.7241    0.7367 H   0  0  0  0  0  0  0  0  0  0  0  0
    2.5759   -3.1531   -1.1597 H   0  0  0  0  0  0  0  0  0  0  0  0
    0.0893    0.7840   -1.9433 H   0  0  0  0  0  0  0  0  0  0  0  0
   -0.9255   -0.7015   -1.5542 H   0  0  0  0  0  0  0  0  0  0  0  0
   -0.8792    1.8455    0.0899 H   0  0  0  0  0  0  0  0  0  0  0  0
   -2.2945    1.2544   -0.9435 H   0  0  0  0  0  0  0  0  0  0  0  0
   -2.2751    0.4018    1.5725 H   0  0  0  0  0  0  0  0  0  0  0  0
   -2.2745   -0.8863    0.2509 H   0  0  0  0  0  0  0  0  0  0  0  0
   -0.3399   -1.6657    1.2186 H   0  0  0  0  0  0  0  0  0  0  0  0
   -0.0149   -0.0657    2.0500 H   0  0  0  0  0  0  0  0  0  0  0  0
  1  2  3  0
  2  3  1  0
  3  4  1  0
  4  5  3  0
  3  6  1  0
  6  7  1  0
  7  8  1  0
  8  9  1  0
  9  3  1  0
  1 10  1  0
  5 11  1  0
  6 12  1  0
  6 13  1  0
  7 14  1  0
  7 15  1  0
  8 16  1  0
  8 17  1  0
  9 18  1  0
  9 19  1  0
M  END
