
     RDKit          3D

 23 22  0  0  0  0  0  0  0  0999 V2000
   -1.4157    1.7301   -1.8017 C   0  0  0  0  0  0  0  0  0  0  0  0
   -0.9237    0.7057   -1.3438 C   0  0  0  0  0  0  0  0  0  0  0  0
   -0.3629   -0.5147   -0.8144 C   0  0  0  0  0  0  0  0  0  0  0  0
   -1.3876   -1.6296   -0.7540 C   0  0  0  0  0  0  0  0  0  0  0  0
    0.1862   -0.2842    0.5465 C   0  0  0  0  0  0  0  0  0  0  0  0
    0.7287   -1.6649    0.9824 C   0  0  0  0  0  0  0  0  0  0  0  0
   -0.7931    0.0338    1.4850 O   0  0  0  0  0  0  0  0  0  0  0  0
    1.3123    0.6704    0.6706 C   0  0  0  0  0  0  0  0  0  0  0  0
    1.0424    2.0801    0.2266 C   0  0  0  0  0  0  0  0  0  0  0  0
   -1.8507    2.6132   -2.2154 H   0  0  0  0  0  0  0  0  0  0  0  0
    0.4628   -0.8907   -1.4632 H   0  0  0  0  0  0  0  0  0  0  0  0
   -1.8249   -1.7827   -1.7745 H   0  0  0  0  0  0  0  0  0  0  0  0
   -2.2104   -1.3528   -0.0853 H   0  0  0  0  0  0  0  0  0  0  0  0
   -0.8861   -2.5644   -0.4334 H   0  0  0  0  0  0  0  0  0  0  0  0
    1.4556   -1.4613    1.7913 H   0  0  0  0  0  0  0  0  0  0  0  0
    1.2572   -2.1611    0.1484 H   0  0  0  0  0  0  0  0  0  0  0  0
   -0.0732   -2.2864    1.4158 H   0  0  0  0  0  0  0  0  0  0  0  0
   -1.6531    0.2821    1.0185 H   0  0  0  0  0  0  0  0  0  0  0  0
    2.2491    0.3114    0.1957 H   0  0  0  0  0  0  0  0  0  0  0  0
    1.5585    0.7376    1.7712 H   0  0  0  0  0  0  0  0  0  0  0  0
    0.0663    2.4603    0.5451 H   0  0  0  0  0  0  0  0  0  0  0  0
    1.8187    2.7444    0.7272 H   0  0  0  0  0  0  0  0  0  0  0  0
    1.2435    2.2238   -0.8385 H   0  0  0  0  0  0  0  0  0  0  0  0
  1  2  3  0
  2  3  1  0
  3  4  1  0
  3  5  1  0
  5  6  1  0
  5  7  1  0
  5  8  1  0
  8  9  1  0
  1 10  1  0
  3 11  1  0
  4 12  1  0
  4 13  1  0
  4 14  1  0
  6 15  1  0
  6 16  1  0
  6 17  1  0
  7 18  1  0
  8 19  1  0
  8 20  1  0
  9 21  1  0
  9 22  1  0
  9 23  1  0
M  END
