
     RDKit          3D

 17 17  0  0  0  0  0  0  0  0999 V2000
    2.2206   -1.1772    1.7133 C   0  0  0  0  0  0  0  0  0  0  0  0
    1.4338   -0.3918    1.2446 C   0  0  0  0  0  0  0  0  0  0  0  0
    0.4864    0.5785    0.6925 C   0  0  0  0  0  0  0  0  0  0  0  0
    0.5065    1.8263    1.2965 O   0  0  0  0  0  0  0  0  0  0  0  0
    0.4510    0.6180   -0.8291 C   0  0  0  0  0  0  0  0  0  0  0  0
   -0.7834   -0.2468   -0.7583 C   0  0  0  0  0  0  0  0  0  0  0  0
   -1.8050    0.2437   -1.5367 O   0  0  0  0  0  0  0  0  0  0  0  0
   -0.9322    0.0342    0.7355 C   0  0  0  0  0  0  0  0  0  0  0  0
   -1.1164   -1.0742    1.5252 O   0  0  0  0  0  0  0  0  0  0  0  0
    2.9244   -1.8673    2.1468 H   0  0  0  0  0  0  0  0  0  0  0  0
    0.4464    2.5705    0.6235 H   0  0  0  0  0  0  0  0  0  0  0  0
    0.3115    1.6122   -1.2724 H   0  0  0  0  0  0  0  0  0  0  0  0
    1.3080    0.0307   -1.2225 H   0  0  0  0  0  0  0  0  0  0  0  0
   -0.6199   -1.3283   -0.9363 H   0  0  0  0  0  0  0  0  0  0  0  0
   -2.0148   -0.3001   -2.3260 H   0  0  0  0  0  0  0  0  0  0  0  0
   -1.7093    0.7981    0.8933 H   0  0  0  0  0  0  0  0  0  0  0  0
   -1.1076   -1.9266    1.0208 H   0  0  0  0  0  0  0  0  0  0  0  0
  1  2  3  0
  2  3  1  0
  3  4  1  0
  3  5  1  0
  5  6  1  0
  6  7  1  0
  6  8  1  0
  8  9  1  0
  8  3  1  0
  1 10  1  0
  4 11  1  0
  5 12  1  0
  5 13  1  0
  6 14  1  0
  7 15  1  0
  8 16  1  0
  9 17  1  0
M  END
