
     RDKit          3D

 19 18  0  0  0  0  0  0  0  0999 V2000
    1.4185    1.5372   -1.7110 C   0  0  0  0  0  0  0  0  0  0  0  0
    1.0555    0.7395   -0.8759 C   0  0  0  0  0  0  0  0  0  0  0  0
    0.6049   -0.2372    0.1147 C   0  0  0  0  0  0  0  0  0  0  0  0
    0.7177    0.3509    1.5137 C   0  0  0  0  0  0  0  0  0  0  0  0
    1.3447   -1.5071    0.0355 C   0  0  0  0  0  0  0  0  0  0  0  0
    2.0191   -1.8698    0.9741 O   0  0  0  0  0  0  0  0  0  0  0  0
   -0.8716   -0.4916   -0.1599 C   0  0  0  0  0  0  0  0  0  0  0  0
   -1.6862    0.7632   -0.0403 C   0  0  0  0  0  0  0  0  0  0  0  0
   -1.0604   -1.0908   -1.3909 O   0  0  0  0  0  0  0  0  0  0  0  0
    1.7473    2.2248   -2.4464 H   0  0  0  0  0  0  0  0  0  0  0  0
    1.7244    0.1421    1.9252 H   0  0  0  0  0  0  0  0  0  0  0  0
    0.6404    1.4705    1.4425 H   0  0  0  0  0  0  0  0  0  0  0  0
   -0.1069   -0.0731    2.0995 H   0  0  0  0  0  0  0  0  0  0  0  0
    1.3010   -2.1273   -0.8440 H   0  0  0  0  0  0  0  0  0  0  0  0
   -1.2081   -1.1986    0.6260 H   0  0  0  0  0  0  0  0  0  0  0  0
   -1.4946    1.2129    0.9595 H   0  0  0  0  0  0  0  0  0  0  0  0
   -1.5480    1.4548   -0.8759 H   0  0  0  0  0  0  0  0  0  0  0  0
   -2.7651    0.4383   -0.0122 H   0  0  0  0  0  0  0  0  0  0  0  0
   -1.8329   -1.7388   -1.3344 H   0  0  0  0  0  0  0  0  0  0  0  0
  1  2  3  0
  2  3  1  0
  3  4  1  0
  3  5  1  0
  5  6  2  0
  3  7  1  0
  7  8  1  0
  7  9  1  0
  1 10  1  0
  4 11  1  0
  4 12  1  0
  4 13  1  0
  5 14  1  0
  7 15  1  0
  8 16  1  0
  8 17  1  0
  8 18  1  0
  9 19  1  0
M  END
