
     RDKit          3D

 21 21  0  0  0  0  0  0  0  0999 V2000
    1.9721   -2.5540    1.2073 C   0  0  0  0  0  0  0  0  0  0  0  0
    0.8375   -1.9410    1.0253 C   0  0  0  0  0  0  0  0  0  0  0  0
   -0.4951   -1.2227    0.8215 C   0  0  0  0  0  0  0  0  0  0  0  0
   -0.4197    0.0119    0.1614 C   0  0  0  0  0  0  0  0  0  0  0  0
    0.4246    1.0344    1.0510 C   0  0  0  0  0  0  0  0  0  0  0  0
   -1.6433    0.6572   -0.3549 C   0  0  0  0  0  0  0  0  0  0  0  0
   -0.8020    1.2274   -1.5134 C   0  0  0  0  0  0  0  0  0  0  0  0
    0.2107    0.1492   -1.2242 C   0  0  0  0  0  0  0  0  0  0  0  0
    1.5042    0.6775   -1.1926 O   0  0  0  0  0  0  0  0  0  0  0  0
    2.7009   -2.9490    1.3100 H   0  0  0  0  0  0  0  0  0  0  0  0
   -0.6284   -0.8855    2.0067 H   0  0  0  0  0  0  0  0  0  0  0  0
   -1.2890   -1.9465    0.8469 H   0  0  0  0  0  0  0  0  0  0  0  0
    0.2088    2.0330    0.6782 H   0  0  0  0  0  0  0  0  0  0  0  0
    1.4562    0.6804    1.0244 H   0  0  0  0  0  0  0  0  0  0  0  0
    0.0068    0.8484    2.0553 H   0  0  0  0  0  0  0  0  0  0  0  0
   -2.4244   -0.0004   -0.7697 H   0  0  0  0  0  0  0  0  0  0  0  0
   -2.0929    1.4315    0.3045 H   0  0  0  0  0  0  0  0  0  0  0  0
   -1.2827    1.0787   -2.5089 H   0  0  0  0  0  0  0  0  0  0  0  0
   -0.5229    2.2648   -1.2628 H   0  0  0  0  0  0  0  0  0  0  0  0
    0.1812   -0.7560   -1.8354 H   0  0  0  0  0  0  0  0  0  0  0  0
    2.0974    0.1606   -1.8308 H   0  0  0  0  0  0  0  0  0  0  0  0
  1  2  3  0
  2  3  1  0
  3  4  1  0
  4  5  1  0
  4  6  1  0
  6  7  1  0
  7  8  1  0
  8  9  1  0
  8  4  1  0
  1 10  1  0
  3 11  1  0
  3 12  1  0
  5 13  1  0
  5 14  1  0
  5 15  1  0
  6 16  1  0
  6 17  1  0
  7 18  1  0
  7 19  1  0
  8 20  1  0
  9 21  1  0
M  END
