
     RDKit          3D

 16 15  0  0  0  0  0  0  0  0999 V2000
    1.6139   -1.2028    1.7002 C   0  0  0  0  0  0  0  0  0  0  0  0
    0.6860   -0.7977    1.3179 C   0  0  0  0  0  0  0  0  0  0  0  0
   -0.3957   -0.3227    0.8556 C   0  0  0  0  0  0  0  0  0  0  0  0
    0.1109    1.2410    0.5202 C   0  0  0  0  0  0  0  0  0  0  0  0
   -0.7094    2.2224    0.3217 O   0  0  0  0  0  0  0  0  0  0  0  0
   -0.2125   -0.8685   -0.6959 C   0  0  0  0  0  0  0  0  0  0  0  0
   -1.0021   -0.5372   -1.7672 C   0  0  0  0  0  0  0  0  0  0  0  0
    0.8074   -1.6184   -0.6008 O   0  0  0  0  0  0  0  0  0  0  0  0
    3.0411   -1.7991    2.2690 H   0  0  0  0  0  0  0  0  0  0  0  0
   -1.3497   -0.3823    0.9773 H   0  0  0  0  0  0  0  0  0  0  0  0
    0.9855    1.4099    1.1617 H   0  0  0  0  0  0  0  0  0  0  0  0
    0.7257    1.1311   -0.5197 H   0  0  0  0  0  0  0  0  0  0  0  0
   -0.8001    2.8424    1.0677 H   0  0  0  0  0  0  0  0  0  0  0  0
   -1.7845   -1.2888   -2.0995 H   0  0  0  0  0  0  0  0  0  0  0  0
   -0.2447   -0.5153   -2.7034 H   0  0  0  0  0  0  0  0  0  0  0  0
   -1.4717    0.4861   -1.8048 H   0  0  0  0  0  0  0  0  0  0  0  0
  1  2  3  0
  2  3  1  0
  3  4  1  0
  4  5  1  0
  3  6  1  0
  6  7  1  0
  6  8  2  0
  1  9  1  0
  3 10  1  0
  4 11  1  0
  4 12  1  0
  5 13  1  0
  7 14  1  0
  7 15  1  0
  7 16  1  0
M  END
