
     RDKit          3D

 20 20  0  0  0  0  0  0  0  0999 V2000
    2.7966    0.1597    1.2682 C   0  0  0  0  0  0  0  0  0  0  0  0
    1.8558   -0.2837    0.6582 C   0  0  0  0  0  0  0  0  0  0  0  0
    0.7077   -0.8017   -0.0974 C   0  0  0  0  0  0  0  0  0  0  0  0
   -0.3099   -1.5321    0.7593 C   0  0  0  0  0  0  0  0  0  0  0  0
   -1.3951   -0.7824   -0.0205 C   0  0  0  0  0  0  0  0  0  0  0  0
   -0.3442    0.2357   -0.3696 C   0  0  0  0  0  0  0  0  0  0  0  0
   -0.3949    0.6519   -1.8216 C   0  0  0  0  0  0  0  0  0  0  0  0
   -0.3777    1.3880    0.6055 C   0  0  0  0  0  0  0  0  0  0  0  0
    3.6307    0.5637    1.7934 H   0  0  0  0  0  0  0  0  0  0  0  0
    0.9789   -1.3627   -1.0148 H   0  0  0  0  0  0  0  0  0  0  0  0
   -0.2348   -1.1843    1.8107 H   0  0  0  0  0  0  0  0  0  0  0  0
   -0.3813   -2.6093    0.6096 H   0  0  0  0  0  0  0  0  0  0  0  0
   -2.1829   -0.4570    0.6739 H   0  0  0  0  0  0  0  0  0  0  0  0
   -1.7329   -1.4021   -0.8841 H   0  0  0  0  0  0  0  0  0  0  0  0
   -1.4734    0.9200   -2.0260 H   0  0  0  0  0  0  0  0  0  0  0  0
    0.1837    1.5784   -2.0106 H   0  0  0  0  0  0  0  0  0  0  0  0
   -0.0608   -0.1380   -2.5001 H   0  0  0  0  0  0  0  0  0  0  0  0
    0.2547    2.2377    0.2816 H   0  0  0  0  0  0  0  0  0  0  0  0
   -1.4371    1.7305    0.6604 H   0  0  0  0  0  0  0  0  0  0  0  0
   -0.0829    1.0877    1.6240 H   0  0  0  0  0  0  0  0  0  0  0  0
  1  2  3  0
  2  3  1  0
  3  4  1  0
  4  5  1  0
  5  6  1  0
  6  7  1  0
  6  8  1  0
  6  3  1  0
  1  9  1  0
  3 10  1  0
  4 11  1  0
  4 12  1  0
  5 13  1  0
  5 14  1  0
  7 15  1  0
  7 16  1  0
  7 17  1  0
  8 18  1  0
  8 19  1  0
  8 20  1  0
M  END
