
     RDKit          3D

 17 16  0  0  0  0  0  0  0  0999 V2000
    2.4077   -1.5132   -1.9296 C   0  0  0  0  0  0  0  0  0  0  0  0
    1.6152   -0.8976   -1.3026 C   0  0  0  0  0  0  0  0  0  0  0  0
    0.7541   -0.2239   -0.5930 C   0  0  0  0  0  0  0  0  0  0  0  0
    0.9555    1.2233   -0.8219 C   0  0  0  0  0  0  0  0  0  0  0  0
    1.1177    2.4940   -1.0054 C   0  0  0  0  0  0  0  0  0  0  0  0
   -0.3122   -0.6741    0.2145 C   0  0  0  0  0  0  0  0  0  0  0  0
   -1.2448    0.3484    0.6203 C   0  0  0  0  0  0  0  0  0  0  0  0
   -2.3841   -0.2650    1.4599 C   0  0  0  0  0  0  0  0  0  0  0  0
   -1.3190    1.5076    0.4739 O   0  0  0  0  0  0  0  0  0  0  0  0
    3.4331   -2.3053   -2.7317 H   0  0  0  0  0  0  0  0  0  0  0  0
    1.7378   -0.1158    0.4488 H   0  0  0  0  0  0  0  0  0  0  0  0
    1.2873    3.6809   -1.1656 H   0  0  0  0  0  0  0  0  0  0  0  0
    0.1836   -0.7558    1.4356 H   0  0  0  0  0  0  0  0  0  0  0  0
   -0.4352   -1.7386    0.1224 H   0  0  0  0  0  0  0  0  0  0  0  0
   -3.1868    0.5132    1.2976 H   0  0  0  0  0  0  0  0  0  0  0  0
   -2.6232   -1.2661    1.2799 H   0  0  0  0  0  0  0  0  0  0  0  0
   -1.9866   -0.0120    2.5118 H   0  0  0  0  0  0  0  0  0  0  0  0
  1  2  3  0
  2  3  1  0
  3  4  1  0
  4  5  3  0
  3  6  1  0
  6  7  1  0
  7  8  1  0
  7  9  2  0
  1 10  1  0
  3 11  1  0
  5 12  1  0
  6 13  1  0
  6 14  1  0
  8 15  1  0
  8 16  1  0
  8 17  1  0
M  END
