
     RDKit          3D

 11 11  0  0  0  0  0  0  0  0999 V2000
    3.6732    0.2344    0.0091 C   0  0  0  0  0  0  0  0  0  0  0  0
    2.6468    0.1179    0.0358 C   0  0  0  0  0  0  0  0  0  0  0  0
    1.1108   -0.0585    0.0487 C   0  0  0  0  0  0  0  0  0  0  0  0
    0.1368   -0.1562    0.0662 C   0  0  0  0  0  0  0  0  0  0  0  0
   -1.4349   -0.3332    0.1128 C   0  0  0  0  0  0  0  0  0  0  0  0
   -2.1730    0.2838   -0.9059 C   0  0  0  0  0  0  0  0  0  0  0  0
   -1.6639   -0.9361   -1.2835 O   0  0  0  0  0  0  0  0  0  0  0  0
    4.7657    0.3537   -0.0255 H   0  0  0  0  0  0  0  0  0  0  0  0
   -1.7791   -0.9797    0.8883 H   0  0  0  0  0  0  0  0  0  0  0  0
   -3.3488    0.1599   -0.9433 H   0  0  0  0  0  0  0  0  0  0  0  0
   -1.9335    1.3140   -1.1360 H   0  0  0  0  0  0  0  0  0  0  0  0
  1  2  3  0
  2  3  1  0
  3  4  3  0
  4  5  1  0
  5  6  1  0
  6  7  1  0
  7  5  1  0
  1  8  1  0
  5  9  1  0
  6 10  1  0
  6 11  1  0
M  END
