
     RDKit          3D

 13 12  0  0  0  0  0  0  0  0999 V2000
    3.2566    0.3783   -0.1817 C   0  0  0  0  0  0  0  0  0  0  0  0
    1.9420   -0.2319   -0.2011 C   0  0  0  0  0  0  0  0  0  0  0  0
    0.9054   -0.7056   -0.2306 C   0  0  0  0  0  0  0  0  0  0  0  0
   -0.3122    0.0813   -0.8411 C   0  0  0  0  0  0  0  0  0  0  0  0
   -0.0909    0.6058   -1.8573 O   0  0  0  0  0  0  0  0  0  0  0  0
   -1.5133   -0.0212    0.1154 C   0  0  0  0  0  0  0  0  0  0  0  0
   -1.4308   -1.3903    0.3985 O   0  0  0  0  0  0  0  0  0  0  0  0
   -2.4098    0.6496    0.6478 C   0  0  0  0  0  0  0  0  0  0  0  0
   -3.1989    1.7741    0.4214 O   0  0  0  0  0  0  0  0  0  0  0  0
    4.3910    0.9172   -0.1732 H   0  0  0  0  0  0  0  0  0  0  0  0
    0.5730   -0.6481    1.0096 H   0  0  0  0  0  0  0  0  0  0  0  0
    0.7309   -1.8531   -0.1957 H   0  0  0  0  0  0  0  0  0  0  0  0
   -2.8431    0.4440    1.7560 H   0  0  0  0  0  0  0  0  0  0  0  0
  1  2  3  0
  2  3  1  0
  3  4  1  0
  4  5  2  0
  4  6  1  0
  6  7  2  0
  6  8  1  0
  8  9  2  0
  1 10  1  0
  3 11  1  0
  3 12  1  0
  8 13  1  0
M  END
