
     RDKit          3D

 19 21  0  0  0  0  0  0  0  0999 V2000
   -2.2041    0.9206    1.7051 C   0  0  0  0  0  0  0  0  0  0  0  0
   -1.2891    0.8612    0.9855 C   0  0  0  0  0  0  0  0  0  0  0  0
   -0.1589    0.7754    0.0903 C   0  0  0  0  0  0  0  0  0  0  0  0
    0.8393    1.8679    0.1021 C   0  0  0  0  0  0  0  0  0  0  0  0
    1.2125    0.6299    0.7883 C   0  0  0  0  0  0  0  0  0  0  0  0
    1.4757   -0.6488    0.0232 C   0  0  0  0  0  0  0  0  0  0  0  0
    0.1144   -0.5130   -0.5833 C   0  0  0  0  0  0  0  0  0  0  0  0
   -0.8485   -1.5802   -0.7720 C   0  0  0  0  0  0  0  0  0  0  0  0
   -0.1946   -0.8625   -1.9632 C   0  0  0  0  0  0  0  0  0  0  0  0
   -3.0933    0.9680    2.3829 H   0  0  0  0  0  0  0  0  0  0  0  0
    1.2580    2.1535   -0.8724 H   0  0  0  0  0  0  0  0  0  0  0  0
    0.5792    2.7288    0.7810 H   0  0  0  0  0  0  0  0  0  0  0  0
    1.2124    0.5866    1.9041 H   0  0  0  0  0  0  0  0  0  0  0  0
    2.3191   -0.6302   -0.6784 H   0  0  0  0  0  0  0  0  0  0  0  0
    1.4747   -1.5365    0.7261 H   0  0  0  0  0  0  0  0  0  0  0  0
   -1.9417   -1.3677   -0.6285 H   0  0  0  0  0  0  0  0  0  0  0  0
   -0.4995   -2.6233   -0.5342 H   0  0  0  0  0  0  0  0  0  0  0  0
    0.5661   -1.4785   -2.5160 H   0  0  0  0  0  0  0  0  0  0  0  0
   -0.8216   -0.2511   -2.6265 H   0  0  0  0  0  0  0  0  0  0  0  0
  1  2  3  0
  2  3  1  0
  3  4  1  0
  4  5  1  0
  5  6  1  0
  6  7  1  0
  7  8  1  0
  8  9  1  0
  5  3  1  0
  9  7  1  0
  7  3  1  0
  1 10  1  0
  4 11  1  0
  4 12  1  0
  5 13  1  0
  6 14  1  0
  6 15  1  0
  8 16  1  0
  8 17  1  0
  9 18  1  0
  9 19  1  0
M  END
