
     RDKit          3D

 17 18  0  0  0  0  0  0  0  0999 V2000
    2.4577    1.5833    0.9369 C   0  0  0  0  0  0  0  0  0  0  0  0
    1.5882    0.8723    0.4966 C   0  0  0  0  0  0  0  0  0  0  0  0
    0.5641    0.0023   -0.0297 C   0  0  0  0  0  0  0  0  0  0  0  0
    0.9711   -1.0356   -0.9890 C   0  0  0  0  0  0  0  0  0  0  0  0
    0.1620    0.0914   -1.4795 C   0  0  0  0  0  0  0  0  0  0  0  0
   -1.2785    0.0741   -1.1357 C   0  0  0  0  0  0  0  0  0  0  0  0
   -2.2881   -0.0497   -1.7826 O   0  0  0  0  0  0  0  0  0  0  0  0
   -0.8931    0.2674    0.2722 C   0  0  0  0  0  0  0  0  0  0  0  0
   -1.5301   -0.6311    1.2779 C   0  0  0  0  0  0  0  0  0  0  0  0
    3.2245    2.2201    1.3095 H   0  0  0  0  0  0  0  0  0  0  0  0
    0.4366   -2.0191   -0.8751 H   0  0  0  0  0  0  0  0  0  0  0  0
    2.0283   -1.1409   -1.2024 H   0  0  0  0  0  0  0  0  0  0  0  0
    0.5744    0.9019   -2.1084 H   0  0  0  0  0  0  0  0  0  0  0  0
   -1.0067    1.3514    0.5480 H   0  0  0  0  0  0  0  0  0  0  0  0
   -1.9110   -1.5761    0.8571 H   0  0  0  0  0  0  0  0  0  0  0  0
   -2.3347   -0.0632    1.8289 H   0  0  0  0  0  0  0  0  0  0  0  0
   -0.7647   -0.8485    2.0752 H   0  0  0  0  0  0  0  0  0  0  0  0
  1  2  3  0
  2  3  1  0
  3  4  1  0
  4  5  1  0
  5  6  1  0
  6  7  2  0
  6  8  1  0
  8  9  1  0
  5  3  1  0
  8  3  1  0
  1 10  1  0
  4 11  1  0
  4 12  1  0
  5 13  1  0
  8 14  1  0
  9 15  1  0
  9 16  1  0
  9 17  1  0
M  END
