
     RDKit          3D

 19 19  0  0  0  0  0  0  0  0999 V2000
    1.9519    2.2064    0.3475 C   0  0  0  0  0  0  0  0  0  0  0  0
    1.1909    1.4923    0.9627 C   0  0  0  0  0  0  0  0  0  0  0  0
    0.2884    0.6210    1.7218 C   0  0  0  0  0  0  0  0  0  0  0  0
   -0.2177   -0.4652    0.8001 C   0  0  0  0  0  0  0  0  0  0  0  0
    0.9547   -1.2547    0.2844 C   0  0  0  0  0  0  0  0  0  0  0  0
    1.9454   -1.7328    0.7682 O   0  0  0  0  0  0  0  0  0  0  0  0
    0.3691   -1.1927   -1.0736 C   0  0  0  0  0  0  0  0  0  0  0  0
   -0.4862   -0.0175   -0.6086 C   0  0  0  0  0  0  0  0  0  0  0  0
   -1.8856   -0.1844   -1.1084 C   0  0  0  0  0  0  0  0  0  0  0  0
    2.6116    2.8443   -0.2083 H   0  0  0  0  0  0  0  0  0  0  0  0
   -0.5662    1.2253    2.1105 H   0  0  0  0  0  0  0  0  0  0  0  0
    0.8650    0.1422    2.5263 H   0  0  0  0  0  0  0  0  0  0  0  0
   -0.9802   -1.0978    1.2735 H   0  0  0  0  0  0  0  0  0  0  0  0
   -0.2398   -2.1017   -1.3272 H   0  0  0  0  0  0  0  0  0  0  0  0
    1.0283   -0.8783   -1.8867 H   0  0  0  0  0  0  0  0  0  0  0  0
   -0.0143    0.9460   -0.8361 H   0  0  0  0  0  0  0  0  0  0  0  0
   -1.9309   -0.5859   -2.1483 H   0  0  0  0  0  0  0  0  0  0  0  0
   -2.5290   -0.8001   -0.4603 H   0  0  0  0  0  0  0  0  0  0  0  0
   -2.3553    0.8334   -1.1375 H   0  0  0  0  0  0  0  0  0  0  0  0
  1  2  3  0
  2  3  1  0
  3  4  1  0
  4  5  1  0
  5  6  2  0
  5  7  1  0
  7  8  1  0
  8  9  1  0
  8  4  1  0
  1 10  1  0
  3 11  1  0
  3 12  1  0
  4 13  1  0
  7 14  1  0
  7 15  1  0
  8 16  1  0
  9 17  1  0
  9 18  1  0
  9 19  1  0
M  END
