
     RDKit          3D

 17 18  0  0  0  0  0  0  0  0999 V2000
    1.9857    2.4494   -1.0350 C   0  0  0  0  0  0  0  0  0  0  0  0
    1.9915    1.3442   -0.5866 C   0  0  0  0  0  0  0  0  0  0  0  0
    2.0221   -0.0394   -0.0365 C   0  0  0  0  0  0  0  0  0  0  0  0
    0.8892   -0.3453    0.6729 O   0  0  0  0  0  0  0  0  0  0  0  0
   -0.2771   -0.2662   -0.0490 C   0  0  0  0  0  0  0  0  0  0  0  0
   -1.4654    0.3420    0.5953 C   0  0  0  0  0  0  0  0  0  0  0  0
   -2.2613   -0.9236    0.4206 C   0  0  0  0  0  0  0  0  0  0  0  0
   -2.1506   -1.6576   -0.7460 O   0  0  0  0  0  0  0  0  0  0  0  0
   -0.9831   -1.6056   -0.0242 C   0  0  0  0  0  0  0  0  0  0  0  0
    1.9789    3.4466   -1.4229 H   0  0  0  0  0  0  0  0  0  0  0  0
    2.1644   -0.7025   -0.9320 H   0  0  0  0  0  0  0  0  0  0  0  0
    2.9270   -0.1431    0.5940 H   0  0  0  0  0  0  0  0  0  0  0  0
   -0.0707    0.0450   -1.0833 H   0  0  0  0  0  0  0  0  0  0  0  0
   -1.9206    1.2408    0.1191 H   0  0  0  0  0  0  0  0  0  0  0  0
   -1.3087    0.5665    1.6652 H   0  0  0  0  0  0  0  0  0  0  0  0
   -2.8714   -1.3502    1.2200 H   0  0  0  0  0  0  0  0  0  0  0  0
   -0.6499   -2.4009    0.6282 H   0  0  0  0  0  0  0  0  0  0  0  0
  1  2  3  0
  2  3  1  0
  3  4  1  0
  4  5  1  0
  5  6  1  0
  6  7  1  0
  7  8  1  0
  8  9  1  0
  9  5  1  0
  9  7  1  0
  1 10  1  0
  3 11  1  0
  3 12  1  0
  5 13  1  0
  6 14  1  0
  6 15  1  0
  7 16  1  0
  9 17  1  0
M  END
