
     RDKit          3D

 13 12  0  0  0  0  0  0  0  0999 V2000
    1.8827    2.2745    0.1199 C   0  0  0  0  0  0  0  0  0  0  0  0
    1.4102    1.2385    0.3743 C   0  0  0  0  0  0  0  0  0  0  0  0
    0.8413    0.0070    0.6992 C   0  0  0  0  0  0  0  0  0  0  0  0
    1.1450   -0.5229    1.8160 O   0  0  0  0  0  0  0  0  0  0  0  0
   -0.1017   -0.6500   -0.2519 C   0  0  0  0  0  0  0  0  0  0  0  0
   -1.0617    0.0007   -0.6879 C   0  0  0  0  0  0  0  0  0  0  0  0
   -2.0632    0.6973   -1.1558 C   0  0  0  0  0  0  0  0  0  0  0  0
   -0.5641   -1.9301    0.5250 C   0  0  0  0  0  0  0  0  0  0  0  0
   -1.4572   -1.8237    1.2621 O   0  0  0  0  0  0  0  0  0  0  0  0
    2.3492    3.3066   -0.1210 H   0  0  0  0  0  0  0  0  0  0  0  0
    0.6273   -1.0809   -1.1020 H   0  0  0  0  0  0  0  0  0  0  0  0
   -2.9908    1.3174   -1.5886 H   0  0  0  0  0  0  0  0  0  0  0  0
   -0.0170   -2.8344    0.3191 H   0  0  0  0  0  0  0  0  0  0  0  0
  1  2  3  0
  2  3  1  0
  3  4  2  0
  3  5  1  0
  5  6  1  0
  6  7  3  0
  5  8  1  0
  8  9  2  0
  1 10  1  0
  5 11  1  0
  7 12  1  0
  8 13  1  0
M  END
