
     RDKit          3D

 19 19  0  0  0  0  0  0  0  0999 V2000
    3.5500    0.1693   -0.6851 C   0  0  0  0  0  0  0  0  0  0  0  0
    2.5080   -0.0456   -0.1653 C   0  0  0  0  0  0  0  0  0  0  0  0
    1.2323   -0.3099    0.4946 C   0  0  0  0  0  0  0  0  0  0  0  0
    0.2071    0.8238    0.3252 C   0  0  0  0  0  0  0  0  0  0  0  0
   -0.8200   -0.2848    0.2140 C   0  0  0  0  0  0  0  0  0  0  0  0
   -1.1753   -0.7684    1.4566 O   0  0  0  0  0  0  0  0  0  0  0  0
   -1.9866    0.0096   -0.6817 C   0  0  0  0  0  0  0  0  0  0  0  0
   -2.7814    0.9569   -0.0817 O   0  0  0  0  0  0  0  0  0  0  0  0
    0.2903   -1.1058   -0.4221 C   0  0  0  0  0  0  0  0  0  0  0  0
    4.4999    0.3470   -1.1643 H   0  0  0  0  0  0  0  0  0  0  0  0
    1.2811   -0.7162    1.5093 H   0  0  0  0  0  0  0  0  0  0  0  0
    0.1391    1.4570    1.2075 H   0  0  0  0  0  0  0  0  0  0  0  0
    0.4355    1.3374   -0.6288 H   0  0  0  0  0  0  0  0  0  0  0  0
   -1.5240   -0.0604    2.0554 H   0  0  0  0  0  0  0  0  0  0  0  0
   -1.6456    0.2873   -1.6925 H   0  0  0  0  0  0  0  0  0  0  0  0
   -2.5795   -0.9210   -0.7717 H   0  0  0  0  0  0  0  0  0  0  0  0
   -2.2845    1.8120    0.0937 H   0  0  0  0  0  0  0  0  0  0  0  0
    0.3882   -0.8077   -1.4780 H   0  0  0  0  0  0  0  0  0  0  0  0
    0.2655   -2.1806   -0.2072 H   0  0  0  0  0  0  0  0  0  0  0  0
  1  2  3  0
  2  3  1  0
  3  4  1  0
  4  5  1  0
  5  6  1  0
  5  7  1  0
  7  8  1  0
  5  9  1  0
  9  3  1  0
  1 10  1  0
  3 11  1  0
  4 12  1  0
  4 13  1  0
  6 14  1  0
  7 15  1  0
  7 16  1  0
  8 17  1  0
  9 18  1  0
  9 19  1  0
M  END
