
     RDKit          3D

 19 19  0  0  0  0  0  0  0  0999 V2000
    2.7899   -2.1858   -1.4637 C   0  0  0  0  0  0  0  0  0  0  0  0
    2.2877   -1.1877   -1.4384 C   0  0  0  0  0  0  0  0  0  0  0  0
    1.6837    0.0121   -1.3839 C   0  0  0  0  0  0  0  0  0  0  0  0
    0.9531    0.1742   -0.2623 O   0  0  0  0  0  0  0  0  0  0  0  0
    0.1398    1.2351   -0.0689 C   0  0  0  0  0  0  0  0  0  0  0  0
   -0.6699    1.0626    1.2452 C   0  0  0  0  0  0  0  0  0  0  0  0
   -1.5019   -0.2095    1.1694 C   0  0  0  0  0  0  0  0  0  0  0  0
   -2.3316   -0.6088    2.3424 C   0  0  0  0  0  0  0  0  0  0  0  0
   -2.8978    0.0634    1.2419 O   0  0  0  0  0  0  0  0  0  0  0  0
    3.3907   -3.4174   -1.5109 H   0  0  0  0  0  0  0  0  0  0  0  0
    1.0470    0.3105   -2.3144 H   0  0  0  0  0  0  0  0  0  0  0  0
    2.4423    0.8993   -1.3626 H   0  0  0  0  0  0  0  0  0  0  0  0
    0.7326    2.1856    0.1351 H   0  0  0  0  0  0  0  0  0  0  0  0
   -0.5603    1.4756   -0.9162 H   0  0  0  0  0  0  0  0  0  0  0  0
    0.0959    0.9007    2.0392 H   0  0  0  0  0  0  0  0  0  0  0  0
   -1.3505    1.9104    1.4028 H   0  0  0  0  0  0  0  0  0  0  0  0
   -1.2459   -0.9762    0.4245 H   0  0  0  0  0  0  0  0  0  0  0  0
   -2.3591    0.0412    3.2637 H   0  0  0  0  0  0  0  0  0  0  0  0
   -2.6458   -1.6855    2.4540 H   0  0  0  0  0  0  0  0  0  0  0  0
  1  2  3  0
  2  3  1  0
  3  4  1  0
  4  5  1  0
  5  6  1  0
  6  7  1  0
  7  8  1  0
  8  9  1  0
  9  7  1  0
  1 10  1  0
  3 11  1  0
  3 12  1  0
  5 13  1  0
  5 14  1  0
  6 15  1  0
  6 16  1  0
  7 17  1  0
  8 18  1  0
  8 19  1  0
M  END
