
     RDKit          3D

 15 16  0  0  0  0  0  0  0  0999 V2000
    2.7965   -0.0710   -1.1377 C   0  0  0  0  0  0  0  0  0  0  0  0
    1.9064   -0.2240   -0.3384 C   0  0  0  0  0  0  0  0  0  0  0  0
    0.8257   -0.4214    0.6416 C   0  0  0  0  0  0  0  0  0  0  0  0
    0.1481   -1.6172    0.3796 O   0  0  0  0  0  0  0  0  0  0  0  0
   -1.0031   -1.0072   -0.0881 C   0  0  0  0  0  0  0  0  0  0  0  0
   -0.9343    0.0666   -1.1067 C   0  0  0  0  0  0  0  0  0  0  0  0
   -0.4270    0.3133    0.2604 C   0  0  0  0  0  0  0  0  0  0  0  0
   -1.1446    1.1317    1.2374 C   0  0  0  0  0  0  0  0  0  0  0  0
   -1.0025    0.9677    2.4372 O   0  0  0  0  0  0  0  0  0  0  0  0
    3.5687    0.0730   -1.8186 H   0  0  0  0  0  0  0  0  0  0  0  0
    1.1682   -0.2898    1.6800 H   0  0  0  0  0  0  0  0  0  0  0  0
   -1.9720   -1.3561    0.2837 H   0  0  0  0  0  0  0  0  0  0  0  0
   -0.1922    0.0399   -1.9291 H   0  0  0  0  0  0  0  0  0  0  0  0
   -1.9113    0.4834   -1.4181 H   0  0  0  0  0  0  0  0  0  0  0  0
   -1.8266    1.9111    0.9167 H   0  0  0  0  0  0  0  0  0  0  0  0
  1  2  3  0
  2  3  1  0
  3  4  1  0
  4  5  1  0
  5  6  1  0
  6  7  1  0
  7  8  1  0
  8  9  2  0
  7  3  1  0
  7  5  1  0
  1 10  1  0
  3 11  1  0
  5 12  1  0
  6 13  1  0
  6 14  1  0
  8 15  1  0
M  END
