
     RDKit          3D

 17 17  0  0  0  0  0  0  0  0999 V2000
    3.0481    0.5242    1.3344 C   0  0  0  0  0  0  0  0  0  0  0  0
    2.0706    0.3695    0.6162 C   0  0  0  0  0  0  0  0  0  0  0  0
    0.8860    0.1823   -0.2240 C   0  0  0  0  0  0  0  0  0  0  0  0
    0.1810   -1.0688    0.2587 C   0  0  0  0  0  0  0  0  0  0  0  0
   -1.1761   -1.2363   -0.3677 C   0  0  0  0  0  0  0  0  0  0  0  0
   -1.9890    0.0042   -0.3218 C   0  0  0  0  0  0  0  0  0  0  0  0
   -1.4640    1.2176   -0.2396 C   0  0  0  0  0  0  0  0  0  0  0  0
   -0.0102    1.3521   -0.1912 C   0  0  0  0  0  0  0  0  0  0  0  0
    0.4746    2.4973   -0.1200 O   0  0  0  0  0  0  0  0  0  0  0  0
    3.9027    0.6418    1.9528 H   0  0  0  0  0  0  0  0  0  0  0  0
    1.2348    0.0173   -1.2561 H   0  0  0  0  0  0  0  0  0  0  0  0
    0.7933   -1.9451   -0.0080 H   0  0  0  0  0  0  0  0  0  0  0  0
    0.0556   -0.9526    1.3542 H   0  0  0  0  0  0  0  0  0  0  0  0
   -1.6987   -2.0402    0.2150 H   0  0  0  0  0  0  0  0  0  0  0  0
   -1.1151   -1.5700   -1.4178 H   0  0  0  0  0  0  0  0  0  0  0  0
   -3.0831   -0.0869   -0.3576 H   0  0  0  0  0  0  0  0  0  0  0  0
   -2.1105    2.0936   -0.2092 H   0  0  0  0  0  0  0  0  0  0  0  0
  1  2  3  0
  2  3  1  0
  3  4  1  0
  4  5  1  0
  5  6  1  0
  6  7  2  0
  7  8  1  0
  8  9  2  0
  8  3  1  0
  1 10  1  0
  3 11  1  0
  4 12  1  0
  4 13  1  0
  5 14  1  0
  5 15  1  0
  6 16  1  0
  7 17  1  0
M  END
