
     RDKit          3D

 20 20  0  0  0  0  0  0  0  0999 V2000
    2.6939   -1.2141    0.8721 C   0  0  0  0  0  0  0  0  0  0  0  0
    1.7147   -0.5857    0.5519 C   0  0  0  0  0  0  0  0  0  0  0  0
    0.5529    0.1894    0.1710 C   0  0  0  0  0  0  0  0  0  0  0  0
    0.6560    1.6331    0.4838 C   0  0  0  0  0  0  0  0  0  0  0  0
    0.1803   -0.1476   -1.2790 C   0  0  0  0  0  0  0  0  0  0  0  0
   -0.4695   -1.3972   -0.6644 C   0  0  0  0  0  0  0  0  0  0  0  0
   -0.7909   -0.4665    0.5170 C   0  0  0  0  0  0  0  0  0  0  0  0
   -1.9371    0.4194    0.1273 C   0  0  0  0  0  0  0  0  0  0  0  0
    3.5651   -1.7523    1.1502 H   0  0  0  0  0  0  0  0  0  0  0  0
    1.7161    1.8692    0.7185 H   0  0  0  0  0  0  0  0  0  0  0  0
    0.3528    2.3149   -0.3240 H   0  0  0  0  0  0  0  0  0  0  0  0
    0.0772    1.8326    1.4190 H   0  0  0  0  0  0  0  0  0  0  0  0
    1.0285   -0.3521   -1.9358 H   0  0  0  0  0  0  0  0  0  0  0  0
   -0.6354    0.4860   -1.6877 H   0  0  0  0  0  0  0  0  0  0  0  0
    0.2690   -2.1812   -0.3933 H   0  0  0  0  0  0  0  0  0  0  0  0
   -1.3632   -1.7417   -1.2081 H   0  0  0  0  0  0  0  0  0  0  0  0
   -0.8315   -0.9539    1.4875 H   0  0  0  0  0  0  0  0  0  0  0  0
   -1.6048    1.4593   -0.1322 H   0  0  0  0  0  0  0  0  0  0  0  0
   -2.4726    0.0575   -0.7837 H   0  0  0  0  0  0  0  0  0  0  0  0
   -2.7015    0.5312    0.9100 H   0  0  0  0  0  0  0  0  0  0  0  0
  1  2  3  0
  2  3  1  0
  3  4  1  0
  3  5  1  0
  5  6  1  0
  6  7  1  0
  7  8  1  0
  7  3  1  0
  1  9  1  0
  4 10  1  0
  4 11  1  0
  4 12  1  0
  5 13  1  0
  5 14  1  0
  6 15  1  0
  6 16  1  0
  7 17  1  0
  8 18  1  0
  8 19  1  0
  8 20  1  0
M  END
