
     RDKit          3D

 21 21  0  0  0  0  0  0  0  0999 V2000
   -0.4856    2.9400    1.2598 C   0  0  0  0  0  0  0  0  0  0  0  0
   -0.5915    1.7990    0.9087 C   0  0  0  0  0  0  0  0  0  0  0  0
   -0.7229    0.4062    0.5064 C   0  0  0  0  0  0  0  0  0  0  0  0
   -1.3599   -0.3516    1.6528 C   0  0  0  0  0  0  0  0  0  0  0  0
    0.6215   -0.1739    0.1858 C   0  0  0  0  0  0  0  0  0  0  0  0
    1.5245   -0.1518    1.2499 O   0  0  0  0  0  0  0  0  0  0  0  0
    0.5359   -1.5626   -0.4906 C   0  0  0  0  0  0  0  0  0  0  0  0
    1.1394   -0.3377   -1.1626 C   0  0  0  0  0  0  0  0  0  0  0  0
    0.4065    0.0904   -2.3972 C   0  0  0  0  0  0  0  0  0  0  0  0
   -0.3802    3.9458    1.5846 H   0  0  0  0  0  0  0  0  0  0  0  0
   -1.4323    0.3116   -0.3600 H   0  0  0  0  0  0  0  0  0  0  0  0
   -2.4232   -0.5887    1.4526 H   0  0  0  0  0  0  0  0  0  0  0  0
   -1.2226    0.1779    2.6201 H   0  0  0  0  0  0  0  0  0  0  0  0
   -0.8072   -1.3201    1.7658 H   0  0  0  0  0  0  0  0  0  0  0  0
    1.4372   -1.0396    1.7086 H   0  0  0  0  0  0  0  0  0  0  0  0
    1.2063   -2.3511   -0.1395 H   0  0  0  0  0  0  0  0  0  0  0  0
   -0.4476   -1.9129   -0.8226 H   0  0  0  0  0  0  0  0  0  0  0  0
    2.2418   -0.3914   -1.2826 H   0  0  0  0  0  0  0  0  0  0  0  0
    0.6986    1.1032   -2.7470 H   0  0  0  0  0  0  0  0  0  0  0  0
    0.7400   -0.6024   -3.2226 H   0  0  0  0  0  0  0  0  0  0  0  0
   -0.6789    0.0097   -2.2703 H   0  0  0  0  0  0  0  0  0  0  0  0
  1  2  3  0
  2  3  1  0
  3  4  1  0
  3  5  1  0
  5  6  1  0
  5  7  1  0
  7  8  1  0
  8  9  1  0
  8  5  1  0
  1 10  1  0
  3 11  1  0
  4 12  1  0
  4 13  1  0
  4 14  1  0
  6 15  1  0
  7 16  1  0
  7 17  1  0
  8 18  1  0
  9 19  1  0
  9 20  1  0
  9 21  1  0
M  END
