
     RDKit          3D

 21 22  0  0  0  0  0  0  0  0999 V2000
    2.8427   -0.7975    1.6160 C   0  0  0  0  0  0  0  0  0  0  0  0
    2.0757   -1.0305    0.7795 C   0  0  0  0  0  0  0  0  0  0  0  0
    1.1440   -1.3233   -0.2651 C   0  0  0  0  0  0  0  0  0  0  0  0
   -0.2129   -0.7820    0.1753 C   0  0  0  0  0  0  0  0  0  0  0  0
   -1.2673   -1.0383   -0.9296 C   0  0  0  0  0  0  0  0  0  0  0  0
   -1.9842    0.1737   -0.2539 C   0  0  0  0  0  0  0  0  0  0  0  0
   -0.5700    0.6046    0.0394 C   0  0  0  0  0  0  0  0  0  0  0  0
   -0.0515    1.6695   -0.8125 C   0  0  0  0  0  0  0  0  0  0  0  0
   -0.1134    1.7591    0.7537 C   0  0  0  0  0  0  0  0  0  0  0  0
    3.7056   -0.5265    2.5885 H   0  0  0  0  0  0  0  0  0  0  0  0
    1.4340   -1.1017   -1.2419 H   0  0  0  0  0  0  0  0  0  0  0  0
    0.9529   -2.4611   -0.1049 H   0  0  0  0  0  0  0  0  0  0  0  0
   -0.5658   -1.3327    1.0864 H   0  0  0  0  0  0  0  0  0  0  0  0
   -1.8338   -1.9402   -0.8865 H   0  0  0  0  0  0  0  0  0  0  0  0
   -0.8091   -0.7113   -1.8795 H   0  0  0  0  0  0  0  0  0  0  0  0
   -2.5184    0.7728   -0.9770 H   0  0  0  0  0  0  0  0  0  0  0  0
   -2.5609   -0.2094    0.5539 H   0  0  0  0  0  0  0  0  0  0  0  0
    0.9502    1.7412   -1.2419 H   0  0  0  0  0  0  0  0  0  0  0  0
   -0.8030    2.3103   -1.3523 H   0  0  0  0  0  0  0  0  0  0  0  0
    0.9255    1.6550    1.2201 H   0  0  0  0  0  0  0  0  0  0  0  0
   -0.7403    2.5683    1.1322 H   0  0  0  0  0  0  0  0  0  0  0  0
  1  2  3  0
  2  3  1  0
  3  4  1  0
  4  5  1  0
  5  6  1  0
  6  7  1  0
  7  8  1  0
  8  9  1  0
  7  4  1  0
  9  7  1  0
  1 10  1  0
  3 11  1  0
  3 12  1  0
  4 13  1  0
  5 14  1  0
  5 15  1  0
  6 16  1  0
  6 17  1  0
  8 18  1  0
  8 19  1  0
  9 20  1  0
  9 21  1  0
M  END
