
     RDKit          3D

 19 19  0  0  0  0  0  0  0  0999 V2000
    3.7421   -1.1603   -0.0312 C   0  0  0  0  0  0  0  0  0  0  0  0
    2.9581   -1.6376   -0.6068 C   0  0  0  0  0  0  0  0  0  0  0  0
    1.7774   -2.3533   -1.4396 C   0  0  0  0  0  0  0  0  0  0  0  0
    0.6857   -1.5145   -1.1425 C   0  0  0  0  0  0  0  0  0  0  0  0
   -0.3247   -0.7199   -0.8466 C   0  0  0  0  0  0  0  0  0  0  0  0
   -1.4492    0.1974   -0.5103 C   0  0  0  0  0  0  0  0  0  0  0  0
   -0.9353    1.1923    0.4977 C   0  0  0  0  0  0  0  0  0  0  0  0
   -1.6540    2.3885    1.0554 C   0  0  0  0  0  0  0  0  0  0  0  0
   -1.7636    1.1389    1.7780 C   0  0  0  0  0  0  0  0  0  0  0  0
    4.4983   -0.7109    0.5380 H   0  0  0  0  0  0  0  0  0  0  0  0
    1.6951   -3.3082   -0.9408 H   0  0  0  0  0  0  0  0  0  0  0  0
    2.0405   -2.2842   -2.4778 H   0  0  0  0  0  0  0  0  0  0  0  0
   -1.8830    0.6136   -1.4198 H   0  0  0  0  0  0  0  0  0  0  0  0
   -2.2205   -0.5179   -0.0729 H   0  0  0  0  0  0  0  0  0  0  0  0
    0.1926    1.1665    0.6503 H   0  0  0  0  0  0  0  0  0  0  0  0
   -0.9211    3.1781    1.4673 H   0  0  0  0  0  0  0  0  0  0  0  0
   -2.4697    2.8374    0.4895 H   0  0  0  0  0  0  0  0  0  0  0  0
   -2.7823    0.6227    1.7273 H   0  0  0  0  0  0  0  0  0  0  0  0
   -1.1865    0.8716    2.6651 H   0  0  0  0  0  0  0  0  0  0  0  0
  1  2  3  0
  2  3  1  0
  3  4  1  0
  4  5  3  0
  5  6  1  0
  6  7  1  0
  7  8  1  0
  8  9  1  0
  9  7  1  0
  1 10  1  0
  3 11  1  0
  3 12  1  0
  6 13  1  0
  6 14  1  0
  7 15  1  0
  8 16  1  0
  8 17  1  0
  9 18  1  0
  9 19  1  0
M  END
