
     RDKit          3D

 19 19  0  0  0  0  0  0  0  0999 V2000
   -3.6417    0.2215   -0.2575 C   0  0  0  0  0  0  0  0  0  0  0  0
   -2.4781    0.1389    0.0502 C   0  0  0  0  0  0  0  0  0  0  0  0
   -1.0692    0.0343    0.4433 C   0  0  0  0  0  0  0  0  0  0  0  0
   -0.3477    1.1983   -0.2130 C   0  0  0  0  0  0  0  0  0  0  0  0
    0.9897    0.9682   -0.4077 O   0  0  0  0  0  0  0  0  0  0  0  0
    1.3956   -0.0934    0.4262 C   0  0  0  0  0  0  0  0  0  0  0  0
    2.8975   -0.0848    0.4243 C   0  0  0  0  0  0  0  0  0  0  0  0
    0.8827   -1.2844   -0.0902 O   0  0  0  0  0  0  0  0  0  0  0  0
   -0.4901   -1.2949    0.0651 C   0  0  0  0  0  0  0  0  0  0  0  0
   -4.6791    0.2870   -0.5378 H   0  0  0  0  0  0  0  0  0  0  0  0
   -1.0620    0.1825    1.5618 H   0  0  0  0  0  0  0  0  0  0  0  0
   -0.5590    2.1062    0.3941 H   0  0  0  0  0  0  0  0  0  0  0  0
   -0.8232    1.3260   -1.2246 H   0  0  0  0  0  0  0  0  0  0  0  0
    0.9708    0.0231    1.4520 H   0  0  0  0  0  0  0  0  0  0  0  0
    3.2071    0.9966    0.4963 H   0  0  0  0  0  0  0  0  0  0  0  0
    3.3114   -0.6461    1.2634 H   0  0  0  0  0  0  0  0  0  0  0  0
    3.2385   -0.4387   -0.5719 H   0  0  0  0  0  0  0  0  0  0  0  0
   -0.7477   -2.0266    0.8646 H   0  0  0  0  0  0  0  0  0  0  0  0
   -0.9957   -1.6138   -0.8810 H   0  0  0  0  0  0  0  0  0  0  0  0
  1  2  3  0
  2  3  1  0
  3  4  1  0
  4  5  1  0
  5  6  1  0
  6  7  1  0
  6  8  1  0
  8  9  1  0
  9  3  1  0
  1 10  1  0
  3 11  1  0
  4 12  1  0
  4 13  1  0
  6 14  1  0
  7 15  1  0
  7 16  1  0
  7 17  1  0
  9 18  1  0
  9 19  1  0
M  END
