
     RDKit          3D

 15 14  0  0  0  0  0  0  0  0999 V2000
    2.4514    3.6994    1.0324 C   0  0  0  0  0  0  0  0  0  0  0  0
    1.9568    2.4394    0.8326 C   0  0  0  0  0  0  0  0  0  0  0  0
    1.4292    1.0404    0.6294 C   0  0  0  0  0  0  0  0  0  0  0  0
    1.0347    0.0143    0.4898 C   0  0  0  0  0  0  0  0  0  0  0  0
    0.5382   -1.2224    0.3339 C   0  0  0  0  0  0  0  0  0  0  0  0
    0.6779   -2.1533    1.1399 O   0  0  0  0  0  0  0  0  0  0  0  0
   -0.2633   -1.4553   -0.9293 C   0  0  0  0  0  0  0  0  0  0  0  0
   -1.5378   -0.7610   -0.9849 C   0  0  0  0  0  0  0  0  0  0  0  0
   -2.3466   -1.1814    0.1250 O   0  0  0  0  0  0  0  0  0  0  0  0
    2.7993    4.6277    1.1799 H   0  0  0  0  0  0  0  0  0  0  0  0
    0.3767   -1.0767   -1.8006 H   0  0  0  0  0  0  0  0  0  0  0  0
   -0.3867   -2.5659   -1.0532 H   0  0  0  0  0  0  0  0  0  0  0  0
   -1.3865    0.3189   -0.8616 H   0  0  0  0  0  0  0  0  0  0  0  0
   -2.0655   -0.9781   -1.9545 H   0  0  0  0  0  0  0  0  0  0  0  0
   -3.2779   -0.7459    0.0751 H   0  0  0  0  0  0  0  0  0  0  0  0
  1  2  3  0
  2  3  1  0
  3  4  3  0
  4  5  1  0
  5  6  2  0
  5  7  1  0
  7  8  1  0
  8  9  1  0
  1 10  1  0
  7 11  1  0
  7 12  1  0
  8 13  1  0
  8 14  1  0
  9 15  1  0
M  END
