
     RDKit          3D

 15 14  0  0  0  0  0  0  0  0999 V2000
    4.6135   -0.0891   -0.7412 C   0  0  0  0  0  0  0  0  0  0  0  0
    3.4714   -0.3367   -0.3942 C   0  0  0  0  0  0  0  0  0  0  0  0
    1.9967   -0.6403    0.0763 C   0  0  0  0  0  0  0  0  0  0  0  0
    0.9806   -0.8303    0.3999 C   0  0  0  0  0  0  0  0  0  0  0  0
   -0.3549   -1.0615    0.8065 C   0  0  0  0  0  0  0  0  0  0  0  0
   -1.5263   -0.3623    0.1941 C   0  0  0  0  0  0  0  0  0  0  0  0
   -1.2583    1.0936    0.1882 O   0  0  0  0  0  0  0  0  0  0  0  0
   -2.3646    1.8684   -0.1900 C   0  0  0  0  0  0  0  0  0  0  0  0
   -3.4789    1.3162   -0.4463 O   0  0  0  0  0  0  0  0  0  0  0  0
    5.4687    0.1078   -0.9898 H   0  0  0  0  0  0  0  0  0  0  0  0
   -0.6542   -2.1721    0.8987 H   0  0  0  0  0  0  0  0  0  0  0  0
   -0.3970   -0.7853    1.9074 H   0  0  0  0  0  0  0  0  0  0  0  0
   -1.8663   -0.6306   -0.7808 H   0  0  0  0  0  0  0  0  0  0  0  0
   -2.4068   -0.4339    0.9313 H   0  0  0  0  0  0  0  0  0  0  0  0
   -2.2236    2.9560   -0.2595 H   0  0  0  0  0  0  0  0  0  0  0  0
  1  2  3  0
  2  3  1  0
  3  4  3  0
  4  5  1  0
  5  6  1  0
  6  7  1  0
  7  8  1  0
  8  9  2  0
  1 10  1  0
  5 11  1  0
  5 12  1  0
  6 13  1  0
  6 14  1  0
  8 15  1  0
M  END
