
     RDKit          3D

 14 14  0  0  0  0  0  0  0  0999 V2000
    2.3588   -0.3002    1.4271 C   0  0  0  0  0  0  0  0  0  0  0  0
    1.5892   -0.5902    0.5543 C   0  0  0  0  0  0  0  0  0  0  0  0
    0.6647   -0.9346   -0.5256 C   0  0  0  0  0  0  0  0  0  0  0  0
   -0.5955   -0.0981   -0.4456 C   0  0  0  0  0  0  0  0  0  0  0  0
   -0.4366    1.3792   -0.5473 C   0  0  0  0  0  0  0  0  0  0  0  0
   -0.2924    2.5751   -0.6154 C   0  0  0  0  0  0  0  0  0  0  0  0
   -1.8055   -0.6392    0.2720 C   0  0  0  0  0  0  0  0  0  0  0  0
   -1.6780   -0.6582   -1.1155 O   0  0  0  0  0  0  0  0  0  0  0  0
    3.0450   -0.0502    2.2270 H   0  0  0  0  0  0  0  0  0  0  0  0
    0.3503   -2.0011   -0.4861 H   0  0  0  0  0  0  0  0  0  0  0  0
    1.1633   -0.8127   -1.5238 H   0  0  0  0  0  0  0  0  0  0  0  0
   -0.1647    3.6184   -0.6930 H   0  0  0  0  0  0  0  0  0  0  0  0
   -2.5387    0.0944    0.6366 H   0  0  0  0  0  0  0  0  0  0  0  0
   -1.6598   -1.5824    0.8353 H   0  0  0  0  0  0  0  0  0  0  0  0
  1  2  3  0
  2  3  1  0
  3  4  1  0
  4  5  1  0
  5  6  3  0
  4  7  1  0
  7  8  1  0
  8  4  1  0
  1  9  1  0
  3 10  1  0
  3 11  1  0
  6 12  1  0
  7 13  1  0
  7 14  1  0
M  END
