
     RDKit          3D

 17 17  0  0  0  0  0  0  0  0999 V2000
    3.3199   -1.9865   -0.6365 C   0  0  0  0  0  0  0  0  0  0  0  0
    2.2043   -1.4045   -0.5278 C   0  0  0  0  0  0  0  0  0  0  0  0
    0.9567   -0.7712   -0.3878 C   0  0  0  0  0  0  0  0  0  0  0  0
    0.2887   -0.2160   -1.4522 C   0  0  0  0  0  0  0  0  0  0  0  0
   -1.0019    0.3798   -0.9393 C   0  0  0  0  0  0  0  0  0  0  0  0
   -0.5835    0.7843    0.4701 C   0  0  0  0  0  0  0  0  0  0  0  0
   -1.6519    1.1555    1.3862 C   0  0  0  0  0  0  0  0  0  0  0  0
    0.1493   -0.4904    0.7849 C   0  0  0  0  0  0  0  0  0  0  0  0
    0.1230   -1.2121    1.8096 O   0  0  0  0  0  0  0  0  0  0  0  0
    4.2725   -2.4948   -0.7460 H   0  0  0  0  0  0  0  0  0  0  0  0
    0.6001   -0.1952   -2.4510 H   0  0  0  0  0  0  0  0  0  0  0  0
   -1.1999    1.2983   -1.5216 H   0  0  0  0  0  0  0  0  0  0  0  0
   -1.8045   -0.3487   -0.9780 H   0  0  0  0  0  0  0  0  0  0  0  0
    0.1761    1.5801    0.3584 H   0  0  0  0  0  0  0  0  0  0  0  0
   -1.2716    1.2889    2.4193 H   0  0  0  0  0  0  0  0  0  0  0  0
   -2.5210    0.4680    1.3378 H   0  0  0  0  0  0  0  0  0  0  0  0
   -2.0560    2.1644    1.0742 H   0  0  0  0  0  0  0  0  0  0  0  0
  1  2  3  0
  2  3  1  0
  3  4  2  0
  4  5  1  0
  5  6  1  0
  6  7  1  0
  6  8  1  0
  8  9  2  0
  8  3  1  0
  1 10  1  0
  4 11  1  0
  5 12  1  0
  5 13  1  0
  6 14  1  0
  7 15  1  0
  7 16  1  0
  7 17  1  0
M  END
