
     RDKit          3D

 17 18  0  0  0  0  0  0  0  0999 V2000
    2.8665    0.2649   -0.8877 C   0  0  0  0  0  0  0  0  0  0  0  0
    2.0705   -0.3077   -0.1785 C   0  0  0  0  0  0  0  0  0  0  0  0
    1.1101   -1.0246    0.6774 C   0  0  0  0  0  0  0  0  0  0  0  0
   -0.2119   -1.4111    0.1536 C   0  0  0  0  0  0  0  0  0  0  0  0
   -1.0479   -0.5304   -0.7121 C   0  0  0  0  0  0  0  0  0  0  0  0
   -0.5526    0.7121   -0.0144 C   0  0  0  0  0  0  0  0  0  0  0  0
   -1.5628    1.7007    0.3581 C   0  0  0  0  0  0  0  0  0  0  0  0
   -1.7566    2.6317   -0.4079 O   0  0  0  0  0  0  0  0  0  0  0  0
   -0.0478   -0.1823    1.0786 C   0  0  0  0  0  0  0  0  0  0  0  0
    3.5454    0.7696   -1.5144 H   0  0  0  0  0  0  0  0  0  0  0  0
    1.5457   -1.6577    1.4462 H   0  0  0  0  0  0  0  0  0  0  0  0
   -0.7217   -2.2898    0.5885 H   0  0  0  0  0  0  0  0  0  0  0  0
   -0.7547   -0.6085   -1.7777 H   0  0  0  0  0  0  0  0  0  0  0  0
   -2.1399   -0.7063   -0.6219 H   0  0  0  0  0  0  0  0  0  0  0  0
    0.3071    1.2006   -0.5241 H   0  0  0  0  0  0  0  0  0  0  0  0
   -2.1474    1.6554    1.2707 H   0  0  0  0  0  0  0  0  0  0  0  0
   -0.5021   -0.2165    2.0588 H   0  0  0  0  0  0  0  0  0  0  0  0
  1  2  3  0
  2  3  1  0
  3  4  1  0
  4  5  1  0
  5  6  1  0
  6  7  1  0
  7  8  2  0
  6  9  1  0
  9  3  1  0
  9  4  1  0
  1 10  1  0
  3 11  1  0
  4 12  1  0
  5 13  1  0
  5 14  1  0
  6 15  1  0
  7 16  1  0
  9 17  1  0
M  END
