
     RDKit          3D

 16 16  0  0  0  0  0  0  0  0999 V2000
    2.4138    2.0488    1.0271 C   0  0  0  0  0  0  0  0  0  0  0  0
    1.8993    1.0495    0.6018 C   0  0  0  0  0  0  0  0  0  0  0  0
    1.2635   -0.1384    0.1059 C   0  0  0  0  0  0  0  0  0  0  0  0
   -0.0342    0.1463   -0.5942 C   0  0  0  0  0  0  0  0  0  0  0  0
   -1.0065    0.7623    0.1780 O   0  0  0  0  0  0  0  0  0  0  0  0
   -1.9508   -0.0485   -0.4501 C   0  0  0  0  0  0  0  0  0  0  0  0
   -0.8996   -1.1071   -0.5768 C   0  0  0  0  0  0  0  0  0  0  0  0
   -0.7612   -1.8400    0.5741 O   0  0  0  0  0  0  0  0  0  0  0  0
    2.8575    2.9179    1.4155 H   0  0  0  0  0  0  0  0  0  0  0  0
    1.9442   -0.5996   -0.6512 H   0  0  0  0  0  0  0  0  0  0  0  0
    1.0923   -0.9122    0.8835 H   0  0  0  0  0  0  0  0  0  0  0  0
    0.0690    0.6156   -1.5704 H   0  0  0  0  0  0  0  0  0  0  0  0
   -2.3367    0.3258   -1.4132 H   0  0  0  0  0  0  0  0  0  0  0  0
   -2.7531   -0.3366    0.2573 H   0  0  0  0  0  0  0  0  0  0  0  0
   -0.8118   -1.6232   -1.5289 H   0  0  0  0  0  0  0  0  0  0  0  0
   -0.9857   -1.2608    1.3409 H   0  0  0  0  0  0  0  0  0  0  0  0
  1  2  3  0
  2  3  1  0
  3  4  1  0
  4  5  1  0
  5  6  1  0
  6  7  1  0
  7  8  1  0
  7  4  1  0
  1  9  1  0
  3 10  1  0
  3 11  1  0
  4 12  1  0
  6 13  1  0
  6 14  1  0
  7 15  1  0
  8 16  1  0
M  END
