
     RDKit          3D

 17 17  0  0  0  0  0  0  0  0999 V2000
    3.2403   -1.0197    0.2304 C   0  0  0  0  0  0  0  0  0  0  0  0
    2.0497   -0.8459    0.0878 C   0  0  0  0  0  0  0  0  0  0  0  0
    0.6084   -0.6299   -0.0798 C   0  0  0  0  0  0  0  0  0  0  0  0
    0.4396    0.7108   -0.7465 C   0  0  0  0  0  0  0  0  0  0  0  0
   -0.9650    1.2464   -0.6154 C   0  0  0  0  0  0  0  0  0  0  0  0
   -1.7880    0.0878   -0.1038 C   0  0  0  0  0  0  0  0  0  0  0  0
   -2.7444   -0.3400   -0.7142 O   0  0  0  0  0  0  0  0  0  0  0  0
   -1.3207   -0.4667    1.1960 C   0  0  0  0  0  0  0  0  0  0  0  0
    0.0275   -0.6937    1.1730 O   0  0  0  0  0  0  0  0  0  0  0  0
    4.2780   -1.1639    0.3714 H   0  0  0  0  0  0  0  0  0  0  0  0
    0.1414   -1.3932   -0.7343 H   0  0  0  0  0  0  0  0  0  0  0  0
    1.1632    1.4049   -0.2605 H   0  0  0  0  0  0  0  0  0  0  0  0
    0.6460    0.5784   -1.8250 H   0  0  0  0  0  0  0  0  0  0  0  0
   -1.3699    1.6673   -1.5367 H   0  0  0  0  0  0  0  0  0  0  0  0
   -0.9723    2.0331    0.1711 H   0  0  0  0  0  0  0  0  0  0  0  0
   -1.5865    0.2535    2.0227 H   0  0  0  0  0  0  0  0  0  0  0  0
   -1.8473   -1.4293    1.3639 H   0  0  0  0  0  0  0  0  0  0  0  0
  1  2  3  0
  2  3  1  0
  3  4  1  0
  4  5  1  0
  5  6  1  0
  6  7  2  0
  6  8  1  0
  8  9  1  0
  9  3  1  0
  1 10  1  0
  3 11  1  0
  4 12  1  0
  4 13  1  0
  5 14  1  0
  5 15  1  0
  8 16  1  0
  8 17  1  0
M  END
