
     RDKit          3D

 19 21  0  0  0  0  0  0  0  0999 V2000
    2.5151   -1.3203   -1.6507 C   0  0  0  0  0  0  0  0  0  0  0  0
    1.6384   -0.6754   -1.0041 C   0  0  0  0  0  0  0  0  0  0  0  0
    0.6562    0.0180   -0.2976 C   0  0  0  0  0  0  0  0  0  0  0  0
    0.8940    1.0489    0.7040 C   0  0  0  0  0  0  0  0  0  0  0  0
   -0.3722    0.4518    1.3567 C   0  0  0  0  0  0  0  0  0  0  0  0
    0.1925   -0.8599    0.9518 C   0  0  0  0  0  0  0  0  0  0  0  0
   -1.4119    0.8113    0.2964 C   0  0  0  0  0  0  0  0  0  0  0  0
   -1.9705   -0.2573   -0.5299 C   0  0  0  0  0  0  0  0  0  0  0  0
   -0.6685    0.2741   -0.9453 C   0  0  0  0  0  0  0  0  0  0  0  0
    3.2949   -1.8738   -2.2311 H   0  0  0  0  0  0  0  0  0  0  0  0
    1.7152    0.8392    1.4331 H   0  0  0  0  0  0  0  0  0  0  0  0
    0.7664    2.1070    0.3811 H   0  0  0  0  0  0  0  0  0  0  0  0
   -0.5457    0.7257    2.3670 H   0  0  0  0  0  0  0  0  0  0  0  0
   -0.4494   -1.6724    0.5989 H   0  0  0  0  0  0  0  0  0  0  0  0
    1.0968   -1.1525    1.4704 H   0  0  0  0  0  0  0  0  0  0  0  0
   -1.7134    1.8637    0.2774 H   0  0  0  0  0  0  0  0  0  0  0  0
   -2.8176    0.0745   -1.2052 H   0  0  0  0  0  0  0  0  0  0  0  0
   -2.1947   -1.2199   -0.0918 H   0  0  0  0  0  0  0  0  0  0  0  0
   -0.6256    0.8172   -1.8812 H   0  0  0  0  0  0  0  0  0  0  0  0
  1  2  3  0
  2  3  1  0
  3  4  1  0
  4  5  1  0
  5  6  1  0
  5  7  1  0
  7  8  1  0
  8  9  1  0
  6  3  1  0
  9  7  1  0
  9  3  1  0
  1 10  1  0
  4 11  1  0
  4 12  1  0
  5 13  1  0
  6 14  1  0
  6 15  1  0
  7 16  1  0
  8 17  1  0
  8 18  1  0
  9 19  1  0
M  END
