
     RDKit          3D

 19 20  0  0  0  0  0  0  0  0999 V2000
    2.8814    0.9851   -1.1731 C   0  0  0  0  0  0  0  0  0  0  0  0
    1.8904    0.3084   -1.0496 C   0  0  0  0  0  0  0  0  0  0  0  0
    0.7059   -0.5262   -0.8866 C   0  0  0  0  0  0  0  0  0  0  0  0
    0.5743   -1.1194    0.5318 C   0  0  0  0  0  0  0  0  0  0  0  0
   -0.8630   -1.1875    0.0919 C   0  0  0  0  0  0  0  0  0  0  0  0
   -1.8139   -0.1568   -0.1327 C   0  0  0  0  0  0  0  0  0  0  0  0
   -2.5634    0.2393    1.0051 O   0  0  0  0  0  0  0  0  0  0  0  0
   -0.4732    0.2734   -0.3864 C   0  0  0  0  0  0  0  0  0  0  0  0
   -0.0018    1.2425    0.6943 C   0  0  0  0  0  0  0  0  0  0  0  0
    3.7564    1.6018   -1.2931 H   0  0  0  0  0  0  0  0  0  0  0  0
    0.5125   -1.2734   -1.6484 H   0  0  0  0  0  0  0  0  0  0  0  0
    1.0331   -2.1076    0.6530 H   0  0  0  0  0  0  0  0  0  0  0  0
    0.8498   -0.4751    1.3485 H   0  0  0  0  0  0  0  0  0  0  0  0
   -0.8859   -1.9459   -0.7624 H   0  0  0  0  0  0  0  0  0  0  0  0
   -2.5055   -0.1139   -1.0294 H   0  0  0  0  0  0  0  0  0  0  0  0
   -3.2248   -0.4495    1.2554 H   0  0  0  0  0  0  0  0  0  0  0  0
   -0.4602    1.0361    1.6856 H   0  0  0  0  0  0  0  0  0  0  0  0
   -0.4764    2.2287    0.3917 H   0  0  0  0  0  0  0  0  0  0  0  0
    1.0644    1.4400    0.7044 H   0  0  0  0  0  0  0  0  0  0  0  0
  1  2  3  0
  2  3  1  0
  3  4  1  0
  4  5  1  0
  5  6  1  0
  6  7  1  0
  6  8  1  0
  8  9  1  0
  8  3  1  0
  8  5  1  0
  1 10  1  0
  3 11  1  0
  4 12  1  0
  4 13  1  0
  5 14  1  0
  6 15  1  0
  7 16  1  0
  9 17  1  0
  9 18  1  0
  9 19  1  0
M  END
