
     RDKit          3D

 19 18  0  0  0  0  0  0  0  0999 V2000
    2.8282   -1.6371    0.5896 C   0  0  0  0  0  0  0  0  0  0  0  0
    2.2053   -0.3772    0.6226 C   0  0  0  0  0  0  0  0  0  0  0  0
    1.5786    0.9044    0.6321 C   0  0  0  0  0  0  0  0  0  0  0  0
    0.1291    0.9634    0.4952 C   0  0  0  0  0  0  0  0  0  0  0  0
   -0.6726    1.6859    0.8419 O   0  0  0  0  0  0  0  0  0  0  0  0
   -0.6299   -0.3691   -0.4181 C   0  0  0  0  0  0  0  0  0  0  0  0
   -0.4967    0.3889   -1.7501 C   0  0  0  0  0  0  0  0  0  0  0  0
   -1.8201   -0.1030    0.1494 O   0  0  0  0  0  0  0  0  0  0  0  0
   -2.0776   -0.4961    1.4260 C   0  0  0  0  0  0  0  0  0  0  0  0
    3.2902   -2.5937    0.5494 H   0  0  0  0  0  0  0  0  0  0  0  0
    2.1680    1.7002    0.0363 H   0  0  0  0  0  0  0  0  0  0  0  0
    1.5175    0.4955   -0.8805 H   0  0  0  0  0  0  0  0  0  0  0  0
    0.2093   -0.8320   -0.1914 H   0  0  0  0  0  0  0  0  0  0  0  0
   -0.4746    1.4820   -1.6285 H   0  0  0  0  0  0  0  0  0  0  0  0
   -1.4262    0.2148   -2.3852 H   0  0  0  0  0  0  0  0  0  0  0  0
    0.3307    0.0614   -2.3743 H   0  0  0  0  0  0  0  0  0  0  0  0
   -3.2146   -0.4781    1.5721 H   0  0  0  0  0  0  0  0  0  0  0  0
   -1.6753   -1.3959    1.8415 H   0  0  0  0  0  0  0  0  0  0  0  0
   -1.7692    0.3857    2.1311 H   0  0  0  0  0  0  0  0  0  0  0  0
  1  2  3  0
  2  3  1  0
  3  4  1  0
  4  5  2  0
  4  6  1  0
  6  7  1  0
  6  8  1  0
  8  9  1  0
  1 10  1  0
  3 11  1  0
  3 12  1  0
  6 13  1  0
  7 14  1  0
  7 15  1  0
  7 16  1  0
  9 17  1  0
  9 18  1  0
  9 19  1  0
M  END
