
     RDKit          3D

 19 20  0  0  0  0  0  0  0  0999 V2000
    3.3412    0.4391   -0.1550 C   0  0  0  0  0  0  0  0  0  0  0  0
    2.5522   -0.4683   -0.1942 C   0  0  0  0  0  0  0  0  0  0  0  0
    1.6019   -1.5848   -0.2500 C   0  0  0  0  0  0  0  0  0  0  0  0
    0.8613   -1.7644   -1.3934 O   0  0  0  0  0  0  0  0  0  0  0  0
    0.2007   -1.2976   -0.1456 C   0  0  0  0  0  0  0  0  0  0  0  0
   -0.4448    0.0085   -0.4187 C   0  0  0  0  0  0  0  0  0  0  0  0
   -1.9437   -0.0628   -0.2069 C   0  0  0  0  0  0  0  0  0  0  0  0
   -1.8434    1.3835    0.2903 C   0  0  0  0  0  0  0  0  0  0  0  0
   -0.4156    1.0148    0.7124 C   0  0  0  0  0  0  0  0  0  0  0  0
    4.0315    1.2323   -0.1024 H   0  0  0  0  0  0  0  0  0  0  0  0
    1.9834   -2.5146    0.2157 H   0  0  0  0  0  0  0  0  0  0  0  0
   -0.4512   -2.0808    0.3041 H   0  0  0  0  0  0  0  0  0  0  0  0
   -0.2550    0.5089   -1.3887 H   0  0  0  0  0  0  0  0  0  0  0  0
   -2.1738   -0.7316    0.6496 H   0  0  0  0  0  0  0  0  0  0  0  0
   -2.5506   -0.1950   -1.1019 H   0  0  0  0  0  0  0  0  0  0  0  0
   -1.8277    2.0491   -0.5904 H   0  0  0  0  0  0  0  0  0  0  0  0
   -2.5066    1.6389    1.1120 H   0  0  0  0  0  0  0  0  0  0  0  0
   -0.4045    0.5658    1.7058 H   0  0  0  0  0  0  0  0  0  0  0  0
    0.2446    1.8592    0.5143 H   0  0  0  0  0  0  0  0  0  0  0  0
  1  2  3  0
  2  3  1  0
  3  4  1  0
  4  5  1  0
  5  6  1  0
  6  7  1  0
  7  8  1  0
  8  9  1  0
  5  3  1  0
  9  6  1  0
  1 10  1  0
  3 11  1  0
  5 12  1  0
  6 13  1  0
  7 14  1  0
  7 15  1  0
  8 16  1  0
  8 17  1  0
  9 18  1  0
  9 19  1  0
M  END
