
     RDKit          3D

 19 21  0  0  0  0  0  0  0  0999 V2000
    2.9368    1.2345   -1.0921 C   0  0  0  0  0  0  0  0  0  0  0  0
    2.1908    0.2795   -1.0394 C   0  0  0  0  0  0  0  0  0  0  0  0
    1.2831   -0.8731   -1.0006 C   0  0  0  0  0  0  0  0  0  0  0  0
    0.7128   -1.2612    0.2907 C   0  0  0  0  0  0  0  0  0  0  0  0
    0.3741   -0.0824    1.2095 C   0  0  0  0  0  0  0  0  0  0  0  0
   -0.7158    0.2109    0.2755 C   0  0  0  0  0  0  0  0  0  0  0  0
   -1.6641    1.2680    0.2678 C   0  0  0  0  0  0  0  0  0  0  0  0
   -2.1779   -0.0625    0.6820 C   0  0  0  0  0  0  0  0  0  0  0  0
   -0.1659   -0.6018   -0.8008 C   0  0  0  0  0  0  0  0  0  0  0  0
    3.5961    2.0730   -1.1511 H   0  0  0  0  0  0  0  0  0  0  0  0
    1.5795   -1.6811   -1.6802 H   0  0  0  0  0  0  0  0  0  0  0  0
    0.3747   -2.2553    0.5551 H   0  0  0  0  0  0  0  0  0  0  0  0
    0.0616   -0.3815    2.2252 H   0  0  0  0  0  0  0  0  0  0  0  0
    1.2203    0.6493    1.1655 H   0  0  0  0  0  0  0  0  0  0  0  0
   -1.6507    2.0332    1.0729 H   0  0  0  0  0  0  0  0  0  0  0  0
   -2.0435    1.6783   -0.6920 H   0  0  0  0  0  0  0  0  0  0  0  0
   -2.2968   -0.3489    1.7337 H   0  0  0  0  0  0  0  0  0  0  0  0
   -2.7674   -0.6301   -0.0766 H   0  0  0  0  0  0  0  0  0  0  0  0
   -0.8475   -1.2489   -1.3625 H   0  0  0  0  0  0  0  0  0  0  0  0
  1  2  3  0
  2  3  1  0
  3  4  1  0
  4  5  1  0
  5  6  1  0
  6  7  1  0
  7  8  1  0
  6  9  1  0
  9  3  1  0
  9  4  1  0
  8  6  1  0
  1 10  1  0
  3 11  1  0
  4 12  1  0
  5 13  1  0
  5 14  1  0
  7 15  1  0
  7 16  1  0
  8 17  1  0
  8 18  1  0
  9 19  1  0
M  END
