
     RDKit          3D

 19 18  0  0  0  0  0  0  0  0999 V2000
    1.9874    0.2769   -1.8451 C   0  0  0  0  0  0  0  0  0  0  0  0
    1.1260   -0.3091   -1.1843 C   0  0  0  0  0  0  0  0  0  0  0  0
    0.0870   -1.0444   -0.3910 C   0  0  0  0  0  0  0  0  0  0  0  0
    0.3764   -2.5061   -0.6129 C   0  0  0  0  0  0  0  0  0  0  0  0
   -0.0167   -0.5463    0.7481 O   0  0  0  0  0  0  0  0  0  0  0  0
   -0.5927    0.1021    1.6675 C   0  0  0  0  0  0  0  0  0  0  0  0
   -0.9044    1.5147    1.3136 C   0  0  0  0  0  0  0  0  0  0  0  0
   -0.6123    2.1329    0.0138 C   0  0  0  0  0  0  0  0  0  0  0  0
   -1.4509    2.2510    2.1542 O   0  0  0  0  0  0  0  0  0  0  0  0
    2.7156    0.7817   -2.3877 H   0  0  0  0  0  0  0  0  0  0  0  0
   -0.8477   -0.8320   -1.0264 H   0  0  0  0  0  0  0  0  0  0  0  0
    1.0641   -2.6492   -1.4717 H   0  0  0  0  0  0  0  0  0  0  0  0
   -0.5344   -3.1020   -0.8123 H   0  0  0  0  0  0  0  0  0  0  0  0
    0.8706   -2.9769    0.2642 H   0  0  0  0  0  0  0  0  0  0  0  0
    0.0544    0.2396    2.6172 H   0  0  0  0  0  0  0  0  0  0  0  0
   -1.6055   -0.2699    2.0424 H   0  0  0  0  0  0  0  0  0  0  0  0
    0.4616    2.2789   -0.1881 H   0  0  0  0  0  0  0  0  0  0  0  0
   -1.0571    1.5248   -0.8020 H   0  0  0  0  0  0  0  0  0  0  0  0
   -1.1213    3.1331   -0.0996 H   0  0  0  0  0  0  0  0  0  0  0  0
  1  2  3  0
  2  3  1  0
  3  4  1  0
  3  5  1  0
  5  6  1  0
  6  7  1  0
  7  8  1  0
  7  9  2  0
  1 10  1  0
  3 11  1  0
  4 12  1  0
  4 13  1  0
  4 14  1  0
  6 15  1  0
  6 16  1  0
  8 17  1  0
  8 18  1  0
  8 19  1  0
M  END
