
     RDKit          3D

 17 18  0  0  0  0  0  0  0  0999 V2000
    2.7509   -0.7522    0.5498 C   0  0  0  0  0  0  0  0  0  0  0  0
    1.7293   -0.4752   -0.0295 C   0  0  0  0  0  0  0  0  0  0  0  0
    0.4975   -0.1158   -0.7316 C   0  0  0  0  0  0  0  0  0  0  0  0
   -0.5569   -1.1786   -0.9297 C   0  0  0  0  0  0  0  0  0  0  0  0
   -0.7524   -0.0757    0.0170 C   0  0  0  0  0  0  0  0  0  0  0  0
   -0.8572   -0.2703    1.4916 C   0  0  0  0  0  0  0  0  0  0  0  0
   -0.9888    1.3093   -0.4918 C   0  0  0  0  0  0  0  0  0  0  0  0
    0.3017    1.2390   -1.2444 C   0  0  0  0  0  0  0  0  0  0  0  0
    0.9303    1.9714   -1.9685 O   0  0  0  0  0  0  0  0  0  0  0  0
    3.6640   -0.9930    1.0679 H   0  0  0  0  0  0  0  0  0  0  0  0
   -0.9940   -1.1797   -1.9407 H   0  0  0  0  0  0  0  0  0  0  0  0
   -0.2592   -2.1720   -0.5572 H   0  0  0  0  0  0  0  0  0  0  0  0
   -1.9178   -0.3257    1.7651 H   0  0  0  0  0  0  0  0  0  0  0  0
   -0.4597    0.6621    1.9739 H   0  0  0  0  0  0  0  0  0  0  0  0
   -0.3110   -1.1455    1.8747 H   0  0  0  0  0  0  0  0  0  0  0  0
   -1.8761    1.4118   -1.1399 H   0  0  0  0  0  0  0  0  0  0  0  0
   -0.9006    2.0899    0.2932 H   0  0  0  0  0  0  0  0  0  0  0  0
  1  2  3  0
  2  3  1  0
  3  4  1  0
  4  5  1  0
  5  6  1  0
  5  7  1  0
  7  8  1  0
  8  9  2  0
  5  3  1  0
  8  3  1  0
  1 10  1  0
  4 11  1  0
  4 12  1  0
  6 13  1  0
  6 14  1  0
  6 15  1  0
  7 16  1  0
  7 17  1  0
M  END
