
     RDKit          3D

 15 15  0  0  0  0  0  0  0  0999 V2000
    3.0028   -0.9048   -1.7997 C   0  0  0  0  0  0  0  0  0  0  0  0
    2.1087   -0.8039   -0.8362 C   0  0  0  0  0  0  0  0  0  0  0  0
    1.1273   -0.6884    0.1860 C   0  0  0  0  0  0  0  0  0  0  0  0
   -0.1059    0.0965   -0.3290 C   0  0  0  0  0  0  0  0  0  0  0  0
   -1.1174    0.3023    0.7421 C   0  0  0  0  0  0  0  0  0  0  0  0
   -2.3635    1.0476    0.4478 C   0  0  0  0  0  0  0  0  0  0  0  0
   -2.3128   -0.3831    0.6240 O   0  0  0  0  0  0  0  0  0  0  0  0
    3.6361   -0.9623   -2.4935 H   0  0  0  0  0  0  0  0  0  0  0  0
    1.5367   -0.1602    1.0892 H   0  0  0  0  0  0  0  0  0  0  0  0
    0.7619   -1.6483    0.5759 H   0  0  0  0  0  0  0  0  0  0  0  0
    0.3192    1.1112   -0.5900 H   0  0  0  0  0  0  0  0  0  0  0  0
   -0.4904   -0.4098   -1.2219 H   0  0  0  0  0  0  0  0  0  0  0  0
   -0.6497    0.4503    1.7731 H   0  0  0  0  0  0  0  0  0  0  0  0
   -2.5379    1.4137   -0.5513 H   0  0  0  0  0  0  0  0  0  0  0  0
   -2.9152    1.5393    1.3164 H   0  0  0  0  0  0  0  0  0  0  0  0
  1  2  3  0
  2  3  1  0
  3  4  1  0
  4  5  1  0
  5  6  1  0
  6  7  1  0
  7  5  1  0
  1  8  1  0
  3  9  1  0
  3 10  1  0
  4 11  1  0
  4 12  1  0
  5 13  1  0
  6 14  1  0
  6 15  1  0
M  END
