
     RDKit          3D

 21 20  0  0  0  0  0  0  0  0999 V2000
   -1.1235    2.6801   -0.5287 C   0  0  0  0  0  0  0  0  0  0  0  0
   -0.7238    1.5506   -0.3791 C   0  0  0  0  0  0  0  0  0  0  0  0
   -0.2256    0.1709   -0.1727 C   0  0  0  0  0  0  0  0  0  0  0  0
   -1.1248   -0.5944    0.7564 C   0  0  0  0  0  0  0  0  0  0  0  0
   -2.5444   -0.6963    0.2094 C   0  0  0  0  0  0  0  0  0  0  0  0
   -2.4921   -1.3514   -1.0098 O   0  0  0  0  0  0  0  0  0  0  0  0
    1.0198    0.2730    0.4455 O   0  0  0  0  0  0  0  0  0  0  0  0
    2.0357   -0.2877   -0.3000 C   0  0  0  0  0  0  0  0  0  0  0  0
    3.3236   -0.1083    0.4826 C   0  0  0  0  0  0  0  0  0  0  0  0
   -1.4698    3.6808   -0.6690 H   0  0  0  0  0  0  0  0  0  0  0  0
   -0.1743   -0.3379   -1.1429 H   0  0  0  0  0  0  0  0  0  0  0  0
   -0.7444   -1.6200    0.8260 H   0  0  0  0  0  0  0  0  0  0  0  0
   -1.1100   -0.0858    1.7425 H   0  0  0  0  0  0  0  0  0  0  0  0
   -2.9906    0.3057    0.0318 H   0  0  0  0  0  0  0  0  0  0  0  0
   -3.1746   -1.2375    0.9118 H   0  0  0  0  0  0  0  0  0  0  0  0
   -3.3360   -1.1450   -1.4952 H   0  0  0  0  0  0  0  0  0  0  0  0
    2.1485    0.2897   -1.2387 H   0  0  0  0  0  0  0  0  0  0  0  0
    1.8548   -1.3376   -0.5747 H   0  0  0  0  0  0  0  0  0  0  0  0
    3.2710   -0.6798    1.4454 H   0  0  0  0  0  0  0  0  0  0  0  0
    3.3721    0.9710    0.7502 H   0  0  0  0  0  0  0  0  0  0  0  0
    4.2085   -0.4403   -0.0908 H   0  0  0  0  0  0  0  0  0  0  0  0
  1  2  3  0
  2  3  1  0
  3  4  1  0
  4  5  1  0
  5  6  1  0
  3  7  1  0
  7  8  1  0
  8  9  1  0
  1 10  1  0
  3 11  1  0
  4 12  1  0
  4 13  1  0
  5 14  1  0
  5 15  1  0
  6 16  1  0
  8 17  1  0
  8 18  1  0
  9 19  1  0
  9 20  1  0
  9 21  1  0
M  END
