
     RDKit          3D

 19 18  0  0  0  0  0  0  0  0999 V2000
   -1.7577    1.7097   -0.9514 C   0  0  0  0  0  0  0  0  0  0  0  0
   -0.9404    1.1347    0.0427 C   0  0  0  0  0  0  0  0  0  0  0  0
   -0.1593    0.5700    0.9805 C   0  0  0  0  0  0  0  0  0  0  0  0
   -1.1355   -0.2797    1.9024 C   0  0  0  0  0  0  0  0  0  0  0  0
    0.7671   -0.5422    0.4754 C   0  0  0  0  0  0  0  0  0  0  0  0
    1.6898   -0.2842   -0.5843 C   0  0  0  0  0  0  0  0  0  0  0  0
    2.8374   -0.1769   -0.6203 O   0  0  0  0  0  0  0  0  0  0  0  0
    0.9809   -0.0929   -1.9802 C   0  0  0  0  0  0  0  0  0  0  0  0
   -0.1931   -0.8390   -1.9898 O   0  0  0  0  0  0  0  0  0  0  0  0
   -2.2854    2.0933   -1.5832 H   0  0  0  0  0  0  0  0  0  0  0  0
    0.3127    1.2948    1.6399 H   0  0  0  0  0  0  0  0  0  0  0  0
   -0.7287   -1.3108    1.9803 H   0  0  0  0  0  0  0  0  0  0  0  0
   -1.3080    0.2763    2.7861 H   0  0  0  0  0  0  0  0  0  0  0  0
   -2.0557   -0.3635    1.2248 H   0  0  0  0  0  0  0  0  0  0  0  0
    0.2130   -1.4487    0.3755 H   0  0  0  0  0  0  0  0  0  0  0  0
    1.4483   -0.6749    1.4376 H   0  0  0  0  0  0  0  0  0  0  0  0
    0.7404    0.9759   -1.9359 H   0  0  0  0  0  0  0  0  0  0  0  0
    1.6506   -0.2807   -2.7611 H   0  0  0  0  0  0  0  0  0  0  0  0
   -0.0763   -1.7612   -1.6044 H   0  0  0  0  0  0  0  0  0  0  0  0
  1  2  3  0
  2  3  1  0
  3  4  1  0
  3  5  1  0
  5  6  1  0
  6  7  2  0
  6  8  1  0
  8  9  1  0
  1 10  1  0
  3 11  1  0
  4 12  1  0
  4 13  1  0
  4 14  1  0
  5 15  1  0
  5 16  1  0
  8 17  1  0
  8 18  1  0
  9 19  1  0
M  END
