
     RDKit          3D

 17 16  0  0  0  0  0  0  0  0999 V2000
    1.5550   -0.3769    2.3415 C   0  0  0  0  0  0  0  0  0  0  0  0
    1.4799   -0.3274    1.0892 C   0  0  0  0  0  0  0  0  0  0  0  0
    1.4074   -0.2495   -0.3428 C   0  0  0  0  0  0  0  0  0  0  0  0
    0.1150    0.2350   -0.9147 C   0  0  0  0  0  0  0  0  0  0  0  0
   -0.2287    1.5885   -0.4467 C   0  0  0  0  0  0  0  0  0  0  0  0
   -0.5215    2.7121   -0.0784 C   0  0  0  0  0  0  0  0  0  0  0  0
   -1.0407   -0.6992   -0.8693 C   0  0  0  0  0  0  0  0  0  0  0  0
   -1.5151   -1.1574    0.4183 C   0  0  0  0  0  0  0  0  0  0  0  0
   -2.6613   -1.6625    0.4473 O   0  0  0  0  0  0  0  0  0  0  0  0
    1.6048   -0.4174    3.3786 H   0  0  0  0  0  0  0  0  0  0  0  0
    2.2103    0.4717   -0.7006 H   0  0  0  0  0  0  0  0  0  0  0  0
    1.6101   -1.2510   -0.8171 H   0  0  0  0  0  0  0  0  0  0  0  0
    0.3630    0.3674   -2.0445 H   0  0  0  0  0  0  0  0  0  0  0  0
   -0.7757    3.7205    0.2335 H   0  0  0  0  0  0  0  0  0  0  0  0
   -0.7317   -1.5884   -1.5199 H   0  0  0  0  0  0  0  0  0  0  0  0
   -1.8824   -0.2615   -1.4848 H   0  0  0  0  0  0  0  0  0  0  0  0
   -0.9886   -1.1040    1.3103 H   0  0  0  0  0  0  0  0  0  0  0  0
  1  2  3  0
  2  3  1  0
  3  4  1  0
  4  5  1  0
  5  6  3  0
  4  7  1  0
  7  8  1  0
  8  9  2  0
  1 10  1  0
  3 11  1  0
  3 12  1  0
  4 13  1  0
  6 14  1  0
  7 15  1  0
  7 16  1  0
  8 17  1  0
M  END
