
     RDKit          3D

 17 17  0  0  0  0  0  0  0  0999 V2000
   -2.0517    1.6967   -0.6401 C   0  0  0  0  0  0  0  0  0  0  0  0
   -1.2757    0.8237   -0.3414 C   0  0  0  0  0  0  0  0  0  0  0  0
   -0.3116   -0.2409    0.0032 C   0  0  0  0  0  0  0  0  0  0  0  0
   -1.0088   -1.5837    0.0455 C   0  0  0  0  0  0  0  0  0  0  0  0
    0.2972    0.0935    1.2967 C   0  0  0  0  0  0  0  0  0  0  0  0
    1.4903    0.6352    1.1469 C   0  0  0  0  0  0  0  0  0  0  0  0
    1.7993    0.7169   -0.2752 C   0  0  0  0  0  0  0  0  0  0  0  0
    2.6834    1.4130   -0.7883 O   0  0  0  0  0  0  0  0  0  0  0  0
    0.8309   -0.2067   -0.9527 C   0  0  0  0  0  0  0  0  0  0  0  0
   -2.7509    2.4634   -0.9024 H   0  0  0  0  0  0  0  0  0  0  0  0
   -2.0554   -1.4118    0.3093 H   0  0  0  0  0  0  0  0  0  0  0  0
   -0.9333   -2.0788   -0.9268 H   0  0  0  0  0  0  0  0  0  0  0  0
   -0.5686   -2.2144    0.8449 H   0  0  0  0  0  0  0  0  0  0  0  0
   -0.1757   -0.0834    2.2485 H   0  0  0  0  0  0  0  0  0  0  0  0
    2.1333    0.9648    1.9544 H   0  0  0  0  0  0  0  0  0  0  0  0
    0.5537    0.1858   -1.9516 H   0  0  0  0  0  0  0  0  0  0  0  0
    1.3436   -1.1733   -1.0709 H   0  0  0  0  0  0  0  0  0  0  0  0
  1  2  3  0
  2  3  1  0
  3  4  1  0
  3  5  1  0
  5  6  2  0
  6  7  1  0
  7  8  2  0
  7  9  1  0
  9  3  1  0
  1 10  1  0
  4 11  1  0
  4 12  1  0
  4 13  1  0
  5 14  1  0
  6 15  1  0
  9 16  1  0
  9 17  1  0
M  END
