
     RDKit          3D

 14 14  0  0  0  0  0  0  0  0999 V2000
    2.4870   -0.7322   -0.4437 C   0  0  0  0  0  0  0  0  0  0  0  0
    1.4673   -0.4401    0.1244 C   0  0  0  0  0  0  0  0  0  0  0  0
    0.2329   -0.0881    0.8390 C   0  0  0  0  0  0  0  0  0  0  0  0
   -0.1816    1.3516    0.5020 C   0  0  0  0  0  0  0  0  0  0  0  0
   -0.8057    0.7924   -0.7182 C   0  0  0  0  0  0  0  0  0  0  0  0
   -1.0659    1.1951   -1.8243 O   0  0  0  0  0  0  0  0  0  0  0  0
   -0.9697   -0.4813    0.0199 C   0  0  0  0  0  0  0  0  0  0  0  0
   -0.8472   -1.6362   -0.7218 O   0  0  0  0  0  0  0  0  0  0  0  0
    3.3850   -1.0058   -0.9358 H   0  0  0  0  0  0  0  0  0  0  0  0
    0.2192   -0.3366    1.8969 H   0  0  0  0  0  0  0  0  0  0  0  0
    0.6817    2.0114    0.3570 H   0  0  0  0  0  0  0  0  0  0  0  0
   -0.9608    1.7275    1.1852 H   0  0  0  0  0  0  0  0  0  0  0  0
   -1.8832   -0.4227    0.6763 H   0  0  0  0  0  0  0  0  0  0  0  0
   -1.7588   -1.9350   -0.9568 H   0  0  0  0  0  0  0  0  0  0  0  0
  1  2  3  0
  2  3  1  0
  3  4  1  0
  4  5  1  0
  5  6  2  0
  5  7  1  0
  7  8  1  0
  7  3  1  0
  1  9  1  0
  3 10  1  0
  4 11  1  0
  4 12  1  0
  7 13  1  0
  8 14  1  0
M  END
