
     RDKit          3D

 19 19  0  0  0  0  0  0  0  0999 V2000
    3.1072    0.0977    0.3182 C   0  0  0  0  0  0  0  0  0  0  0  0
    2.1478   -0.5459   -0.0912 C   0  0  0  0  0  0  0  0  0  0  0  0
    0.9857   -1.2983   -0.5819 C   0  0  0  0  0  0  0  0  0  0  0  0
   -0.0422   -1.2742    0.5264 C   0  0  0  0  0  0  0  0  0  0  0  0
   -0.8623   -0.0639    0.0541 C   0  0  0  0  0  0  0  0  0  0  0  0
   -0.2819    1.1316    0.3741 O   0  0  0  0  0  0  0  0  0  0  0  0
   -1.1108    1.9982    1.0754 C   0  0  0  0  0  0  0  0  0  0  0  0
   -0.8721   -0.3471   -1.4355 C   0  0  0  0  0  0  0  0  0  0  0  0
    0.4697   -0.6379   -1.6650 O   0  0  0  0  0  0  0  0  0  0  0  0
    3.9241    0.6660    0.6792 H   0  0  0  0  0  0  0  0  0  0  0  0
    1.2650   -2.3364   -0.8764 H   0  0  0  0  0  0  0  0  0  0  0  0
    0.4007   -1.0774    1.5134 H   0  0  0  0  0  0  0  0  0  0  0  0
   -0.6597   -2.1761    0.5382 H   0  0  0  0  0  0  0  0  0  0  0  0
   -1.8936   -0.1703    0.3999 H   0  0  0  0  0  0  0  0  0  0  0  0
   -2.0204    2.2451    0.4866 H   0  0  0  0  0  0  0  0  0  0  0  0
   -1.4120    1.5511    2.0288 H   0  0  0  0  0  0  0  0  0  0  0  0
   -0.5124    2.9108    1.2891 H   0  0  0  0  0  0  0  0  0  0  0  0
   -1.1746    0.5644   -2.0172 H   0  0  0  0  0  0  0  0  0  0  0  0
   -1.4581   -1.2372   -1.6869 H   0  0  0  0  0  0  0  0  0  0  0  0
  1  2  3  0
  2  3  1  0
  3  4  1  0
  4  5  1  0
  5  6  1  0
  6  7  1  0
  5  8  1  0
  8  9  1  0
  9  3  1  0
  1 10  1  0
  3 11  1  0
  4 12  1  0
  4 13  1  0
  5 14  1  0
  7 15  1  0
  7 16  1  0
  7 17  1  0
  8 18  1  0
  8 19  1  0
M  END
