
     RDKit          3D

 15 15  0  0  0  0  0  0  0  0999 V2000
    3.0161    0.1854    0.9474 C   0  0  0  0  0  0  0  0  0  0  0  0
    1.6535    0.0021    0.1034 C   0  0  0  0  0  0  0  0  0  0  0  0
    0.6536   -0.1479   -0.5010 C   0  0  0  0  0  0  0  0  0  0  0  0
    0.8354   -1.3781   -1.3252 O   0  0  0  0  0  0  0  0  0  0  0  0
   -0.4660   -0.5044    0.6358 C   0  0  0  0  0  0  0  0  0  0  0  0
   -1.6707   -1.0521    0.5030 O   0  0  0  0  0  0  0  0  0  0  0  0
   -1.7547    0.3417    0.4719 C   0  0  0  0  0  0  0  0  0  0  0  0
   -1.8862    0.9088   -0.8852 C   0  0  0  0  0  0  0  0  0  0  0  0
   -1.9786    2.1349   -1.0948 O   0  0  0  0  0  0  0  0  0  0  0  0
    4.0794    0.3425    1.6294 H   0  0  0  0  0  0  0  0  0  0  0  0
    0.1564    0.5130   -1.1980 H   0  0  0  0  0  0  0  0  0  0  0  0
    1.0893   -2.1202   -0.5894 H   0  0  0  0  0  0  0  0  0  0  0  0
    0.0580   -0.4390    1.6487 H   0  0  0  0  0  0  0  0  0  0  0  0
   -1.8840    0.9959    1.3811 H   0  0  0  0  0  0  0  0  0  0  0  0
   -1.9015    0.2174   -1.7271 H   0  0  0  0  0  0  0  0  0  0  0  0
  1  2  3  0
  2  3  1  0
  3  4  1  0
  3  5  1  0
  5  6  1  0
  6  7  1  0
  7  8  1  0
  8  9  2  0
  7  5  1  0
  1 10  1  0
  3 11  1  0
  4 12  1  0
  5 13  1  0
  7 14  1  0
  8 15  1  0
M  END
