
     RDKit          3D

 15 16  0  0  0  0  0  0  0  0999 V2000
    2.9925   -0.8959    0.2170 C   0  0  0  0  0  0  0  0  0  0  0  0
    2.0292   -0.1609    0.1358 C   0  0  0  0  0  0  0  0  0  0  0  0
    0.8750    0.6945    0.0254 C   0  0  0  0  0  0  0  0  0  0  0  0
   -0.2103    0.3443    0.9902 C   0  0  0  0  0  0  0  0  0  0  0  0
   -1.2270    0.3560   -0.1168 C   0  0  0  0  0  0  0  0  0  0  0  0
   -2.2332   -0.7006   -0.2211 C   0  0  0  0  0  0  0  0  0  0  0  0
   -2.9605   -0.7173   -1.1937 O   0  0  0  0  0  0  0  0  0  0  0  0
   -1.1728    1.2650   -1.1341 O   0  0  0  0  0  0  0  0  0  0  0  0
   -0.0702    0.4227   -1.0951 C   0  0  0  0  0  0  0  0  0  0  0  0
    3.8393   -1.5428    0.3070 H   0  0  0  0  0  0  0  0  0  0  0  0
    1.0875    1.7940    0.0837 H   0  0  0  0  0  0  0  0  0  0  0  0
   -0.4367    1.1240    1.7401 H   0  0  0  0  0  0  0  0  0  0  0  0
   -0.1604   -0.6377    1.4774 H   0  0  0  0  0  0  0  0  0  0  0  0
   -2.3614   -1.4695    0.5273 H   0  0  0  0  0  0  0  0  0  0  0  0
    0.0090   -0.4455   -1.7432 H   0  0  0  0  0  0  0  0  0  0  0  0
  1  2  3  0
  2  3  1  0
  3  4  1  0
  4  5  1  0
  5  6  1  0
  6  7  2  0
  5  8  1  0
  8  9  1  0
  9  3  1  0
  9  5  1  0
  1 10  1  0
  3 11  1  0
  4 12  1  0
  4 13  1  0
  6 14  1  0
  9 15  1  0
M  END
