
     RDKit          3D

 19 18  0  0  0  0  0  0  0  0999 V2000
    4.1751    0.7250    1.0593 C   0  0  0  0  0  0  0  0  0  0  0  0
    3.1793    0.3451    0.4563 C   0  0  0  0  0  0  0  0  0  0  0  0
    2.0107   -0.1052   -0.2424 C   0  0  0  0  0  0  0  0  0  0  0  0
    2.0884   -0.8696   -1.2446 O   0  0  0  0  0  0  0  0  0  0  0  0
    0.7176    0.2751    0.1437 O   0  0  0  0  0  0  0  0  0  0  0  0
   -0.4177   -0.1841   -0.5660 C   0  0  0  0  0  0  0  0  0  0  0  0
   -1.1012    0.9919   -1.1809 C   0  0  0  0  0  0  0  0  0  0  0  0
   -1.3191   -1.0462    0.2836 C   0  0  0  0  0  0  0  0  0  0  0  0
   -1.8539   -0.3422    1.4943 C   0  0  0  0  0  0  0  0  0  0  0  0
    5.0519    1.0420    1.5861 H   0  0  0  0  0  0  0  0  0  0  0  0
   -0.0937   -0.8507   -1.4199 H   0  0  0  0  0  0  0  0  0  0  0  0
   -0.3444    1.8077   -1.3654 H   0  0  0  0  0  0  0  0  0  0  0  0
   -1.5061    0.7560   -2.1998 H   0  0  0  0  0  0  0  0  0  0  0  0
   -1.8664    1.4650   -0.5319 H   0  0  0  0  0  0  0  0  0  0  0  0
   -2.0858   -1.5189   -0.3472 H   0  0  0  0  0  0  0  0  0  0  0  0
   -0.6688   -1.8887    0.6531 H   0  0  0  0  0  0  0  0  0  0  0  0
   -1.0183   -0.3080    2.2537 H   0  0  0  0  0  0  0  0  0  0  0  0
   -2.6924   -0.9609    1.8947 H   0  0  0  0  0  0  0  0  0  0  0  0
   -2.2551    0.6666    1.2991 H   0  0  0  0  0  0  0  0  0  0  0  0
  1  2  3  0
  2  3  1  0
  3  4  2  0
  3  5  1  0
  5  6  1  0
  6  7  1  0
  6  8  1  0
  8  9  1  0
  1 10  1  0
  6 11  1  0
  7 12  1  0
  7 13  1  0
  7 14  1  0
  8 15  1  0
  8 16  1  0
  9 17  1  0
  9 18  1  0
  9 19  1  0
M  END
