
     RDKit          3D

 17 17  0  0  0  0  0  0  0  0999 V2000
    2.9741   -0.6417    1.7005 C   0  0  0  0  0  0  0  0  0  0  0  0
    2.3067   -0.3271    0.6579 C   0  0  0  0  0  0  0  0  0  0  0  0
    1.5229    0.0250   -0.5222 C   0  0  0  0  0  0  0  0  0  0  0  0
    0.1311    0.4121   -0.0692 C   0  0  0  0  0  0  0  0  0  0  0  0
   -0.5836   -0.6570    0.6417 C   0  0  0  0  0  0  0  0  0  0  0  0
   -1.8735   -0.6080    0.3337 C   0  0  0  0  0  0  0  0  0  0  0  0
   -2.1432    0.5224   -0.6336 C   0  0  0  0  0  0  0  0  0  0  0  0
   -0.7635    0.7173   -1.2125 C   0  0  0  0  0  0  0  0  0  0  0  0
   -0.5367    1.0455   -2.3469 O   0  0  0  0  0  0  0  0  0  0  0  0
    3.4883   -0.8669    2.5060 H   0  0  0  0  0  0  0  0  0  0  0  0
    1.9631    0.9082   -1.0243 H   0  0  0  0  0  0  0  0  0  0  0  0
    1.4750   -0.8434   -1.2228 H   0  0  0  0  0  0  0  0  0  0  0  0
    0.1831    1.2792    0.6464 H   0  0  0  0  0  0  0  0  0  0  0  0
   -0.1810   -1.4144    1.3350 H   0  0  0  0  0  0  0  0  0  0  0  0
   -2.6933   -1.2566    0.6849 H   0  0  0  0  0  0  0  0  0  0  0  0
   -2.3938    1.4319   -0.0794 H   0  0  0  0  0  0  0  0  0  0  0  0
   -2.8757    0.2733   -1.3951 H   0  0  0  0  0  0  0  0  0  0  0  0
  1  2  3  0
  2  3  1  0
  3  4  1  0
  4  5  1  0
  5  6  2  0
  6  7  1  0
  7  8  1  0
  8  9  2  0
  8  4  1  0
  1 10  1  0
  3 11  1  0
  3 12  1  0
  4 13  1  0
  5 14  1  0
  6 15  1  0
  7 16  1  0
  7 17  1  0
M  END
