
     RDKit          3D

 17 16  0  0  0  0  0  0  0  0999 V2000
    3.0676    1.1784   -0.5207 C   0  0  0  0  0  0  0  0  0  0  0  0
    2.2470    0.2958   -0.5051 C   0  0  0  0  0  0  0  0  0  0  0  0
    1.2507   -0.8025   -0.4799 C   0  0  0  0  0  0  0  0  0  0  0  0
    1.7828   -1.9033    0.1621 O   0  0  0  0  0  0  0  0  0  0  0  0
    0.0569   -0.3431    0.2779 C   0  0  0  0  0  0  0  0  0  0  0  0
   -0.2511   -0.9562    1.2732 O   0  0  0  0  0  0  0  0  0  0  0  0
   -0.7451    0.8194   -0.1469 C   0  0  0  0  0  0  0  0  0  0  0  0
   -1.8526    1.0212    0.6404 O   0  0  0  0  0  0  0  0  0  0  0  0
   -2.7661   -0.0060    0.5666 C   0  0  0  0  0  0  0  0  0  0  0  0
    3.7986    1.9472   -0.5440 H   0  0  0  0  0  0  0  0  0  0  0  0
    0.9813   -1.0540   -1.5445 H   0  0  0  0  0  0  0  0  0  0  0  0
    2.7414   -1.9211    0.0169 H   0  0  0  0  0  0  0  0  0  0  0  0
   -0.0853    1.7303   -0.0170 H   0  0  0  0  0  0  0  0  0  0  0  0
   -1.0181    0.7605   -1.2351 H   0  0  0  0  0  0  0  0  0  0  0  0
   -3.6240    0.2729    1.2399 H   0  0  0  0  0  0  0  0  0  0  0  0
   -3.1447   -0.0458   -0.4992 H   0  0  0  0  0  0  0  0  0  0  0  0
   -2.4396   -0.9939    0.9039 H   0  0  0  0  0  0  0  0  0  0  0  0
  1  2  3  0
  2  3  1  0
  3  4  1  0
  3  5  1  0
  5  6  2  0
  5  7  1  0
  7  8  1  0
  8  9  1  0
  1 10  1  0
  3 11  1  0
  4 12  1  0
  7 13  1  0
  7 14  1  0
  9 15  1  0
  9 16  1  0
  9 17  1  0
M  END
