
     RDKit          3D

 17 17  0  0  0  0  0  0  0  0999 V2000
    3.6341    0.0167   -0.0180 C   0  0  0  0  0  0  0  0  0  0  0  0
    2.2539    0.1564    0.1508 C   0  0  0  0  0  0  0  0  0  0  0  0
    0.9123    0.3048    0.3356 C   0  0  0  0  0  0  0  0  0  0  0  0
    0.2192    1.0113    1.1469 C   0  0  0  0  0  0  0  0  0  0  0  0
   -1.2251    0.8242    0.9047 C   0  0  0  0  0  0  0  0  0  0  0  0
   -1.4258   -0.0096   -0.2235 C   0  0  0  0  0  0  0  0  0  0  0  0
   -2.3912   -1.0623    0.1406 O   0  0  0  0  0  0  0  0  0  0  0  0
   -0.0677   -0.6161   -0.4906 C   0  0  0  0  0  0  0  0  0  0  0  0
    0.2519   -0.9217   -1.7324 O   0  0  0  0  0  0  0  0  0  0  0  0
    4.7253   -0.0749   -0.1544 H   0  0  0  0  0  0  0  0  0  0  0  0
    0.6511    1.6588    1.9193 H   0  0  0  0  0  0  0  0  0  0  0  0
   -1.7999    0.7034    1.9244 H   0  0  0  0  0  0  0  0  0  0  0  0
   -1.4920    1.9798    0.5251 H   0  0  0  0  0  0  0  0  0  0  0  0
   -1.8797    0.4904   -1.0895 H   0  0  0  0  0  0  0  0  0  0  0  0
   -1.8504   -1.8448   -0.3471 H   0  0  0  0  0  0  0  0  0  0  0  0
    0.0127   -1.5241    0.2697 H   0  0  0  0  0  0  0  0  0  0  0  0
   -0.5286   -1.0923   -2.3389 H   0  0  0  0  0  0  0  0  0  0  0  0
  1  2  3  0
  2  3  1  0
  3  4  2  0
  4  5  1  0
  5  6  1  0
  6  7  1  0
  6  8  1  0
  8  9  1  0
  8  3  1  0
  1 10  1  0
  4 11  1  0
  5 12  1  0
  5 13  1  0
  6 14  1  0
  7 15  1  0
  8 16  1  0
  9 17  1  0
M  END
