
     RDKit          3D

 16 17  0  0  0  0  0  0  0  0999 V2000
    2.7586    0.2432    1.8450 C   0  0  0  0  0  0  0  0  0  0  0  0
    1.7635   -0.5332    1.2427 C   0  0  0  0  0  0  0  0  0  0  0  0
    0.4577   -1.5894    0.4304 C   0  0  0  0  0  0  0  0  0  0  0  0
    0.2259   -0.3420   -0.3820 C   0  0  0  0  0  0  0  0  0  0  0  0
   -0.4154    0.1168   -1.5246 C   0  0  0  0  0  0  0  0  0  0  0  0
   -1.2460    1.1391   -0.8560 C   0  0  0  0  0  0  0  0  0  0  0  0
   -1.4476   -0.1214   -0.1906 C   0  0  0  0  0  0  0  0  0  0  0  0
   -1.4201   -0.7344   -1.3884 O   0  0  0  0  0  0  0  0  0  0  0  0
    3.3864    0.7142    2.2170 H   0  0  0  0  0  0  0  0  0  0  0  0
   -0.3042   -0.8592    1.5040 H   0  0  0  0  0  0  0  0  0  0  0  0
    0.4098   -2.2417    1.1098 H   0  0  0  0  0  0  0  0  0  0  0  0
    0.4286    0.6759    0.3675 H   0  0  0  0  0  0  0  0  0  0  0  0
    0.1184    0.4008   -2.4242 H   0  0  0  0  0  0  0  0  0  0  0  0
   -2.1780    1.4484   -1.4962 H   0  0  0  0  0  0  0  0  0  0  0  0
   -0.7679    1.9946   -0.4195 H   0  0  0  0  0  0  0  0  0  0  0  0
   -1.7697   -0.3116    0.7411 H   0  0  0  0  0  0  0  0  0  0  0  0
  1  2  3  0
  2  3  1  0
  3  4  1  0
  4  5  1  0
  5  6  1  0
  6  7  1  0
  7  8  1  0
  7  4  1  0
  8  5  1  0
  1  9  1  0
  3 10  1  0
  3 11  1  0
  4 12  1  0
  5 13  1  0
  6 14  1  0
  6 15  1  0
  7 16  1  0
M  END
