
     RDKit          3D

 19 20  0  0  0  0  0  0  0  0999 V2000
    3.4843   -0.3317    1.1354 C   0  0  0  0  0  0  0  0  0  0  0  0
    2.3380   -0.0575    0.8762 C   0  0  0  0  0  0  0  0  0  0  0  0
    0.9361    0.2774    0.5329 C   0  0  0  0  0  0  0  0  0  0  0  0
    0.6182    1.5860    0.9562 O   0  0  0  0  0  0  0  0  0  0  0  0
    0.4844   -0.2743   -0.7610 C   0  0  0  0  0  0  0  0  0  0  0  0
   -0.7198   -1.0452   -1.1920 C   0  0  0  0  0  0  0  0  0  0  0  0
   -1.4475   -0.5034    0.0511 C   0  0  0  0  0  0  0  0  0  0  0  0
   -1.9107    0.9070   -0.1399 C   0  0  0  0  0  0  0  0  0  0  0  0
   -0.0326   -0.6715    0.5251 C   0  0  0  0  0  0  0  0  0  0  0  0
    4.4844   -0.5577    1.3690 H   0  0  0  0  0  0  0  0  0  0  0  0
    1.1994    2.2597    0.5243 H   0  0  0  0  0  0  0  0  0  0  0  0
    0.6227    0.5367   -1.4283 H   0  0  0  0  0  0  0  0  0  0  0  0
   -1.2841   -0.7387   -2.0635 H   0  0  0  0  0  0  0  0  0  0  0  0
   -0.6379   -2.1543   -1.0579 H   0  0  0  0  0  0  0  0  0  0  0  0
   -2.1501   -1.2049    0.5026 H   0  0  0  0  0  0  0  0  0  0  0  0
   -1.2865    1.3890   -0.8969 H   0  0  0  0  0  0  0  0  0  0  0  0
   -1.9380    1.4616    0.8128 H   0  0  0  0  0  0  0  0  0  0  0  0
   -2.9479    0.8736   -0.5314 H   0  0  0  0  0  0  0  0  0  0  0  0
    0.1876   -1.7518    0.7853 H   0  0  0  0  0  0  0  0  0  0  0  0
  1  2  3  0
  2  3  1  0
  3  4  1  0
  3  5  1  0
  5  6  1  0
  6  7  1  0
  7  8  1  0
  7  9  1  0
  9  3  1  0
  9  5  1  0
  1 10  1  0
  4 11  1  0
  5 12  1  0
  6 13  1  0
  6 14  1  0
  7 15  1  0
  8 16  1  0
  8 17  1  0
  8 18  1  0
  9 19  1  0
M  END
