
     RDKit          3D

 19 19  0  0  0  0  0  0  0  0999 V2000
   -2.6619    2.3321   -0.6828 C   0  0  0  0  0  0  0  0  0  0  0  0
   -1.9776    1.3727   -0.4118 C   0  0  0  0  0  0  0  0  0  0  0  0
   -1.1286    0.2260   -0.0867 C   0  0  0  0  0  0  0  0  0  0  0  0
   -1.8558   -0.9324    0.5061 C   0  0  0  0  0  0  0  0  0  0  0  0
   -0.3296   -0.1598   -1.2902 O   0  0  0  0  0  0  0  0  0  0  0  0
    0.2733    0.4052   -0.0519 C   0  0  0  0  0  0  0  0  0  0  0  0
    1.2837   -0.5708    0.4668 C   0  0  0  0  0  0  0  0  0  0  0  0
    2.3994   -0.6556   -0.5783 C   0  0  0  0  0  0  0  0  0  0  0  0
    1.8698   -0.0722    1.6297 O   0  0  0  0  0  0  0  0  0  0  0  0
   -3.2546    3.1851   -0.9121 H   0  0  0  0  0  0  0  0  0  0  0  0
   -1.5869   -1.9057    0.0353 H   0  0  0  0  0  0  0  0  0  0  0  0
   -2.9618   -0.8442    0.3981 H   0  0  0  0  0  0  0  0  0  0  0  0
   -1.6719   -1.0306    1.6061 H   0  0  0  0  0  0  0  0  0  0  0  0
    0.7087    1.3879   -0.3382 H   0  0  0  0  0  0  0  0  0  0  0  0
    0.8676   -1.5574    0.7060 H   0  0  0  0  0  0  0  0  0  0  0  0
    3.3324   -0.1926   -0.2246 H   0  0  0  0  0  0  0  0  0  0  0  0
    2.1204   -0.1404   -1.5168 H   0  0  0  0  0  0  0  0  0  0  0  0
    2.5190   -1.7344   -0.8477 H   0  0  0  0  0  0  0  0  0  0  0  0
    2.0543    0.8871    1.5931 H   0  0  0  0  0  0  0  0  0  0  0  0
  1  2  3  0
  2  3  1  0
  3  4  1  0
  3  5  1  0
  5  6  1  0
  6  7  1  0
  7  8  1  0
  7  9  1  0
  6  3  1  0
  1 10  1  0
  4 11  1  0
  4 12  1  0
  4 13  1  0
  6 14  1  0
  7 15  1  0
  8 16  1  0
  8 17  1  0
  8 18  1  0
  9 19  1  0
M  END
