
     RDKit          3D

 19 18  0  0  0  0  0  0  0  0999 V2000
    0.4911   -2.8264    1.0586 C   0  0  0  0  0  0  0  0  0  0  0  0
    0.4578   -1.6767    0.7683 C   0  0  0  0  0  0  0  0  0  0  0  0
    0.4168   -0.3867    0.4410 C   0  0  0  0  0  0  0  0  0  0  0  0
    0.5572    0.6356    1.6147 C   0  0  0  0  0  0  0  0  0  0  0  0
   -0.2050    0.2128   -0.7427 C   0  0  0  0  0  0  0  0  0  0  0  0
   -1.7044   -0.0130   -0.8358 C   0  0  0  0  0  0  0  0  0  0  0  0
    0.3724   -0.3772   -1.9339 O   0  0  0  0  0  0  0  0  0  0  0  0
    0.0945    1.6331   -0.8484 C   0  0  0  0  0  0  0  0  0  0  0  0
    0.7338    2.1617   -1.7469 O   0  0  0  0  0  0  0  0  0  0  0  0
    0.5111   -3.9777    1.3340 H   0  0  0  0  0  0  0  0  0  0  0  0
    1.6374   -0.1866    0.0024 H   0  0  0  0  0  0  0  0  0  0  0  0
    1.3177    0.1533    2.3189 H   0  0  0  0  0  0  0  0  0  0  0  0
   -0.4104    0.7563    2.0849 H   0  0  0  0  0  0  0  0  0  0  0  0
    0.9576    1.5869    1.2214 H   0  0  0  0  0  0  0  0  0  0  0  0
   -2.1064   -0.2781    0.1866 H   0  0  0  0  0  0  0  0  0  0  0  0
   -2.1820    0.9184   -1.1796 H   0  0  0  0  0  0  0  0  0  0  0  0
   -1.9147   -0.8478   -1.5488 H   0  0  0  0  0  0  0  0  0  0  0  0
    1.2204    0.1168   -2.1125 H   0  0  0  0  0  0  0  0  0  0  0  0
   -0.2449    2.3953   -0.0823 H   0  0  0  0  0  0  0  0  0  0  0  0
  1  2  3  0
  2  3  1  0
  3  4  1  0
  3  5  1  0
  5  6  1  0
  5  7  1  0
  5  8  1  0
  8  9  2  0
  1 10  1  0
  3 11  1  0
  4 12  1  0
  4 13  1  0
  4 14  1  0
  6 15  1  0
  6 16  1  0
  6 17  1  0
  7 18  1  0
  8 19  1  0
M  END
