
     RDKit          3D

 19 20  0  0  0  0  0  0  0  0999 V2000
    3.0750    0.2771    1.3529 C   0  0  0  0  0  0  0  0  0  0  0  0
    1.9165    0.0237    1.1277 C   0  0  0  0  0  0  0  0  0  0  0  0
    0.5276   -0.2550    0.8539 C   0  0  0  0  0  0  0  0  0  0  0  0
    0.4152   -0.8580   -0.5578 C   0  0  0  0  0  0  0  0  0  0  0  0
   -0.9432   -1.4288   -0.6047 C   0  0  0  0  0  0  0  0  0  0  0  0
   -1.9491   -0.7185   -0.1330 C   0  0  0  0  0  0  0  0  0  0  0  0
   -1.6765    0.7263    0.1237 C   0  0  0  0  0  0  0  0  0  0  0  0
   -0.2150    0.9376    0.2852 C   0  0  0  0  0  0  0  0  0  0  0  0
    0.4461    0.5808   -1.0527 C   0  0  0  0  0  0  0  0  0  0  0  0
    4.0935    0.5108    1.5668 H   0  0  0  0  0  0  0  0  0  0  0  0
   -0.0319   -0.8122    1.6149 H   0  0  0  0  0  0  0  0  0  0  0  0
    1.2467   -1.4868   -0.8560 H   0  0  0  0  0  0  0  0  0  0  0  0
   -1.1019   -2.4009   -1.0150 H   0  0  0  0  0  0  0  0  0  0  0  0
   -2.9339   -1.1292    0.0691 H   0  0  0  0  0  0  0  0  0  0  0  0
   -1.9950    1.2619   -0.8105 H   0  0  0  0  0  0  0  0  0  0  0  0
   -2.2880    1.1268    0.9532 H   0  0  0  0  0  0  0  0  0  0  0  0
    0.1045    1.9103    0.6902 H   0  0  0  0  0  0  0  0  0  0  0  0
   -0.1647    0.7884   -1.9320 H   0  0  0  0  0  0  0  0  0  0  0  0
    1.4742    0.9460   -1.0418 H   0  0  0  0  0  0  0  0  0  0  0  0
  1  2  3  0
  2  3  1  0
  3  4  1  0
  4  5  1  0
  5  6  2  0
  6  7  1  0
  7  8  1  0
  8  9  1  0
  8  3  1  0
  9  4  1  0
  1 10  1  0
  3 11  1  0
  4 12  1  0
  5 13  1  0
  6 14  1  0
  7 15  1  0
  7 16  1  0
  8 17  1  0
  9 18  1  0
  9 19  1  0
M  END
