
     RDKit          3D

 19 19  0  0  0  0  0  0  0  0999 V2000
    2.0003    2.1907    0.1564 C   0  0  0  0  0  0  0  0  0  0  0  0
    1.2612    1.2493    0.0024 C   0  0  0  0  0  0  0  0  0  0  0  0
    0.3730    0.1000   -0.1616 C   0  0  0  0  0  0  0  0  0  0  0  0
    1.0739   -1.2174    0.0139 C   0  0  0  0  0  0  0  0  0  0  0  0
    1.9713   -1.4806   -0.9939 O   0  0  0  0  0  0  0  0  0  0  0  0
   -0.3678    0.2224   -1.3374 O   0  0  0  0  0  0  0  0  0  0  0  0
   -1.1423    1.1679   -0.6235 C   0  0  0  0  0  0  0  0  0  0  0  0
   -0.8981    0.2800    0.6051 C   0  0  0  0  0  0  0  0  0  0  0  0
   -1.8399   -0.8971    0.5285 C   0  0  0  0  0  0  0  0  0  0  0  0
    2.6483    3.0369    0.3072 H   0  0  0  0  0  0  0  0  0  0  0  0
    1.6701   -1.1309    0.9632 H   0  0  0  0  0  0  0  0  0  0  0  0
    0.3922   -2.0567    0.1584 H   0  0  0  0  0  0  0  0  0  0  0  0
    2.6956   -2.0334   -0.6368 H   0  0  0  0  0  0  0  0  0  0  0  0
   -2.1925    1.2082   -0.8944 H   0  0  0  0  0  0  0  0  0  0  0  0
   -0.5997    2.1296   -0.5351 H   0  0  0  0  0  0  0  0  0  0  0  0
   -0.8524    0.8096    1.5538 H   0  0  0  0  0  0  0  0  0  0  0  0
   -2.7854   -0.6031    0.9811 H   0  0  0  0  0  0  0  0  0  0  0  0
   -1.4362   -1.7945    1.0450 H   0  0  0  0  0  0  0  0  0  0  0  0
   -1.9715   -1.1809   -0.5384 H   0  0  0  0  0  0  0  0  0  0  0  0
  1  2  3  0
  2  3  1  0
  3  4  1  0
  4  5  1  0
  3  6  1  0
  6  7  1  0
  7  8  1  0
  8  9  1  0
  8  3  1  0
  1 10  1  0
  4 11  1  0
  4 12  1  0
  5 13  1  0
  7 14  1  0
  7 15  1  0
  8 16  1  0
  9 17  1  0
  9 18  1  0
  9 19  1  0
M  END
