
     RDKit          3D

 21 21  0  0  0  0  0  0  0  0999 V2000
   -2.2362    0.2063   -1.7503 C   0  0  0  0  0  0  0  0  0  0  0  0
   -1.6434   -0.0683   -0.7269 C   0  0  0  0  0  0  0  0  0  0  0  0
   -0.9320   -0.4256    0.5252 C   0  0  0  0  0  0  0  0  0  0  0  0
   -0.4461   -1.8056    0.5881 C   0  0  0  0  0  0  0  0  0  0  0  0
    0.9652   -1.7507   -0.0425 C   0  0  0  0  0  0  0  0  0  0  0  0
    1.5065   -0.4961    0.6899 C   0  0  0  0  0  0  0  0  0  0  0  0
    0.3684    0.4715    0.4940 C   0  0  0  0  0  0  0  0  0  0  0  0
    0.4812    1.1027   -0.7470 O   0  0  0  0  0  0  0  0  0  0  0  0
    0.2704    2.4551   -0.5679 C   0  0  0  0  0  0  0  0  0  0  0  0
   -2.7602    0.4296   -2.6339 H   0  0  0  0  0  0  0  0  0  0  0  0
   -1.5421   -0.1023    1.3662 H   0  0  0  0  0  0  0  0  0  0  0  0
   -0.1770   -1.9539    1.7069 H   0  0  0  0  0  0  0  0  0  0  0  0
   -1.0308   -2.5945    0.1772 H   0  0  0  0  0  0  0  0  0  0  0  0
    0.9333   -1.6305   -1.1110 H   0  0  0  0  0  0  0  0  0  0  0  0
    1.5051   -2.6363    0.2680 H   0  0  0  0  0  0  0  0  0  0  0  0
    2.4472   -0.2091    0.2190 H   0  0  0  0  0  0  0  0  0  0  0  0
    1.5754   -0.7576    1.7572 H   0  0  0  0  0  0  0  0  0  0  0  0
    0.2176    1.2186    1.2689 H   0  0  0  0  0  0  0  0  0  0  0  0
    1.0196    2.9379    0.1079 H   0  0  0  0  0  0  0  0  0  0  0  0
    0.2138    3.0026   -1.5243 H   0  0  0  0  0  0  0  0  0  0  0  0
   -0.7359    2.6062   -0.0648 H   0  0  0  0  0  0  0  0  0  0  0  0
  1  2  3  0
  2  3  1  0
  3  4  1  0
  4  5  1  0
  5  6  1  0
  6  7  1  0
  7  8  1  0
  8  9  1  0
  7  3  1  0
  1 10  1  0
  3 11  1  0
  4 12  1  0
  4 13  1  0
  5 14  1  0
  5 15  1  0
  6 16  1  0
  6 17  1  0
  7 18  1  0
  9 19  1  0
  9 20  1  0
  9 21  1  0
M  END
