
     RDKit          3D

 19 20  0  0  0  0  0  0  0  0999 V2000
    3.2418    0.3009    0.4355 C   0  0  0  0  0  0  0  0  0  0  0  0
    2.0439    0.2205    0.2401 C   0  0  0  0  0  0  0  0  0  0  0  0
    0.6281    0.1457    0.0241 C   0  0  0  0  0  0  0  0  0  0  0  0
    0.0183    1.2619   -0.7829 C   0  0  0  0  0  0  0  0  0  0  0  0
   -1.3541    1.3151   -0.6381 O   0  0  0  0  0  0  0  0  0  0  0  0
   -1.9504    0.0768   -0.4922 C   0  0  0  0  0  0  0  0  0  0  0  0
   -1.1570   -0.8261    0.4025 C   0  0  0  0  0  0  0  0  0  0  0  0
   -0.1985   -0.0281    1.2974 C   0  0  0  0  0  0  0  0  0  0  0  0
    0.0977   -1.2137   -0.3932 C   0  0  0  0  0  0  0  0  0  0  0  0
    4.2879    0.3839    0.6055 H   0  0  0  0  0  0  0  0  0  0  0  0
    0.4282    2.2097   -0.3744 H   0  0  0  0  0  0  0  0  0  0  0  0
    0.3407    1.1358   -1.8465 H   0  0  0  0  0  0  0  0  0  0  0  0
   -2.9897    0.2048   -0.1976 H   0  0  0  0  0  0  0  0  0  0  0  0
   -1.9543   -0.3980   -1.5110 H   0  0  0  0  0  0  0  0  0  0  0  0
   -1.6715   -1.6451    0.8881 H   0  0  0  0  0  0  0  0  0  0  0  0
    0.2736   -0.6774    2.0349 H   0  0  0  0  0  0  0  0  0  0  0  0
   -0.6976    0.8805    1.6529 H   0  0  0  0  0  0  0  0  0  0  0  0
    0.6774   -2.0005    0.1214 H   0  0  0  0  0  0  0  0  0  0  0  0
   -0.0646   -1.3466   -1.4666 H   0  0  0  0  0  0  0  0  0  0  0  0
  1  2  3  0
  2  3  1  0
  3  4  1  0
  4  5  1  0
  5  6  1  0
  6  7  1  0
  7  8  1  0
  7  9  1  0
  8  3  1  0
  9  3  1  0
  1 10  1  0
  4 11  1  0
  4 12  1  0
  6 13  1  0
  6 14  1  0
  7 15  1  0
  8 16  1  0
  8 17  1  0
  9 18  1  0
  9 19  1  0
M  END
