
     RDKit          3D

 21 21  0  0  0  0  0  0  0  0999 V2000
   -2.1012    2.2777   -0.9441 C   0  0  0  0  0  0  0  0  0  0  0  0
   -1.4241    1.3601   -0.5343 C   0  0  0  0  0  0  0  0  0  0  0  0
   -0.5972    0.2528   -0.0117 C   0  0  0  0  0  0  0  0  0  0  0  0
   -1.4728   -0.4242    1.0549 C   0  0  0  0  0  0  0  0  0  0  0  0
   -0.3621   -0.7229   -1.0861 C   0  0  0  0  0  0  0  0  0  0  0  0
    1.0219   -1.2512   -1.1674 C   0  0  0  0  0  0  0  0  0  0  0  0
    2.0007   -0.9746   -0.3464 C   0  0  0  0  0  0  0  0  0  0  0  0
    1.7786   -0.0693    0.7753 C   0  0  0  0  0  0  0  0  0  0  0  0
    0.5877    0.8061    0.6887 C   0  0  0  0  0  0  0  0  0  0  0  0
   -2.6851    3.0931   -1.2946 H   0  0  0  0  0  0  0  0  0  0  0  0
   -2.4516   -0.6976    0.6581 H   0  0  0  0  0  0  0  0  0  0  0  0
   -1.5254    0.2021    1.9726 H   0  0  0  0  0  0  0  0  0  0  0  0
   -0.9405   -1.3536    1.3270 H   0  0  0  0  0  0  0  0  0  0  0  0
   -1.0341   -1.6187   -1.0373 H   0  0  0  0  0  0  0  0  0  0  0  0
   -0.5726   -0.2746   -2.1018 H   0  0  0  0  0  0  0  0  0  0  0  0
    1.2077   -1.9395   -2.0123 H   0  0  0  0  0  0  0  0  0  0  0  0
    2.9685   -1.4172   -0.5021 H   0  0  0  0  0  0  0  0  0  0  0  0
    2.6946    0.5645    0.9613 H   0  0  0  0  0  0  0  0  0  0  0  0
    1.6922   -0.6920    1.7121 H   0  0  0  0  0  0  0  0  0  0  0  0
    0.8930    1.7439    0.1620 H   0  0  0  0  0  0  0  0  0  0  0  0
    0.3218    1.1350    1.7261 H   0  0  0  0  0  0  0  0  0  0  0  0
  1  2  3  0
  2  3  1  0
  3  4  1  0
  3  5  1  0
  5  6  1  0
  6  7  2  0
  7  8  1  0
  8  9  1  0
  9  3  1  0
  1 10  1  0
  4 11  1  0
  4 12  1  0
  4 13  1  0
  5 14  1  0
  5 15  1  0
  6 16  1  0
  7 17  1  0
  8 18  1  0
  8 19  1  0
  9 20  1  0
  9 21  1  0
M  END
