
     RDKit          3D

 19 19  0  0  0  0  0  0  0  0999 V2000
    3.1408   -0.6222    0.1684 C   0  0  0  0  0  0  0  0  0  0  0  0
    2.0568   -0.1662   -0.0665 C   0  0  0  0  0  0  0  0  0  0  0  0
    0.7202    0.3737   -0.3601 C   0  0  0  0  0  0  0  0  0  0  0  0
    0.8318    1.6734   -0.9034 O   0  0  0  0  0  0  0  0  0  0  0  0
   -0.0541   -0.5293   -1.2914 C   0  0  0  0  0  0  0  0  0  0  0  0
   -1.2834   -0.9676   -0.4858 C   0  0  0  0  0  0  0  0  0  0  0  0
   -1.5117    0.2945    0.3532 C   0  0  0  0  0  0  0  0  0  0  0  0
   -2.4416    0.0785    1.3537 O   0  0  0  0  0  0  0  0  0  0  0  0
   -0.1111    0.4897    0.9045 C   0  0  0  0  0  0  0  0  0  0  0  0
    4.1083   -1.0415    0.3943 H   0  0  0  0  0  0  0  0  0  0  0  0
    1.3688    2.2099   -0.2683 H   0  0  0  0  0  0  0  0  0  0  0  0
    0.5422   -1.4101   -1.6065 H   0  0  0  0  0  0  0  0  0  0  0  0
   -0.4176    0.0571   -2.1597 H   0  0  0  0  0  0  0  0  0  0  0  0
   -1.0166   -1.7671    0.2313 H   0  0  0  0  0  0  0  0  0  0  0  0
   -2.1342   -1.2050   -1.1240 H   0  0  0  0  0  0  0  0  0  0  0  0
   -1.7931    1.1001   -0.3513 H   0  0  0  0  0  0  0  0  0  0  0  0
   -2.1123    0.3431    2.2315 H   0  0  0  0  0  0  0  0  0  0  0  0
    0.0939   -0.3715    1.5747 H   0  0  0  0  0  0  0  0  0  0  0  0
    0.0128    1.4605    1.4054 H   0  0  0  0  0  0  0  0  0  0  0  0
  1  2  3  0
  2  3  1  0
  3  4  1  0
  3  5  1  0
  5  6  1  0
  6  7  1  0
  7  8  1  0
  7  9  1  0
  9  3  1  0
  1 10  1  0
  4 11  1  0
  5 12  1  0
  5 13  1  0
  6 14  1  0
  6 15  1  0
  7 16  1  0
  8 17  1  0
  9 18  1  0
  9 19  1  0
M  END
