
     RDKit          3D

 18 17  0  0  0  0  0  0  0  0999 V2000
   -3.5437    1.2097   -0.5781 C   0  0  0  0  0  0  0  0  0  0  0  0
   -2.3799    1.0253   -0.3908 C   0  0  0  0  0  0  0  0  0  0  0  0
   -1.0215    0.7901   -0.1863 C   0  0  0  0  0  0  0  0  0  0  0  0
   -0.6761   -0.6865   -0.0616 C   0  0  0  0  0  0  0  0  0  0  0  0
   -1.3603   -1.3083    0.9952 O   0  0  0  0  0  0  0  0  0  0  0  0
    0.8163   -0.7061    0.3514 C   0  0  0  0  0  0  0  0  0  0  0  0
    1.5968   -0.0676   -0.6211 O   0  0  0  0  0  0  0  0  0  0  0  0
    2.9465   -0.0806   -0.2399 C   0  0  0  0  0  0  0  0  0  0  0  0
   -4.6840    1.4084   -0.7707 H   0  0  0  0  0  0  0  0  0  0  0  0
   -0.6016    1.3357    0.7067 H   0  0  0  0  0  0  0  0  0  0  0  0
   -0.4283    1.1380   -1.0916 H   0  0  0  0  0  0  0  0  0  0  0  0
   -0.8260   -1.2622   -0.9650 H   0  0  0  0  0  0  0  0  0  0  0  0
   -1.9468   -0.5798    1.3569 H   0  0  0  0  0  0  0  0  0  0  0  0
    1.1504   -1.7363    0.5407 H   0  0  0  0  0  0  0  0  0  0  0  0
    0.9472   -0.1483    1.2914 H   0  0  0  0  0  0  0  0  0  0  0  0
    3.1619    0.4287    0.7035 H   0  0  0  0  0  0  0  0  0  0  0  0
    3.5383    0.3721   -1.0400 H   0  0  0  0  0  0  0  0  0  0  0  0
    3.3109   -1.1324   -0.1211 H   0  0  0  0  0  0  0  0  0  0  0  0
  1  2  3  0
  2  3  1  0
  3  4  1  0
  4  5  1  0
  4  6  1  0
  6  7  1  0
  7  8  1  0
  1  9  1  0
  3 10  1  0
  3 11  1  0
  4 12  1  0
  5 13  1  0
  6 14  1  0
  6 15  1  0
  8 16  1  0
  8 17  1  0
  8 18  1  0
M  END
