
     RDKit          3D

 17 18  0  0  0  0  0  0  0  0999 V2000
    3.0826    0.0451    0.5291 C   0  0  0  0  0  0  0  0  0  0  0  0
    1.9025    0.2590    0.3865 C   0  0  0  0  0  0  0  0  0  0  0  0
    0.4746    0.5433    0.2095 C   0  0  0  0  0  0  0  0  0  0  0  0
   -0.0046    1.4804   -0.8054 C   0  0  0  0  0  0  0  0  0  0  0  0
   -0.1021    0.0455   -1.0698 C   0  0  0  0  0  0  0  0  0  0  0  0
   -1.2809   -0.7840   -0.6838 C   0  0  0  0  0  0  0  0  0  0  0  0
   -1.2119   -1.0063    0.8136 C   0  0  0  0  0  0  0  0  0  0  0  0
   -0.4680    0.1922    1.2961 C   0  0  0  0  0  0  0  0  0  0  0  0
   -0.5815    0.7854    2.3514 O   0  0  0  0  0  0  0  0  0  0  0  0
    4.1218   -0.1366    0.6677 H   0  0  0  0  0  0  0  0  0  0  0  0
   -0.9555    2.0226   -0.6089 H   0  0  0  0  0  0  0  0  0  0  0  0
    0.7167    2.0700   -1.3872 H   0  0  0  0  0  0  0  0  0  0  0  0
    0.5412   -0.3622   -1.8758 H   0  0  0  0  0  0  0  0  0  0  0  0
   -1.2057   -1.7926   -1.1454 H   0  0  0  0  0  0  0  0  0  0  0  0
   -2.2496   -0.3601   -1.0087 H   0  0  0  0  0  0  0  0  0  0  0  0
   -0.5737   -1.8911    1.0614 H   0  0  0  0  0  0  0  0  0  0  0  0
   -2.2060   -1.1105    1.2698 H   0  0  0  0  0  0  0  0  0  0  0  0
  1  2  3  0
  2  3  1  0
  3  4  1  0
  4  5  1  0
  5  6  1  0
  6  7  1  0
  7  8  1  0
  8  9  2  0
  5  3  1  0
  8  3  1  0
  1 10  1  0
  4 11  1  0
  4 12  1  0
  5 13  1  0
  6 14  1  0
  6 15  1  0
  7 16  1  0
  7 17  1  0
M  END
