
     RDKit          3D

 13 12  0  0  0  0  0  0  0  0999 V2000
    1.6764    1.2381   -3.0113 C   0  0  0  0  0  0  0  0  0  0  0  0
    1.5840    0.1229   -2.2810 C   0  0  0  0  0  0  0  0  0  0  0  0
    1.4832   -1.0685   -1.4809 C   0  0  0  0  0  0  0  0  0  0  0  0
    0.5813   -0.8651   -0.3777 C   0  0  0  0  0  0  0  0  0  0  0  0
   -0.2834   -0.6905    0.6861 C   0  0  0  0  0  0  0  0  0  0  0  0
   -1.1080   -0.5254    1.6651 C   0  0  0  0  0  0  0  0  0  0  0  0
   -1.2996   -1.3775    2.6725 O   0  0  0  0  0  0  0  0  0  0  0  0
   -2.0175    0.6930    1.8297 C   0  0  0  0  0  0  0  0  0  0  0  0
   -2.6427    1.5027    1.9399 C   0  0  0  0  0  0  0  0  0  0  0  0
    1.7406    1.9432   -3.4824 H   0  0  0  0  0  0  0  0  0  0  0  0
    2.4648   -1.4580   -1.0230 H   0  0  0  0  0  0  0  0  0  0  0  0
    1.2110   -1.9866   -2.0946 H   0  0  0  0  0  0  0  0  0  0  0  0
   -3.3902    2.4717    2.0815 H   0  0  0  0  0  0  0  0  0  0  0  0
  1  2  3  0
  2  3  1  0
  3  4  1  0
  4  5  3  0
  5  6  1  0
  6  7  2  0
  6  8  1  0
  8  9  3  0
  1 10  1  0
  3 11  1  0
  3 12  1  0
  9 13  1  0
M  END
