
     RDKit          3D

 21 22  0  0  0  0  0  0  0  0999 V2000
    3.3582    0.3038    0.3315 C   0  0  0  0  0  0  0  0  0  0  0  0
    2.2262    0.4494   -0.0994 C   0  0  0  0  0  0  0  0  0  0  0  0
    0.8660    0.6167   -0.6215 C   0  0  0  0  0  0  0  0  0  0  0  0
    0.3514   -0.7648   -1.0331 C   0  0  0  0  0  0  0  0  0  0  0  0
   -0.6120   -1.1965    0.0355 C   0  0  0  0  0  0  0  0  0  0  0  0
   -1.9155   -0.4759   -0.2078 C   0  0  0  0  0  0  0  0  0  0  0  0
   -1.4907    0.9807   -0.0386 C   0  0  0  0  0  0  0  0  0  0  0  0
   -0.0905    0.9616    0.4980 C   0  0  0  0  0  0  0  0  0  0  0  0
   -0.0767   -0.3905    1.2303 C   0  0  0  0  0  0  0  0  0  0  0  0
    4.3405    0.1593    0.7020 H   0  0  0  0  0  0  0  0  0  0  0  0
    0.8197    1.3292   -1.4627 H   0  0  0  0  0  0  0  0  0  0  0  0
   -0.1264   -0.6473   -2.0189 H   0  0  0  0  0  0  0  0  0  0  0  0
    1.1915   -1.4745   -1.1479 H   0  0  0  0  0  0  0  0  0  0  0  0
   -0.6834   -2.2485    0.2206 H   0  0  0  0  0  0  0  0  0  0  0  0
   -2.3020   -0.6451   -1.2262 H   0  0  0  0  0  0  0  0  0  0  0  0
   -2.6218   -0.7096    0.5942 H   0  0  0  0  0  0  0  0  0  0  0  0
   -2.1358    1.5298    0.6464 H   0  0  0  0  0  0  0  0  0  0  0  0
   -1.5082    1.4564   -1.0362 H   0  0  0  0  0  0  0  0  0  0  0  0
    0.1979    1.7866    1.1151 H   0  0  0  0  0  0  0  0  0  0  0  0
   -0.7572   -0.4079    2.0774 H   0  0  0  0  0  0  0  0  0  0  0  0
    0.9688   -0.6128    1.4414 H   0  0  0  0  0  0  0  0  0  0  0  0
  1  2  3  0
  2  3  1  0
  3  4  1  0
  4  5  1  0
  5  6  1  0
  6  7  1  0
  7  8  1  0
  8  9  1  0
  8  3  1  0
  9  5  1  0
  1 10  1  0
  3 11  1  0
  4 12  1  0
  4 13  1  0
  5 14  1  0
  6 15  1  0
  6 16  1  0
  7 17  1  0
  7 18  1  0
  8 19  1  0
  9 20  1  0
  9 21  1  0
M  END
