
     RDKit          3D

 19 20  0  0  0  0  0  0  0  0999 V2000
    3.0514    1.0859    0.0531 C   0  0  0  0  0  0  0  0  0  0  0  0
    2.2911    0.2126    0.3147 C   0  0  0  0  0  0  0  0  0  0  0  0
    1.3915   -0.8542    0.6423 C   0  0  0  0  0  0  0  0  0  0  0  0
   -0.0290   -0.6768    0.4373 C   0  0  0  0  0  0  0  0  0  0  0  0
   -0.6261   -0.3920   -0.8977 C   0  0  0  0  0  0  0  0  0  0  0  0
   -2.1092   -0.5540   -0.5411 C   0  0  0  0  0  0  0  0  0  0  0  0
   -2.1007    0.1288    0.7019 O   0  0  0  0  0  0  0  0  0  0  0  0
   -0.7587    0.5639    0.8270 C   0  0  0  0  0  0  0  0  0  0  0  0
   -0.5265    1.0874   -0.5651 C   0  0  0  0  0  0  0  0  0  0  0  0
    3.7206    1.8705   -0.1826 H   0  0  0  0  0  0  0  0  0  0  0  0
    1.7130   -1.7616    0.0447 H   0  0  0  0  0  0  0  0  0  0  0  0
    1.5409   -1.2077    1.7089 H   0  0  0  0  0  0  0  0  0  0  0  0
   -0.5830   -1.5616    0.8904 H   0  0  0  0  0  0  0  0  0  0  0  0
   -0.2584   -0.7693   -1.7946 H   0  0  0  0  0  0  0  0  0  0  0  0
   -2.7551    0.0203   -1.2140 H   0  0  0  0  0  0  0  0  0  0  0  0
   -2.3903   -1.5933   -0.3993 H   0  0  0  0  0  0  0  0  0  0  0  0
   -0.4931    1.1318    1.6708 H   0  0  0  0  0  0  0  0  0  0  0  0
   -1.4468    1.6526   -0.8891 H   0  0  0  0  0  0  0  0  0  0  0  0
    0.3685    1.6169   -0.8079 H   0  0  0  0  0  0  0  0  0  0  0  0
  1  2  3  0
  2  3  1  0
  3  4  1  0
  4  5  1  0
  5  6  1  0
  6  7  1  0
  7  8  1  0
  8  9  1  0
  8  4  1  0
  9  5  1  0
  1 10  1  0
  3 11  1  0
  3 12  1  0
  4 13  1  0
  5 14  1  0
  6 15  1  0
  6 16  1  0
  8 17  1  0
  9 18  1  0
  9 19  1  0
M  END
