
     RDKit          3D

 15 14  0  0  0  0  0  0  0  0999 V2000
    2.4239   -2.1207    0.2831 C   0  0  0  0  0  0  0  0  0  0  0  0
    1.7654   -1.0024   -0.2748 C   0  0  0  0  0  0  0  0  0  0  0  0
    1.1667   -0.0230   -0.7786 C   0  0  0  0  0  0  0  0  0  0  0  0
    1.6070    0.6658   -1.8325 O   0  0  0  0  0  0  0  0  0  0  0  0
   -0.1524    0.5757   -0.3183 C   0  0  0  0  0  0  0  0  0  0  0  0
    0.1142    2.0175    0.0677 C   0  0  0  0  0  0  0  0  0  0  0  0
   -0.1595    2.3541    1.2142 O   0  0  0  0  0  0  0  0  0  0  0  0
   -0.6428   -0.1324    0.7478 O   0  0  0  0  0  0  0  0  0  0  0  0
   -1.9453   -0.6100    0.5402 C   0  0  0  0  0  0  0  0  0  0  0  0
    2.8928   -2.9285    0.6920 H   0  0  0  0  0  0  0  0  0  0  0  0
   -0.8422    0.6449   -1.1568 H   0  0  0  0  0  0  0  0  0  0  0  0
    0.5127    2.7061   -0.6111 H   0  0  0  0  0  0  0  0  0  0  0  0
   -1.8772   -1.2611   -0.3682 H   0  0  0  0  0  0  0  0  0  0  0  0
   -2.5843    0.2673    0.3853 H   0  0  0  0  0  0  0  0  0  0  0  0
   -2.2790   -1.1535    1.4100 H   0  0  0  0  0  0  0  0  0  0  0  0
  1  2  3  0
  2  3  1  0
  3  4  2  0
  3  5  1  0
  5  6  1  0
  6  7  2  0
  5  8  1  0
  8  9  1  0
  1 10  1  0
  5 11  1  0
  6 12  1  0
  9 13  1  0
  9 14  1  0
  9 15  1  0
M  END
