
     RDKit          3D

 15 14  0  0  0  0  0  0  0  0999 V2000
   -3.0018    0.9402    0.8132 C   0  0  0  0  0  0  0  0  0  0  0  0
   -2.4028    0.2726    0.2461 C   0  0  0  0  0  0  0  0  0  0  0  0
   -1.4319   -0.7843   -0.6689 C   0  0  0  0  0  0  0  0  0  0  0  0
   -2.2961   -1.2631   -1.5405 O   0  0  0  0  0  0  0  0  0  0  0  0
   -0.3640    0.2396   -1.1668 C   0  0  0  0  0  0  0  0  0  0  0  0
   -0.6835    1.0478   -2.0670 O   0  0  0  0  0  0  0  0  0  0  0  0
    0.9956    0.2214   -0.5579 C   0  0  0  0  0  0  0  0  0  0  0  0
    1.7648    0.2079   -0.2116 C   0  0  0  0  0  0  0  0  0  0  0  0
    3.5250    0.1766    0.5442 C   0  0  0  0  0  0  0  0  0  0  0  0
   -3.7969    1.8113    1.5440 H   0  0  0  0  0  0  0  0  0  0  0  0
   -1.0888   -1.3484    0.1616 H   0  0  0  0  0  0  0  0  0  0  0  0
   -2.0610   -2.0909   -1.9928 H   0  0  0  0  0  0  0  0  0  0  0  0
    3.5551    0.9724    1.0369 H   0  0  0  0  0  0  0  0  0  0  0  0
    3.8688    0.4512   -0.6613 H   0  0  0  0  0  0  0  0  0  0  0  0
    3.4173   -0.8541    0.4338 H   0  0  0  0  0  0  0  0  0  0  0  0
  1  2  3  0
  2  3  1  0
  3  4  1  0
  3  5  1  0
  5  6  2  0
  5  7  1  0
  7  8  3  0
  8  9  1  0
  1 10  1  0
  3 11  1  0
  4 12  1  0
  9 13  1  0
  9 14  1  0
  9 15  1  0
M  END
