
     RDKit          3D

 17 16  0  0  0  0  0  0  0  0999 V2000
   -1.9039   -0.6621    3.2840 C   0  0  0  0  0  0  0  0  0  0  0  0
   -1.5753    0.0753    2.3424 C   0  0  0  0  0  0  0  0  0  0  0  0
   -1.1758    0.9415    1.2224 C   0  0  0  0  0  0  0  0  0  0  0  0
   -0.6489    0.2563    0.1564 C   0  0  0  0  0  0  0  0  0  0  0  0
   -0.1213   -0.4083   -0.9222 C   0  0  0  0  0  0  0  0  0  0  0  0
    0.4442   -1.0880   -2.0229 C   0  0  0  0  0  0  0  0  0  0  0  0
    1.9582   -0.7962   -1.9962 C   0  0  0  0  0  0  0  0  0  0  0  0
   -0.1999    1.9488    1.8170 C   0  0  0  0  0  0  0  0  0  0  0  0
    0.3594    2.6733    1.0220 O   0  0  0  0  0  0  0  0  0  0  0  0
   -2.1896   -1.3056    4.1288 H   0  0  0  0  0  0  0  0  0  0  0  0
   -2.1016    1.4970    0.9050 H   0  0  0  0  0  0  0  0  0  0  0  0
    0.3069   -2.2052   -1.9568 H   0  0  0  0  0  0  0  0  0  0  0  0
   -0.0084   -0.7397   -2.9676 H   0  0  0  0  0  0  0  0  0  0  0  0
    2.0705    0.1945   -1.5202 H   0  0  0  0  0  0  0  0  0  0  0  0
    2.4868   -1.5908   -1.4081 H   0  0  0  0  0  0  0  0  0  0  0  0
    2.3384   -0.7867   -3.0224 H   0  0  0  0  0  0  0  0  0  0  0  0
   -0.0397    1.9960    2.8460 H   0  0  0  0  0  0  0  0  0  0  0  0
  1  2  3  0
  2  3  1  0
  3  4  1  0
  4  5  3  0
  5  6  1  0
  6  7  1  0
  3  8  1  0
  8  9  2  0
  1 10  1  0
  3 11  1  0
  6 12  1  0
  6 13  1  0
  7 14  1  0
  7 15  1  0
  7 16  1  0
  8 17  1  0
M  END
