
     RDKit          3D

 21 21  0  0  0  0  0  0  0  0999 V2000
    2.1830    2.0298   -0.6468 C   0  0  0  0  0  0  0  0  0  0  0  0
    1.6116    1.1117   -0.1145 C   0  0  0  0  0  0  0  0  0  0  0  0
    0.9212    0.0213    0.5452 C   0  0  0  0  0  0  0  0  0  0  0  0
    1.4280   -1.3242    0.0320 C   0  0  0  0  0  0  0  0  0  0  0  0
    0.3340   -2.1392    0.3051 O   0  0  0  0  0  0  0  0  0  0  0  0
   -0.6987   -1.4480   -0.3201 C   0  0  0  0  0  0  0  0  0  0  0  0
   -0.5230   -0.0121    0.1606 C   0  0  0  0  0  0  0  0  0  0  0  0
   -0.8757    0.9089   -0.9694 C   0  0  0  0  0  0  0  0  0  0  0  0
   -1.4530    0.1683    1.3490 C   0  0  0  0  0  0  0  0  0  0  0  0
    2.6881    2.8522   -1.1289 H   0  0  0  0  0  0  0  0  0  0  0  0
    1.0160    0.0708    1.6489 H   0  0  0  0  0  0  0  0  0  0  0  0
    1.5347   -1.2623   -1.0563 H   0  0  0  0  0  0  0  0  0  0  0  0
    2.3491   -1.6406    0.5178 H   0  0  0  0  0  0  0  0  0  0  0  0
   -0.6142   -1.4578   -1.4286 H   0  0  0  0  0  0  0  0  0  0  0  0
   -1.7007   -1.8309    0.0080 H   0  0  0  0  0  0  0  0  0  0  0  0
   -1.9452    1.2266   -0.8084 H   0  0  0  0  0  0  0  0  0  0  0  0
   -0.2360    1.7908   -1.0562 H   0  0  0  0  0  0  0  0  0  0  0  0
   -0.9072    0.3497   -1.9471 H   0  0  0  0  0  0  0  0  0  0  0  0
   -0.9592    0.7168    2.1771 H   0  0  0  0  0  0  0  0  0  0  0  0
   -2.3603    0.6771    0.9713 H   0  0  0  0  0  0  0  0  0  0  0  0
   -1.7925   -0.8089    1.7614 H   0  0  0  0  0  0  0  0  0  0  0  0
  1  2  3  0
  2  3  1  0
  3  4  1  0
  4  5  1  0
  5  6  1  0
  6  7  1  0
  7  8  1  0
  7  9  1  0
  7  3  1  0
  1 10  1  0
  3 11  1  0
  4 12  1  0
  4 13  1  0
  6 14  1  0
  6 15  1  0
  8 16  1  0
  8 17  1  0
  8 18  1  0
  9 19  1  0
  9 20  1  0
  9 21  1  0
M  END
