
     RDKit          3D

 21 21  0  0  0  0  0  0  0  0999 V2000
   -0.8381   -2.6777    2.7285 C   0  0  0  0  0  0  0  0  0  0  0  0
   -0.2421   -2.5335    1.7461 C   0  0  0  0  0  0  0  0  0  0  0  0
    0.5234   -2.3382    0.5246 C   0  0  0  0  0  0  0  0  0  0  0  0
    0.4934   -0.9268    0.0517 C   0  0  0  0  0  0  0  0  0  0  0  0
    0.0471   -0.5292   -1.1111 C   0  0  0  0  0  0  0  0  0  0  0  0
    0.1677    0.9295   -1.2428 C   0  0  0  0  0  0  0  0  0  0  0  0
   -1.0830    1.5029   -1.8714 C   0  0  0  0  0  0  0  0  0  0  0  0
    0.3500    1.4021    0.1781 C   0  0  0  0  0  0  0  0  0  0  0  0
    0.9594    0.2109    0.8651 C   0  0  0  0  0  0  0  0  0  0  0  0
   -1.4376   -2.8044    3.6928 H   0  0  0  0  0  0  0  0  0  0  0  0
    1.5668   -2.7000    0.6564 H   0  0  0  0  0  0  0  0  0  0  0  0
    0.0519   -2.9731   -0.2612 H   0  0  0  0  0  0  0  0  0  0  0  0
   -0.3633   -1.1806   -1.8896 H   0  0  0  0  0  0  0  0  0  0  0  0
    1.0777    1.1774   -1.8285 H   0  0  0  0  0  0  0  0  0  0  0  0
   -0.7779    1.9773   -2.8257 H   0  0  0  0  0  0  0  0  0  0  0  0
   -1.8505    0.7333   -1.9672 H   0  0  0  0  0  0  0  0  0  0  0  0
   -1.5020    2.3026   -1.2047 H   0  0  0  0  0  0  0  0  0  0  0  0
   -0.6383    1.5936    0.6639 H   0  0  0  0  0  0  0  0  0  0  0  0
    0.9249    2.3247    0.2416 H   0  0  0  0  0  0  0  0  0  0  0  0
    2.0564    0.2796    0.9560 H   0  0  0  0  0  0  0  0  0  0  0  0
    0.5140    0.1166    1.8976 H   0  0  0  0  0  0  0  0  0  0  0  0
  1  2  3  0
  2  3  1  0
  3  4  1  0
  4  5  2  0
  5  6  1  0
  6  7  1  0
  6  8  1  0
  8  9  1  0
  9  4  1  0
  1 10  1  0
  3 11  1  0
  3 12  1  0
  5 13  1  0
  6 14  1  0
  7 15  1  0
  7 16  1  0
  7 17  1  0
  8 18  1  0
  8 19  1  0
  9 20  1  0
  9 21  1  0
M  END
