
     RDKit          3D

 18 18  0  0  0  0  0  0  0  0999 V2000
   -2.1724   -0.7253   -1.1330 C   0  0  0  0  0  0  0  0  0  0  0  0
   -1.3314   -0.2240   -0.4288 C   0  0  0  0  0  0  0  0  0  0  0  0
   -0.3132    0.3561    0.4270 C   0  0  0  0  0  0  0  0  0  0  0  0
   -0.1104    1.8309    0.3122 C   0  0  0  0  0  0  0  0  0  0  0  0
   -0.4221   -0.1940    1.8253 C   0  0  0  0  0  0  0  0  0  0  0  0
    0.2409   -1.3465    1.3383 O   0  0  0  0  0  0  0  0  0  0  0  0
    0.9201   -0.4857    0.4823 C   0  0  0  0  0  0  0  0  0  0  0  0
    1.3144   -1.0797   -0.8452 C   0  0  0  0  0  0  0  0  0  0  0  0
   -2.9124   -1.1638   -1.7745 H   0  0  0  0  0  0  0  0  0  0  0  0
   -0.7831    2.4368    0.9240 H   0  0  0  0  0  0  0  0  0  0  0  0
   -0.2955    2.1163   -0.7509 H   0  0  0  0  0  0  0  0  0  0  0  0
    0.9743    2.0865    0.4968 H   0  0  0  0  0  0  0  0  0  0  0  0
    0.2857    0.3107    2.5280 H   0  0  0  0  0  0  0  0  0  0  0  0
   -1.4327   -0.3646    2.1910 H   0  0  0  0  0  0  0  0  0  0  0  0
    1.7886   -0.0292    0.9789 H   0  0  0  0  0  0  0  0  0  0  0  0
    0.4320   -1.4586   -1.4065 H   0  0  0  0  0  0  0  0  0  0  0  0
    1.7094   -0.2300   -1.4636 H   0  0  0  0  0  0  0  0  0  0  0  0
    2.1078   -1.8360   -0.7364 H   0  0  0  0  0  0  0  0  0  0  0  0
  1  2  3  0
  2  3  1  0
  3  4  1  0
  3  5  1  0
  5  6  1  0
  6  7  1  0
  7  8  1  0
  7  3  1  0
  1  9  1  0
  4 10  1  0
  4 11  1  0
  4 12  1  0
  5 13  1  0
  5 14  1  0
  7 15  1  0
  8 16  1  0
  8 17  1  0
  8 18  1  0
M  END
