
     RDKit          3D

 17 16  0  0  0  0  0  0  0  0999 V2000
    2.5310    1.5160   -0.4054 C   0  0  0  0  0  0  0  0  0  0  0  0
    1.7209    0.6971   -0.0566 C   0  0  0  0  0  0  0  0  0  0  0  0
    0.7245   -0.3342    0.3851 C   0  0  0  0  0  0  0  0  0  0  0  0
    0.5674   -1.4127   -0.6273 C   0  0  0  0  0  0  0  0  0  0  0  0
   -0.5204    0.4484    0.7070 C   0  0  0  0  0  0  0  0  0  0  0  0
   -1.6182   -0.2840    1.2335 C   0  0  0  0  0  0  0  0  0  0  0  0
   -2.5382   -0.9178    1.6840 C   0  0  0  0  0  0  0  0  0  0  0  0
   -0.9949    1.1958   -0.4999 C   0  0  0  0  0  0  0  0  0  0  0  0
   -2.1738    1.2279   -0.7679 O   0  0  0  0  0  0  0  0  0  0  0  0
    3.2314    2.2500   -0.7154 H   0  0  0  0  0  0  0  0  0  0  0  0
    1.1782   -0.7306    1.3176 H   0  0  0  0  0  0  0  0  0  0  0  0
    1.3999   -2.1681   -0.5088 H   0  0  0  0  0  0  0  0  0  0  0  0
    0.6695   -1.0379   -1.6723 H   0  0  0  0  0  0  0  0  0  0  0  0
   -0.4168   -1.9074   -0.5728 H   0  0  0  0  0  0  0  0  0  0  0  0
   -0.1600    1.2701    1.4095 H   0  0  0  0  0  0  0  0  0  0  0  0
   -3.3529   -1.5021    2.0879 H   0  0  0  0  0  0  0  0  0  0  0  0
   -0.2473    1.6893   -1.0970 H   0  0  0  0  0  0  0  0  0  0  0  0
  1  2  3  0
  2  3  1  0
  3  4  1  0
  3  5  1  0
  5  6  1  0
  6  7  3  0
  5  8  1  0
  8  9  2  0
  1 10  1  0
  3 11  1  0
  4 12  1  0
  4 13  1  0
  4 14  1  0
  5 15  1  0
  7 16  1  0
  8 17  1  0
M  END
