
     RDKit          3D

 21 21  0  0  0  0  0  0  0  0999 V2000
   -1.0258    0.6848    2.4830 C   0  0  0  0  0  0  0  0  0  0  0  0
   -0.6923    0.3061    1.3738 C   0  0  0  0  0  0  0  0  0  0  0  0
   -0.2782   -0.1652    0.0485 C   0  0  0  0  0  0  0  0  0  0  0  0
   -0.1877    1.0526   -0.8481 C   0  0  0  0  0  0  0  0  0  0  0  0
   -1.3105   -0.9589   -0.4482 O   0  0  0  0  0  0  0  0  0  0  0  0
   -2.4959   -0.2836   -0.5688 C   0  0  0  0  0  0  0  0  0  0  0  0
    1.0198   -0.9229    0.1079 C   0  0  0  0  0  0  0  0  0  0  0  0
    2.2648   -0.3400    0.5877 C   0  0  0  0  0  0  0  0  0  0  0  0
    2.1080   -0.6504   -0.8653 C   0  0  0  0  0  0  0  0  0  0  0  0
   -1.3104    1.0306    3.4479 H   0  0  0  0  0  0  0  0  0  0  0  0
   -0.3506    0.8200   -1.9071 H   0  0  0  0  0  0  0  0  0  0  0  0
    0.8037    1.5172   -0.6396 H   0  0  0  0  0  0  0  0  0  0  0  0
   -0.9800    1.7675   -0.5412 H   0  0  0  0  0  0  0  0  0  0  0  0
   -2.8219    0.0983    0.4188 H   0  0  0  0  0  0  0  0  0  0  0  0
   -3.2542   -0.9862   -0.9588 H   0  0  0  0  0  0  0  0  0  0  0  0
   -2.4680    0.5764   -1.2679 H   0  0  0  0  0  0  0  0  0  0  0  0
    0.8629   -2.0171    0.3445 H   0  0  0  0  0  0  0  0  0  0  0  0
    2.3899    0.7402    0.8205 H   0  0  0  0  0  0  0  0  0  0  0  0
    2.9604   -0.9661    1.2193 H   0  0  0  0  0  0  0  0  0  0  0  0
    2.7226   -1.5025   -1.2248 H   0  0  0  0  0  0  0  0  0  0  0  0
    2.0436    0.1993   -1.5821 H   0  0  0  0  0  0  0  0  0  0  0  0
  1  2  3  0
  2  3  1  0
  3  4  1  0
  3  5  1  0
  5  6  1  0
  3  7  1  0
  7  8  1  0
  8  9  1  0
  9  7  1  0
  1 10  1  0
  4 11  1  0
  4 12  1  0
  4 13  1  0
  6 14  1  0
  6 15  1  0
  6 16  1  0
  7 17  1  0
  8 18  1  0
  8 19  1  0
  9 20  1  0
  9 21  1  0
M  END
