
     RDKit          3D

 21 20  0  0  0  0  0  0  0  0999 V2000
    3.1508    0.4787   -0.0052 C   0  0  0  0  0  0  0  0  0  0  0  0
    2.1301   -0.1725    0.0349 C   0  0  0  0  0  0  0  0  0  0  0  0
    0.8968   -0.9467    0.0969 C   0  0  0  0  0  0  0  0  0  0  0  0
   -0.2721   -0.1214   -0.3505 C   0  0  0  0  0  0  0  0  0  0  0  0
   -0.0351    0.3230   -1.7759 C   0  0  0  0  0  0  0  0  0  0  0  0
   -1.4860   -1.0543   -0.3947 C   0  0  0  0  0  0  0  0  0  0  0  0
   -0.5837    1.0152    0.5026 C   0  0  0  0  0  0  0  0  0  0  0  0
   -0.9343    0.7796    1.9243 C   0  0  0  0  0  0  0  0  0  0  0  0
   -0.5663    2.1395    0.0934 O   0  0  0  0  0  0  0  0  0  0  0  0
    4.0440    1.0473   -0.0307 H   0  0  0  0  0  0  0  0  0  0  0  0
    0.7706   -1.2819    1.1585 H   0  0  0  0  0  0  0  0  0  0  0  0
    0.9594   -1.8805   -0.4982 H   0  0  0  0  0  0  0  0  0  0  0  0
   -0.1087   -0.5172   -2.4874 H   0  0  0  0  0  0  0  0  0  0  0  0
    1.0126    0.7149   -1.8218 H   0  0  0  0  0  0  0  0  0  0  0  0
   -0.7349    1.1554   -2.0627 H   0  0  0  0  0  0  0  0  0  0  0  0
   -1.3099   -1.8152   -1.1796 H   0  0  0  0  0  0  0  0  0  0  0  0
   -1.5926   -1.6145    0.5654 H   0  0  0  0  0  0  0  0  0  0  0  0
   -2.4049   -0.4884   -0.6442 H   0  0  0  0  0  0  0  0  0  0  0  0
   -1.4747   -0.1817    2.0651 H   0  0  0  0  0  0  0  0  0  0  0  0
    0.0414    0.7791    2.4865 H   0  0  0  0  0  0  0  0  0  0  0  0
   -1.5025    1.6416    2.3230 H   0  0  0  0  0  0  0  0  0  0  0  0
  1  2  3  0
  2  3  1  0
  3  4  1  0
  4  5  1  0
  4  6  1  0
  4  7  1  0
  7  8  1  0
  7  9  2  0
  1 10  1  0
  3 11  1  0
  3 12  1  0
  5 13  1  0
  5 14  1  0
  5 15  1  0
  6 16  1  0
  6 17  1  0
  6 18  1  0
  8 19  1  0
  8 20  1  0
  8 21  1  0
M  END
