
     RDKit          3D

 23 22  0  0  0  0  0  0  0  0999 V2000
    3.3959    0.7653    0.6430 C   0  0  0  0  0  0  0  0  0  0  0  0
    2.2493    0.8407    0.2282 C   0  0  0  0  0  0  0  0  0  0  0  0
    0.8760    0.9247   -0.2777 C   0  0  0  0  0  0  0  0  0  0  0  0
    0.0751   -0.2999    0.0888 C   0  0  0  0  0  0  0  0  0  0  0  0
    0.7540   -1.5110   -0.5199 C   0  0  0  0  0  0  0  0  0  0  0  0
   -0.0914   -0.4811    1.5652 C   0  0  0  0  0  0  0  0  0  0  0  0
   -1.2807   -0.1783   -0.5585 C   0  0  0  0  0  0  0  0  0  0  0  0
   -2.0352    1.0515   -0.0998 C   0  0  0  0  0  0  0  0  0  0  0  0
   -1.1669   -0.1651   -1.9607 O   0  0  0  0  0  0  0  0  0  0  0  0
    4.3884    0.6869    1.0133 H   0  0  0  0  0  0  0  0  0  0  0  0
    0.8498    1.0023   -1.3888 H   0  0  0  0  0  0  0  0  0  0  0  0
    0.3725    1.7931    0.2124 H   0  0  0  0  0  0  0  0  0  0  0  0
    1.8543   -1.4316   -0.4666 H   0  0  0  0  0  0  0  0  0  0  0  0
    0.4537   -1.5817   -1.6056 H   0  0  0  0  0  0  0  0  0  0  0  0
    0.4028   -2.4495   -0.0429 H   0  0  0  0  0  0  0  0  0  0  0  0
   -1.1454   -0.4508    1.8884 H   0  0  0  0  0  0  0  0  0  0  0  0
    0.3033   -1.4810    1.8791 H   0  0  0  0  0  0  0  0  0  0  0  0
    0.4722    0.2874    2.1649 H   0  0  0  0  0  0  0  0  0  0  0  0
   -1.9223   -1.0736   -0.3309 H   0  0  0  0  0  0  0  0  0  0  0  0
   -1.8489    1.2256    0.9629 H   0  0  0  0  0  0  0  0  0  0  0  0
   -3.1206    0.8417   -0.3261 H   0  0  0  0  0  0  0  0  0  0  0  0
   -1.7797    1.9426   -0.7067 H   0  0  0  0  0  0  0  0  0  0  0  0
   -2.0563   -0.2581   -2.3618 H   0  0  0  0  0  0  0  0  0  0  0  0
  1  2  3  0
  2  3  1  0
  3  4  1  0
  4  5  1  0
  4  6  1  0
  4  7  1  0
  7  8  1  0
  7  9  1  0
  1 10  1  0
  3 11  1  0
  3 12  1  0
  5 13  1  0
  5 14  1  0
  5 15  1  0
  6 16  1  0
  6 17  1  0
  6 18  1  0
  7 19  1  0
  8 20  1  0
  8 21  1  0
  8 22  1  0
  9 23  1  0
M  END
