
     RDKit          3D

 19 20  0  0  0  0  0  0  0  0999 V2000
    2.2961    2.2852    0.3305 C   0  0  0  0  0  0  0  0  0  0  0  0
    1.3511    1.5745    0.0971 C   0  0  0  0  0  0  0  0  0  0  0  0
    0.2097    0.7082   -0.2109 C   0  0  0  0  0  0  0  0  0  0  0  0
   -0.6444    0.4324    0.9819 C   0  0  0  0  0  0  0  0  0  0  0  0
    0.5248   -0.3486    1.5262 C   0  0  0  0  0  0  0  0  0  0  0  0
    0.4794   -0.7369    0.0727 C   0  0  0  0  0  0  0  0  0  0  0  0
    1.2034   -1.5443   -0.5433 O   0  0  0  0  0  0  0  0  0  0  0  0
   -1.0285   -0.8482    0.2880 C   0  0  0  0  0  0  0  0  0  0  0  0
   -1.8103   -0.6692   -0.9830 C   0  0  0  0  0  0  0  0  0  0  0  0
    3.1362    2.9244    0.5570 H   0  0  0  0  0  0  0  0  0  0  0  0
   -0.2885    0.9433   -1.1485 H   0  0  0  0  0  0  0  0  0  0  0  0
   -1.2427    1.0540    1.4842 H   0  0  0  0  0  0  0  0  0  0  0  0
    1.3923    0.2485    1.8492 H   0  0  0  0  0  0  0  0  0  0  0  0
    0.2975   -1.1348    2.2455 H   0  0  0  0  0  0  0  0  0  0  0  0
    1.4546   -1.3376   -1.4529 H   0  0  0  0  0  0  0  0  0  0  0  0
   -1.3184   -1.6876    0.9324 H   0  0  0  0  0  0  0  0  0  0  0  0
   -2.6335   -1.4085   -1.0290 H   0  0  0  0  0  0  0  0  0  0  0  0
   -1.1186   -0.7981   -1.8395 H   0  0  0  0  0  0  0  0  0  0  0  0
   -2.2601    0.3433   -1.0637 H   0  0  0  0  0  0  0  0  0  0  0  0
  1  2  3  0
  2  3  1  0
  3  4  1  0
  4  5  1  0
  5  6  1  0
  6  7  1  0
  6  8  1  0
  8  9  1  0
  6  3  1  0
  8  4  1  0
  1 10  1  0
  3 11  1  0
  4 12  1  0
  5 13  1  0
  5 14  1  0
  7 15  1  0
  8 16  1  0
  9 17  1  0
  9 18  1  0
  9 19  1  0
M  END
