
     RDKit          3D

 19 19  0  0  0  0  0  0  0  0999 V2000
    3.0827    0.5938    1.4030 C   0  0  0  0  0  0  0  0  0  0  0  0
    2.2875    0.0819    0.6387 C   0  0  0  0  0  0  0  0  0  0  0  0
    1.3394   -0.5445   -0.2523 C   0  0  0  0  0  0  0  0  0  0  0  0
    0.8881   -1.7464    0.2960 O   0  0  0  0  0  0  0  0  0  0  0  0
    0.1243    0.3048   -0.5197 C   0  0  0  0  0  0  0  0  0  0  0  0
   -0.7940   -0.4501   -1.4612 C   0  0  0  0  0  0  0  0  0  0  0  0
   -1.2547   -1.1594   -0.3466 O   0  0  0  0  0  0  0  0  0  0  0  0
   -1.0209    0.0006    0.4031 C   0  0  0  0  0  0  0  0  0  0  0  0
   -2.1782    0.9440    0.2867 C   0  0  0  0  0  0  0  0  0  0  0  0
    3.7867    1.0263    2.0654 H   0  0  0  0  0  0  0  0  0  0  0  0
    1.7873   -0.7739   -1.2612 H   0  0  0  0  0  0  0  0  0  0  0  0
    1.6492   -2.1510    0.8178 H   0  0  0  0  0  0  0  0  0  0  0  0
    0.2940    1.3461   -0.7813 H   0  0  0  0  0  0  0  0  0  0  0  0
   -0.2481   -1.0904   -2.1965 H   0  0  0  0  0  0  0  0  0  0  0  0
   -1.5513    0.1596   -1.9782 H   0  0  0  0  0  0  0  0  0  0  0  0
   -0.6726   -0.2222    1.4315 H   0  0  0  0  0  0  0  0  0  0  0  0
   -3.1018    0.4605   -0.0957 H   0  0  0  0  0  0  0  0  0  0  0  0
   -2.4666    1.4033    1.2710 H   0  0  0  0  0  0  0  0  0  0  0  0
   -1.9508    1.8170   -0.3752 H   0  0  0  0  0  0  0  0  0  0  0  0
  1  2  3  0
  2  3  1  0
  3  4  1  0
  3  5  1  0
  5  6  1  0
  6  7  1  0
  7  8  1  0
  8  9  1  0
  8  5  1  0
  1 10  1  0
  3 11  1  0
  4 12  1  0
  5 13  1  0
  6 14  1  0
  6 15  1  0
  8 16  1  0
  9 17  1  0
  9 18  1  0
  9 19  1  0
M  END
