
     RDKit          3D

 21 21  0  0  0  0  0  0  0  0999 V2000
    0.6639    3.2699   -0.6183 C   0  0  0  0  0  0  0  0  0  0  0  0
    0.5277    1.9365   -0.2299 C   0  0  0  0  0  0  0  0  0  0  0  0
    0.4074    0.6195    0.1730 C   0  0  0  0  0  0  0  0  0  0  0  0
    0.5233   -0.3854   -0.1984 O   0  0  0  0  0  0  0  0  0  0  0  0
    0.1057   -1.4053   -1.1454 C   0  0  0  0  0  0  0  0  0  0  0  0
    1.0975   -2.5156   -0.7072 C   0  0  0  0  0  0  0  0  0  0  0  0
   -1.3920    0.8613    0.2763 C   0  0  0  0  0  0  0  0  0  0  0  0
   -1.1614   -0.0983    1.3850 C   0  0  0  0  0  0  0  0  0  0  0  0
    0.0416    0.8232    1.7902 C   0  0  0  0  0  0  0  0  0  0  0  0
    0.7772    4.5487   -0.9739 H   0  0  0  0  0  0  0  0  0  0  0  0
    0.3360   -1.0272   -2.1352 H   0  0  0  0  0  0  0  0  0  0  0  0
   -0.8743   -1.7187   -0.9160 H   0  0  0  0  0  0  0  0  0  0  0  0
    0.7971   -2.9403    0.3270 H   0  0  0  0  0  0  0  0  0  0  0  0
    2.0054   -1.8679   -0.3306 H   0  0  0  0  0  0  0  0  0  0  0  0
    1.3847   -3.2843   -1.3813 H   0  0  0  0  0  0  0  0  0  0  0  0
   -1.4289    1.8825    0.3302 H   0  0  0  0  0  0  0  0  0  0  0  0
   -1.6981    0.4159   -0.6442 H   0  0  0  0  0  0  0  0  0  0  0  0
   -1.9082   -0.1594    2.1792 H   0  0  0  0  0  0  0  0  0  0  0  0
   -0.6652   -1.0880    1.1525 H   0  0  0  0  0  0  0  0  0  0  0  0
   -0.2946    1.7984    2.0054 H   0  0  0  0  0  0  0  0  0  0  0  0
    0.7551    0.3346    2.3984 H   0  0  0  0  0  0  0  0  0  0  0  0
  1  2  3  0
  2  3  1  0
  3  4  1  0
  4  5  1  0
  5  6  1  0
  3  7  1  0
  7  8  1  0
  8  9  1  0
  9  3  1  0
  1 10  1  0
  5 11  1  0
  5 12  1  0
  6 13  1  0
  6 14  1  0
  6 15  1  0
  7 16  1  0
  7 17  1  0
  8 18  1  0
  8 19  1  0
  9 20  1  0
  9 21  1  0
M  END
