
     RDKit          3D

 21 20  0  0  0  0  0  0  0  0999 V2000
    4.3811   -0.3563   -0.7600 C   0  0  0  0  0  0  0  0  0  0  0  0
    3.3208    0.1963   -0.5894 C   0  0  0  0  0  0  0  0  0  0  0  0
    2.0268    0.8649   -0.4021 C   0  0  0  0  0  0  0  0  0  0  0  0
    2.1257    1.6116    0.7934 O   0  0  0  0  0  0  0  0  0  0  0  0
    0.9301   -0.1768   -0.2042 C   0  0  0  0  0  0  0  0  0  0  0  0
   -0.3850    0.5270   -0.0145 C   0  0  0  0  0  0  0  0  0  0  0  0
   -1.4949   -0.4760    0.1846 C   0  0  0  0  0  0  0  0  0  0  0  0
   -2.7124    0.1796    0.3600 O   0  0  0  0  0  0  0  0  0  0  0  0
   -3.6965   -0.8040    0.5388 C   0  0  0  0  0  0  0  0  0  0  0  0
    5.3275   -0.8424   -0.8990 H   0  0  0  0  0  0  0  0  0  0  0  0
    1.7667    1.5126   -1.2534 H   0  0  0  0  0  0  0  0  0  0  0  0
    1.8970    2.5504    0.5726 H   0  0  0  0  0  0  0  0  0  0  0  0
    0.9337   -0.7991   -1.1227 H   0  0  0  0  0  0  0  0  0  0  0  0
    1.1762   -0.8293    0.6448 H   0  0  0  0  0  0  0  0  0  0  0  0
   -0.3199    1.2152    0.8379 H   0  0  0  0  0  0  0  0  0  0  0  0
   -0.6149    1.1037   -0.9351 H   0  0  0  0  0  0  0  0  0  0  0  0
   -1.5590   -1.1398   -0.7049 H   0  0  0  0  0  0  0  0  0  0  0  0
   -1.3163   -1.0541    1.1293 H   0  0  0  0  0  0  0  0  0  0  0  0
   -4.7004   -0.3788    0.6863 H   0  0  0  0  0  0  0  0  0  0  0  0
   -3.6637   -1.5271   -0.3063 H   0  0  0  0  0  0  0  0  0  0  0  0
   -3.4227   -1.3777    1.4438 H   0  0  0  0  0  0  0  0  0  0  0  0
  1  2  3  0
  2  3  1  0
  3  4  1  0
  3  5  1  0
  5  6  1  0
  6  7  1  0
  7  8  1  0
  8  9  1  0
  1 10  1  0
  3 11  1  0
  4 12  1  0
  5 13  1  0
  5 14  1  0
  6 15  1  0
  6 16  1  0
  7 17  1  0
  7 18  1  0
  9 19  1  0
  9 20  1  0
  9 21  1  0
M  END
