
     RDKit          3D

 19 20  0  0  0  0  0  0  0  0999 V2000
   -1.2305    2.3456    0.2076 C   0  0  0  0  0  0  0  0  0  0  0  0
   -0.9300    1.1861    0.0874 C   0  0  0  0  0  0  0  0  0  0  0  0
   -0.5425   -0.2181   -0.0703 C   0  0  0  0  0  0  0  0  0  0  0  0
   -1.3549   -0.9147   -1.1544 C   0  0  0  0  0  0  0  0  0  0  0  0
   -0.5655   -0.9151    1.2709 C   0  0  0  0  0  0  0  0  0  0  0  0
    0.9246   -0.8240    1.2770 C   0  0  0  0  0  0  0  0  0  0  0  0
    1.5579   -1.5436    0.3042 O   0  0  0  0  0  0  0  0  0  0  0  0
    0.9247   -0.4235   -0.1672 C   0  0  0  0  0  0  0  0  0  0  0  0
    1.8257    0.6664   -0.6614 C   0  0  0  0  0  0  0  0  0  0  0  0
   -1.4819    3.3678    0.3246 H   0  0  0  0  0  0  0  0  0  0  0  0
   -2.3791   -0.4943   -1.0942 H   0  0  0  0  0  0  0  0  0  0  0  0
   -1.3646   -1.9878   -0.9056 H   0  0  0  0  0  0  0  0  0  0  0  0
   -0.9096   -0.6853   -2.1348 H   0  0  0  0  0  0  0  0  0  0  0  0
   -1.0909   -0.3660    2.0758 H   0  0  0  0  0  0  0  0  0  0  0  0
   -0.9234   -1.9683    1.1589 H   0  0  0  0  0  0  0  0  0  0  0  0
    1.4644   -0.1601    1.9669 H   0  0  0  0  0  0  0  0  0  0  0  0
    1.4912    0.9190   -1.7007 H   0  0  0  0  0  0  0  0  0  0  0  0
    2.8762    0.4054   -0.7025 H   0  0  0  0  0  0  0  0  0  0  0  0
    1.7081    1.6105   -0.0822 H   0  0  0  0  0  0  0  0  0  0  0  0
  1  2  3  0
  2  3  1  0
  3  4  1  0
  3  5  1  0
  5  6  1  0
  6  7  1  0
  7  8  1  0
  8  9  1  0
  8  3  1  0
  8  6  1  0
  1 10  1  0
  4 11  1  0
  4 12  1  0
  4 13  1  0
  5 14  1  0
  5 15  1  0
  6 16  1  0
  9 17  1  0
  9 18  1  0
  9 19  1  0
M  END
