
     RDKit          3D

 14 13  0  0  0  0  0  0  0  0999 V2000
   -2.1896   -1.5229   -0.5916 C   0  0  0  0  0  0  0  0  0  0  0  0
   -1.3069   -0.8326   -0.3373 C   0  0  0  0  0  0  0  0  0  0  0  0
   -0.2069    0.0452    0.0036 C   0  0  0  0  0  0  0  0  0  0  0  0
   -0.4727    0.5280    1.4321 C   0  0  0  0  0  0  0  0  0  0  0  0
    1.0433   -0.5270   -0.0987 O   0  0  0  0  0  0  0  0  0  0  0  0
    1.9330    0.2277   -0.8607 C   0  0  0  0  0  0  0  0  0  0  0  0
   -3.0484   -2.1807   -0.8535 H   0  0  0  0  0  0  0  0  0  0  0  0
   -0.2360    0.9543   -0.6060 H   0  0  0  0  0  0  0  0  0  0  0  0
   -1.5813    0.7409    1.4662 H   0  0  0  0  0  0  0  0  0  0  0  0
    0.0283    1.4730    1.6617 H   0  0  0  0  0  0  0  0  0  0  0  0
   -0.3237   -0.2938    2.1701 H   0  0  0  0  0  0  0  0  0  0  0  0
    1.4618    0.2760   -1.8813 H   0  0  0  0  0  0  0  0  0  0  0  0
    2.9344   -0.1827   -0.9646 H   0  0  0  0  0  0  0  0  0  0  0  0
    1.9649    1.2946   -0.5401 H   0  0  0  0  0  0  0  0  0  0  0  0
  1  2  3  0
  2  3  1  0
  3  4  1  0
  3  5  1  0
  5  6  1  0
  1  7  1  0
  3  8  1  0
  4  9  1  0
  4 10  1  0
  4 11  1  0
  6 12  1  0
  6 13  1  0
  6 14  1  0
M  END
