
     RDKit          3D

 23 22  0  0  0  0  0  0  0  0999 V2000
    4.5410    0.3621   -0.1858 C   0  0  0  0  0  0  0  0  0  0  0  0
    3.2873   -0.4143   -0.0911 C   0  0  0  0  0  0  0  0  0  0  0  0
    2.1593   -1.0916    0.0078 C   0  0  0  0  0  0  0  0  0  0  0  0
    0.9922   -0.0524   -0.1205 C   0  0  0  0  0  0  0  0  0  0  0  0
   -0.1577   -0.6866   -0.0412 O   0  0  0  0  0  0  0  0  0  0  0  0
   -1.3439    0.0772    0.0951 C   0  0  0  0  0  0  0  0  0  0  0  0
   -1.4145    0.9301   -1.1217 C   0  0  0  0  0  0  0  0  0  0  0  0
   -1.3703    0.7443    1.4513 C   0  0  0  0  0  0  0  0  0  0  0  0
   -2.4496   -0.9677   -0.0076 C   0  0  0  0  0  0  0  0  0  0  0  0
    5.5525    0.9957   -0.2550 H   0  0  0  0  0  0  0  0  0  0  0  0
    2.0880   -1.7188    0.8785 H   0  0  0  0  0  0  0  0  0  0  0  0
    2.0785   -1.6761   -0.9846 H   0  0  0  0  0  0  0  0  0  0  0  0
    1.1120    0.7430    0.6377 H   0  0  0  0  0  0  0  0  0  0  0  0
    1.2705    0.4713   -1.0984 H   0  0  0  0  0  0  0  0  0  0  0  0
   -1.3449    0.1356   -1.9625 H   0  0  0  0  0  0  0  0  0  0  0  0
   -2.2936    1.4849   -1.2374 H   0  0  0  0  0  0  0  0  0  0  0  0
   -0.4076    1.4586   -1.2778 H   0  0  0  0  0  0  0  0  0  0  0  0
   -1.5934    1.8549    1.2688 H   0  0  0  0  0  0  0  0  0  0  0  0
   -2.1765    0.3261    2.0064 H   0  0  0  0  0  0  0  0  0  0  0  0
   -0.4120    0.7558    2.0178 H   0  0  0  0  0  0  0  0  0  0  0  0
   -2.6113   -1.2902    1.0476 H   0  0  0  0  0  0  0  0  0  0  0  0
   -2.1671   -1.8944   -0.5698 H   0  0  0  0  0  0  0  0  0  0  0  0
   -3.3387   -0.5476   -0.4576 H   0  0  0  0  0  0  0  0  0  0  0  0
  1  2  3  0
  2  3  1  0
  3  4  1  0
  4  5  1  0
  5  6  1  0
  6  7  1  0
  6  8  1  0
  6  9  1  0
  1 10  1  0
  3 11  1  0
  3 12  1  0
  4 13  1  0
  4 14  1  0
  7 15  1  0
  7 16  1  0
  7 17  1  0
  8 18  1  0
  8 19  1  0
  8 20  1  0
  9 21  1  0
  9 22  1  0
  9 23  1  0
M  END
