
     RDKit          3D

 20 20  0  0  0  0  0  0  0  0999 V2000
    2.5524   -1.4520   -1.0726 C   0  0  0  0  0  0  0  0  0  0  0  0
    1.6867   -0.7165   -0.6680 C   0  0  0  0  0  0  0  0  0  0  0  0
    0.6061    0.1813   -0.1890 C   0  0  0  0  0  0  0  0  0  0  0  0
   -0.7844   -0.3360   -0.3252 C   0  0  0  0  0  0  0  0  0  0  0  0
   -1.7948    0.6614    0.1936 C   0  0  0  0  0  0  0  0  0  0  0  0
   -1.0095   -1.6617    0.3506 C   0  0  0  0  0  0  0  0  0  0  0  0
    1.0074    1.0693    0.9481 C   0  0  0  0  0  0  0  0  0  0  0  0
    0.8320    1.6192   -0.4433 C   0  0  0  0  0  0  0  0  0  0  0  0
    3.3243   -2.0930   -1.4358 H   0  0  0  0  0  0  0  0  0  0  0  0
   -0.9871   -0.4960   -1.4141 H   0  0  0  0  0  0  0  0  0  0  0  0
   -1.6513    0.8810    1.2568 H   0  0  0  0  0  0  0  0  0  0  0  0
   -1.8566    1.5774   -0.4271 H   0  0  0  0  0  0  0  0  0  0  0  0
   -2.8189    0.1989    0.1187 H   0  0  0  0  0  0  0  0  0  0  0  0
   -1.8255   -2.2494   -0.1181 H   0  0  0  0  0  0  0  0  0  0  0  0
   -0.1066   -2.3074    0.3303 H   0  0  0  0  0  0  0  0  0  0  0  0
   -1.3009   -1.4971    1.4103 H   0  0  0  0  0  0  0  0  0  0  0  0
    2.0796    1.0369    1.2890 H   0  0  0  0  0  0  0  0  0  0  0  0
    0.2817    1.3067    1.7354 H   0  0  0  0  0  0  0  0  0  0  0  0
    0.0225    2.3567   -0.5295 H   0  0  0  0  0  0  0  0  0  0  0  0
    1.7427    1.9202   -1.0100 H   0  0  0  0  0  0  0  0  0  0  0  0
  1  2  3  0
  2  3  1  0
  3  4  1  0
  4  5  1  0
  4  6  1  0
  3  7  1  0
  7  8  1  0
  8  3  1  0
  1  9  1  0
  4 10  1  0
  5 11  1  0
  5 12  1  0
  5 13  1  0
  6 14  1  0
  6 15  1  0
  6 16  1  0
  7 17  1  0
  7 18  1  0
  8 19  1  0
  8 20  1  0
M  END
