
     RDKit          3D

 17 16  0  0  0  0  0  0  0  0999 V2000
    4.6354    0.0444    1.1875 C   0  0  0  0  0  0  0  0  0  0  0  0
    3.4766   -0.0930    0.9945 C   0  0  0  0  0  0  0  0  0  0  0  0
    1.9482   -0.2776    0.7127 C   0  0  0  0  0  0  0  0  0  0  0  0
    0.6413   -0.4394    0.4561 C   0  0  0  0  0  0  0  0  0  0  0  0
   -0.6023   -0.5955    0.1891 C   0  0  0  0  0  0  0  0  0  0  0  0
   -1.1705   -2.0423    0.2818 C   0  0  0  0  0  0  0  0  0  0  0  0
   -2.1354   -2.4312    0.0214 O   0  0  0  0  0  0  0  0  0  0  0  0
   -1.6009    0.4127    0.4737 C   0  0  0  0  0  0  0  0  0  0  0  0
   -1.2948    1.7480   -0.2756 C   0  0  0  0  0  0  0  0  0  0  0  0
    5.3853    0.1276    1.3223 H   0  0  0  0  0  0  0  0  0  0  0  0
   -0.7060   -0.5304   -1.0901 H   0  0  0  0  0  0  0  0  0  0  0  0
   -0.2924   -2.7522    0.7354 H   0  0  0  0  0  0  0  0  0  0  0  0
   -2.0109    0.6012    1.4571 H   0  0  0  0  0  0  0  0  0  0  0  0
   -2.5595    0.0824   -0.1651 H   0  0  0  0  0  0  0  0  0  0  0  0
   -0.2451    2.0262   -0.2064 H   0  0  0  0  0  0  0  0  0  0  0  0
   -1.5844    1.6085   -1.3467 H   0  0  0  0  0  0  0  0  0  0  0  0
   -1.8845    2.5107    0.2105 H   0  0  0  0  0  0  0  0  0  0  0  0
  1  2  3  0
  2  3  1  0
  3  4  3  0
  4  5  1  0
  5  6  1  0
  6  7  2  0
  5  8  1  0
  8  9  1  0
  1 10  1  0
  5 11  1  0
  6 12  1  0
  8 13  1  0
  8 14  1  0
  9 15  1  0
  9 16  1  0
  9 17  1  0
M  END
