
     RDKit          3D

 21 22  0  0  0  0  0  0  0  0999 V2000
    3.1143   -1.4755    1.0847 C   0  0  0  0  0  0  0  0  0  0  0  0
    2.1147   -0.9998    0.6205 C   0  0  0  0  0  0  0  0  0  0  0  0
    0.9434   -0.4681    0.0886 C   0  0  0  0  0  0  0  0  0  0  0  0
    0.8437   -0.1590   -1.3780 C   0  0  0  0  0  0  0  0  0  0  0  0
   -0.5941    0.4008   -1.4032 C   0  0  0  0  0  0  0  0  0  0  0  0
   -0.9352    0.2717    0.0421 C   0  0  0  0  0  0  0  0  0  0  0  0
   -2.2093    0.6695    0.5734 C   0  0  0  0  0  0  0  0  0  0  0  0
    0.3467    0.7863    0.7108 C   0  0  0  0  0  0  0  0  0  0  0  0
   -0.3895   -1.1243    0.3806 C   0  0  0  0  0  0  0  0  0  0  0  0
    4.0115   -1.8932    1.5056 H   0  0  0  0  0  0  0  0  0  0  0  0
    0.9278   -1.0451   -2.0073 H   0  0  0  0  0  0  0  0  0  0  0  0
    1.5724    0.6216   -1.6694 H   0  0  0  0  0  0  0  0  0  0  0  0
   -1.2034   -0.2501   -2.0690 H   0  0  0  0  0  0  0  0  0  0  0  0
   -0.5375    1.4324   -1.7619 H   0  0  0  0  0  0  0  0  0  0  0  0
   -2.6950   -0.1699    1.1363 H   0  0  0  0  0  0  0  0  0  0  0  0
   -2.9215    0.9359   -0.2517 H   0  0  0  0  0  0  0  0  0  0  0  0
   -2.1730    1.5941    1.2195 H   0  0  0  0  0  0  0  0  0  0  0  0
    0.7321    1.7262    0.2778 H   0  0  0  0  0  0  0  0  0  0  0  0
    0.3121    0.7928    1.8056 H   0  0  0  0  0  0  0  0  0  0  0  0
   -0.5663   -1.3861    1.4435 H   0  0  0  0  0  0  0  0  0  0  0  0
   -0.6938   -1.9061   -0.3484 H   0  0  0  0  0  0  0  0  0  0  0  0
  1  2  3  0
  2  3  1  0
  3  4  1  0
  4  5  1  0
  5  6  1  0
  6  7  1  0
  6  8  1  0
  6  9  1  0
  8  3  1  0
  9  3  1  0
  1 10  1  0
  4 11  1  0
  4 12  1  0
  5 13  1  0
  5 14  1  0
  7 15  1  0
  7 16  1  0
  7 17  1  0
  8 18  1  0
  8 19  1  0
  9 20  1  0
  9 21  1  0
M  END
