
     RDKit          3D

  8  7  0  0  0  0  0  0  0  0999 V2000
    1.8357   -0.1105   -0.1449 C   0  0  0  0  0  0  0  0  0  0  0  0
    0.6487   -0.2003    0.0441 C   0  0  0  0  0  0  0  0  0  0  0  0
   -0.8014   -0.2962    0.2661 C   0  0  0  0  0  0  0  0  0  0  0  0
   -1.3836    0.9812    0.1564 O   0  0  0  0  0  0  0  0  0  0  0  0
    2.8975   -0.0348   -0.3046 H   0  0  0  0  0  0  0  0  0  0  0  0
   -0.9492   -0.7446    1.2550 H   0  0  0  0  0  0  0  0  0  0  0  0
   -1.1917   -0.9385   -0.5563 H   0  0  0  0  0  0  0  0  0  0  0  0
   -1.0560    1.3438   -0.7158 H   0  0  0  0  0  0  0  0  0  0  0  0
  1  2  3  0
  2  3  1  0
  3  4  1  0
  1  5  1  0
  3  6  1  0
  3  7  1  0
  4  8  1  0
M  END
