
     RDKit          3D

 16 17  0  0  0  0  0  0  0  0999 V2000
    3.2034    0.2860    0.7193 C   0  0  0  0  0  0  0  0  0  0  0  0
    2.0802    0.2577    0.2466 C   0  0  0  0  0  0  0  0  0  0  0  0
    0.7280    0.2138   -0.3016 C   0  0  0  0  0  0  0  0  0  0  0  0
   -0.3704    0.9024    0.5044 C   0  0  0  0  0  0  0  0  0  0  0  0
   -1.6630    0.3882   -0.0508 C   0  0  0  0  0  0  0  0  0  0  0  0
   -1.3065   -0.9089   -0.7527 C   0  0  0  0  0  0  0  0  0  0  0  0
    0.2031   -0.8984   -0.8893 C   0  0  0  0  0  0  0  0  0  0  0  0
    0.6397    0.2038   -1.6810 O   0  0  0  0  0  0  0  0  0  0  0  0
    4.1815    0.3136    1.1229 H   0  0  0  0  0  0  0  0  0  0  0  0
   -0.2287    1.9788    0.4259 H   0  0  0  0  0  0  0  0  0  0  0  0
   -0.2436    0.5164    1.5543 H   0  0  0  0  0  0  0  0  0  0  0  0
   -2.4125    0.2225    0.7604 H   0  0  0  0  0  0  0  0  0  0  0  0
   -2.0459    1.1573   -0.7648 H   0  0  0  0  0  0  0  0  0  0  0  0
   -1.6536   -1.8017   -0.1868 H   0  0  0  0  0  0  0  0  0  0  0  0
   -1.7944   -0.9558   -1.7491 H   0  0  0  0  0  0  0  0  0  0  0  0
    0.6827   -1.8758   -1.0795 H   0  0  0  0  0  0  0  0  0  0  0  0
  1  2  3  0
  2  3  1  0
  3  4  1  0
  4  5  1  0
  5  6  1  0
  6  7  1  0
  7  8  1  0
  7  3  1  0
  8  3  1  0
  1  9  1  0
  4 10  1  0
  4 11  1  0
  5 12  1  0
  5 13  1  0
  6 14  1  0
  6 15  1  0
  7 16  1  0
M  END
