
     RDKit          3D

 21 21  0  0  0  0  0  0  0  0999 V2000
   -2.5114   -2.0107    0.2263 C   0  0  0  0  0  0  0  0  0  0  0  0
   -2.2235   -0.8495   -0.0003 C   0  0  0  0  0  0  0  0  0  0  0  0
   -1.8712    0.5471   -0.2985 C   0  0  0  0  0  0  0  0  0  0  0  0
   -0.5286    0.8851    0.2479 C   0  0  0  0  0  0  0  0  0  0  0  0
   -0.2374    2.3461   -0.1022 C   0  0  0  0  0  0  0  0  0  0  0  0
    0.5865    0.0684   -0.3379 C   0  0  0  0  0  0  0  0  0  0  0  0
    1.8560    0.5138    0.2979 O   0  0  0  0  0  0  0  0  0  0  0  0
    1.3717   -0.8865    0.3714 C   0  0  0  0  0  0  0  0  0  0  0  0
    2.3256   -1.7541   -0.4187 C   0  0  0  0  0  0  0  0  0  0  0  0
   -2.7733   -3.0236    0.4094 H   0  0  0  0  0  0  0  0  0  0  0  0
   -1.9654    0.7420   -1.3941 H   0  0  0  0  0  0  0  0  0  0  0  0
   -2.6143    1.2190    0.1838 H   0  0  0  0  0  0  0  0  0  0  0  0
   -0.5751    0.8189    1.3495 H   0  0  0  0  0  0  0  0  0  0  0  0
    0.2603    2.8718    0.7349 H   0  0  0  0  0  0  0  0  0  0  0  0
    0.4513    2.4173   -0.9712 H   0  0  0  0  0  0  0  0  0  0  0  0
   -1.1686    2.8746   -0.3813 H   0  0  0  0  0  0  0  0  0  0  0  0
    0.6610    0.1322   -1.4435 H   0  0  0  0  0  0  0  0  0  0  0  0
    1.1509   -1.1865    1.4038 H   0  0  0  0  0  0  0  0  0  0  0  0
    1.9524   -2.7612   -0.5792 H   0  0  0  0  0  0  0  0  0  0  0  0
    2.5495   -1.2376   -1.3953 H   0  0  0  0  0  0  0  0  0  0  0  0
    3.3035   -1.7266    0.1361 H   0  0  0  0  0  0  0  0  0  0  0  0
  1  2  3  0
  2  3  1  0
  3  4  1  0
  4  5  1  0
  4  6  1  0
  6  7  1  0
  7  8  1  0
  8  9  1  0
  8  6  1  0
  1 10  1  0
  3 11  1  0
  3 12  1  0
  4 13  1  0
  5 14  1  0
  5 15  1  0
  5 16  1  0
  6 17  1  0
  8 18  1  0
  9 19  1  0
  9 20  1  0
  9 21  1  0
M  END
