
     RDKit          3D

 17 18  0  0  0  0  0  0  0  0999 V2000
    1.8445   -1.6571    1.6339 C   0  0  0  0  0  0  0  0  0  0  0  0
    1.1862   -0.8857    1.0013 C   0  0  0  0  0  0  0  0  0  0  0  0
    0.4600   -0.0108    0.2811 C   0  0  0  0  0  0  0  0  0  0  0  0
   -0.4352    0.9056    0.7995 O   0  0  0  0  0  0  0  0  0  0  0  0
   -0.5218    1.1585   -0.5679 C   0  0  0  0  0  0  0  0  0  0  0  0
   -0.5444   -0.3313   -0.7478 C   0  0  0  0  0  0  0  0  0  0  0  0
   -1.8150   -0.9591   -0.2444 C   0  0  0  0  0  0  0  0  0  0  0  0
    0.9765    1.0679   -0.5845 C   0  0  0  0  0  0  0  0  0  0  0  0
    1.5999    2.0864    0.1275 O   0  0  0  0  0  0  0  0  0  0  0  0
    2.4465   -2.3638    2.1908 H   0  0  0  0  0  0  0  0  0  0  0  0
   -1.1008    1.8415   -1.0231 H   0  0  0  0  0  0  0  0  0  0  0  0
   -0.1633   -0.7129   -1.7128 H   0  0  0  0  0  0  0  0  0  0  0  0
   -1.8816   -0.8257    0.8512 H   0  0  0  0  0  0  0  0  0  0  0  0
   -2.6889   -0.5195   -0.7769 H   0  0  0  0  0  0  0  0  0  0  0  0
   -1.7232   -2.0594   -0.4208 H   0  0  0  0  0  0  0  0  0  0  0  0
    1.4423    0.7994   -1.5429 H   0  0  0  0  0  0  0  0  0  0  0  0
    0.9183    2.4657    0.7357 H   0  0  0  0  0  0  0  0  0  0  0  0
  1  2  3  0
  2  3  1  0
  3  4  1  0
  4  5  1  0
  5  6  1  0
  6  7  1  0
  5  8  1  0
  8  9  1  0
  6  3  1  0
  8  3  1  0
  1 10  1  0
  5 11  1  0
  6 12  1  0
  7 13  1  0
  7 14  1  0
  7 15  1  0
  8 16  1  0
  9 17  1  0
M  END
