
     RDKit          3D

 23 23  0  0  0  0  0  0  0  0999 V2000
   -2.6545    2.3559   -0.0711 C   0  0  0  0  0  0  0  0  0  0  0  0
   -2.1951    1.3067   -0.5036 C   0  0  0  0  0  0  0  0  0  0  0  0
   -1.6558    0.0417   -1.0075 C   0  0  0  0  0  0  0  0  0  0  0  0
   -0.5038   -0.3510   -0.0330 C   0  0  0  0  0  0  0  0  0  0  0  0
    0.5154    0.7148   -0.0473 C   0  0  0  0  0  0  0  0  0  0  0  0
    1.7276    0.5886    0.7807 C   0  0  0  0  0  0  0  0  0  0  0  0
    2.5889   -0.5843    0.4011 C   0  0  0  0  0  0  0  0  0  0  0  0
   -0.3162   -1.7441    0.3204 C   0  0  0  0  0  0  0  0  0  0  0  0
   -1.0992   -0.8518    1.2473 C   0  0  0  0  0  0  0  0  0  0  0  0
   -3.0388    3.2714    0.2926 H   0  0  0  0  0  0  0  0  0  0  0  0
   -1.1689    0.1946   -1.9881 H   0  0  0  0  0  0  0  0  0  0  0  0
   -2.3961   -0.7596   -1.0413 H   0  0  0  0  0  0  0  0  0  0  0  0
    0.8325    0.8357   -1.1349 H   0  0  0  0  0  0  0  0  0  0  0  0
   -0.0069    1.7066    0.1399 H   0  0  0  0  0  0  0  0  0  0  0  0
    1.5285    0.5946    1.8734 H   0  0  0  0  0  0  0  0  0  0  0  0
    2.3427    1.5243    0.6077 H   0  0  0  0  0  0  0  0  0  0  0  0
    2.7371   -1.2897    1.2425 H   0  0  0  0  0  0  0  0  0  0  0  0
    2.2282   -1.0562   -0.5300 H   0  0  0  0  0  0  0  0  0  0  0  0
    3.6422   -0.2384    0.1623 H   0  0  0  0  0  0  0  0  0  0  0  0
    0.5984   -2.1091    0.7762 H   0  0  0  0  0  0  0  0  0  0  0  0
   -0.8706   -2.5255   -0.2525 H   0  0  0  0  0  0  0  0  0  0  0  0
   -0.6677   -0.5148    2.2031 H   0  0  0  0  0  0  0  0  0  0  0  0
   -2.1679   -1.1103    1.3164 H   0  0  0  0  0  0  0  0  0  0  0  0
  1  2  3  0
  2  3  1  0
  3  4  1  0
  4  5  1  0
  5  6  1  0
  6  7  1  0
  4  8  1  0
  8  9  1  0
  9  4  1  0
  1 10  1  0
  3 11  1  0
  3 12  1  0
  5 13  1  0
  5 14  1  0
  6 15  1  0
  6 16  1  0
  7 17  1  0
  7 18  1  0
  7 19  1  0
  8 20  1  0
  8 21  1  0
  9 22  1  0
  9 23  1  0
M  END
