
     RDKit          3D

 21 20  0  0  0  0  0  0  0  0999 V2000
   -0.8493   -0.0396    2.7452 C   0  0  0  0  0  0  0  0  0  0  0  0
   -0.6625    0.1482    1.6019 C   0  0  0  0  0  0  0  0  0  0  0  0
   -0.4091    0.3874    0.1989 C   0  0  0  0  0  0  0  0  0  0  0  0
   -1.0254    1.5060   -0.3117 O   0  0  0  0  0  0  0  0  0  0  0  0
   -0.9560   -0.8085   -0.5819 C   0  0  0  0  0  0  0  0  0  0  0  0
   -2.4386   -0.8876   -0.2634 C   0  0  0  0  0  0  0  0  0  0  0  0
    1.0928    0.3647   -0.0256 C   0  0  0  0  0  0  0  0  0  0  0  0
    1.3331    0.3485   -1.3688 O   0  0  0  0  0  0  0  0  0  0  0  0
    2.6854    0.3736   -1.6967 C   0  0  0  0  0  0  0  0  0  0  0  0
   -1.0197   -0.2219    3.8303 H   0  0  0  0  0  0  0  0  0  0  0  0
   -0.3644    2.1841   -0.6045 H   0  0  0  0  0  0  0  0  0  0  0  0
   -0.7956   -0.6638   -1.6575 H   0  0  0  0  0  0  0  0  0  0  0  0
   -0.3945   -1.6944   -0.2713 H   0  0  0  0  0  0  0  0  0  0  0  0
   -2.7357   -1.9785   -0.1859 H   0  0  0  0  0  0  0  0  0  0  0  0
   -2.6032   -0.4058    0.7144 H   0  0  0  0  0  0  0  0  0  0  0  0
   -3.0189   -0.4586   -1.0972 H   0  0  0  0  0  0  0  0  0  0  0  0
    1.5218   -0.5735    0.4168 H   0  0  0  0  0  0  0  0  0  0  0  0
    1.5486    1.2081    0.5383 H   0  0  0  0  0  0  0  0  0  0  0  0
    2.7557    0.3167   -2.7992 H   0  0  0  0  0  0  0  0  0  0  0  0
    3.0983    1.3608   -1.3449 H   0  0  0  0  0  0  0  0  0  0  0  0
    3.2371   -0.4660   -1.2490 H   0  0  0  0  0  0  0  0  0  0  0  0
  1  2  3  0
  2  3  1  0
  3  4  1  0
  3  5  1  0
  5  6  1  0
  3  7  1  0
  7  8  1  0
  8  9  1  0
  1 10  1  0
  4 11  1  0
  5 12  1  0
  5 13  1  0
  6 14  1  0
  6 15  1  0
  6 16  1  0
  7 17  1  0
  7 18  1  0
  9 19  1  0
  9 20  1  0
  9 21  1  0
M  END
