
     RDKit          3D

 20 19  0  0  0  0  0  0  0  0999 V2000
   -0.1359    2.0006   -2.0067 C   0  0  0  0  0  0  0  0  0  0  0  0
   -0.3727    1.0641   -1.2848 C   0  0  0  0  0  0  0  0  0  0  0  0
   -0.6739   -0.0939   -0.4205 C   0  0  0  0  0  0  0  0  0  0  0  0
   -2.0950   -0.1006    0.0370 C   0  0  0  0  0  0  0  0  0  0  0  0
   -0.3942   -1.3487   -1.1967 C   0  0  0  0  0  0  0  0  0  0  0  0
    0.2294    0.0373    0.7870 C   0  0  0  0  0  0  0  0  0  0  0  0
    1.5682    0.0272    0.4093 O   0  0  0  0  0  0  0  0  0  0  0  0
    2.3800    0.1492    1.5413 C   0  0  0  0  0  0  0  0  0  0  0  0
    0.0620    2.8316   -2.6634 H   0  0  0  0  0  0  0  0  0  0  0  0
   -2.1655   -0.2625    1.1488 H   0  0  0  0  0  0  0  0  0  0  0  0
   -2.6300   -0.9597   -0.4152 H   0  0  0  0  0  0  0  0  0  0  0  0
   -2.6268    0.8533   -0.1896 H   0  0  0  0  0  0  0  0  0  0  0  0
   -1.3589   -1.7529   -1.5663 H   0  0  0  0  0  0  0  0  0  0  0  0
    0.0254   -2.1078   -0.5094 H   0  0  0  0  0  0  0  0  0  0  0  0
    0.2722   -1.1666   -2.0689 H   0  0  0  0  0  0  0  0  0  0  0  0
    0.0148    1.0233    1.2405 H   0  0  0  0  0  0  0  0  0  0  0  0
    0.0135   -0.7212    1.5560 H   0  0  0  0  0  0  0  0  0  0  0  0
    2.2132   -0.6928    2.2632 H   0  0  0  0  0  0  0  0  0  0  0  0
    3.4529    0.1019    1.2786 H   0  0  0  0  0  0  0  0  0  0  0  0
    2.2212    1.1182    2.0598 H   0  0  0  0  0  0  0  0  0  0  0  0
  1  2  3  0
  2  3  1  0
  3  4  1  0
  3  5  1  0
  3  6  1  0
  6  7  1  0
  7  8  1  0
  1  9  1  0
  4 10  1  0
  4 11  1  0
  4 12  1  0
  5 13  1  0
  5 14  1  0
  5 15  1  0
  6 16  1  0
  6 17  1  0
  8 18  1  0
  8 19  1  0
  8 20  1  0
M  END
