
     RDKit          3D

 17 17  0  0  0  0  0  0  0  0999 V2000
   -1.9565    1.6687   -2.9935 C   0  0  0  0  0  0  0  0  0  0  0  0
   -1.4861    0.6286   -2.5434 C   0  0  0  0  0  0  0  0  0  0  0  0
   -0.9257   -0.5883   -1.9898 C   0  0  0  0  0  0  0  0  0  0  0  0
   -1.2562   -0.7024   -0.5218 C   0  0  0  0  0  0  0  0  0  0  0  0
   -0.0253    0.2168   -0.5019 C   0  0  0  0  0  0  0  0  0  0  0  0
    0.8094    0.0485    0.6535 C   0  0  0  0  0  0  0  0  0  0  0  0
    1.5165   -0.0833    1.6456 C   0  0  0  0  0  0  0  0  0  0  0  0
    2.3515   -0.2642    2.8324 C   0  0  0  0  0  0  0  0  0  0  0  0
    0.4254   -0.4690   -1.6007 O   0  0  0  0  0  0  0  0  0  0  0  0
   -2.3608    2.5465   -3.3624 H   0  0  0  0  0  0  0  0  0  0  0  0
   -1.1359   -1.5105   -2.5744 H   0  0  0  0  0  0  0  0  0  0  0  0
   -1.0649   -1.6817   -0.0805 H   0  0  0  0  0  0  0  0  0  0  0  0
   -2.1691   -0.1756   -0.1806 H   0  0  0  0  0  0  0  0  0  0  0  0
   -0.3301    1.2492   -0.7538 H   0  0  0  0  0  0  0  0  0  0  0  0
    1.9798    0.3813    3.6773 H   0  0  0  0  0  0  0  0  0  0  0  0
    2.2311   -1.3009    3.2151 H   0  0  0  0  0  0  0  0  0  0  0  0
    3.3967    0.0362    2.6611 H   0  0  0  0  0  0  0  0  0  0  0  0
  1  2  3  0
  2  3  1  0
  3  4  1  0
  4  5  1  0
  5  6  1  0
  6  7  3  0
  7  8  1  0
  5  9  1  0
  9  3  1  0
  1 10  1  0
  3 11  1  0
  4 12  1  0
  4 13  1  0
  5 14  1  0
  8 15  1  0
  8 16  1  0
  8 17  1  0
M  END
