
     RDKit          3D

 15 14  0  0  0  0  0  0  0  0999 V2000
   -2.7331    1.3655    1.1438 C   0  0  0  0  0  0  0  0  0  0  0  0
   -2.0938    0.6213    0.4410 C   0  0  0  0  0  0  0  0  0  0  0  0
   -1.3066   -0.2613   -0.4221 C   0  0  0  0  0  0  0  0  0  0  0  0
   -1.3831   -1.5506    0.0523 O   0  0  0  0  0  0  0  0  0  0  0  0
    0.1005    0.2170   -0.5103 C   0  0  0  0  0  0  0  0  0  0  0  0
    0.2721    1.3835   -0.9331 O   0  0  0  0  0  0  0  0  0  0  0  0
    1.2374   -0.5784   -0.1423 C   0  0  0  0  0  0  0  0  0  0  0  0
    2.6051   -0.0377   -0.2561 C   0  0  0  0  0  0  0  0  0  0  0  0
    1.1470   -1.7638    0.2926 O   0  0  0  0  0  0  0  0  0  0  0  0
   -3.3075    2.0328    1.7647 H   0  0  0  0  0  0  0  0  0  0  0  0
   -1.7039   -0.2295   -1.4765 H   0  0  0  0  0  0  0  0  0  0  0  0
   -1.8141   -1.5711    0.9369 H   0  0  0  0  0  0  0  0  0  0  0  0
    3.3680   -0.8394   -0.3324 H   0  0  0  0  0  0  0  0  0  0  0  0
    2.7335    0.5969   -1.1631 H   0  0  0  0  0  0  0  0  0  0  0  0
    2.8786    0.6147    0.6048 H   0  0  0  0  0  0  0  0  0  0  0  0
  1  2  3  0
  2  3  1  0
  3  4  1  0
  3  5  1  0
  5  6  2  0
  5  7  1  0
  7  8  1  0
  7  9  2  0
  1 10  1  0
  3 11  1  0
  4 12  1  0
  8 13  1  0
  8 14  1  0
  8 15  1  0
M  END
