
     RDKit          3D

 17 16  0  0  0  0  0  0  0  0999 V2000
    3.3565   -0.5729    0.9615 C   0  0  0  0  0  0  0  0  0  0  0  0
    2.2550   -0.1184    0.7056 C   0  0  0  0  0  0  0  0  0  0  0  0
    0.9573    0.3993    0.3940 C   0  0  0  0  0  0  0  0  0  0  0  0
    0.7383    1.6090    0.6486 O   0  0  0  0  0  0  0  0  0  0  0  0
   -0.1002   -0.4472   -0.2071 C   0  0  0  0  0  0  0  0  0  0  0  0
    0.4080   -0.9479   -1.4984 C   0  0  0  0  0  0  0  0  0  0  0  0
    0.2322   -0.2845   -2.4883 O   0  0  0  0  0  0  0  0  0  0  0  0
   -1.3564    0.3388   -0.4799 C   0  0  0  0  0  0  0  0  0  0  0  0
   -1.9473    0.9429    0.7625 C   0  0  0  0  0  0  0  0  0  0  0  0
    4.3000   -0.9801    1.1905 H   0  0  0  0  0  0  0  0  0  0  0  0
   -0.2937   -1.2912    0.4903 H   0  0  0  0  0  0  0  0  0  0  0  0
    0.9248   -1.8814   -1.5685 H   0  0  0  0  0  0  0  0  0  0  0  0
   -2.0666   -0.3313   -0.9793 H   0  0  0  0  0  0  0  0  0  0  0  0
   -1.0683    1.1576   -1.1919 H   0  0  0  0  0  0  0  0  0  0  0  0
   -1.2596    0.8337    1.6468 H   0  0  0  0  0  0  0  0  0  0  0  0
   -2.1802    2.0175    0.5753 H   0  0  0  0  0  0  0  0  0  0  0  0
   -2.8997    0.4272    1.0383 H   0  0  0  0  0  0  0  0  0  0  0  0
  1  2  3  0
  2  3  1  0
  3  4  2  0
  3  5  1  0
  5  6  1  0
  6  7  2  0
  5  8  1  0
  8  9  1  0
  1 10  1  0
  5 11  1  0
  6 12  1  0
  8 13  1  0
  8 14  1  0
  9 15  1  0
  9 16  1  0
  9 17  1  0
M  END
