
     RDKit          3D

 16 16  0  0  0  0  0  0  0  0999 V2000
    2.6516    0.8656   -1.3275 C   0  0  0  0  0  0  0  0  0  0  0  0
    1.8811   -0.0678   -1.3434 C   0  0  0  0  0  0  0  0  0  0  0  0
    0.9592   -1.2039   -1.3404 C   0  0  0  0  0  0  0  0  0  0  0  0
   -0.1702   -0.9513   -0.4352 C   0  0  0  0  0  0  0  0  0  0  0  0
   -1.0371   -1.8102   -0.3168 O   0  0  0  0  0  0  0  0  0  0  0  0
   -0.3504    0.2866    0.3649 C   0  0  0  0  0  0  0  0  0  0  0  0
   -1.8031    0.8284    0.3736 C   0  0  0  0  0  0  0  0  0  0  0  0
   -1.1230    0.3169    1.6067 C   0  0  0  0  0  0  0  0  0  0  0  0
    3.3209    1.6984   -1.3016 H   0  0  0  0  0  0  0  0  0  0  0  0
    1.4997   -2.1659   -1.1131 H   0  0  0  0  0  0  0  0  0  0  0  0
    0.5220   -1.3683   -2.3657 H   0  0  0  0  0  0  0  0  0  0  0  0
    0.4568    1.0560    0.2381 H   0  0  0  0  0  0  0  0  0  0  0  0
   -2.5782    0.1597   -0.0792 H   0  0  0  0  0  0  0  0  0  0  0  0
   -1.8784    1.9078    0.1773 H   0  0  0  0  0  0  0  0  0  0  0  0
   -1.4605   -0.6409    2.0270 H   0  0  0  0  0  0  0  0  0  0  0  0
   -0.8905    1.0889    2.3525 H   0  0  0  0  0  0  0  0  0  0  0  0
  1  2  3  0
  2  3  1  0
  3  4  1  0
  4  5  2  0
  4  6  1  0
  6  7  1  0
  7  8  1  0
  8  6  1  0
  1  9  1  0
  3 10  1  0
  3 11  1  0
  6 12  1  0
  7 13  1  0
  7 14  1  0
  8 15  1  0
  8 16  1  0
M  END
