
     RDKit          3D

 17 17  0  0  0  0  0  0  0  0999 V2000
    2.6587   -1.9767    0.5575 C   0  0  0  0  0  0  0  0  0  0  0  0
    1.5760   -1.4339    0.4038 C   0  0  0  0  0  0  0  0  0  0  0  0
    0.3042   -0.7985    0.2081 C   0  0  0  0  0  0  0  0  0  0  0  0
   -0.8231   -1.1240    0.7988 C   0  0  0  0  0  0  0  0  0  0  0  0
   -1.9425   -0.2626    0.3667 C   0  0  0  0  0  0  0  0  0  0  0  0
   -1.3502    0.7179   -0.5953 C   0  0  0  0  0  0  0  0  0  0  0  0
    0.0949    0.3559   -0.7270 C   0  0  0  0  0  0  0  0  0  0  0  0
    0.9646    1.4618   -0.3760 C   0  0  0  0  0  0  0  0  0  0  0  0
    1.6806    2.3718   -0.0798 C   0  0  0  0  0  0  0  0  0  0  0  0
    3.5937   -2.4557    0.7048 H   0  0  0  0  0  0  0  0  0  0  0  0
   -0.9237   -1.9253    1.5156 H   0  0  0  0  0  0  0  0  0  0  0  0
   -2.7510   -0.8614   -0.1280 H   0  0  0  0  0  0  0  0  0  0  0  0
   -2.3333    0.2900    1.2610 H   0  0  0  0  0  0  0  0  0  0  0  0
   -1.4789    1.7743   -0.2171 H   0  0  0  0  0  0  0  0  0  0  0  0
   -1.8691    0.7205   -1.5921 H   0  0  0  0  0  0  0  0  0  0  0  0
    0.2956   -0.0473   -1.7498 H   0  0  0  0  0  0  0  0  0  0  0  0
    2.3037    3.1931    0.1822 H   0  0  0  0  0  0  0  0  0  0  0  0
  1  2  3  0
  2  3  1  0
  3  4  2  0
  4  5  1  0
  5  6  1  0
  6  7  1  0
  7  8  1  0
  8  9  3  0
  7  3  1  0
  1 10  1  0
  4 11  1  0
  5 12  1  0
  5 13  1  0
  6 14  1  0
  6 15  1  0
  7 16  1  0
  9 17  1  0
M  END
