
     RDKit          3D

 16 15  0  0  0  0  0  0  0  0999 V2000
    3.2041   -0.5921    1.1258 C   0  0  0  0  0  0  0  0  0  0  0  0
    2.0369   -0.6854    0.3420 C   0  0  0  0  0  0  0  0  0  0  0  0
    1.0381   -0.7670   -0.3544 C   0  0  0  0  0  0  0  0  0  0  0  0
    0.0069    0.3356   -0.6069 C   0  0  0  0  0  0  0  0  0  0  0  0
   -0.8904    0.7432    0.5145 C   0  0  0  0  0  0  0  0  0  0  0  0
   -0.2194    1.1010    1.6322 O   0  0  0  0  0  0  0  0  0  0  0  0
   -2.1127   -0.0128    0.6919 C   0  0  0  0  0  0  0  0  0  0  0  0
   -3.1687   -0.6591    0.8297 C   0  0  0  0  0  0  0  0  0  0  0  0
    3.9888   -0.5151    1.6446 H   0  0  0  0  0  0  0  0  0  0  0  0
    1.2356   -0.9645   -1.5020 H   0  0  0  0  0  0  0  0  0  0  0  0
    0.3858   -1.7126   -0.1012 H   0  0  0  0  0  0  0  0  0  0  0  0
    0.5782    1.2059   -0.9272 H   0  0  0  0  0  0  0  0  0  0  0  0
   -0.6807   -0.1481   -1.4103 H   0  0  0  0  0  0  0  0  0  0  0  0
   -1.3258    1.7868    0.0701 H   0  0  0  0  0  0  0  0  0  0  0  0
   -0.0018    2.0921    1.6890 H   0  0  0  0  0  0  0  0  0  0  0  0
   -4.0750   -1.2080    0.9546 H   0  0  0  0  0  0  0  0  0  0  0  0
  1  2  3  0
  2  3  1  0
  3  4  1  0
  4  5  1  0
  5  6  1  0
  5  7  1  0
  7  8  3  0
  1  9  1  0
  3 10  1  0
  3 11  1  0
  4 12  1  0
  4 13  1  0
  5 14  1  0
  6 15  1  0
  8 16  1  0
M  END
