
     RDKit          3D

 15 14  0  0  0  0  0  0  0  0999 V2000
    1.5548    0.4347   -1.8852 C   0  0  0  0  0  0  0  0  0  0  0  0
    0.9238   -0.0974   -1.0048 C   0  0  0  0  0  0  0  0  0  0  0  0
    0.1750   -0.7479    0.0503 C   0  0  0  0  0  0  0  0  0  0  0  0
   -0.5199   -1.9665   -0.4526 C   0  0  0  0  0  0  0  0  0  0  0  0
   -1.7234   -2.0947   -0.3433 O   0  0  0  0  0  0  0  0  0  0  0  0
   -0.8386    0.2640    0.5825 C   0  0  0  0  0  0  0  0  0  0  0  0
   -0.0695    1.4384    1.1054 C   0  0  0  0  0  0  0  0  0  0  0  0
    2.1136    0.9024   -2.6897 H   0  0  0  0  0  0  0  0  0  0  0  0
    0.8783   -1.0457    0.8468 H   0  0  0  0  0  0  0  0  0  0  0  0
    0.1185   -2.7120   -0.9136 H   0  0  0  0  0  0  0  0  0  0  0  0
   -1.4957   -0.2086    1.3427 H   0  0  0  0  0  0  0  0  0  0  0  0
   -1.4656    0.5604   -0.2832 H   0  0  0  0  0  0  0  0  0  0  0  0
   -0.4355    1.7936    2.0966 H   0  0  0  0  0  0  0  0  0  0  0  0
    1.0108    1.1958    1.1600 H   0  0  0  0  0  0  0  0  0  0  0  0
   -0.2265    2.2834    0.3881 H   0  0  0  0  0  0  0  0  0  0  0  0
  1  2  3  0
  2  3  1  0
  3  4  1  0
  4  5  2  0
  3  6  1  0
  6  7  1  0
  1  8  1  0
  3  9  1  0
  4 10  1  0
  6 11  1  0
  6 12  1  0
  7 13  1  0
  7 14  1  0
  7 15  1  0
M  END
