
     RDKit          3D

 17 16  0  0  0  0  0  0  0  0999 V2000
    0.8365    2.4130   -0.4976 C   0  0  0  0  0  0  0  0  0  0  0  0
    0.6139    1.2873   -0.1911 C   0  0  0  0  0  0  0  0  0  0  0  0
    0.3498   -0.1187    0.1684 C   0  0  0  0  0  0  0  0  0  0  0  0
    0.1808   -0.2237    1.6478 C   0  0  0  0  0  0  0  0  0  0  0  0
    1.5381   -0.9411   -0.1923 C   0  0  0  0  0  0  0  0  0  0  0  0
    2.5039   -1.5856   -0.4895 C   0  0  0  0  0  0  0  0  0  0  0  0
   -0.8032   -0.5672   -0.6081 C   0  0  0  0  0  0  0  0  0  0  0  0
   -2.1434    0.0716   -0.5174 C   0  0  0  0  0  0  0  0  0  0  0  0
   -0.7001   -1.5026   -1.3743 O   0  0  0  0  0  0  0  0  0  0  0  0
    1.0491    3.4133   -0.7705 H   0  0  0  0  0  0  0  0  0  0  0  0
    1.2017   -0.0417    2.1014 H   0  0  0  0  0  0  0  0  0  0  0  0
   -0.0910   -1.2435    1.9557 H   0  0  0  0  0  0  0  0  0  0  0  0
   -0.4849    0.5401    2.0975 H   0  0  0  0  0  0  0  0  0  0  0  0
    3.3589   -2.1613   -0.7487 H   0  0  0  0  0  0  0  0  0  0  0  0
   -2.1299    0.9846    0.1092 H   0  0  0  0  0  0  0  0  0  0  0  0
   -2.8101   -0.6505   -0.0158 H   0  0  0  0  0  0  0  0  0  0  0  0
   -2.4701    0.3258   -1.5424 H   0  0  0  0  0  0  0  0  0  0  0  0
  1  2  3  0
  2  3  1  0
  3  4  1  0
  3  5  1  0
  5  6  3  0
  3  7  1  0
  7  8  1  0
  7  9  2  0
  1 10  1  0
  4 11  1  0
  4 12  1  0
  4 13  1  0
  6 14  1  0
  8 15  1  0
  8 16  1  0
  8 17  1  0
M  END
