
     RDKit          3D

 15 14  0  0  0  0  0  0  0  0999 V2000
   -4.1361    0.4232    0.2216 C   0  0  0  0  0  0  0  0  0  0  0  0
   -3.3285   -0.4675    0.1205 C   0  0  0  0  0  0  0  0  0  0  0  0
   -2.3236   -1.5520    0.0166 C   0  0  0  0  0  0  0  0  0  0  0  0
   -1.0050   -0.9029   -0.1742 C   0  0  0  0  0  0  0  0  0  0  0  0
    0.0578   -0.3572   -0.3353 C   0  0  0  0  0  0  0  0  0  0  0  0
    1.3437    0.2753   -0.5265 C   0  0  0  0  0  0  0  0  0  0  0  0
    1.6512    0.7557   -1.6518 O   0  0  0  0  0  0  0  0  0  0  0  0
    2.2787    0.3839    0.4871 O   0  0  0  0  0  0  0  0  0  0  0  0
    3.5409    1.0057    0.2960 C   0  0  0  0  0  0  0  0  0  0  0  0
   -4.8554    1.1989    0.3249 H   0  0  0  0  0  0  0  0  0  0  0  0
   -2.2939   -2.1680    0.9173 H   0  0  0  0  0  0  0  0  0  0  0  0
   -2.5324   -2.1066   -0.9091 H   0  0  0  0  0  0  0  0  0  0  0  0
    3.4958    2.0921    0.5806 H   0  0  0  0  0  0  0  0  0  0  0  0
    4.2762    0.5306    0.9665 H   0  0  0  0  0  0  0  0  0  0  0  0
    3.8305    0.8888   -0.7529 H   0  0  0  0  0  0  0  0  0  0  0  0
  1  2  3  0
  2  3  1  0
  3  4  1  0
  4  5  3  0
  5  6  1  0
  6  7  2  0
  6  8  1  0
  8  9  1  0
  1 10  1  0
  3 11  1  0
  3 12  1  0
  9 13  1  0
  9 14  1  0
  9 15  1  0
M  END
