
     RDKit          3D

 19 20  0  0  0  0  0  0  0  0999 V2000
    3.3189    1.7419   -0.0343 C   0  0  0  0  0  0  0  0  0  0  0  0
    2.2378    1.3959    0.2323 C   0  0  0  0  0  0  0  0  0  0  0  0
    0.8764    0.9403    0.5875 C   0  0  0  0  0  0  0  0  0  0  0  0
    0.6672   -0.5316    0.6528 C   0  0  0  0  0  0  0  0  0  0  0  0
    0.9158   -0.5232   -0.8345 C   0  0  0  0  0  0  0  0  0  0  0  0
    0.0082    0.6545   -0.6091 C   0  0  0  0  0  0  0  0  0  0  0  0
   -0.7558   -0.2601    0.3215 C   0  0  0  0  0  0  0  0  0  0  0  0
   -1.4775   -1.2419   -0.3263 O   0  0  0  0  0  0  0  0  0  0  0  0
   -2.7999   -1.1738    0.1728 C   0  0  0  0  0  0  0  0  0  0  0  0
    4.3222    2.0553   -0.2930 H   0  0  0  0  0  0  0  0  0  0  0  0
    0.3963    1.4955    1.3987 H   0  0  0  0  0  0  0  0  0  0  0  0
    1.0419   -1.1837    1.3149 H   0  0  0  0  0  0  0  0  0  0  0  0
    0.4085   -1.2918   -1.4159 H   0  0  0  0  0  0  0  0  0  0  0  0
    1.9565   -0.3015   -1.0599 H   0  0  0  0  0  0  0  0  0  0  0  0
   -0.3610    1.2984   -1.2743 H   0  0  0  0  0  0  0  0  0  0  0  0
   -1.3284    0.3346    1.0687 H   0  0  0  0  0  0  0  0  0  0  0  0
   -2.7845   -1.3490    1.2663 H   0  0  0  0  0  0  0  0  0  0  0  0
   -3.2183   -0.1567    0.0074 H   0  0  0  0  0  0  0  0  0  0  0  0
   -3.4243   -1.9032   -0.3641 H   0  0  0  0  0  0  0  0  0  0  0  0
  1  2  3  0
  2  3  1  0
  3  4  1  0
  4  5  1  0
  5  6  1  0
  6  7  1  0
  7  8  1  0
  8  9  1  0
  6  3  1  0
  7  4  1  0
  1 10  1  0
  3 11  1  0
  4 12  1  0
  5 13  1  0
  5 14  1  0
  6 15  1  0
  7 16  1  0
  9 17  1  0
  9 18  1  0
  9 19  1  0
M  END
