
     RDKit          3D

 16 15  0  0  0  0  0  0  0  0999 V2000
    3.4437    0.7697   -0.7392 C   0  0  0  0  0  0  0  0  0  0  0  0
    2.4337    0.6123   -0.1253 C   0  0  0  0  0  0  0  0  0  0  0  0
    1.2101    0.4449    0.6282 C   0  0  0  0  0  0  0  0  0  0  0  0
    0.2418   -0.4779   -0.0171 C   0  0  0  0  0  0  0  0  0  0  0  0
    0.5683   -0.9829   -1.0818 O   0  0  0  0  0  0  0  0  0  0  0  0
   -1.0446   -0.7449    0.6323 C   0  0  0  0  0  0  0  0  0  0  0  0
   -2.2403   -0.3578   -0.2088 C   0  0  0  0  0  0  0  0  0  0  0  0
   -1.1258   -0.0325    1.8187 O   0  0  0  0  0  0  0  0  0  0  0  0
    4.3531    0.9108   -1.2717 H   0  0  0  0  0  0  0  0  0  0  0  0
    1.4447    0.0739    1.6577 H   0  0  0  0  0  0  0  0  0  0  0  0
    0.6825    1.4299    0.7714 H   0  0  0  0  0  0  0  0  0  0  0  0
   -1.1270   -1.8357    0.8275 H   0  0  0  0  0  0  0  0  0  0  0  0
   -2.1001    0.6488   -0.6574 H   0  0  0  0  0  0  0  0  0  0  0  0
   -3.0988   -0.2529    0.5158 H   0  0  0  0  0  0  0  0  0  0  0  0
   -2.4752   -1.1437   -0.9308 H   0  0  0  0  0  0  0  0  0  0  0  0
   -1.1660    0.9379    1.5700 H   0  0  0  0  0  0  0  0  0  0  0  0
  1  2  3  0
  2  3  1  0
  3  4  1  0
  4  5  2  0
  4  6  1  0
  6  7  1  0
  6  8  1  0
  1  9  1  0
  3 10  1  0
  3 11  1  0
  6 12  1  0
  7 13  1  0
  7 14  1  0
  7 15  1  0
  8 16  1  0
M  END
