
     RDKit          3D

 17 17  0  0  0  0  0  0  0  0999 V2000
   -4.9310    0.2147   -0.0992 C   0  0  0  0  0  0  0  0  0  0  0  0
   -3.6743   -0.3946   -0.0217 C   0  0  0  0  0  0  0  0  0  0  0  0
   -2.2739   -1.0568    0.0645 C   0  0  0  0  0  0  0  0  0  0  0  0
   -1.7861   -0.9845    1.3045 O   0  0  0  0  0  0  0  0  0  0  0  0
   -1.3035    0.0189    0.4189 C   0  0  0  0  0  0  0  0  0  0  0  0
    0.1814   -0.0567    0.3248 C   0  0  0  0  0  0  0  0  0  0  0  0
    1.2318   -0.0921    0.2628 C   0  0  0  0  0  0  0  0  0  0  0  0
    2.8170   -0.1411    0.1723 C   0  0  0  0  0  0  0  0  0  0  0  0
    3.1237    0.6823   -1.1104 C   0  0  0  0  0  0  0  0  0  0  0  0
   -5.5749    0.5309   -0.1509 H   0  0  0  0  0  0  0  0  0  0  0  0
   -2.1236   -1.6754   -0.7872 H   0  0  0  0  0  0  0  0  0  0  0  0
   -1.7265    1.0415    0.6185 H   0  0  0  0  0  0  0  0  0  0  0  0
    3.1209   -1.0964    0.2507 H   0  0  0  0  0  0  0  0  0  0  0  0
    3.1080    0.4369    1.1264 H   0  0  0  0  0  0  0  0  0  0  0  0
    3.8968    0.0809   -1.6129 H   0  0  0  0  0  0  0  0  0  0  0  0
    3.7035    1.6151   -0.7871 H   0  0  0  0  0  0  0  0  0  0  0  0
    2.2109    0.8763   -1.6493 H   0  0  0  0  0  0  0  0  0  0  0  0
  1  2  3  0
  2  3  1  0
  3  4  1  0
  4  5  1  0
  5  6  1  0
  6  7  3  0
  7  8  1  0
  8  9  1  0
  5  3  1  0
  1 10  1  0
  3 11  1  0
  5 12  1  0
  8 13  1  0
  8 14  1  0
  9 15  1  0
  9 16  1  0
  9 17  1  0
M  END
