
     RDKit          3D

 13 12  0  0  0  0  0  0  0  0999 V2000
   -0.0993    2.2364    1.0546 C   0  0  0  0  0  0  0  0  0  0  0  0
    0.3656    1.5120    0.3087 C   0  0  0  0  0  0  0  0  0  0  0  0
    0.9824    0.5663   -0.6977 C   0  0  0  0  0  0  0  0  0  0  0  0
    1.4346    1.0597   -1.7105 O   0  0  0  0  0  0  0  0  0  0  0  0
    0.9988   -0.8556   -0.3759 C   0  0  0  0  0  0  0  0  0  0  0  0
    0.0761   -1.1067    0.6615 O   0  0  0  0  0  0  0  0  0  0  0  0
   -1.2277   -0.9117    0.1414 C   0  0  0  0  0  0  0  0  0  0  0  0
   -0.5419    2.9458    1.7582 H   0  0  0  0  0  0  0  0  0  0  0  0
    1.9761   -1.1825    0.0842 H   0  0  0  0  0  0  0  0  0  0  0  0
    0.7210   -1.5114   -1.2349 H   0  0  0  0  0  0  0  0  0  0  0  0
   -1.9376   -1.0578    0.9764 H   0  0  0  0  0  0  0  0  0  0  0  0
   -1.3967   -1.7486   -0.6291 H   0  0  0  0  0  0  0  0  0  0  0  0
   -1.3516    0.0544   -0.3370 H   0  0  0  0  0  0  0  0  0  0  0  0
  1  2  3  0
  2  3  1  0
  3  4  2  0
  3  5  1  0
  5  6  1  0
  6  7  1  0
  1  8  1  0
  5  9  1  0
  5 10  1  0
  7 11  1  0
  7 12  1  0
  7 13  1  0
M  END
