
     RDKit          3D

 19 19  0  0  0  0  0  0  0  0999 V2000
   -0.1391    3.1944   -1.1980 C   0  0  0  0  0  0  0  0  0  0  0  0
   -0.2434    2.0912   -0.6780 C   0  0  0  0  0  0  0  0  0  0  0  0
   -0.3490    0.7918   -0.0753 C   0  0  0  0  0  0  0  0  0  0  0  0
    0.4844   -0.1981   -0.1303 C   0  0  0  0  0  0  0  0  0  0  0  0
    1.7772   -0.1733   -0.8680 C   0  0  0  0  0  0  0  0  0  0  0  0
    1.7383   -1.1742   -1.8189 O   0  0  0  0  0  0  0  0  0  0  0  0
    0.0142   -1.3798    0.6282 C   0  0  0  0  0  0  0  0  0  0  0  0
   -1.4436   -1.1014    0.9239 C   0  0  0  0  0  0  0  0  0  0  0  0
   -1.5102    0.3815    0.7497 C   0  0  0  0  0  0  0  0  0  0  0  0
   -0.0457    4.1570   -1.6316 H   0  0  0  0  0  0  0  0  0  0  0  0
    1.9532    0.7890   -1.3732 H   0  0  0  0  0  0  0  0  0  0  0  0
    2.5767   -0.3616   -0.1216 H   0  0  0  0  0  0  0  0  0  0  0  0
    2.1125   -1.9952   -1.4198 H   0  0  0  0  0  0  0  0  0  0  0  0
    0.6008   -1.4428    1.5688 H   0  0  0  0  0  0  0  0  0  0  0  0
    0.1417   -2.2676   -0.0200 H   0  0  0  0  0  0  0  0  0  0  0  0
   -1.7275   -1.3686    1.9589 H   0  0  0  0  0  0  0  0  0  0  0  0
   -2.1221   -1.5684    0.1709 H   0  0  0  0  0  0  0  0  0  0  0  0
   -2.4256    0.7215    0.2173 H   0  0  0  0  0  0  0  0  0  0  0  0
   -1.3929    0.9045    1.7351 H   0  0  0  0  0  0  0  0  0  0  0  0
  1  2  3  0
  2  3  1  0
  3  4  2  0
  4  5  1  0
  5  6  1  0
  4  7  1  0
  7  8  1  0
  8  9  1  0
  9  3  1  0
  1 10  1  0
  5 11  1  0
  5 12  1  0
  6 13  1  0
  7 14  1  0
  7 15  1  0
  8 16  1  0
  8 17  1  0
  9 18  1  0
  9 19  1  0
M  END
