
     RDKit          3D

 21 20  0  0  0  0  0  0  0  0999 V2000
    2.1061   -1.7093   -2.2760 C   0  0  0  0  0  0  0  0  0  0  0  0
    1.0639   -1.6609   -1.5779 C   0  0  0  0  0  0  0  0  0  0  0  0
   -0.1110   -1.5989   -0.7618 C   0  0  0  0  0  0  0  0  0  0  0  0
   -1.0409   -2.4107   -0.9901 O   0  0  0  0  0  0  0  0  0  0  0  0
   -0.2710   -0.6251    0.3311 C   0  0  0  0  0  0  0  0  0  0  0  0
    0.8619   -0.8296    1.3272 C   0  0  0  0  0  0  0  0  0  0  0  0
   -0.2528    0.8020   -0.1352 C   0  0  0  0  0  0  0  0  0  0  0  0
   -0.4225    1.7361    1.0317 C   0  0  0  0  0  0  0  0  0  0  0  0
   -1.3923    1.0741   -1.1011 C   0  0  0  0  0  0  0  0  0  0  0  0
    2.9523   -1.7588   -2.8259 H   0  0  0  0  0  0  0  0  0  0  0  0
   -1.2165   -0.7968    0.8957 H   0  0  0  0  0  0  0  0  0  0  0  0
    0.4885   -0.7541    2.3833 H   0  0  0  0  0  0  0  0  0  0  0  0
    1.6156   -0.0396    1.1228 H   0  0  0  0  0  0  0  0  0  0  0  0
    1.3595   -1.8235    1.1667 H   0  0  0  0  0  0  0  0  0  0  0  0
    0.7115    1.0636   -0.6297 H   0  0  0  0  0  0  0  0  0  0  0  0
    0.0336    1.2696    1.9506 H   0  0  0  0  0  0  0  0  0  0  0  0
    0.0602    2.7220    0.8598 H   0  0  0  0  0  0  0  0  0  0  0  0
   -1.5044    1.9245    1.1793 H   0  0  0  0  0  0  0  0  0  0  0  0
   -1.7281    2.1124   -0.9655 H   0  0  0  0  0  0  0  0  0  0  0  0
   -2.2232    0.3774   -0.8776 H   0  0  0  0  0  0  0  0  0  0  0  0
   -1.0905    0.9257   -2.1590 H   0  0  0  0  0  0  0  0  0  0  0  0
  1  2  3  0
  2  3  1  0
  3  4  2  0
  3  5  1  0
  5  6  1  0
  5  7  1  0
  7  8  1  0
  7  9  1  0
  1 10  1  0
  5 11  1  0
  6 12  1  0
  6 13  1  0
  6 14  1  0
  7 15  1  0
  8 16  1  0
  8 17  1  0
  8 18  1  0
  9 19  1  0
  9 20  1  0
  9 21  1  0
M  END
