
     RDKit          3D

 19 20  0  0  0  0  0  0  0  0999 V2000
    3.1708    0.6637    0.3331 C   0  0  0  0  0  0  0  0  0  0  0  0
    2.0037    0.4809    0.4156 C   0  0  0  0  0  0  0  0  0  0  0  0
    0.5811    0.2487    0.5084 C   0  0  0  0  0  0  0  0  0  0  0  0
    0.2305   -1.2154    0.6667 C   0  0  0  0  0  0  0  0  0  0  0  0
   -1.1406   -1.3817    0.0819 C   0  0  0  0  0  0  0  0  0  0  0  0
   -1.1182   -0.4284   -1.0833 C   0  0  0  0  0  0  0  0  0  0  0  0
   -0.1820    0.6837   -0.6966 C   0  0  0  0  0  0  0  0  0  0  0  0
   -0.7978    1.6751    0.2659 C   0  0  0  0  0  0  0  0  0  0  0  0
   -0.1237    1.1047    1.3490 O   0  0  0  0  0  0  0  0  0  0  0  0
    4.2097    0.8240    0.2751 H   0  0  0  0  0  0  0  0  0  0  0  0
    0.3404   -1.5760    1.6911 H   0  0  0  0  0  0  0  0  0  0  0  0
    0.9358   -1.7719   -0.0140 H   0  0  0  0  0  0  0  0  0  0  0  0
   -1.9470   -1.1712    0.8069 H   0  0  0  0  0  0  0  0  0  0  0  0
   -1.2692   -2.4365   -0.2604 H   0  0  0  0  0  0  0  0  0  0  0  0
   -2.1375   -0.0588   -1.3059 H   0  0  0  0  0  0  0  0  0  0  0  0
   -0.7233   -0.9340   -1.9841 H   0  0  0  0  0  0  0  0  0  0  0  0
    0.4219    1.1119   -1.4972 H   0  0  0  0  0  0  0  0  0  0  0  0
   -0.5562    2.7174    0.0414 H   0  0  0  0  0  0  0  0  0  0  0  0
   -1.8984    1.4638    0.4063 H   0  0  0  0  0  0  0  0  0  0  0  0
  1  2  3  0
  2  3  1  0
  3  4  1  0
  4  5  1  0
  5  6  1  0
  6  7  1  0
  7  8  1  0
  8  9  1  0
  7  3  1  0
  9  3  1  0
  1 10  1  0
  4 11  1  0
  4 12  1  0
  5 13  1  0
  5 14  1  0
  6 15  1  0
  6 16  1  0
  7 17  1  0
  8 18  1  0
  8 19  1  0
M  END
