
     RDKit          3D

 21 20  0  0  0  0  0  0  0  0999 V2000
    0.4784    1.7292    2.7629 C   0  0  0  0  0  0  0  0  0  0  0  0
    1.1373    1.0319    1.9767 C   0  0  0  0  0  0  0  0  0  0  0  0
    1.8979    0.1949    1.0661 C   0  0  0  0  0  0  0  0  0  0  0  0
    1.0825   -0.6058    0.3048 O   0  0  0  0  0  0  0  0  0  0  0  0
    0.1793    0.0861   -0.4846 C   0  0  0  0  0  0  0  0  0  0  0  0
    0.5939   -0.2264   -1.9332 C   0  0  0  0  0  0  0  0  0  0  0  0
   -1.2368   -0.3735   -0.3469 C   0  0  0  0  0  0  0  0  0  0  0  0
   -1.8010   -0.2380    1.0303 C   0  0  0  0  0  0  0  0  0  0  0  0
   -1.2509   -1.7363   -0.7264 O   0  0  0  0  0  0  0  0  0  0  0  0
   -0.0692    2.3230    3.4409 H   0  0  0  0  0  0  0  0  0  0  0  0
    2.5376   -0.4708    1.6977 H   0  0  0  0  0  0  0  0  0  0  0  0
    2.5687    0.8440    0.4631 H   0  0  0  0  0  0  0  0  0  0  0  0
    0.3216    1.1704   -0.3015 H   0  0  0  0  0  0  0  0  0  0  0  0
    0.1397   -1.2125   -2.1637 H   0  0  0  0  0  0  0  0  0  0  0  0
    0.2049    0.5681   -2.5875 H   0  0  0  0  0  0  0  0  0  0  0  0
    1.6959   -0.3458   -1.9857 H   0  0  0  0  0  0  0  0  0  0  0  0
   -1.8482    0.1989   -1.0688 H   0  0  0  0  0  0  0  0  0  0  0  0
   -1.2847   -0.8801    1.7605 H   0  0  0  0  0  0  0  0  0  0  0  0
   -2.8557   -0.6289    0.9836 H   0  0  0  0  0  0  0  0  0  0  0  0
   -1.8736    0.8018    1.3493 H   0  0  0  0  0  0  0  0  0  0  0  0
   -0.6177   -2.2302   -0.1636 H   0  0  0  0  0  0  0  0  0  0  0  0
  1  2  3  0
  2  3  1  0
  3  4  1  0
  4  5  1  0
  5  6  1  0
  5  7  1  0
  7  8  1  0
  7  9  1  0
  1 10  1  0
  3 11  1  0
  3 12  1  0
  5 13  1  0
  6 14  1  0
  6 15  1  0
  6 16  1  0
  7 17  1  0
  8 18  1  0
  8 19  1  0
  8 20  1  0
  9 21  1  0
M  END
