
     RDKit          3D

 23 22  0  0  0  0  0  0  0  0999 V2000
   -0.6198    3.1464    1.1172 C   0  0  0  0  0  0  0  0  0  0  0  0
   -0.7206    1.9534    0.8975 C   0  0  0  0  0  0  0  0  0  0  0  0
   -0.8531    0.5141    0.6558 C   0  0  0  0  0  0  0  0  0  0  0  0
   -0.6391   -0.2283    1.9449 C   0  0  0  0  0  0  0  0  0  0  0  0
   -2.2741    0.2838    0.1851 C   0  0  0  0  0  0  0  0  0  0  0  0
    0.1611    0.1399   -0.4000 C   0  0  0  0  0  0  0  0  0  0  0  0
    0.1202   -1.2183   -0.7076 O   0  0  0  0  0  0  0  0  0  0  0  0
    1.0698   -1.5163   -1.6827 C   0  0  0  0  0  0  0  0  0  0  0  0
    2.4702   -1.1900   -1.2365 C   0  0  0  0  0  0  0  0  0  0  0  0
   -0.5365    4.1897    1.3270 H   0  0  0  0  0  0  0  0  0  0  0  0
    0.2849    0.1026    2.4781 H   0  0  0  0  0  0  0  0  0  0  0  0
   -0.6377   -1.3267    1.8056 H   0  0  0  0  0  0  0  0  0  0  0  0
   -1.4796    0.0239    2.6148 H   0  0  0  0  0  0  0  0  0  0  0  0
   -2.5274    1.1359   -0.4758 H   0  0  0  0  0  0  0  0  0  0  0  0
   -2.9192    0.4252    1.0991 H   0  0  0  0  0  0  0  0  0  0  0  0
   -2.4244   -0.6991   -0.2648 H   0  0  0  0  0  0  0  0  0  0  0  0
    1.1504    0.4527   -0.0145 H   0  0  0  0  0  0  0  0  0  0  0  0
   -0.0631    0.6800   -1.3438 H   0  0  0  0  0  0  0  0  0  0  0  0
    0.8868   -0.9208   -2.6232 H   0  0  0  0  0  0  0  0  0  0  0  0
    0.9954   -2.6075   -1.8811 H   0  0  0  0  0  0  0  0  0  0  0  0
    2.6582   -1.4410   -0.1693 H   0  0  0  0  0  0  0  0  0  0  0  0
    3.2069   -1.7755   -1.8247 H   0  0  0  0  0  0  0  0  0  0  0  0
    2.6906   -0.1242   -1.3580 H   0  0  0  0  0  0  0  0  0  0  0  0
  1  2  3  0
  2  3  1  0
  3  4  1  0
  3  5  1  0
  3  6  1  0
  6  7  1  0
  7  8  1  0
  8  9  1  0
  1 10  1  0
  4 11  1  0
  4 12  1  0
  4 13  1  0
  5 14  1  0
  5 15  1  0
  5 16  1  0
  6 17  1  0
  6 18  1  0
  8 19  1  0
  8 20  1  0
  9 21  1  0
  9 22  1  0
  9 23  1  0
M  END
