
     RDKit          3D

 17 18  0  0  0  0  0  0  0  0999 V2000
    2.8565   -1.2652   -1.0344 C   0  0  0  0  0  0  0  0  0  0  0  0
    0.9103   -1.1250   -0.5079 C   0  0  0  0  0  0  0  0  0  0  0  0
   -0.1328   -1.0352   -0.2131 C   0  0  0  0  0  0  0  0  0  0  0  0
   -0.3956   -1.2190    1.3780 C   0  0  0  0  0  0  0  0  0  0  0  0
   -1.5287   -0.2035    1.0347 C   0  0  0  0  0  0  0  0  0  0  0  0
   -0.3078    0.2746    0.0122 C   0  0  0  0  0  0  0  0  0  0  0  0
    0.0304    1.6955    0.1121 C   0  0  0  0  0  0  0  0  0  0  0  0
    0.3382    3.0223    0.2161 C   0  0  0  0  0  0  0  0  0  0  0  0
   -0.7543   -0.3068   -1.4233 C   0  0  0  0  0  0  0  0  0  0  0  0
    4.2919   -1.3601   -1.4418 H   0  0  0  0  0  0  0  0  0  0  0  0
    0.5481   -0.4614    1.6546 H   0  0  0  0  0  0  0  0  0  0  0  0
   -0.4787   -2.1966    1.7585 H   0  0  0  0  0  0  0  0  0  0  0  0
   -1.6433    0.5734    1.7311 H   0  0  0  0  0  0  0  0  0  0  0  0
   -2.2562   -0.4316    0.2236 H   0  0  0  0  0  0  0  0  0  0  0  0
    0.6570    4.2960    0.3158 H   0  0  0  0  0  0  0  0  0  0  0  0
   -1.9188   -0.1986   -1.4338 H   0  0  0  0  0  0  0  0  0  0  0  0
   -0.2161   -0.0590   -2.3823 H   0  0  0  0  0  0  0  0  0  0  0  0
  1  2  3  0
  2  3  1  0
  3  4  1  0
  4  5  1  0
  5  6  1  0
  6  7  1  0
  7  8  3  0
  6  9  1  0
  6  3  1  0
  9  3  1  0
  1 10  1  0
  4 11  1  0
  4 12  1  0
  5 13  1  0
  5 14  1  0
  8 15  1  0
  9 16  1  0
  9 17  1  0
M  END
