
     RDKit          3D

 15 15  0  0  0  0  0  0  0  0999 V2000
    1.4900    1.0892   -2.7464 C   0  0  0  0  0  0  0  0  0  0  0  0
    0.9333    0.7966   -1.6947 C   0  0  0  0  0  0  0  0  0  0  0  0
    0.2688    0.4293   -0.4633 C   0  0  0  0  0  0  0  0  0  0  0  0
   -0.0734    1.1993    0.5518 C   0  0  0  0  0  0  0  0  0  0  0  0
   -0.7274    0.4111    1.5877 C   0  0  0  0  0  0  0  0  0  0  0  0
   -0.8470    0.6439    2.8041 O   0  0  0  0  0  0  0  0  0  0  0  0
   -1.2364   -0.7709    0.8427 C   0  0  0  0  0  0  0  0  0  0  0  0
   -0.1276   -0.9674   -0.1570 C   0  0  0  0  0  0  0  0  0  0  0  0
    0.8956   -1.6552    0.4948 O   0  0  0  0  0  0  0  0  0  0  0  0
    1.9857    1.3414   -3.6639 H   0  0  0  0  0  0  0  0  0  0  0  0
    0.1232    2.2792    0.5831 H   0  0  0  0  0  0  0  0  0  0  0  0
   -2.1385   -0.5184    0.2379 H   0  0  0  0  0  0  0  0  0  0  0  0
   -1.4038   -1.6490    1.4974 H   0  0  0  0  0  0  0  0  0  0  0  0
   -0.4638   -1.4937   -1.0686 H   0  0  0  0  0  0  0  0  0  0  0  0
    1.3212   -1.1352    1.1945 H   0  0  0  0  0  0  0  0  0  0  0  0
  1  2  3  0
  2  3  1  0
  3  4  2  0
  4  5  1  0
  5  6  2  0
  5  7  1  0
  7  8  1  0
  8  9  1  0
  8  3  1  0
  1 10  1  0
  4 11  1  0
  7 12  1  0
  7 13  1  0
  8 14  1  0
  9 15  1  0
M  END
