
     RDKit          3D

 19 19  0  0  0  0  0  0  0  0999 V2000
    3.8531   -0.1289   -0.4142 C   0  0  0  0  0  0  0  0  0  0  0  0
    2.7036   -0.4965   -0.3690 C   0  0  0  0  0  0  0  0  0  0  0  0
    1.2993   -0.9569   -0.2945 C   0  0  0  0  0  0  0  0  0  0  0  0
    0.4579    0.2471    0.0097 C   0  0  0  0  0  0  0  0  0  0  0  0
   -1.0041   -0.0594    0.1176 C   0  0  0  0  0  0  0  0  0  0  0  0
   -1.8646    1.1522    0.4253 C   0  0  0  0  0  0  0  0  0  0  0  0
   -1.8121    1.9725   -0.7121 O   0  0  0  0  0  0  0  0  0  0  0  0
   -1.5568   -1.3576    0.3471 C   0  0  0  0  0  0  0  0  0  0  0  0
   -1.4934   -0.7603   -1.0173 O   0  0  0  0  0  0  0  0  0  0  0  0
    4.8631    0.2114   -0.4461 H   0  0  0  0  0  0  0  0  0  0  0  0
    1.2274   -1.6972    0.5413 H   0  0  0  0  0  0  0  0  0  0  0  0
    1.0375   -1.4031   -1.2627 H   0  0  0  0  0  0  0  0  0  0  0  0
    0.8471    0.7759    0.9039 H   0  0  0  0  0  0  0  0  0  0  0  0
    0.5758    0.9595   -0.8534 H   0  0  0  0  0  0  0  0  0  0  0  0
   -2.9260    0.8514    0.6559 H   0  0  0  0  0  0  0  0  0  0  0  0
   -1.4023    1.6686    1.2968 H   0  0  0  0  0  0  0  0  0  0  0  0
   -1.2481    2.7783   -0.5065 H   0  0  0  0  0  0  0  0  0  0  0  0
   -2.5830   -1.4664    0.6988 H   0  0  0  0  0  0  0  0  0  0  0  0
   -0.9742   -2.2905    0.3138 H   0  0  0  0  0  0  0  0  0  0  0  0
  1  2  3  0
  2  3  1  0
  3  4  1  0
  4  5  1  0
  5  6  1  0
  6  7  1  0
  5  8  1  0
  8  9  1  0
  9  5  1  0
  1 10  1  0
  3 11  1  0
  3 12  1  0
  4 13  1  0
  4 14  1  0
  6 15  1  0
  6 16  1  0
  7 17  1  0
  8 18  1  0
  8 19  1  0
M  END
