
     RDKit          3D

 19 19  0  0  0  0  0  0  0  0999 V2000
    1.6433    2.4026   -0.6035 C   0  0  0  0  0  0  0  0  0  0  0  0
    1.0718    1.3426   -0.6674 C   0  0  0  0  0  0  0  0  0  0  0  0
    0.3522    0.0582   -0.7356 C   0  0  0  0  0  0  0  0  0  0  0  0
   -1.0990    0.3640   -0.4597 C   0  0  0  0  0  0  0  0  0  0  0  0
   -1.9628   -0.8804   -0.4988 C   0  0  0  0  0  0  0  0  0  0  0  0
   -1.2735    1.0220    0.7600 O   0  0  0  0  0  0  0  0  0  0  0  0
    0.9443   -0.9931    0.1142 C   0  0  0  0  0  0  0  0  0  0  0  0
    1.1151   -0.9497    1.5491 C   0  0  0  0  0  0  0  0  0  0  0  0
    2.1790   -0.5192    0.8033 O   0  0  0  0  0  0  0  0  0  0  0  0
    2.1297    3.3426   -0.5518 H   0  0  0  0  0  0  0  0  0  0  0  0
    0.4062   -0.2410   -1.8143 H   0  0  0  0  0  0  0  0  0  0  0  0
   -1.5062    1.0497   -1.2333 H   0  0  0  0  0  0  0  0  0  0  0  0
   -1.4202   -1.7551   -0.8906 H   0  0  0  0  0  0  0  0  0  0  0  0
   -2.8582   -0.7504   -1.1432 H   0  0  0  0  0  0  0  0  0  0  0  0
   -2.3819   -1.0677    0.5308 H   0  0  0  0  0  0  0  0  0  0  0  0
   -0.4822    1.6129    0.9628 H   0  0  0  0  0  0  0  0  0  0  0  0
    1.2414   -1.9452   -0.3998 H   0  0  0  0  0  0  0  0  0  0  0  0
    0.6631   -0.1756    2.1973 H   0  0  0  0  0  0  0  0  0  0  0  0
    1.2379   -1.9171    2.0807 H   0  0  0  0  0  0  0  0  0  0  0  0
  1  2  3  0
  2  3  1  0
  3  4  1  0
  4  5  1  0
  4  6  1  0
  3  7  1  0
  7  8  1  0
  8  9  1  0
  9  7  1  0
  1 10  1  0
  3 11  1  0
  4 12  1  0
  5 13  1  0
  5 14  1  0
  5 15  1  0
  6 16  1  0
  7 17  1  0
  8 18  1  0
  8 19  1  0
M  END
