
     RDKit          3D

 19 21  0  0  0  0  0  0  0  0999 V2000
    3.0070    0.8117   -0.6767 C   0  0  0  0  0  0  0  0  0  0  0  0
    1.9353    0.2956   -0.5825 C   0  0  0  0  0  0  0  0  0  0  0  0
    0.6276   -0.3076   -0.4761 C   0  0  0  0  0  0  0  0  0  0  0  0
    0.4262   -1.7685   -0.4294 C   0  0  0  0  0  0  0  0  0  0  0  0
    0.4057   -1.0553    0.8695 C   0  0  0  0  0  0  0  0  0  0  0  0
   -0.6128   -0.0574    1.2340 C   0  0  0  0  0  0  0  0  0  0  0  0
   -0.4806    1.3928    1.0296 C   0  0  0  0  0  0  0  0  0  0  0  0
   -0.5794    0.5161   -0.1347 C   0  0  0  0  0  0  0  0  0  0  0  0
   -1.8589    0.3424   -0.9196 C   0  0  0  0  0  0  0  0  0  0  0  0
    3.9715    1.2711   -0.7775 H   0  0  0  0  0  0  0  0  0  0  0  0
   -0.5646   -2.1346   -0.8135 H   0  0  0  0  0  0  0  0  0  0  0  0
    1.2708   -2.4123   -0.6543 H   0  0  0  0  0  0  0  0  0  0  0  0
    1.2706   -1.1991    1.5159 H   0  0  0  0  0  0  0  0  0  0  0  0
   -1.5305   -0.4313    1.7023 H   0  0  0  0  0  0  0  0  0  0  0  0
    0.5171    1.8935    1.1762 H   0  0  0  0  0  0  0  0  0  0  0  0
   -1.3200    2.0195    1.3367 H   0  0  0  0  0  0  0  0  0  0  0  0
   -1.5955   -0.1759   -1.8586 H   0  0  0  0  0  0  0  0  0  0  0  0
   -2.5836   -0.3254   -0.3890 H   0  0  0  0  0  0  0  0  0  0  0  0
   -2.3057    1.3246   -1.1524 H   0  0  0  0  0  0  0  0  0  0  0  0
  1  2  3  0
  2  3  1  0
  3  4  1  0
  4  5  1  0
  5  6  1  0
  6  7  1  0
  7  8  1  0
  8  9  1  0
  5  3  1  0
  8  6  1  0
  8  3  1  0
  1 10  1  0
  4 11  1  0
  4 12  1  0
  5 13  1  0
  6 14  1  0
  7 15  1  0
  7 16  1  0
  9 17  1  0
  9 18  1  0
  9 19  1  0
M  END
