
     RDKit          3D

 15 16  0  0  0  0  0  0  0  0999 V2000
    4.1379    2.2710    0.5169 C   0  0  0  0  0  0  0  0  0  0  0  0
    3.0511    1.7963    0.2971 C   0  0  0  0  0  0  0  0  0  0  0  0
    1.7857    1.2377    0.0164 C   0  0  0  0  0  0  0  0  0  0  0  0
    0.7220    0.7763   -0.2063 C   0  0  0  0  0  0  0  0  0  0  0  0
   -0.5809    0.1845   -0.4760 C   0  0  0  0  0  0  0  0  0  0  0  0
   -0.3995   -1.0001   -1.2448 O   0  0  0  0  0  0  0  0  0  0  0  0
   -1.7089   -1.2348   -0.8040 C   0  0  0  0  0  0  0  0  0  0  0  0
   -2.1419   -1.7535    0.4349 C   0  0  0  0  0  0  0  0  0  0  0  0
   -1.0204   -0.8517    0.5698 C   0  0  0  0  0  0  0  0  0  0  0  0
    5.1041    2.7074    0.6998 H   0  0  0  0  0  0  0  0  0  0  0  0
   -1.3439    0.8658   -0.8284 H   0  0  0  0  0  0  0  0  0  0  0  0
   -2.3489   -0.4044   -1.2401 H   0  0  0  0  0  0  0  0  0  0  0  0
   -2.0740   -2.8734    0.5906 H   0  0  0  0  0  0  0  0  0  0  0  0
   -3.1129   -1.3974    0.8862 H   0  0  0  0  0  0  0  0  0  0  0  0
   -0.0695   -1.4382    0.7880 H   0  0  0  0  0  0  0  0  0  0  0  0
  1  2  3  0
  2  3  1  0
  3  4  3  0
  4  5  1  0
  5  6  1  0
  6  7  1  0
  7  8  1  0
  8  9  1  0
  9  5  1  0
  9  7  1  0
  1 10  1  0
  5 11  1  0
  7 12  1  0
  8 13  1  0
  8 14  1  0
  9 15  1  0
M  END
