
     RDKit          3D

 21 22  0  0  0  0  0  0  0  0999 V2000
    2.5911   -2.2573    0.0754 C   0  0  0  0  0  0  0  0  0  0  0  0
    1.9821   -1.2295   -0.0058 C   0  0  0  0  0  0  0  0  0  0  0  0
    1.2538    0.0304   -0.0970 C   0  0  0  0  0  0  0  0  0  0  0  0
    0.0364    0.0250   -0.9888 C   0  0  0  0  0  0  0  0  0  0  0  0
   -0.5070   -0.9393    0.0119 C   0  0  0  0  0  0  0  0  0  0  0  0
   -1.9362   -1.2023    0.0822 C   0  0  0  0  0  0  0  0  0  0  0  0
    0.0878    0.1688    0.8479 C   0  0  0  0  0  0  0  0  0  0  0  0
   -0.4947    1.1220   -0.1133 C   0  0  0  0  0  0  0  0  0  0  0  0
    0.0329    2.4762   -0.2805 C   0  0  0  0  0  0  0  0  0  0  0  0
    3.1237   -3.1908    0.1426 H   0  0  0  0  0  0  0  0  0  0  0  0
    1.9409    0.8552   -0.1856 H   0  0  0  0  0  0  0  0  0  0  0  0
    0.0223   -0.0298   -1.9863 H   0  0  0  0  0  0  0  0  0  0  0  0
    0.0716   -1.8865   -0.0197 H   0  0  0  0  0  0  0  0  0  0  0  0
   -2.1050   -2.1652    0.6310 H   0  0  0  0  0  0  0  0  0  0  0  0
   -2.5825   -0.4656    0.5718 H   0  0  0  0  0  0  0  0  0  0  0  0
   -2.3526   -1.3702   -0.9415 H   0  0  0  0  0  0  0  0  0  0  0  0
    0.1317    0.1965    1.8496 H   0  0  0  0  0  0  0  0  0  0  0  0
   -1.6189    1.1937   -0.1072 H   0  0  0  0  0  0  0  0  0  0  0  0
   -0.5759    3.1771    0.3572 H   0  0  0  0  0  0  0  0  0  0  0  0
    1.0630    2.6829   -0.0685 H   0  0  0  0  0  0  0  0  0  0  0  0
   -0.1642    2.8087   -1.3427 H   0  0  0  0  0  0  0  0  0  0  0  0
  1  2  3  0
  2  3  1  0
  3  4  1  0
  4  5  1  0
  5  6  1  0
  5  7  1  0
  7  8  1  0
  8  9  1  0
  7  3  1  0
  8  4  1  0
  1 10  1  0
  3 11  1  0
  4 12  1  0
  5 13  1  0
  6 14  1  0
  6 15  1  0
  6 16  1  0
  7 17  1  0
  8 18  1  0
  9 19  1  0
  9 20  1  0
  9 21  1  0
M  END
