
     RDKit          3D

 17 18  0  0  0  0  0  0  0  0999 V2000
    0.2458    2.4884   -1.1399 C   0  0  0  0  0  0  0  0  0  0  0  0
    0.3539    1.3925   -1.0328 C   0  0  0  0  0  0  0  0  0  0  0  0
    0.5223   -0.1048   -0.8966 C   0  0  0  0  0  0  0  0  0  0  0  0
   -0.4563   -0.7800   -1.8080 C   0  0  0  0  0  0  0  0  0  0  0  0
   -0.9227   -0.5543   -0.4345 C   0  0  0  0  0  0  0  0  0  0  0  0
   -0.6685   -1.5029    0.5462 O   0  0  0  0  0  0  0  0  0  0  0  0
    0.4800   -1.1167    1.1475 C   0  0  0  0  0  0  0  0  0  0  0  0
    0.2300   -0.1286    2.2659 C   0  0  0  0  0  0  0  0  0  0  0  0
    1.2270   -0.5002    0.1302 O   0  0  0  0  0  0  0  0  0  0  0  0
    0.1191    3.9318   -1.2777 H   0  0  0  0  0  0  0  0  0  0  0  0
   -0.2814   -1.8236   -2.1596 H   0  0  0  0  0  0  0  0  0  0  0  0
   -0.9833   -0.1862   -2.5854 H   0  0  0  0  0  0  0  0  0  0  0  0
   -1.5145    0.3531   -0.0736 H   0  0  0  0  0  0  0  0  0  0  0  0
    1.1136   -1.9218    1.5762 H   0  0  0  0  0  0  0  0  0  0  0  0
   -0.8310   -0.0457    2.6050 H   0  0  0  0  0  0  0  0  0  0  0  0
    0.4920    0.9384    1.9407 H   0  0  0  0  0  0  0  0  0  0  0  0
    0.8740   -0.4393    3.1615 H   0  0  0  0  0  0  0  0  0  0  0  0
  1  2  3  0
  2  3  1  0
  3  4  1  0
  4  5  1  0
  5  6  1  0
  6  7  1  0
  7  8  1  0
  7  9  1  0
  5  3  1  0
  9  3  1  0
  1 10  1  0
  4 11  1  0
  4 12  1  0
  5 13  1  0
  7 14  1  0
  8 15  1  0
  8 16  1  0
  8 17  1  0
M  END
