
     RDKit          3D

 17 18  0  0  0  0  0  0  0  0999 V2000
    2.7860    1.7377    0.3958 C   0  0  0  0  0  0  0  0  0  0  0  0
    2.1590    0.9120   -0.2208 C   0  0  0  0  0  0  0  0  0  0  0  0
    1.4198   -0.1013   -0.9760 C   0  0  0  0  0  0  0  0  0  0  0  0
    0.2599    0.4994   -1.4738 O   0  0  0  0  0  0  0  0  0  0  0  0
   -0.6160    0.5702   -0.3864 C   0  0  0  0  0  0  0  0  0  0  0  0
   -1.9438   -0.0883   -0.5857 C   0  0  0  0  0  0  0  0  0  0  0  0
   -1.3781   -1.3404    0.0383 C   0  0  0  0  0  0  0  0  0  0  0  0
   -0.1794   -0.5604    0.5172 C   0  0  0  0  0  0  0  0  0  0  0  0
    0.9838   -1.0535   -0.0554 O   0  0  0  0  0  0  0  0  0  0  0  0
    3.3391    2.4796    0.9519 H   0  0  0  0  0  0  0  0  0  0  0  0
    2.0188   -0.5510   -1.7935 H   0  0  0  0  0  0  0  0  0  0  0  0
   -0.6200    1.5213    0.1636 H   0  0  0  0  0  0  0  0  0  0  0  0
   -2.2336   -0.2163   -1.6621 H   0  0  0  0  0  0  0  0  0  0  0  0
   -2.7261    0.4052    0.0262 H   0  0  0  0  0  0  0  0  0  0  0  0
   -1.9507   -1.7483    0.8979 H   0  0  0  0  0  0  0  0  0  0  0  0
   -1.1798   -2.1397   -0.6932 H   0  0  0  0  0  0  0  0  0  0  0  0
   -0.1388   -0.3261    1.5857 H   0  0  0  0  0  0  0  0  0  0  0  0
  1  2  3  0
  2  3  1  0
  3  4  1  0
  4  5  1  0
  5  6  1  0
  6  7  1  0
  7  8  1  0
  8  9  1  0
  9  3  1  0
  8  5  1  0
  1 10  1  0
  3 11  1  0
  5 12  1  0
  6 13  1  0
  6 14  1  0
  7 15  1  0
  7 16  1  0
  8 17  1  0
M  END
