
     RDKit          3D

 17 18  0  0  0  0  0  0  0  0999 V2000
    3.0195   -0.1803   -0.8466 C   0  0  0  0  0  0  0  0  0  0  0  0
    2.1255   -0.1773   -0.2859 C   0  0  0  0  0  0  0  0  0  0  0  0
    0.7716   -0.1909    0.5389 C   0  0  0  0  0  0  0  0  0  0  0  0
   -0.2950    0.3891   -0.3723 C   0  0  0  0  0  0  0  0  0  0  0  0
   -1.1922    1.2322    0.5239 C   0  0  0  0  0  0  0  0  0  0  0  0
   -2.2429    1.8649   -0.0512 O   0  0  0  0  0  0  0  0  0  0  0  0
   -0.7945   -1.0088   -0.5570 C   0  0  0  0  0  0  0  0  0  0  0  0
   -1.1971   -1.6947    0.5523 O   0  0  0  0  0  0  0  0  0  0  0  0
    0.1875   -1.5822    0.4071 C   0  0  0  0  0  0  0  0  0  0  0  0
    4.0760   -0.1840   -1.5060 H   0  0  0  0  0  0  0  0  0  0  0  0
    0.8862    0.1492    1.5111 H   0  0  0  0  0  0  0  0  0  0  0  0
    0.0286    0.8652   -1.2824 H   0  0  0  0  0  0  0  0  0  0  0  0
   -0.5523    1.9621    1.0970 H   0  0  0  0  0  0  0  0  0  0  0  0
   -1.6281    0.4952    1.2954 H   0  0  0  0  0  0  0  0  0  0  0  0
   -3.0326    1.9168    0.5953 H   0  0  0  0  0  0  0  0  0  0  0  0
   -0.9522   -1.4171   -1.5823 H   0  0  0  0  0  0  0  0  0  0  0  0
    0.7920   -2.4395    0.2019 H   0  0  0  0  0  0  0  0  0  0  0  0
  1  2  3  0
  2  3  1  0
  3  4  1  0
  4  5  1  0
  5  6  1  0
  4  7  1  0
  7  8  1  0
  8  9  1  0
  9  3  1  0
  9  7  1  0
  1 10  1  0
  3 11  1  0
  4 12  1  0
  5 13  1  0
  5 14  1  0
  6 15  1  0
  7 16  1  0
  9 17  1  0
M  END
