
     RDKit          3D

 23 22  0  0  0  0  0  0  0  0999 V2000
    2.5376    1.5072    1.3863 C   0  0  0  0  0  0  0  0  0  0  0  0
    1.9734    0.5445    0.5442 C   0  0  0  0  0  0  0  0  0  0  0  0
    1.4605   -0.3301   -0.1934 C   0  0  0  0  0  0  0  0  0  0  0  0
    2.0803   -1.7392    0.0200 C   0  0  0  0  0  0  0  0  0  0  0  0
    1.6861   -0.0957   -1.6130 O   0  0  0  0  0  0  0  0  0  0  0  0
   -0.0930   -0.5129   -0.1084 C   0  0  0  0  0  0  0  0  0  0  0  0
   -0.7998    0.6759   -0.6868 C   0  0  0  0  0  0  0  0  0  0  0  0
   -2.3290    0.5300   -0.5963 C   0  0  0  0  0  0  0  0  0  0  0  0
   -2.8584    0.5384    0.7956 C   0  0  0  0  0  0  0  0  0  0  0  0
    2.9779    2.2819    2.0784 H   0  0  0  0  0  0  0  0  0  0  0  0
    3.0427   -1.8088   -0.5096 H   0  0  0  0  0  0  0  0  0  0  0  0
    2.3140   -1.8128    1.1334 H   0  0  0  0  0  0  0  0  0  0  0  0
    1.4125   -2.5261   -0.3464 H   0  0  0  0  0  0  0  0  0  0  0  0
    2.7011   -0.1195   -1.6765 H   0  0  0  0  0  0  0  0  0  0  0  0
   -0.3209   -0.4281    1.0309 H   0  0  0  0  0  0  0  0  0  0  0  0
   -0.4372   -1.4898   -0.3994 H   0  0  0  0  0  0  0  0  0  0  0  0
   -0.4957    1.6288   -0.2273 H   0  0  0  0  0  0  0  0  0  0  0  0
   -0.6019    0.6899   -1.7973 H   0  0  0  0  0  0  0  0  0  0  0  0
   -2.7562    1.3353   -1.1950 H   0  0  0  0  0  0  0  0  0  0  0  0
   -2.5467   -0.4595   -1.1600 H   0  0  0  0  0  0  0  0  0  0  0  0
   -3.8858    0.1040    0.8418 H   0  0  0  0  0  0  0  0  0  0  0  0
   -2.2164   -0.0870    1.5065 H   0  0  0  0  0  0  0  0  0  0  0  0
   -2.8452    1.5736    1.1724 H   0  0  0  0  0  0  0  0  0  0  0  0
  1  2  3  0
  2  3  1  0
  3  4  1  0
  3  5  1  0
  3  6  1  0
  6  7  1  0
  7  8  1  0
  8  9  1  0
  1 10  1  0
  4 11  1  0
  4 12  1  0
  4 13  1  0
  5 14  1  0
  6 15  1  0
  6 16  1  0
  7 17  1  0
  7 18  1  0
  8 19  1  0
  8 20  1  0
  9 21  1  0
  9 22  1  0
  9 23  1  0
M  END
