
     RDKit          3D

 16 16  0  0  0  0  0  0  0  0999 V2000
    1.4432   -2.1224    1.5125 C   0  0  0  0  0  0  0  0  0  0  0  0
    0.6667   -1.5153    0.6554 C   0  0  0  0  0  0  0  0  0  0  0  0
   -0.2378   -0.8189   -0.3098 C   0  0  0  0  0  0  0  0  0  0  0  0
    0.9790    0.1404   -1.0063 C   0  0  0  0  0  0  0  0  0  0  0  0
    0.4983    1.0504    0.1007 C   0  0  0  0  0  0  0  0  0  0  0  0
   -0.8640    0.4067   -0.2480 C   0  0  0  0  0  0  0  0  0  0  0  0
   -2.0105    0.8767    0.4856 C   0  0  0  0  0  0  0  0  0  0  0  0
   -2.6227    1.8376   -0.1601 O   0  0  0  0  0  0  0  0  0  0  0  0
    1.9973   -2.5472    2.1146 H   0  0  0  0  0  0  0  0  0  0  0  0
   -0.3735   -1.5272   -1.2156 H   0  0  0  0  0  0  0  0  0  0  0  0
    1.8870   -0.3841   -0.7943 H   0  0  0  0  0  0  0  0  0  0  0  0
    0.6584    0.3109   -2.0067 H   0  0  0  0  0  0  0  0  0  0  0  0
    0.8192    0.7175    1.0711 H   0  0  0  0  0  0  0  0  0  0  0  0
    0.5363    2.1301   -0.1406 H   0  0  0  0  0  0  0  0  0  0  0  0
   -0.9440    0.8153   -1.4120 H   0  0  0  0  0  0  0  0  0  0  0  0
   -2.4332    0.6295    1.3536 H   0  0  0  0  0  0  0  0  0  0  0  0
  1  2  3  0
  2  3  1  0
  3  4  1  0
  4  5  1  0
  5  6  1  0
  6  7  1  0
  7  8  2  0
  6  3  1  0
  1  9  1  0
  3 10  1  0
  4 11  1  0
  4 12  1  0
  5 13  1  0
  5 14  1  0
  6 15  1  0
  7 16  1  0
M  END
