
     RDKit          3D

 15 15  0  0  0  0  0  0  0  0999 V2000
    3.2002   -0.8632    1.0746 C   0  0  0  0  0  0  0  0  0  0  0  0
    2.0215   -0.5310    0.7706 C   0  0  0  0  0  0  0  0  0  0  0  0
    0.7097   -0.1858    0.4401 C   0  0  0  0  0  0  0  0  0  0  0  0
    0.2523    1.0584    0.7068 C   0  0  0  0  0  0  0  0  0  0  0  0
   -1.1346    1.2887    0.3088 C   0  0  0  0  0  0  0  0  0  0  0  0
   -1.7717    2.1833    0.8962 O   0  0  0  0  0  0  0  0  0  0  0  0
   -1.7810    0.4999   -0.7481 C   0  0  0  0  0  0  0  0  0  0  0  0
   -0.9627   -0.5293   -1.2162 O   0  0  0  0  0  0  0  0  0  0  0  0
   -0.2572   -1.1392   -0.1939 C   0  0  0  0  0  0  0  0  0  0  0  0
    4.1833   -1.1559    1.3240 H   0  0  0  0  0  0  0  0  0  0  0  0
    0.9025    1.7460    1.1681 H   0  0  0  0  0  0  0  0  0  0  0  0
   -2.7415    0.0155   -0.3896 H   0  0  0  0  0  0  0  0  0  0  0  0
   -2.0655    1.1648   -1.5760 H   0  0  0  0  0  0  0  0  0  0  0  0
   -0.8989   -1.6057    0.5735 H   0  0  0  0  0  0  0  0  0  0  0  0
    0.3434   -1.9465   -0.6371 H   0  0  0  0  0  0  0  0  0  0  0  0
  1  2  3  0
  2  3  1  0
  3  4  2  0
  4  5  1  0
  5  6  2  0
  5  7  1  0
  7  8  1  0
  8  9  1  0
  9  3  1  0
  1 10  1  0
  4 11  1  0
  7 12  1  0
  7 13  1  0
  9 14  1  0
  9 15  1  0
M  END
