
     RDKit          3D

 17 16  0  0  0  0  0  0  0  0999 V2000
    4.3839    0.7036    0.9146 C   0  0  0  0  0  0  0  0  0  0  0  0
    4.0396    0.7145    0.7154 C   0  0  0  0  0  0  0  0  0  0  0  0
    2.2068    0.7805   -0.3052 C   0  0  0  0  0  0  0  0  0  0  0  0
    1.3588    0.8156   -0.7577 C   0  0  0  0  0  0  0  0  0  0  0  0
    0.5262    0.8390   -1.2121 C   0  0  0  0  0  0  0  0  0  0  0  0
   -0.9441    0.1700   -1.0437 C   0  0  0  0  0  0  0  0  0  0  0  0
   -1.8112    0.7093   -1.7996 O   0  0  0  0  0  0  0  0  0  0  0  0
   -1.3669   -0.9078   -0.1684 C   0  0  0  0  0  0  0  0  0  0  0  0
   -2.8102   -1.2405   -0.0145 C   0  0  0  0  0  0  0  0  0  0  0  0
    5.9950    0.6649    1.8845 H   0  0  0  0  0  0  0  0  0  0  0  0
   -0.1297    2.1280   -1.0687 H   0  0  0  0  0  0  0  0  0  0  0  0
   -0.1728    1.2970    0.3397 H   0  0  0  0  0  0  0  0  0  0  0  0
   -0.7934   -1.8842   -0.3844 H   0  0  0  0  0  0  0  0  0  0  0  0
   -0.9478   -0.6764    0.9277 H   0  0  0  0  0  0  0  0  0  0  0  0
   -3.0203   -2.3021   -0.3608 H   0  0  0  0  0  0  0  0  0  0  0  0
   -2.9217   -1.2483    1.1501 H   0  0  0  0  0  0  0  0  0  0  0  0
   -3.5922   -0.5629   -0.3326 H   0  0  0  0  0  0  0  0  0  0  0  0
  1  2  3  0
  2  3  1  0
  3  4  3  0
  4  5  1  0
  5  6  1  0
  6  7  2  0
  6  8  1  0
  8  9  1  0
  1 10  1  0
  5 11  1  0
  5 12  1  0
  8 13  1  0
  8 14  1  0
  9 15  1  0
  9 16  1  0
  9 17  1  0
M  END
