
     RDKit          3D

 19 21  0  0  0  0  0  0  0  0999 V2000
    1.4175   -2.7261   -0.8227 C   0  0  0  0  0  0  0  0  0  0  0  0
    0.8253   -1.8408   -0.5095 C   0  0  0  0  0  0  0  0  0  0  0  0
    0.0802   -0.7135   -0.1366 C   0  0  0  0  0  0  0  0  0  0  0  0
    0.1524    0.0222    1.1245 C   0  0  0  0  0  0  0  0  0  0  0  0
    0.5383    1.4382    0.7186 C   0  0  0  0  0  0  0  0  0  0  0  0
    0.3865    1.5093   -0.7627 C   0  0  0  0  0  0  0  0  0  0  0  0
   -0.3413    0.2796   -1.1856 C   0  0  0  0  0  0  0  0  0  0  0  0
   -1.3137   -0.4336   -0.3209 C   0  0  0  0  0  0  0  0  0  0  0  0
   -1.3915   -0.0368    1.1578 C   0  0  0  0  0  0  0  0  0  0  0  0
    2.0426   -3.6884   -1.1458 H   0  0  0  0  0  0  0  0  0  0  0  0
    0.6503   -0.3960    1.9846 H   0  0  0  0  0  0  0  0  0  0  0  0
   -0.0033    2.2180    1.2461 H   0  0  0  0  0  0  0  0  0  0  0  0
    1.6144    1.5642    1.0250 H   0  0  0  0  0  0  0  0  0  0  0  0
   -0.0475    2.4476   -1.1572 H   0  0  0  0  0  0  0  0  0  0  0  0
    1.4200    1.4462   -1.2338 H   0  0  0  0  0  0  0  0  0  0  0  0
   -0.3089   -0.0508   -2.2474 H   0  0  0  0  0  0  0  0  0  0  0  0
   -2.0681   -1.0497   -0.7957 H   0  0  0  0  0  0  0  0  0  0  0  0
   -1.7477   -0.9010    1.7657 H   0  0  0  0  0  0  0  0  0  0  0  0
   -1.9054    0.9114    1.2956 H   0  0  0  0  0  0  0  0  0  0  0  0
  1  2  3  0
  2  3  1  0
  3  4  1  0
  4  5  1  0
  5  6  1  0
  6  7  1  0
  7  8  1  0
  8  9  1  0
  7  3  1  0
  8  3  1  0
  9  4  1  0
  1 10  1  0
  4 11  1  0
  5 12  1  0
  5 13  1  0
  6 14  1  0
  6 15  1  0
  7 16  1  0
  8 17  1  0
  9 18  1  0
  9 19  1  0
M  END
