
     RDKit          3D

 16 15  0  0  0  0  0  0  0  0999 V2000
    2.8551   -1.1666    0.6974 C   0  0  0  0  0  0  0  0  0  0  0  0
    1.9842   -0.7299    0.0669 C   0  0  0  0  0  0  0  0  0  0  0  0
    0.8599   -0.1395   -0.7410 C   0  0  0  0  0  0  0  0  0  0  0  0
    1.0700    0.0795   -1.9358 O   0  0  0  0  0  0  0  0  0  0  0  0
   -0.3958    0.1229   -0.0220 C   0  0  0  0  0  0  0  0  0  0  0  0
   -0.7069    1.6279   -0.0023 C   0  0  0  0  0  0  0  0  0  0  0  0
   -1.5902   -0.5865   -0.6257 C   0  0  0  0  0  0  0  0  0  0  0  0
   -0.2531   -0.3122    1.3254 O   0  0  0  0  0  0  0  0  0  0  0  0
    3.6803   -1.5616    1.2812 H   0  0  0  0  0  0  0  0  0  0  0  0
   -1.3082    1.8620    0.9158 H   0  0  0  0  0  0  0  0  0  0  0  0
    0.2706    2.1524    0.0084 H   0  0  0  0  0  0  0  0  0  0  0  0
   -1.2469    1.9715   -0.8896 H   0  0  0  0  0  0  0  0  0  0  0  0
   -1.2003   -1.3753   -1.3100 H   0  0  0  0  0  0  0  0  0  0  0  0
   -2.2376    0.0815   -1.2212 H   0  0  0  0  0  0  0  0  0  0  0  0
   -2.2082   -0.9992    0.2100 H   0  0  0  0  0  0  0  0  0  0  0  0
    0.4273   -1.0269    1.3076 H   0  0  0  0  0  0  0  0  0  0  0  0
  1  2  3  0
  2  3  1  0
  3  4  2  0
  3  5  1  0
  5  6  1  0
  5  7  1  0
  5  8  1  0
  1  9  1  0
  6 10  1  0
  6 11  1  0
  6 12  1  0
  7 13  1  0
  7 14  1  0
  7 15  1  0
  8 16  1  0
M  END
