
     RDKit          3D

 20 20  0  0  0  0  0  0  0  0999 V2000
    3.2767    0.8358    0.3075 C   0  0  0  0  0  0  0  0  0  0  0  0
    2.4076    0.1683    0.8294 C   0  0  0  0  0  0  0  0  0  0  0  0
    1.3515   -0.6567    1.4456 C   0  0  0  0  0  0  0  0  0  0  0  0
    0.0402    0.0660    1.2284 C   0  0  0  0  0  0  0  0  0  0  0  0
   -0.2302    0.2411   -0.2492 C   0  0  0  0  0  0  0  0  0  0  0  0
   -1.5298    0.9583   -0.5110 C   0  0  0  0  0  0  0  0  0  0  0  0
   -1.8680   -0.1275   -1.5110 C   0  0  0  0  0  0  0  0  0  0  0  0
   -0.7703   -1.0011   -0.9417 C   0  0  0  0  0  0  0  0  0  0  0  0
    4.0262    1.4324   -0.1581 H   0  0  0  0  0  0  0  0  0  0  0  0
    1.5859   -0.7528    2.5172 H   0  0  0  0  0  0  0  0  0  0  0  0
    1.2729   -1.6410    0.9245 H   0  0  0  0  0  0  0  0  0  0  0  0
   -0.7545   -0.5565    1.6952 H   0  0  0  0  0  0  0  0  0  0  0  0
    0.0440    1.0627    1.7182 H   0  0  0  0  0  0  0  0  0  0  0  0
    0.6506    0.6749   -0.7713 H   0  0  0  0  0  0  0  0  0  0  0  0
   -1.4337    1.9728   -0.9543 H   0  0  0  0  0  0  0  0  0  0  0  0
   -2.2418    0.9580    0.3427 H   0  0  0  0  0  0  0  0  0  0  0  0
   -1.6609    0.2491   -2.5343 H   0  0  0  0  0  0  0  0  0  0  0  0
   -2.8951   -0.5230   -1.3845 H   0  0  0  0  0  0  0  0  0  0  0  0
   -0.1092   -1.3820   -1.7315 H   0  0  0  0  0  0  0  0  0  0  0  0
   -1.1621   -1.7810   -0.2617 H   0  0  0  0  0  0  0  0  0  0  0  0
  1  2  3  0
  2  3  1  0
  3  4  1  0
  4  5  1  0
  5  6  1  0
  6  7  1  0
  7  8  1  0
  8  5  1  0
  1  9  1  0
  3 10  1  0
  3 11  1  0
  4 12  1  0
  4 13  1  0
  5 14  1  0
  6 15  1  0
  6 16  1  0
  7 17  1  0
  7 18  1  0
  8 19  1  0
  8 20  1  0
M  END
