
     RDKit          3D

 11 11  0  0  0  0  0  0  0  0999 V2000
    2.4901    0.8608    0.4518 C   0  0  0  0  0  0  0  0  0  0  0  0
    1.0799    0.3492    0.2657 C   0  0  0  0  0  0  0  0  0  0  0  0
   -0.2837   -0.1409    0.1102 C   0  0  0  0  0  0  0  0  0  0  0  0
   -0.3691   -1.6346    0.2118 C   0  0  0  0  0  0  0  0  0  0  0  0
   -1.4935   -2.1486    0.1811 O   0  0  0  0  0  0  0  0  0  0  0  0
   -1.2984    0.8351   -0.0530 C   0  0  0  0  0  0  0  0  0  0  0  0
   -0.6346    0.3108   -1.2979 O   0  0  0  0  0  0  0  0  0  0  0  0
    3.3611    1.1603    0.5690 H   0  0  0  0  0  0  0  0  0  0  0  0
    0.4734   -2.2778    0.2817 H   0  0  0  0  0  0  0  0  0  0  0  0
   -0.9598    1.9072    0.0656 H   0  0  0  0  0  0  0  0  0  0  0  0
   -2.3653    0.7786   -0.3434 H   0  0  0  0  0  0  0  0  0  0  0  0
  1  2  3  0
  2  3  1  0
  3  4  1  0
  4  5  2  0
  3  6  1  0
  6  7  1  0
  7  3  1  0
  1  8  1  0
  4  9  1  0
  6 10  1  0
  6 11  1  0
M  END
