
     RDKit          3D

 12 13  0  0  0  0  0  0  0  0999 V2000
    2.6537   -0.0893   -0.5130 C   0  0  0  0  0  0  0  0  0  0  0  0
    1.5430   -0.1451   -0.0422 C   0  0  0  0  0  0  0  0  0  0  0  0
    0.1903   -0.2275    0.5548 C   0  0  0  0  0  0  0  0  0  0  0  0
   -0.5826    1.0168    0.7511 C   0  0  0  0  0  0  0  0  0  0  0  0
   -0.9687    0.2003   -0.3995 C   0  0  0  0  0  0  0  0  0  0  0  0
   -1.5549   -1.1450   -0.1811 C   0  0  0  0  0  0  0  0  0  0  0  0
   -2.6526   -1.6432   -0.5149 O   0  0  0  0  0  0  0  0  0  0  0  0
   -0.3891   -1.4853    0.4931 O   0  0  0  0  0  0  0  0  0  0  0  0
    3.6369   -0.0238   -0.9201 H   0  0  0  0  0  0  0  0  0  0  0  0
   -1.1822    1.0819    1.6712 H   0  0  0  0  0  0  0  0  0  0  0  0
   -0.0116    1.9539    0.5109 H   0  0  0  0  0  0  0  0  0  0  0  0
   -0.6822    0.5063   -1.4103 H   0  0  0  0  0  0  0  0  0  0  0  0
  1  2  3  0
  2  3  1  0
  3  4  1  0
  4  5  1  0
  5  6  1  0
  6  7  2  0
  6  8  1  0
  5  3  1  0
  8  3  1  0
  1  9  1  0
  4 10  1  0
  4 11  1  0
  5 12  1  0
M  END
