
     RDKit          3D

 25 24  0  0  0  0  0  0  0  0999 V2000
    3.1804   -1.7000   -1.2141 C   0  0  0  0  0  0  0  0  0  0  0  0
    2.3046   -1.8355   -0.3224 C   0  0  0  0  0  0  0  0  0  0  0  0
    1.2813   -2.0061    0.6898 C   0  0  0  0  0  0  0  0  0  0  0  0
    0.8792   -0.6552    1.2790 C   0  0  0  0  0  0  0  0  0  0  0  0
    0.3399    0.2971    0.2198 C   0  0  0  0  0  0  0  0  0  0  0  0
    0.0125    1.5771    0.9621 C   0  0  0  0  0  0  0  0  0  0  0  0
   -0.8437   -0.3751   -0.3923 C   0  0  0  0  0  0  0  0  0  0  0  0
   -1.5602    0.3560   -1.4698 C   0  0  0  0  0  0  0  0  0  0  0  0
   -2.1664    1.6607   -1.1113 C   0  0  0  0  0  0  0  0  0  0  0  0
    3.9232   -1.5811   -1.9471 H   0  0  0  0  0  0  0  0  0  0  0  0
    0.4548   -2.6071    0.3325 H   0  0  0  0  0  0  0  0  0  0  0  0
    1.8051   -2.5391    1.5542 H   0  0  0  0  0  0  0  0  0  0  0  0
    1.7998   -0.2207    1.7058 H   0  0  0  0  0  0  0  0  0  0  0  0
    0.1066   -0.7827    2.0549 H   0  0  0  0  0  0  0  0  0  0  0  0
    1.0877    0.5148   -0.5551 H   0  0  0  0  0  0  0  0  0  0  0  0
   -0.8175    1.4345    1.6772 H   0  0  0  0  0  0  0  0  0  0  0  0
   -0.1314    2.4082    0.2446 H   0  0  0  0  0  0  0  0  0  0  0  0
    0.8936    1.8516    1.6192 H   0  0  0  0  0  0  0  0  0  0  0  0
   -1.5874   -0.6829    0.3869 H   0  0  0  0  0  0  0  0  0  0  0  0
   -0.4485   -1.3329   -0.8532 H   0  0  0  0  0  0  0  0  0  0  0  0
   -0.9059    0.5104   -2.3639 H   0  0  0  0  0  0  0  0  0  0  0  0
   -2.4044   -0.3443   -1.7894 H   0  0  0  0  0  0  0  0  0  0  0  0
   -1.6280    2.5188   -1.5909 H   0  0  0  0  0  0  0  0  0  0  0  0
   -3.1852    1.7076   -1.6280 H   0  0  0  0  0  0  0  0  0  0  0  0
   -2.3901    1.8259   -0.0523 H   0  0  0  0  0  0  0  0  0  0  0  0
  1  2  3  0
  2  3  1  0
  3  4  1  0
  4  5  1  0
  5  6  1  0
  5  7  1  0
  7  8  1  0
  8  9  1  0
  1 10  1  0
  3 11  1  0
  3 12  1  0
  4 13  1  0
  4 14  1  0
  5 15  1  0
  6 16  1  0
  6 17  1  0
  6 18  1  0
  7 19  1  0
  7 20  1  0
  8 21  1  0
  8 22  1  0
  9 23  1  0
  9 24  1  0
  9 25  1  0
M  END
