
     RDKit          3D

 23 23  0  0  0  0  0  0  0  0999 V2000
   -0.4073    1.6842    2.4260 C   0  0  0  0  0  0  0  0  0  0  0  0
    0.0863    0.8145    1.6813 C   0  0  0  0  0  0  0  0  0  0  0  0
    0.6563   -0.2372    0.8041 C   0  0  0  0  0  0  0  0  0  0  0  0
    1.8555    0.4009    0.1406 C   0  0  0  0  0  0  0  0  0  0  0  0
    2.5729   -0.5189   -0.7986 C   0  0  0  0  0  0  0  0  0  0  0  0
   -0.3534   -0.5398   -0.2807 C   0  0  0  0  0  0  0  0  0  0  0  0
   -1.7010   -1.0225    0.2790 C   0  0  0  0  0  0  0  0  0  0  0  0
   -2.3384   -0.2683   -0.8974 C   0  0  0  0  0  0  0  0  0  0  0  0
   -1.0881    0.6252   -0.8716 C   0  0  0  0  0  0  0  0  0  0  0  0
   -0.8194    2.4165    3.0301 H   0  0  0  0  0  0  0  0  0  0  0  0
    0.8900   -1.1198    1.4001 H   0  0  0  0  0  0  0  0  0  0  0  0
    1.4189    1.2512   -0.4671 H   0  0  0  0  0  0  0  0  0  0  0  0
    2.5148    0.8968    0.8838 H   0  0  0  0  0  0  0  0  0  0  0  0
    2.8876   -1.4579   -0.3047 H   0  0  0  0  0  0  0  0  0  0  0  0
    1.8764   -0.7809   -1.6058 H   0  0  0  0  0  0  0  0  0  0  0  0
    3.5214   -0.0729   -1.1807 H   0  0  0  0  0  0  0  0  0  0  0  0
   -0.0170   -1.2120   -1.0794 H   0  0  0  0  0  0  0  0  0  0  0  0
   -2.0070   -0.5726    1.2232 H   0  0  0  0  0  0  0  0  0  0  0  0
   -1.8790   -2.1075    0.1601 H   0  0  0  0  0  0  0  0  0  0  0  0
   -3.2782    0.2608   -0.6594 H   0  0  0  0  0  0  0  0  0  0  0  0
   -2.4020   -0.8779   -1.8150 H   0  0  0  0  0  0  0  0  0  0  0  0
   -1.2130    1.5013   -0.1746 H   0  0  0  0  0  0  0  0  0  0  0  0
   -0.7763    0.9367   -1.8932 H   0  0  0  0  0  0  0  0  0  0  0  0
  1  2  3  0
  2  3  1  0
  3  4  1  0
  4  5  1  0
  3  6  1  0
  6  7  1  0
  7  8  1  0
  8  9  1  0
  9  6  1  0
  1 10  1  0
  3 11  1  0
  4 12  1  0
  4 13  1  0
  5 14  1  0
  5 15  1  0
  5 16  1  0
  6 17  1  0
  7 18  1  0
  7 19  1  0
  8 20  1  0
  8 21  1  0
  9 22  1  0
  9 23  1  0
M  END
