
     RDKit          3D

 19 19  0  0  0  0  0  0  0  0999 V2000
    1.5201   -2.3882    1.8988 C   0  0  0  0  0  0  0  0  0  0  0  0
    1.2128   -1.7059    1.1877 C   0  0  0  0  0  0  0  0  0  0  0  0
    0.6936   -0.5436   -0.0494 C   0  0  0  0  0  0  0  0  0  0  0  0
    1.4330    0.4326   -0.0563 C   0  0  0  0  0  0  0  0  0  0  0  0
    0.9176    1.5661   -1.1255 C   0  0  0  0  0  0  0  0  0  0  0  0
   -0.4267    1.8060   -0.5144 C   0  0  0  0  0  0  0  0  0  0  0  0
   -1.3512    1.1122   -0.0648 C   0  0  0  0  0  0  0  0  0  0  0  0
   -1.6953   -0.3504    0.1216 C   0  0  0  0  0  0  0  0  0  0  0  0
   -0.5354   -1.1528   -0.5639 C   0  0  0  0  0  0  0  0  0  0  0  0
    1.8202   -3.0684    2.5934 H   0  0  0  0  0  0  0  0  0  0  0  0
    2.2867    0.6381    0.3940 H   0  0  0  0  0  0  0  0  0  0  0  0
    1.0331    1.1121   -2.0245 H   0  0  0  0  0  0  0  0  0  0  0  0
    1.5514    2.3774   -0.7660 H   0  0  0  0  0  0  0  0  0  0  0  0
   -0.6347    2.9382   -0.4296 H   0  0  0  0  0  0  0  0  0  0  0  0
   -2.2025    1.7013    0.4483 H   0  0  0  0  0  0  0  0  0  0  0  0
   -2.6153   -0.6894   -0.3048 H   0  0  0  0  0  0  0  0  0  0  0  0
   -1.6305   -0.6004    1.1911 H   0  0  0  0  0  0  0  0  0  0  0  0
   -0.6415   -2.1841   -0.2841 H   0  0  0  0  0  0  0  0  0  0  0  0
   -0.7354   -1.0008   -1.6516 H   0  0  0  0  0  0  0  0  0  0  0  0
  1  2  3  0
  2  3  1  0
  3  4  2  0
  4  5  1  0
  5  6  1  0
  6  7  2  0
  7  8  1  0
  8  9  1  0
  9  3  1  0
  1 10  1  0
  4 11  1  0
  5 12  1  0
  5 13  1  0
  6 14  1  0
  7 15  1  0
  8 16  1  0
  8 17  1  0
  9 18  1  0
  9 19  1  0
M  END
