
     RDKit          3D

 17 17  0  0  0  0  0  0  0  0999 V2000
   -2.1128    2.2949    0.2381 C   0  0  0  0  0  0  0  0  0  0  0  0
   -1.5225    1.2468    0.1193 C   0  0  0  0  0  0  0  0  0  0  0  0
   -0.8197   -0.0064   -0.0473 C   0  0  0  0  0  0  0  0  0  0  0  0
    0.6425    0.0865    0.0390 C   0  0  0  0  0  0  0  0  0  0  0  0
    1.8468    0.1426    0.1046 C   0  0  0  0  0  0  0  0  0  0  0  0
    3.3194    0.2243    0.2054 C   0  0  0  0  0  0  0  0  0  0  0  0
   -1.3037   -0.8131   -1.2150 C   0  0  0  0  0  0  0  0  0  0  0  0
   -2.1371   -1.5090   -0.3477 O   0  0  0  0  0  0  0  0  0  0  0  0
   -1.3164   -1.1669    0.7363 C   0  0  0  0  0  0  0  0  0  0  0  0
   -2.6091    3.2132    0.3424 H   0  0  0  0  0  0  0  0  0  0  0  0
    3.7178   -0.6659   -0.3046 H   0  0  0  0  0  0  0  0  0  0  0  0
    3.5888    0.3095    1.2602 H   0  0  0  0  0  0  0  0  0  0  0  0
    3.6658    1.1136   -0.3826 H   0  0  0  0  0  0  0  0  0  0  0  0
   -1.8347   -0.2134   -1.9762 H   0  0  0  0  0  0  0  0  0  0  0  0
   -0.5493   -1.4777   -1.6780 H   0  0  0  0  0  0  0  0  0  0  0  0
   -1.9858   -0.8414    1.5773 H   0  0  0  0  0  0  0  0  0  0  0  0
   -0.5899   -1.9376    1.0180 H   0  0  0  0  0  0  0  0  0  0  0  0
  1  2  3  0
  2  3  1  0
  3  4  1  0
  4  5  3  0
  5  6  1  0
  3  7  1  0
  7  8  1  0
  8  9  1  0
  9  3  1  0
  1 10  1  0
  6 11  1  0
  6 12  1  0
  6 13  1  0
  7 14  1  0
  7 15  1  0
  9 16  1  0
  9 17  1  0
M  END
