
     RDKit          3D

 19 20  0  0  0  0  0  0  0  0999 V2000
   -1.0906    2.3257   -1.1114 C   0  0  0  0  0  0  0  0  0  0  0  0
   -0.5789    1.4204   -0.5066 C   0  0  0  0  0  0  0  0  0  0  0  0
    0.0679    0.3278    0.2288 C   0  0  0  0  0  0  0  0  0  0  0  0
    1.4611    0.5881    0.7814 C   0  0  0  0  0  0  0  0  0  0  0  0
    2.2803   -0.3233   -0.1393 C   0  0  0  0  0  0  0  0  0  0  0  0
    1.4963   -1.4758   -0.1531 O   0  0  0  0  0  0  0  0  0  0  0  0
    0.2379   -0.9512   -0.4879 C   0  0  0  0  0  0  0  0  0  0  0  0
   -0.7072   -0.8535    0.6585 C   0  0  0  0  0  0  0  0  0  0  0  0
   -2.1722   -0.8342    0.2737 C   0  0  0  0  0  0  0  0  0  0  0  0
   -1.5298    3.1342   -1.6428 H   0  0  0  0  0  0  0  0  0  0  0  0
    1.5070    0.2732    1.8199 H   0  0  0  0  0  0  0  0  0  0  0  0
    1.7109    1.6543    0.6120 H   0  0  0  0  0  0  0  0  0  0  0  0
    3.2901   -0.5006    0.2573 H   0  0  0  0  0  0  0  0  0  0  0  0
    2.2651    0.0975   -1.1523 H   0  0  0  0  0  0  0  0  0  0  0  0
   -0.1095   -1.1358   -1.5017 H   0  0  0  0  0  0  0  0  0  0  0  0
   -0.4499   -1.3368    1.6308 H   0  0  0  0  0  0  0  0  0  0  0  0
   -2.8266   -0.9737    1.1535 H   0  0  0  0  0  0  0  0  0  0  0  0
   -2.3937   -1.5883   -0.5250 H   0  0  0  0  0  0  0  0  0  0  0  0
   -2.4584    0.1519   -0.1958 H   0  0  0  0  0  0  0  0  0  0  0  0
  1  2  3  0
  2  3  1  0
  3  4  1  0
  4  5  1  0
  5  6  1  0
  6  7  1  0
  7  8  1  0
  8  9  1  0
  7  3  1  0
  8  3  1  0
  1 10  1  0
  4 11  1  0
  4 12  1  0
  5 13  1  0
  5 14  1  0
  7 15  1  0
  8 16  1  0
  9 17  1  0
  9 18  1  0
  9 19  1  0
M  END
