
     RDKit          3D

 19 19  0  0  0  0  0  0  0  0999 V2000
    2.9198    1.5197   -0.1419 C   0  0  0  0  0  0  0  0  0  0  0  0
    1.3693    1.2805   -0.6235 C   0  0  0  0  0  0  0  0  0  0  0  0
    0.3748    1.1387   -0.9381 C   0  0  0  0  0  0  0  0  0  0  0  0
   -0.0663    0.7951    0.8320 C   0  0  0  0  0  0  0  0  0  0  0  0
    0.6248   -0.5885    0.7856 C   0  0  0  0  0  0  0  0  0  0  0  0
   -0.6122   -1.4716    1.0725 C   0  0  0  0  0  0  0  0  0  0  0  0
   -1.5631   -1.3859    0.1097 C   0  0  0  0  0  0  0  0  0  0  0  0
   -1.3848   -0.5072   -1.1351 C   0  0  0  0  0  0  0  0  0  0  0  0
   -0.0733   -0.1695   -1.3602 O   0  0  0  0  0  0  0  0  0  0  0  0
    4.1363    1.7101    0.2492 H   0  0  0  0  0  0  0  0  0  0  0  0
   -0.5218    1.7608   -0.9787 H   0  0  0  0  0  0  0  0  0  0  0  0
   -1.0821    0.8690    0.6784 H   0  0  0  0  0  0  0  0  0  0  0  0
    0.5174    1.5637    1.1583 H   0  0  0  0  0  0  0  0  0  0  0  0
    1.3981   -0.7543    1.3992 H   0  0  0  0  0  0  0  0  0  0  0  0
    0.9137   -0.9195   -0.2666 H   0  0  0  0  0  0  0  0  0  0  0  0
   -0.6329   -2.0234    1.9027 H   0  0  0  0  0  0  0  0  0  0  0  0
   -2.4420   -1.9563    0.2875 H   0  0  0  0  0  0  0  0  0  0  0  0
   -2.1146    0.2821   -1.0228 H   0  0  0  0  0  0  0  0  0  0  0  0
   -1.7612   -1.1434   -2.0081 H   0  0  0  0  0  0  0  0  0  0  0  0
  1  2  3  0
  2  3  1  0
  3  4  1  0
  4  5  1  0
  5  6  1  0
  6  7  2  0
  7  8  1  0
  8  9  1  0
  9  3  1  0
  1 10  1  0
  3 11  1  0
  4 12  1  0
  4 13  1  0
  5 14  1  0
  5 15  1  0
  6 16  1  0
  7 17  1  0
  8 18  1  0
  8 19  1  0
M  END
