
     RDKit          3D

 19 18  0  0  0  0  0  0  0  0999 V2000
    2.8652   -1.0017    1.2195 C   0  0  0  0  0  0  0  0  0  0  0  0
    2.3660   -0.1764    0.4906 C   0  0  0  0  0  0  0  0  0  0  0  0
    1.7721    0.8216   -0.4174 C   0  0  0  0  0  0  0  0  0  0  0  0
    2.1332    2.1105   -0.0532 O   0  0  0  0  0  0  0  0  0  0  0  0
    0.2970    0.7094   -0.3647 C   0  0  0  0  0  0  0  0  0  0  0  0
   -0.3499    1.6771   -0.0378 O   0  0  0  0  0  0  0  0  0  0  0  0
   -0.2978   -0.6026   -0.7217 C   0  0  0  0  0  0  0  0  0  0  0  0
   -1.8044   -0.5955   -0.6316 C   0  0  0  0  0  0  0  0  0  0  0  0
   -2.2896   -0.2691    0.7585 C   0  0  0  0  0  0  0  0  0  0  0  0
    3.2988   -1.7278    1.8813 H   0  0  0  0  0  0  0  0  0  0  0  0
    2.1810    0.6131   -1.4326 H   0  0  0  0  0  0  0  0  0  0  0  0
    1.3307    2.6755    0.1169 H   0  0  0  0  0  0  0  0  0  0  0  0
   -0.0384   -0.8065   -1.7855 H   0  0  0  0  0  0  0  0  0  0  0  0
    0.1476   -1.4286   -0.1318 H   0  0  0  0  0  0  0  0  0  0  0  0
   -2.1467   -1.6216   -0.8636 H   0  0  0  0  0  0  0  0  0  0  0  0
   -2.2103    0.0848   -1.3882 H   0  0  0  0  0  0  0  0  0  0  0  0
   -3.0266    0.5556    0.6737 H   0  0  0  0  0  0  0  0  0  0  0  0
   -2.7477   -1.1240    1.2731 H   0  0  0  0  0  0  0  0  0  0  0  0
   -1.4803    0.1064    1.4144 H   0  0  0  0  0  0  0  0  0  0  0  0
  1  2  3  0
  2  3  1  0
  3  4  1  0
  3  5  1  0
  5  6  2  0
  5  7  1  0
  7  8  1  0
  8  9  1  0
  1 10  1  0
  3 11  1  0
  4 12  1  0
  7 13  1  0
  7 14  1  0
  8 15  1  0
  8 16  1  0
  9 17  1  0
  9 18  1  0
  9 19  1  0
M  END
