
     RDKit          3D

 21 21  0  0  0  0  0  0  0  0999 V2000
    3.9481    1.4197    1.5196 C   0  0  0  0  0  0  0  0  0  0  0  0
    3.0763    0.7927    0.9625 C   0  0  0  0  0  0  0  0  0  0  0  0
    2.0201    0.0546    0.2741 C   0  0  0  0  0  0  0  0  0  0  0  0
    0.7877    0.2105    0.8736 O   0  0  0  0  0  0  0  0  0  0  0  0
   -0.2414   -0.4521    0.2796 C   0  0  0  0  0  0  0  0  0  0  0  0
   -0.8972   -1.4934    1.1271 C   0  0  0  0  0  0  0  0  0  0  0  0
   -1.2342    0.5440   -0.2858 C   0  0  0  0  0  0  0  0  0  0  0  0
   -2.4439    0.0986   -0.9822 C   0  0  0  0  0  0  0  0  0  0  0  0
   -1.3642    0.6593   -1.7992 C   0  0  0  0  0  0  0  0  0  0  0  0
    4.7255    1.9618    2.0258 H   0  0  0  0  0  0  0  0  0  0  0  0
    2.3382   -0.9958    0.1785 H   0  0  0  0  0  0  0  0  0  0  0  0
    1.9439    0.4698   -0.7524 H   0  0  0  0  0  0  0  0  0  0  0  0
    0.1889   -1.0005   -0.6116 H   0  0  0  0  0  0  0  0  0  0  0  0
   -1.3208   -2.2738    0.4700 H   0  0  0  0  0  0  0  0  0  0  0  0
   -1.7877   -1.0105    1.6221 H   0  0  0  0  0  0  0  0  0  0  0  0
   -0.2685   -1.8837    1.9444 H   0  0  0  0  0  0  0  0  0  0  0  0
   -1.2912    1.5223    0.2407 H   0  0  0  0  0  0  0  0  0  0  0  0
   -3.3790    0.7125   -0.8919 H   0  0  0  0  0  0  0  0  0  0  0  0
   -2.6469   -0.9974   -1.0762 H   0  0  0  0  0  0  0  0  0  0  0  0
   -1.4302    1.6849   -2.2449 H   0  0  0  0  0  0  0  0  0  0  0  0
   -0.7235   -0.0236   -2.4081 H   0  0  0  0  0  0  0  0  0  0  0  0
  1  2  3  0
  2  3  1  0
  3  4  1  0
  4  5  1  0
  5  6  1  0
  5  7  1  0
  7  8  1  0
  8  9  1  0
  9  7  1  0
  1 10  1  0
  3 11  1  0
  3 12  1  0
  5 13  1  0
  6 14  1  0
  6 15  1  0
  6 16  1  0
  7 17  1  0
  8 18  1  0
  8 19  1  0
  9 20  1  0
  9 21  1  0
M  END
