
     RDKit          3D

 21 20  0  0  0  0  0  0  0  0999 V2000
    0.4565    0.1294    2.9166 C   0  0  0  0  0  0  0  0  0  0  0  0
    0.3925    0.0852    1.7398 C   0  0  0  0  0  0  0  0  0  0  0  0
    0.3319    0.0292    0.4405 C   0  0  0  0  0  0  0  0  0  0  0  0
    1.2559   -1.1229   -0.0410 C   0  0  0  0  0  0  0  0  0  0  0  0
    1.1743    1.3034   -0.0187 C   0  0  0  0  0  0  0  0  0  0  0  0
    1.7993    2.2262   -0.3415 C   0  0  0  0  0  0  0  0  0  0  0  0
   -0.9525    0.2055   -0.2407 C   0  0  0  0  0  0  0  0  0  0  0  0
   -0.8000    0.4942   -1.7116 C   0  0  0  0  0  0  0  0  0  0  0  0
   -1.6864   -1.1789   -0.0922 C   0  0  0  0  0  0  0  0  0  0  0  0
    0.5235    0.1578    4.2784 H   0  0  0  0  0  0  0  0  0  0  0  0
    2.3064   -0.6657   -0.0279 H   0  0  0  0  0  0  0  0  0  0  0  0
    1.2246   -1.8526    0.8288 H   0  0  0  0  0  0  0  0  0  0  0  0
    1.0918   -1.4997   -0.9753 H   0  0  0  0  0  0  0  0  0  0  0  0
    2.4838    3.2405   -0.7161 H   0  0  0  0  0  0  0  0  0  0  0  0
   -1.5951    0.9508    0.2372 H   0  0  0  0  0  0  0  0  0  0  0  0
    0.2479    0.8751   -1.8935 H   0  0  0  0  0  0  0  0  0  0  0  0
   -1.4734    1.3559   -2.0543 H   0  0  0  0  0  0  0  0  0  0  0  0
   -0.9876   -0.4134   -2.2762 H   0  0  0  0  0  0  0  0  0  0  0  0
   -2.8197   -0.8432   -0.0502 H   0  0  0  0  0  0  0  0  0  0  0  0
   -1.4469   -1.6012    0.8837 H   0  0  0  0  0  0  0  0  0  0  0  0
   -1.5269   -1.8756   -0.8858 H   0  0  0  0  0  0  0  0  0  0  0  0
  1  2  3  0
  2  3  1  0
  3  4  1  0
  3  5  1  0
  5  6  3  0
  3  7  1  0
  7  8  1  0
  7  9  1  0
  1 10  1  0
  4 11  1  0
  4 12  1  0
  4 13  1  0
  6 14  1  0
  7 15  1  0
  8 16  1  0
  8 17  1  0
  8 18  1  0
  9 19  1  0
  9 20  1  0
  9 21  1  0
M  END
