
     RDKit          3D

 19 19  0  0  0  0  0  0  0  0999 V2000
    2.8304    1.8504    0.3479 C   0  0  0  0  0  0  0  0  0  0  0  0
    2.3327    0.7567    0.2492 C   0  0  0  0  0  0  0  0  0  0  0  0
    1.7247   -0.5589    0.1533 C   0  0  0  0  0  0  0  0  0  0  0  0
    0.2798   -0.4400    0.6440 C   0  0  0  0  0  0  0  0  0  0  0  0
   -0.4512   -1.7719    0.5838 C   0  0  0  0  0  0  0  0  0  0  0  0
   -0.0103    0.4416    1.6536 O   0  0  0  0  0  0  0  0  0  0  0  0
   -0.4209    0.7660    0.3371 C   0  0  0  0  0  0  0  0  0  0  0  0
   -1.9030    0.9105    0.1864 C   0  0  0  0  0  0  0  0  0  0  0  0
   -2.6202   -0.2161    0.5000 O   0  0  0  0  0  0  0  0  0  0  0  0
    3.2590    2.8351    0.4384 H   0  0  0  0  0  0  0  0  0  0  0  0
    1.6376   -0.9080   -0.9083 H   0  0  0  0  0  0  0  0  0  0  0  0
    2.2847   -1.2947    0.7301 H   0  0  0  0  0  0  0  0  0  0  0  0
    0.2626   -2.6215    0.7280 H   0  0  0  0  0  0  0  0  0  0  0  0
   -1.2171   -1.8764    1.3591 H   0  0  0  0  0  0  0  0  0  0  0  0
   -0.8553   -1.8607   -0.4511 H   0  0  0  0  0  0  0  0  0  0  0  0
    0.1507    1.6049   -0.1567 H   0  0  0  0  0  0  0  0  0  0  0  0
   -2.2424    1.7258    0.8820 H   0  0  0  0  0  0  0  0  0  0  0  0
   -2.1252    1.2872   -0.8377 H   0  0  0  0  0  0  0  0  0  0  0  0
   -2.9166   -0.6301   -0.3652 H   0  0  0  0  0  0  0  0  0  0  0  0
  1  2  3  0
  2  3  1  0
  3  4  1  0
  4  5  1  0
  4  6  1  0
  6  7  1  0
  7  8  1  0
  8  9  1  0
  7  4  1  0
  1 10  1  0
  3 11  1  0
  3 12  1  0
  5 13  1  0
  5 14  1  0
  5 15  1  0
  7 16  1  0
  8 17  1  0
  8 18  1  0
  9 19  1  0
M  END
