
     RDKit          3D

 21 21  0  0  0  0  0  0  0  0999 V2000
    2.2478   -0.5397    1.2178 C   0  0  0  0  0  0  0  0  0  0  0  0
    1.3898   -0.2337    0.4235 C   0  0  0  0  0  0  0  0  0  0  0  0
    0.3465    0.1332   -0.5080 C   0  0  0  0  0  0  0  0  0  0  0  0
    0.6463   -0.0748   -1.9583 C   0  0  0  0  0  0  0  0  0  0  0  0
   -1.0002   -0.4054   -0.0615 C   0  0  0  0  0  0  0  0  0  0  0  0
   -0.9802   -1.7685    0.5352 C   0  0  0  0  0  0  0  0  0  0  0  0
   -0.9902    0.7508    0.9263 C   0  0  0  0  0  0  0  0  0  0  0  0
   -0.2477    1.5033   -0.1658 C   0  0  0  0  0  0  0  0  0  0  0  0
    0.6351    2.4509    0.2345 O   0  0  0  0  0  0  0  0  0  0  0  0
    3.0233   -0.8059    1.9114 H   0  0  0  0  0  0  0  0  0  0  0  0
    1.6670   -0.4760   -2.1283 H   0  0  0  0  0  0  0  0  0  0  0  0
   -0.1151   -0.7838   -2.3439 H   0  0  0  0  0  0  0  0  0  0  0  0
    0.5191    0.8884   -2.4770 H   0  0  0  0  0  0  0  0  0  0  0  0
   -1.7435   -0.2367   -0.8688 H   0  0  0  0  0  0  0  0  0  0  0  0
   -1.6602   -2.4208   -0.0880 H   0  0  0  0  0  0  0  0  0  0  0  0
    0.0284   -2.2391    0.5357 H   0  0  0  0  0  0  0  0  0  0  0  0
   -1.3733   -1.7049    1.5696 H   0  0  0  0  0  0  0  0  0  0  0  0
   -0.3309    0.5272    1.8046 H   0  0  0  0  0  0  0  0  0  0  0  0
   -1.9848    1.1464    1.1800 H   0  0  0  0  0  0  0  0  0  0  0  0
   -0.9765    1.8548   -0.9229 H   0  0  0  0  0  0  0  0  0  0  0  0
    0.8993    2.4343    1.1838 H   0  0  0  0  0  0  0  0  0  0  0  0
  1  2  3  0
  2  3  1  0
  3  4  1  0
  3  5  1  0
  5  6  1  0
  5  7  1  0
  7  8  1  0
  8  9  1  0
  8  3  1  0
  1 10  1  0
  4 11  1  0
  4 12  1  0
  4 13  1  0
  5 14  1  0
  6 15  1  0
  6 16  1  0
  6 17  1  0
  7 18  1  0
  7 19  1  0
  8 20  1  0
  9 21  1  0
M  END
