
     RDKit          3D

 21 21  0  0  0  0  0  0  0  0999 V2000
   -0.9309   -3.0070    0.4943 C   0  0  0  0  0  0  0  0  0  0  0  0
   -0.2934   -2.0075    0.7928 C   0  0  0  0  0  0  0  0  0  0  0  0
    0.6051   -0.5520    1.2060 C   0  0  0  0  0  0  0  0  0  0  0  0
   -0.2370    0.1836   -0.0150 C   0  0  0  0  0  0  0  0  0  0  0  0
   -1.6115    0.2762    0.1217 C   0  0  0  0  0  0  0  0  0  0  0  0
   -2.4428    0.8101    1.0383 O   0  0  0  0  0  0  0  0  0  0  0  0
    0.3903   -0.1367   -1.3717 C   0  0  0  0  0  0  0  0  0  0  0  0
    0.6107    1.2069   -0.6471 C   0  0  0  0  0  0  0  0  0  0  0  0
    2.0467    1.3418   -0.1308 C   0  0  0  0  0  0  0  0  0  0  0  0
   -1.5023   -3.8975    0.2084 H   0  0  0  0  0  0  0  0  0  0  0  0
    1.4769   -0.7715    0.8267 H   0  0  0  0  0  0  0  0  0  0  0  0
    0.0593   -0.2454    2.0154 H   0  0  0  0  0  0  0  0  0  0  0  0
   -2.0366   -0.8253    0.0256 H   0  0  0  0  0  0  0  0  0  0  0  0
   -1.9773    0.6886   -0.9663 H   0  0  0  0  0  0  0  0  0  0  0  0
   -2.6870    1.7936    0.9536 H   0  0  0  0  0  0  0  0  0  0  0  0
   -0.0532    0.0137   -2.3479 H   0  0  0  0  0  0  0  0  0  0  0  0
    1.1517   -0.9488   -1.3010 H   0  0  0  0  0  0  0  0  0  0  0  0
    0.1493    2.1244   -0.9801 H   0  0  0  0  0  0  0  0  0  0  0  0
    2.5624    2.2736   -0.3340 H   0  0  0  0  0  0  0  0  0  0  0  0
    2.6692    0.4999   -0.5729 H   0  0  0  0  0  0  0  0  0  0  0  0
    2.0504    1.1792    0.9838 H   0  0  0  0  0  0  0  0  0  0  0  0
  1  2  3  0
  2  3  1  0
  3  4  1  0
  4  5  1  0
  5  6  1  0
  4  7  1  0
  7  8  1  0
  8  9  1  0
  8  4  1  0
  1 10  1  0
  3 11  1  0
  3 12  1  0
  5 13  1  0
  5 14  1  0
  6 15  1  0
  7 16  1  0
  7 17  1  0
  8 18  1  0
  9 19  1  0
  9 20  1  0
  9 21  1  0
M  END
