
     RDKit          3D

 14 14  0  0  0  0  0  0  0  0999 V2000
   -0.2812    2.1868    1.3545 C   0  0  0  0  0  0  0  0  0  0  0  0
   -0.3433    1.1065    0.8168 C   0  0  0  0  0  0  0  0  0  0  0  0
   -0.4267   -0.2049    0.1365 C   0  0  0  0  0  0  0  0  0  0  0  0
    0.3615   -0.3273   -1.1374 C   0  0  0  0  0  0  0  0  0  0  0  0
    1.7936   -0.0937   -0.8392 C   0  0  0  0  0  0  0  0  0  0  0  0
    2.1758    0.1559    0.3127 O   0  0  0  0  0  0  0  0  0  0  0  0
   -1.4876   -1.0792    0.5127 C   0  0  0  0  0  0  0  0  0  0  0  0
   -0.1960   -1.2834    1.0221 O   0  0  0  0  0  0  0  0  0  0  0  0
   -0.2223    3.1402    1.8145 H   0  0  0  0  0  0  0  0  0  0  0  0
    0.0130    0.4650   -1.8278 H   0  0  0  0  0  0  0  0  0  0  0  0
    0.1701   -1.3274   -1.5712 H   0  0  0  0  0  0  0  0  0  0  0  0
    2.5226   -0.1396   -1.6321 H   0  0  0  0  0  0  0  0  0  0  0  0
   -2.2100   -0.7813    1.2790 H   0  0  0  0  0  0  0  0  0  0  0  0
   -1.8694   -1.8177   -0.2413 H   0  0  0  0  0  0  0  0  0  0  0  0
  1  2  3  0
  2  3  1  0
  3  4  1  0
  4  5  1  0
  5  6  2  0
  3  7  1  0
  7  8  1  0
  8  3  1  0
  1  9  1  0
  4 10  1  0
  4 11  1  0
  5 12  1  0
  7 13  1  0
  7 14  1  0
M  END
