
     RDKit          3D

 21 21  0  0  0  0  0  0  0  0999 V2000
    3.1265   -0.4157    0.6989 C   0  0  0  0  0  0  0  0  0  0  0  0
    1.9226    0.2646    0.7763 C   0  0  0  0  0  0  0  0  0  0  0  0
    0.7985    0.8970    0.8710 C   0  0  0  0  0  0  0  0  0  0  0  0
   -0.2913    0.5969   -0.1856 C   0  0  0  0  0  0  0  0  0  0  0  0
    0.2679    0.8366   -1.5920 C   0  0  0  0  0  0  0  0  0  0  0  0
   -1.6837    0.5420    0.1550 C   0  0  0  0  0  0  0  0  0  0  0  0
   -0.9984   -0.7234   -0.0607 C   0  0  0  0  0  0  0  0  0  0  0  0
   -0.5229   -1.6916    0.9555 C   0  0  0  0  0  0  0  0  0  0  0  0
   -1.2347   -1.3303   -1.3318 O   0  0  0  0  0  0  0  0  0  0  0  0
    4.0976   -0.9691    0.6170 H   0  0  0  0  0  0  0  0  0  0  0  0
    1.0446    2.0515    0.4987 H   0  0  0  0  0  0  0  0  0  0  0  0
    0.3785    1.2152    1.8722 H   0  0  0  0  0  0  0  0  0  0  0  0
   -0.2418    0.0550   -2.2742 H   0  0  0  0  0  0  0  0  0  0  0  0
    1.3280    0.5663   -1.7068 H   0  0  0  0  0  0  0  0  0  0  0  0
   -0.0566    1.8116   -1.9033 H   0  0  0  0  0  0  0  0  0  0  0  0
   -2.3694    0.9273   -0.6784 H   0  0  0  0  0  0  0  0  0  0  0  0
   -2.1073    0.8514    1.1149 H   0  0  0  0  0  0  0  0  0  0  0  0
   -0.9425   -2.7095    0.7526 H   0  0  0  0  0  0  0  0  0  0  0  0
   -0.9876   -1.3810    1.9593 H   0  0  0  0  0  0  0  0  0  0  0  0
    0.5802   -1.7248    1.1458 H   0  0  0  0  0  0  0  0  0  0  0  0
   -2.1082   -0.9252   -1.6844 H   0  0  0  0  0  0  0  0  0  0  0  0
  1  2  3  0
  2  3  1  0
  3  4  1  0
  4  5  1  0
  4  6  1  0
  6  7  1  0
  7  8  1  0
  7  9  1  0
  7  4  1  0
  1 10  1  0
  3 11  1  0
  3 12  1  0
  5 13  1  0
  5 14  1  0
  5 15  1  0
  6 16  1  0
  6 17  1  0
  8 18  1  0
  8 19  1  0
  8 20  1  0
  9 21  1  0
M  END
