
     RDKit          3D

 23 23  0  0  0  0  0  0  0  0999 V2000
    3.1710    1.2004    0.6833 C   0  0  0  0  0  0  0  0  0  0  0  0
    2.4678    0.2094    0.5836 C   0  0  0  0  0  0  0  0  0  0  0  0
    1.6345   -0.9876    0.4420 C   0  0  0  0  0  0  0  0  0  0  0  0
    0.2010   -0.5486    0.6495 C   0  0  0  0  0  0  0  0  0  0  0  0
   -0.0204    0.0550    2.0001 C   0  0  0  0  0  0  0  0  0  0  0  0
   -0.2377    0.3572   -0.4771 C   0  0  0  0  0  0  0  0  0  0  0  0
   -1.6485    0.8343   -0.3430 C   0  0  0  0  0  0  0  0  0  0  0  0
   -2.1127   -0.0917   -1.4384 C   0  0  0  0  0  0  0  0  0  0  0  0
   -0.6520   -0.4616   -1.6736 C   0  0  0  0  0  0  0  0  0  0  0  0
    3.7800    2.0676    0.7880 H   0  0  0  0  0  0  0  0  0  0  0  0
    1.7153   -1.4465   -0.5399 H   0  0  0  0  0  0  0  0  0  0  0  0
    1.9104   -1.7226    1.2066 H   0  0  0  0  0  0  0  0  0  0  0  0
   -0.4207   -1.4657    0.5742 H   0  0  0  0  0  0  0  0  0  0  0  0
   -0.4790    1.0706    1.9667 H   0  0  0  0  0  0  0  0  0  0  0  0
   -0.6488   -0.6008    2.6369 H   0  0  0  0  0  0  0  0  0  0  0  0
    0.9662    0.1163    2.5099 H   0  0  0  0  0  0  0  0  0  0  0  0
    0.4831    1.1597   -0.7372 H   0  0  0  0  0  0  0  0  0  0  0  0
   -2.1489    0.6259    0.6209 H   0  0  0  0  0  0  0  0  0  0  0  0
   -1.8194    1.8900   -0.6242 H   0  0  0  0  0  0  0  0  0  0  0  0
   -2.7429   -0.9257   -1.0657 H   0  0  0  0  0  0  0  0  0  0  0  0
   -2.6159    0.3847   -2.2937 H   0  0  0  0  0  0  0  0  0  0  0  0
   -0.5292   -1.5606   -1.5467 H   0  0  0  0  0  0  0  0  0  0  0  0
   -0.2530   -0.1597   -2.6425 H   0  0  0  0  0  0  0  0  0  0  0  0
  1  2  3  0
  2  3  1  0
  3  4  1  0
  4  5  1  0
  4  6  1  0
  6  7  1  0
  7  8  1  0
  8  9  1  0
  9  6  1  0
  1 10  1  0
  3 11  1  0
  3 12  1  0
  4 13  1  0
  5 14  1  0
  5 15  1  0
  5 16  1  0
  6 17  1  0
  7 18  1  0
  7 19  1  0
  8 20  1  0
  8 21  1  0
  9 22  1  0
  9 23  1  0
M  END
