
     RDKit          3D

 23 22  0  0  0  0  0  0  0  0999 V2000
    3.3477   -0.9731    0.9123 C   0  0  0  0  0  0  0  0  0  0  0  0
    2.6679   -0.0528    0.5063 C   0  0  0  0  0  0  0  0  0  0  0  0
    1.8579    1.0534    0.0459 C   0  0  0  0  0  0  0  0  0  0  0  0
    0.3801    0.8536    0.2478 C   0  0  0  0  0  0  0  0  0  0  0  0
   -0.2029   -0.3169   -0.4539 C   0  0  0  0  0  0  0  0  0  0  0  0
    0.3416   -1.6537   -0.0970 C   0  0  0  0  0  0  0  0  0  0  0  0
   -1.6972   -0.3200   -0.2002 C   0  0  0  0  0  0  0  0  0  0  0  0
   -2.3498    0.9461   -0.7159 C   0  0  0  0  0  0  0  0  0  0  0  0
   -1.9142   -0.3508    1.1767 O   0  0  0  0  0  0  0  0  0  0  0  0
    3.9362   -1.7736    1.2791 H   0  0  0  0  0  0  0  0  0  0  0  0
    2.0123    1.1432   -1.0595 H   0  0  0  0  0  0  0  0  0  0  0  0
    2.1442    1.9995    0.5648 H   0  0  0  0  0  0  0  0  0  0  0  0
   -0.1057    1.7740   -0.1950 H   0  0  0  0  0  0  0  0  0  0  0  0
    0.1093    0.7812    1.3316 H   0  0  0  0  0  0  0  0  0  0  0  0
    0.0009   -0.1690   -1.5560 H   0  0  0  0  0  0  0  0  0  0  0  0
   -0.4760   -2.4016   -0.3142 H   0  0  0  0  0  0  0  0  0  0  0  0
    1.1939   -1.9771   -0.7176 H   0  0  0  0  0  0  0  0  0  0  0  0
    0.5591   -1.7041    0.9730 H   0  0  0  0  0  0  0  0  0  0  0  0
   -2.1432   -1.1880   -0.7042 H   0  0  0  0  0  0  0  0  0  0  0  0
   -3.4116    0.7123   -0.9292 H   0  0  0  0  0  0  0  0  0  0  0  0
   -2.3497    1.7611    0.0368 H   0  0  0  0  0  0  0  0  0  0  0  0
   -1.9044    1.2740   -1.6837 H   0  0  0  0  0  0  0  0  0  0  0  0
   -1.9965    0.5822    1.5521 H   0  0  0  0  0  0  0  0  0  0  0  0
  1  2  3  0
  2  3  1  0
  3  4  1  0
  4  5  1  0
  5  6  1  0
  5  7  1  0
  7  8  1  0
  7  9  1  0
  1 10  1  0
  3 11  1  0
  3 12  1  0
  4 13  1  0
  4 14  1  0
  5 15  1  0
  6 16  1  0
  6 17  1  0
  6 18  1  0
  7 19  1  0
  8 20  1  0
  8 21  1  0
  8 22  1  0
  9 23  1  0
M  END
