
     RDKit          3D

 17 18  0  0  0  0  0  0  0  0999 V2000
    3.3923   -0.4897    1.1484 C   0  0  0  0  0  0  0  0  0  0  0  0
    2.1402   -0.3140    0.8378 C   0  0  0  0  0  0  0  0  0  0  0  0
    0.7833   -0.1479    0.4970 C   0  0  0  0  0  0  0  0  0  0  0  0
    0.1467    0.9268    0.9422 C   0  0  0  0  0  0  0  0  0  0  0  0
   -1.2706    1.1863    0.6470 C   0  0  0  0  0  0  0  0  0  0  0  0
   -2.0353   -0.0455    0.9668 O   0  0  0  0  0  0  0  0  0  0  0  0
   -1.8690    0.3870   -0.3381 C   0  0  0  0  0  0  0  0  0  0  0  0
   -0.9038   -0.3289   -1.2703 C   0  0  0  0  0  0  0  0  0  0  0  0
    0.1292   -1.0883   -0.4557 C   0  0  0  0  0  0  0  0  0  0  0  0
    4.3667   -0.6182    1.4060 H   0  0  0  0  0  0  0  0  0  0  0  0
    0.6843    1.6670    1.5096 H   0  0  0  0  0  0  0  0  0  0  0  0
   -1.7089    2.1157    1.0005 H   0  0  0  0  0  0  0  0  0  0  0  0
   -2.8227    0.6478   -0.8160 H   0  0  0  0  0  0  0  0  0  0  0  0
   -0.3592    0.4621   -1.8280 H   0  0  0  0  0  0  0  0  0  0  0  0
   -1.3819   -1.0022   -1.9796 H   0  0  0  0  0  0  0  0  0  0  0  0
    0.9285   -1.3574   -1.2039 H   0  0  0  0  0  0  0  0  0  0  0  0
   -0.2195   -2.0005   -0.0031 H   0  0  0  0  0  0  0  0  0  0  0  0
  1  2  3  0
  2  3  1  0
  3  4  2  0
  4  5  1  0
  5  6  1  0
  6  7  1  0
  7  8  1  0
  8  9  1  0
  9  3  1  0
  7  5  1  0
  1 10  1  0
  4 11  1  0
  5 12  1  0
  7 13  1  0
  8 14  1  0
  8 15  1  0
  9 16  1  0
  9 17  1  0
M  END
