
     RDKit          3D

 17 18  0  0  0  0  0  0  0  0999 V2000
    2.7561   -0.4460    0.5115 C   0  0  0  0  0  0  0  0  0  0  0  0
    1.6921   -0.3332   -0.0438 C   0  0  0  0  0  0  0  0  0  0  0  0
    0.3916   -0.1967   -0.6938 C   0  0  0  0  0  0  0  0  0  0  0  0
    0.3892   -0.3323   -2.0634 O   0  0  0  0  0  0  0  0  0  0  0  0
   -0.3912    1.0306   -0.2100 C   0  0  0  0  0  0  0  0  0  0  0  0
   -0.9355    1.7412   -1.2789 O   0  0  0  0  0  0  0  0  0  0  0  0
   -1.3515    0.1483    0.5186 C   0  0  0  0  0  0  0  0  0  0  0  0
   -0.7947   -0.8712    1.4336 C   0  0  0  0  0  0  0  0  0  0  0  0
   -0.6576   -1.0461   -0.0215 C   0  0  0  0  0  0  0  0  0  0  0  0
    3.7029   -0.5358    1.0206 H   0  0  0  0  0  0  0  0  0  0  0  0
    1.1710    0.0206   -2.5144 H   0  0  0  0  0  0  0  0  0  0  0  0
    0.2226    1.6178    0.4845 H   0  0  0  0  0  0  0  0  0  0  0  0
   -1.0777    2.6801   -0.9613 H   0  0  0  0  0  0  0  0  0  0  0  0
   -2.4436    0.2868    0.3962 H   0  0  0  0  0  0  0  0  0  0  0  0
   -1.5279   -1.4396    2.0323 H   0  0  0  0  0  0  0  0  0  0  0  0
    0.1186   -0.5733    1.9999 H   0  0  0  0  0  0  0  0  0  0  0  0
   -1.2645   -1.7513   -0.6102 H   0  0  0  0  0  0  0  0  0  0  0  0
  1  2  3  0
  2  3  1  0
  3  4  1  0
  3  5  1  0
  5  6  1  0
  5  7  1  0
  7  8  1  0
  8  9  1  0
  9  3  1  0
  9  7  1  0
  1 10  1  0
  4 11  1  0
  5 12  1  0
  6 13  1  0
  7 14  1  0
  8 15  1  0
  8 16  1  0
  9 17  1  0
M  END
