
     RDKit          3D

 17 17  0  0  0  0  0  0  0  0999 V2000
    3.4429    0.1104    0.1265 C   0  0  0  0  0  0  0  0  0  0  0  0
    2.3361   -0.3198    0.3622 C   0  0  0  0  0  0  0  0  0  0  0  0
    0.9885   -0.8293    0.6260 C   0  0  0  0  0  0  0  0  0  0  0  0
    0.1073   -0.5707   -0.5819 C   0  0  0  0  0  0  0  0  0  0  0  0
   -0.6997    0.2576    0.3954 C   0  0  0  0  0  0  0  0  0  0  0  0
   -2.0456   -0.3556    0.6093 C   0  0  0  0  0  0  0  0  0  0  0  0
   -0.8252    1.6952    0.0013 C   0  0  0  0  0  0  0  0  0  0  0  0
   -1.6258    1.9642   -0.8775 O   0  0  0  0  0  0  0  0  0  0  0  0
    0.2262    0.0287    1.3970 O   0  0  0  0  0  0  0  0  0  0  0  0
    4.4143    0.4980   -0.0803 H   0  0  0  0  0  0  0  0  0  0  0  0
    0.9438   -1.8584    1.0315 H   0  0  0  0  0  0  0  0  0  0  0  0
    0.5610    0.0334   -1.3809 H   0  0  0  0  0  0  0  0  0  0  0  0
   -0.3852   -1.5052   -0.9263 H   0  0  0  0  0  0  0  0  0  0  0  0
   -2.8673    0.4022    0.5723 H   0  0  0  0  0  0  0  0  0  0  0  0
   -2.2931   -1.0719   -0.2268 H   0  0  0  0  0  0  0  0  0  0  0  0
   -2.0550   -0.9512    1.5249 H   0  0  0  0  0  0  0  0  0  0  0  0
   -0.2233    2.4723    0.4820 H   0  0  0  0  0  0  0  0  0  0  0  0
  1  2  3  0
  2  3  1  0
  3  4  1  0
  4  5  1  0
  5  6  1  0
  5  7  1  0
  7  8  2  0
  5  9  1  0
  9  3  1  0
  1 10  1  0
  3 11  1  0
  4 12  1  0
  4 13  1  0
  6 14  1  0
  6 15  1  0
  6 16  1  0
  7 17  1  0
M  END
