
     RDKit          3D

 21 20  0  0  0  0  0  0  0  0999 V2000
    4.7912   -1.4286    0.2558 C   0  0  0  0  0  0  0  0  0  0  0  0
    3.5885   -1.3469    0.1393 C   0  0  0  0  0  0  0  0  0  0  0  0
    2.1822   -1.2731    0.0115 C   0  0  0  0  0  0  0  0  0  0  0  0
    0.9671   -1.1922   -0.1116 C   0  0  0  0  0  0  0  0  0  0  0  0
   -0.4832   -1.0817   -0.2767 C   0  0  0  0  0  0  0  0  0  0  0  0
   -0.9460    0.3348   -0.0066 C   0  0  0  0  0  0  0  0  0  0  0  0
   -0.2998    1.3007   -0.9451 C   0  0  0  0  0  0  0  0  0  0  0  0
   -0.6742    0.7194    1.4307 C   0  0  0  0  0  0  0  0  0  0  0  0
   -2.4452    0.3557   -0.2030 C   0  0  0  0  0  0  0  0  0  0  0  0
    5.8567   -1.4864    0.3565 H   0  0  0  0  0  0  0  0  0  0  0  0
   -0.7870   -1.3030   -1.3354 H   0  0  0  0  0  0  0  0  0  0  0  0
   -1.0157   -1.8114    0.3467 H   0  0  0  0  0  0  0  0  0  0  0  0
   -1.0502    1.8748   -1.5618 H   0  0  0  0  0  0  0  0  0  0  0  0
    0.2703    2.0984   -0.3898 H   0  0  0  0  0  0  0  0  0  0  0  0
    0.4287    0.8135   -1.6445 H   0  0  0  0  0  0  0  0  0  0  0  0
   -1.3769    1.5713    1.6678 H   0  0  0  0  0  0  0  0  0  0  0  0
   -0.9895   -0.1129    2.0841 H   0  0  0  0  0  0  0  0  0  0  0  0
    0.3604    0.9987    1.6279 H   0  0  0  0  0  0  0  0  0  0  0  0
   -2.6520   -0.1812   -1.1533 H   0  0  0  0  0  0  0  0  0  0  0  0
   -2.8330    1.3848   -0.2658 H   0  0  0  0  0  0  0  0  0  0  0  0
   -2.8924   -0.2348    0.6225 H   0  0  0  0  0  0  0  0  0  0  0  0
  1  2  3  0
  2  3  1  0
  3  4  3  0
  4  5  1  0
  5  6  1  0
  6  7  1  0
  6  8  1  0
  6  9  1  0
  1 10  1  0
  5 11  1  0
  5 12  1  0
  7 13  1  0
  7 14  1  0
  7 15  1  0
  8 16  1  0
  8 17  1  0
  8 18  1  0
  9 19  1  0
  9 20  1  0
  9 21  1  0
M  END
