
     RDKit          3D

 15 15  0  0  0  0  0  0  0  0999 V2000
    1.6397    1.4467    2.8542 C   0  0  0  0  0  0  0  0  0  0  0  0
    1.0510    1.0871    1.8597 C   0  0  0  0  0  0  0  0  0  0  0  0
    0.4044    0.6911    0.8042 C   0  0  0  0  0  0  0  0  0  0  0  0
    0.2321   -0.6440    0.3246 O   0  0  0  0  0  0  0  0  0  0  0  0
   -0.8230   -0.3628   -0.6271 C   0  0  0  0  0  0  0  0  0  0  0  0
   -1.0315   -1.5405   -1.5120 C   0  0  0  0  0  0  0  0  0  0  0  0
   -0.3330    0.7036   -1.3717 O   0  0  0  0  0  0  0  0  0  0  0  0
    0.7820    1.2374   -0.5938 C   0  0  0  0  0  0  0  0  0  0  0  0
    1.6758    1.8908   -1.0410 O   0  0  0  0  0  0  0  0  0  0  0  0
    2.1817    1.7589    3.7747 H   0  0  0  0  0  0  0  0  0  0  0  0
   -0.7617    1.0166    0.8329 H   0  0  0  0  0  0  0  0  0  0  0  0
   -1.7111   -0.0949   -0.0196 H   0  0  0  0  0  0  0  0  0  0  0  0
   -1.4010   -1.2716   -2.5322 H   0  0  0  0  0  0  0  0  0  0  0  0
   -1.8070   -2.2231   -1.0547 H   0  0  0  0  0  0  0  0  0  0  0  0
   -0.0983   -2.1320   -1.6982 H   0  0  0  0  0  0  0  0  0  0  0  0
  1  2  3  0
  2  3  1  0
  3  4  1  0
  4  5  1  0
  5  6  1  0
  5  7  1  0
  7  8  1  0
  8  9  2  0
  8  3  1  0
  1 10  1  0
  3 11  1  0
  5 12  1  0
  6 13  1  0
  6 14  1  0
  6 15  1  0
M  END
