
     RDKit          3D

 18 18  0  0  0  0  0  0  0  0999 V2000
    3.7372    0.0550    1.5204 C   0  0  0  0  0  0  0  0  0  0  0  0
    2.6025    0.3193    1.1431 C   0  0  0  0  0  0  0  0  0  0  0  0
    1.2363    0.6329    0.7156 C   0  0  0  0  0  0  0  0  0  0  0  0
    0.6771   -0.4992    0.1972 O   0  0  0  0  0  0  0  0  0  0  0  0
   -0.6239   -0.3609   -0.2542 C   0  0  0  0  0  0  0  0  0  0  0  0
   -1.1891   -1.6521   -0.8191 C   0  0  0  0  0  0  0  0  0  0  0  0
   -1.6275    0.4353    0.5331 C   0  0  0  0  0  0  0  0  0  0  0  0
   -1.1343    0.9242   -0.7667 C   0  0  0  0  0  0  0  0  0  0  0  0
    4.7106   -0.1832    1.8604 H   0  0  0  0  0  0  0  0  0  0  0  0
    1.3262    1.4489   -0.0296 H   0  0  0  0  0  0  0  0  0  0  0  0
    0.6959    1.0566    1.5903 H   0  0  0  0  0  0  0  0  0  0  0  0
   -0.4064   -2.2668   -1.3161 H   0  0  0  0  0  0  0  0  0  0  0  0
   -2.0060   -1.3629   -1.5120 H   0  0  0  0  0  0  0  0  0  0  0  0
   -1.6249   -2.2867    0.0039 H   0  0  0  0  0  0  0  0  0  0  0  0
   -1.3351    0.9697    1.4512 H   0  0  0  0  0  0  0  0  0  0  0  0
   -2.6988    0.0842    0.5694 H   0  0  0  0  0  0  0  0  0  0  0  0
   -0.5122    1.8411   -0.8197 H   0  0  0  0  0  0  0  0  0  0  0  0
   -1.8275    0.8449   -1.6354 H   0  0  0  0  0  0  0  0  0  0  0  0
  1  2  3  0
  2  3  1  0
  3  4  1  0
  4  5  1  0
  5  6  1  0
  5  7  1  0
  7  8  1  0
  8  5  1  0
  1  9  1  0
  3 10  1  0
  3 11  1  0
  6 12  1  0
  6 13  1  0
  6 14  1  0
  7 15  1  0
  7 16  1  0
  8 17  1  0
  8 18  1  0
M  END
