
     RDKit          3D

 17 17  0  0  0  0  0  0  0  0999 V2000
    2.6896   -1.4053    0.2852 C   0  0  0  0  0  0  0  0  0  0  0  0
    1.9614   -0.5938   -0.2304 C   0  0  0  0  0  0  0  0  0  0  0  0
    1.0532    0.4062   -0.8421 C   0  0  0  0  0  0  0  0  0  0  0  0
   -0.2437   -0.2778   -1.0327 C   0  0  0  0  0  0  0  0  0  0  0  0
   -1.0130   -0.0978    0.0168 C   0  0  0  0  0  0  0  0  0  0  0  0
   -2.3939   -0.6226    0.2190 C   0  0  0  0  0  0  0  0  0  0  0  0
   -0.2798    0.7352    0.9944 C   0  0  0  0  0  0  0  0  0  0  0  0
   -0.4670    0.8084    2.2338 O   0  0  0  0  0  0  0  0  0  0  0  0
    0.7352    1.4676    0.1561 C   0  0  0  0  0  0  0  0  0  0  0  0
    3.3428   -2.1117    0.7436 H   0  0  0  0  0  0  0  0  0  0  0  0
    1.4785    0.7922   -1.7873 H   0  0  0  0  0  0  0  0  0  0  0  0
   -0.4729   -0.8383   -1.9388 H   0  0  0  0  0  0  0  0  0  0  0  0
   -2.7117   -0.4445    1.2651 H   0  0  0  0  0  0  0  0  0  0  0  0
   -3.0691   -0.1882   -0.5312 H   0  0  0  0  0  0  0  0  0  0  0  0
   -2.4260   -1.7398    0.0857 H   0  0  0  0  0  0  0  0  0  0  0  0
    0.2269    2.3043   -0.3937 H   0  0  0  0  0  0  0  0  0  0  0  0
    1.5895    1.8061    0.7566 H   0  0  0  0  0  0  0  0  0  0  0  0
  1  2  3  0
  2  3  1  0
  3  4  1  0
  4  5  2  0
  5  6  1  0
  5  7  1  0
  7  8  2  0
  7  9  1  0
  9  3  1  0
  1 10  1  0
  3 11  1  0
  4 12  1  0
  6 13  1  0
  6 14  1  0
  6 15  1  0
  9 16  1  0
  9 17  1  0
M  END
