
     RDKit          3D

 17 20  0  0  0  0  0  0  0  0999 V2000
    2.6581    0.6823   -1.9266 C   0  0  0  0  0  0  0  0  0  0  0  0
    1.6802    0.4071   -1.2807 C   0  0  0  0  0  0  0  0  0  0  0  0
    0.5467    0.0794   -0.5030 C   0  0  0  0  0  0  0  0  0  0  0  0
    0.2446   -1.1827    0.1319 C   0  0  0  0  0  0  0  0  0  0  0  0
   -1.2760   -1.2745    0.2892 C   0  0  0  0  0  0  0  0  0  0  0  0
   -1.6696    0.1859    0.2957 C   0  0  0  0  0  0  0  0  0  0  0  0
   -0.6086    0.8426    1.0614 C   0  0  0  0  0  0  0  0  0  0  0  0
   -0.6542    0.9555   -0.3944 C   0  0  0  0  0  0  0  0  0  0  0  0
    0.5853   -0.0422    0.9693 C   0  0  0  0  0  0  0  0  0  0  0  0
    3.5435    0.9334   -2.4895 H   0  0  0  0  0  0  0  0  0  0  0  0
    0.8311   -2.0906    0.0879 H   0  0  0  0  0  0  0  0  0  0  0  0
   -1.7335   -1.8611   -0.5086 H   0  0  0  0  0  0  0  0  0  0  0  0
   -1.4146   -1.7099    1.3180 H   0  0  0  0  0  0  0  0  0  0  0  0
   -2.7055    0.4925    0.4686 H   0  0  0  0  0  0  0  0  0  0  0  0
   -0.7227    1.6253    1.7857 H   0  0  0  0  0  0  0  0  0  0  0  0
   -0.7825    1.8636   -0.9669 H   0  0  0  0  0  0  0  0  0  0  0  0
    1.4776    0.0935    1.5663 H   0  0  0  0  0  0  0  0  0  0  0  0
  1  2  3  0
  2  3  1  0
  3  4  1  0
  4  5  1  0
  5  6  1  0
  6  7  1  0
  7  8  1  0
  7  9  1  0
  8  3  1  0
  9  3  1  0
  9  4  1  0
  8  6  1  0
  1 10  1  0
  4 11  1  0
  5 12  1  0
  5 13  1  0
  6 14  1  0
  7 15  1  0
  8 16  1  0
  9 17  1  0
M  END
