
     RDKit          3D

 13 13  0  0  0  0  0  0  0  0999 V2000
    2.0884   -1.4155    0.0807 C   0  0  0  0  0  0  0  0  0  0  0  0
    1.4029   -0.4270   -0.0234 C   0  0  0  0  0  0  0  0  0  0  0  0
    0.5443    0.7735   -0.1389 C   0  0  0  0  0  0  0  0  0  0  0  0
   -0.4769    0.7016    0.9686 C   0  0  0  0  0  0  0  0  0  0  0  0
   -1.3543   -0.2709    0.4784 O   0  0  0  0  0  0  0  0  0  0  0  0
   -1.2958   -0.2374   -0.8894 C   0  0  0  0  0  0  0  0  0  0  0  0
   -0.2673    0.6004   -1.2714 O   0  0  0  0  0  0  0  0  0  0  0  0
    2.6970   -2.2797    0.1554 H   0  0  0  0  0  0  0  0  0  0  0  0
    1.1201    1.7003   -0.1586 H   0  0  0  0  0  0  0  0  0  0  0  0
   -0.9874    1.7005    1.0692 H   0  0  0  0  0  0  0  0  0  0  0  0
   -0.0573    0.3490    1.9090 H   0  0  0  0  0  0  0  0  0  0  0  0
   -1.1263   -1.2675   -1.3186 H   0  0  0  0  0  0  0  0  0  0  0  0
   -2.2875    0.0726   -1.2728 H   0  0  0  0  0  0  0  0  0  0  0  0
  1  2  3  0
  2  3  1  0
  3  4  1  0
  4  5  1  0
  5  6  1  0
  6  7  1  0
  7  3  1  0
  1  8  1  0
  3  9  1  0
  4 10  1  0
  4 11  1  0
  6 12  1  0
  6 13  1  0
M  END
