
     RDKit          3D

 19 18  0  0  0  0  0  0  0  0999 V2000
    4.2575    1.5119    1.4017 C   0  0  0  0  0  0  0  0  0  0  0  0
    3.1270    1.3741    1.0039 C   0  0  0  0  0  0  0  0  0  0  0  0
    1.7575    1.2039    0.5159 C   0  0  0  0  0  0  0  0  0  0  0  0
    1.6711   -0.1566   -0.1394 C   0  0  0  0  0  0  0  0  0  0  0  0
    0.2946   -0.3110   -0.6222 C   0  0  0  0  0  0  0  0  0  0  0  0
   -0.8362   -0.4264   -1.0365 C   0  0  0  0  0  0  0  0  0  0  0  0
   -2.2189   -0.5623   -1.5377 C   0  0  0  0  0  0  0  0  0  0  0  0
   -3.1052   -0.8798   -0.5104 O   0  0  0  0  0  0  0  0  0  0  0  0
   -3.0999    0.1168    0.4676 C   0  0  0  0  0  0  0  0  0  0  0  0
    5.2631    1.6514    1.7533 H   0  0  0  0  0  0  0  0  0  0  0  0
    1.0158    1.2227    1.3253 H   0  0  0  0  0  0  0  0  0  0  0  0
    1.5948    2.0145   -0.2447 H   0  0  0  0  0  0  0  0  0  0  0  0
    1.9098   -0.9124    0.6450 H   0  0  0  0  0  0  0  0  0  0  0  0
    2.4017   -0.2775   -0.9669 H   0  0  0  0  0  0  0  0  0  0  0  0
   -2.1855   -1.4526   -2.2246 H   0  0  0  0  0  0  0  0  0  0  0  0
   -2.5627    0.3441   -2.0521 H   0  0  0  0  0  0  0  0  0  0  0  0
   -3.4013    1.0706    0.0245 H   0  0  0  0  0  0  0  0  0  0  0  0
   -2.0878    0.2227    0.9273 H   0  0  0  0  0  0  0  0  0  0  0  0
   -3.7954   -0.1373    1.2700 H   0  0  0  0  0  0  0  0  0  0  0  0
  1  2  3  0
  2  3  1  0
  3  4  1  0
  4  5  1  0
  5  6  3  0
  6  7  1  0
  7  8  1  0
  8  9  1  0
  1 10  1  0
  3 11  1  0
  3 12  1  0
  4 13  1  0
  4 14  1  0
  7 15  1  0
  7 16  1  0
  9 17  1  0
  9 18  1  0
  9 19  1  0
M  END
