
     RDKit          3D

 19 20  0  0  0  0  0  0  0  0999 V2000
    3.1822    0.6349   -1.1764 C   0  0  0  0  0  0  0  0  0  0  0  0
    2.2820    0.1631   -0.4965 C   0  0  0  0  0  0  0  0  0  0  0  0
    1.1869   -0.3941    0.3003 C   0  0  0  0  0  0  0  0  0  0  0  0
    0.0969   -1.0278   -0.5339 C   0  0  0  0  0  0  0  0  0  0  0  0
   -0.5931   -2.0319    0.1450 O   0  0  0  0  0  0  0  0  0  0  0  0
   -1.7559   -1.3870    0.5708 C   0  0  0  0  0  0  0  0  0  0  0  0
   -1.2421   -0.0534    1.1288 C   0  0  0  0  0  0  0  0  0  0  0  0
   -0.1213    0.2522    0.1881 C   0  0  0  0  0  0  0  0  0  0  0  0
   -0.2180    1.5605   -0.5370 C   0  0  0  0  0  0  0  0  0  0  0  0
    3.9575    1.0329   -1.7797 H   0  0  0  0  0  0  0  0  0  0  0  0
    1.4758   -0.8555    1.2659 H   0  0  0  0  0  0  0  0  0  0  0  0
    0.1820   -1.0646   -1.6247 H   0  0  0  0  0  0  0  0  0  0  0  0
   -2.3151   -1.9498    1.3283 H   0  0  0  0  0  0  0  0  0  0  0  0
   -2.4203   -1.2012   -0.3115 H   0  0  0  0  0  0  0  0  0  0  0  0
   -2.0670    0.6862    1.0221 H   0  0  0  0  0  0  0  0  0  0  0  0
   -0.9271   -0.1938    2.1702 H   0  0  0  0  0  0  0  0  0  0  0  0
   -1.2864    1.8773   -0.6935 H   0  0  0  0  0  0  0  0  0  0  0  0
    0.3772    1.6051   -1.4571 H   0  0  0  0  0  0  0  0  0  0  0  0
    0.2059    2.3469    0.1530 H   0  0  0  0  0  0  0  0  0  0  0  0
  1  2  3  0
  2  3  1  0
  3  4  1  0
  4  5  1  0
  5  6  1  0
  6  7  1  0
  7  8  1  0
  8  9  1  0
  8  3  1  0
  8  4  1  0
  1 10  1  0
  3 11  1  0
  4 12  1  0
  6 13  1  0
  6 14  1  0
  7 15  1  0
  7 16  1  0
  9 17  1  0
  9 18  1  0
  9 19  1  0
M  END
