
     RDKit          3D

 17 17  0  0  0  0  0  0  0  0999 V2000
   -2.0716   -1.4889    1.3541 C   0  0  0  0  0  0  0  0  0  0  0  0
   -1.2165   -0.6557    1.0489 C   0  0  0  0  0  0  0  0  0  0  0  0
   -0.2163    0.3469    0.7022 C   0  0  0  0  0  0  0  0  0  0  0  0
   -0.7757    1.6829    0.9587 C   0  0  0  0  0  0  0  0  0  0  0  0
   -1.2454    2.7672    1.1581 C   0  0  0  0  0  0  0  0  0  0  0  0
    0.1064    0.2421   -0.7894 C   0  0  0  0  0  0  0  0  0  0  0  0
    0.6476   -1.0972   -1.1905 C   0  0  0  0  0  0  0  0  0  0  0  0
    1.9627   -0.4249   -0.8444 C   0  0  0  0  0  0  0  0  0  0  0  0
    1.3776    0.8106   -0.9914 O   0  0  0  0  0  0  0  0  0  0  0  0
   -2.7928   -2.2173    1.6139 H   0  0  0  0  0  0  0  0  0  0  0  0
    0.7209    0.1797    1.3039 H   0  0  0  0  0  0  0  0  0  0  0  0
   -1.6536    3.7568    1.3368 H   0  0  0  0  0  0  0  0  0  0  0  0
   -0.7003    0.6498   -1.3960 H   0  0  0  0  0  0  0  0  0  0  0  0
    0.3792   -1.9562   -0.5705 H   0  0  0  0  0  0  0  0  0  0  0  0
    0.5301   -1.2453   -2.2989 H   0  0  0  0  0  0  0  0  0  0  0  0
    2.7210   -0.7177   -1.5968 H   0  0  0  0  0  0  0  0  0  0  0  0
    2.2267   -0.6329    0.2014 H   0  0  0  0  0  0  0  0  0  0  0  0
  1  2  3  0
  2  3  1  0
  3  4  1  0
  4  5  3  0
  3  6  1  0
  6  7  1  0
  7  8  1  0
  8  9  1  0
  9  6  1  0
  1 10  1  0
  3 11  1  0
  5 12  1  0
  6 13  1  0
  7 14  1  0
  7 15  1  0
  8 16  1  0
  8 17  1  0
M  END
