
     RDKit          3D

 17 16  0  0  0  0  0  0  0  0999 V2000
    1.8270    0.2849    2.8848 C   0  0  0  0  0  0  0  0  0  0  0  0
    1.0522    0.1085    1.6981 C   0  0  0  0  0  0  0  0  0  0  0  0
    0.4966   -0.0212    0.8640 C   0  0  0  0  0  0  0  0  0  0  0  0
    1.7620   -0.8737   -0.0066 O   0  0  0  0  0  0  0  0  0  0  0  0
   -0.3217   -0.1865   -0.3730 C   0  0  0  0  0  0  0  0  0  0  0  0
    0.4334    0.2125   -1.6360 C   0  0  0  0  0  0  0  0  0  0  0  0
    1.1976   -0.6044   -2.1125 O   0  0  0  0  0  0  0  0  0  0  0  0
   -1.6595    0.4303   -0.3161 C   0  0  0  0  0  0  0  0  0  0  0  0
   -2.3608    0.1511   -1.4819 O   0  0  0  0  0  0  0  0  0  0  0  0
    2.3996    0.4293    3.7586 H   0  0  0  0  0  0  0  0  0  0  0  0
    1.1371    1.0662    0.0835 H   0  0  0  0  0  0  0  0  0  0  0  0
    1.2530   -1.7189    0.1331 H   0  0  0  0  0  0  0  0  0  0  0  0
   -0.4952   -1.3086   -0.5439 H   0  0  0  0  0  0  0  0  0  0  0  0
    0.2280    1.1762   -1.9895 H   0  0  0  0  0  0  0  0  0  0  0  0
   -1.7013    1.5107   -0.0987 H   0  0  0  0  0  0  0  0  0  0  0  0
   -2.2328   -0.0921    0.5611 H   0  0  0  0  0  0  0  0  0  0  0  0
   -3.0152   -0.5644   -1.4249 H   0  0  0  0  0  0  0  0  0  0  0  0
  1  2  3  0
  2  3  1  0
  3  4  1  0
  3  5  1  0
  5  6  1  0
  6  7  2  0
  5  8  1  0
  8  9  1  0
  1 10  1  0
  3 11  1  0
  4 12  1  0
  5 13  1  0
  6 14  1  0
  8 15  1  0
  8 16  1  0
  9 17  1  0
M  END
