
     RDKit          3D

 13 12  0  0  0  0  0  0  0  0999 V2000
    2.0188   -1.7305    1.8582 C   0  0  0  0  0  0  0  0  0  0  0  0
    1.3180   -0.8036    1.5079 C   0  0  0  0  0  0  0  0  0  0  0  0
    0.4638    0.2886    1.0853 C   0  0  0  0  0  0  0  0  0  0  0  0
    0.0796    1.0794    1.9217 O   0  0  0  0  0  0  0  0  0  0  0  0
    0.0632    0.4317   -0.3608 C   0  0  0  0  0  0  0  0  0  0  0  0
   -0.7855    1.6245   -0.5103 C   0  0  0  0  0  0  0  0  0  0  0  0
   -1.5195    2.6552   -0.6620 C   0  0  0  0  0  0  0  0  0  0  0  0
   -0.5717   -0.7378   -0.8666 C   0  0  0  0  0  0  0  0  0  0  0  0
   -1.0834   -1.6903   -1.2613 C   0  0  0  0  0  0  0  0  0  0  0  0
    2.6329   -2.5487    2.1756 H   0  0  0  0  0  0  0  0  0  0  0  0
    1.0317    0.5905   -0.8885 H   0  0  0  0  0  0  0  0  0  0  0  0
   -2.0723    3.4584   -0.7861 H   0  0  0  0  0  0  0  0  0  0  0  0
   -1.5755   -2.6173   -1.6641 H   0  0  0  0  0  0  0  0  0  0  0  0
  1  2  3  0
  2  3  1  0
  3  4  2  0
  3  5  1  0
  5  6  1  0
  6  7  3  0
  5  8  1  0
  8  9  3  0
  1 10  1  0
  5 11  1  0
  7 12  1  0
  9 13  1  0
M  END
