
     RDKit          3D

 20 20  0  0  0  0  0  0  0  0999 V2000
   -1.1916    0.1633   -2.7853 C   0  0  0  0  0  0  0  0  0  0  0  0
   -0.9266   -0.7076   -1.9894 C   0  0  0  0  0  0  0  0  0  0  0  0
   -0.6244   -1.7515   -1.0519 C   0  0  0  0  0  0  0  0  0  0  0  0
    0.2588   -1.3322    0.0657 C   0  0  0  0  0  0  0  0  0  0  0  0
   -0.3699   -0.2894    0.9214 C   0  0  0  0  0  0  0  0  0  0  0  0
   -0.7004    1.0347    0.3261 C   0  0  0  0  0  0  0  0  0  0  0  0
    0.2950    0.8846    1.4793 C   0  0  0  0  0  0  0  0  0  0  0  0
    1.6892    1.2971    1.1430 C   0  0  0  0  0  0  0  0  0  0  0  0
   -1.4250    0.9531   -3.4818 H   0  0  0  0  0  0  0  0  0  0  0  0
   -0.2245   -2.6582   -1.5902 H   0  0  0  0  0  0  0  0  0  0  0  0
   -1.5905   -2.1143   -0.5457 H   0  0  0  0  0  0  0  0  0  0  0  0
    1.2103   -0.9535   -0.4166 H   0  0  0  0  0  0  0  0  0  0  0  0
    0.6312   -2.2084    0.6644 H   0  0  0  0  0  0  0  0  0  0  0  0
   -1.2193   -0.6810    1.6139 H   0  0  0  0  0  0  0  0  0  0  0  0
   -1.6747    1.5153    0.6016 H   0  0  0  0  0  0  0  0  0  0  0  0
   -0.2950    1.4332   -0.6020 H   0  0  0  0  0  0  0  0  0  0  0  0
   -0.0572    1.3072    2.4593 H   0  0  0  0  0  0  0  0  0  0  0  0
    2.2554    1.4542    2.0882 H   0  0  0  0  0  0  0  0  0  0  0  0
    2.2191    0.4699    0.6259 H   0  0  0  0  0  0  0  0  0  0  0  0
    1.7400    2.1837    0.4739 H   0  0  0  0  0  0  0  0  0  0  0  0
  1  2  3  0
  2  3  1  0
  3  4  1  0
  4  5  1  0
  5  6  1  0
  6  7  1  0
  7  8  1  0
  7  5  1  0
  1  9  1  0
  3 10  1  0
  3 11  1  0
  4 12  1  0
  4 13  1  0
  5 14  1  0
  6 15  1  0
  6 16  1  0
  7 17  1  0
  8 18  1  0
  8 19  1  0
  8 20  1  0
M  END
