
     RDKit          3D

 19 20  0  0  0  0  0  0  0  0999 V2000
    0.5025    2.8926    0.1961 C   0  0  0  0  0  0  0  0  0  0  0  0
    0.1756    1.7075    0.1207 C   0  0  0  0  0  0  0  0  0  0  0  0
   -0.1848    0.3091    0.0382 C   0  0  0  0  0  0  0  0  0  0  0  0
   -1.5251   -0.1633    0.4938 C   0  0  0  0  0  0  0  0  0  0  0  0
   -2.2574   -1.0675   -0.5049 C   0  0  0  0  0  0  0  0  0  0  0  0
   -0.9028   -1.0036    1.4388 O   0  0  0  0  0  0  0  0  0  0  0  0
    0.3978   -0.6643    1.0809 C   0  0  0  0  0  0  0  0  0  0  0  0
    0.8475   -0.6930   -0.3116 C   0  0  0  0  0  0  0  0  0  0  0  0
    2.2505   -0.2111   -0.5708 C   0  0  0  0  0  0  0  0  0  0  0  0
    0.7758    3.9237    0.2770 H   0  0  0  0  0  0  0  0  0  0  0  0
   -2.1447    0.6351    0.9018 H   0  0  0  0  0  0  0  0  0  0  0  0
   -1.5355   -1.7423   -1.0112 H   0  0  0  0  0  0  0  0  0  0  0  0
   -3.0667   -1.6207   -0.0040 H   0  0  0  0  0  0  0  0  0  0  0  0
   -2.7400   -0.3763   -1.2448 H   0  0  0  0  0  0  0  0  0  0  0  0
    0.9813   -0.2250    1.8945 H   0  0  0  0  0  0  0  0  0  0  0  0
    0.4973   -1.4906   -0.9903 H   0  0  0  0  0  0  0  0  0  0  0  0
    2.8439   -0.8882   -1.2086 H   0  0  0  0  0  0  0  0  0  0  0  0
    2.2754    0.8118   -1.0037 H   0  0  0  0  0  0  0  0  0  0  0  0
    2.8095   -0.1340    0.4082 H   0  0  0  0  0  0  0  0  0  0  0  0
  1  2  3  0
  2  3  1  0
  3  4  1  0
  4  5  1  0
  4  6  1  0
  6  7  1  0
  7  8  1  0
  8  9  1  0
  7  3  1  0
  8  3  1  0
  1 10  1  0
  4 11  1  0
  5 12  1  0
  5 13  1  0
  5 14  1  0
  7 15  1  0
  8 16  1  0
  9 17  1  0
  9 18  1  0
  9 19  1  0
M  END
