
     RDKit          3D

 19 18  0  0  0  0  0  0  0  0999 V2000
   -0.8579    2.5583   -0.1873 C   0  0  0  0  0  0  0  0  0  0  0  0
   -0.2006    1.5171   -0.0520 C   0  0  0  0  0  0  0  0  0  0  0  0
    0.5956    0.3030    0.1049 C   0  0  0  0  0  0  0  0  0  0  0  0
   -0.0555   -0.5735    1.1434 C   0  0  0  0  0  0  0  0  0  0  0  0
   -0.0418    0.2007    2.4140 C   0  0  0  0  0  0  0  0  0  0  0  0
   -0.4895   -0.2493    3.4602 O   0  0  0  0  0  0  0  0  0  0  0  0
    0.9254   -0.3212   -1.1847 C   0  0  0  0  0  0  0  0  0  0  0  0
   -0.3250   -0.7117   -1.9902 C   0  0  0  0  0  0  0  0  0  0  0  0
   -1.0408   -1.5931   -1.2254 O   0  0  0  0  0  0  0  0  0  0  0  0
   -1.4202    3.4392   -0.3164 H   0  0  0  0  0  0  0  0  0  0  0  0
    1.5946    0.5972    0.6019 H   0  0  0  0  0  0  0  0  0  0  0  0
   -1.1461   -0.7625    0.8950 H   0  0  0  0  0  0  0  0  0  0  0  0
    0.5034   -1.4981    1.2487 H   0  0  0  0  0  0  0  0  0  0  0  0
    0.3716    1.2109    2.4691 H   0  0  0  0  0  0  0  0  0  0  0  0
    1.5654   -1.2091   -1.0177 H   0  0  0  0  0  0  0  0  0  0  0  0
    1.4458    0.4240   -1.8344 H   0  0  0  0  0  0  0  0  0  0  0  0
    0.0126   -1.2281   -2.9252 H   0  0  0  0  0  0  0  0  0  0  0  0
   -0.8906    0.2105   -2.2309 H   0  0  0  0  0  0  0  0  0  0  0  0
   -0.5466   -2.3143   -0.8161 H   0  0  0  0  0  0  0  0  0  0  0  0
  1  2  3  0
  2  3  1  0
  3  4  1  0
  4  5  1  0
  5  6  2  0
  3  7  1  0
  7  8  1  0
  8  9  1  0
  1 10  1  0
  3 11  1  0
  4 12  1  0
  4 13  1  0
  5 14  1  0
  7 15  1  0
  7 16  1  0
  8 17  1  0
  8 18  1  0
  9 19  1  0
M  END
