
     RDKit          3D

 19 20  0  0  0  0  0  0  0  0999 V2000
    2.6304    2.2222   -0.1469 C   0  0  0  0  0  0  0  0  0  0  0  0
    2.0799    1.1454   -0.2695 C   0  0  0  0  0  0  0  0  0  0  0  0
    1.4335   -0.1681   -0.4208 C   0  0  0  0  0  0  0  0  0  0  0  0
    1.5337   -0.8355    0.7946 O   0  0  0  0  0  0  0  0  0  0  0  0
    0.5072   -1.7718    0.8190 C   0  0  0  0  0  0  0  0  0  0  0  0
   -0.6534   -1.1670    0.0719 C   0  0  0  0  0  0  0  0  0  0  0  0
   -0.9946    0.2286    0.4065 C   0  0  0  0  0  0  0  0  0  0  0  0
   -2.3329    0.8129   -0.0296 C   0  0  0  0  0  0  0  0  0  0  0  0
   -0.0406   -0.0135   -0.7116 C   0  0  0  0  0  0  0  0  0  0  0  0
    3.0959    3.1682   -0.0326 H   0  0  0  0  0  0  0  0  0  0  0  0
    1.8671   -0.7392   -1.2680 H   0  0  0  0  0  0  0  0  0  0  0  0
    0.8277   -2.7414    0.3839 H   0  0  0  0  0  0  0  0  0  0  0  0
    0.1865   -1.9550    1.8543 H   0  0  0  0  0  0  0  0  0  0  0  0
   -1.3097   -1.8131   -0.5337 H   0  0  0  0  0  0  0  0  0  0  0  0
   -0.6217    0.6280    1.3634 H   0  0  0  0  0  0  0  0  0  0  0  0
   -3.0521    0.8712    0.8079 H   0  0  0  0  0  0  0  0  0  0  0  0
   -2.6856    0.1736   -0.8678 H   0  0  0  0  0  0  0  0  0  0  0  0
   -2.1335    1.8236   -0.4583 H   0  0  0  0  0  0  0  0  0  0  0  0
   -0.3378    0.1310   -1.7628 H   0  0  0  0  0  0  0  0  0  0  0  0
  1  2  3  0
  2  3  1  0
  3  4  1  0
  4  5  1  0
  5  6  1  0
  6  7  1  0
  7  8  1  0
  7  9  1  0
  9  3  1  0
  9  6  1  0
  1 10  1  0
  3 11  1  0
  5 12  1  0
  5 13  1  0
  6 14  1  0
  7 15  1  0
  8 16  1  0
  8 17  1  0
  8 18  1  0
  9 19  1  0
M  END
