
     RDKit          3D

 18 17  0  0  0  0  0  0  0  0999 V2000
    3.1107   -0.6251    0.6695 C   0  0  0  0  0  0  0  0  0  0  0  0
    2.0918   -0.7899    0.0449 C   0  0  0  0  0  0  0  0  0  0  0  0
    0.8544   -0.9996   -0.7423 C   0  0  0  0  0  0  0  0  0  0  0  0
   -0.2137   -0.1396   -0.1157 C   0  0  0  0  0  0  0  0  0  0  0  0
    0.2519    1.2992   -0.1851 C   0  0  0  0  0  0  0  0  0  0  0  0
   -0.6767    2.1467    0.4398 O   0  0  0  0  0  0  0  0  0  0  0  0
   -1.4266   -0.2263   -0.7589 O   0  0  0  0  0  0  0  0  0  0  0  0
   -2.4584   -0.6564    0.0582 C   0  0  0  0  0  0  0  0  0  0  0  0
    4.0018   -0.4649    1.2193 H   0  0  0  0  0  0  0  0  0  0  0  0
    1.0799   -0.7563   -1.7787 H   0  0  0  0  0  0  0  0  0  0  0  0
    0.6196   -2.0801   -0.6278 H   0  0  0  0  0  0  0  0  0  0  0  0
   -0.2815   -0.4328    0.9522 H   0  0  0  0  0  0  0  0  0  0  0  0
    1.1961    1.4165    0.3964 H   0  0  0  0  0  0  0  0  0  0  0  0
    0.3505    1.6599   -1.2238 H   0  0  0  0  0  0  0  0  0  0  0  0
   -0.2416    2.9337    0.8441 H   0  0  0  0  0  0  0  0  0  0  0  0
   -3.3820   -0.6901   -0.5558 H   0  0  0  0  0  0  0  0  0  0  0  0
   -2.2597   -1.6569    0.4529 H   0  0  0  0  0  0  0  0  0  0  0  0
   -2.6166    0.0620    0.9108 H   0  0  0  0  0  0  0  0  0  0  0  0
  1  2  3  0
  2  3  1  0
  3  4  1  0
  4  5  1  0
  5  6  1  0
  4  7  1  0
  7  8  1  0
  1  9  1  0
  3 10  1  0
  3 11  1  0
  4 12  1  0
  5 13  1  0
  5 14  1  0
  6 15  1  0
  8 16  1  0
  8 17  1  0
  8 18  1  0
M  END
