
     RDKit          3D

 17 17  0  0  0  0  0  0  0  0999 V2000
    5.1069    0.7975   -1.4450 C   0  0  0  0  0  0  0  0  0  0  0  0
    4.1507    0.6416   -1.0763 C   0  0  0  0  0  0  0  0  0  0  0  0
    2.7805    0.4350   -0.5310 C   0  0  0  0  0  0  0  0  0  0  0  0
    1.6362    0.2816   -0.0706 C   0  0  0  0  0  0  0  0  0  0  0  0
    0.6786    0.1483    0.3065 C   0  0  0  0  0  0  0  0  0  0  0  0
   -0.5693   -0.0107    0.7993 O   0  0  0  0  0  0  0  0  0  0  0  0
   -1.7038   -0.1412    1.2792 C   0  0  0  0  0  0  0  0  0  0  0  0
   -2.8600    0.3692    0.1568 C   0  0  0  0  0  0  0  0  0  0  0  0
   -2.7218   -1.0150    0.4712 C   0  0  0  0  0  0  0  0  0  0  0  0
    5.8124    0.9092   -1.7278 H   0  0  0  0  0  0  0  0  0  0  0  0
   -0.0095    0.1991   -0.9663 H   0  0  0  0  0  0  0  0  0  0  0  0
    0.6521   -1.3014    0.1565 H   0  0  0  0  0  0  0  0  0  0  0  0
   -2.1779    0.1296    2.2633 H   0  0  0  0  0  0  0  0  0  0  0  0
   -2.5997    1.4350    0.3160 H   0  0  0  0  0  0  0  0  0  0  0  0
   -2.2314    0.3821   -0.9550 H   0  0  0  0  0  0  0  0  0  0  0  0
   -3.5182   -1.4187    1.2490 H   0  0  0  0  0  0  0  0  0  0  0  0
   -2.4259   -1.8411   -0.0839 H   0  0  0  0  0  0  0  0  0  0  0  0
  1  2  3  0
  2  3  1  0
  3  4  3  0
  4  5  1  0
  5  6  1  0
  6  7  1  0
  7  8  1  0
  8  9  1  0
  9  7  1  0
  1 10  1  0
  5 11  1  0
  5 12  1  0
  7 13  1  0
  8 14  1  0
  8 15  1  0
  9 16  1  0
  9 17  1  0
M  END
