
     RDKit          3D

 19 19  0  0  0  0  0  0  0  0999 V2000
    2.8961   -0.2140   -0.4804 C   0  0  0  0  0  0  0  0  0  0  0  0
    1.7361    0.0547   -0.6707 C   0  0  0  0  0  0  0  0  0  0  0  0
    0.3259    0.3943   -0.9108 C   0  0  0  0  0  0  0  0  0  0  0  0
   -0.4160   -0.8422   -1.4342 C   0  0  0  0  0  0  0  0  0  0  0  0
   -0.6485   -1.2119    0.0296 C   0  0  0  0  0  0  0  0  0  0  0  0
   -0.4970    0.2759    0.3427 C   0  0  0  0  0  0  0  0  0  0  0  0
    0.2158    0.5078    1.6327 C   0  0  0  0  0  0  0  0  0  0  0  0
   -1.7740    1.0354    0.1954 C   0  0  0  0  0  0  0  0  0  0  0  0
   -1.7568    2.2021    0.5500 O   0  0  0  0  0  0  0  0  0  0  0  0
    3.9189   -0.4381   -0.3107 H   0  0  0  0  0  0  0  0  0  0  0  0
    0.1396    1.2533   -1.5511 H   0  0  0  0  0  0  0  0  0  0  0  0
    0.2685   -1.4949   -1.9771 H   0  0  0  0  0  0  0  0  0  0  0  0
   -1.3656   -0.5725   -1.9135 H   0  0  0  0  0  0  0  0  0  0  0  0
    0.2128   -1.7466    0.4807 H   0  0  0  0  0  0  0  0  0  0  0  0
   -1.6245   -1.6424    0.2550 H   0  0  0  0  0  0  0  0  0  0  0  0
   -0.4521    1.1545    2.2724 H   0  0  0  0  0  0  0  0  0  0  0  0
    1.1306    1.1017    1.4779 H   0  0  0  0  0  0  0  0  0  0  0  0
    0.3741   -0.4202    2.2132 H   0  0  0  0  0  0  0  0  0  0  0  0
   -2.6836    0.6031   -0.2011 H   0  0  0  0  0  0  0  0  0  0  0  0
  1  2  3  0
  2  3  1  0
  3  4  1  0
  4  5  1  0
  5  6  1  0
  6  7  1  0
  6  8  1  0
  8  9  2  0
  6  3  1  0
  1 10  1  0
  3 11  1  0
  4 12  1  0
  4 13  1  0
  5 14  1  0
  5 15  1  0
  7 16  1  0
  7 17  1  0
  7 18  1  0
  8 19  1  0
M  END
