
     RDKit          3D

 19 19  0  0  0  0  0  0  0  0999 V2000
    2.5250   -1.2739   -1.1331 C   0  0  0  0  0  0  0  0  0  0  0  0
    1.7459   -1.2081   -0.2237 C   0  0  0  0  0  0  0  0  0  0  0  0
    0.8138   -1.1514    0.8512 C   0  0  0  0  0  0  0  0  0  0  0  0
    0.3832   -2.5264    1.0373 O   0  0  0  0  0  0  0  0  0  0  0  0
   -0.3887   -0.3187    0.6110 C   0  0  0  0  0  0  0  0  0  0  0  0
   -1.1121   -0.6617   -0.5155 O   0  0  0  0  0  0  0  0  0  0  0  0
   -0.5778    0.4237   -1.1830 C   0  0  0  0  0  0  0  0  0  0  0  0
   -0.2578    1.0762    0.1154 C   0  0  0  0  0  0  0  0  0  0  0  0
   -1.4324    1.9677    0.5189 C   0  0  0  0  0  0  0  0  0  0  0  0
    3.2724   -1.3499   -1.9837 H   0  0  0  0  0  0  0  0  0  0  0  0
    1.2685   -0.8418    1.8381 H   0  0  0  0  0  0  0  0  0  0  0  0
    0.4450   -2.9426    0.1184 H   0  0  0  0  0  0  0  0  0  0  0  0
   -1.1113   -0.3685    1.4889 H   0  0  0  0  0  0  0  0  0  0  0  0
    0.3009    0.1924   -1.8251 H   0  0  0  0  0  0  0  0  0  0  0  0
   -1.3906    0.9626   -1.7250 H   0  0  0  0  0  0  0  0  0  0  0  0
    0.7097    1.5230    0.2908 H   0  0  0  0  0  0  0  0  0  0  0  0
   -2.3725    1.3838    0.4018 H   0  0  0  0  0  0  0  0  0  0  0  0
   -1.3307    2.3257    1.5336 H   0  0  0  0  0  0  0  0  0  0  0  0
   -1.4902    2.7879   -0.2161 H   0  0  0  0  0  0  0  0  0  0  0  0
  1  2  3  0
  2  3  1  0
  3  4  1  0
  3  5  1  0
  5  6  1  0
  6  7  1  0
  7  8  1  0
  8  9  1  0
  8  5  1  0
  1 10  1  0
  3 11  1  0
  4 12  1  0
  5 13  1  0
  7 14  1  0
  7 15  1  0
  8 16  1  0
  9 17  1  0
  9 18  1  0
  9 19  1  0
M  END
