
     RDKit          3D

 19 19  0  0  0  0  0  0  0  0999 V2000
   -1.7009    2.0351   -2.2304 C   0  0  0  0  0  0  0  0  0  0  0  0
   -1.4898    0.9125   -1.7944 C   0  0  0  0  0  0  0  0  0  0  0  0
   -1.2067   -0.4773   -1.2362 C   0  0  0  0  0  0  0  0  0  0  0  0
   -0.4228   -0.2304    0.0543 C   0  0  0  0  0  0  0  0  0  0  0  0
    0.7222    0.5331   -0.3686 O   0  0  0  0  0  0  0  0  0  0  0  0
    1.3440   -0.0699    0.7648 C   0  0  0  0  0  0  0  0  0  0  0  0
    0.7596    0.5957    2.0059 C   0  0  0  0  0  0  0  0  0  0  0  0
    0.5612   -1.3265    0.4210 C   0  0  0  0  0  0  0  0  0  0  0  0
    1.0472   -2.0474   -0.6387 O   0  0  0  0  0  0  0  0  0  0  0  0
   -1.8751    3.0595   -2.6272 H   0  0  0  0  0  0  0  0  0  0  0  0
   -2.1302   -0.9811   -1.0311 H   0  0  0  0  0  0  0  0  0  0  0  0
   -0.6239   -0.9790   -2.0000 H   0  0  0  0  0  0  0  0  0  0  0  0
   -0.9560    0.1670    0.8990 H   0  0  0  0  0  0  0  0  0  0  0  0
    2.4218   -0.1106    0.6987 H   0  0  0  0  0  0  0  0  0  0  0  0
    0.1215   -0.1336    2.5497 H   0  0  0  0  0  0  0  0  0  0  0  0
    0.2795    1.5386    1.7426 H   0  0  0  0  0  0  0  0  0  0  0  0
    1.5574    0.8530    2.7597 H   0  0  0  0  0  0  0  0  0  0  0  0
    0.2755   -1.8945    1.2937 H   0  0  0  0  0  0  0  0  0  0  0  0
    1.3154   -1.4440   -1.3817 H   0  0  0  0  0  0  0  0  0  0  0  0
  1  2  3  0
  2  3  1  0
  3  4  1  0
  4  5  1  0
  5  6  1  0
  6  7  1  0
  6  8  1  0
  8  9  1  0
  8  4  1  0
  1 10  1  0
  3 11  1  0
  3 12  1  0
  4 13  1  0
  6 14  1  0
  7 15  1  0
  7 16  1  0
  7 17  1  0
  8 18  1  0
  9 19  1  0
M  END
