
     RDKit          3D

 17 17  0  0  0  0  0  0  0  0999 V2000
    2.8876   -1.3408    1.7122 C   0  0  0  0  0  0  0  0  0  0  0  0
    1.9677   -0.8268    1.0714 C   0  0  0  0  0  0  0  0  0  0  0  0
    0.8812   -0.2451    0.3359 C   0  0  0  0  0  0  0  0  0  0  0  0
    0.6341    1.0492    0.5445 C   0  0  0  0  0  0  0  0  0  0  0  0
   -0.3969    1.9043   -0.0539 C   0  0  0  0  0  0  0  0  0  0  0  0
   -1.5373    1.4993   -0.5989 C   0  0  0  0  0  0  0  0  0  0  0  0
   -2.0182    0.1503   -0.7269 C   0  0  0  0  0  0  0  0  0  0  0  0
   -1.2519   -0.9463   -0.7032 C   0  0  0  0  0  0  0  0  0  0  0  0
    0.1760   -1.1618   -0.5571 C   0  0  0  0  0  0  0  0  0  0  0  0
    3.6820   -1.7636    2.2603 H   0  0  0  0  0  0  0  0  0  0  0  0
    1.2972    1.5217    1.2566 H   0  0  0  0  0  0  0  0  0  0  0  0
   -0.2187    2.9688   -0.0550 H   0  0  0  0  0  0  0  0  0  0  0  0
   -2.2142    2.2612   -1.0078 H   0  0  0  0  0  0  0  0  0  0  0  0
   -3.0837    0.0519   -0.8507 H   0  0  0  0  0  0  0  0  0  0  0  0
   -1.8354   -1.8471   -0.8191 H   0  0  0  0  0  0  0  0  0  0  0  0
    0.3706   -2.2047   -0.2350 H   0  0  0  0  0  0  0  0  0  0  0  0
    0.6598   -1.0704   -1.5733 H   0  0  0  0  0  0  0  0  0  0  0  0
  1  2  3  0
  2  3  1  0
  3  4  2  0
  4  5  1  0
  5  6  2  0
  6  7  1  0
  7  8  2  0
  8  9  1  0
  9  3  1  0
  1 10  1  0
  4 11  1  0
  5 12  1  0
  6 13  1  0
  7 14  1  0
  8 15  1  0
  9 16  1  0
  9 17  1  0
M  END
