
     RDKit          3D

 19 21  0  0  0  0  0  0  0  0999 V2000
   -2.0724    1.6403   -0.1512 C   0  0  0  0  0  0  0  0  0  0  0  0
   -1.3709    1.1190    0.2920 C   0  0  0  0  0  0  0  0  0  0  0  0
   -0.4212    0.4076    0.8681 C   0  0  0  0  0  0  0  0  0  0  0  0
   -0.4501   -0.9448    1.5336 C   0  0  0  0  0  0  0  0  0  0  0  0
    0.0306   -0.8919    0.1408 C   0  0  0  0  0  0  0  0  0  0  0  0
   -0.7798   -1.2944   -1.0414 C   0  0  0  0  0  0  0  0  0  0  0  0
    1.4232   -0.3560   -0.0926 C   0  0  0  0  0  0  0  0  0  0  0  0
    1.6786    0.9208   -0.7382 C   0  0  0  0  0  0  0  0  0  0  0  0
    1.1119    0.8784    0.6250 C   0  0  0  0  0  0  0  0  0  0  0  0
   -3.1952    2.4745   -0.8462 H   0  0  0  0  0  0  0  0  0  0  0  0
    0.3357   -1.1867    2.2704 H   0  0  0  0  0  0  0  0  0  0  0  0
   -1.4200   -1.3015    1.8168 H   0  0  0  0  0  0  0  0  0  0  0  0
   -1.2620   -2.3238   -0.8944 H   0  0  0  0  0  0  0  0  0  0  0  0
   -1.5093   -0.5002   -1.2498 H   0  0  0  0  0  0  0  0  0  0  0  0
   -0.0217   -1.4670   -1.8752 H   0  0  0  0  0  0  0  0  0  0  0  0
    2.3144   -0.9290    0.2390 H   0  0  0  0  0  0  0  0  0  0  0  0
    2.7585    1.2742   -0.7269 H   0  0  0  0  0  0  0  0  0  0  0  0
    1.1994    1.2570   -1.6669 H   0  0  0  0  0  0  0  0  0  0  0  0
    1.6502    1.2236    1.4971 H   0  0  0  0  0  0  0  0  0  0  0  0
  1  2  3  0
  2  3  1  0
  3  4  1  0
  4  5  1  0
  5  6  1  0
  5  7  1  0
  7  8  1  0
  8  9  1  0
  5  3  1  0
  9  7  1  0
  9  3  1  0
  1 10  1  0
  4 11  1  0
  4 12  1  0
  6 13  1  0
  6 14  1  0
  6 15  1  0
  7 16  1  0
  8 17  1  0
  8 18  1  0
  9 19  1  0
M  END
