
     RDKit          3D

 17 16  0  0  0  0  0  0  0  0999 V2000
    4.3191   -0.0511   -1.1980 C   0  0  0  0  0  0  0  0  0  0  0  0
    3.1074   -0.1707   -1.3358 C   0  0  0  0  0  0  0  0  0  0  0  0
    1.6589   -0.3008   -1.4963 C   0  0  0  0  0  0  0  0  0  0  0  0
    1.0050   -0.0334   -0.2589 O   0  0  0  0  0  0  0  0  0  0  0  0
   -0.3782   -0.0987   -0.1756 C   0  0  0  0  0  0  0  0  0  0  0  0
   -1.0222   -0.3963   -1.2096 O   0  0  0  0  0  0  0  0  0  0  0  0
   -1.0655    0.1775    1.1056 C   0  0  0  0  0  0  0  0  0  0  0  0
   -2.5571    0.0329    0.8977 C   0  0  0  0  0  0  0  0  0  0  0  0
   -3.2483    0.2847    2.0818 O   0  0  0  0  0  0  0  0  0  0  0  0
    5.3629    0.0686   -1.0716 H   0  0  0  0  0  0  0  0  0  0  0  0
    1.2959    0.3853   -2.2990 H   0  0  0  0  0  0  0  0  0  0  0  0
    1.4403   -1.3304   -1.8451 H   0  0  0  0  0  0  0  0  0  0  0  0
   -0.8842    1.2096    1.4698 H   0  0  0  0  0  0  0  0  0  0  0  0
   -0.7452   -0.5056    1.8924 H   0  0  0  0  0  0  0  0  0  0  0  0
   -2.7609   -1.0089    0.6076 H   0  0  0  0  0  0  0  0  0  0  0  0
   -2.8427    0.7440    0.0993 H   0  0  0  0  0  0  0  0  0  0  0  0
   -2.6850    0.7773    2.7357 H   0  0  0  0  0  0  0  0  0  0  0  0
  1  2  3  0
  2  3  1  0
  3  4  1  0
  4  5  1  0
  5  6  2  0
  5  7  1  0
  7  8  1  0
  8  9  1  0
  1 10  1  0
  3 11  1  0
  3 12  1  0
  7 13  1  0
  7 14  1  0
  8 15  1  0
  8 16  1  0
  9 17  1  0
M  END
