
     RDKit          3D

 19 19  0  0  0  0  0  0  0  0999 V2000
    2.0841    1.2873   -0.9286 C   0  0  0  0  0  0  0  0  0  0  0  0
    1.2385    0.5103   -1.2456 C   0  0  0  0  0  0  0  0  0  0  0  0
    0.0283   -0.6233   -1.6997 C   0  0  0  0  0  0  0  0  0  0  0  0
    0.8688   -1.9131   -0.8386 C   0  0  0  0  0  0  0  0  0  0  0  0
   -0.7014   -0.3030   -0.7360 O   0  0  0  0  0  0  0  0  0  0  0  0
   -0.3925    0.1514    0.4940 C   0  0  0  0  0  0  0  0  0  0  0  0
   -1.2372   -0.2646    1.6808 C   0  0  0  0  0  0  0  0  0  0  0  0
   -1.3897    1.1033    1.1323 C   0  0  0  0  0  0  0  0  0  0  0  0
   -0.8782    2.2033    1.8140 O   0  0  0  0  0  0  0  0  0  0  0  0
    2.8129    1.9514   -0.6553 H   0  0  0  0  0  0  0  0  0  0  0  0
    0.6208   -0.8833   -2.4823 H   0  0  0  0  0  0  0  0  0  0  0  0
    0.7538   -2.6857   -1.5636 H   0  0  0  0  0  0  0  0  0  0  0  0
    0.3039   -1.9911    0.0492 H   0  0  0  0  0  0  0  0  0  0  0  0
    1.8304   -1.4703   -0.7618 H   0  0  0  0  0  0  0  0  0  0  0  0
    0.6703    0.3010    0.7118 H   0  0  0  0  0  0  0  0  0  0  0  0
   -0.6992   -0.3671    2.6342 H   0  0  0  0  0  0  0  0  0  0  0  0
   -2.0777   -0.9762    1.4566 H   0  0  0  0  0  0  0  0  0  0  0  0
   -2.3174    1.3495    0.5630 H   0  0  0  0  0  0  0  0  0  0  0  0
   -1.5185    2.6200    2.4188 H   0  0  0  0  0  0  0  0  0  0  0  0
  1  2  3  0
  2  3  1  0
  3  4  1  0
  3  5  1  0
  5  6  1  0
  6  7  1  0
  7  8  1  0
  8  9  1  0
  8  6  1  0
  1 10  1  0
  3 11  1  0
  4 12  1  0
  4 13  1  0
  4 14  1  0
  6 15  1  0
  7 16  1  0
  7 17  1  0
  8 18  1  0
  9 19  1  0
M  END
