
     RDKit          3D

 19 19  0  0  0  0  0  0  0  0999 V2000
   -1.8744    1.8570    2.2166 C   0  0  0  0  0  0  0  0  0  0  0  0
   -1.4359    1.1251    1.3641 C   0  0  0  0  0  0  0  0  0  0  0  0
   -0.8820    0.2115    0.3292 C   0  0  0  0  0  0  0  0  0  0  0  0
    0.4735    0.1800    0.3288 O   0  0  0  0  0  0  0  0  0  0  0  0
    1.0954   -0.6225   -0.5749 C   0  0  0  0  0  0  0  0  0  0  0  0
    2.6018   -0.5001   -0.3886 C   0  0  0  0  0  0  0  0  0  0  0  0
    3.0244    0.8196   -0.5835 O   0  0  0  0  0  0  0  0  0  0  0  0
   -1.5911    0.1977   -0.9635 C   0  0  0  0  0  0  0  0  0  0  0  0
   -1.7373   -0.9447    0.0034 C   0  0  0  0  0  0  0  0  0  0  0  0
   -2.2478    2.4985    2.9810 H   0  0  0  0  0  0  0  0  0  0  0  0
    0.8264   -1.6785   -0.4581 H   0  0  0  0  0  0  0  0  0  0  0  0
    0.9060   -0.2477   -1.6198 H   0  0  0  0  0  0  0  0  0  0  0  0
    2.8778   -0.8120    0.6386 H   0  0  0  0  0  0  0  0  0  0  0  0
    3.0637   -1.1129   -1.1797 H   0  0  0  0  0  0  0  0  0  0  0  0
    2.5391    1.1600   -1.3825 H   0  0  0  0  0  0  0  0  0  0  0  0
   -2.5228    0.8228   -1.0751 H   0  0  0  0  0  0  0  0  0  0  0  0
   -1.0855    0.0126   -1.9265 H   0  0  0  0  0  0  0  0  0  0  0  0
   -1.3345   -1.9031   -0.3633 H   0  0  0  0  0  0  0  0  0  0  0  0
   -2.6968   -1.0633    0.5466 H   0  0  0  0  0  0  0  0  0  0  0  0
  1  2  3  0
  2  3  1  0
  3  4  1  0
  4  5  1  0
  5  6  1  0
  6  7  1  0
  3  8  1  0
  8  9  1  0
  9  3  1  0
  1 10  1  0
  5 11  1  0
  5 12  1  0
  6 13  1  0
  6 14  1  0
  7 15  1  0
  8 16  1  0
  8 17  1  0
  9 18  1  0
  9 19  1  0
M  END
