
     RDKit          3D

 15 14  0  0  0  0  0  0  0  0999 V2000
   -1.1115    2.5610    1.1847 C   0  0  0  0  0  0  0  0  0  0  0  0
   -1.3678    1.4048    0.9750 C   0  0  0  0  0  0  0  0  0  0  0  0
   -1.6674    0.0337    0.7014 C   0  0  0  0  0  0  0  0  0  0  0  0
   -2.2362   -0.7143    1.5055 O   0  0  0  0  0  0  0  0  0  0  0  0
   -1.2684   -0.5044   -0.6237 C   0  0  0  0  0  0  0  0  0  0  0  0
   -1.6418   -1.8408   -0.7821 O   0  0  0  0  0  0  0  0  0  0  0  0
    0.2166   -0.4763   -0.7305 C   0  0  0  0  0  0  0  0  0  0  0  0
    1.4232   -0.4495   -0.7995 C   0  0  0  0  0  0  0  0  0  0  0  0
    2.8855   -0.4219   -0.8581 C   0  0  0  0  0  0  0  0  0  0  0  0
   -0.8694    3.5705    1.3643 H   0  0  0  0  0  0  0  0  0  0  0  0
   -1.7372    0.1434   -1.3895 H   0  0  0  0  0  0  0  0  0  0  0  0
   -2.4365   -2.0488   -0.1917 H   0  0  0  0  0  0  0  0  0  0  0  0
    3.2711    0.5623   -0.5168 H   0  0  0  0  0  0  0  0  0  0  0  0
    3.3077   -1.1935   -0.1706 H   0  0  0  0  0  0  0  0  0  0  0  0
    3.2322   -0.6263   -1.9136 H   0  0  0  0  0  0  0  0  0  0  0  0
  1  2  3  0
  2  3  1  0
  3  4  2  0
  3  5  1  0
  5  6  1  0
  5  7  1  0
  7  8  3  0
  8  9  1  0
  1 10  1  0
  5 11  1  0
  6 12  1  0
  9 13  1  0
  9 14  1  0
  9 15  1  0
M  END
