
     RDKit          3D

 23 23  0  0  0  0  0  0  0  0999 V2000
   -2.2084    2.7140   -0.3103 C   0  0  0  0  0  0  0  0  0  0  0  0
   -1.4613    1.7899   -0.0297 C   0  0  0  0  0  0  0  0  0  0  0  0
   -0.5628    0.6749    0.2823 C   0  0  0  0  0  0  0  0  0  0  0  0
    0.7341    0.7667   -0.4984 C   0  0  0  0  0  0  0  0  0  0  0  0
    1.9172    1.2155    0.3255 C   0  0  0  0  0  0  0  0  0  0  0  0
    0.6185   -0.7471   -0.6626 C   0  0  0  0  0  0  0  0  0  0  0  0
    1.2416   -1.4767    0.5190 C   0  0  0  0  0  0  0  0  0  0  0  0
   -0.8786   -0.5532   -0.5395 C   0  0  0  0  0  0  0  0  0  0  0  0
   -1.6462   -1.6286    0.1280 C   0  0  0  0  0  0  0  0  0  0  0  0
   -2.8624    3.5123   -0.5546 H   0  0  0  0  0  0  0  0  0  0  0  0
   -0.4024    0.5000    1.3629 H   0  0  0  0  0  0  0  0  0  0  0  0
    0.6342    1.2850   -1.4733 H   0  0  0  0  0  0  0  0  0  0  0  0
    2.7794    1.2962   -0.3736 H   0  0  0  0  0  0  0  0  0  0  0  0
    1.6803    2.2329    0.7237 H   0  0  0  0  0  0  0  0  0  0  0  0
    2.1159    0.5029    1.1410 H   0  0  0  0  0  0  0  0  0  0  0  0
    0.9819   -1.0645   -1.6434 H   0  0  0  0  0  0  0  0  0  0  0  0
    0.8822   -1.0870    1.4746 H   0  0  0  0  0  0  0  0  0  0  0  0
    1.0259   -2.5567    0.4476 H   0  0  0  0  0  0  0  0  0  0  0  0
    2.3524   -1.3767    0.3874 H   0  0  0  0  0  0  0  0  0  0  0  0
   -1.2811   -0.2482   -1.5281 H   0  0  0  0  0  0  0  0  0  0  0  0
   -2.3021   -1.2379    0.9373 H   0  0  0  0  0  0  0  0  0  0  0  0
   -1.0078   -2.4396    0.5109 H   0  0  0  0  0  0  0  0  0  0  0  0
   -2.3504   -2.0741   -0.6268 H   0  0  0  0  0  0  0  0  0  0  0  0
  1  2  3  0
  2  3  1  0
  3  4  1  0
  4  5  1  0
  4  6  1  0
  6  7  1  0
  6  8  1  0
  8  9  1  0
  8  3  1  0
  1 10  1  0
  3 11  1  0
  4 12  1  0
  5 13  1  0
  5 14  1  0
  5 15  1  0
  6 16  1  0
  7 17  1  0
  7 18  1  0
  7 19  1  0
  8 20  1  0
  9 21  1  0
  9 22  1  0
  9 23  1  0
M  END
