
     RDKit          3D

 21 20  0  0  0  0  0  0  0  0999 V2000
   -2.1212    1.8056   -1.4022 C   0  0  0  0  0  0  0  0  0  0  0  0
   -1.4143    1.2899   -0.7589 C   0  0  0  0  0  0  0  0  0  0  0  0
   -0.5490    0.6454    0.0094 C   0  0  0  0  0  0  0  0  0  0  0  0
   -1.6876    0.0482    1.1738 C   0  0  0  0  0  0  0  0  0  0  0  0
   -2.4777   -0.7188    0.2657 O   0  0  0  0  0  0  0  0  0  0  0  0
   -0.1440   -0.7121   -0.4746 C   0  0  0  0  0  0  0  0  0  0  0  0
    0.8545   -1.3101    0.1537 O   0  0  0  0  0  0  0  0  0  0  0  0
    2.0235   -0.7373    0.4503 C   0  0  0  0  0  0  0  0  0  0  0  0
    2.7057    0.1453   -0.5540 C   0  0  0  0  0  0  0  0  0  0  0  0
   -2.9984    2.4448   -2.2072 H   0  0  0  0  0  0  0  0  0  0  0  0
    0.1287    1.1742    0.6827 H   0  0  0  0  0  0  0  0  0  0  0  0
   -2.2411    0.8684    1.4697 H   0  0  0  0  0  0  0  0  0  0  0  0
   -1.1177   -0.6098    1.7674 H   0  0  0  0  0  0  0  0  0  0  0  0
   -3.0172   -1.3270    0.8163 H   0  0  0  0  0  0  0  0  0  0  0  0
   -0.5955   -1.0112   -1.4076 H   0  0  0  0  0  0  0  0  0  0  0  0
   -1.0464   -1.3761    0.1975 H   0  0  0  0  0  0  0  0  0  0  0  0
    2.7659   -1.6491    0.5220 H   0  0  0  0  0  0  0  0  0  0  0  0
    2.1336   -0.2699    1.4473 H   0  0  0  0  0  0  0  0  0  0  0  0
    2.8272   -0.1963   -1.5685 H   0  0  0  0  0  0  0  0  0  0  0  0
    3.7416    0.3202   -0.1264 H   0  0  0  0  0  0  0  0  0  0  0  0
    2.2297    1.1757   -0.4563 H   0  0  0  0  0  0  0  0  0  0  0  0
  1  2  3  0
  2  3  1  0
  3  4  1  0
  4  5  1  0
  3  6  1  0
  6  7  1  0
  7  8  1  0
  8  9  1  0
  1 10  1  0
  3 11  1  0
  4 12  1  0
  4 13  1  0
  5 14  1  0
  6 15  1  0
  6 16  1  0
  8 17  1  0
  8 18  1  0
  9 19  1  0
  9 20  1  0
  9 21  1  0
M  END
