
     RDKit          3D

 12 12  0  0  0  0  0  0  0  0999 V2000
    2.6298    1.0812   -1.0717 C   0  0  0  0  0  0  0  0  0  0  0  0
    1.5892    0.6745   -0.6252 C   0  0  0  0  0  0  0  0  0  0  0  0
    0.3414    0.1850   -0.0703 C   0  0  0  0  0  0  0  0  0  0  0  0
   -0.5216   -0.6537   -0.6175 C   0  0  0  0  0  0  0  0  0  0  0  0
   -1.6741   -0.8898    0.2942 C   0  0  0  0  0  0  0  0  0  0  0  0
   -1.3804   -0.1087    1.4267 O   0  0  0  0  0  0  0  0  0  0  0  0
   -0.1894    0.5518    1.2490 C   0  0  0  0  0  0  0  0  0  0  0  0
    0.3767    1.3474    2.0676 O   0  0  0  0  0  0  0  0  0  0  0  0
    3.5532    1.4230   -1.4708 H   0  0  0  0  0  0  0  0  0  0  0  0
   -0.3619   -1.0849   -1.6030 H   0  0  0  0  0  0  0  0  0  0  0  0
   -2.6075   -0.5513   -0.1840 H   0  0  0  0  0  0  0  0  0  0  0  0
   -1.7554   -1.9743    0.6050 H   0  0  0  0  0  0  0  0  0  0  0  0
  1  2  3  0
  2  3  1  0
  3  4  2  0
  4  5  1  0
  5  6  1  0
  6  7  1  0
  7  8  2  0
  7  3  1  0
  1  9  1  0
  4 10  1  0
  5 11  1  0
  5 12  1  0
M  END
