
     RDKit          3D

 17 16  0  0  0  0  0  0  0  0999 V2000
   -0.4910    3.0651    0.4251 C   0  0  0  0  0  0  0  0  0  0  0  0
   -0.1956    1.9031   -0.1172 C   0  0  0  0  0  0  0  0  0  0  0  0
    0.1759    0.5373   -0.7494 C   0  0  0  0  0  0  0  0  0  0  0  0
    0.8481   -0.1915    0.0573 C   0  0  0  0  0  0  0  0  0  0  0  0
    1.6386   -1.0543    0.9792 C   0  0  0  0  0  0  0  0  0  0  0  0
    2.3694   -1.8338    1.7976 C   0  0  0  0  0  0  0  0  0  0  0  0
   -1.2387   -0.0121   -0.9738 C   0  0  0  0  0  0  0  0  0  0  0  0
   -2.0971   -0.0608    0.2208 C   0  0  0  0  0  0  0  0  0  0  0  0
   -1.5993   -0.3857   -2.0480 O   0  0  0  0  0  0  0  0  0  0  0  0
   -0.6741    3.8363    0.7754 H   0  0  0  0  0  0  0  0  0  0  0  0
    0.6109    0.8414   -1.7771 H   0  0  0  0  0  0  0  0  0  0  0  0
    2.7055   -1.2077    2.6888 H   0  0  0  0  0  0  0  0  0  0  0  0
    1.6962   -2.6798    2.1033 H   0  0  0  0  0  0  0  0  0  0  0  0
    3.2472   -2.3245    1.2395 H   0  0  0  0  0  0  0  0  0  0  0  0
   -2.9171    0.7000    0.2660 H   0  0  0  0  0  0  0  0  0  0  0  0
   -2.6393   -1.0313    0.2556 H   0  0  0  0  0  0  0  0  0  0  0  0
   -1.4395   -0.1016    1.1485 H   0  0  0  0  0  0  0  0  0  0  0  0
  1  2  3  0
  2  3  1  0
  3  4  1  0
  4  5  3  0
  5  6  1  0
  3  7  1  0
  7  8  1  0
  7  9  2  0
  1 10  1  0
  3 11  1  0
  6 12  1  0
  6 13  1  0
  6 14  1  0
  8 15  1  0
  8 16  1  0
  8 17  1  0
M  END
