
     RDKit          3D

 14 14  0  0  0  0  0  0  0  0999 V2000
    2.4861    0.5308   -0.9160 C   0  0  0  0  0  0  0  0  0  0  0  0
    1.6395    0.0566   -0.7132 C   0  0  0  0  0  0  0  0  0  0  0  0
    0.3142   -0.6959   -0.4116 C   0  0  0  0  0  0  0  0  0  0  0  0
    0.0262   -0.8804    1.0205 C   0  0  0  0  0  0  0  0  0  0  0  0
   -0.6720    0.2317    0.2428 C   0  0  0  0  0  0  0  0  0  0  0  0
   -0.2457    1.5197    0.6460 O   0  0  0  0  0  0  0  0  0  0  0  0
   -2.0760    0.0881   -0.1013 C   0  0  0  0  0  0  0  0  0  0  0  0
   -2.5162   -0.9379   -0.5963 O   0  0  0  0  0  0  0  0  0  0  0  0
    3.5193    1.0856   -1.1629 H   0  0  0  0  0  0  0  0  0  0  0  0
    0.1011   -1.5374   -1.0232 H   0  0  0  0  0  0  0  0  0  0  0  0
    0.7616   -0.6717    1.7709 H   0  0  0  0  0  0  0  0  0  0  0  0
   -0.7509   -1.6480    1.3465 H   0  0  0  0  0  0  0  0  0  0  0  0
    0.1932    1.9333   -0.1978 H   0  0  0  0  0  0  0  0  0  0  0  0
   -2.7804    0.9254    0.0958 H   0  0  0  0  0  0  0  0  0  0  0  0
  1  2  3  0
  2  3  1  0
  3  4  1  0
  4  5  1  0
  5  6  1  0
  5  7  1  0
  7  8  2  0
  5  3  1  0
  1  9  1  0
  3 10  1  0
  4 11  1  0
  4 12  1  0
  6 13  1  0
  7 14  1  0
M  END
