
     RDKit          3D

 23 23  0  0  0  0  0  0  0  0999 V2000
    2.8966    1.6427    1.4147 C   0  0  0  0  0  0  0  0  0  0  0  0
    1.7506    1.7124    1.0459 C   0  0  0  0  0  0  0  0  0  0  0  0
    0.3575    1.7728    0.5898 C   0  0  0  0  0  0  0  0  0  0  0  0
   -0.1503    0.3495    0.4988 C   0  0  0  0  0  0  0  0  0  0  0  0
    0.6604   -0.4581   -0.4665 C   0  0  0  0  0  0  0  0  0  0  0  0
    1.1084   -1.8079    0.0390 C   0  0  0  0  0  0  0  0  0  0  0  0
   -0.4604   -0.4794   -1.4568 C   0  0  0  0  0  0  0  0  0  0  0  0
   -1.3145    0.2853   -0.4806 C   0  0  0  0  0  0  0  0  0  0  0  0
   -2.4890   -0.5121   -0.0198 C   0  0  0  0  0  0  0  0  0  0  0  0
    3.9007    1.5971    1.7460 H   0  0  0  0  0  0  0  0  0  0  0  0
    0.3413    2.2487   -0.4266 H   0  0  0  0  0  0  0  0  0  0  0  0
   -0.2373    2.4031    1.2596 H   0  0  0  0  0  0  0  0  0  0  0  0
   -0.4248   -0.1229    1.4384 H   0  0  0  0  0  0  0  0  0  0  0  0
    1.5414    0.0712   -0.9110 H   0  0  0  0  0  0  0  0  0  0  0  0
    0.2649   -2.4405    0.3674 H   0  0  0  0  0  0  0  0  0  0  0  0
    1.7886   -1.6472    0.8793 H   0  0  0  0  0  0  0  0  0  0  0  0
    1.6689   -2.3137   -0.7674 H   0  0  0  0  0  0  0  0  0  0  0  0
   -0.8680   -1.4738   -1.7298 H   0  0  0  0  0  0  0  0  0  0  0  0
   -0.2818    0.0938   -2.4076 H   0  0  0  0  0  0  0  0  0  0  0  0
   -1.6488    1.2907   -0.8598 H   0  0  0  0  0  0  0  0  0  0  0  0
   -3.4192   -0.1423   -0.5383 H   0  0  0  0  0  0  0  0  0  0  0  0
   -2.3431   -1.5778   -0.2907 H   0  0  0  0  0  0  0  0  0  0  0  0
   -2.6422   -0.4915    1.0761 H   0  0  0  0  0  0  0  0  0  0  0  0
  1  2  3  0
  2  3  1  0
  3  4  1  0
  4  5  1  0
  5  6  1  0
  5  7  1  0
  7  8  1  0
  8  9  1  0
  8  4  1  0
  1 10  1  0
  3 11  1  0
  3 12  1  0
  4 13  1  0
  5 14  1  0
  6 15  1  0
  6 16  1  0
  6 17  1  0
  7 18  1  0
  7 19  1  0
  8 20  1  0
  9 21  1  0
  9 22  1  0
  9 23  1  0
M  END
