
     RDKit          3D

 18 18  0  0  0  0  0  0  0  0999 V2000
    2.7227    1.1979    0.4618 C   0  0  0  0  0  0  0  0  0  0  0  0
    1.5396    1.3161    0.2176 C   0  0  0  0  0  0  0  0  0  0  0  0
    0.1125    1.4558   -0.0942 C   0  0  0  0  0  0  0  0  0  0  0  0
   -0.4917    0.0612    0.0603 C   0  0  0  0  0  0  0  0  0  0  0  0
   -0.2910   -0.4246    1.4709 C   0  0  0  0  0  0  0  0  0  0  0  0
   -0.0316   -0.8522   -1.0223 C   0  0  0  0  0  0  0  0  0  0  0  0
   -1.5178   -1.1302   -1.0730 C   0  0  0  0  0  0  0  0  0  0  0  0
   -1.8165   -0.0124   -0.3060 O   0  0  0  0  0  0  0  0  0  0  0  0
    3.7402    1.0892    0.6826 H   0  0  0  0  0  0  0  0  0  0  0  0
   -0.3074    2.1570    0.6306 H   0  0  0  0  0  0  0  0  0  0  0  0
   -0.0620    1.7676   -1.1446 H   0  0  0  0  0  0  0  0  0  0  0  0
   -0.5519   -1.4807    1.6102 H   0  0  0  0  0  0  0  0  0  0  0  0
   -0.9320    0.2117    2.1269 H   0  0  0  0  0  0  0  0  0  0  0  0
    0.7670   -0.2000    1.7779 H   0  0  0  0  0  0  0  0  0  0  0  0
    0.3066   -0.3465   -1.9552 H   0  0  0  0  0  0  0  0  0  0  0  0
    0.5877   -1.7181   -0.7127 H   0  0  0  0  0  0  0  0  0  0  0  0
   -1.8283   -2.0964   -0.6334 H   0  0  0  0  0  0  0  0  0  0  0  0
   -1.9462   -0.9952   -2.0973 H   0  0  0  0  0  0  0  0  0  0  0  0
  1  2  3  0
  2  3  1  0
  3  4  1  0
  4  5  1  0
  4  6  1  0
  6  7  1  0
  7  8  1  0
  8  4  1  0
  1  9  1  0
  3 10  1  0
  3 11  1  0
  5 12  1  0
  5 13  1  0
  5 14  1  0
  6 15  1  0
  6 16  1  0
  7 17  1  0
  7 18  1  0
M  END
