
     RDKit          3D

 16 15  0  0  0  0  0  0  0  0999 V2000
    2.6607    1.9341   -1.4544 C   0  0  0  0  0  0  0  0  0  0  0  0
    1.6765    1.4300   -1.2767 C   0  0  0  0  0  0  0  0  0  0  0  0
    0.6641    0.9200   -1.1133 C   0  0  0  0  0  0  0  0  0  0  0  0
    0.7348    1.2457    0.6347 O   0  0  0  0  0  0  0  0  0  0  0  0
   -0.5905    0.2832   -0.9406 C   0  0  0  0  0  0  0  0  0  0  0  0
   -0.9447   -1.0221   -0.4498 C   0  0  0  0  0  0  0  0  0  0  0  0
   -0.3881   -1.2892    0.9316 C   0  0  0  0  0  0  0  0  0  0  0  0
   -0.8967   -0.3886    1.8466 O   0  0  0  0  0  0  0  0  0  0  0  0
    3.9174    2.5533   -1.6673 H   0  0  0  0  0  0  0  0  0  0  0  0
   -1.1648    1.0145   -0.1682 H   0  0  0  0  0  0  0  0  0  0  0  0
   -1.2405    0.4935   -1.8846 H   0  0  0  0  0  0  0  0  0  0  0  0
   -2.0853   -0.9751   -0.2000 H   0  0  0  0  0  0  0  0  0  0  0  0
   -0.8835   -1.9053   -1.1128 H   0  0  0  0  0  0  0  0  0  0  0  0
   -0.6653   -2.3028    1.3193 H   0  0  0  0  0  0  0  0  0  0  0  0
    0.7240   -1.1567    0.9537 H   0  0  0  0  0  0  0  0  0  0  0  0
   -1.5180   -0.8342    2.5011 H   0  0  0  0  0  0  0  0  0  0  0  0
  1  2  3  0
  2  3  1  0
  3  4  2  0
  3  5  1  0
  5  6  1  0
  6  7  1  0
  7  8  1  0
  1  9  1  0
  5 10  1  0
  5 11  1  0
  6 12  1  0
  6 13  1  0
  7 14  1  0
  7 15  1  0
  8 16  1  0
M  END
