
     RDKit          3D

 16 15  0  0  0  0  0  0  0  0999 V2000
    3.8307    0.9181   -2.2216 C   0  0  0  0  0  0  0  0  0  0  0  0
    2.9441    0.8235   -1.9620 C   0  0  0  0  0  0  0  0  0  0  0  0
    1.6719    0.7014   -1.5700 C   0  0  0  0  0  0  0  0  0  0  0  0
    0.0029    0.5698   -1.0456 C   0  0  0  0  0  0  0  0  0  0  0  0
   -1.4562    0.4382   -0.5695 C   0  0  0  0  0  0  0  0  0  0  0  0
   -1.4216    1.4678    0.4411 O   0  0  0  0  0  0  0  0  0  0  0  0
   -1.4504   -0.9390    0.0368 C   0  0  0  0  0  0  0  0  0  0  0  0
   -0.5497   -1.1185    1.2162 C   0  0  0  0  0  0  0  0  0  0  0  0
    4.8593    1.0260   -2.5408 H   0  0  0  0  0  0  0  0  0  0  0  0
   -2.0166    0.6240   -1.3945 H   0  0  0  0  0  0  0  0  0  0  0  0
   -2.3183    2.0246    0.2141 H   0  0  0  0  0  0  0  0  0  0  0  0
   -2.4129   -1.4176    0.1983 H   0  0  0  0  0  0  0  0  0  0  0  0
   -0.8697   -1.5827   -0.7597 H   0  0  0  0  0  0  0  0  0  0  0  0
    0.3960   -1.6213    0.9004 H   0  0  0  0  0  0  0  0  0  0  0  0
   -0.2156   -0.1439    1.6934 H   0  0  0  0  0  0  0  0  0  0  0  0
   -0.9939   -1.7703    1.9918 H   0  0  0  0  0  0  0  0  0  0  0  0
  1  2  3  0
  2  3  1  0
  3  4  3  0
  4  5  1  0
  5  6  1  0
  5  7  1  0
  7  8  1  0
  1  9  1  0
  5 10  1  0
  6 11  1  0
  7 12  1  0
  7 13  1  0
  8 14  1  0
  8 15  1  0
  8 16  1  0
M  END
