
     RDKit          3D

 21 22  0  0  0  0  0  0  0  0999 V2000
    2.8549    1.7489   -0.0707 C   0  0  0  0  0  0  0  0  0  0  0  0
    2.1232    0.8443   -0.4584 C   0  0  0  0  0  0  0  0  0  0  0  0
    1.2375   -0.2169   -0.9239 C   0  0  0  0  0  0  0  0  0  0  0  0
    1.1267   -1.4059    0.0296 C   0  0  0  0  0  0  0  0  0  0  0  0
   -0.3660   -1.2264   -0.0215 C   0  0  0  0  0  0  0  0  0  0  0  0
   -0.2231    0.1042   -0.7953 C   0  0  0  0  0  0  0  0  0  0  0  0
   -0.9600    0.0414    0.4655 C   0  0  0  0  0  0  0  0  0  0  0  0
   -0.3888    0.6427    1.7567 C   0  0  0  0  0  0  0  0  0  0  0  0
   -2.4719    0.0840    0.3972 C   0  0  0  0  0  0  0  0  0  0  0  0
    3.5068    2.5357    0.2546 H   0  0  0  0  0  0  0  0  0  0  0  0
    1.5381   -0.5261   -1.9522 H   0  0  0  0  0  0  0  0  0  0  0  0
    1.4801   -2.3315   -0.4303 H   0  0  0  0  0  0  0  0  0  0  0  0
    1.5168   -1.1209    1.0080 H   0  0  0  0  0  0  0  0  0  0  0  0
   -0.9318   -2.0153   -0.5110 H   0  0  0  0  0  0  0  0  0  0  0  0
   -0.7670    0.1464   -1.7425 H   0  0  0  0  0  0  0  0  0  0  0  0
   -0.0050   -0.2248    2.3723 H   0  0  0  0  0  0  0  0  0  0  0  0
   -1.1672    1.2042    2.2933 H   0  0  0  0  0  0  0  0  0  0  0  0
    0.4360    1.3141    1.5100 H   0  0  0  0  0  0  0  0  0  0  0  0
   -2.7398    0.5633   -0.5895 H   0  0  0  0  0  0  0  0  0  0  0  0
   -2.9148   -0.9282    0.4853 H   0  0  0  0  0  0  0  0  0  0  0  0
   -2.8848    0.7669    1.1700 H   0  0  0  0  0  0  0  0  0  0  0  0
  1  2  3  0
  2  3  1  0
  3  4  1  0
  4  5  1  0
  5  6  1  0
  6  7  1  0
  7  8  1  0
  7  9  1  0
  6  3  1  0
  7  5  1  0
  1 10  1  0
  3 11  1  0
  4 12  1  0
  4 13  1  0
  5 14  1  0
  6 15  1  0
  8 16  1  0
  8 17  1  0
  8 18  1  0
  9 19  1  0
  9 20  1  0
  9 21  1  0
M  END
