
     RDKit          3D

 19 20  0  0  0  0  0  0  0  0999 V2000
    3.4864    1.2964   -1.4193 C   0  0  0  0  0  0  0  0  0  0  0  0
    2.5499    0.3516   -1.3254 C   0  0  0  0  0  0  0  0  0  0  0  0
    1.6904   -0.5404   -1.2340 C   0  0  0  0  0  0  0  0  0  0  0  0
    1.9675   -1.7322   -0.3498 O   0  0  0  0  0  0  0  0  0  0  0  0
    1.0024   -0.7794    0.0926 C   0  0  0  0  0  0  0  0  0  0  0  0
   -0.5104   -0.9061    0.0269 C   0  0  0  0  0  0  0  0  0  0  0  0
   -1.2496   -0.0519   -0.9552 C   0  0  0  0  0  0  0  0  0  0  0  0
   -1.1563    0.4160    0.4879 C   0  0  0  0  0  0  0  0  0  0  0  0
   -2.4048    0.3501    1.3013 C   0  0  0  0  0  0  0  0  0  0  0  0
    4.4059    2.2268   -1.4887 H   0  0  0  0  0  0  0  0  0  0  0  0
    1.2087   -1.0957   -2.1410 H   0  0  0  0  0  0  0  0  0  0  0  0
    1.4456   -0.1335    0.9078 H   0  0  0  0  0  0  0  0  0  0  0  0
   -0.9832   -1.7615    0.4787 H   0  0  0  0  0  0  0  0  0  0  0  0
   -0.6793    0.4145   -1.7545 H   0  0  0  0  0  0  0  0  0  0  0  0
   -2.2961   -0.3306   -1.2949 H   0  0  0  0  0  0  0  0  0  0  0  0
   -0.4217    1.1976    0.7550 H   0  0  0  0  0  0  0  0  0  0  0  0
   -2.0702    0.6318    2.3576 H   0  0  0  0  0  0  0  0  0  0  0  0
   -3.1108    1.1005    0.9661 H   0  0  0  0  0  0  0  0  0  0  0  0
   -2.8744   -0.6540    1.3589 H   0  0  0  0  0  0  0  0  0  0  0  0
  1  2  3  0
  2  3  1  0
  3  4  1  0
  4  5  1  0
  5  6  1  0
  6  7  1  0
  7  8  1  0
  8  9  1  0
  5  3  1  0
  8  6  1  0
  1 10  1  0
  3 11  1  0
  5 12  1  0
  6 13  1  0
  7 14  1  0
  7 15  1  0
  8 16  1  0
  9 17  1  0
  9 18  1  0
  9 19  1  0
M  END
