
     RDKit          3D

 17 17  0  0  0  0  0  0  0  0999 V2000
    3.2118    0.1721    0.4861 C   0  0  0  0  0  0  0  0  0  0  0  0
    1.9924    0.1515    0.4989 C   0  0  0  0  0  0  0  0  0  0  0  0
    0.5257    0.1297    0.5376 C   0  0  0  0  0  0  0  0  0  0  0  0
   -0.0404    1.2770   -0.2288 C   0  0  0  0  0  0  0  0  0  0  0  0
   -1.0543    0.9207   -1.1110 O   0  0  0  0  0  0  0  0  0  0  0  0
   -2.0270    0.1486   -0.4438 C   0  0  0  0  0  0  0  0  0  0  0  0
   -1.3795   -1.1695   -0.1874 C   0  0  0  0  0  0  0  0  0  0  0  0
   -2.0240   -2.1937   -0.0536 O   0  0  0  0  0  0  0  0  0  0  0  0
    0.0975   -1.1874   -0.1001 C   0  0  0  0  0  0  0  0  0  0  0  0
    4.2712    0.2012    0.4604 H   0  0  0  0  0  0  0  0  0  0  0  0
    0.2294    0.1700    1.6058 H   0  0  0  0  0  0  0  0  0  0  0  0
   -0.4870    2.0690    0.4420 H   0  0  0  0  0  0  0  0  0  0  0  0
    0.7388    1.8031   -0.8347 H   0  0  0  0  0  0  0  0  0  0  0  0
   -2.1872    0.6836    0.5366 H   0  0  0  0  0  0  0  0  0  0  0  0
   -2.9476    0.0703   -1.0254 H   0  0  0  0  0  0  0  0  0  0  0  0
    0.5867   -1.2256   -1.0849 H   0  0  0  0  0  0  0  0  0  0  0  0
    0.4934   -2.0207    0.5022 H   0  0  0  0  0  0  0  0  0  0  0  0
  1  2  3  0
  2  3  1  0
  3  4  1  0
  4  5  1  0
  5  6  1  0
  6  7  1  0
  7  8  2  0
  7  9  1  0
  9  3  1  0
  1 10  1  0
  3 11  1  0
  4 12  1  0
  4 13  1  0
  6 14  1  0
  6 15  1  0
  9 16  1  0
  9 17  1  0
M  END
