
     RDKit          3D

 19 20  0  0  0  0  0  0  0  0999 V2000
    2.3817    0.6450    1.8338 C   0  0  0  0  0  0  0  0  0  0  0  0
    1.7944   -0.2102    1.1793 C   0  0  0  0  0  0  0  0  0  0  0  0
    1.0714   -1.2453    0.3994 C   0  0  0  0  0  0  0  0  0  0  0  0
    0.4297   -2.2134    1.2178 C   0  0  0  0  0  0  0  0  0  0  0  0
   -0.4925   -1.2854    0.5977 C   0  0  0  0  0  0  0  0  0  0  0  0
   -0.1998    0.0603   -0.0123 C   0  0  0  0  0  0  0  0  0  0  0  0
   -1.3140    0.6100   -0.8713 C   0  0  0  0  0  0  0  0  0  0  0  0
   -0.9591    1.9393   -1.4413 C   0  0  0  0  0  0  0  0  0  0  0  0
    0.6868   -0.7080   -0.8097 O   0  0  0  0  0  0  0  0  0  0  0  0
    2.8841    1.3735    2.4138 H   0  0  0  0  0  0  0  0  0  0  0  0
    0.5667   -3.2980    0.9247 H   0  0  0  0  0  0  0  0  0  0  0  0
    0.4512   -2.1593    2.3474 H   0  0  0  0  0  0  0  0  0  0  0  0
   -1.0630   -1.8514   -0.2083 H   0  0  0  0  0  0  0  0  0  0  0  0
    0.2101    0.8469    0.5878 H   0  0  0  0  0  0  0  0  0  0  0  0
   -1.4674   -0.0947   -1.7350 H   0  0  0  0  0  0  0  0  0  0  0  0
   -2.2302    0.6903   -0.2746 H   0  0  0  0  0  0  0  0  0  0  0  0
   -1.1630    2.7651   -0.7107 H   0  0  0  0  0  0  0  0  0  0  0  0
   -1.6519    2.1354   -2.2936 H   0  0  0  0  0  0  0  0  0  0  0  0
    0.0649    2.0000   -1.8488 H   0  0  0  0  0  0  0  0  0  0  0  0
  1  2  3  0
  2  3  1  0
  3  4  1  0
  4  5  1  0
  5  6  1  0
  6  7  1  0
  7  8  1  0
  6  9  1  0
  5  3  1  0
  9  3  1  0
  1 10  1  0
  4 11  1  0
  4 12  1  0
  5 13  1  0
  6 14  1  0
  7 15  1  0
  7 16  1  0
  8 17  1  0
  8 18  1  0
  8 19  1  0
M  END
