
     RDKit          3D

 19 19  0  0  0  0  0  0  0  0999 V2000
    3.1071    0.1308    1.4173 C   0  0  0  0  0  0  0  0  0  0  0  0
    2.1310   -0.3345    0.8618 C   0  0  0  0  0  0  0  0  0  0  0  0
    0.9620   -0.8704    0.1825 C   0  0  0  0  0  0  0  0  0  0  0  0
    0.5860   -0.2650   -1.1076 C   0  0  0  0  0  0  0  0  0  0  0  0
   -0.3104   -0.1348    0.1328 C   0  0  0  0  0  0  0  0  0  0  0  0
   -1.5819   -0.9644    0.1080 C   0  0  0  0  0  0  0  0  0  0  0  0
   -1.6697   -1.7632    1.2530 O   0  0  0  0  0  0  0  0  0  0  0  0
   -0.4629    1.2536    0.6537 C   0  0  0  0  0  0  0  0  0  0  0  0
   -1.7386    1.7599    0.5094 O   0  0  0  0  0  0  0  0  0  0  0  0
    3.9676    0.5330    1.8884 H   0  0  0  0  0  0  0  0  0  0  0  0
    0.8993   -1.9886    0.2227 H   0  0  0  0  0  0  0  0  0  0  0  0
    1.1552    0.6305   -1.4179 H   0  0  0  0  0  0  0  0  0  0  0  0
    0.2121   -0.8966   -1.9364 H   0  0  0  0  0  0  0  0  0  0  0  0
   -2.4373   -0.2618    0.0147 H   0  0  0  0  0  0  0  0  0  0  0  0
   -1.5285   -1.6544   -0.7583 H   0  0  0  0  0  0  0  0  0  0  0  0
   -1.6424   -1.1456    2.0423 H   0  0  0  0  0  0  0  0  0  0  0  0
    0.2326    1.9270    0.1164 H   0  0  0  0  0  0  0  0  0  0  0  0
   -0.1502    1.2990    1.7310 H   0  0  0  0  0  0  0  0  0  0  0  0
   -1.7310    2.7457    0.3683 H   0  0  0  0  0  0  0  0  0  0  0  0
  1  2  3  0
  2  3  1  0
  3  4  1  0
  4  5  1  0
  5  6  1  0
  6  7  1  0
  5  8  1  0
  8  9  1  0
  5  3  1  0
  1 10  1  0
  3 11  1  0
  4 12  1  0
  4 13  1  0
  6 14  1  0
  6 15  1  0
  7 16  1  0
  8 17  1  0
  8 18  1  0
  9 19  1  0
M  END
