
     RDKit          3D

 21 21  0  0  0  0  0  0  0  0999 V2000
    1.8795   -2.8124    0.4222 C   0  0  0  0  0  0  0  0  0  0  0  0
    0.9099   -2.2538   -0.0186 C   0  0  0  0  0  0  0  0  0  0  0  0
   -0.2797   -1.5732   -0.5419 C   0  0  0  0  0  0  0  0  0  0  0  0
   -0.3115   -0.1217   -0.0677 C   0  0  0  0  0  0  0  0  0  0  0  0
    0.9434    0.5534   -0.5878 C   0  0  0  0  0  0  0  0  0  0  0  0
    1.0598    1.9920   -0.2018 C   0  0  0  0  0  0  0  0  0  0  0  0
   -1.5985    0.5661   -0.2728 C   0  0  0  0  0  0  0  0  0  0  0  0
   -1.6596    0.4777    1.2049 C   0  0  0  0  0  0  0  0  0  0  0  0
   -0.4143   -0.1099    1.3127 O   0  0  0  0  0  0  0  0  0  0  0  0
    2.7327   -3.3230    0.8221 H   0  0  0  0  0  0  0  0  0  0  0  0
   -0.1377   -1.5505   -1.6642 H   0  0  0  0  0  0  0  0  0  0  0  0
   -1.1904   -2.1254   -0.2596 H   0  0  0  0  0  0  0  0  0  0  0  0
    1.7981   -0.0469   -0.1625 H   0  0  0  0  0  0  0  0  0  0  0  0
    0.9980    0.4176   -1.6872 H   0  0  0  0  0  0  0  0  0  0  0  0
    1.2058    2.6098   -1.1141 H   0  0  0  0  0  0  0  0  0  0  0  0
    0.1461    2.2781    0.3457 H   0  0  0  0  0  0  0  0  0  0  0  0
    1.9416    2.1030    0.4948 H   0  0  0  0  0  0  0  0  0  0  0  0
   -2.3400   -0.0628   -0.8123 H   0  0  0  0  0  0  0  0  0  0  0  0
   -1.5609    1.6227   -0.6021 H   0  0  0  0  0  0  0  0  0  0  0  0
   -2.5007   -0.1062    1.6469 H   0  0  0  0  0  0  0  0  0  0  0  0
   -1.6216    1.4653    1.7434 H   0  0  0  0  0  0  0  0  0  0  0  0
  1  2  3  0
  2  3  1  0
  3  4  1  0
  4  5  1  0
  5  6  1  0
  4  7  1  0
  7  8  1  0
  8  9  1  0
  9  4  1  0
  1 10  1  0
  3 11  1  0
  3 12  1  0
  5 13  1  0
  5 14  1  0
  6 15  1  0
  6 16  1  0
  6 17  1  0
  7 18  1  0
  7 19  1  0
  8 20  1  0
  8 21  1  0
M  END
