
     RDKit          3D

 15 15  0  0  0  0  0  0  0  0999 V2000
    2.9425   -0.5249   -0.8620 C   0  0  0  0  0  0  0  0  0  0  0  0
    2.0297   -0.2946   -0.1081 C   0  0  0  0  0  0  0  0  0  0  0  0
    0.9290   -0.0263    0.8114 C   0  0  0  0  0  0  0  0  0  0  0  0
    1.1277   -0.0241    2.0549 O   0  0  0  0  0  0  0  0  0  0  0  0
   -0.4181    0.2443    0.3132 C   0  0  0  0  0  0  0  0  0  0  0  0
   -1.3471    0.8911    1.2813 C   0  0  0  0  0  0  0  0  0  0  0  0
   -2.4850    1.1379    0.9278 O   0  0  0  0  0  0  0  0  0  0  0  0
   -0.7117    0.4285   -1.1257 C   0  0  0  0  0  0  0  0  0  0  0  0
   -0.9920   -0.8949   -0.5392 C   0  0  0  0  0  0  0  0  0  0  0  0
    3.7602   -0.7335   -1.5151 H   0  0  0  0  0  0  0  0  0  0  0  0
   -1.0426    1.1507    2.2953 H   0  0  0  0  0  0  0  0  0  0  0  0
    0.1038    0.5295   -1.8677 H   0  0  0  0  0  0  0  0  0  0  0  0
   -1.5927    1.0565   -1.3703 H   0  0  0  0  0  0  0  0  0  0  0  0
   -0.3152   -1.7179   -0.8477 H   0  0  0  0  0  0  0  0  0  0  0  0
   -1.9886   -1.2225   -0.2376 H   0  0  0  0  0  0  0  0  0  0  0  0
  1  2  3  0
  2  3  1  0
  3  4  2  0
  3  5  1  0
  5  6  1  0
  6  7  2  0
  5  8  1  0
  8  9  1  0
  9  5  1  0
  1 10  1  0
  6 11  1  0
  8 12  1  0
  8 13  1  0
  9 14  1  0
  9 15  1  0
M  END
