
     RDKit          3D

 17 16  0  0  0  0  0  0  0  0999 V2000
   -1.0375   -0.4320   -2.8525 C   0  0  0  0  0  0  0  0  0  0  0  0
   -0.5577   -0.0067   -1.9828 C   0  0  0  0  0  0  0  0  0  0  0  0
    0.0710    0.5181   -0.8776 C   0  0  0  0  0  0  0  0  0  0  0  0
   -0.2407   -0.3537    0.4505 C   0  0  0  0  0  0  0  0  0  0  0  0
   -1.6282   -0.2292    0.7369 O   0  0  0  0  0  0  0  0  0  0  0  0
    0.3657   -1.2691    0.4090 C   0  0  0  0  0  0  0  0  0  0  0  0
    1.1351   -2.4153    0.3690 C   0  0  0  0  0  0  0  0  0  0  0  0
    0.4531    0.8074    1.4140 C   0  0  0  0  0  0  0  0  0  0  0  0
   -0.1191    2.0282    1.1488 O   0  0  0  0  0  0  0  0  0  0  0  0
   -1.6054   -0.9659   -3.9111 H   0  0  0  0  0  0  0  0  0  0  0  0
    1.1114    0.7064   -0.8038 H   0  0  0  0  0  0  0  0  0  0  0  0
   -0.5271    1.5253   -0.5508 H   0  0  0  0  0  0  0  0  0  0  0  0
   -1.6650   -0.4940    1.7424 H   0  0  0  0  0  0  0  0  0  0  0  0
    1.8647   -3.5086    0.3105 H   0  0  0  0  0  0  0  0  0  0  0  0
    0.6547    0.4899    2.3763 H   0  0  0  0  0  0  0  0  0  0  0  0
    1.4804    0.8611    0.8440 H   0  0  0  0  0  0  0  0  0  0  0  0
    0.2445    2.7381    1.6898 H   0  0  0  0  0  0  0  0  0  0  0  0
  1  2  3  0
  2  3  1  0
  3  4  1  0
  4  5  1  0
  4  6  1  0
  6  7  3  0
  4  8  1  0
  8  9  1  0
  1 10  1  0
  3 11  1  0
  3 12  1  0
  5 13  1  0
  7 14  1  0
  8 15  1  0
  8 16  1  0
  9 17  1  0
M  END
