
     RDKit          3D

 19 20  0  0  0  0  0  0  0  0999 V2000
   -1.7477    2.8444   -0.0269 C   0  0  0  0  0  0  0  0  0  0  0  0
   -1.2441    1.7348    0.0025 C   0  0  0  0  0  0  0  0  0  0  0  0
   -0.6348    0.4079    0.0626 C   0  0  0  0  0  0  0  0  0  0  0  0
   -1.5239   -0.6970    0.5121 C   0  0  0  0  0  0  0  0  0  0  0  0
   -1.0849   -1.6001   -0.6455 C   0  0  0  0  0  0  0  0  0  0  0  0
   -0.4821   -0.3553   -1.2695 C   0  0  0  0  0  0  0  0  0  0  0  0
    0.6953    0.1705   -0.5515 C   0  0  0  0  0  0  0  0  0  0  0  0
    1.5532   -0.7514   -0.0123 O   0  0  0  0  0  0  0  0  0  0  0  0
    2.8500   -0.3204   -0.1673 C   0  0  0  0  0  0  0  0  0  0  0  0
   -2.1828    3.8103   -0.0698 H   0  0  0  0  0  0  0  0  0  0  0  0
   -1.3034   -1.1502    1.5058 H   0  0  0  0  0  0  0  0  0  0  0  0
   -2.6066   -0.4774    0.3746 H   0  0  0  0  0  0  0  0  0  0  0  0
   -0.2591   -2.2756   -0.2928 H   0  0  0  0  0  0  0  0  0  0  0  0
   -1.8920   -2.0762   -1.1949 H   0  0  0  0  0  0  0  0  0  0  0  0
   -0.9586    0.1305   -2.1133 H   0  0  0  0  0  0  0  0  0  0  0  0
    1.1527    1.0838   -1.0111 H   0  0  0  0  0  0  0  0  0  0  0  0
    2.9957    0.6695    0.3558 H   0  0  0  0  0  0  0  0  0  0  0  0
    3.6126   -1.0537    0.1458 H   0  0  0  0  0  0  0  0  0  0  0  0
    3.0605   -0.0944   -1.2465 H   0  0  0  0  0  0  0  0  0  0  0  0
  1  2  3  0
  2  3  1  0
  3  4  1  0
  4  5  1  0
  5  6  1  0
  6  7  1  0
  7  8  1  0
  8  9  1  0
  6  3  1  0
  7  3  1  0
  1 10  1  0
  4 11  1  0
  4 12  1  0
  5 13  1  0
  5 14  1  0
  6 15  1  0
  7 16  1  0
  9 17  1  0
  9 18  1  0
  9 19  1  0
M  END
