
     RDKit          3D

 19 20  0  0  0  0  0  0  0  0999 V2000
    3.3021    0.6900   -0.2667 C   0  0  0  0  0  0  0  0  0  0  0  0
    2.3771   -0.0531    0.0086 C   0  0  0  0  0  0  0  0  0  0  0  0
    1.2617   -0.9395    0.3616 C   0  0  0  0  0  0  0  0  0  0  0  0
    0.0170   -0.2534    0.2278 C   0  0  0  0  0  0  0  0  0  0  0  0
   -0.3029    0.9599    0.9949 C   0  0  0  0  0  0  0  0  0  0  0  0
   -1.5580    1.2482    0.5688 C   0  0  0  0  0  0  0  0  0  0  0  0
   -1.8439    0.1811   -0.3852 C   0  0  0  0  0  0  0  0  0  0  0  0
   -0.5203    0.1043   -1.1534 C   0  0  0  0  0  0  0  0  0  0  0  0
   -1.2950   -1.0411    0.3694 C   0  0  0  0  0  0  0  0  0  0  0  0
    4.1115    1.3310   -0.5238 H   0  0  0  0  0  0  0  0  0  0  0  0
    1.4264   -1.4016    1.3412 H   0  0  0  0  0  0  0  0  0  0  0  0
    1.3233   -1.7831   -0.3832 H   0  0  0  0  0  0  0  0  0  0  0  0
    0.2961    1.5004    1.7192 H   0  0  0  0  0  0  0  0  0  0  0  0
   -2.2116    2.0604    0.8477 H   0  0  0  0  0  0  0  0  0  0  0  0
   -2.7449    0.0882   -0.9070 H   0  0  0  0  0  0  0  0  0  0  0  0
   -0.4844   -0.7415   -1.8775 H   0  0  0  0  0  0  0  0  0  0  0  0
   -0.1868    1.0671   -1.5341 H   0  0  0  0  0  0  0  0  0  0  0  0
   -1.6411   -1.0439    1.4034 H   0  0  0  0  0  0  0  0  0  0  0  0
   -1.3265   -1.9735   -0.1940 H   0  0  0  0  0  0  0  0  0  0  0  0
  1  2  3  0
  2  3  1  0
  3  4  1  0
  4  5  1  0
  5  6  2  0
  6  7  1  0
  7  8  1  0
  7  9  1  0
  8  4  1  0
  9  4  1  0
  1 10  1  0
  3 11  1  0
  3 12  1  0
  5 13  1  0
  6 14  1  0
  7 15  1  0
  8 16  1  0
  8 17  1  0
  9 18  1  0
  9 19  1  0
M  END
