
     RDKit          3D

 19 19  0  0  0  0  0  0  0  0999 V2000
   -1.0930    2.3958    0.2151 C   0  0  0  0  0  0  0  0  0  0  0  0
   -0.8078    1.2393    0.0118 C   0  0  0  0  0  0  0  0  0  0  0  0
   -0.4557   -0.1720   -0.2624 C   0  0  0  0  0  0  0  0  0  0  0  0
    0.9536   -0.3651   -0.7299 C   0  0  0  0  0  0  0  0  0  0  0  0
    1.8776    0.1487    0.3545 C   0  0  0  0  0  0  0  0  0  0  0  0
    3.2073   -0.0109   -0.0377 O   0  0  0  0  0  0  0  0  0  0  0  0
   -0.8930   -1.0229    0.8917 C   0  0  0  0  0  0  0  0  0  0  0  0
   -2.2025   -0.9121    0.0979 C   0  0  0  0  0  0  0  0  0  0  0  0
   -1.4058   -0.8370   -1.0515 O   0  0  0  0  0  0  0  0  0  0  0  0
   -1.3547    3.4078    0.4081 H   0  0  0  0  0  0  0  0  0  0  0  0
    1.0751    0.1984   -1.6860 H   0  0  0  0  0  0  0  0  0  0  0  0
    1.1069   -1.4258   -0.9484 H   0  0  0  0  0  0  0  0  0  0  0  0
    1.7149    1.2258    0.5479 H   0  0  0  0  0  0  0  0  0  0  0  0
    1.6526   -0.4221    1.2695 H   0  0  0  0  0  0  0  0  0  0  0  0
    3.6173    0.8749   -0.2897 H   0  0  0  0  0  0  0  0  0  0  0  0
   -0.5299   -2.0706    0.8560 H   0  0  0  0  0  0  0  0  0  0  0  0
   -0.9010   -0.5359    1.8640 H   0  0  0  0  0  0  0  0  0  0  0  0
   -2.8551   -1.7810    0.1760 H   0  0  0  0  0  0  0  0  0  0  0  0
   -2.7068    0.0646    0.2376 H   0  0  0  0  0  0  0  0  0  0  0  0
  1  2  3  0
  2  3  1  0
  3  4  1  0
  4  5  1  0
  5  6  1  0
  3  7  1  0
  7  8  1  0
  8  9  1  0
  9  3  1  0
  1 10  1  0
  4 11  1  0
  4 12  1  0
  5 13  1  0
  5 14  1  0
  6 15  1  0
  7 16  1  0
  7 17  1  0
  8 18  1  0
  8 19  1  0
M  END
