
     RDKit          3D

 19 20  0  0  0  0  0  0  0  0999 V2000
    0.0694   -1.8967    2.4329 C   0  0  0  0  0  0  0  0  0  0  0  0
    0.1437   -1.4902    1.1756 C   0  0  0  0  0  0  0  0  0  0  0  0
    0.1972   -1.0670   -0.1099 C   0  0  0  0  0  0  0  0  0  0  0  0
   -0.8066   -1.6351   -0.9259 O   0  0  0  0  0  0  0  0  0  0  0  0
   -0.9106   -0.7401   -2.0005 C   0  0  0  0  0  0  0  0  0  0  0  0
   -0.9488    0.6193   -1.3322 C   0  0  0  0  0  0  0  0  0  0  0  0
    0.1355    0.4340   -0.3128 C   0  0  0  0  0  0  0  0  0  0  0  0
    0.2684    1.3563    0.8327 C   0  0  0  0  0  0  0  0  0  0  0  0
    1.3310    1.2718   -0.2813 C   0  0  0  0  0  0  0  0  0  0  0  0
   -0.0004   -2.2037    3.4288 H   0  0  0  0  0  0  0  0  0  0  0  0
    1.1524   -1.3808   -0.6437 H   0  0  0  0  0  0  0  0  0  0  0  0
   -1.8525   -0.9348   -2.5212 H   0  0  0  0  0  0  0  0  0  0  0  0
   -0.0315   -0.7735   -2.6538 H   0  0  0  0  0  0  0  0  0  0  0  0
   -1.8799    0.8175   -0.7801 H   0  0  0  0  0  0  0  0  0  0  0  0
   -0.6798    1.4245   -2.0450 H   0  0  0  0  0  0  0  0  0  0  0  0
    0.5837    1.0408    1.8420 H   0  0  0  0  0  0  0  0  0  0  0  0
   -0.3956    2.2488    0.8290 H   0  0  0  0  0  0  0  0  0  0  0  0
    1.3233    2.1165   -1.0161 H   0  0  0  0  0  0  0  0  0  0  0  0
    2.3009    0.7925   -0.0483 H   0  0  0  0  0  0  0  0  0  0  0  0
  1  2  3  0
  2  3  1  0
  3  4  1  0
  4  5  1  0
  5  6  1  0
  6  7  1  0
  7  8  1  0
  8  9  1  0
  7  3  1  0
  9  7  1  0
  1 10  1  0
  3 11  1  0
  5 12  1  0
  5 13  1  0
  6 14  1  0
  6 15  1  0
  8 16  1  0
  8 17  1  0
  9 18  1  0
  9 19  1  0
M  END
