
     RDKit          3D

 19 19  0  0  0  0  0  0  0  0999 V2000
    1.5311    0.6227   -1.6698 C   0  0  0  0  0  0  0  0  0  0  0  0
    0.9338   -0.1246   -0.9504 C   0  0  0  0  0  0  0  0  0  0  0  0
    0.0682   -1.1604    0.0600 C   0  0  0  0  0  0  0  0  0  0  0  0
   -0.8481   -1.6489   -0.9192 C   0  0  0  0  0  0  0  0  0  0  0  0
    1.0714   -1.4806    0.7735 O   0  0  0  0  0  0  0  0  0  0  0  0
    0.8849   -0.2980    1.5735 C   0  0  0  0  0  0  0  0  0  0  0  0
   -0.4311   -0.0760    1.0300 C   0  0  0  0  0  0  0  0  0  0  0  0
   -0.6782    1.2614    0.3438 C   0  0  0  0  0  0  0  0  0  0  0  0
   -0.9619    2.2842    1.2958 O   0  0  0  0  0  0  0  0  0  0  0  0
    2.2530    1.5178   -2.5039 H   0  0  0  0  0  0  0  0  0  0  0  0
   -1.2237   -0.8118   -1.6120 H   0  0  0  0  0  0  0  0  0  0  0  0
   -0.2580   -2.3076   -1.6871 H   0  0  0  0  0  0  0  0  0  0  0  0
   -1.7349   -2.1672   -0.5391 H   0  0  0  0  0  0  0  0  0  0  0  0
    0.9162   -0.5672    2.6734 H   0  0  0  0  0  0  0  0  0  0  0  0
    1.6283    0.4812    1.3792 H   0  0  0  0  0  0  0  0  0  0  0  0
   -1.4331   -0.4396    1.4179 H   0  0  0  0  0  0  0  0  0  0  0  0
    0.1908    1.6666   -0.1944 H   0  0  0  0  0  0  0  0  0  0  0  0
   -1.5362    1.2165   -0.3818 H   0  0  0  0  0  0  0  0  0  0  0  0
   -0.3724    2.0316    2.0634 H   0  0  0  0  0  0  0  0  0  0  0  0
  1  2  3  0
  2  3  1  0
  3  4  1  0
  3  5  1  0
  5  6  1  0
  6  7  1  0
  7  8  1  0
  8  9  1  0
  7  3  1  0
  1 10  1  0
  4 11  1  0
  4 12  1  0
  4 13  1  0
  6 14  1  0
  6 15  1  0
  7 16  1  0
  8 17  1  0
  8 18  1  0
  9 19  1  0
M  END
