
     RDKit          3D

 17 17  0  0  0  0  0  0  0  0999 V2000
    2.5329    0.7237   -0.9144 C   0  0  0  0  0  0  0  0  0  0  0  0
    1.3941    0.2635   -1.0356 C   0  0  0  0  0  0  0  0  0  0  0  0
    0.0944   -0.2663   -1.1569 C   0  0  0  0  0  0  0  0  0  0  0  0
   -0.2178   -1.4952   -0.3872 C   0  0  0  0  0  0  0  0  0  0  0  0
   -0.2038   -1.1433    1.0934 C   0  0  0  0  0  0  0  0  0  0  0  0
   -0.4754    0.0589    1.5052 C   0  0  0  0  0  0  0  0  0  0  0  0
   -0.8313    1.2403    0.6512 C   0  0  0  0  0  0  0  0  0  0  0  0
   -0.8933    0.8218   -0.7508 C   0  0  0  0  0  0  0  0  0  0  0  0
   -1.6669    1.3011   -1.5334 O   0  0  0  0  0  0  0  0  0  0  0  0
    3.5429    1.1522   -0.8026 H   0  0  0  0  0  0  0  0  0  0  0  0
   -0.1956   -0.4955   -2.2345 H   0  0  0  0  0  0  0  0  0  0  0  0
    0.3993   -2.3529   -0.6039 H   0  0  0  0  0  0  0  0  0  0  0  0
   -1.2962   -1.7666   -0.6292 H   0  0  0  0  0  0  0  0  0  0  0  0
    0.0318   -1.9517    1.7538 H   0  0  0  0  0  0  0  0  0  0  0  0
   -0.4444    0.2709    2.5928 H   0  0  0  0  0  0  0  0  0  0  0  0
   -1.7612    1.6525    1.0685 H   0  0  0  0  0  0  0  0  0  0  0  0
   -0.0094    1.9867    0.7422 H   0  0  0  0  0  0  0  0  0  0  0  0
  1  2  3  0
  2  3  1  0
  3  4  1  0
  4  5  1  0
  5  6  2  0
  6  7  1  0
  7  8  1  0
  8  9  2  0
  8  3  1  0
  1 10  1  0
  3 11  1  0
  4 12  1  0
  4 13  1  0
  5 14  1  0
  6 15  1  0
  7 16  1  0
  7 17  1  0
M  END
