
     RDKit          3D

 21 21  0  0  0  0  0  0  0  0999 V2000
    3.0376    1.7690    0.0187 C   0  0  0  0  0  0  0  0  0  0  0  0
    1.9656    1.2664    0.2437 C   0  0  0  0  0  0  0  0  0  0  0  0
    0.6668    0.6308    0.5273 C   0  0  0  0  0  0  0  0  0  0  0  0
    0.8389   -0.5113    1.4945 C   0  0  0  0  0  0  0  0  0  0  0  0
    0.1050   -1.5456    1.1158 C   0  0  0  0  0  0  0  0  0  0  0  0
   -0.6177   -1.1967   -0.1224 C   0  0  0  0  0  0  0  0  0  0  0  0
   -2.0025   -0.7330    0.2764 C   0  0  0  0  0  0  0  0  0  0  0  0
    0.1830   -0.1057   -0.7362 C   0  0  0  0  0  0  0  0  0  0  0  0
   -0.5985    0.8730   -1.5445 C   0  0  0  0  0  0  0  0  0  0  0  0
    3.9810    2.2036   -0.1953 H   0  0  0  0  0  0  0  0  0  0  0  0
   -0.0638    1.3640    0.8638 H   0  0  0  0  0  0  0  0  0  0  0  0
    1.4803   -0.4536    2.3622 H   0  0  0  0  0  0  0  0  0  0  0  0
    0.0765   -2.4867    1.6712 H   0  0  0  0  0  0  0  0  0  0  0  0
   -0.6757   -2.1166   -0.7363 H   0  0  0  0  0  0  0  0  0  0  0  0
   -1.9231    0.2832    0.6986 H   0  0  0  0  0  0  0  0  0  0  0  0
   -2.3342   -1.3925    1.1069 H   0  0  0  0  0  0  0  0  0  0  0  0
   -2.7273   -0.7897   -0.5620 H   0  0  0  0  0  0  0  0  0  0  0  0
    1.0477   -0.5263   -1.2876 H   0  0  0  0  0  0  0  0  0  0  0  0
   -1.6878    0.8239   -1.2540 H   0  0  0  0  0  0  0  0  0  0  0  0
   -0.4752    0.7478   -2.6386 H   0  0  0  0  0  0  0  0  0  0  0  0
   -0.2766    1.8958   -1.3023 H   0  0  0  0  0  0  0  0  0  0  0  0
  1  2  3  0
  2  3  1  0
  3  4  1  0
  4  5  2  0
  5  6  1  0
  6  7  1  0
  6  8  1  0
  8  9  1  0
  8  3  1  0
  1 10  1  0
  3 11  1  0
  4 12  1  0
  5 13  1  0
  6 14  1  0
  7 15  1  0
  7 16  1  0
  7 17  1  0
  8 18  1  0
  9 19  1  0
  9 20  1  0
  9 21  1  0
M  END
