
     RDKit          3D

 13 13  0  0  0  0  0  0  0  0999 V2000
    1.6741    1.0232   -1.2768 C   0  0  0  0  0  0  0  0  0  0  0  0
    0.9644    0.5845   -0.8544 C   0  0  0  0  0  0  0  0  0  0  0  0
   -0.2106   -0.1379   -0.1852 C   0  0  0  0  0  0  0  0  0  0  0  0
    0.3855    0.0178    1.3392 C   0  0  0  0  0  0  0  0  0  0  0  0
    0.8439    0.1591    2.5088 C   0  0  0  0  0  0  0  0  0  0  0  0
   -0.7522   -1.3502   -0.5067 C   0  0  0  0  0  0  0  0  0  0  0  0
   -2.0775   -0.6076   -0.4271 O   0  0  0  0  0  0  0  0  0  0  0  0
   -1.4241    0.5277   -0.2883 C   0  0  0  0  0  0  0  0  0  0  0  0
   -1.7553    1.8403   -0.2561 O   0  0  0  0  0  0  0  0  0  0  0  0
    2.7037    1.6335   -1.8910 H   0  0  0  0  0  0  0  0  0  0  0  0
    1.1125    0.2315    3.1666 H   0  0  0  0  0  0  0  0  0  0  0  0
   -0.8796   -2.2029    0.2185 H   0  0  0  0  0  0  0  0  0  0  0  0
   -0.5846   -1.7190   -1.5477 H   0  0  0  0  0  0  0  0  0  0  0  0
  1  2  3  0
  2  3  1  0
  3  4  1  0
  4  5  3  0
  3  6  1  0
  6  7  1  0
  7  8  1  0
  8  9  2  0
  8  3  1  0
  1 10  1  0
  5 11  1  0
  6 12  1  0
  6 13  1  0
M  END
