
     RDKit          3D

 17 18  0  0  0  0  0  0  0  0999 V2000
    1.3902    2.5883    1.0470 C   0  0  0  0  0  0  0  0  0  0  0  0
    1.0700    1.4260    0.9201 C   0  0  0  0  0  0  0  0  0  0  0  0
    0.6879    0.0059    0.7543 C   0  0  0  0  0  0  0  0  0  0  0  0
    1.7321   -0.6170    0.0818 O   0  0  0  0  0  0  0  0  0  0  0  0
   -0.5157   -0.0193   -0.1419 C   0  0  0  0  0  0  0  0  0  0  0  0
   -1.0557   -1.4318   -0.4289 C   0  0  0  0  0  0  0  0  0  0  0  0
   -1.6575   -0.6632   -1.5945 C   0  0  0  0  0  0  0  0  0  0  0  0
   -1.0236   -0.1560   -2.6342 O   0  0  0  0  0  0  0  0  0  0  0  0
   -0.1929   -0.1183   -1.6103 C   0  0  0  0  0  0  0  0  0  0  0  0
    1.6672    3.6037    1.1401 H   0  0  0  0  0  0  0  0  0  0  0  0
    0.5086   -0.4170    1.7478 H   0  0  0  0  0  0  0  0  0  0  0  0
    2.6109   -0.1643    0.2231 H   0  0  0  0  0  0  0  0  0  0  0  0
   -1.3098    0.6913    0.0461 H   0  0  0  0  0  0  0  0  0  0  0  0
   -0.2991   -2.1563   -0.7239 H   0  0  0  0  0  0  0  0  0  0  0  0
   -1.8385   -1.7541    0.2813 H   0  0  0  0  0  0  0  0  0  0  0  0
   -2.3928    0.0900   -1.1604 H   0  0  0  0  0  0  0  0  0  0  0  0
    0.6185   -0.9079   -1.7223 H   0  0  0  0  0  0  0  0  0  0  0  0
  1  2  3  0
  2  3  1  0
  3  4  1  0
  3  5  1  0
  5  6  1  0
  6  7  1  0
  7  8  1  0
  8  9  1  0
  9  5  1  0
  9  7  1  0
  1 10  1  0
  3 11  1  0
  4 12  1  0
  5 13  1  0
  6 14  1  0
  6 15  1  0
  7 16  1  0
  9 17  1  0
M  END
