
     RDKit          3D

 17 17  0  0  0  0  0  0  0  0999 V2000
    2.7653   -0.0404    1.4330 C   0  0  0  0  0  0  0  0  0  0  0  0
    1.5390   -0.2825    1.0720 C   0  0  0  0  0  0  0  0  0  0  0  0
    0.2540   -0.5156    0.6833 C   0  0  0  0  0  0  0  0  0  0  0  0
    0.0653   -1.8167   -0.0631 C   0  0  0  0  0  0  0  0  0  0  0  0
    0.3317   -2.0028   -1.1955 O   0  0  0  0  0  0  0  0  0  0  0  0
   -0.5040    0.5711   -0.0094 C   0  0  0  0  0  0  0  0  0  0  0  0
    0.0723    1.1699   -1.2415 C   0  0  0  0  0  0  0  0  0  0  0  0
   -1.9682    0.3793   -0.0599 C   0  0  0  0  0  0  0  0  0  0  0  0
   -1.3839    1.3474    0.8088 O   0  0  0  0  0  0  0  0  0  0  0  0
    3.7482    0.1387    1.7102 H   0  0  0  0  0  0  0  0  0  0  0  0
   -0.3533   -0.6403    1.6981 H   0  0  0  0  0  0  0  0  0  0  0  0
   -0.3652   -2.6464    0.5417 H   0  0  0  0  0  0  0  0  0  0  0  0
    0.7440    0.4375   -1.7637 H   0  0  0  0  0  0  0  0  0  0  0  0
    0.7203    2.0656   -1.0910 H   0  0  0  0  0  0  0  0  0  0  0  0
   -0.7254    1.4803   -1.9694 H   0  0  0  0  0  0  0  0  0  0  0  0
   -2.4476   -0.5019    0.3535 H   0  0  0  0  0  0  0  0  0  0  0  0
   -2.4925    0.8565   -0.9071 H   0  0  0  0  0  0  0  0  0  0  0  0
  1  2  3  0
  2  3  1  0
  3  4  1  0
  4  5  2  0
  3  6  1  0
  6  7  1  0
  6  8  1  0
  8  9  1  0
  9  6  1  0
  1 10  1  0
  3 11  1  0
  4 12  1  0
  7 13  1  0
  7 14  1  0
  7 15  1  0
  8 16  1  0
  8 17  1  0
M  END
