
     RDKit          3D

 16 15  0  0  0  0  0  0  0  0999 V2000
    4.5104    1.1306   -0.0751 C   0  0  0  0  0  0  0  0  0  0  0  0
    3.3991    0.9969   -0.0450 C   0  0  0  0  0  0  0  0  0  0  0  0
    1.9623    0.8195    0.0004 C   0  0  0  0  0  0  0  0  0  0  0  0
    0.7044    0.6779    0.0437 C   0  0  0  0  0  0  0  0  0  0  0  0
   -0.6486    0.5285    0.0727 C   0  0  0  0  0  0  0  0  0  0  0  0
   -0.6331   -0.9127    1.0293 C   0  0  0  0  0  0  0  0  0  0  0  0
   -1.1248   -0.0454   -1.0914 O   0  0  0  0  0  0  0  0  0  0  0  0
   -2.3900   -0.3946   -1.3467 C   0  0  0  0  0  0  0  0  0  0  0  0
    5.7664    1.2964   -0.1257 H   0  0  0  0  0  0  0  0  0  0  0  0
   -1.3618    1.0115    0.6880 H   0  0  0  0  0  0  0  0  0  0  0  0
   -0.5891   -0.4834    1.9870 H   0  0  0  0  0  0  0  0  0  0  0  0
    0.2988   -1.3839    0.5976 H   0  0  0  0  0  0  0  0  0  0  0  0
   -1.4803   -1.3644    0.6288 H   0  0  0  0  0  0  0  0  0  0  0  0
   -3.1547    0.3459   -1.2709 H   0  0  0  0  0  0  0  0  0  0  0  0
   -2.7537   -1.3086   -0.7329 H   0  0  0  0  0  0  0  0  0  0  0  0
   -2.5054   -0.9143   -2.4395 H   0  0  0  0  0  0  0  0  0  0  0  0
  1  2  3  0
  2  3  1  0
  3  4  3  0
  4  5  1  0
  5  6  1  0
  5  7  1  0
  7  8  1  0
  1  9  1  0
  5 10  1  0
  6 11  1  0
  6 12  1  0
  6 13  1  0
  8 14  1  0
  8 15  1  0
  8 16  1  0
M  END
