
     RDKit          3D

 21 22  0  0  0  0  0  0  0  0999 V2000
    1.9251   -1.0570    3.1389 C   0  0  0  0  0  0  0  0  0  0  0  0
    0.9480   -0.5740    1.8527 C   0  0  0  0  0  0  0  0  0  0  0  0
    0.3240   -0.2551    1.0497 C   0  0  0  0  0  0  0  0  0  0  0  0
   -0.3685   -1.5593    0.1191 C   0  0  0  0  0  0  0  0  0  0  0  0
   -0.2215   -0.4583   -0.9357 C   0  0  0  0  0  0  0  0  0  0  0  0
   -0.5824   -0.5268   -2.2795 C   0  0  0  0  0  0  0  0  0  0  0  0
   -0.4985    0.5279    0.1478 C   0  0  0  0  0  0  0  0  0  0  0  0
   -1.2486    1.6465    0.5187 C   0  0  0  0  0  0  0  0  0  0  0  0
    0.0167    1.9543   -0.2468 C   0  0  0  0  0  0  0  0  0  0  0  0
    2.6285   -1.4065    4.0639 H   0  0  0  0  0  0  0  0  0  0  0  0
    1.4348   -0.1650    0.0600 H   0  0  0  0  0  0  0  0  0  0  0  0
   -1.3729   -1.6098    0.4573 H   0  0  0  0  0  0  0  0  0  0  0  0
    0.2832   -2.3034    0.3021 H   0  0  0  0  0  0  0  0  0  0  0  0
    1.0388   -0.4005   -0.9368 H   0  0  0  0  0  0  0  0  0  0  0  0
   -1.6847   -0.8892   -2.3812 H   0  0  0  0  0  0  0  0  0  0  0  0
    0.0385   -1.3020   -2.9054 H   0  0  0  0  0  0  0  0  0  0  0  0
   -0.5627    0.4376   -2.8688 H   0  0  0  0  0  0  0  0  0  0  0  0
   -1.1376    1.9886    1.6329 H   0  0  0  0  0  0  0  0  0  0  0  0
   -2.1817    1.8822    0.0414 H   0  0  0  0  0  0  0  0  0  0  0  0
    0.8891    2.2443    0.4315 H   0  0  0  0  0  0  0  0  0  0  0  0
    0.3324    1.8254   -1.2619 H   0  0  0  0  0  0  0  0  0  0  0  0
  1  2  3  0
  2  3  1  0
  3  4  1  0
  4  5  1  0
  5  6  1  0
  5  7  1  0
  7  8  1  0
  8  9  1  0
  7  3  1  0
  9  7  1  0
  1 10  1  0
  3 11  1  0
  4 12  1  0
  4 13  1  0
  5 14  1  0
  6 15  1  0
  6 16  1  0
  6 17  1  0
  8 18  1  0
  8 19  1  0
  9 20  1  0
  9 21  1  0
M  END
