
     RDKit          3D

 15 15  0  0  0  0  0  0  0  0999 V2000
    4.7926   -0.6930    0.8961 C   0  0  0  0  0  0  0  0  0  0  0  0
    3.5438   -0.5344    0.5477 C   0  0  0  0  0  0  0  0  0  0  0  0
    2.2727   -0.3763    0.1966 C   0  0  0  0  0  0  0  0  0  0  0  0
    0.9163   -0.2064   -0.1529 C   0  0  0  0  0  0  0  0  0  0  0  0
   -0.2234   -0.0678   -0.4327 C   0  0  0  0  0  0  0  0  0  0  0  0
   -0.8991    1.4020   -0.2800 C   0  0  0  0  0  0  0  0  0  0  0  0
   -1.4909    0.3415   -1.1571 C   0  0  0  0  0  0  0  0  0  0  0  0
   -2.5715   -0.2710   -0.6040 C   0  0  0  0  0  0  0  0  0  0  0  0
   -3.7119   -0.9130   -0.0251 C   0  0  0  0  0  0  0  0  0  0  0  0
    5.8004   -0.8193    1.1583 H   0  0  0  0  0  0  0  0  0  0  0  0
   -0.8370   -0.7112    0.6167 H   0  0  0  0  0  0  0  0  0  0  0  0
   -1.2413    1.6480    0.7194 H   0  0  0  0  0  0  0  0  0  0  0  0
   -0.3169    2.1863   -0.8065 H   0  0  0  0  0  0  0  0  0  0  0  0
   -1.4516    0.4331   -2.2485 H   0  0  0  0  0  0  0  0  0  0  0  0
   -4.5820   -1.4185    0.4314 H   0  0  0  0  0  0  0  0  0  0  0  0
  1  2  3  0
  2  3  1  0
  3  4  3  0
  4  5  1  0
  5  6  1  0
  6  7  1  0
  7  8  1  0
  8  9  3  0
  7  5  1  0
  1 10  1  0
  5 11  1  0
  6 12  1  0
  6 13  1  0
  7 14  1  0
  9 15  1  0
M  END
