
     RDKit          3D

 17 16  0  0  0  0  0  0  0  0999 V2000
    2.9699    0.3660   -1.6412 C   0  0  0  0  0  0  0  0  0  0  0  0
    1.9437   -0.1238   -1.2345 C   0  0  0  0  0  0  0  0  0  0  0  0
    0.6931   -0.7314   -0.7201 C   0  0  0  0  0  0  0  0  0  0  0  0
    0.0901    0.2660    0.2239 C   0  0  0  0  0  0  0  0  0  0  0  0
    1.0067    0.4932    1.2412 O   0  0  0  0  0  0  0  0  0  0  0  0
   -1.2030   -0.1882    0.8395 C   0  0  0  0  0  0  0  0  0  0  0  0
   -1.6355    0.8314    1.6861 O   0  0  0  0  0  0  0  0  0  0  0  0
   -2.2680   -0.4510   -0.1513 C   0  0  0  0  0  0  0  0  0  0  0  0
   -2.1792   -1.2987   -1.0291 O   0  0  0  0  0  0  0  0  0  0  0  0
    3.8762    0.8041   -1.9823 H   0  0  0  0  0  0  0  0  0  0  0  0
    0.9318   -1.6660   -0.1675 H   0  0  0  0  0  0  0  0  0  0  0  0
    0.0698   -0.9923   -1.5762 H   0  0  0  0  0  0  0  0  0  0  0  0
   -0.0969    1.2091   -0.3184 H   0  0  0  0  0  0  0  0  0  0  0  0
    1.8414    0.8409    0.8334 H   0  0  0  0  0  0  0  0  0  0  0  0
   -1.0696   -1.1047    1.4596 H   0  0  0  0  0  0  0  0  0  0  0  0
   -1.7780    1.6325    1.1004 H   0  0  0  0  0  0  0  0  0  0  0  0
   -3.1926    0.1129   -0.1367 H   0  0  0  0  0  0  0  0  0  0  0  0
  1  2  3  0
  2  3  1  0
  3  4  1  0
  4  5  1  0
  4  6  1  0
  6  7  1  0
  6  8  1  0
  8  9  2  0
  1 10  1  0
  3 11  1  0
  3 12  1  0
  4 13  1  0
  5 14  1  0
  6 15  1  0
  7 16  1  0
  8 17  1  0
M  END
