
     RDKit          3D

 15 15  0  0  0  0  0  0  0  0999 V2000
    2.0996    0.6499   -1.3444 C   0  0  0  0  0  0  0  0  0  0  0  0
    1.2291   -0.0265   -0.7867 C   0  0  0  0  0  0  0  0  0  0  0  0
    0.2092   -0.8306   -0.1547 C   0  0  0  0  0  0  0  0  0  0  0  0
    0.3742   -2.1309   -0.4681 O   0  0  0  0  0  0  0  0  0  0  0  0
    0.1766   -0.5490    1.3312 C   0  0  0  0  0  0  0  0  0  0  0  0
   -0.5739    0.5638    1.5404 C   0  0  0  0  0  0  0  0  0  0  0  0
   -1.1042    1.0717    0.2047 C   0  0  0  0  0  0  0  0  0  0  0  0
   -1.1439   -0.2526   -0.5220 C   0  0  0  0  0  0  0  0  0  0  0  0
   -1.9512   -0.7748   -1.2021 O   0  0  0  0  0  0  0  0  0  0  0  0
    2.8619    1.2662   -1.8427 H   0  0  0  0  0  0  0  0  0  0  0  0
    0.4090   -2.1540   -1.4896 H   0  0  0  0  0  0  0  0  0  0  0  0
    0.6054   -1.0881    2.1355 H   0  0  0  0  0  0  0  0  0  0  0  0
   -0.7621    1.0327    2.4943 H   0  0  0  0  0  0  0  0  0  0  0  0
   -0.3515    1.7091   -0.2783 H   0  0  0  0  0  0  0  0  0  0  0  0
   -2.0780    1.5130    0.3822 H   0  0  0  0  0  0  0  0  0  0  0  0
  1  2  3  0
  2  3  1  0
  3  4  1  0
  3  5  1  0
  5  6  2  0
  6  7  1  0
  7  8  1  0
  8  9  2  0
  8  3  1  0
  1 10  1  0
  4 11  1  0
  5 12  1  0
  6 13  1  0
  7 14  1  0
  7 15  1  0
M  END
