
     RDKit          3D

 21 21  0  0  0  0  0  0  0  0999 V2000
    1.1179    2.6627   -1.7682 C   0  0  0  0  0  0  0  0  0  0  0  0
    1.2402    1.4237   -1.5190 C   0  0  0  0  0  0  0  0  0  0  0  0
    1.3976    0.0507   -1.2538 C   0  0  0  0  0  0  0  0  0  0  0  0
    0.2715   -0.5528   -0.5222 C   0  0  0  0  0  0  0  0  0  0  0  0
    0.5335   -2.0257   -0.3020 C   0  0  0  0  0  0  0  0  0  0  0  0
   -0.0617    0.0848    0.8103 C   0  0  0  0  0  0  0  0  0  0  0  0
   -1.2649   -0.6154    1.4941 C   0  0  0  0  0  0  0  0  0  0  0  0
   -1.3440    0.7907    0.9799 C   0  0  0  0  0  0  0  0  0  0  0  0
   -1.5120    1.7309    1.9716 O   0  0  0  0  0  0  0  0  0  0  0  0
    1.0180    3.7292   -1.9928 H   0  0  0  0  0  0  0  0  0  0  0  0
    1.5399   -0.5602   -2.2025 H   0  0  0  0  0  0  0  0  0  0  0  0
    2.3855   -0.1650   -0.6994 H   0  0  0  0  0  0  0  0  0  0  0  0
   -0.6374   -0.4520   -1.1623 H   0  0  0  0  0  0  0  0  0  0  0  0
   -0.3900   -2.5809    0.0457 H   0  0  0  0  0  0  0  0  0  0  0  0
    1.2898   -2.2575    0.4606 H   0  0  0  0  0  0  0  0  0  0  0  0
    0.9118   -2.5010   -1.2522 H   0  0  0  0  0  0  0  0  0  0  0  0
    0.8036    0.2816    1.4591 H   0  0  0  0  0  0  0  0  0  0  0  0
   -1.8263   -1.3603    0.9362 H   0  0  0  0  0  0  0  0  0  0  0  0
   -1.1120   -0.7876    2.5813 H   0  0  0  0  0  0  0  0  0  0  0  0
   -1.9105    0.9881    0.0396 H   0  0  0  0  0  0  0  0  0  0  0  0
   -2.4503    2.1160    1.8959 H   0  0  0  0  0  0  0  0  0  0  0  0
  1  2  3  0
  2  3  1  0
  3  4  1  0
  4  5  1  0
  4  6  1  0
  6  7  1  0
  7  8  1  0
  8  9  1  0
  8  6  1  0
  1 10  1  0
  3 11  1  0
  3 12  1  0
  4 13  1  0
  5 14  1  0
  5 15  1  0
  5 16  1  0
  6 17  1  0
  7 18  1  0
  7 19  1  0
  8 20  1  0
  9 21  1  0
M  END
