
     RDKit          3D

 21 21  0  0  0  0  0  0  0  0999 V2000
    2.7865    1.3918    0.4451 C   0  0  0  0  0  0  0  0  0  0  0  0
    2.4375    0.2359    0.2387 C   0  0  0  0  0  0  0  0  0  0  0  0
    2.0064   -1.1101   -0.0115 C   0  0  0  0  0  0  0  0  0  0  0  0
    0.6792   -1.1228   -0.6819 C   0  0  0  0  0  0  0  0  0  0  0  0
   -0.4466   -0.4990    0.0672 C   0  0  0  0  0  0  0  0  0  0  0  0
   -1.6829   -0.6506   -0.8342 C   0  0  0  0  0  0  0  0  0  0  0  0
   -2.5344    0.4785   -0.4611 C   0  0  0  0  0  0  0  0  0  0  0  0
   -1.8200    1.4329    0.1248 C   0  0  0  0  0  0  0  0  0  0  0  0
   -0.3721    1.0011    0.1940 C   0  0  0  0  0  0  0  0  0  0  0  0
    3.1044    2.3856    0.6204 H   0  0  0  0  0  0  0  0  0  0  0  0
    1.8588   -1.6440    0.9752 H   0  0  0  0  0  0  0  0  0  0  0  0
    2.7580   -1.7159   -0.5638 H   0  0  0  0  0  0  0  0  0  0  0  0
    0.3748   -2.1367   -1.0131 H   0  0  0  0  0  0  0  0  0  0  0  0
    0.7894   -0.5340   -1.6346 H   0  0  0  0  0  0  0  0  0  0  0  0
   -0.6707   -0.9484    1.0426 H   0  0  0  0  0  0  0  0  0  0  0  0
   -1.3585   -0.5133   -1.8997 H   0  0  0  0  0  0  0  0  0  0  0  0
   -2.1446   -1.6460   -0.7422 H   0  0  0  0  0  0  0  0  0  0  0  0
   -3.6196    0.5025   -0.6543 H   0  0  0  0  0  0  0  0  0  0  0  0
   -2.2695    2.3543    0.4770 H   0  0  0  0  0  0  0  0  0  0  0  0
    0.1222    1.3936   -0.6949 H   0  0  0  0  0  0  0  0  0  0  0  0
    0.0016    1.3448    1.1634 H   0  0  0  0  0  0  0  0  0  0  0  0
  1  2  3  0
  2  3  1  0
  3  4  1  0
  4  5  1  0
  5  6  1  0
  6  7  1  0
  7  8  2  0
  8  9  1  0
  9  5  1  0
  1 10  1  0
  3 11  1  0
  3 12  1  0
  4 13  1  0
  4 14  1  0
  5 15  1  0
  6 16  1  0
  6 17  1  0
  7 18  1  0
  8 19  1  0
  9 20  1  0
  9 21  1  0
M  END
