
     RDKit          3D

 19 19  0  0  0  0  0  0  0  0999 V2000
    1.9171   -1.5742    1.4989 C   0  0  0  0  0  0  0  0  0  0  0  0
    1.4642   -1.1135    0.4812 C   0  0  0  0  0  0  0  0  0  0  0  0
    0.9332   -0.5374   -0.7585 C   0  0  0  0  0  0  0  0  0  0  0  0
   -0.0664    0.5641   -0.4063 C   0  0  0  0  0  0  0  0  0  0  0  0
    0.5638    1.6780    0.4019 C   0  0  0  0  0  0  0  0  0  0  0  0
    1.3727    1.1299    1.3806 O   0  0  0  0  0  0  0  0  0  0  0  0
   -0.9001    1.0241   -1.4185 O   0  0  0  0  0  0  0  0  0  0  0  0
   -1.4214    0.2342   -0.2643 C   0  0  0  0  0  0  0  0  0  0  0  0
   -2.0039   -1.0406   -0.7843 C   0  0  0  0  0  0  0  0  0  0  0  0
    2.3216   -1.9948    2.4055 H   0  0  0  0  0  0  0  0  0  0  0  0
    0.4736   -1.3185   -1.3971 H   0  0  0  0  0  0  0  0  0  0  0  0
    1.7455   -0.0476   -1.3290 H   0  0  0  0  0  0  0  0  0  0  0  0
   -0.1844    2.3183    0.9024 H   0  0  0  0  0  0  0  0  0  0  0  0
    1.2048    2.2749   -0.3081 H   0  0  0  0  0  0  0  0  0  0  0  0
    1.3263    1.6356    2.2327 H   0  0  0  0  0  0  0  0  0  0  0  0
   -2.1611    0.8931    0.2560 H   0  0  0  0  0  0  0  0  0  0  0  0
   -3.0872   -0.8632   -1.0431 H   0  0  0  0  0  0  0  0  0  0  0  0
   -1.9636   -1.8865   -0.1017 H   0  0  0  0  0  0  0  0  0  0  0  0
   -1.5348   -1.3757   -1.7484 H   0  0  0  0  0  0  0  0  0  0  0  0
  1  2  3  0
  2  3  1  0
  3  4  1  0
  4  5  1  0
  5  6  1  0
  4  7  1  0
  7  8  1  0
  8  9  1  0
  8  4  1  0
  1 10  1  0
  3 11  1  0
  3 12  1  0
  5 13  1  0
  5 14  1  0
  6 15  1  0
  8 16  1  0
  9 17  1  0
  9 18  1  0
  9 19  1  0
M  END
