
     RDKit          3D

 15 15  0  0  0  0  0  0  0  0999 V2000
    1.7628   -2.4821    0.0315 C   0  0  0  0  0  0  0  0  0  0  0  0
    1.3405   -1.3094    0.1430 C   0  0  0  0  0  0  0  0  0  0  0  0
    0.8405    0.0065    0.2662 C   0  0  0  0  0  0  0  0  0  0  0  0
    1.1638    0.7514   -0.8778 O   0  0  0  0  0  0  0  0  0  0  0  0
    0.2448    1.7727   -0.9462 C   0  0  0  0  0  0  0  0  0  0  0  0
   -1.0040    1.1260   -0.4632 C   0  0  0  0  0  0  0  0  0  0  0  0
   -0.6541    0.0699    0.2652 C   0  0  0  0  0  0  0  0  0  0  0  0
   -1.5854   -0.8167    0.9144 C   0  0  0  0  0  0  0  0  0  0  0  0
   -2.8394   -0.7266    0.8891 O   0  0  0  0  0  0  0  0  0  0  0  0
    2.1494   -3.4997   -0.0657 H   0  0  0  0  0  0  0  0  0  0  0  0
    1.2714    0.5113    1.1819 H   0  0  0  0  0  0  0  0  0  0  0  0
    0.1232    2.1991   -1.9567 H   0  0  0  0  0  0  0  0  0  0  0  0
    0.4541    2.5951   -0.2014 H   0  0  0  0  0  0  0  0  0  0  0  0
   -2.0221    1.4891   -0.6969 H   0  0  0  0  0  0  0  0  0  0  0  0
   -1.2454   -1.6865    1.5166 H   0  0  0  0  0  0  0  0  0  0  0  0
  1  2  3  0
  2  3  1  0
  3  4  1  0
  4  5  1  0
  5  6  1  0
  6  7  2  0
  7  8  1  0
  8  9  2  0
  7  3  1  0
  1 10  1  0
  3 11  1  0
  5 12  1  0
  5 13  1  0
  6 14  1  0
  8 15  1  0
M  END
