
     RDKit          3D

 21 20  0  0  0  0  0  0  0  0999 V2000
    2.2774    1.5448    1.6131 C   0  0  0  0  0  0  0  0  0  0  0  0
    1.2445    0.8781    1.4019 C   0  0  0  0  0  0  0  0  0  0  0  0
    0.0815    0.1011    1.1725 C   0  0  0  0  0  0  0  0  0  0  0  0
   -0.0251   -1.1818    1.9610 C   0  0  0  0  0  0  0  0  0  0  0  0
   -1.2411   -1.7573    1.5496 O   0  0  0  0  0  0  0  0  0  0  0  0
   -0.0122   -0.2591   -0.2951 C   0  0  0  0  0  0  0  0  0  0  0  0
   -1.1666   -1.0255   -0.4703 O   0  0  0  0  0  0  0  0  0  0  0  0
   -0.2167    0.9809   -1.1515 C   0  0  0  0  0  0  0  0  0  0  0  0
   -0.3077    0.4796   -2.5975 C   0  0  0  0  0  0  0  0  0  0  0  0
    3.1598    2.1100    1.7982 H   0  0  0  0  0  0  0  0  0  0  0  0
   -0.8617    0.6952    1.3839 H   0  0  0  0  0  0  0  0  0  0  0  0
   -0.0841   -0.9577    3.0591 H   0  0  0  0  0  0  0  0  0  0  0  0
    0.8209   -1.8438    1.7097 H   0  0  0  0  0  0  0  0  0  0  0  0
   -1.1388   -2.7110    1.3389 H   0  0  0  0  0  0  0  0  0  0  0  0
    0.9124   -0.7705   -0.5729 H   0  0  0  0  0  0  0  0  0  0  0  0
   -1.9539   -0.4307   -0.3689 H   0  0  0  0  0  0  0  0  0  0  0  0
   -1.1673    1.4525   -0.8348 H   0  0  0  0  0  0  0  0  0  0  0  0
    0.6546    1.6248   -1.0655 H   0  0  0  0  0  0  0  0  0  0  0  0
   -0.0443    1.3172   -3.2781 H   0  0  0  0  0  0  0  0  0  0  0  0
   -1.3482    0.0851   -2.7807 H   0  0  0  0  0  0  0  0  0  0  0  0
    0.4167   -0.3319   -2.7990 H   0  0  0  0  0  0  0  0  0  0  0  0
  1  2  3  0
  2  3  1  0
  3  4  1  0
  4  5  1  0
  3  6  1  0
  6  7  1  0
  6  8  1  0
  8  9  1  0
  1 10  1  0
  3 11  1  0
  4 12  1  0
  4 13  1  0
  5 14  1  0
  6 15  1  0
  7 16  1  0
  8 17  1  0
  8 18  1  0
  9 19  1  0
  9 20  1  0
  9 21  1  0
M  END
