
     RDKit          3D

 15 15  0  0  0  0  0  0  0  0999 V2000
    2.0031   -0.6901   -1.4738 C   0  0  0  0  0  0  0  0  0  0  0  0
    0.8198   -0.5440   -1.2148 C   0  0  0  0  0  0  0  0  0  0  0  0
   -0.6030   -0.3789   -0.9213 C   0  0  0  0  0  0  0  0  0  0  0  0
   -0.9686   -0.3460    0.5253 C   0  0  0  0  0  0  0  0  0  0  0  0
    0.1638   -0.2993    1.5461 C   0  0  0  0  0  0  0  0  0  0  0  0
   -1.0760    0.8930   -0.3411 C   0  0  0  0  0  0  0  0  0  0  0  0
   -0.1468    1.9102   -0.1657 O   0  0  0  0  0  0  0  0  0  0  0  0
    3.0325   -0.8233   -1.7078 H   0  0  0  0  0  0  0  0  0  0  0  0
   -1.2853   -0.8560   -1.6556 H   0  0  0  0  0  0  0  0  0  0  0  0
   -1.8814   -0.9047    0.7915 H   0  0  0  0  0  0  0  0  0  0  0  0
   -0.1450    0.4163    2.3373 H   0  0  0  0  0  0  0  0  0  0  0  0
    1.0752    0.0759    1.0804 H   0  0  0  0  0  0  0  0  0  0  0  0
    0.3290   -1.3055    1.9876 H   0  0  0  0  0  0  0  0  0  0  0  0
   -2.1081    1.2550   -0.5143 H   0  0  0  0  0  0  0  0  0  0  0  0
    0.7906    1.5975   -0.2736 H   0  0  0  0  0  0  0  0  0  0  0  0
  1  2  3  0
  2  3  1  0
  3  4  1  0
  4  5  1  0
  4  6  1  0
  6  7  1  0
  6  3  1  0
  1  8  1  0
  3  9  1  0
  4 10  1  0
  5 11  1  0
  5 12  1  0
  5 13  1  0
  6 14  1  0
  7 15  1  0
M  END
