
     RDKit          3D

 16 16  0  0  0  0  0  0  0  0999 V2000
    2.8798    0.4025    1.1479 C   0  0  0  0  0  0  0  0  0  0  0  0
    1.7960    0.7630    0.7630 C   0  0  0  0  0  0  0  0  0  0  0  0
    0.4694    1.1782    0.2980 C   0  0  0  0  0  0  0  0  0  0  0  0
   -0.3543   -0.0638    0.1201 C   0  0  0  0  0  0  0  0  0  0  0  0
   -0.5259   -0.8221    1.2667 O   0  0  0  0  0  0  0  0  0  0  0  0
   -1.5297    0.1047   -0.8325 C   0  0  0  0  0  0  0  0  0  0  0  0
   -0.3274   -0.7627   -1.1781 C   0  0  0  0  0  0  0  0  0  0  0  0
   -0.6107   -2.1167   -1.2955 O   0  0  0  0  0  0  0  0  0  0  0  0
    3.8449    0.0764    1.5029 H   0  0  0  0  0  0  0  0  0  0  0  0
    0.5374    1.7847   -0.6265 H   0  0  0  0  0  0  0  0  0  0  0  0
   -0.0282    1.8457    1.0588 H   0  0  0  0  0  0  0  0  0  0  0  0
   -1.0727   -0.3512    1.9654 H   0  0  0  0  0  0  0  0  0  0  0  0
   -1.6259    1.0444   -1.4061 H   0  0  0  0  0  0  0  0  0  0  0  0
   -2.4607   -0.4136   -0.5035 H   0  0  0  0  0  0  0  0  0  0  0  0
    0.3532   -0.3613   -1.9856 H   0  0  0  0  0  0  0  0  0  0  0  0
   -1.3452   -2.3083   -0.6589 H   0  0  0  0  0  0  0  0  0  0  0  0
  1  2  3  0
  2  3  1  0
  3  4  1  0
  4  5  1  0
  4  6  1  0
  6  7  1  0
  7  8  1  0
  7  4  1  0
  1  9  1  0
  3 10  1  0
  3 11  1  0
  5 12  1  0
  6 13  1  0
  6 14  1  0
  7 15  1  0
  8 16  1  0
M  END
