
     RDKit          3D

 19 19  0  0  0  0  0  0  0  0999 V2000
    0.6540    3.1285   -1.1977 C   0  0  0  0  0  0  0  0  0  0  0  0
    0.6597    1.9520   -0.9311 C   0  0  0  0  0  0  0  0  0  0  0  0
    0.6602    0.3618   -0.5735 C   0  0  0  0  0  0  0  0  0  0  0  0
    0.5685    0.2150    0.7118 C   0  0  0  0  0  0  0  0  0  0  0  0
    0.4706    0.0551    2.0012 C   0  0  0  0  0  0  0  0  0  0  0  0
    0.3565   -0.1481    3.4403 C   0  0  0  0  0  0  0  0  0  0  0  0
   -0.6715   -0.1210   -1.2802 C   0  0  0  0  0  0  0  0  0  0  0  0
   -1.0553   -1.4936   -0.8403 C   0  0  0  0  0  0  0  0  0  0  0  0
   -0.3150   -1.3978   -2.1399 C   0  0  0  0  0  0  0  0  0  0  0  0
    0.6578    4.1136   -1.4158 H   0  0  0  0  0  0  0  0  0  0  0  0
    1.3743    0.0299   -1.4103 H   0  0  0  0  0  0  0  0  0  0  0  0
   -0.0049   -1.1451    3.6432 H   0  0  0  0  0  0  0  0  0  0  0  0
   -0.4408    0.6333    3.7769 H   0  0  0  0  0  0  0  0  0  0  0  0
    1.2733    0.0686    3.9980 H   0  0  0  0  0  0  0  0  0  0  0  0
   -1.3349    0.5741   -1.7130 H   0  0  0  0  0  0  0  0  0  0  0  0
   -0.5208   -1.9333    0.0411 H   0  0  0  0  0  0  0  0  0  0  0  0
   -2.1442   -1.6837   -0.8247 H   0  0  0  0  0  0  0  0  0  0  0  0
   -0.9363   -1.5575   -3.0568 H   0  0  0  0  0  0  0  0  0  0  0  0
    0.7489   -1.6518   -2.2291 H   0  0  0  0  0  0  0  0  0  0  0  0
  1  2  3  0
  2  3  1  0
  3  4  1  0
  4  5  3  0
  5  6  1  0
  3  7  1  0
  7  8  1  0
  8  9  1  0
  9  7  1  0
  1 10  1  0
  3 11  1  0
  6 12  1  0
  6 13  1  0
  6 14  1  0
  7 15  1  0
  8 16  1  0
  8 17  1  0
  9 18  1  0
  9 19  1  0
M  END
