
     RDKit          3D

 17 16  0  0  0  0  0  0  0  0999 V2000
    4.1455    1.4727   -0.7407 C   0  0  0  0  0  0  0  0  0  0  0  0
    3.4426    0.5929   -0.2591 C   0  0  0  0  0  0  0  0  0  0  0  0
    2.6344   -0.4559    0.2970 C   0  0  0  0  0  0  0  0  0  0  0  0
    3.1241   -1.6291    0.4244 O   0  0  0  0  0  0  0  0  0  0  0  0
    1.2856   -0.1740    0.7033 C   0  0  0  0  0  0  0  0  0  0  0  0
    0.1426    0.0526    1.0650 C   0  0  0  0  0  0  0  0  0  0  0  0
   -1.2357    0.3368    1.4802 C   0  0  0  0  0  0  0  0  0  0  0  0
   -2.1311   -0.6099    0.7342 C   0  0  0  0  0  0  0  0  0  0  0  0
   -2.0058   -0.4293   -0.7722 C   0  0  0  0  0  0  0  0  0  0  0  0
    4.7538    2.2411   -1.1407 H   0  0  0  0  0  0  0  0  0  0  0  0
   -1.5192    1.3705    1.1604 H   0  0  0  0  0  0  0  0  0  0  0  0
   -1.3811    0.1883    2.5680 H   0  0  0  0  0  0  0  0  0  0  0  0
   -3.1891   -0.3019    0.9807 H   0  0  0  0  0  0  0  0  0  0  0  0
   -2.0458   -1.6546    1.0470 H   0  0  0  0  0  0  0  0  0  0  0  0
   -2.3603    0.6065   -0.9958 H   0  0  0  0  0  0  0  0  0  0  0  0
   -0.9648   -0.4993   -1.1228 H   0  0  0  0  0  0  0  0  0  0  0  0
   -2.6957   -1.1075   -1.3139 H   0  0  0  0  0  0  0  0  0  0  0  0
  1  2  3  0
  2  3  1  0
  3  4  2  0
  3  5  1  0
  5  6  3  0
  6  7  1  0
  7  8  1  0
  8  9  1  0
  1 10  1  0
  7 11  1  0
  7 12  1  0
  8 13  1  0
  8 14  1  0
  9 15  1  0
  9 16  1  0
  9 17  1  0
M  END
