
     RDKit          3D

 15 17  0  0  0  0  0  0  0  0999 V2000
    2.8999   -1.0813   -0.2641 C   0  0  0  0  0  0  0  0  0  0  0  0
    1.7374   -0.7705   -0.3955 C   0  0  0  0  0  0  0  0  0  0  0  0
    0.3519   -0.4240   -0.5611 C   0  0  0  0  0  0  0  0  0  0  0  0
   -0.6855   -0.9698    0.3866 C   0  0  0  0  0  0  0  0  0  0  0  0
   -1.2969    0.2504    0.9722 C   0  0  0  0  0  0  0  0  0  0  0  0
   -2.3070    0.8149    0.1145 O   0  0  0  0  0  0  0  0  0  0  0  0
   -1.0433    1.3389    0.1382 C   0  0  0  0  0  0  0  0  0  0  0  0
   -0.0471    0.9935   -0.8878 C   0  0  0  0  0  0  0  0  0  0  0  0
   -0.1621   -0.0339   -1.7728 O   0  0  0  0  0  0  0  0  0  0  0  0
    3.9135   -1.3446   -0.1328 H   0  0  0  0  0  0  0  0  0  0  0  0
   -1.4628   -1.5238   -0.2110 H   0  0  0  0  0  0  0  0  0  0  0  0
   -0.2832   -1.6867    1.1029 H   0  0  0  0  0  0  0  0  0  0  0  0
   -1.4669    0.3604    2.0531 H   0  0  0  0  0  0  0  0  0  0  0  0
   -0.9415    2.3781    0.5620 H   0  0  0  0  0  0  0  0  0  0  0  0
    0.7937    1.6984   -1.1046 H   0  0  0  0  0  0  0  0  0  0  0  0
  1  2  3  0
  2  3  1  0
  3  4  1  0
  4  5  1  0
  5  6  1  0
  6  7  1  0
  7  8  1  0
  8  9  1  0
  8  3  1  0
  9  3  1  0
  7  5  1  0
  1 10  1  0
  4 11  1  0
  4 12  1  0
  5 13  1  0
  7 14  1  0
  8 15  1  0
M  END
