
     RDKit          3D

 23 22  0  0  0  0  0  0  0  0999 V2000
    2.2395    2.1450   -1.2048 C   0  0  0  0  0  0  0  0  0  0  0  0
    2.3230    0.9868   -0.8418 C   0  0  0  0  0  0  0  0  0  0  0  0
    2.4195   -0.3987   -0.3831 C   0  0  0  0  0  0  0  0  0  0  0  0
    1.3325   -0.7017    0.4596 O   0  0  0  0  0  0  0  0  0  0  0  0
    0.1236   -0.5412   -0.2124 C   0  0  0  0  0  0  0  0  0  0  0  0
   -0.5289   -1.8839   -0.2894 C   0  0  0  0  0  0  0  0  0  0  0  0
   -0.7228    0.5174    0.4189 C   0  0  0  0  0  0  0  0  0  0  0  0
   -1.0797    0.2400    1.8465 C   0  0  0  0  0  0  0  0  0  0  0  0
   -1.9751    0.7055   -0.3746 C   0  0  0  0  0  0  0  0  0  0  0  0
    2.1479    3.1596   -1.5216 H   0  0  0  0  0  0  0  0  0  0  0  0
    3.3447   -0.4930    0.1951 H   0  0  0  0  0  0  0  0  0  0  0  0
    2.4514   -1.1213   -1.2184 H   0  0  0  0  0  0  0  0  0  0  0  0
    0.3553   -0.2125   -1.2467 H   0  0  0  0  0  0  0  0  0  0  0  0
   -0.4652   -2.4144    0.7007 H   0  0  0  0  0  0  0  0  0  0  0  0
    0.0671   -2.5189   -0.9876 H   0  0  0  0  0  0  0  0  0  0  0  0
   -1.5648   -1.8647   -0.6774 H   0  0  0  0  0  0  0  0  0  0  0  0
   -0.1430    1.4641    0.4008 H   0  0  0  0  0  0  0  0  0  0  0  0
   -1.4448    1.2097    2.2802 H   0  0  0  0  0  0  0  0  0  0  0  0
   -1.8968   -0.4775    1.9187 H   0  0  0  0  0  0  0  0  0  0  0  0
   -0.1900   -0.0493    2.4611 H   0  0  0  0  0  0  0  0  0  0  0  0
   -2.4697    1.6531   -0.0473 H   0  0  0  0  0  0  0  0  0  0  0  0
   -2.6208   -0.1813   -0.2161 H   0  0  0  0  0  0  0  0  0  0  0  0
   -1.7028    0.7774   -1.4605 H   0  0  0  0  0  0  0  0  0  0  0  0
  1  2  3  0
  2  3  1  0
  3  4  1  0
  4  5  1  0
  5  6  1  0
  5  7  1  0
  7  8  1  0
  7  9  1  0
  1 10  1  0
  3 11  1  0
  3 12  1  0
  5 13  1  0
  6 14  1  0
  6 15  1  0
  6 16  1  0
  7 17  1  0
  8 18  1  0
  8 19  1  0
  8 20  1  0
  9 21  1  0
  9 22  1  0
  9 23  1  0
M  END
