
     RDKit          3D

 17 19  0  0  0  0  0  0  0  0999 V2000
    2.1767    0.2267    1.3177 C   0  0  0  0  0  0  0  0  0  0  0  0
    1.3986    0.3069    0.3829 C   0  0  0  0  0  0  0  0  0  0  0  0
    0.4570    0.4273   -0.7699 C   0  0  0  0  0  0  0  0  0  0  0  0
    0.6611   -0.5203   -1.7887 C   0  0  0  0  0  0  0  0  0  0  0  0
   -0.4495   -0.8537   -1.0072 C   0  0  0  0  0  0  0  0  0  0  0  0
   -0.7352   -0.9694    0.4444 C   0  0  0  0  0  0  0  0  0  0  0  0
   -1.3012    0.4470    0.6859 C   0  0  0  0  0  0  0  0  0  0  0  0
   -1.9666    1.0116   -0.3613 O   0  0  0  0  0  0  0  0  0  0  0  0
   -0.6517    1.3174   -0.4125 C   0  0  0  0  0  0  0  0  0  0  0  0
    2.8398    0.1660    2.1394 H   0  0  0  0  0  0  0  0  0  0  0  0
    1.5644   -1.1881   -1.7626 H   0  0  0  0  0  0  0  0  0  0  0  0
    0.5346   -0.1687   -2.8532 H   0  0  0  0  0  0  0  0  0  0  0  0
   -1.4497   -0.6361   -1.5105 H   0  0  0  0  0  0  0  0  0  0  0  0
   -1.5827   -1.6468    0.6562 H   0  0  0  0  0  0  0  0  0  0  0  0
    0.1345   -1.1501    1.0851 H   0  0  0  0  0  0  0  0  0  0  0  0
   -1.2435    0.8730    1.6784 H   0  0  0  0  0  0  0  0  0  0  0  0
   -0.3868    2.3571   -0.1246 H   0  0  0  0  0  0  0  0  0  0  0  0
  1  2  3  0
  2  3  1  0
  3  4  1  0
  4  5  1  0
  5  6  1  0
  6  7  1  0
  7  8  1  0
  8  9  1  0
  5  3  1  0
  9  7  1  0
  9  3  1  0
  1 10  1  0
  4 11  1  0
  4 12  1  0
  5 13  1  0
  6 14  1  0
  6 15  1  0
  7 16  1  0
  9 17  1  0
M  END
