
     RDKit          3D

 19 19  0  0  0  0  0  0  0  0999 V2000
    0.4562   -2.1236   -2.0667 C   0  0  0  0  0  0  0  0  0  0  0  0
    0.3563   -0.8726   -1.8204 C   0  0  0  0  0  0  0  0  0  0  0  0
    0.2639    0.4155   -1.5466 C   0  0  0  0  0  0  0  0  0  0  0  0
    0.0850    0.6099   -0.0132 C   0  0  0  0  0  0  0  0  0  0  0  0
    1.2858    0.0465    0.7381 C   0  0  0  0  0  0  0  0  0  0  0  0
    0.8971   -0.2370    2.0343 O   0  0  0  0  0  0  0  0  0  0  0  0
   -1.2161   -0.1139    0.3309 C   0  0  0  0  0  0  0  0  0  0  0  0
   -1.4967    1.1347    1.1352 C   0  0  0  0  0  0  0  0  0  0  0  0
   -0.4409    1.7478    0.4654 O   0  0  0  0  0  0  0  0  0  0  0  0
    0.5296   -3.2835   -2.3025 H   0  0  0  0  0  0  0  0  0  0  0  0
   -0.5612    1.0028   -2.0452 H   0  0  0  0  0  0  0  0  0  0  0  0
    1.1982    1.0198   -1.7842 H   0  0  0  0  0  0  0  0  0  0  0  0
    2.1054    0.8153    0.7339 H   0  0  0  0  0  0  0  0  0  0  0  0
    1.6752   -0.8109    0.1685 H   0  0  0  0  0  0  0  0  0  0  0  0
    1.6800   -0.6616    2.5094 H   0  0  0  0  0  0  0  0  0  0  0  0
   -1.9404   -0.2111   -0.4907 H   0  0  0  0  0  0  0  0  0  0  0  0
   -0.9996   -1.0413    0.8807 H   0  0  0  0  0  0  0  0  0  0  0  0
   -1.3964    0.9266    2.1924 H   0  0  0  0  0  0  0  0  0  0  0  0
   -2.4816    1.6364    0.8806 H   0  0  0  0  0  0  0  0  0  0  0  0
  1  2  3  0
  2  3  1  0
  3  4  1  0
  4  5  1  0
  5  6  1  0
  4  7  1  0
  7  8  1  0
  8  9  1  0
  9  4  1  0
  1 10  1  0
  3 11  1  0
  3 12  1  0
  5 13  1  0
  5 14  1  0
  6 15  1  0
  7 16  1  0
  7 17  1  0
  8 18  1  0
  8 19  1  0
M  END
