
     RDKit          3D

 23 23  0  0  0  0  0  0  0  0999 V2000
    1.6755   -2.7100    0.8660 C   0  0  0  0  0  0  0  0  0  0  0  0
    1.2842   -1.8485    0.1458 C   0  0  0  0  0  0  0  0  0  0  0  0
    0.8054   -0.8219   -0.7423 C   0  0  0  0  0  0  0  0  0  0  0  0
   -0.1296    0.1427   -0.0792 C   0  0  0  0  0  0  0  0  0  0  0  0
    0.4854    0.8890    1.0945 C   0  0  0  0  0  0  0  0  0  0  0  0
    1.6836    1.6717    0.5684 C   0  0  0  0  0  0  0  0  0  0  0  0
   -0.8221    1.0898   -1.0697 C   0  0  0  0  0  0  0  0  0  0  0  0
   -1.5702    0.1041   -0.1844 C   0  0  0  0  0  0  0  0  0  0  0  0
   -2.3493   -0.9185   -0.9476 C   0  0  0  0  0  0  0  0  0  0  0  0
    2.0128   -3.4948    1.5248 H   0  0  0  0  0  0  0  0  0  0  0  0
    1.6858   -0.2407   -1.1427 H   0  0  0  0  0  0  0  0  0  0  0  0
    0.3545   -1.3047   -1.6357 H   0  0  0  0  0  0  0  0  0  0  0  0
   -0.2469    1.6693    1.4486 H   0  0  0  0  0  0  0  0  0  0  0  0
    0.7599    0.2292    1.9237 H   0  0  0  0  0  0  0  0  0  0  0  0
    1.4773    2.0409   -0.4546 H   0  0  0  0  0  0  0  0  0  0  0  0
    2.5748    1.0066    0.4887 H   0  0  0  0  0  0  0  0  0  0  0  0
    1.8906    2.5405    1.2315 H   0  0  0  0  0  0  0  0  0  0  0  0
   -0.9068    2.1456   -0.8310 H   0  0  0  0  0  0  0  0  0  0  0  0
   -0.7399    0.8694   -2.1480 H   0  0  0  0  0  0  0  0  0  0  0  0
   -2.1551    0.5778    0.6466 H   0  0  0  0  0  0  0  0  0  0  0  0
   -1.7860   -1.8467   -1.1522 H   0  0  0  0  0  0  0  0  0  0  0  0
   -2.7159   -0.5486   -1.9344 H   0  0  0  0  0  0  0  0  0  0  0  0
   -3.2681   -1.2422   -0.3925 H   0  0  0  0  0  0  0  0  0  0  0  0
  1  2  3  0
  2  3  1  0
  3  4  1  0
  4  5  1  0
  5  6  1  0
  4  7  1  0
  7  8  1  0
  8  9  1  0
  8  4  1  0
  1 10  1  0
  3 11  1  0
  3 12  1  0
  5 13  1  0
  5 14  1  0
  6 15  1  0
  6 16  1  0
  6 17  1  0
  7 18  1  0
  7 19  1  0
  8 20  1  0
  9 21  1  0
  9 22  1  0
  9 23  1  0
M  END
