
     RDKit          3D

 18 19  0  0  0  0  0  0  0  0999 V2000
    3.3874   -0.2126    0.3879 C   0  0  0  0  0  0  0  0  0  0  0  0
    2.2491   -0.1521   -0.2123 C   0  0  0  0  0  0  0  0  0  0  0  0
    1.0157   -0.1038   -0.8491 C   0  0  0  0  0  0  0  0  0  0  0  0
    0.1605    1.0868   -0.5047 C   0  0  0  0  0  0  0  0  0  0  0  0
   -1.0254    0.1720   -0.1820 C   0  0  0  0  0  0  0  0  0  0  0  0
   -1.7433    0.5848    1.1290 C   0  0  0  0  0  0  0  0  0  0  0  0
   -1.2610   -1.1327   -0.8091 C   0  0  0  0  0  0  0  0  0  0  0  0
    0.0304   -0.9513   -0.0731 C   0  0  0  0  0  0  0  0  0  0  0  0
    4.3813   -0.2620    0.9048 H   0  0  0  0  0  0  0  0  0  0  0  0
    1.0348   -0.3522   -1.9277 H   0  0  0  0  0  0  0  0  0  0  0  0
    0.4965    1.6597    0.4426 H   0  0  0  0  0  0  0  0  0  0  0  0
   -0.0135    1.8005   -1.3089 H   0  0  0  0  0  0  0  0  0  0  0  0
   -1.3629    1.5461    1.5407 H   0  0  0  0  0  0  0  0  0  0  0  0
   -1.5353   -0.2010    1.8595 H   0  0  0  0  0  0  0  0  0  0  0  0
   -2.8272    0.7189    0.8821 H   0  0  0  0  0  0  0  0  0  0  0  0
   -1.9640   -1.8380   -0.3044 H   0  0  0  0  0  0  0  0  0  0  0  0
   -1.2689   -1.1432   -1.9313 H   0  0  0  0  0  0  0  0  0  0  0  0
    0.2457   -1.2197    0.9562 H   0  0  0  0  0  0  0  0  0  0  0  0
  1  2  3  0
  2  3  1  0
  3  4  1  0
  4  5  1  0
  5  6  1  0
  5  7  1  0
  7  8  1  0
  8  3  1  0
  8  5  1  0
  1  9  1  0
  3 10  1  0
  4 11  1  0
  4 12  1  0
  6 13  1  0
  6 14  1  0
  6 15  1  0
  7 16  1  0
  7 17  1  0
  8 18  1  0
M  END
