
     RDKit          3D

 17 16  0  0  0  0  0  0  0  0999 V2000
   -2.6711   -2.5282   -1.0864 C   0  0  0  0  0  0  0  0  0  0  0  0
   -1.9382   -1.8055   -0.5334 C   0  0  0  0  0  0  0  0  0  0  0  0
   -0.9874   -0.8945    0.1811 C   0  0  0  0  0  0  0  0  0  0  0  0
   -1.6003    0.4661    0.0873 C   0  0  0  0  0  0  0  0  0  0  0  0
   -2.0862    1.5550    0.0309 C   0  0  0  0  0  0  0  0  0  0  0  0
    0.3372   -0.8911   -0.5413 C   0  0  0  0  0  0  0  0  0  0  0  0
    1.2048    0.0265    0.2260 C   0  0  0  0  0  0  0  0  0  0  0  0
    1.9090    0.7988    0.8585 C   0  0  0  0  0  0  0  0  0  0  0  0
    2.7435    1.7278    1.5982 C   0  0  0  0  0  0  0  0  0  0  0  0
   -3.3636   -3.2356   -1.6120 H   0  0  0  0  0  0  0  0  0  0  0  0
   -0.9536   -1.2170    1.2104 H   0  0  0  0  0  0  0  0  0  0  0  0
   -2.5116    2.5543   -0.0221 H   0  0  0  0  0  0  0  0  0  0  0  0
    0.1791   -0.5375   -1.5553 H   0  0  0  0  0  0  0  0  0  0  0  0
    0.7642   -1.9268   -0.5454 H   0  0  0  0  0  0  0  0  0  0  0  0
    3.7115    1.2459    1.9043 H   0  0  0  0  0  0  0  0  0  0  0  0
    2.2577    2.0749    2.5364 H   0  0  0  0  0  0  0  0  0  0  0  0
    3.0050    2.5868    0.9461 H   0  0  0  0  0  0  0  0  0  0  0  0
  1  2  3  0
  2  3  1  0
  3  4  1  0
  4  5  3  0
  3  6  1  0
  6  7  1  0
  7  8  3  0
  8  9  1  0
  1 10  1  0
  3 11  1  0
  5 12  1  0
  6 13  1  0
  6 14  1  0
  9 15  1  0
  9 16  1  0
  9 17  1  0
M  END
