
     RDKit          3D

 23 22  0  0  0  0  0  0  0  0999 V2000
    0.1179    3.6943    0.2017 C   0  0  0  0  0  0  0  0  0  0  0  0
    0.1299    2.4969    0.0728 C   0  0  0  0  0  0  0  0  0  0  0  0
    0.1207    1.0072   -0.0976 C   0  0  0  0  0  0  0  0  0  0  0  0
   -1.0980    0.6830   -0.8681 C   0  0  0  0  0  0  0  0  0  0  0  0
   -1.3667   -0.7386   -1.1794 C   0  0  0  0  0  0  0  0  0  0  0  0
   -1.5372   -1.6105    0.0241 C   0  0  0  0  0  0  0  0  0  0  0  0
    0.2680    0.4257    1.1298 O   0  0  0  0  0  0  0  0  0  0  0  0
    1.4854   -0.1858    1.2954 C   0  0  0  0  0  0  0  0  0  0  0  0
    1.8104   -1.2879    0.3518 C   0  0  0  0  0  0  0  0  0  0  0  0
    0.0985    4.7446    0.3306 H   0  0  0  0  0  0  0  0  0  0  0  0
    1.0232    0.8384   -0.7494 H   0  0  0  0  0  0  0  0  0  0  0  0
   -1.9734    1.0777   -0.2802 H   0  0  0  0  0  0  0  0  0  0  0  0
   -1.0664    1.3097   -1.8080 H   0  0  0  0  0  0  0  0  0  0  0  0
   -0.6129   -1.1951   -1.8743 H   0  0  0  0  0  0  0  0  0  0  0  0
   -2.3323   -0.7644   -1.7691 H   0  0  0  0  0  0  0  0  0  0  0  0
   -1.5057   -1.0655    0.9710 H   0  0  0  0  0  0  0  0  0  0  0  0
   -0.8019   -2.4619   -0.0259 H   0  0  0  0  0  0  0  0  0  0  0  0
   -2.5358   -2.1362   -0.0050 H   0  0  0  0  0  0  0  0  0  0  0  0
    1.5349   -0.5942    2.3485 H   0  0  0  0  0  0  0  0  0  0  0  0
    2.3391    0.5515    1.2768 H   0  0  0  0  0  0  0  0  0  0  0  0
    1.5088   -2.2895    0.7562 H   0  0  0  0  0  0  0  0  0  0  0  0
    2.9348   -1.3701    0.2679 H   0  0  0  0  0  0  0  0  0  0  0  0
    1.4585   -1.1294   -0.6724 H   0  0  0  0  0  0  0  0  0  0  0  0
  1  2  3  0
  2  3  1  0
  3  4  1  0
  4  5  1  0
  5  6  1  0
  3  7  1  0
  7  8  1  0
  8  9  1  0
  1 10  1  0
  3 11  1  0
  4 12  1  0
  4 13  1  0
  5 14  1  0
  5 15  1  0
  6 16  1  0
  6 17  1  0
  6 18  1  0
  8 19  1  0
  8 20  1  0
  9 21  1  0
  9 22  1  0
  9 23  1  0
M  END
