
     RDKit          3D

 17 18  0  0  0  0  0  0  0  0999 V2000
    2.2137   -2.5006   -1.0194 C   0  0  0  0  0  0  0  0  0  0  0  0
    1.3567   -1.6877   -0.5089 C   0  0  0  0  0  0  0  0  0  0  0  0
    0.4512   -0.8000    0.0527 C   0  0  0  0  0  0  0  0  0  0  0  0
   -0.9028   -0.5529   -0.4646 C   0  0  0  0  0  0  0  0  0  0  0  0
   -0.9661    0.9702   -0.8193 C   0  0  0  0  0  0  0  0  0  0  0  0
   -1.7716    1.8217   -0.0899 O   0  0  0  0  0  0  0  0  0  0  0  0
   -0.3567    1.5656    0.3407 C   0  0  0  0  0  0  0  0  0  0  0  0
   -0.2633    0.7293    1.5778 C   0  0  0  0  0  0  0  0  0  0  0  0
    0.5546   -0.4517    1.4052 O   0  0  0  0  0  0  0  0  0  0  0  0
    2.8761   -3.1054   -1.4052 H   0  0  0  0  0  0  0  0  0  0  0  0
    1.0068    0.2746   -0.3411 H   0  0  0  0  0  0  0  0  0  0  0  0
   -1.7273   -0.7075    0.3041 H   0  0  0  0  0  0  0  0  0  0  0  0
   -1.1056   -1.1233   -1.3515 H   0  0  0  0  0  0  0  0  0  0  0  0
   -0.7324    1.2458   -1.8353 H   0  0  0  0  0  0  0  0  0  0  0  0
    0.1973    2.5415    0.2652 H   0  0  0  0  0  0  0  0  0  0  0  0
   -1.1744    0.4365    2.0512 H   0  0  0  0  0  0  0  0  0  0  0  0
    0.3438    1.3439    2.2973 H   0  0  0  0  0  0  0  0  0  0  0  0
  1  2  3  0
  2  3  1  0
  3  4  1  0
  4  5  1  0
  5  6  1  0
  6  7  1  0
  7  8  1  0
  8  9  1  0
  9  3  1  0
  7  5  1  0
  1 10  1  0
  3 11  1  0
  4 12  1  0
  4 13  1  0
  5 14  1  0
  7 15  1  0
  8 16  1  0
  8 17  1  0
M  END
