
     RDKit          3D

 16 16  0  0  0  0  0  0  0  0999 V2000
   -0.0443    0.5965    2.5595 C   0  0  0  0  0  0  0  0  0  0  0  0
   -0.2264    0.3946    1.3548 C   0  0  0  0  0  0  0  0  0  0  0  0
   -0.4172    0.1494   -0.0715 C   0  0  0  0  0  0  0  0  0  0  0  0
   -1.0248   -1.2408   -0.2502 C   0  0  0  0  0  0  0  0  0  0  0  0
   -2.2672   -1.3224    0.4093 O   0  0  0  0  0  0  0  0  0  0  0  0
    0.8727    0.2077   -0.7995 C   0  0  0  0  0  0  0  0  0  0  0  0
    1.7498    1.3412   -0.8679 C   0  0  0  0  0  0  0  0  0  0  0  0
    0.7647    1.1439   -1.9449 O   0  0  0  0  0  0  0  0  0  0  0  0
    0.0979    0.7815    3.5905 H   0  0  0  0  0  0  0  0  0  0  0  0
   -1.1691    0.9023   -0.3984 H   0  0  0  0  0  0  0  0  0  0  0  0
   -0.2894   -1.9557    0.1720 H   0  0  0  0  0  0  0  0  0  0  0  0
   -1.1452   -1.3841   -1.3343 H   0  0  0  0  0  0  0  0  0  0  0  0
   -2.4913   -2.2981    0.4262 H   0  0  0  0  0  0  0  0  0  0  0  0
    1.2545   -0.7693   -1.1828 H   0  0  0  0  0  0  0  0  0  0  0  0
    2.7873    1.1879   -1.2003 H   0  0  0  0  0  0  0  0  0  0  0  0
    1.5481    2.2654   -0.2960 H   0  0  0  0  0  0  0  0  0  0  0  0
  1  2  3  0
  2  3  1  0
  3  4  1  0
  4  5  1  0
  3  6  1  0
  6  7  1  0
  7  8  1  0
  8  6  1  0
  1  9  1  0
  3 10  1  0
  4 11  1  0
  4 12  1  0
  5 13  1  0
  6 14  1  0
  7 15  1  0
  7 16  1  0
M  END
