
     RDKit          3D

 13 13  0  0  0  0  0  0  0  0999 V2000
    4.0668    0.4340    1.0387 C   0  0  0  0  0  0  0  0  0  0  0  0
    2.9441    0.2338    0.7837 C   0  0  0  0  0  0  0  0  0  0  0  0
    1.5010   -0.0250    0.4343 C   0  0  0  0  0  0  0  0  0  0  0  0
    0.4825   -0.2202    0.1724 C   0  0  0  0  0  0  0  0  0  0  0  0
   -0.7575   -0.4454   -0.1599 C   0  0  0  0  0  0  0  0  0  0  0  0
   -1.9351    0.0367   -0.8002 C   0  0  0  0  0  0  0  0  0  0  0  0
   -2.6676   -0.5970    0.4035 O   0  0  0  0  0  0  0  0  0  0  0  0
   -1.6616    0.1968    1.0600 C   0  0  0  0  0  0  0  0  0  0  0  0
   -1.4871    0.9063    1.9236 O   0  0  0  0  0  0  0  0  0  0  0  0
    5.1609    0.6254    1.2881 H   0  0  0  0  0  0  0  0  0  0  0  0
   -0.9578   -1.6756    0.0799 H   0  0  0  0  0  0  0  0  0  0  0  0
   -2.4484   -0.5513   -1.6344 H   0  0  0  0  0  0  0  0  0  0  0  0
   -2.2400    1.0816   -0.7964 H   0  0  0  0  0  0  0  0  0  0  0  0
  1  2  3  0
  2  3  1  0
  3  4  3  0
  4  5  1  0
  5  6  1  0
  6  7  1  0
  7  8  1  0
  8  9  2  0
  8  5  1  0
  1 10  1  0
  5 11  1  0
  6 12  1  0
  6 13  1  0
M  END
