
     RDKit          3D

 17 16  0  0  0  0  0  0  0  0999 V2000
   -3.9045   -0.1124    1.3919 C   0  0  0  0  0  0  0  0  0  0  0  0
   -2.9093   -0.5069    0.8362 C   0  0  0  0  0  0  0  0  0  0  0  0
   -1.7141   -0.9760    0.1526 C   0  0  0  0  0  0  0  0  0  0  0  0
   -1.7010   -2.1603   -0.2762 O   0  0  0  0  0  0  0  0  0  0  0  0
   -0.5756   -0.0909   -0.0228 C   0  0  0  0  0  0  0  0  0  0  0  0
   -0.6042    1.0725    0.4052 O   0  0  0  0  0  0  0  0  0  0  0  0
    0.6221   -0.5934   -0.7193 C   0  0  0  0  0  0  0  0  0  0  0  0
    1.7036    0.4572   -0.8106 C   0  0  0  0  0  0  0  0  0  0  0  0
    2.0765    0.8521    0.5920 C   0  0  0  0  0  0  0  0  0  0  0  0
   -4.7841    0.2253    1.8955 H   0  0  0  0  0  0  0  0  0  0  0  0
    0.3218   -0.8780   -1.7662 H   0  0  0  0  0  0  0  0  0  0  0  0
    0.9840   -1.4950   -0.1920 H   0  0  0  0  0  0  0  0  0  0  0  0
    1.3799    1.3081   -1.4402 H   0  0  0  0  0  0  0  0  0  0  0  0
    2.5983    0.0290   -1.3053 H   0  0  0  0  0  0  0  0  0  0  0  0
    3.1721    0.7464    0.7850 H   0  0  0  0  0  0  0  0  0  0  0  0
    1.7683    1.8915    0.7532 H   0  0  0  0  0  0  0  0  0  0  0  0
    1.5662    0.2308    1.3639 H   0  0  0  0  0  0  0  0  0  0  0  0
  1  2  3  0
  2  3  1  0
  3  4  2  0
  3  5  1  0
  5  6  2  0
  5  7  1  0
  7  8  1  0
  8  9  1  0
  1 10  1  0
  7 11  1  0
  7 12  1  0
  8 13  1  0
  8 14  1  0
  9 15  1  0
  9 16  1  0
  9 17  1  0
M  END
