
     RDKit          3D

 21 21  0  0  0  0  0  0  0  0999 V2000
   -2.7309   -0.6636    0.3138 C   0  0  0  0  0  0  0  0  0  0  0  0
   -1.4858   -0.7053   -0.1554 C   0  0  0  0  0  0  0  0  0  0  0  0
   -0.2160   -0.7718   -0.6341 C   0  0  0  0  0  0  0  0  0  0  0  0
    0.2037   -2.0372   -1.3026 C   0  0  0  0  0  0  0  0  0  0  0  0
    0.0675    0.4460   -1.5607 C   0  0  0  0  0  0  0  0  0  0  0  0
    0.0890    1.5461   -0.5212 C   0  0  0  0  0  0  0  0  0  0  0  0
    0.5424    1.0338    0.6367 C   0  0  0  0  0  0  0  0  0  0  0  0
    0.7319    1.7417    1.9284 C   0  0  0  0  0  0  0  0  0  0  0  0
    0.8364   -0.4422    0.4801 C   0  0  0  0  0  0  0  0  0  0  0  0
   -3.6992   -0.6183    0.6653 H   0  0  0  0  0  0  0  0  0  0  0  0
    0.4881   -1.7625   -2.3564 H   0  0  0  0  0  0  0  0  0  0  0  0
    1.0276   -2.5178   -0.7647 H   0  0  0  0  0  0  0  0  0  0  0  0
   -0.6640   -2.7358   -1.3121 H   0  0  0  0  0  0  0  0  0  0  0  0
    1.0523    0.3377   -2.0085 H   0  0  0  0  0  0  0  0  0  0  0  0
   -0.6999    0.6352   -2.2758 H   0  0  0  0  0  0  0  0  0  0  0  0
   -0.2241    2.5523   -0.7142 H   0  0  0  0  0  0  0  0  0  0  0  0
    0.8939    2.7995    1.7241 H   0  0  0  0  0  0  0  0  0  0  0  0
    1.6056    1.2661    2.4673 H   0  0  0  0  0  0  0  0  0  0  0  0
   -0.1798    1.5492    2.5388 H   0  0  0  0  0  0  0  0  0  0  0  0
    0.5231   -0.9978    1.3714 H   0  0  0  0  0  0  0  0  0  0  0  0
    1.8383   -0.6553    0.1429 H   0  0  0  0  0  0  0  0  0  0  0  0
  1  2  3  0
  2  3  1  0
  3  4  1  0
  3  5  1  0
  5  6  1  0
  6  7  2  0
  7  8  1  0
  7  9  1  0
  9  3  1  0
  1 10  1  0
  4 11  1  0
  4 12  1  0
  4 13  1  0
  5 14  1  0
  5 15  1  0
  6 16  1  0
  8 17  1  0
  8 18  1  0
  8 19  1  0
  9 20  1  0
  9 21  1  0
M  END
