
     RDKit          3D

 18 17  0  0  0  0  0  0  0  0999 V2000
   -0.8317    2.3776   -0.1128 C   0  0  0  0  0  0  0  0  0  0  0  0
   -1.5259    1.2666   -0.3023 C   0  0  0  0  0  0  0  0  0  0  0  0
   -2.0440    0.4112   -0.4582 C   0  0  0  0  0  0  0  0  0  0  0  0
   -1.6452   -0.8828    0.4216 C   0  0  0  0  0  0  0  0  0  0  0  0
   -0.4836   -1.5625   -0.1643 C   0  0  0  0  0  0  0  0  0  0  0  0
    0.8447   -0.8815   -0.0295 C   0  0  0  0  0  0  0  0  0  0  0  0
    1.8787   -0.3451    0.0713 C   0  0  0  0  0  0  0  0  0  0  0  0
    3.1965    0.3170    0.2137 C   0  0  0  0  0  0  0  0  0  0  0  0
   -0.0635    3.5592    0.0930 H   0  0  0  0  0  0  0  0  0  0  0  0
   -2.1345   -0.2211   -1.5192 H   0  0  0  0  0  0  0  0  0  0  0  0
   -3.2819    0.2245   -0.2939 H   0  0  0  0  0  0  0  0  0  0  0  0
   -2.3367   -1.3775    1.0332 H   0  0  0  0  0  0  0  0  0  0  0  0
   -1.0842   -0.2239    1.3435 H   0  0  0  0  0  0  0  0  0  0  0  0
   -0.3551   -2.5989    0.2956 H   0  0  0  0  0  0  0  0  0  0  0  0
   -0.6866   -1.7552   -1.2766 H   0  0  0  0  0  0  0  0  0  0  0  0
    3.1952    0.8511    1.1967 H   0  0  0  0  0  0  0  0  0  0  0  0
    4.0643   -0.3187    0.0840 H   0  0  0  0  0  0  0  0  0  0  0  0
    3.2934    1.1600   -0.5958 H   0  0  0  0  0  0  0  0  0  0  0  0
  1  2  3  0
  2  3  1  0
  3  4  1  0
  4  5  1  0
  5  6  1  0
  6  7  3  0
  7  8  1  0
  1  9  1  0
  3 10  1  0
  3 11  1  0
  4 12  1  0
  4 13  1  0
  5 14  1  0
  5 15  1  0
  8 16  1  0
  8 17  1  0
  8 18  1  0
M  END
