
     RDKit          3D

 15 14  0  0  0  0  0  0  0  0999 V2000
    1.2855   -1.5422   -1.8666 C   0  0  0  0  0  0  0  0  0  0  0  0
    0.6999   -0.6284   -1.2183 C   0  0  0  0  0  0  0  0  0  0  0  0
   -0.0090    0.4448   -0.4719 C   0  0  0  0  0  0  0  0  0  0  0  0
    0.8452    1.5696   -0.3284 C   0  0  0  0  0  0  0  0  0  0  0  0
    1.6334    2.5754   -0.2017 C   0  0  0  0  0  0  0  0  0  0  0  0
   -0.2874   -0.2629    0.8568 C   0  0  0  0  0  0  0  0  0  0  0  0
   -0.7944    0.6472    1.8458 O   0  0  0  0  0  0  0  0  0  0  0  0
   -1.6380   -0.9634    0.5007 C   0  0  0  0  0  0  0  0  0  0  0  0
   -1.6138   -1.7214   -0.4487 O   0  0  0  0  0  0  0  0  0  0  0  0
    1.8254   -2.3593   -2.4397 H   0  0  0  0  0  0  0  0  0  0  0  0
   -0.9768    0.6123   -1.0022 H   0  0  0  0  0  0  0  0  0  0  0  0
    2.2735    3.3645   -0.0948 H   0  0  0  0  0  0  0  0  0  0  0  0
    0.3890   -0.9706    1.2203 H   0  0  0  0  0  0  0  0  0  0  0  0
   -1.0858    0.0461    2.6228 H   0  0  0  0  0  0  0  0  0  0  0  0
   -2.5464   -0.8115    1.0259 H   0  0  0  0  0  0  0  0  0  0  0  0
  1  2  3  0
  2  3  1  0
  3  4  1  0
  4  5  3  0
  3  6  1  0
  6  7  1  0
  6  8  1  0
  8  9  2  0
  1 10  1  0
  3 11  1  0
  5 12  1  0
  6 13  1  0
  7 14  1  0
  8 15  1  0
M  END
