
     RDKit          3D

 17 18  0  0  0  0  0  0  0  0999 V2000
   -0.1809   -0.4801   -0.5052 C   0  0  0  0  0  0  0  0  0  0  0  0
    1.0176   -0.6086   -0.4029 C   0  0  0  0  0  0  0  0  0  0  0  0
    2.4826   -0.7698   -0.2828 C   0  0  0  0  0  0  0  0  0  0  0  0
    3.2812    0.5159   -0.0618 C   0  0  0  0  0  0  0  0  0  0  0  0
    3.1969   -0.1476   -1.2945 O   0  0  0  0  0  0  0  0  0  0  0  0
   -1.6320   -0.3119   -0.6078 C   0  0  0  0  0  0  0  0  0  0  0  0
   -2.2769   -0.6018    0.7266 C   0  0  0  0  0  0  0  0  0  0  0  0
   -3.0158    0.5977    0.5974 O   0  0  0  0  0  0  0  0  0  0  0  0
   -2.1059    1.1174   -0.3202 C   0  0  0  0  0  0  0  0  0  0  0  0
    2.8758   -1.6676    0.2182 H   0  0  0  0  0  0  0  0  0  0  0  0
    4.2012    0.4653    0.5179 H   0  0  0  0  0  0  0  0  0  0  0  0
    2.6550    1.4400    0.0524 H   0  0  0  0  0  0  0  0  0  0  0  0
   -2.1094   -0.7883   -1.4706 H   0  0  0  0  0  0  0  0  0  0  0  0
   -2.9818   -1.4519    0.6149 H   0  0  0  0  0  0  0  0  0  0  0  0
   -1.6156   -0.6187    1.5898 H   0  0  0  0  0  0  0  0  0  0  0  0
   -1.2618    1.6669    0.1791 H   0  0  0  0  0  0  0  0  0  0  0  0
   -2.5302    1.6430   -1.1817 H   0  0  0  0  0  0  0  0  0  0  0  0
  1  2  3  0
  2  3  1  0
  3  4  1  0
  4  5  1  0
  1  6  1  0
  6  7  1  0
  7  8  1  0
  8  9  1  0
  5  3  1  0
  9  6  1  0
  3 10  1  0
  4 11  1  0
  4 12  1  0
  6 13  1  0
  7 14  1  0
  7 15  1  0
  9 16  1  0
  9 17  1  0
M  END
