
     RDKit          3D

 21 22  0  0  0  0  0  0  0  0999 V2000
   -0.3024   -0.3418    0.0559 C   0  0  0  0  0  0  0  0  0  0  0  0
    0.8224   -0.6967   -0.2988 C   0  0  0  0  0  0  0  0  0  0  0  0
    2.1720   -1.0957   -0.7195 C   0  0  0  0  0  0  0  0  0  0  0  0
    2.8568   -1.9483    0.3382 C   0  0  0  0  0  0  0  0  0  0  0  0
    3.2788   -0.5421    0.0623 C   0  0  0  0  0  0  0  0  0  0  0  0
   -1.6485    0.0680    0.4567 C   0  0  0  0  0  0  0  0  0  0  0  0
   -1.7559    1.5399    0.8255 C   0  0  0  0  0  0  0  0  0  0  0  0
   -2.3641    1.7819   -0.5352 C   0  0  0  0  0  0  0  0  0  0  0  0
   -2.6032    0.2949   -0.6968 C   0  0  0  0  0  0  0  0  0  0  0  0
    2.3348   -1.3806   -1.7779 H   0  0  0  0  0  0  0  0  0  0  0  0
    2.3739   -2.1090    1.3148 H   0  0  0  0  0  0  0  0  0  0  0  0
    3.3994   -2.8107   -0.0711 H   0  0  0  0  0  0  0  0  0  0  0  0
    4.2829   -0.4884   -0.4507 H   0  0  0  0  0  0  0  0  0  0  0  0
    3.1820    0.2076    0.8515 H   0  0  0  0  0  0  0  0  0  0  0  0
   -2.0473   -0.6158    1.2132 H   0  0  0  0  0  0  0  0  0  0  0  0
   -0.7211    1.9710    0.9342 H   0  0  0  0  0  0  0  0  0  0  0  0
   -2.3762    1.7180    1.7007 H   0  0  0  0  0  0  0  0  0  0  0  0
   -3.2664    2.4035   -0.4344 H   0  0  0  0  0  0  0  0  0  0  0  0
   -1.6393    2.1740   -1.2737 H   0  0  0  0  0  0  0  0  0  0  0  0
   -3.6478    0.0126   -0.4156 H   0  0  0  0  0  0  0  0  0  0  0  0
   -2.3307   -0.1422   -1.6542 H   0  0  0  0  0  0  0  0  0  0  0  0
  1  2  3  0
  2  3  1  0
  3  4  1  0
  4  5  1  0
  1  6  1  0
  6  7  1  0
  7  8  1  0
  8  9  1  0
  5  3  1  0
  9  6  1  0
  3 10  1  0
  4 11  1  0
  4 12  1  0
  5 13  1  0
  5 14  1  0
  6 15  1  0
  7 16  1  0
  7 17  1  0
  8 18  1  0
  8 19  1  0
  9 20  1  0
  9 21  1  0
M  END
