
     RDKit          3D

 16 17  0  0  0  0  0  0  0  0999 V2000
    0.2615   -0.5262    0.0094 C   0  0  0  0  0  0  0  0  0  0  0  0
   -0.9448   -0.6544    0.0872 C   0  0  0  0  0  0  0  0  0  0  0  0
   -2.3923   -0.8007    0.1587 C   0  0  0  0  0  0  0  0  0  0  0  0
   -3.1540    0.2655   -0.6061 C   0  0  0  0  0  0  0  0  0  0  0  0
   -3.1359    0.1926    0.7796 O   0  0  0  0  0  0  0  0  0  0  0  0
    1.7160   -0.3803   -0.1084 C   0  0  0  0  0  0  0  0  0  0  0  0
    2.4375   -0.0518    1.1387 C   0  0  0  0  0  0  0  0  0  0  0  0
    2.3126    1.0095    0.0963 C   0  0  0  0  0  0  0  0  0  0  0  0
   -2.8129   -1.8182    0.1482 H   0  0  0  0  0  0  0  0  0  0  0  0
   -4.0122   -0.0872   -1.1738 H   0  0  0  0  0  0  0  0  0  0  0  0
   -2.5755    1.1500   -0.9906 H   0  0  0  0  0  0  0  0  0  0  0  0
    2.2536   -1.0393   -0.8428 H   0  0  0  0  0  0  0  0  0  0  0  0
    3.4412   -0.4678    1.3479 H   0  0  0  0  0  0  0  0  0  0  0  0
    1.8323    0.0932    2.0739 H   0  0  0  0  0  0  0  0  0  0  0  0
    1.6207    1.8474    0.2971 H   0  0  0  0  0  0  0  0  0  0  0  0
    3.1524    1.2676   -0.5626 H   0  0  0  0  0  0  0  0  0  0  0  0
  1  2  3  0
  2  3  1  0
  3  4  1  0
  4  5  1  0
  1  6  1  0
  6  7  1  0
  7  8  1  0
  5  3  1  0
  8  6  1  0
  3  9  1  0
  4 10  1  0
  4 11  1  0
  6 12  1  0
  7 13  1  0
  7 14  1  0
  8 15  1  0
  8 16  1  0
M  END
