
     RDKit          3D

 19 20  0  0  0  0  0  0  0  0999 V2000
    0.3738   -0.3353    0.2368 C   0  0  0  0  0  0  0  0  0  0  0  0
    1.4233   -0.1166   -0.3587 C   0  0  0  0  0  0  0  0  0  0  0  0
    2.7011    0.1375   -1.1091 C   0  0  0  0  0  0  0  0  0  0  0  0
    3.6385    0.9490   -0.4377 C   0  0  0  0  0  0  0  0  0  0  0  0
    2.8080    1.5493   -1.5084 O   0  0  0  0  0  0  0  0  0  0  0  0
   -0.8606   -0.5788    0.9316 C   0  0  0  0  0  0  0  0  0  0  0  0
   -1.7355    0.6657    0.9002 C   0  0  0  0  0  0  0  0  0  0  0  0
   -2.7531   -0.1365    0.1203 C   0  0  0  0  0  0  0  0  0  0  0  0
   -1.8853   -1.3758    0.1866 C   0  0  0  0  0  0  0  0  0  0  0  0
    3.0371   -0.6082   -1.8496 H   0  0  0  0  0  0  0  0  0  0  0  0
    3.4326    1.3693    0.5649 H   0  0  0  0  0  0  0  0  0  0  0  0
    4.6931    0.9758   -0.7811 H   0  0  0  0  0  0  0  0  0  0  0  0
   -0.7653   -0.9507    1.9782 H   0  0  0  0  0  0  0  0  0  0  0  0
   -2.1069    0.9151    1.9349 H   0  0  0  0  0  0  0  0  0  0  0  0
   -1.3378    1.5270    0.3597 H   0  0  0  0  0  0  0  0  0  0  0  0
   -3.7161   -0.2253    0.6516 H   0  0  0  0  0  0  0  0  0  0  0  0
   -2.9511    0.1848   -0.9281 H   0  0  0  0  0  0  0  0  0  0  0  0
   -2.3912   -2.1757    0.8120 H   0  0  0  0  0  0  0  0  0  0  0  0
   -1.6047   -1.7707   -0.7917 H   0  0  0  0  0  0  0  0  0  0  0  0
  1  2  3  0
  2  3  1  0
  3  4  1  0
  4  5  1  0
  1  6  1  0
  6  7  1  0
  7  8  1  0
  8  9  1  0
  5  3  1  0
  9  6  1  0
  3 10  1  0
  4 11  1  0
  4 12  1  0
  6 13  1  0
  7 14  1  0
  7 15  1  0
  8 16  1  0
  8 17  1  0
  9 18  1  0
  9 19  1  0
M  END
