
     RDKit          3D

 19 20  0  0  0  0  0  0  0  0999 V2000
    0.4388   -0.3039   -0.3474 C   0  0  0  0  0  0  0  0  0  0  0  0
    1.6341   -0.0889   -0.2771 C   0  0  0  0  0  0  0  0  0  0  0  0
    3.0761    0.1725   -0.2178 C   0  0  0  0  0  0  0  0  0  0  0  0
    4.0494   -0.8367   -0.5671 C   0  0  0  0  0  0  0  0  0  0  0  0
    3.7568   -0.7149    0.7880 O   0  0  0  0  0  0  0  0  0  0  0  0
   -0.9930   -0.5863   -0.4389 C   0  0  0  0  0  0  0  0  0  0  0  0
   -1.7096    0.2399    0.6149 C   0  0  0  0  0  0  0  0  0  0  0  0
   -3.2129    0.1085    0.7066 C   0  0  0  0  0  0  0  0  0  0  0  0
   -2.6002    1.3596    0.1925 C   0  0  0  0  0  0  0  0  0  0  0  0
    3.4053    1.2159   -0.0465 H   0  0  0  0  0  0  0  0  0  0  0  0
    5.0352   -0.5285   -0.9171 H   0  0  0  0  0  0  0  0  0  0  0  0
    3.6880   -1.7956   -1.0060 H   0  0  0  0  0  0  0  0  0  0  0  0
   -1.2252   -1.6553   -0.2132 H   0  0  0  0  0  0  0  0  0  0  0  0
   -1.3904   -0.3766   -1.4379 H   0  0  0  0  0  0  0  0  0  0  0  0
   -1.2058    0.3550    1.5990 H   0  0  0  0  0  0  0  0  0  0  0  0
   -3.6918    0.1463    1.7095 H   0  0  0  0  0  0  0  0  0  0  0  0
   -3.7142   -0.5836   -0.0077 H   0  0  0  0  0  0  0  0  0  0  0  0
   -2.7212    1.5899   -0.8819 H   0  0  0  0  0  0  0  0  0  0  0  0
   -2.6193    2.2827    0.8323 H   0  0  0  0  0  0  0  0  0  0  0  0
  1  2  3  0
  2  3  1  0
  3  4  1  0
  4  5  1  0
  1  6  1  0
  6  7  1  0
  7  8  1  0
  8  9  1  0
  5  3  1  0
  9  7  1  0
  3 10  1  0
  4 11  1  0
  4 12  1  0
  6 13  1  0
  6 14  1  0
  7 15  1  0
  8 16  1  0
  8 17  1  0
  9 18  1  0
  9 19  1  0
M  END
