
     RDKit          3D

 18 19  0  0  0  0  0  0  0  0999 V2000
   -0.6729    0.4838   -0.7565 C   0  0  0  0  0  0  0  0  0  0  0  0
    0.6479   -0.2327   -0.7756 C   0  0  0  0  0  0  0  0  0  0  0  0
    1.4855    0.0144    0.4376 C   0  0  0  0  0  0  0  0  0  0  0  0
    2.8074   -0.6652    0.4840 C   0  0  0  0  0  0  0  0  0  0  0  0
    2.6630    0.7314    0.3539 O   0  0  0  0  0  0  0  0  0  0  0  0
   -1.4515    0.0170    0.4436 C   0  0  0  0  0  0  0  0  0  0  0  0
   -2.7848    0.5414    0.7289 C   0  0  0  0  0  0  0  0  0  0  0  0
   -2.7206   -0.6641    0.0354 O   0  0  0  0  0  0  0  0  0  0  0  0
   -0.5780    1.5801   -0.6820 H   0  0  0  0  0  0  0  0  0  0  0  0
   -1.1849    0.2617   -1.7158 H   0  0  0  0  0  0  0  0  0  0  0  0
    0.4207   -1.3264   -0.8108 H   0  0  0  0  0  0  0  0  0  0  0  0
    1.1995   -0.0109   -1.7138 H   0  0  0  0  0  0  0  0  0  0  0  0
    0.9568    0.1338    1.4011 H   0  0  0  0  0  0  0  0  0  0  0  0
    3.2631   -1.1284   -0.4014 H   0  0  0  0  0  0  0  0  0  0  0  0
    3.1335   -1.0683    1.4660 H   0  0  0  0  0  0  0  0  0  0  0  0
   -0.9433   -0.6122    1.2138 H   0  0  0  0  0  0  0  0  0  0  0  0
   -3.1638    0.4829    1.7656 H   0  0  0  0  0  0  0  0  0  0  0  0
   -3.0777    1.4617    0.1658 H   0  0  0  0  0  0  0  0  0  0  0  0
  1  2  1  0
  2  3  1  0
  3  4  1  0
  4  5  1  0
  1  6  1  0
  6  7  1  0
  7  8  1  0
  5  3  1  0
  8  6  1  0
  1  9  1  0
  1 10  1  0
  2 11  1  0
  2 12  1  0
  3 13  1  0
  4 14  1  0
  4 15  1  0
  6 16  1  0
  7 17  1  0
  7 18  1  0
M  END
