
     RDKit          3D

 21 22  0  0  0  0  0  0  0  0999 V2000
   -0.2873    0.5819    0.5406 C   0  0  0  0  0  0  0  0  0  0  0  0
    0.9936    0.0113   -0.0759 C   0  0  0  0  0  0  0  0  0  0  0  0
    2.1935    0.2810    0.7909 C   0  0  0  0  0  0  0  0  0  0  0  0
    3.4851   -0.2370    0.2723 C   0  0  0  0  0  0  0  0  0  0  0  0
    2.7299   -0.9036    1.3749 O   0  0  0  0  0  0  0  0  0  0  0  0
   -1.3913    0.2350   -0.4342 C   0  0  0  0  0  0  0  0  0  0  0  0
   -2.7636    0.6845   -0.0648 C   0  0  0  0  0  0  0  0  0  0  0  0
   -3.2433   -0.5123   -0.6485 O   0  0  0  0  0  0  0  0  0  0  0  0
   -2.0481   -1.1065   -0.1767 C   0  0  0  0  0  0  0  0  0  0  0  0
   -0.4001    0.1081    1.5106 H   0  0  0  0  0  0  0  0  0  0  0  0
   -0.1412    1.6679    0.6454 H   0  0  0  0  0  0  0  0  0  0  0  0
    0.8154   -1.0591   -0.2354 H   0  0  0  0  0  0  0  0  0  0  0  0
    1.1064    0.5304   -1.0505 H   0  0  0  0  0  0  0  0  0  0  0  0
    2.1985    1.1946    1.4127 H   0  0  0  0  0  0  0  0  0  0  0  0
    4.4503    0.0989    0.6931 H   0  0  0  0  0  0  0  0  0  0  0  0
    3.4738   -0.8859   -0.6271 H   0  0  0  0  0  0  0  0  0  0  0  0
   -1.1627    0.3706   -1.4869 H   0  0  0  0  0  0  0  0  0  0  0  0
   -3.1472    1.5941   -0.5357 H   0  0  0  0  0  0  0  0  0  0  0  0
   -2.9700    0.6083    1.0439 H   0  0  0  0  0  0  0  0  0  0  0  0
   -1.6866   -1.9452   -0.7779 H   0  0  0  0  0  0  0  0  0  0  0  0
   -2.2051   -1.3167    0.9158 H   0  0  0  0  0  0  0  0  0  0  0  0
  1  2  1  0
  2  3  1  0
  3  4  1  0
  4  5  1  0
  1  6  1  0
  6  7  1  0
  7  8  1  0
  8  9  1  0
  5  3  1  0
  9  6  1  0
  1 10  1  0
  1 11  1  0
  2 12  1  0
  2 13  1  0
  3 14  1  0
  4 15  1  0
  4 16  1  0
  6 17  1  0
  7 18  1  0
  7 19  1  0
  9 20  1  0
  9 21  1  0
M  END
