
     RDKit          3D

 23 24  0  0  0  0  0  0  0  0999 V2000
   -0.1918   -0.8059    0.7517 C   0  0  0  0  0  0  0  0  0  0  0  0
    0.6374    0.1226   -0.0942 C   0  0  0  0  0  0  0  0  0  0  0  0
    2.0722    0.1161    0.3611 C   0  0  0  0  0  0  0  0  0  0  0  0
    3.0144    1.0260   -0.4275 C   0  0  0  0  0  0  0  0  0  0  0  0
    3.1514   -0.4865   -0.4179 C   0  0  0  0  0  0  0  0  0  0  0  0
   -1.6299   -0.8534    0.3596 C   0  0  0  0  0  0  0  0  0  0  0  0
   -2.3293    0.4752    0.4490 C   0  0  0  0  0  0  0  0  0  0  0  0
   -3.7914    0.4518    0.0555 C   0  0  0  0  0  0  0  0  0  0  0  0
   -3.3399    0.6681    1.3816 O   0  0  0  0  0  0  0  0  0  0  0  0
    0.2200   -1.8311    0.6463 H   0  0  0  0  0  0  0  0  0  0  0  0
   -0.0872   -0.5376    1.8175 H   0  0  0  0  0  0  0  0  0  0  0  0
    0.6326   -0.2339   -1.1487 H   0  0  0  0  0  0  0  0  0  0  0  0
    0.2859    1.1529   -0.0947 H   0  0  0  0  0  0  0  0  0  0  0  0
    2.1967    0.1720    1.4555 H   0  0  0  0  0  0  0  0  0  0  0  0
    3.7476    1.6256    0.1420 H   0  0  0  0  0  0  0  0  0  0  0  0
    2.6235    1.4948   -1.3547 H   0  0  0  0  0  0  0  0  0  0  0  0
    2.9907   -0.9673   -1.4054 H   0  0  0  0  0  0  0  0  0  0  0  0
    4.0064   -0.9371    0.1503 H   0  0  0  0  0  0  0  0  0  0  0  0
   -2.1422   -1.5596    1.0455 H   0  0  0  0  0  0  0  0  0  0  0  0
   -1.7773   -1.2593   -0.6617 H   0  0  0  0  0  0  0  0  0  0  0  0
   -1.7683    1.3454    0.0553 H   0  0  0  0  0  0  0  0  0  0  0  0
   -4.2852   -0.5112   -0.1570 H   0  0  0  0  0  0  0  0  0  0  0  0
   -4.2364    1.3323   -0.4462 H   0  0  0  0  0  0  0  0  0  0  0  0
  1  2  1  0
  2  3  1  0
  3  4  1  0
  4  5  1  0
  1  6  1  0
  6  7  1  0
  7  8  1  0
  8  9  1  0
  5  3  1  0
  9  7  1  0
  1 10  1  0
  1 11  1  0
  2 12  1  0
  2 13  1  0
  3 14  1  0
  4 15  1  0
  4 16  1  0
  5 17  1  0
  5 18  1  0
  6 19  1  0
  6 20  1  0
  7 21  1  0
  8 22  1  0
  8 23  1  0
M  END
