
     RDKit          3D

 25 26  0  0  0  0  0  0  0  0999 V2000
   -0.1705   -0.5675   -1.6185 C   0  0  0  0  0  0  0  0  0  0  0  0
    1.2459   -0.6461   -1.2515 C   0  0  0  0  0  0  0  0  0  0  0  0
    1.9198    0.1789   -0.2654 C   0  0  0  0  0  0  0  0  0  0  0  0
    1.6853    0.2453    1.1888 C   0  0  0  0  0  0  0  0  0  0  0  0
    2.9462   -0.3367    0.6830 C   0  0  0  0  0  0  0  0  0  0  0  0
   -1.1638   -0.6696   -0.5578 C   0  0  0  0  0  0  0  0  0  0  0  0
   -1.3311    0.5449    0.3211 C   0  0  0  0  0  0  0  0  0  0  0  0
   -2.3205    0.4115    1.4563 C   0  0  0  0  0  0  0  0  0  0  0  0
   -2.7031    1.1994    0.2931 C   0  0  0  0  0  0  0  0  0  0  0  0
   -0.4305   -1.3685   -2.4108 H   0  0  0  0  0  0  0  0  0  0  0  0
   -0.3483    0.3778   -2.2675 H   0  0  0  0  0  0  0  0  0  0  0  0
    1.5380   -1.7740   -1.1029 H   0  0  0  0  0  0  0  0  0  0  0  0
    1.8285   -0.4647   -2.2496 H   0  0  0  0  0  0  0  0  0  0  0  0
    2.1836    1.2250   -0.6823 H   0  0  0  0  0  0  0  0  0  0  0  0
    0.9885   -0.4830    1.6665 H   0  0  0  0  0  0  0  0  0  0  0  0
    1.6937    1.2147    1.7503 H   0  0  0  0  0  0  0  0  0  0  0  0
    3.9137    0.1977    0.7122 H   0  0  0  0  0  0  0  0  0  0  0  0
    3.0907   -1.4430    0.7790 H   0  0  0  0  0  0  0  0  0  0  0  0
   -0.9239   -1.4998    0.1900 H   0  0  0  0  0  0  0  0  0  0  0  0
   -2.1963   -0.9507   -0.9471 H   0  0  0  0  0  0  0  0  0  0  0  0
   -0.4877    1.2431    0.3904 H   0  0  0  0  0  0  0  0  0  0  0  0
   -2.7949   -0.5840    1.6363 H   0  0  0  0  0  0  0  0  0  0  0  0
   -2.0469    0.9027    2.4213 H   0  0  0  0  0  0  0  0  0  0  0  0
   -3.4122    0.7437   -0.4200 H   0  0  0  0  0  0  0  0  0  0  0  0
   -2.7042    2.3029    0.2850 H   0  0  0  0  0  0  0  0  0  0  0  0
  1  2  1  0
  2  3  1  0
  3  4  1  0
  4  5  1  0
  1  6  1  0
  6  7  1  0
  7  8  1  0
  8  9  1  0
  5  3  1  0
  9  7  1  0
  1 10  1  0
  1 11  1  0
  2 12  1  0
  2 13  1  0
  3 14  1  0
  4 15  1  0
  4 16  1  0
  5 17  1  0
  5 18  1  0
  6 19  1  0
  6 20  1  0
  7 21  1  0
  8 22  1  0
  8 23  1  0
  9 24  1  0
  9 25  1  0
M  END
