
     RDKit          3D

 19 20  0  0  0  0  0  0  0  0999 V2000
    1.1946   -0.4217   -0.0165 C   0  0  0  0  0  0  0  0  0  0  0  0
   -0.0354    0.2243    0.0493 O   0  0  0  0  0  0  0  0  0  0  0  0
   -1.0893   -0.7044    0.1291 C   0  0  0  0  0  0  0  0  0  0  0  0
   -2.3522    0.0997    0.1944 C   0  0  0  0  0  0  0  0  0  0  0  0
   -3.2751   -0.0559   -0.9919 C   0  0  0  0  0  0  0  0  0  0  0  0
   -3.5835   -0.5329    0.2805 O   0  0  0  0  0  0  0  0  0  0  0  0
    2.2555    0.6548   -0.0991 C   0  0  0  0  0  0  0  0  0  0  0  0
    3.1322    0.7754    1.0915 C   0  0  0  0  0  0  0  0  0  0  0  0
    3.5890    0.2575   -0.1749 O   0  0  0  0  0  0  0  0  0  0  0  0
    1.2693   -1.0828   -0.9045 H   0  0  0  0  0  0  0  0  0  0  0  0
    1.2924   -1.0052    0.9248 H   0  0  0  0  0  0  0  0  0  0  0  0
   -1.0469   -1.4110   -0.7168 H   0  0  0  0  0  0  0  0  0  0  0  0
   -0.9185   -1.2616    1.0816 H   0  0  0  0  0  0  0  0  0  0  0  0
   -2.2820    1.0625    0.7113 H   0  0  0  0  0  0  0  0  0  0  0  0
   -3.7179    0.9082   -1.3296 H   0  0  0  0  0  0  0  0  0  0  0  0
   -3.0353   -0.8142   -1.7489 H   0  0  0  0  0  0  0  0  0  0  0  0
    1.9345    1.5621   -0.6528 H   0  0  0  0  0  0  0  0  0  0  0  0
    3.5502    1.7648    1.3706 H   0  0  0  0  0  0  0  0  0  0  0  0
    3.1185   -0.0197    1.8491 H   0  0  0  0  0  0  0  0  0  0  0  0
  1  2  1  0
  2  3  1  0
  3  4  1  0
  4  5  1  0
  5  6  1  0
  1  7  1  0
  7  8  1  0
  8  9  1  0
  6  4  1  0
  9  7  1  0
  1 10  1  0
  1 11  1  0
  3 12  1  0
  3 13  1  0
  4 14  1  0
  5 15  1  0
  5 16  1  0
  7 17  1  0
  8 18  1  0
  8 19  1  0
M  END
