
     RDKit          3D

  5  4  0  0  0  0  0  0  0  0999 V2000
    0.0198   -0.0146    0.0068 C   0  0  0  0  0  0  0  0  0  0  0  0
   -0.4768   -0.6246   -0.7651 H   0  0  0  0  0  0  0  0  0  0  0  0
   -0.3846    1.0173   -0.0939 H   0  0  0  0  0  0  0  0  0  0  0  0
   -0.2738   -0.3731    1.0042 H   0  0  0  0  0  0  0  0  0  0  0  0
    1.1153   -0.0050   -0.1520 H   0  0  0  0  0  0  0  0  0  0  0  0
  1  2  1  0
  1  3  1  0
  1  4  1  0
  1  5  1  0
M  END
