
     RDKit          3D

 19 19  0  0  0  0  0  0  0  0999 V2000
   -0.4484    1.3306   -0.2421 C   0  0  0  0  0  0  0  0  0  0  0  0
    0.5890    1.1303   -0.3288 C   0  0  0  0  0  0  0  0  0  0  0  0
    1.9431    0.8645   -0.4182 C   0  0  0  0  0  0  0  0  0  0  0  0
    1.9799   -0.7302   -0.3003 C   0  0  0  0  0  0  0  0  0  0  0  0
    0.6354   -1.2388   -0.6200 C   0  0  0  0  0  0  0  0  0  0  0  0
   -0.5561   -1.1480   -0.1169 C   0  0  0  0  0  0  0  0  0  0  0  0
   -1.2227   -0.5089    1.0171 C   0  0  0  0  0  0  0  0  0  0  0  0
   -2.3330    0.4725    0.6258 C   0  0  0  0  0  0  0  0  0  0  0  0
   -1.8266    1.5715   -0.1283 C   0  0  0  0  0  0  0  0  0  0  0  0
    2.5576    1.2553    0.3758 H   0  0  0  0  0  0  0  0  0  0  0  0
    2.3933    1.0486   -1.3920 H   0  0  0  0  0  0  0  0  0  0  0  0
    2.2568   -0.8906    0.7449 H   0  0  0  0  0  0  0  0  0  0  0  0
    2.7853   -1.0665   -0.9441 H   0  0  0  0  0  0  0  0  0  0  0  0
    0.6431   -1.8864   -1.5637 H   0  0  0  0  0  0  0  0  0  0  0  0
   -1.3788   -1.7416   -0.7150 H   0  0  0  0  0  0  0  0  0  0  0  0
   -1.7139   -1.2069    1.7255 H   0  0  0  0  0  0  0  0  0  0  0  0
   -0.5076    0.0485    1.6849 H   0  0  0  0  0  0  0  0  0  0  0  0
   -3.3214    0.4121    0.8383 H   0  0  0  0  0  0  0  0  0  0  0  0
   -2.4751    2.2842   -0.4690 H   0  0  0  0  0  0  0  0  0  0  0  0
  1  2  3  0
  2  3  1  0
  3  4  1  0
  4  5  1  0
  5  6  2  3
  6  7  1  0
  7  8  1  0
  8  9  2  3
  9  1  1  0
  3 10  1  0
  3 11  1  0
  4 12  1  0
  4 13  1  0
  5 14  1  0
  6 15  1  0
  7 16  1  0
  7 17  1  0
  8 18  1  0
  9 19  1  0
M  END
