
     RDKit          3D

 19 19  0  0  0  0  0  0  0  0999 V2000
   -0.4932    1.5161   -0.7307 C   0  0  0  0  0  0  0  0  0  0  0  0
    0.4012    1.1990   -1.0975 C   0  0  0  0  0  0  0  0  0  0  0  0
    1.6116    0.7470   -1.5850 C   0  0  0  0  0  0  0  0  0  0  0  0
    1.9784   -0.4289   -0.8724 C   0  0  0  0  0  0  0  0  0  0  0  0
    1.1899   -1.0340    0.2090 C   0  0  0  0  0  0  0  0  0  0  0  0
   -0.2709   -1.3992    0.1852 C   0  0  0  0  0  0  0  0  0  0  0  0
   -1.0665   -0.2559    0.2534 C   0  0  0  0  0  0  0  0  0  0  0  0
   -2.1477    0.6593    0.4927 C   0  0  0  0  0  0  0  0  0  0  0  0
   -1.7405    1.9348   -0.2105 C   0  0  0  0  0  0  0  0  0  0  0  0
    2.1964    1.1018   -2.2951 H   0  0  0  0  0  0  0  0  0  0  0  0
    2.8913   -0.8609   -1.1807 H   0  0  0  0  0  0  0  0  0  0  0  0
    1.4172   -0.4840    1.1865 H   0  0  0  0  0  0  0  0  0  0  0  0
    1.6858   -2.0548    0.4766 H   0  0  0  0  0  0  0  0  0  0  0  0
   -0.4446   -2.1568   -0.6248 H   0  0  0  0  0  0  0  0  0  0  0  0
   -0.3836   -2.0689    1.1221 H   0  0  0  0  0  0  0  0  0  0  0  0
   -0.2725    0.3866    0.7766 H   0  0  0  0  0  0  0  0  0  0  0  0
   -1.1605   -0.1783   -0.9131 H   0  0  0  0  0  0  0  0  0  0  0  0
   -3.0234    0.6531    0.9694 H   0  0  0  0  0  0  0  0  0  0  0  0
   -2.3682    2.7240   -0.1655 H   0  0  0  0  0  0  0  0  0  0  0  0
  1  2  3  0
  2  3  1  0
  3  4  2  3
  4  5  1  0
  5  6  1  0
  6  7  1  0
  7  8  1  0
  8  9  2  3
  9  1  1  0
  3 10  1  0
  4 11  1  0
  5 12  1  0
  5 13  1  0
  6 14  1  0
  6 15  1  0
  7 16  1  0
  7 17  1  0
  8 18  1  0
  9 19  1  0
M  END
