
     RDKit          3D

 17 17  0  0  0  0  0  0  0  0999 V2000
    0.1929    1.4432    0.1654 C   0  0  0  0  0  0  0  0  0  0  0  0
    1.0723    0.9108    0.0122 C   0  0  0  0  0  0  0  0  0  0  0  0
    2.2560    0.1653   -0.1986 C   0  0  0  0  0  0  0  0  0  0  0  0
    1.6168   -1.1675   -0.7473 C   0  0  0  0  0  0  0  0  0  0  0  0
    0.3780   -1.4623   -0.5247 C   0  0  0  0  0  0  0  0  0  0  0  0
   -0.8529   -1.1006    0.0678 C   0  0  0  0  0  0  0  0  0  0  0  0
   -1.7175   -0.2369    0.4474 C   0  0  0  0  0  0  0  0  0  0  0  0
   -2.0358    1.1741    0.5230 C   0  0  0  0  0  0  0  0  0  0  0  0
   -0.9959    2.1346    0.3722 C   0  0  0  0  0  0  0  0  0  0  0  0
    2.8980    0.5995   -0.9363 H   0  0  0  0  0  0  0  0  0  0  0  0
    2.8285   -0.0806    0.7064 H   0  0  0  0  0  0  0  0  0  0  0  0
    2.3560   -1.7214   -1.2898 H   0  0  0  0  0  0  0  0  0  0  0  0
    0.2288   -2.5065   -1.0955 H   0  0  0  0  0  0  0  0  0  0  0  0
   -1.3907   -2.1739    0.4382 H   0  0  0  0  0  0  0  0  0  0  0  0
   -2.6817   -0.7509    0.9618 H   0  0  0  0  0  0  0  0  0  0  0  0
   -2.9657    1.6407    0.6791 H   0  0  0  0  0  0  0  0  0  0  0  0
   -1.1872    3.1323    0.4187 H   0  0  0  0  0  0  0  0  0  0  0  0
  1  2  3  0
  2  3  1  0
  3  4  1  0
  4  5  2  3
  5  6  1  0
  6  7  2  3
  7  8  1  0
  8  9  2  3
  9  1  1  0
  3 10  1  0
  3 11  1  0
  4 12  1  0
  5 13  1  0
  6 14  1  0
  7 15  1  0
  8 16  1  0
  9 17  1  0
M  END
