
     RDKit          3D

 21 21  0  0  0  0  0  0  0  0999 V2000
    1.1609    0.7060   -0.3412 C   0  0  0  0  0  0  0  0  0  0  0  0
    0.2498    1.2411   -0.5882 C   0  0  0  0  0  0  0  0  0  0  0  0
   -0.9674    1.9272   -0.9106 C   0  0  0  0  0  0  0  0  0  0  0  0
   -2.0145    0.7914   -0.7495 C   0  0  0  0  0  0  0  0  0  0  0  0
   -1.2999   -0.5399   -0.6040 C   0  0  0  0  0  0  0  0  0  0  0  0
   -0.7152   -0.8062    0.7131 C   0  0  0  0  0  0  0  0  0  0  0  0
    0.4603   -1.1439    1.1254 C   0  0  0  0  0  0  0  0  0  0  0  0
    1.7376   -1.4073    0.4093 C   0  0  0  0  0  0  0  0  0  0  0  0
    2.3366   -0.0124   -0.0137 C   0  0  0  0  0  0  0  0  0  0  0  0
   -1.0071    2.3834   -1.8949 H   0  0  0  0  0  0  0  0  0  0  0  0
   -1.1356    2.7261   -0.1615 H   0  0  0  0  0  0  0  0  0  0  0  0
   -2.5683    0.7622   -1.6930 H   0  0  0  0  0  0  0  0  0  0  0  0
   -2.6971    0.9961    0.0755 H   0  0  0  0  0  0  0  0  0  0  0  0
   -0.5765   -0.6417   -1.4265 H   0  0  0  0  0  0  0  0  0  0  0  0
   -2.1000   -1.3071   -0.8447 H   0  0  0  0  0  0  0  0  0  0  0  0
   -1.4876   -0.6804    1.5310 H   0  0  0  0  0  0  0  0  0  0  0  0
    0.5993   -1.2762    2.2318 H   0  0  0  0  0  0  0  0  0  0  0  0
    1.6456   -2.0162   -0.4791 H   0  0  0  0  0  0  0  0  0  0  0  0
    2.5178   -1.8470    1.0484 H   0  0  0  0  0  0  0  0  0  0  0  0
    2.9299    0.3792    0.8145 H   0  0  0  0  0  0  0  0  0  0  0  0
    2.9313   -0.2343   -0.9179 H   0  0  0  0  0  0  0  0  0  0  0  0
  1  2  3  0
  2  3  1  0
  3  4  1  0
  4  5  1  0
  5  6  1  0
  6  7  2  3
  7  8  1  0
  8  9  1  0
  9  1  1  0
  3 10  1  0
  3 11  1  0
  4 12  1  0
  4 13  1  0
  5 14  1  0
  5 15  1  0
  6 16  1  0
  7 17  1  0
  8 18  1  0
  8 19  1  0
  9 20  1  0
  9 21  1  0
M  END
