
     RDKit          3D

 21 21  0  0  0  0  0  0  0  0999 V2000
   -0.7071    1.0712    0.1964 C   0  0  0  0  0  0  0  0  0  0  0  0
    0.1571    1.3304    0.1098 C   0  0  0  0  0  0  0  0  0  0  0  0
    1.6105    1.7497   -0.0499 C   0  0  0  0  0  0  0  0  0  0  0  0
    2.0559    0.5006   -0.8653 C   0  0  0  0  0  0  0  0  0  0  0  0
    1.0712   -0.5070   -0.8584 O   0  0  0  0  0  0  0  0  0  0  0  0
    0.6437   -0.9513    0.3736 C   0  0  0  0  0  0  0  0  0  0  0  0
   -0.7385   -1.5972    0.3952 C   0  0  0  0  0  0  0  0  0  0  0  0
   -1.9401   -0.8825   -0.0089 C   0  0  0  0  0  0  0  0  0  0  0  0
   -1.7663    0.7334    0.3007 C   0  0  0  0  0  0  0  0  0  0  0  0
    1.7375    2.6509   -0.6565 H   0  0  0  0  0  0  0  0  0  0  0  0
    2.1262    1.8467    0.9006 H   0  0  0  0  0  0  0  0  0  0  0  0
    2.0500    0.9038   -1.9255 H   0  0  0  0  0  0  0  0  0  0  0  0
    3.0633    0.2264   -0.6031 H   0  0  0  0  0  0  0  0  0  0  0  0
    0.8477   -0.4089    1.3194 H   0  0  0  0  0  0  0  0  0  0  0  0
    1.3726   -1.9028    0.5858 H   0  0  0  0  0  0  0  0  0  0  0  0
   -0.6365   -2.4337   -0.4372 H   0  0  0  0  0  0  0  0  0  0  0  0
   -0.8799   -2.2175    1.2796 H   0  0  0  0  0  0  0  0  0  0  0  0
   -2.0373   -0.8676   -1.1575 H   0  0  0  0  0  0  0  0  0  0  0  0
   -2.8864   -1.1134    0.4112 H   0  0  0  0  0  0  0  0  0  0  0  0
   -2.6319    1.0731   -0.5421 H   0  0  0  0  0  0  0  0  0  0  0  0
   -2.5116    0.7955    1.2321 H   0  0  0  0  0  0  0  0  0  0  0  0
  1  2  3  0
  2  3  1  0
  3  4  1  0
  4  5  1  0
  5  6  1  0
  6  7  1  0
  7  8  1  0
  8  9  1  0
  9  1  1  0
  3 10  1  0
  3 11  1  0
  4 12  1  0
  4 13  1  0
  6 14  1  0
  6 15  1  0
  7 16  1  0
  7 17  1  0
  8 18  1  0
  8 19  1  0
  9 20  1  0
  9 21  1  0
M  END
