
     RDKit          3D

 19 19  0  0  0  0  0  0  0  0999 V2000
   -0.4926   -0.8756   -1.0295 C   0  0  0  0  0  0  0  0  0  0  0  0
    0.1714   -0.0658   -1.4367 C   0  0  0  0  0  0  0  0  0  0  0  0
    1.0223    0.9460   -1.9336 C   0  0  0  0  0  0  0  0  0  0  0  0
    1.4434    1.5526   -0.4540 C   0  0  0  0  0  0  0  0  0  0  0  0
    0.3487    1.2421    0.3417 O   0  0  0  0  0  0  0  0  0  0  0  0
    0.2997    0.1449    1.1351 C   0  0  0  0  0  0  0  0  0  0  0  0
   -1.0488   -0.3701    1.4377 C   0  0  0  0  0  0  0  0  0  0  0  0
   -1.5717   -1.6095    0.8116 C   0  0  0  0  0  0  0  0  0  0  0  0
   -1.2639   -1.8463   -0.5358 C   0  0  0  0  0  0  0  0  0  0  0  0
    1.9215    0.7167   -2.3777 H   0  0  0  0  0  0  0  0  0  0  0  0
    0.5298    1.8404   -2.3258 H   0  0  0  0  0  0  0  0  0  0  0  0
    1.4574    2.6049   -0.5855 H   0  0  0  0  0  0  0  0  0  0  0  0
    2.3342    1.0642   -0.2228 H   0  0  0  0  0  0  0  0  0  0  0  0
    1.0210   -0.6486    0.8606 H   0  0  0  0  0  0  0  0  0  0  0  0
    0.6900    0.4935    2.2079 H   0  0  0  0  0  0  0  0  0  0  0  0
   -1.8393    0.4215    1.1817 H   0  0  0  0  0  0  0  0  0  0  0  0
   -1.2066   -0.4753    2.5478 H   0  0  0  0  0  0  0  0  0  0  0  0
   -2.1193   -2.3699    1.2945 H   0  0  0  0  0  0  0  0  0  0  0  0
   -1.6973   -2.7658   -0.9173 H   0  0  0  0  0  0  0  0  0  0  0  0
  1  2  3  0
  2  3  1  0
  3  4  1  0
  4  5  1  0
  5  6  1  0
  6  7  1  0
  7  8  1  0
  8  9  2  3
  9  1  1  0
  3 10  1  0
  3 11  1  0
  4 12  1  0
  4 13  1  0
  6 14  1  0
  6 15  1  0
  7 16  1  0
  7 17  1  0
  8 18  1  0
  9 19  1  0
M  END
