
     RDKit          3D

 17 17  0  0  0  0  0  0  0  0999 V2000
    0.8040    0.8004   -0.7290 C   0  0  0  0  0  0  0  0  0  0  0  0
    0.9695   -0.5137   -0.8493 C   0  0  0  0  0  0  0  0  0  0  0  0
    1.1446   -1.7733   -0.9779 C   0  0  0  0  0  0  0  0  0  0  0  0
    0.1162   -2.3936    0.0189 O   0  0  0  0  0  0  0  0  0  0  0  0
   -0.6460   -1.3763    0.5143 C   0  0  0  0  0  0  0  0  0  0  0  0
    0.0442   -0.2598    1.0085 O   0  0  0  0  0  0  0  0  0  0  0  0
   -0.7204    0.8851    0.9855 C   0  0  0  0  0  0  0  0  0  0  0  0
   -0.2666    2.2173    0.4665 C   0  0  0  0  0  0  0  0  0  0  0  0
    0.6566    1.9704   -0.6370 C   0  0  0  0  0  0  0  0  0  0  0  0
    0.8290   -2.3197   -1.8899 H   0  0  0  0  0  0  0  0  0  0  0  0
    2.0164   -2.2515   -0.5335 H   0  0  0  0  0  0  0  0  0  0  0  0
   -1.4020   -1.7123    1.2266 H   0  0  0  0  0  0  0  0  0  0  0  0
   -1.2121   -0.9181   -0.3846 H   0  0  0  0  0  0  0  0  0  0  0  0
   -1.2869    1.0418    1.8957 H   0  0  0  0  0  0  0  0  0  0  0  0
   -1.5781    0.5979    0.2062 H   0  0  0  0  0  0  0  0  0  0  0  0
   -0.4378    3.1379    0.8091 H   0  0  0  0  0  0  0  0  0  0  0  0
    0.9693    2.8675   -1.1299 H   0  0  0  0  0  0  0  0  0  0  0  0
  1  2  3  0
  2  3  1  0
  3  4  1  0
  4  5  1  0
  5  6  1  0
  6  7  1  0
  7  8  1  0
  8  9  2  3
  9  1  1  0
  3 10  1  0
  3 11  1  0
  5 12  1  0
  5 13  1  0
  7 14  1  0
  7 15  1  0
  8 16  1  0
  9 17  1  0
M  END
