
     RDKit          3D

 21 21  0  0  0  0  0  0  0  0999 V2000
    0.3587    0.9829    0.9144 C   0  0  0  0  0  0  0  0  0  0  0  0
   -0.4534    1.2503    0.2164 C   0  0  0  0  0  0  0  0  0  0  0  0
   -1.4960    1.5702   -0.6879 C   0  0  0  0  0  0  0  0  0  0  0  0
   -1.8154    0.2936   -1.5004 C   0  0  0  0  0  0  0  0  0  0  0  0
   -0.7786   -0.7676   -1.2426 C   0  0  0  0  0  0  0  0  0  0  0  0
   -0.3507   -0.9288    0.0415 O   0  0  0  0  0  0  0  0  0  0  0  0
    1.0013   -1.2160    0.1714 C   0  0  0  0  0  0  0  0  0  0  0  0
    1.5715   -0.9101    1.5529 C   0  0  0  0  0  0  0  0  0  0  0  0
    1.3999    0.6168    1.8011 C   0  0  0  0  0  0  0  0  0  0  0  0
   -2.4087    1.8367   -0.1259 H   0  0  0  0  0  0  0  0  0  0  0  0
   -1.2728    2.4156   -1.3618 H   0  0  0  0  0  0  0  0  0  0  0  0
   -1.8412    0.6029   -2.5483 H   0  0  0  0  0  0  0  0  0  0  0  0
   -2.7984   -0.0874   -1.2098 H   0  0  0  0  0  0  0  0  0  0  0  0
   -1.1132   -1.7467   -1.6429 H   0  0  0  0  0  0  0  0  0  0  0  0
    0.1238   -0.4950   -1.8663 H   0  0  0  0  0  0  0  0  0  0  0  0
    1.5265   -0.5208   -0.5481 H   0  0  0  0  0  0  0  0  0  0  0  0
    1.2574   -2.2246   -0.1492 H   0  0  0  0  0  0  0  0  0  0  0  0
    2.6431   -1.1136    1.5815 H   0  0  0  0  0  0  0  0  0  0  0  0
    0.9742   -1.4258    2.3018 H   0  0  0  0  0  0  0  0  0  0  0  0
    2.3411    1.0652    1.4634 H   0  0  0  0  0  0  0  0  0  0  0  0
    1.1310    0.8021    2.8389 H   0  0  0  0  0  0  0  0  0  0  0  0
  1  2  3  0
  2  3  1  0
  3  4  1  0
  4  5  1  0
  5  6  1  0
  6  7  1  0
  7  8  1  0
  8  9  1  0
  9  1  1  0
  3 10  1  0
  3 11  1  0
  4 12  1  0
  4 13  1  0
  5 14  1  0
  5 15  1  0
  7 16  1  0
  7 17  1  0
  8 18  1  0
  8 19  1  0
  9 20  1  0
  9 21  1  0
M  END
