
     RDKit          3D

 19 19  0  0  0  0  0  0  0  0999 V2000
   -0.6597    1.0744    0.1975 C   0  0  0  0  0  0  0  0  0  0  0  0
   -1.2238    0.1822    0.0354 C   0  0  0  0  0  0  0  0  0  0  0  0
   -1.9509   -1.0140   -0.1800 C   0  0  0  0  0  0  0  0  0  0  0  0
   -0.7970   -2.1132   -0.2174 C   0  0  0  0  0  0  0  0  0  0  0  0
    0.2122   -1.6593    0.6181 O   0  0  0  0  0  0  0  0  0  0  0  0
    1.0926   -0.7474    0.1255 C   0  0  0  0  0  0  0  0  0  0  0  0
    1.4284    0.3090    0.9170 O   0  0  0  0  0  0  0  0  0  0  0  0
    1.5716    1.5693    0.4315 C   0  0  0  0  0  0  0  0  0  0  0  0
    0.1147    2.2526    0.4133 C   0  0  0  0  0  0  0  0  0  0  0  0
   -2.4021   -1.0539   -1.1728 H   0  0  0  0  0  0  0  0  0  0  0  0
   -2.5871   -1.3122    0.6559 H   0  0  0  0  0  0  0  0  0  0  0  0
   -0.4866   -2.1814   -1.2681 H   0  0  0  0  0  0  0  0  0  0  0  0
   -1.2792   -3.0383    0.0923 H   0  0  0  0  0  0  0  0  0  0  0  0
    0.8355   -0.4273   -0.8919 H   0  0  0  0  0  0  0  0  0  0  0  0
    2.0648   -1.3571   -0.0707 H   0  0  0  0  0  0  0  0  0  0  0  0
    2.1788    2.2651    0.9922 H   0  0  0  0  0  0  0  0  0  0  0  0
    1.8274    1.5369   -0.6382 H   0  0  0  0  0  0  0  0  0  0  0  0
    0.0811    2.9316   -0.4397 H   0  0  0  0  0  0  0  0  0  0  0  0
   -0.0208    2.7831    1.3577 H   0  0  0  0  0  0  0  0  0  0  0  0
  1  2  3  0
  2  3  1  0
  3  4  1  0
  4  5  1  0
  5  6  1  0
  6  7  1  0
  7  8  1  0
  8  9  1  0
  9  1  1  0
  3 10  1  0
  3 11  1  0
  4 12  1  0
  4 13  1  0
  6 14  1  0
  6 15  1  0
  8 16  1  0
  8 17  1  0
  9 18  1  0
  9 19  1  0
M  END
