
     RDKit          3D

 17 17  0  0  0  0  0  0  0  0999 V2000
   -1.2347    1.0668   -0.0684 C   0  0  0  0  0  0  0  0  0  0  0  0
   -1.5725   -0.1032   -0.1859 C   0  0  0  0  0  0  0  0  0  0  0  0
   -1.9334   -1.3416   -0.3186 C   0  0  0  0  0  0  0  0  0  0  0  0
   -0.6648   -2.0485   -0.3636 C   0  0  0  0  0  0  0  0  0  0  0  0
    0.6695   -1.5102   -0.2493 C   0  0  0  0  0  0  0  0  0  0  0  0
    0.9196   -0.1292    0.1027 C   0  0  0  0  0  0  0  0  0  0  0  0
    1.2665    1.0574    0.4619 C   0  0  0  0  0  0  0  0  0  0  0  0
    0.4358    2.3327    0.3226 C   0  0  0  0  0  0  0  0  0  0  0  0
   -0.8305    2.3857    0.0550 C   0  0  0  0  0  0  0  0  0  0  0  0
   -2.7167   -1.8692   -0.4558 H   0  0  0  0  0  0  0  0  0  0  0  0
   -0.8539   -3.1590   -0.4049 H   0  0  0  0  0  0  0  0  0  0  0  0
    1.1660   -1.7126   -1.2488 H   0  0  0  0  0  0  0  0  0  0  0  0
    1.2374   -2.2507    0.4730 H   0  0  0  0  0  0  0  0  0  0  0  0
    2.2692   -0.5277    0.5324 H   0  0  0  0  0  0  0  0  0  0  0  0
    2.2767    1.3363    0.8394 H   0  0  0  0  0  0  0  0  0  0  0  0
    1.0215    3.2804    0.5024 H   0  0  0  0  0  0  0  0  0  0  0  0
   -1.4554    3.1927    0.0058 H   0  0  0  0  0  0  0  0  0  0  0  0
  1  2  3  0
  2  3  1  0
  3  4  2  3
  4  5  1  0
  5  6  1  0
  6  7  2  3
  7  8  1  0
  8  9  2  3
  9  1  1  0
  3 10  1  0
  4 11  1  0
  5 12  1  0
  5 13  1  0
  6 14  1  0
  7 15  1  0
  8 16  1  0
  9 17  1  0
M  END
