
     RDKit          3D

 21 21  0  0  0  0  0  0  0  0999 V2000
    0.8941    0.9612    0.8181 C   0  0  0  0  0  0  0  0  0  0  0  0
    1.4664    0.2052    0.3192 C   0  0  0  0  0  0  0  0  0  0  0  0
    2.2071   -0.8132   -0.3506 C   0  0  0  0  0  0  0  0  0  0  0  0
    0.9484   -1.6661   -0.8719 C   0  0  0  0  0  0  0  0  0  0  0  0
   -0.1936   -0.6841   -1.0545 C   0  0  0  0  0  0  0  0  0  0  0  0
   -1.0486   -0.4968    0.1507 C   0  0  0  0  0  0  0  0  0  0  0  0
   -1.6990    0.8460    0.1802 C   0  0  0  0  0  0  0  0  0  0  0  0
   -1.2052    1.8588    1.1250 C   0  0  0  0  0  0  0  0  0  0  0  0
    0.1274    1.9348    1.4631 C   0  0  0  0  0  0  0  0  0  0  0  0
    2.7557   -0.4412   -1.2145 H   0  0  0  0  0  0  0  0  0  0  0  0
    2.7769   -1.4683    0.3109 H   0  0  0  0  0  0  0  0  0  0  0  0
    1.2822   -2.0997   -1.8149 H   0  0  0  0  0  0  0  0  0  0  0  0
    0.7493   -2.4583   -0.1491 H   0  0  0  0  0  0  0  0  0  0  0  0
    0.2040    0.3092   -1.4186 H   0  0  0  0  0  0  0  0  0  0  0  0
   -0.8714   -1.0315   -1.8895 H   0  0  0  0  0  0  0  0  0  0  0  0
   -1.8923   -1.2950    0.0893 H   0  0  0  0  0  0  0  0  0  0  0  0
   -0.5216   -0.7996    1.0613 H   0  0  0  0  0  0  0  0  0  0  0  0
   -2.8012    0.6778    0.4208 H   0  0  0  0  0  0  0  0  0  0  0  0
   -1.7549    1.2484   -0.8670 H   0  0  0  0  0  0  0  0  0  0  0  0
   -1.8667    2.5588    1.5702 H   0  0  0  0  0  0  0  0  0  0  0  0
    0.4429    2.6535    2.1219 H   0  0  0  0  0  0  0  0  0  0  0  0
  1  2  3  0
  2  3  1  0
  3  4  1  0
  4  5  1  0
  5  6  1  0
  6  7  1  0
  7  8  1  0
  8  9  2  3
  9  1  1  0
  3 10  1  0
  3 11  1  0
  4 12  1  0
  4 13  1  0
  5 14  1  0
  5 15  1  0
  6 16  1  0
  6 17  1  0
  7 18  1  0
  7 19  1  0
  8 20  1  0
  9 21  1  0
M  END
