
     RDKit          3D

 19 19  0  0  0  0  0  0  0  0999 V2000
    0.0806    1.3200    0.3516 C   0  0  0  0  0  0  0  0  0  0  0  0
    0.8668    0.9703    0.4227 C   0  0  0  0  0  0  0  0  0  0  0  0
    2.2685    0.3413    0.5706 C   0  0  0  0  0  0  0  0  0  0  0  0
    1.9314   -0.8574   -0.4743 O   0  0  0  0  0  0  0  0  0  0  0  0
    0.8063   -1.6068    0.0417 C   0  0  0  0  0  0  0  0  0  0  0  0
   -0.3277   -0.6356   -0.0326 C   0  0  0  0  0  0  0  0  0  0  0  0
   -1.6915   -0.5087   -0.4714 C   0  0  0  0  0  0  0  0  0  0  0  0
   -2.0934    0.7495   -0.1973 O   0  0  0  0  0  0  0  0  0  0  0  0
   -1.4926    1.9984    0.2146 C   0  0  0  0  0  0  0  0  0  0  0  0
    2.9681    0.8276   -0.1243 H   0  0  0  0  0  0  0  0  0  0  0  0
    2.3997   -0.2415    1.3406 H   0  0  0  0  0  0  0  0  0  0  0  0
    0.8368   -2.3038   -0.7808 H   0  0  0  0  0  0  0  0  0  0  0  0
    1.0815   -2.0871    0.9509 H   0  0  0  0  0  0  0  0  0  0  0  0
    0.0745   -0.1041   -0.8678 H   0  0  0  0  0  0  0  0  0  0  0  0
   -0.5152   -0.7165    1.0192 H   0  0  0  0  0  0  0  0  0  0  0  0
   -2.4742   -1.1886   -0.2132 H   0  0  0  0  0  0  0  0  0  0  0  0
   -1.8284   -0.5232   -1.6785 H   0  0  0  0  0  0  0  0  0  0  0  0
   -1.6316    1.8395    1.2430 H   0  0  0  0  0  0  0  0  0  0  0  0
   -1.2597    2.7265   -0.4749 H   0  0  0  0  0  0  0  0  0  0  0  0
  1  2  3  0
  2  3  1  0
  3  4  1  0
  4  5  1  0
  5  6  1  0
  6  7  1  0
  7  8  1  0
  8  9  1  0
  9  1  1  0
  3 10  1  0
  3 11  1  0
  5 12  1  0
  5 13  1  0
  6 14  1  0
  6 15  1  0
  7 16  1  0
  7 17  1  0
  9 18  1  0
  9 19  1  0
M  END
