
     RDKit          3D

 19 19  0  0  0  0  0  0  0  0999 V2000
    0.7338    1.0235   -0.8076 C   0  0  0  0  0  0  0  0  0  0  0  0
   -0.2814    0.8640   -1.0287 C   0  0  0  0  0  0  0  0  0  0  0  0
   -1.6708    0.6496   -1.3059 C   0  0  0  0  0  0  0  0  0  0  0  0
   -1.8807   -0.5594   -0.2531 C   0  0  0  0  0  0  0  0  0  0  0  0
   -0.5146   -1.1644    0.0247 C   0  0  0  0  0  0  0  0  0  0  0  0
    0.2557   -0.7243    1.1570 C   0  0  0  0  0  0  0  0  0  0  0  0
    1.3185   -0.0725    1.4784 C   0  0  0  0  0  0  0  0  0  0  0  0
    2.3804    0.6212    0.7387 C   0  0  0  0  0  0  0  0  0  0  0  0
    2.0928    1.2234   -0.4908 C   0  0  0  0  0  0  0  0  0  0  0  0
   -2.3192    1.4375   -0.9276 H   0  0  0  0  0  0  0  0  0  0  0  0
   -1.9207    0.2433   -2.2664 H   0  0  0  0  0  0  0  0  0  0  0  0
   -2.4625   -1.2724   -0.8260 H   0  0  0  0  0  0  0  0  0  0  0  0
   -2.4105   -0.1803    0.5960 H   0  0  0  0  0  0  0  0  0  0  0  0
    0.0279   -1.1763   -0.9361 H   0  0  0  0  0  0  0  0  0  0  0  0
   -0.7792   -2.2890    0.1277 H   0  0  0  0  0  0  0  0  0  0  0  0
   -0.2698   -1.0803    2.1378 H   0  0  0  0  0  0  0  0  0  0  0  0
    1.5641    0.0093    2.6050 H   0  0  0  0  0  0  0  0  0  0  0  0
    3.3788    0.7112    1.0573 H   0  0  0  0  0  0  0  0  0  0  0  0
    2.7574    1.7359   -1.0805 H   0  0  0  0  0  0  0  0  0  0  0  0
  1  2  3  0
  2  3  1  0
  3  4  1  0
  4  5  1  0
  5  6  1  0
  6  7  2  3
  7  8  1  0
  8  9  2  3
  9  1  1  0
  3 10  1  0
  3 11  1  0
  4 12  1  0
  4 13  1  0
  5 14  1  0
  5 15  1  0
  6 16  1  0
  7 17  1  0
  8 18  1  0
  9 19  1  0
M  END
