
     RDKit          3D

 21 21  0  0  0  0  0  0  0  0999 V2000
   -0.3518    0.9957   -0.7721 C   0  0  0  0  0  0  0  0  0  0  0  0
   -1.1063    0.9329   -0.5170 C   0  0  0  0  0  0  0  0  0  0  0  0
   -2.4704    0.8411   -0.0426 C   0  0  0  0  0  0  0  0  0  0  0  0
   -1.9686    0.3163    1.3980 O   0  0  0  0  0  0  0  0  0  0  0  0
   -1.0799   -0.7107    1.0272 C   0  0  0  0  0  0  0  0  0  0  0  0
    0.3622   -0.2705    1.1101 C   0  0  0  0  0  0  0  0  0  0  0  0
    1.1794   -0.9943    0.0992 C   0  0  0  0  0  0  0  0  0  0  0  0
    1.6484   -0.2862   -1.1197 C   0  0  0  0  0  0  0  0  0  0  0  0
    1.3048    1.1359   -1.3197 C   0  0  0  0  0  0  0  0  0  0  0  0
   -3.0864    0.0493   -0.1875 H   0  0  0  0  0  0  0  0  0  0  0  0
   -2.7354    1.8211    0.3145 H   0  0  0  0  0  0  0  0  0  0  0  0
   -1.3121   -1.0496   -0.0243 H   0  0  0  0  0  0  0  0  0  0  0  0
   -1.3256   -1.5787    1.6904 H   0  0  0  0  0  0  0  0  0  0  0  0
    0.6671   -0.7300    2.1539 H   0  0  0  0  0  0  0  0  0  0  0  0
    0.5963    0.7483    1.2552 H   0  0  0  0  0  0  0  0  0  0  0  0
    2.1277   -1.3492    0.6749 H   0  0  0  0  0  0  0  0  0  0  0  0
    0.7128   -2.0134   -0.1072 H   0  0  0  0  0  0  0  0  0  0  0  0
    1.3152   -0.8406   -2.0513 H   0  0  0  0  0  0  0  0  0  0  0  0
    2.8193   -0.3150   -0.9934 H   0  0  0  0  0  0  0  0  0  0  0  0
    1.4978    1.7433   -0.3811 H   0  0  0  0  0  0  0  0  0  0  0  0
    1.2056    1.5542   -2.2073 H   0  0  0  0  0  0  0  0  0  0  0  0
  1  2  3  0
  2  3  1  0
  3  4  1  0
  4  5  1  0
  5  6  1  0
  6  7  1  0
  7  8  1  0
  8  9  1  0
  9  1  1  0
  3 10  1  0
  3 11  1  0
  5 12  1  0
  5 13  1  0
  6 14  1  0
  6 15  1  0
  7 16  1  0
  7 17  1  0
  8 18  1  0
  8 19  1  0
  9 20  1  0
  9 21  1  0
M  END
