
     RDKit          3D

 19 19  0  0  0  0  0  0  0  0999 V2000
    0.6504    1.2080   -0.5235 C   0  0  0  0  0  0  0  0  0  0  0  0
    1.3724    0.5727   -0.0782 C   0  0  0  0  0  0  0  0  0  0  0  0
    2.3256   -0.2984    0.5264 C   0  0  0  0  0  0  0  0  0  0  0  0
    1.3431   -1.4976    0.7538 C   0  0  0  0  0  0  0  0  0  0  0  0
    0.0350   -1.3418    0.8060 C   0  0  0  0  0  0  0  0  0  0  0  0
   -0.8912   -0.2285    0.7043 C   0  0  0  0  0  0  0  0  0  0  0  0
   -1.5234   -0.0689   -0.6338 C   0  0  0  0  0  0  0  0  0  0  0  0
   -1.5265    1.3287   -1.1647 C   0  0  0  0  0  0  0  0  0  0  0  0
   -0.3164    2.0276   -1.1027 C   0  0  0  0  0  0  0  0  0  0  0  0
    3.0328   -0.6706   -0.2062 H   0  0  0  0  0  0  0  0  0  0  0  0
    2.6910    0.0444    1.4817 H   0  0  0  0  0  0  0  0  0  0  0  0
    1.8539   -2.4304    0.8601 H   0  0  0  0  0  0  0  0  0  0  0  0
   -0.4748   -2.3454    0.9628 H   0  0  0  0  0  0  0  0  0  0  0  0
   -1.7913   -0.5831    1.4018 H   0  0  0  0  0  0  0  0  0  0  0  0
   -0.6070    0.7159    1.2221 H   0  0  0  0  0  0  0  0  0  0  0  0
   -1.0146   -0.7540   -1.3897 H   0  0  0  0  0  0  0  0  0  0  0  0
   -2.5765   -0.4579   -0.6086 H   0  0  0  0  0  0  0  0  0  0  0  0
   -2.3504    1.7917   -1.5631 H   0  0  0  0  0  0  0  0  0  0  0  0
   -0.2322    2.9875   -1.4486 H   0  0  0  0  0  0  0  0  0  0  0  0
  1  2  3  0
  2  3  1  0
  3  4  1  0
  4  5  2  3
  5  6  1  0
  6  7  1  0
  7  8  1  0
  8  9  2  3
  9  1  1  0
  3 10  1  0
  3 11  1  0
  4 12  1  0
  5 13  1  0
  6 14  1  0
  6 15  1  0
  7 16  1  0
  7 17  1  0
  8 18  1  0
  9 19  1  0
M  END
