
     RDKit          3D

 19 19  0  0  0  0  0  0  0  0999 V2000
    0.5171    0.7123   -0.8696 C   0  0  0  0  0  0  0  0  0  0  0  0
   -0.0845    1.4507   -0.3505 C   0  0  0  0  0  0  0  0  0  0  0  0
   -0.7827    2.3382    0.2734 C   0  0  0  0  0  0  0  0  0  0  0  0
   -1.0289    1.7275    1.6368 O   0  0  0  0  0  0  0  0  0  0  0  0
   -1.1828    0.3175    1.3859 C   0  0  0  0  0  0  0  0  0  0  0  0
   -0.3109   -0.2411    0.5693 O   0  0  0  0  0  0  0  0  0  0  0  0
    0.0446   -1.5544    0.3471 C   0  0  0  0  0  0  0  0  0  0  0  0
    1.0502   -1.5623   -0.8195 C   0  0  0  0  0  0  0  0  0  0  0  0
    1.2934   -0.2383   -1.5294 C   0  0  0  0  0  0  0  0  0  0  0  0
   -0.1984    3.2872    0.5892 H   0  0  0  0  0  0  0  0  0  0  0  0
   -1.8124    2.6465    0.1107 H   0  0  0  0  0  0  0  0  0  0  0  0
   -2.1521    0.1173    0.8090 H   0  0  0  0  0  0  0  0  0  0  0  0
   -1.2997   -0.1200    2.4263 H   0  0  0  0  0  0  0  0  0  0  0  0
    0.5531   -2.0345    1.2341 H   0  0  0  0  0  0  0  0  0  0  0  0
   -0.8290   -2.2025    0.1124 H   0  0  0  0  0  0  0  0  0  0  0  0
    1.8589   -2.2384   -0.5636 H   0  0  0  0  0  0  0  0  0  0  0  0
    0.4322   -2.1866   -1.6568 H   0  0  0  0  0  0  0  0  0  0  0  0
    2.4391   -0.0025   -1.1476 H   0  0  0  0  0  0  0  0  0  0  0  0
    1.4926   -0.2166   -2.5572 H   0  0  0  0  0  0  0  0  0  0  0  0
  1  2  3  0
  2  3  1  0
  3  4  1  0
  4  5  1  0
  5  6  1  0
  6  7  1  0
  7  8  1  0
  8  9  1  0
  9  1  1  0
  3 10  1  0
  3 11  1  0
  5 12  1  0
  5 13  1  0
  7 14  1  0
  7 15  1  0
  8 16  1  0
  8 17  1  0
  9 18  1  0
  9 19  1  0
M  END
