
     RDKit          3D

 12 15  0  0  0  0  0  0  0  0999 V2000
    0.1523    0.3957    1.0434 C   0  0  0  0  0  0  0  0  0  0  0  0
    0.9468    0.5380   -0.2992 C   0  0  0  0  0  0  0  0  0  0  0  0
   -0.3751    1.0410   -0.1181 C   0  0  0  0  0  0  0  0  0  0  0  0
   -0.8995   -0.2327   -0.6374 C   0  0  0  0  0  0  0  0  0  0  0  0
   -0.2324   -0.9248    0.5992 C   0  0  0  0  0  0  0  0  0  0  0  0
    0.4179   -0.7962   -0.6599 C   0  0  0  0  0  0  0  0  0  0  0  0
    0.6971    0.7284    1.8786 H   0  0  0  0  0  0  0  0  0  0  0  0
    1.9112    0.9122   -0.3090 H   0  0  0  0  0  0  0  0  0  0  0  0
   -0.7887    2.0104   -0.2568 H   0  0  0  0  0  0  0  0  0  0  0  0
   -1.8416   -0.5150   -0.9603 H   0  0  0  0  0  0  0  0  0  0  0  0
   -0.8556   -1.6562    1.0321 H   0  0  0  0  0  0  0  0  0  0  0  0
    0.8675   -1.5009   -1.3125 H   0  0  0  0  0  0  0  0  0  0  0  0
  1  2  1  0
  2  3  1  0
  3  4  1  0
  4  5  1  0
  5  6  1  0
  3  1  1  0
  6  4  1  0
  5  1  1  0
  6  2  1  0
  1  7  1  0
  2  8  1  0
  3  9  1  0
  4 10  1  0
  5 11  1  0
  6 12  1  0
M  END
