
     RDKit          3D

 19 20  0  0  0  0  0  0  0  0999 V2000
   -0.4760    1.4274   -0.1740 C   0  0  0  0  0  0  0  0  0  0  0  0
    0.5616    0.6127   -0.1126 C   0  0  0  0  0  0  0  0  0  0  0  0
    2.0543    0.6296   -0.0092 C   0  0  0  0  0  0  0  0  0  0  0  0
    1.8810   -0.6944    0.7580 C   0  0  0  0  0  0  0  0  0  0  0  0
    0.6823   -0.8738   -0.1231 C   0  0  0  0  0  0  0  0  0  0  0  0
   -0.3525   -1.5778    0.2568 O   0  0  0  0  0  0  0  0  0  0  0  0
   -1.6314   -1.2388    0.1555 C   0  0  0  0  0  0  0  0  0  0  0  0
   -2.0677   -0.0326    0.6192 O   0  0  0  0  0  0  0  0  0  0  0  0
   -1.8980    1.0210   -0.2774 C   0  0  0  0  0  0  0  0  0  0  0  0
   -0.3316    2.4920   -0.1506 H   0  0  0  0  0  0  0  0  0  0  0  0
    2.4752    1.4422    0.6012 H   0  0  0  0  0  0  0  0  0  0  0  0
    2.4847    0.4872   -1.0179 H   0  0  0  0  0  0  0  0  0  0  0  0
    1.6707   -0.4742    1.8120 H   0  0  0  0  0  0  0  0  0  0  0  0
    2.7514   -1.3299    0.5487 H   0  0  0  0  0  0  0  0  0  0  0  0
    1.0453   -1.1703   -1.1547 H   0  0  0  0  0  0  0  0  0  0  0  0
   -1.9042   -1.2537   -0.9453 H   0  0  0  0  0  0  0  0  0  0  0  0
   -2.2736   -2.0302    0.5986 H   0  0  0  0  0  0  0  0  0  0  0  0
   -2.0801    0.7059   -1.3264 H   0  0  0  0  0  0  0  0  0  0  0  0
   -2.5914    1.8577   -0.0589 H   0  0  0  0  0  0  0  0  0  0  0  0
  1  2  2  0
  2  3  1  0
  3  4  1  0
  4  5  1  0
  5  6  1  0
  6  7  1  0
  7  8  1  0
  8  9  1  0
  9  1  1  0
  5  2  1  0
  1 10  1  0
  3 11  1  0
  3 12  1  0
  4 13  1  0
  4 14  1  0
  5 15  1  0
  7 16  1  0
  7 17  1  0
  9 18  1  0
  9 19  1  0
M  END
