
     RDKit          3D

 19 20  0  0  0  0  0  0  0  0999 V2000
   -1.3276   -1.2330   -0.4452 C   0  0  0  0  0  0  0  0  0  0  0  0
   -0.0059   -1.1924   -0.4038 C   0  0  0  0  0  0  0  0  0  0  0  0
    0.6991    0.0782   -0.2206 C   0  0  0  0  0  0  0  0  0  0  0  0
    2.1409    0.0990   -0.6464 C   0  0  0  0  0  0  0  0  0  0  0  0
    2.4682   -0.5168    0.5666 O   0  0  0  0  0  0  0  0  0  0  0  0
    1.3716    0.1242    1.1336 C   0  0  0  0  0  0  0  0  0  0  0  0
   -0.0272    1.1958   -0.5598 O   0  0  0  0  0  0  0  0  0  0  0  0
   -1.2076    1.1527    0.2189 C   0  0  0  0  0  0  0  0  0  0  0  0
   -2.0749    0.0424   -0.3012 C   0  0  0  0  0  0  0  0  0  0  0  0
   -1.8791   -2.1741   -0.5812 H   0  0  0  0  0  0  0  0  0  0  0  0
    0.5396   -2.1017   -0.5061 H   0  0  0  0  0  0  0  0  0  0  0  0
    2.5227    1.1412   -0.6226 H   0  0  0  0  0  0  0  0  0  0  0  0
    2.4068   -0.4432   -1.5493 H   0  0  0  0  0  0  0  0  0  0  0  0
    1.5312    1.1637    1.4514 H   0  0  0  0  0  0  0  0  0  0  0  0
    0.8542   -0.5181    1.8868 H   0  0  0  0  0  0  0  0  0  0  0  0
   -0.8803    0.8810    1.2386 H   0  0  0  0  0  0  0  0  0  0  0  0
   -1.7568    2.0935    0.1757 H   0  0  0  0  0  0  0  0  0  0  0  0
   -2.8996   -0.1013    0.4570 H   0  0  0  0  0  0  0  0  0  0  0  0
   -2.4754    0.3087   -1.2922 H   0  0  0  0  0  0  0  0  0  0  0  0
  1  2  2  0
  2  3  1  0
  3  4  1  0
  4  5  1  0
  5  6  1  0
  3  7  1  0
  7  8  1  0
  8  9  1  0
  9  1  1  0
  6  3  1  0
  1 10  1  0
  2 11  1  0
  4 12  1  0
  4 13  1  0
  6 14  1  0
  6 15  1  0
  8 16  1  0
  8 17  1  0
  9 18  1  0
  9 19  1  0
M  END
