
     RDKit          3D

 19 21  0  0  0  0  0  0  0  0999 V2000
    2.3245    0.2587    0.1399 C   0  0  0  0  0  0  0  0  0  0  0  0
    1.8094    0.6039   -1.0312 C   0  0  0  0  0  0  0  0  0  0  0  0
    0.3716    0.2492   -1.1183 C   0  0  0  0  0  0  0  0  0  0  0  0
   -0.5145    1.0238   -0.1947 C   0  0  0  0  0  0  0  0  0  0  0  0
   -1.9616    0.7900   -0.4281 C   0  0  0  0  0  0  0  0  0  0  0  0
   -2.2886   -0.4177   -0.0181 C   0  0  0  0  0  0  0  0  0  0  0  0
   -1.1319   -1.1191    0.5250 C   0  0  0  0  0  0  0  0  0  0  0  0
    0.0450   -0.2896    0.2108 C   0  0  0  0  0  0  0  0  0  0  0  0
    1.3157   -0.3739    1.0052 C   0  0  0  0  0  0  0  0  0  0  0  0
    3.3691    0.4150    0.4476 H   0  0  0  0  0  0  0  0  0  0  0  0
    2.3743    1.0819   -1.8146 H   0  0  0  0  0  0  0  0  0  0  0  0
   -0.0474   -0.1440   -2.0523 H   0  0  0  0  0  0  0  0  0  0  0  0
   -0.1746    1.9507    0.2784 H   0  0  0  0  0  0  0  0  0  0  0  0
   -2.6412    1.4974   -0.8652 H   0  0  0  0  0  0  0  0  0  0  0  0
   -3.2926   -0.8807   -0.0598 H   0  0  0  0  0  0  0  0  0  0  0  0
   -1.2312   -1.1633    1.6499 H   0  0  0  0  0  0  0  0  0  0  0  0
   -1.0450   -2.1747    0.1940 H   0  0  0  0  0  0  0  0  0  0  0  0
    1.5610   -1.4430    1.1640 H   0  0  0  0  0  0  0  0  0  0  0  0
    1.1582    0.1355    1.9674 H   0  0  0  0  0  0  0  0  0  0  0  0
  1  2  2  0
  2  3  1  0
  3  4  1  0
  4  5  1  0
  5  6  2  0
  6  7  1  0
  7  8  1  0
  8  9  1  0
  9  1  1  0
  8  3  1  0
  8  4  1  0
  1 10  1  0
  2 11  1  0
  3 12  1  0
  4 13  1  0
  5 14  1  0
  6 15  1  0
  7 16  1  0
  7 17  1  0
  9 18  1  0
  9 19  1  0
M  END
