
     RDKit          3D

 23 24  0  0  0  0  0  0  0  0999 V2000
   -2.5146    0.5703   -0.3540 C   0  0  0  0  0  0  0  0  0  0  0  0
   -1.5462    1.4768   -0.3160 C   0  0  0  0  0  0  0  0  0  0  0  0
   -0.3452    0.8445    0.2000 C   0  0  0  0  0  0  0  0  0  0  0  0
    0.9690    1.3517   -0.2936 C   0  0  0  0  0  0  0  0  0  0  0  0
    2.0301    0.4305    0.3233 C   0  0  0  0  0  0  0  0  0  0  0  0
    1.8237   -1.0031   -0.0422 C   0  0  0  0  0  0  0  0  0  0  0  0
    0.4295   -1.5168    0.3412 C   0  0  0  0  0  0  0  0  0  0  0  0
   -0.5419   -0.5869   -0.2576 C   0  0  0  0  0  0  0  0  0  0  0  0
   -1.9839   -0.7570    0.1526 C   0  0  0  0  0  0  0  0  0  0  0  0
   -3.5322    0.7386   -0.6925 H   0  0  0  0  0  0  0  0  0  0  0  0
   -1.6494    2.5210   -0.6245 H   0  0  0  0  0  0  0  0  0  0  0  0
   -0.3685    0.8875    1.3046 H   0  0  0  0  0  0  0  0  0  0  0  0
    1.1451    2.3451    0.1476 H   0  0  0  0  0  0  0  0  0  0  0  0
    1.0662    1.3170   -1.3810 H   0  0  0  0  0  0  0  0  0  0  0  0
    1.8992    0.5017    1.4426 H   0  0  0  0  0  0  0  0  0  0  0  0
    3.0418    0.7157    0.0501 H   0  0  0  0  0  0  0  0  0  0  0  0
    2.6224   -1.5926    0.4008 H   0  0  0  0  0  0  0  0  0  0  0  0
    1.8822   -1.0758   -1.1543 H   0  0  0  0  0  0  0  0  0  0  0  0
    0.3415   -1.6991    1.4142 H   0  0  0  0  0  0  0  0  0  0  0  0
    0.3417   -2.5055   -0.1789 H   0  0  0  0  0  0  0  0  0  0  0  0
   -0.5005   -0.6549   -1.3519 H   0  0  0  0  0  0  0  0  0  0  0  0
   -2.0996   -0.7590    1.2456 H   0  0  0  0  0  0  0  0  0  0  0  0
   -2.5107   -1.5494   -0.3760 H   0  0  0  0  0  0  0  0  0  0  0  0
  1  2  2  0
  2  3  1  0
  3  4  1  0
  4  5  1  0
  5  6  1  0
  6  7  1  0
  7  8  1  0
  8  9  1  0
  9  1  1  0
  8  3  1  0
  1 10  1  0
  2 11  1  0
  3 12  1  0
  4 13  1  0
  4 14  1  0
  5 15  1  0
  5 16  1  0
  6 17  1  0
  6 18  1  0
  7 19  1  0
  7 20  1  0
  8 21  1  0
  9 22  1  0
  9 23  1  0
M  END
