
     RDKit          3D

 17 20  0  0  0  0  0  0  0  0999 V2000
    1.1869    1.2258    0.3271 C   0  0  0  0  0  0  0  0  0  0  0  0
   -0.1019    1.0152    0.2051 C   0  0  0  0  0  0  0  0  0  0  0  0
   -1.5667    0.9974    0.0722 C   0  0  0  0  0  0  0  0  0  0  0  0
   -2.3626    0.0181    0.5809 O   0  0  0  0  0  0  0  0  0  0  0  0
   -1.7936   -0.3663   -0.6360 C   0  0  0  0  0  0  0  0  0  0  0  0
   -0.5106   -1.2022   -0.4040 C   0  0  0  0  0  0  0  0  0  0  0  0
    0.8624   -0.8529   -0.5249 C   0  0  0  0  0  0  0  0  0  0  0  0
    1.9178   -0.0958    0.3299 C   0  0  0  0  0  0  0  0  0  0  0  0
   -0.0460   -0.5014    0.6630 C   0  0  0  0  0  0  0  0  0  0  0  0
    1.6454    2.1905    0.4099 H   0  0  0  0  0  0  0  0  0  0  0  0
   -2.0844    1.8695   -0.3823 H   0  0  0  0  0  0  0  0  0  0  0  0
   -2.3087   -0.3750   -1.5686 H   0  0  0  0  0  0  0  0  0  0  0  0
   -0.7824   -2.2818   -0.3482 H   0  0  0  0  0  0  0  0  0  0  0  0
    0.9109   -0.2776   -1.4708 H   0  0  0  0  0  0  0  0  0  0  0  0
    2.8426   -0.1033   -0.2192 H   0  0  0  0  0  0  0  0  0  0  0  0
    2.0581   -0.5209    1.3131 H   0  0  0  0  0  0  0  0  0  0  0  0
    0.1328   -0.7393    1.6528 H   0  0  0  0  0  0  0  0  0  0  0  0
  1  2  2  0
  2  3  1  0
  3  4  1  0
  4  5  1  0
  5  6  1  0
  6  7  1  0
  7  8  1  0
  7  9  1  0
  8  1  1  0
  9  2  1  0
  5  3  1  0
  9  6  1  0
  1 10  1  0
  3 11  1  0
  5 12  1  0
  6 13  1  0
  7 14  1  0
  8 15  1  0
  8 16  1  0
  9 17  1  0
M  END
