
     RDKit          3D

 19 21  0  0  0  0  0  0  0  0999 V2000
    1.0562   -1.2837    0.4036 C   0  0  0  0  0  0  0  0  0  0  0  0
   -0.0452   -1.3039    1.1265 C   0  0  0  0  0  0  0  0  0  0  0  0
   -1.1771   -0.7892    0.3174 C   0  0  0  0  0  0  0  0  0  0  0  0
   -1.2885    0.6817    0.1702 C   0  0  0  0  0  0  0  0  0  0  0  0
   -0.0196    1.4345    0.4847 C   0  0  0  0  0  0  0  0  0  0  0  0
    1.1176    0.9902   -0.3987 C   0  0  0  0  0  0  0  0  0  0  0  0
    0.8434   -0.4429   -0.7989 C   0  0  0  0  0  0  0  0  0  0  0  0
   -0.6339   -0.6472   -1.0646 C   0  0  0  0  0  0  0  0  0  0  0  0
   -1.3700    0.5188   -1.2326 O   0  0  0  0  0  0  0  0  0  0  0  0
    1.9844   -1.7814    0.6123 H   0  0  0  0  0  0  0  0  0  0  0  0
   -0.0826   -1.6496    2.1511 H   0  0  0  0  0  0  0  0  0  0  0  0
   -2.1213   -1.3106    0.4507 H   0  0  0  0  0  0  0  0  0  0  0  0
   -2.1816    1.1744    0.5826 H   0  0  0  0  0  0  0  0  0  0  0  0
   -0.2311    2.5080    0.2065 H   0  0  0  0  0  0  0  0  0  0  0  0
    0.2311    1.4488    1.5564 H   0  0  0  0  0  0  0  0  0  0  0  0
    2.0823    1.0025    0.1547 H   0  0  0  0  0  0  0  0  0  0  0  0
    1.2542    1.6276   -1.2925 H   0  0  0  0  0  0  0  0  0  0  0  0
    1.4740   -0.7820   -1.6234 H   0  0  0  0  0  0  0  0  0  0  0  0
   -0.8921   -1.3962   -1.8059 H   0  0  0  0  0  0  0  0  0  0  0  0
  1  2  2  0
  2  3  1  0
  3  4  1  0
  4  5  1  0
  5  6  1  0
  6  7  1  0
  7  8  1  0
  8  9  1  0
  7  1  1  0
  8  3  1  0
  9  4  1  0
  1 10  1  0
  2 11  1  0
  3 12  1  0
  4 13  1  0
  5 14  1  0
  5 15  1  0
  6 16  1  0
  6 17  1  0
  7 18  1  0
  8 19  1  0
M  END
