
     RDKit          3D

 23 24  0  0  0  0  0  0  0  0999 V2000
    1.4651    1.5425   -0.3032 C   0  0  0  0  0  0  0  0  0  0  0  0
    0.2221    1.4926    0.1555 C   0  0  0  0  0  0  0  0  0  0  0  0
   -0.4683    0.2013    0.1886 C   0  0  0  0  0  0  0  0  0  0  0  0
    0.4076   -0.8608    0.7529 C   0  0  0  0  0  0  0  0  0  0  0  0
    1.8568   -0.7239    0.3916 C   0  0  0  0  0  0  0  0  0  0  0  0
    2.0583    0.2439   -0.7539 C   0  0  0  0  0  0  0  0  0  0  0  0
   -1.1986   -0.1845   -1.0999 C   0  0  0  0  0  0  0  0  0  0  0  0
   -2.2793   -0.7719   -0.1790 C   0  0  0  0  0  0  0  0  0  0  0  0
   -1.8640    0.2632    0.8302 C   0  0  0  0  0  0  0  0  0  0  0  0
    2.0067    2.4680   -0.3447 H   0  0  0  0  0  0  0  0  0  0  0  0
   -0.3048    2.3788    0.5091 H   0  0  0  0  0  0  0  0  0  0  0  0
    0.0523   -1.8951    0.5331 H   0  0  0  0  0  0  0  0  0  0  0  0
    0.3347   -0.7808    1.8775 H   0  0  0  0  0  0  0  0  0  0  0  0
    2.2512   -1.7314    0.0652 H   0  0  0  0  0  0  0  0  0  0  0  0
    2.4769   -0.4450    1.2669 H   0  0  0  0  0  0  0  0  0  0  0  0
    3.1439    0.3649   -0.9442 H   0  0  0  0  0  0  0  0  0  0  0  0
    1.5712   -0.1654   -1.6466 H   0  0  0  0  0  0  0  0  0  0  0  0
   -0.7010   -0.9152   -1.7309 H   0  0  0  0  0  0  0  0  0  0  0  0
   -1.5624    0.7465   -1.5767 H   0  0  0  0  0  0  0  0  0  0  0  0
   -3.2883   -0.6460   -0.6169 H   0  0  0  0  0  0  0  0  0  0  0  0
   -1.9887   -1.7750    0.1255 H   0  0  0  0  0  0  0  0  0  0  0  0
   -1.8857   -0.0497    1.8873 H   0  0  0  0  0  0  0  0  0  0  0  0
   -2.3054    1.2433    0.6126 H   0  0  0  0  0  0  0  0  0  0  0  0
  1  2  2  0
  2  3  1  0
  3  4  1  0
  4  5  1  0
  5  6  1  0
  3  7  1  0
  7  8  1  0
  8  9  1  0
  6  1  1  0
  9  3  1  0
  1 10  1  0
  2 11  1  0
  4 12  1  0
  4 13  1  0
  5 14  1  0
  5 15  1  0
  6 16  1  0
  6 17  1  0
  7 18  1  0
  7 19  1  0
  8 20  1  0
  8 21  1  0
  9 22  1  0
  9 23  1  0
M  END
