
     RDKit          3D

 18 19  0  0  0  0  0  0  0  0999 V2000
   -1.5997    0.6877   -0.7382 C   0  0  0  0  0  0  0  0  0  0  0  0
   -0.2986    0.8859   -0.8186 C   0  0  0  0  0  0  0  0  0  0  0  0
    0.6063    0.0597   -0.0090 C   0  0  0  0  0  0  0  0  0  0  0  0
    1.9090    0.5943    0.4528 C   0  0  0  0  0  0  0  0  0  0  0  0
    1.8722   -0.3906   -0.6718 C   0  0  0  0  0  0  0  0  0  0  0  0
   -0.1259   -0.8434    0.9211 C   0  0  0  0  0  0  0  0  0  0  0  0
   -1.2589   -1.3559    0.2945 O   0  0  0  0  0  0  0  0  0  0  0  0
   -2.2199   -0.3445    0.1420 C   0  0  0  0  0  0  0  0  0  0  0  0
   -2.2447    1.3095   -1.3449 H   0  0  0  0  0  0  0  0  0  0  0  0
    0.0916    1.6531   -1.4782 H   0  0  0  0  0  0  0  0  0  0  0  0
    2.1118    1.6503    0.1520 H   0  0  0  0  0  0  0  0  0  0  0  0
    2.3499    0.2537    1.4014 H   0  0  0  0  0  0  0  0  0  0  0  0
    2.0464   -0.0467   -1.7212 H   0  0  0  0  0  0  0  0  0  0  0  0
    2.1682   -1.4420   -0.4947 H   0  0  0  0  0  0  0  0  0  0  0  0
    0.4948   -1.6968    1.2703 H   0  0  0  0  0  0  0  0  0  0  0  0
   -0.4024   -0.2659    1.8218 H   0  0  0  0  0  0  0  0  0  0  0  0
   -2.3962    0.0796    1.1423 H   0  0  0  0  0  0  0  0  0  0  0  0
   -3.1038   -0.7881   -0.3216 H   0  0  0  0  0  0  0  0  0  0  0  0
  1  2  2  0
  2  3  1  0
  3  4  1  0
  4  5  1  0
  3  6  1  0
  6  7  1  0
  7  8  1  0
  8  1  1  0
  5  3  1  0
  1  9  1  0
  2 10  1  0
  4 11  1  0
  4 12  1  0
  5 13  1  0
  5 14  1  0
  6 15  1  0
  6 16  1  0
  8 17  1  0
  8 18  1  0
M  END
