
     RDKit          3D

 23 23  0  0  0  0  0  0  0  0999 V2000
    1.5656   -1.3611    0.6116 C   0  0  0  0  0  0  0  0  0  0  0  0
    0.3873   -1.8649    0.2908 C   0  0  0  0  0  0  0  0  0  0  0  0
   -0.5768   -1.1955   -0.6520 C   0  0  0  0  0  0  0  0  0  0  0  0
   -1.7315   -0.5898    0.0663 C   0  0  0  0  0  0  0  0  0  0  0  0
   -1.7374    0.8907    0.1875 C   0  0  0  0  0  0  0  0  0  0  0  0
   -0.8537    1.6152   -0.7411 C   0  0  0  0  0  0  0  0  0  0  0  0
    0.4533    1.6908   -0.5763 C   0  0  0  0  0  0  0  0  0  0  0  0
    1.0874    1.0245    0.5885 C   0  0  0  0  0  0  0  0  0  0  0  0
    1.9855   -0.0636    0.0229 C   0  0  0  0  0  0  0  0  0  0  0  0
    2.2478   -1.8538    1.2906 H   0  0  0  0  0  0  0  0  0  0  0  0
    0.1047   -2.8132    0.7348 H   0  0  0  0  0  0  0  0  0  0  0  0
   -0.9820   -2.0584   -1.2645 H   0  0  0  0  0  0  0  0  0  0  0  0
   -0.0720   -0.5573   -1.3852 H   0  0  0  0  0  0  0  0  0  0  0  0
   -1.7360   -1.0466    1.0995 H   0  0  0  0  0  0  0  0  0  0  0  0
   -2.7055   -0.9549   -0.3702 H   0  0  0  0  0  0  0  0  0  0  0  0
   -2.8102    1.2406    0.0545 H   0  0  0  0  0  0  0  0  0  0  0  0
   -1.5344    1.1882    1.2610 H   0  0  0  0  0  0  0  0  0  0  0  0
   -1.2933    2.1108   -1.6011 H   0  0  0  0  0  0  0  0  0  0  0  0
    1.1151    2.2212   -1.2522 H   0  0  0  0  0  0  0  0  0  0  0  0
    0.3991    0.6155    1.3241 H   0  0  0  0  0  0  0  0  0  0  0  0
    1.7327    1.7570    1.1391 H   0  0  0  0  0  0  0  0  0  0  0  0
    1.9107   -0.1546   -1.0760 H   0  0  0  0  0  0  0  0  0  0  0  0
    3.0437    0.1593    0.2475 H   0  0  0  0  0  0  0  0  0  0  0  0
  1  2  2  3
  2  3  1  0
  3  4  1  0
  4  5  1  0
  5  6  1  0
  6  7  2  3
  7  8  1  0
  8  9  1  0
  9  1  1  0
  1 10  1  0
  2 11  1  0
  3 12  1  0
  3 13  1  0
  4 14  1  0
  4 15  1  0
  5 16  1  0
  5 17  1  0
  6 18  1  0
  7 19  1  0
  8 20  1  0
  8 21  1  0
  9 22  1  0
  9 23  1  0
M  END
