
     RDKit          3D

 19 21  0  0  0  0  0  0  0  0999 V2000
   -1.3161   -1.1743    0.3522 C   0  0  0  0  0  0  0  0  0  0  0  0
   -0.1146   -0.8803   -0.0537 C   0  0  0  0  0  0  0  0  0  0  0  0
    1.2801   -1.2158   -0.3207 C   0  0  0  0  0  0  0  0  0  0  0  0
    2.0296    0.1143   -0.1501 C   0  0  0  0  0  0  0  0  0  0  0  0
    1.4546    1.0347    0.6961 O   0  0  0  0  0  0  0  0  0  0  0  0
    0.1901    1.5363    0.2208 C   0  0  0  0  0  0  0  0  0  0  0  0
   -1.0743    1.0306    0.6769 C   0  0  0  0  0  0  0  0  0  0  0  0
   -2.1750    0.0842    0.2179 C   0  0  0  0  0  0  0  0  0  0  0  0
   -0.3036    0.5349   -0.5752 C   0  0  0  0  0  0  0  0  0  0  0  0
   -1.5835   -2.1540    0.7072 H   0  0  0  0  0  0  0  0  0  0  0  0
    1.3775   -1.4711   -1.3951 H   0  0  0  0  0  0  0  0  0  0  0  0
    1.7072   -2.0202    0.2664 H   0  0  0  0  0  0  0  0  0  0  0  0
    2.2613    0.5585   -1.1299 H   0  0  0  0  0  0  0  0  0  0  0  0
    2.9921   -0.1720    0.3185 H   0  0  0  0  0  0  0  0  0  0  0  0
    0.2745    2.5697   -0.1154 H   0  0  0  0  0  0  0  0  0  0  0  0
   -0.8341    0.6196    1.7089 H   0  0  0  0  0  0  0  0  0  0  0  0
   -2.4873    0.2579   -0.8070 H   0  0  0  0  0  0  0  0  0  0  0  0
   -2.9820    0.1202    0.9340 H   0  0  0  0  0  0  0  0  0  0  0  0
   -0.6964    0.6270   -1.5517 H   0  0  0  0  0  0  0  0  0  0  0  0
  1  2  2  0
  2  3  1  0
  3  4  1  0
  4  5  1  0
  5  6  1  0
  6  7  1  0
  7  8  1  0
  7  9  1  0
  8  1  1  0
  9  2  1  0
  9  6  1  0
  1 10  1  0
  3 11  1  0
  3 12  1  0
  4 13  1  0
  4 14  1  0
  6 15  1  0
  7 16  1  0
  8 17  1  0
  8 18  1  0
  9 19  1  0
M  END
