
     RDKit          3D

 19 21  0  0  0  0  0  0  0  0999 V2000
    1.2405    1.4518    0.4936 C   0  0  0  0  0  0  0  0  0  0  0  0
   -0.0725    1.5215    0.6501 C   0  0  0  0  0  0  0  0  0  0  0  0
   -1.1212    0.4744    0.5270 C   0  0  0  0  0  0  0  0  0  0  0  0
   -1.4594    0.0598   -0.8829 C   0  0  0  0  0  0  0  0  0  0  0  0
   -1.0339   -1.3234   -0.5480 C   0  0  0  0  0  0  0  0  0  0  0  0
    0.3997   -1.4380   -0.0410 C   0  0  0  0  0  0  0  0  0  0  0  0
    1.2660   -0.6034   -0.6780 O   0  0  0  0  0  0  0  0  0  0  0  0
    2.0049    0.2282    0.1363 C   0  0  0  0  0  0  0  0  0  0  0  0
   -0.5903   -0.8679    0.8542 C   0  0  0  0  0  0  0  0  0  0  0  0
    1.7485    2.3922    0.6507 H   0  0  0  0  0  0  0  0  0  0  0  0
   -0.4220    2.5125    0.9105 H   0  0  0  0  0  0  0  0  0  0  0  0
   -2.0374    0.7075    1.1118 H   0  0  0  0  0  0  0  0  0  0  0  0
   -2.5306    0.1606   -1.1526 H   0  0  0  0  0  0  0  0  0  0  0  0
   -0.7591    0.5742   -1.5952 H   0  0  0  0  0  0  0  0  0  0  0  0
   -1.6586   -2.1969   -0.6517 H   0  0  0  0  0  0  0  0  0  0  0  0
    0.7188   -2.4774    0.1634 H   0  0  0  0  0  0  0  0  0  0  0  0
    2.8758    0.5867   -0.4870 H   0  0  0  0  0  0  0  0  0  0  0  0
    2.4494   -0.2664    1.0127 H   0  0  0  0  0  0  0  0  0  0  0  0
   -1.0185   -1.4960    1.6471 H   0  0  0  0  0  0  0  0  0  0  0  0
  1  2  2  0
  2  3  1  0
  3  4  1  0
  4  5  1  0
  5  6  1  0
  6  7  1  0
  7  8  1  0
  6  9  1  0
  8  1  1  0
  9  3  1  0
  9  5  1  0
  1 10  1  0
  2 11  1  0
  3 12  1  0
  4 13  1  0
  4 14  1  0
  5 15  1  0
  6 16  1  0
  8 17  1  0
  8 18  1  0
  9 19  1  0
M  END
