
     RDKit          3D

 17 19  0  0  0  0  0  0  0  0999 V2000
    1.2718    1.1532    0.6354 C   0  0  0  0  0  0  0  0  0  0  0  0
    0.0750    0.6345    0.4616 C   0  0  0  0  0  0  0  0  0  0  0  0
   -1.3912    0.4787    0.5248 C   0  0  0  0  0  0  0  0  0  0  0  0
   -1.8722   -0.1302   -0.7290 C   0  0  0  0  0  0  0  0  0  0  0  0
   -0.9267   -1.2370   -0.1904 C   0  0  0  0  0  0  0  0  0  0  0  0
   -1.4104   -0.8484    1.0486 O   0  0  0  0  0  0  0  0  0  0  0  0
    0.3618   -0.5996   -0.4260 C   0  0  0  0  0  0  0  0  0  0  0  0
    1.5315   -0.9801    0.1349 O   0  0  0  0  0  0  0  0  0  0  0  0
    2.3113    0.2530    0.0241 C   0  0  0  0  0  0  0  0  0  0  0  0
    1.3936    2.0992    1.1572 H   0  0  0  0  0  0  0  0  0  0  0  0
   -1.9649    1.2029    1.0588 H   0  0  0  0  0  0  0  0  0  0  0  0
   -1.4758    0.3630   -1.6386 H   0  0  0  0  0  0  0  0  0  0  0  0
   -2.9110   -0.4482   -0.7359 H   0  0  0  0  0  0  0  0  0  0  0  0
   -1.1534   -2.2300   -0.5401 H   0  0  0  0  0  0  0  0  0  0  0  0
    0.4909   -0.2137   -1.4809 H   0  0  0  0  0  0  0  0  0  0  0  0
    2.4874    0.4155   -1.0267 H   0  0  0  0  0  0  0  0  0  0  0  0
    3.1820    0.0871    0.6395 H   0  0  0  0  0  0  0  0  0  0  0  0
  1  2  2  0
  2  3  1  0
  3  4  1  0
  4  5  1  0
  5  6  1  0
  5  7  1  0
  7  8  1  0
  8  9  1  0
  9  1  1  0
  7  2  1  0
  6  3  1  0
  1 10  1  0
  3 11  1  0
  4 12  1  0
  4 13  1  0
  5 14  1  0
  7 15  1  0
  9 16  1  0
  9 17  1  0
M  END
