
     RDKit          3D

 21 23  0  0  0  0  0  0  0  0999 V2000
    1.8392   -0.3358   -0.4367 C   0  0  0  0  0  0  0  0  0  0  0  0
    0.9914   -1.1142   -1.0921 C   0  0  0  0  0  0  0  0  0  0  0  0
   -0.4406   -0.9368   -0.8444 C   0  0  0  0  0  0  0  0  0  0  0  0
   -0.8559    0.5302   -0.8459 C   0  0  0  0  0  0  0  0  0  0  0  0
    0.2194    1.4472   -0.3755 C   0  0  0  0  0  0  0  0  0  0  0  0
    1.1817    0.6497    0.4948 C   0  0  0  0  0  0  0  0  0  0  0  0
    0.3290   -0.2103    1.4366 C   0  0  0  0  0  0  0  0  0  0  0  0
   -0.7436   -0.9123    0.6611 C   0  0  0  0  0  0  0  0  0  0  0  0
   -1.7923    0.1519    0.3041 C   0  0  0  0  0  0  0  0  0  0  0  0
    2.9094   -0.3794   -0.5389 H   0  0  0  0  0  0  0  0  0  0  0  0
    1.3134   -1.8660   -1.7941 H   0  0  0  0  0  0  0  0  0  0  0  0
   -1.1500   -1.5506   -1.3884 H   0  0  0  0  0  0  0  0  0  0  0  0
   -1.4624    0.8451   -1.7034 H   0  0  0  0  0  0  0  0  0  0  0  0
    0.8100    1.7634   -1.2644 H   0  0  0  0  0  0  0  0  0  0  0  0
   -0.1645    2.3310    0.1757 H   0  0  0  0  0  0  0  0  0  0  0  0
    1.8944    1.2655    1.0341 H   0  0  0  0  0  0  0  0  0  0  0  0
    1.0031   -0.9141    1.9784 H   0  0  0  0  0  0  0  0  0  0  0  0
   -0.1546    0.5047    2.1387 H   0  0  0  0  0  0  0  0  0  0  0  0
   -1.1453   -1.8349    1.0639 H   0  0  0  0  0  0  0  0  0  0  0  0
   -2.6854   -0.3379   -0.0859 H   0  0  0  0  0  0  0  0  0  0  0  0
   -1.8964    0.9035    1.0821 H   0  0  0  0  0  0  0  0  0  0  0  0
  1  2  2  0
  2  3  1  0
  3  4  1  0
  4  5  1  0
  5  6  1  0
  6  7  1  0
  7  8  1  0
  8  9  1  0
  6  1  1  0
  8  3  1  0
  9  4  1  0
  1 10  1  0
  2 11  1  0
  3 12  1  0
  4 13  1  0
  5 14  1  0
  5 15  1  0
  6 16  1  0
  7 17  1  0
  7 18  1  0
  8 19  1  0
  9 20  1  0
  9 21  1  0
M  END
