
     RDKit          3D

 19 21  0  0  0  0  0  0  0  0999 V2000
    0.1692    1.4585    0.2234 C   0  0  0  0  0  0  0  0  0  0  0  0
    1.1469    0.6047    0.0069 C   0  0  0  0  0  0  0  0  0  0  0  0
    2.4607   -0.0737   -0.0952 C   0  0  0  0  0  0  0  0  0  0  0  0
    1.7413   -1.2624    0.2018 O   0  0  0  0  0  0  0  0  0  0  0  0
    0.7264   -0.7274   -0.5779 C   0  0  0  0  0  0  0  0  0  0  0  0
   -0.6891   -1.0139   -0.1641 C   0  0  0  0  0  0  0  0  0  0  0  0
   -1.6052    0.0567   -0.7762 C   0  0  0  0  0  0  0  0  0  0  0  0
   -1.2094    0.9112    0.4140 C   0  0  0  0  0  0  0  0  0  0  0  0
   -1.0022   -0.4115    1.1702 C   0  0  0  0  0  0  0  0  0  0  0  0
    0.3113    2.5197    0.2695 H   0  0  0  0  0  0  0  0  0  0  0  0
    2.7990   -0.1590   -1.1588 H   0  0  0  0  0  0  0  0  0  0  0  0
    3.2162    0.1982    0.6386 H   0  0  0  0  0  0  0  0  0  0  0  0
    0.9279   -0.7343   -1.6472 H   0  0  0  0  0  0  0  0  0  0  0  0
   -1.0079   -2.0373   -0.3373 H   0  0  0  0  0  0  0  0  0  0  0  0
   -1.2280    0.4129   -1.7484 H   0  0  0  0  0  0  0  0  0  0  0  0
   -2.6569   -0.2480   -0.7239 H   0  0  0  0  0  0  0  0  0  0  0  0
   -1.9566    1.5718    0.8266 H   0  0  0  0  0  0  0  0  0  0  0  0
   -1.9738   -0.7215    1.5860 H   0  0  0  0  0  0  0  0  0  0  0  0
   -0.1697   -0.3449    1.8916 H   0  0  0  0  0  0  0  0  0  0  0  0
  1  2  2  0
  2  3  1  0
  3  4  1  0
  4  5  1  0
  5  6  1  0
  6  7  1  0
  7  8  1  0
  8  9  1  0
  8  1  1  0
  5  2  1  0
  9  6  1  0
  1 10  1  0
  3 11  1  0
  3 12  1  0
  5 13  1  0
  6 14  1  0
  7 15  1  0
  7 16  1  0
  8 17  1  0
  9 18  1  0
  9 19  1  0
M  END
