
     RDKit          3D

 21 22  0  0  0  0  0  0  0  0999 V2000
    2.3714    0.0357   -0.2807 C   0  0  0  0  0  0  0  0  0  0  0  0
    1.7352   -1.0337   -0.6930 C   0  0  0  0  0  0  0  0  0  0  0  0
    0.3210   -1.4406   -0.7628 C   0  0  0  0  0  0  0  0  0  0  0  0
   -0.4730   -0.6172    0.1773 C   0  0  0  0  0  0  0  0  0  0  0  0
   -1.9863   -0.6968    0.0302 C   0  0  0  0  0  0  0  0  0  0  0  0
   -1.9626    0.8209    0.2825 C   0  0  0  0  0  0  0  0  0  0  0  0
   -0.6272    0.8113   -0.3739 C   0  0  0  0  0  0  0  0  0  0  0  0
    0.4457    1.5995    0.2591 C   0  0  0  0  0  0  0  0  0  0  0  0
    1.7353    1.2366    0.2827 C   0  0  0  0  0  0  0  0  0  0  0  0
    3.4561    0.0447   -0.3573 H   0  0  0  0  0  0  0  0  0  0  0  0
    2.4178   -1.8017   -1.0738 H   0  0  0  0  0  0  0  0  0  0  0  0
    0.2339   -2.5160   -0.4294 H   0  0  0  0  0  0  0  0  0  0  0  0
   -0.0536   -1.3017   -1.7805 H   0  0  0  0  0  0  0  0  0  0  0  0
   -0.1654   -0.6137    1.2333 H   0  0  0  0  0  0  0  0  0  0  0  0
   -2.5038   -1.2781    0.7903 H   0  0  0  0  0  0  0  0  0  0  0  0
   -2.2755   -0.8591   -1.0268 H   0  0  0  0  0  0  0  0  0  0  0  0
   -2.7770    1.3505   -0.2171 H   0  0  0  0  0  0  0  0  0  0  0  0
   -1.8766    0.9699    1.3785 H   0  0  0  0  0  0  0  0  0  0  0  0
   -0.6353    0.8432   -1.4798 H   0  0  0  0  0  0  0  0  0  0  0  0
    0.2074    2.5283    0.7396 H   0  0  0  0  0  0  0  0  0  0  0  0
    2.4125    1.9182    0.7858 H   0  0  0  0  0  0  0  0  0  0  0  0
  1  2  2  0
  2  3  1  0
  3  4  1  0
  4  5  1  0
  5  6  1  0
  6  7  1  0
  7  8  1  0
  8  9  2  0
  9  1  1  0
  7  4  1  0
  1 10  1  0
  2 11  1  0
  3 12  1  0
  3 13  1  0
  4 14  1  0
  5 15  1  0
  5 16  1  0
  6 17  1  0
  6 18  1  0
  7 19  1  0
  8 20  1  0
  9 21  1  0
M  END
