
     RDKit          3D

 19 21  0  0  0  0  0  0  0  0999 V2000
    0.3549    1.5643    0.7175 C   0  0  0  0  0  0  0  0  0  0  0  0
   -0.6538    0.9592    0.2357 C   0  0  0  0  0  0  0  0  0  0  0  0
   -2.0585    0.5979   -0.0820 C   0  0  0  0  0  0  0  0  0  0  0  0
   -1.8531   -0.9039    0.3189 C   0  0  0  0  0  0  0  0  0  0  0  0
   -0.5399   -1.2081    0.1902 C   0  0  0  0  0  0  0  0  0  0  0  0
    0.8782   -1.6014    0.0712 C   0  0  0  0  0  0  0  0  0  0  0  0
    1.3022   -0.2813   -0.5170 C   0  0  0  0  0  0  0  0  0  0  0  0
    1.6519    0.9020    0.3113 C   0  0  0  0  0  0  0  0  0  0  0  0
   -0.0919   -0.0706   -0.7937 C   0  0  0  0  0  0  0  0  0  0  0  0
    0.3831    2.4550    1.3532 H   0  0  0  0  0  0  0  0  0  0  0  0
   -2.7834    1.0528    0.5765 H   0  0  0  0  0  0  0  0  0  0  0  0
   -2.2467    0.6084   -1.1539 H   0  0  0  0  0  0  0  0  0  0  0  0
   -2.6100   -1.5468    0.6309 H   0  0  0  0  0  0  0  0  0  0  0  0
    1.4144   -1.7737    1.0278 H   0  0  0  0  0  0  0  0  0  0  0  0
    0.9820   -2.3953   -0.6829 H   0  0  0  0  0  0  0  0  0  0  0  0
    1.9539   -0.4143   -1.4317 H   0  0  0  0  0  0  0  0  0  0  0  0
    2.2070    0.5520    1.2176 H   0  0  0  0  0  0  0  0  0  0  0  0
    2.2859    1.5974   -0.2552 H   0  0  0  0  0  0  0  0  0  0  0  0
   -0.5762   -0.0936   -1.7342 H   0  0  0  0  0  0  0  0  0  0  0  0
  1  2  2  0
  2  3  1  0
  3  4  1  0
  4  5  2  0
  5  6  1  0
  6  7  1  0
  7  8  1  0
  7  9  1  0
  8  1  1  0
  9  2  1  0
  9  5  1  0
  1 10  1  0
  3 11  1  0
  3 12  1  0
  4 13  1  0
  6 14  1  0
  6 15  1  0
  7 16  1  0
  8 17  1  0
  8 18  1  0
  9 19  1  0
M  END
