
     RDKit          3D

 19 20  0  0  0  0  0  0  0  0999 V2000
   -1.0339   -1.4575   -0.4759 C   0  0  0  0  0  0  0  0  0  0  0  0
    0.2324   -1.5998   -0.0543 C   0  0  0  0  0  0  0  0  0  0  0  0
    1.0163   -0.7452    0.9027 C   0  0  0  0  0  0  0  0  0  0  0  0
    2.0494    0.0476    0.1934 C   0  0  0  0  0  0  0  0  0  0  0  0
    1.4940    1.2061   -0.1454 C   0  0  0  0  0  0  0  0  0  0  0  0
    0.1080    1.2072    0.4246 C   0  0  0  0  0  0  0  0  0  0  0  0
   -0.9291    1.0222   -0.6114 C   0  0  0  0  0  0  0  0  0  0  0  0
   -1.8006   -0.1859   -0.4368 C   0  0  0  0  0  0  0  0  0  0  0  0
    0.1633    0.2397    1.3962 O   0  0  0  0  0  0  0  0  0  0  0  0
   -1.5329   -2.3349   -0.8739 H   0  0  0  0  0  0  0  0  0  0  0  0
    0.7382   -2.4589   -0.4782 H   0  0  0  0  0  0  0  0  0  0  0  0
    1.4542   -1.3664    1.7243 H   0  0  0  0  0  0  0  0  0  0  0  0
    3.0602   -0.2930    0.0068 H   0  0  0  0  0  0  0  0  0  0  0  0
    1.9785    1.9799   -0.7240 H   0  0  0  0  0  0  0  0  0  0  0  0
   -0.0461    2.1875    0.9655 H   0  0  0  0  0  0  0  0  0  0  0  0
   -0.4515    0.9424   -1.6284 H   0  0  0  0  0  0  0  0  0  0  0  0
   -1.5964    1.9068   -0.6652 H   0  0  0  0  0  0  0  0  0  0  0  0
   -2.4240   -0.0832    0.4702 H   0  0  0  0  0  0  0  0  0  0  0  0
   -2.4801   -0.2147   -1.3394 H   0  0  0  0  0  0  0  0  0  0  0  0
  1  2  2  0
  2  3  1  0
  3  4  1  0
  4  5  2  0
  5  6  1  0
  6  7  1  0
  7  8  1  0
  6  9  1  0
  8  1  1  0
  9  3  1  0
  1 10  1  0
  2 11  1  0
  3 12  1  0
  4 13  1  0
  5 14  1  0
  6 15  1  0
  7 16  1  0
  7 17  1  0
  8 18  1  0
  8 19  1  0
M  END
