
     RDKit          3D

 21 22  0  0  0  0  0  0  0  0999 V2000
    1.9431   -0.5587   -1.1128 C   0  0  0  0  0  0  0  0  0  0  0  0
    2.2833    0.6042   -0.5682 C   0  0  0  0  0  0  0  0  0  0  0  0
    1.3662    0.8995    0.5869 C   0  0  0  0  0  0  0  0  0  0  0  0
    0.1590    0.1171    0.1944 C   0  0  0  0  0  0  0  0  0  0  0  0
    0.7868   -1.1472   -0.3912 C   0  0  0  0  0  0  0  0  0  0  0  0
   -0.8184   -0.1553    1.2600 C   0  0  0  0  0  0  0  0  0  0  0  0
   -2.1547    0.1207    0.5780 C   0  0  0  0  0  0  0  0  0  0  0  0
   -1.7698    0.2345   -0.8867 C   0  0  0  0  0  0  0  0  0  0  0  0
   -0.4781    0.7676   -0.8494 O   0  0  0  0  0  0  0  0  0  0  0  0
    2.4341   -1.0142   -1.9587 H   0  0  0  0  0  0  0  0  0  0  0  0
    3.0824    1.2720   -0.8672 H   0  0  0  0  0  0  0  0  0  0  0  0
    1.1109    1.9594    0.6612 H   0  0  0  0  0  0  0  0  0  0  0  0
    1.8675    0.5189    1.5011 H   0  0  0  0  0  0  0  0  0  0  0  0
    0.0718   -1.6567   -1.0387 H   0  0  0  0  0  0  0  0  0  0  0  0
    1.1026   -1.8051    0.4429 H   0  0  0  0  0  0  0  0  0  0  0  0
   -0.6449    0.5074    2.1227 H   0  0  0  0  0  0  0  0  0  0  0  0
   -0.8066   -1.2392    1.5380 H   0  0  0  0  0  0  0  0  0  0  0  0
   -2.8412   -0.7432    0.6566 H   0  0  0  0  0  0  0  0  0  0  0  0
   -2.5836    1.0627    0.9400 H   0  0  0  0  0  0  0  0  0  0  0  0
   -2.3954    0.9874   -1.4183 H   0  0  0  0  0  0  0  0  0  0  0  0
   -1.7151   -0.7319   -1.3905 H   0  0  0  0  0  0  0  0  0  0  0  0
  1  2  2  0
  2  3  1  0
  3  4  1  0
  4  5  1  0
  4  6  1  0
  6  7  1  0
  7  8  1  0
  8  9  1  0
  5  1  1  0
  9  4  1  0
  1 10  1  0
  2 11  1  0
  3 12  1  0
  3 13  1  0
  5 14  1  0
  5 15  1  0
  6 16  1  0
  6 17  1  0
  7 18  1  0
  7 19  1  0
  8 20  1  0
  8 21  1  0
M  END
