
     RDKit          3D

 21 23  0  0  0  0  0  0  0  0999 V2000
   -1.4641   -0.0009    1.1864 C   0  0  0  0  0  0  0  0  0  0  0  0
   -0.6019   -0.9973    1.4599 C   0  0  0  0  0  0  0  0  0  0  0  0
    0.2957   -1.0481    0.3284 C   0  0  0  0  0  0  0  0  0  0  0  0
   -0.6737   -0.8861   -0.8211 C   0  0  0  0  0  0  0  0  0  0  0  0
   -1.4299    0.3200   -0.2889 C   0  0  0  0  0  0  0  0  0  0  0  0
   -0.5307    1.5082   -0.5703 C   0  0  0  0  0  0  0  0  0  0  0  0
    0.9391    1.0810   -0.7027 C   0  0  0  0  0  0  0  0  0  0  0  0
    1.3086    0.1343    0.3597 C   0  0  0  0  0  0  0  0  0  0  0  0
    1.6864   -1.2587    0.2153 C   0  0  0  0  0  0  0  0  0  0  0  0
   -2.1076    0.5172    1.9116 H   0  0  0  0  0  0  0  0  0  0  0  0
   -0.6510   -1.5843    2.3686 H   0  0  0  0  0  0  0  0  0  0  0  0
   -1.2811   -1.7841   -0.8629 H   0  0  0  0  0  0  0  0  0  0  0  0
   -0.1404   -0.7195   -1.7466 H   0  0  0  0  0  0  0  0  0  0  0  0
   -2.4325    0.4200   -0.6916 H   0  0  0  0  0  0  0  0  0  0  0  0
   -0.8093    1.8607   -1.6023 H   0  0  0  0  0  0  0  0  0  0  0  0
   -0.6609    2.3332    0.1276 H   0  0  0  0  0  0  0  0  0  0  0  0
    1.2008    0.8034   -1.7332 H   0  0  0  0  0  0  0  0  0  0  0  0
    1.5073    2.0445   -0.5239 H   0  0  0  0  0  0  0  0  0  0  0  0
    1.5208    0.6006    1.3487 H   0  0  0  0  0  0  0  0  0  0  0  0
    2.2469   -1.7494    1.0292 H   0  0  0  0  0  0  0  0  0  0  0  0
    2.0778   -1.5947   -0.7919 H   0  0  0  0  0  0  0  0  0  0  0  0
  1  2  2  0
  2  3  1  0
  3  4  1  0
  4  5  1  0
  5  6  1  0
  6  7  1  0
  7  8  1  0
  8  9  1  0
  5  1  1  0
  8  3  1  0
  9  3  1  0
  1 10  1  0
  2 11  1  0
  4 12  1  0
  4 13  1  0
  5 14  1  0
  6 15  1  0
  6 16  1  0
  7 17  1  0
  7 18  1  0
  8 19  1  0
  9 20  1  0
  9 21  1  0
M  END
