
     RDKit          3D

 19 21  0  0  0  0  0  0  0  0999 V2000
    1.0466    1.2802    0.3739 C   0  0  0  0  0  0  0  0  0  0  0  0
    1.4742    0.0305    0.2996 C   0  0  0  0  0  0  0  0  0  0  0  0
    0.7280   -1.2430    0.2226 C   0  0  0  0  0  0  0  0  0  0  0  0
   -0.5980   -0.9658    0.9566 C   0  0  0  0  0  0  0  0  0  0  0  0
   -1.1171   -0.5240   -0.3227 C   0  0  0  0  0  0  0  0  0  0  0  0
   -0.1353   -1.3219   -1.0459 C   0  0  0  0  0  0  0  0  0  0  0  0
   -2.1705    0.1585   -0.6513 O   0  0  0  0  0  0  0  0  0  0  0  0
   -1.0296    0.8707   -0.7458 C   0  0  0  0  0  0  0  0  0  0  0  0
   -0.4014    1.7256    0.2736 C   0  0  0  0  0  0  0  0  0  0  0  0
    1.7967    2.0194    0.5163 H   0  0  0  0  0  0  0  0  0  0  0  0
    2.5429   -0.0856    0.2942 H   0  0  0  0  0  0  0  0  0  0  0  0
    1.2397   -2.1467    0.5083 H   0  0  0  0  0  0  0  0  0  0  0  0
   -0.4680   -0.2427    1.7750 H   0  0  0  0  0  0  0  0  0  0  0  0
   -1.0023   -1.9234    1.2989 H   0  0  0  0  0  0  0  0  0  0  0  0
   -0.3837   -2.3731   -1.2800 H   0  0  0  0  0  0  0  0  0  0  0  0
    0.4178   -0.8345   -1.8848 H   0  0  0  0  0  0  0  0  0  0  0  0
   -0.6947    1.0786   -1.7926 H   0  0  0  0  0  0  0  0  0  0  0  0
   -0.8781    1.7138    1.2665 H   0  0  0  0  0  0  0  0  0  0  0  0
   -0.3670    2.7834   -0.0625 H   0  0  0  0  0  0  0  0  0  0  0  0
  1  2  2  0
  2  3  1  0
  3  4  1  0
  4  5  1  0
  5  6  1  0
  5  7  1  0
  7  8  1  0
  8  9  1  0
  9  1  1  0
  6  3  1  0
  8  5  1  0
  1 10  1  0
  2 11  1  0
  3 12  1  0
  4 13  1  0
  4 14  1  0
  6 15  1  0
  6 16  1  0
  8 17  1  0
  9 18  1  0
  9 19  1  0
M  END
