
     RDKit          3D

 19 21  0  0  0  0  0  0  0  0999 V2000
   -1.1656    1.3233    0.3081 C   0  0  0  0  0  0  0  0  0  0  0  0
    0.1481    1.6604    0.2937 C   0  0  0  0  0  0  0  0  0  0  0  0
    1.2962    1.0008   -0.3163 C   0  0  0  0  0  0  0  0  0  0  0  0
    1.9944   -0.2755   -0.4270 C   0  0  0  0  0  0  0  0  0  0  0  0
    1.2868   -1.4287   -0.8722 O   0  0  0  0  0  0  0  0  0  0  0  0
    0.3958   -1.2829    0.2197 C   0  0  0  0  0  0  0  0  0  0  0  0
   -1.0247   -1.1606   -0.0378 C   0  0  0  0  0  0  0  0  0  0  0  0
   -1.6731    0.1188   -0.3571 C   0  0  0  0  0  0  0  0  0  0  0  0
    1.2091   -0.1510    0.6343 C   0  0  0  0  0  0  0  0  0  0  0  0
   -1.8603    2.0007    0.8411 H   0  0  0  0  0  0  0  0  0  0  0  0
    0.4032    2.5729    0.8213 H   0  0  0  0  0  0  0  0  0  0  0  0
    1.0535    1.0985   -1.3957 H   0  0  0  0  0  0  0  0  0  0  0  0
    3.0652   -0.2110   -0.5889 H   0  0  0  0  0  0  0  0  0  0  0  0
    0.6136   -2.1770    0.8843 H   0  0  0  0  0  0  0  0  0  0  0  0
   -1.5974   -1.6059    0.8354 H   0  0  0  0  0  0  0  0  0  0  0  0
   -1.2925   -1.8799   -0.8750 H   0  0  0  0  0  0  0  0  0  0  0  0
   -2.7616    0.0501   -0.1439 H   0  0  0  0  0  0  0  0  0  0  0  0
   -1.6187    0.2679   -1.4762 H   0  0  0  0  0  0  0  0  0  0  0  0
    1.5279    0.0790    1.6521 H   0  0  0  0  0  0  0  0  0  0  0  0
  1  2  2  0
  2  3  1  0
  3  4  1  0
  4  5  1  0
  5  6  1  0
  6  7  1  0
  7  8  1  0
  6  9  1  0
  8  1  1  0
  9  3  1  0
  9  4  1  0
  1 10  1  0
  2 11  1  0
  3 12  1  0
  4 13  1  0
  6 14  1  0
  7 15  1  0
  7 16  1  0
  8 17  1  0
  8 18  1  0
  9 19  1  0
M  END
