
     RDKit          2D

 17 20  0  0  0  0  0  0  0  0999 V2000
    1.3706    2.3740    0.0000 C   0  0  0  0  0  0  0  0  0  0  0  0
   -0.1211    2.2172    0.0000 C   0  0  0  0  0  0  0  0  0  0  0  0
   -1.5884    1.9054    0.0000 C   0  0  0  0  0  0  0  0  0  0  0  0
   -1.7452    0.4136    0.0000 C   0  0  0  0  0  0  0  0  0  0  0  0
   -0.6845    1.4742    0.0000 C   0  0  0  0  0  0  0  0  0  0  0  0
    1.9807    1.0037    0.0000 C   0  0  0  0  0  0  0  0  0  0  0  0
    0.8660    0.0000    0.0000 C   0  0  0  0  0  0  0  0  0  0  0  0
   -0.4330    0.7500    0.0000 C   0  0  0  0  0  0  0  0  0  0  0  0
   -0.4330   -0.7500    0.0000 C   0  0  0  0  0  0  0  0  0  0  0  0
    2.1206    3.6731    0.0000 H   0  0  0  0  0  0  0  0  0  0  0  0
   -2.7031    2.9090    0.0000 H   0  0  0  0  0  0  0  0  0  0  0  0
   -1.1642    2.1109    0.0000 H   0  0  0  0  0  0  0  0  0  0  0  0
   -0.1962    2.8925    0.0000 H   0  0  0  0  0  0  0  0  0  0  0  0
    3.4480    0.6918    0.0000 H   0  0  0  0  0  0  0  0  0  0  0  0
    1.7477   -1.2135    0.0000 H   0  0  0  0  0  0  0  0  0  0  0  0
   -1.8425    1.2631    0.0000 H   0  0  0  0  0  0  0  0  0  0  0  0
   -1.1830   -2.0490    0.0000 H   0  0  0  0  0  0  0  0  0  0  0  0
  1  2  2  0
  2  3  1  0
  3  4  2  0
  4  5  1  0
  5  6  1  0
  6  7  1  0
  7  8  1  0
  8  9  1  0
  6  1  1  0
  9  7  1  0
  8  2  1  0
  9  4  1  0
  1 10  1  0
  3 11  1  0
  5 12  1  0
  5 13  1  0
  6 14  1  0
  7 15  1  0
  8 16  1  0
  9 17  1  0
M  END
