
     RDKit          3D

 19 20  0  0  0  0  0  0  0  0999 V2000
    0.7123    1.3966   -0.2063 C   0  0  0  0  0  0  0  0  0  0  0  0
    1.5317    0.4243   -0.4963 C   0  0  0  0  0  0  0  0  0  0  0  0
    1.5341   -0.9746   -0.0031 C   0  0  0  0  0  0  0  0  0  0  0  0
    0.1181   -1.4663    0.1870 C   0  0  0  0  0  0  0  0  0  0  0  0
   -0.7566   -1.0494   -0.9469 C   0  0  0  0  0  0  0  0  0  0  0  0
   -1.7166   -0.2636   -0.4697 C   0  0  0  0  0  0  0  0  0  0  0  0
   -1.2047    0.2109    0.8507 C   0  0  0  0  0  0  0  0  0  0  0  0
   -0.4772    1.5145    0.6771 C   0  0  0  0  0  0  0  0  0  0  0  0
   -0.4155   -0.8260    1.2738 O   0  0  0  0  0  0  0  0  0  0  0  0
    0.9407    2.3328   -0.7187 H   0  0  0  0  0  0  0  0  0  0  0  0
    2.3280    0.6409   -1.1893 H   0  0  0  0  0  0  0  0  0  0  0  0
    2.1097   -1.6359   -0.7131 H   0  0  0  0  0  0  0  0  0  0  0  0
    2.0138   -0.9760    1.0034 H   0  0  0  0  0  0  0  0  0  0  0  0
    0.0507   -2.5509    0.2723 H   0  0  0  0  0  0  0  0  0  0  0  0
   -0.6635   -1.3178   -2.0016 H   0  0  0  0  0  0  0  0  0  0  0  0
   -2.6786   -0.0095   -0.9312 H   0  0  0  0  0  0  0  0  0  0  0  0
   -2.0421    0.3999    1.5565 H   0  0  0  0  0  0  0  0  0  0  0  0
   -1.1974    2.2242    0.2024 H   0  0  0  0  0  0  0  0  0  0  0  0
   -0.1869    1.9259    1.6531 H   0  0  0  0  0  0  0  0  0  0  0  0
  1  2  2  0
  2  3  1  0
  3  4  1  0
  4  5  1  0
  5  6  2  0
  6  7  1  0
  7  8  1  0
  7  9  1  0
  8  1  1  0
  9  4  1  0
  1 10  1  0
  2 11  1  0
  3 12  1  0
  3 13  1  0
  4 14  1  0
  5 15  1  0
  6 16  1  0
  7 17  1  0
  8 18  1  0
  8 19  1  0
M  END
