
     RDKit          3D

 21 22  0  0  0  0  0  0  0  0999 V2000
   -0.2184    1.1591   -1.1760 C   0  0  0  0  0  0  0  0  0  0  0  0
    0.9497    0.5347   -1.2822 C   0  0  0  0  0  0  0  0  0  0  0  0
    1.1358   -0.6619   -0.4153 C   0  0  0  0  0  0  0  0  0  0  0  0
   -0.1336   -1.4775   -0.5115 C   0  0  0  0  0  0  0  0  0  0  0  0
   -1.3500   -0.7504   -0.0538 C   0  0  0  0  0  0  0  0  0  0  0  0
   -1.1336    0.7338   -0.0865 C   0  0  0  0  0  0  0  0  0  0  0  0
   -0.5369    1.0795    1.2871 C   0  0  0  0  0  0  0  0  0  0  0  0
    0.2799    0.0758    1.7203 O   0  0  0  0  0  0  0  0  0  0  0  0
    1.3938   -0.1662    0.9828 C   0  0  0  0  0  0  0  0  0  0  0  0
   -0.4710    1.9456   -1.8701 H   0  0  0  0  0  0  0  0  0  0  0  0
    1.7519    0.8357   -1.9429 H   0  0  0  0  0  0  0  0  0  0  0  0
    1.9590   -1.2969   -0.7726 H   0  0  0  0  0  0  0  0  0  0  0  0
   -0.2696   -1.7090   -1.6010 H   0  0  0  0  0  0  0  0  0  0  0  0
    0.0198   -2.4546   -0.0135 H   0  0  0  0  0  0  0  0  0  0  0  0
   -2.2555   -0.9908   -0.6429 H   0  0  0  0  0  0  0  0  0  0  0  0
   -1.5850   -1.0850    0.9981 H   0  0  0  0  0  0  0  0  0  0  0  0
   -2.0872    1.2789   -0.2190 H   0  0  0  0  0  0  0  0  0  0  0  0
   -1.4331    1.0987    1.9607 H   0  0  0  0  0  0  0  0  0  0  0  0
   -0.0845    2.0819    1.2575 H   0  0  0  0  0  0  0  0  0  0  0  0
    2.0769    0.7192    0.8886 H   0  0  0  0  0  0  0  0  0  0  0  0
    1.9917   -0.9505    1.4924 H   0  0  0  0  0  0  0  0  0  0  0  0
  1  2  2  0
  2  3  1  0
  3  4  1  0
  4  5  1  0
  5  6  1  0
  6  7  1  0
  7  8  1  0
  8  9  1  0
  6  1  1  0
  9  3  1  0
  1 10  1  0
  2 11  1  0
  3 12  1  0
  4 13  1  0
  4 14  1  0
  5 15  1  0
  5 16  1  0
  6 17  1  0
  7 18  1  0
  7 19  1  0
  9 20  1  0
  9 21  1  0
M  END
