
     RDKit          3D

 21 23  0  0  0  0  0  0  0  0999 V2000
    1.6062    0.7435   -0.4876 C   0  0  0  0  0  0  0  0  0  0  0  0
    1.7522   -0.2384    0.3955 C   0  0  0  0  0  0  0  0  0  0  0  0
    0.5164   -1.0630    0.5769 C   0  0  0  0  0  0  0  0  0  0  0  0
    0.1056   -1.3060   -0.8940 C   0  0  0  0  0  0  0  0  0  0  0  0
   -0.6590    0.0150   -1.0955 C   0  0  0  0  0  0  0  0  0  0  0  0
   -1.6683   -0.2470    0.0437 C   0  0  0  0  0  0  0  0  0  0  0  0
   -0.5782   -0.1927    1.1345 C   0  0  0  0  0  0  0  0  0  0  0  0
   -0.2335    1.2888    0.9046 C   0  0  0  0  0  0  0  0  0  0  0  0
    0.1491    1.1637   -0.5887 C   0  0  0  0  0  0  0  0  0  0  0  0
    2.3908    1.2023   -1.0692 H   0  0  0  0  0  0  0  0  0  0  0  0
    2.6226   -0.4834    0.9585 H   0  0  0  0  0  0  0  0  0  0  0  0
    0.6831   -1.9875    1.1097 H   0  0  0  0  0  0  0  0  0  0  0  0
   -0.6365   -2.1028   -0.9542 H   0  0  0  0  0  0  0  0  0  0  0  0
    0.9601   -1.3987   -1.5544 H   0  0  0  0  0  0  0  0  0  0  0  0
   -1.1125    0.1120   -2.0540 H   0  0  0  0  0  0  0  0  0  0  0  0
   -2.0745   -1.2551   -0.0584 H   0  0  0  0  0  0  0  0  0  0  0  0
   -2.3846    0.5592    0.1394 H   0  0  0  0  0  0  0  0  0  0  0  0
   -0.9299   -0.4182    2.1114 H   0  0  0  0  0  0  0  0  0  0  0  0
    0.6014    1.6118    1.5173 H   0  0  0  0  0  0  0  0  0  0  0  0
   -1.1394    1.8958    0.9835 H   0  0  0  0  0  0  0  0  0  0  0  0
    0.0290    2.1007   -1.1189 H   0  0  0  0  0  0  0  0  0  0  0  0
  1  2  2  0
  2  3  1  0
  3  4  1  0
  4  5  1  0
  5  6  1  0
  6  7  1  0
  7  8  1  0
  8  9  1  0
  9  1  1  0
  7  3  1  0
  9  5  1  0
  1 10  1  0
  2 11  1  0
  3 12  1  0
  4 13  1  0
  4 14  1  0
  5 15  1  0
  6 16  1  0
  6 17  1  0
  7 18  1  0
  8 19  1  0
  8 20  1  0
  9 21  1  0
M  END
