
     RDKit          3D

 14 16  0  0  0  0  0  0  0  0999 V2000
   -1.5893    0.6462    0.0572 C   0  0  0  0  0  0  0  0  0  0  0  0
   -0.4104    1.2281   -0.1385 C   0  0  0  0  0  0  0  0  0  0  0  0
    0.6386    0.2173   -0.2448 C   0  0  0  0  0  0  0  0  0  0  0  0
    1.9284    0.2559    0.3117 C   0  0  0  0  0  0  0  0  0  0  0  0
    1.7036    0.3810   -1.1202 O   0  0  0  0  0  0  0  0  0  0  0  0
   -0.1172   -1.0877   -0.3102 C   0  0  0  0  0  0  0  0  0  0  0  0
   -0.6089   -1.4238    1.0297 O   0  0  0  0  0  0  0  0  0  0  0  0
   -1.4333   -0.8306    0.1001 C   0  0  0  0  0  0  0  0  0  0  0  0
   -2.5668    1.1487    0.1760 H   0  0  0  0  0  0  0  0  0  0  0  0
   -0.3487    2.3277   -0.1962 H   0  0  0  0  0  0  0  0  0  0  0  0
    2.4599   -0.6730    0.6132 H   0  0  0  0  0  0  0  0  0  0  0  0
    2.3814    1.1726    0.7263 H   0  0  0  0  0  0  0  0  0  0  0  0
    0.3095   -1.9280   -0.8659 H   0  0  0  0  0  0  0  0  0  0  0  0
   -2.3469   -1.4345   -0.1384 H   0  0  0  0  0  0  0  0  0  0  0  0
  1  2  2  0
  2  3  1  0
  3  4  1  0
  4  5  1  0
  3  6  1  0
  6  7  1  0
  7  8  1  0
  8  1  1  0
  5  3  1  0
  8  6  1  0
  1  9  1  0
  2 10  1  0
  4 11  1  0
  4 12  1  0
  6 13  1  0
  8 14  1  0
M  END
