
     RDKit          3D

 18 19  0  0  0  0  0  0  0  0999 V2000
   -2.2635    0.0592    0.2453 C   0  0  0  0  0  0  0  0  0  0  0  0
   -1.5622    1.1722    0.2882 C   0  0  0  0  0  0  0  0  0  0  0  0
   -0.1319    0.9472    0.1124 C   0  0  0  0  0  0  0  0  0  0  0  0
    1.1093    1.3699    0.2037 C   0  0  0  0  0  0  0  0  0  0  0  0
    2.0563    0.3032   -0.2724 C   0  0  0  0  0  0  0  0  0  0  0  0
    1.1926   -0.9156    0.1218 C   0  0  0  0  0  0  0  0  0  0  0  0
   -0.0931   -0.4264   -0.4622 C   0  0  0  0  0  0  0  0  0  0  0  0
   -1.3327   -1.0680    0.0282 C   0  0  0  0  0  0  0  0  0  0  0  0
   -3.3670   -0.0175    0.3540 H   0  0  0  0  0  0  0  0  0  0  0  0
   -1.9722    2.1793    0.4390 H   0  0  0  0  0  0  0  0  0  0  0  0
    1.4249    2.3159    0.5564 H   0  0  0  0  0  0  0  0  0  0  0  0
    3.0070    0.3153    0.2466 H   0  0  0  0  0  0  0  0  0  0  0  0
    2.0804    0.3271   -1.3583 H   0  0  0  0  0  0  0  0  0  0  0  0
    1.5774   -1.8364   -0.2955 H   0  0  0  0  0  0  0  0  0  0  0  0
    1.2016   -0.9283    1.2255 H   0  0  0  0  0  0  0  0  0  0  0  0
    0.0155   -0.3952   -1.5635 H   0  0  0  0  0  0  0  0  0  0  0  0
   -1.2070   -1.6875    0.9367 H   0  0  0  0  0  0  0  0  0  0  0  0
   -1.7356   -1.7142   -0.8058 H   0  0  0  0  0  0  0  0  0  0  0  0
  1  2  2  0
  2  3  1  0
  3  4  2  0
  4  5  1  0
  5  6  1  0
  6  7  1  0
  7  8  1  0
  8  1  1  0
  7  3  1  0
  1  9  1  0
  2 10  1  0
  4 11  1  0
  5 12  1  0
  5 13  1  0
  6 14  1  0
  6 15  1  0
  7 16  1  0
  8 17  1  0
  8 18  1  0
M  END
