
     RDKit          3D

 21 23  0  0  0  0  0  0  0  0999 V2000
    2.3403    0.4913    0.8280 C   0  0  0  0  0  0  0  0  0  0  0  0
    1.1067    0.2902    1.2226 C   0  0  0  0  0  0  0  0  0  0  0  0
    0.2113   -0.2190    0.1594 C   0  0  0  0  0  0  0  0  0  0  0  0
    1.2326   -0.7437   -0.8296 C   0  0  0  0  0  0  0  0  0  0  0  0
    2.4418    0.1329   -0.6000 C   0  0  0  0  0  0  0  0  0  0  0  0
   -0.8391    0.6101   -0.2812 C   0  0  0  0  0  0  0  0  0  0  0  0
   -2.2404    0.7667    0.3257 C   0  0  0  0  0  0  0  0  0  0  0  0
   -2.3584   -0.6154   -0.3602 C   0  0  0  0  0  0  0  0  0  0  0  0
   -1.0476   -0.8049    0.4132 C   0  0  0  0  0  0  0  0  0  0  0  0
    3.1767    0.8730    1.4730 H   0  0  0  0  0  0  0  0  0  0  0  0
    0.7469    0.4757    2.2445 H   0  0  0  0  0  0  0  0  0  0  0  0
    1.4922   -1.7893   -0.6611 H   0  0  0  0  0  0  0  0  0  0  0  0
    0.8702   -0.5423   -1.8710 H   0  0  0  0  0  0  0  0  0  0  0  0
    3.3896   -0.3801   -0.8537 H   0  0  0  0  0  0  0  0  0  0  0  0
    2.3583    1.0957   -1.1806 H   0  0  0  0  0  0  0  0  0  0  0  0
   -1.0066    0.5862   -1.4063 H   0  0  0  0  0  0  0  0  0  0  0  0
   -2.2684    0.6935    1.4195 H   0  0  0  0  0  0  0  0  0  0  0  0
   -2.8259    1.5502   -0.1465 H   0  0  0  0  0  0  0  0  0  0  0  0
   -2.2671   -0.5061   -1.4362 H   0  0  0  0  0  0  0  0  0  0  0  0
   -3.1699   -1.2369    0.0289 H   0  0  0  0  0  0  0  0  0  0  0  0
   -1.3433   -0.7279    1.5117 H   0  0  0  0  0  0  0  0  0  0  0  0
  1  2  2  0
  2  3  1  0
  3  4  1  0
  4  5  1  0
  3  6  1  0
  6  7  1  0
  7  8  1  0
  8  9  1  0
  5  1  1  0
  9  6  1  0
  9  3  1  0
  1 10  1  0
  2 11  1  0
  4 12  1  0
  4 13  1  0
  5 14  1  0
  5 15  1  0
  6 16  1  0
  7 17  1  0
  7 18  1  0
  8 19  1  0
  8 20  1  0
  9 21  1  0
M  END
