
     RDKit          3D

 21 22  0  0  0  0  0  0  0  0999 V2000
   -0.1249    1.8048   -0.1406 C   0  0  0  0  0  0  0  0  0  0  0  0
    0.9742    1.1136   -0.3991 C   0  0  0  0  0  0  0  0  0  0  0  0
    1.2775   -0.3129   -0.1035 C   0  0  0  0  0  0  0  0  0  0  0  0
    0.2605   -1.1689   -0.7675 C   0  0  0  0  0  0  0  0  0  0  0  0
   -1.0233   -1.1625    0.0160 C   0  0  0  0  0  0  0  0  0  0  0  0
   -1.8511    0.0685   -0.1979 C   0  0  0  0  0  0  0  0  0  0  0  0
   -1.3413    1.2753    0.5296 C   0  0  0  0  0  0  0  0  0  0  0  0
    2.4375   -0.6780    0.5622 C   0  0  0  0  0  0  0  0  0  0  0  0
    1.2875   -0.5994    1.3553 O   0  0  0  0  0  0  0  0  0  0  0  0
   -0.0877    2.8303   -0.4607 H   0  0  0  0  0  0  0  0  0  0  0  0
    1.7823    1.6358   -0.8948 H   0  0  0  0  0  0  0  0  0  0  0  0
    0.1435   -0.9240   -1.8220 H   0  0  0  0  0  0  0  0  0  0  0  0
    0.6396   -2.2326   -0.7328 H   0  0  0  0  0  0  0  0  0  0  0  0
   -1.6294   -2.0340   -0.3176 H   0  0  0  0  0  0  0  0  0  0  0  0
   -0.7941   -1.2579    1.0727 H   0  0  0  0  0  0  0  0  0  0  0  0
   -1.9802    0.3446   -1.2600 H   0  0  0  0  0  0  0  0  0  0  0  0
   -2.8681   -0.1527    0.2089 H   0  0  0  0  0  0  0  0  0  0  0  0
   -2.1285    2.0428    0.5243 H   0  0  0  0  0  0  0  0  0  0  0  0
   -1.0671    1.0550    1.5805 H   0  0  0  0  0  0  0  0  0  0  0  0
    3.2150    0.0625    0.8044 H   0  0  0  0  0  0  0  0  0  0  0  0
    2.8783   -1.7103    0.4426 H   0  0  0  0  0  0  0  0  0  0  0  0
  1  2  2  0
  2  3  1  0
  3  4  1  0
  4  5  1  0
  5  6  1  0
  6  7  1  0
  3  8  1  0
  8  9  1  0
  7  1  1  0
  9  3  1  0
  1 10  1  0
  2 11  1  0
  4 12  1  0
  4 13  1  0
  5 14  1  0
  5 15  1  0
  6 16  1  0
  6 17  1  0
  7 18  1  0
  7 19  1  0
  8 20  1  0
  8 21  1  0
M  END
