
     RDKit          3D

 17 19  0  0  0  0  0  0  0  0999 V2000
   -0.7063   -1.4910    0.0031 C   0  0  0  0  0  0  0  0  0  0  0  0
    0.3662   -0.7576    0.1679 C   0  0  0  0  0  0  0  0  0  0  0  0
    1.8615   -0.6609    0.3691 C   0  0  0  0  0  0  0  0  0  0  0  0
    2.2379    0.5081   -0.2712 O   0  0  0  0  0  0  0  0  0  0  0  0
    1.1717    1.3677   -0.3353 C   0  0  0  0  0  0  0  0  0  0  0  0
   -0.0519    0.6664    0.1578 C   0  0  0  0  0  0  0  0  0  0  0  0
   -0.8462    1.1995    1.1399 O   0  0  0  0  0  0  0  0  0  0  0  0
   -1.3711    0.7505   -0.0845 C   0  0  0  0  0  0  0  0  0  0  0  0
   -1.9158   -0.6628   -0.1322 C   0  0  0  0  0  0  0  0  0  0  0  0
   -0.6328   -2.5990   -0.0210 H   0  0  0  0  0  0  0  0  0  0  0  0
    2.0138   -0.5669    1.4609 H   0  0  0  0  0  0  0  0  0  0  0  0
    2.3603   -1.5632   -0.0280 H   0  0  0  0  0  0  0  0  0  0  0  0
    1.3723    2.3170    0.2351 H   0  0  0  0  0  0  0  0  0  0  0  0
    1.0061    1.6287   -1.4077 H   0  0  0  0  0  0  0  0  0  0  0  0
   -1.8689    1.5116   -0.7330 H   0  0  0  0  0  0  0  0  0  0  0  0
   -2.6747   -0.8466    0.6436 H   0  0  0  0  0  0  0  0  0  0  0  0
   -2.3222   -0.8015   -1.1647 H   0  0  0  0  0  0  0  0  0  0  0  0
  1  2  2  0
  2  3  1  0
  3  4  1  0
  4  5  1  0
  5  6  1  0
  6  7  1  0
  7  8  1  0
  8  9  1  0
  9  1  1  0
  6  2  1  0
  8  6  1  0
  1 10  1  0
  3 11  1  0
  3 12  1  0
  5 13  1  0
  5 14  1  0
  8 15  1  0
  9 16  1  0
  9 17  1  0
M  END
