
     RDKit          3D

 19 21  0  0  0  0  0  0  0  0999 V2000
   -0.8833   -1.7371    0.0706 C   0  0  0  0  0  0  0  0  0  0  0  0
   -1.6572   -0.7202   -0.2788 C   0  0  0  0  0  0  0  0  0  0  0  0
   -1.1815    0.6091   -0.7311 C   0  0  0  0  0  0  0  0  0  0  0  0
   -1.0290    1.6825    0.3698 C   0  0  0  0  0  0  0  0  0  0  0  0
    0.1013    0.9290   -0.1430 C   0  0  0  0  0  0  0  0  0  0  0  0
    1.1741    1.4652   -0.8042 O   0  0  0  0  0  0  0  0  0  0  0  0
    2.0106    0.6355   -0.0710 C   0  0  0  0  0  0  0  0  0  0  0  0
    0.8693   -0.1012    0.5656 C   0  0  0  0  0  0  0  0  0  0  0  0
    0.6024   -1.4850   -0.0107 C   0  0  0  0  0  0  0  0  0  0  0  0
   -1.2374   -2.7011    0.3982 H   0  0  0  0  0  0  0  0  0  0  0  0
   -2.7363   -0.9194   -0.2142 H   0  0  0  0  0  0  0  0  0  0  0  0
   -1.4799    0.9439   -1.7406 H   0  0  0  0  0  0  0  0  0  0  0  0
   -1.1771    2.7090   -0.0223 H   0  0  0  0  0  0  0  0  0  0  0  0
   -1.4907    1.4620    1.3528 H   0  0  0  0  0  0  0  0  0  0  0  0
    2.6057   -0.0300   -0.7244 H   0  0  0  0  0  0  0  0  0  0  0  0
    2.6213    1.1539    0.7067 H   0  0  0  0  0  0  0  0  0  0  0  0
    0.8307   -0.0936    1.6641 H   0  0  0  0  0  0  0  0  0  0  0  0
    0.9569   -1.5896   -1.0451 H   0  0  0  0  0  0  0  0  0  0  0  0
    1.0999   -2.2130    0.6576 H   0  0  0  0  0  0  0  0  0  0  0  0
  1  2  2  0
  2  3  1  0
  3  4  1  0
  4  5  1  0
  5  6  1  0
  6  7  1  0
  7  8  1  0
  8  9  1  0
  9  1  1  0
  5  3  1  0
  8  5  1  0
  1 10  1  0
  2 11  1  0
  3 12  1  0
  4 13  1  0
  4 14  1  0
  7 15  1  0
  7 16  1  0
  8 17  1  0
  9 18  1  0
  9 19  1  0
M  END
