
     RDKit          3D

 23 24  0  0  0  0  0  0  0  0999 V2000
    1.0636    0.9692   -0.2874 C   0  0  0  0  0  0  0  0  0  0  0  0
    0.6103   -0.1614    0.2165 C   0  0  0  0  0  0  0  0  0  0  0  0
   -0.7880   -0.5666    0.5444 C   0  0  0  0  0  0  0  0  0  0  0  0
   -1.7860    0.5007    0.2390 C   0  0  0  0  0  0  0  0  0  0  0  0
   -3.2320    0.2399    0.5145 C   0  0  0  0  0  0  0  0  0  0  0  0
   -2.7146    0.2069   -0.9118 C   0  0  0  0  0  0  0  0  0  0  0  0
    1.7647   -1.0552    0.4446 C   0  0  0  0  0  0  0  0  0  0  0  0
    2.7292   -0.6042   -0.6273 C   0  0  0  0  0  0  0  0  0  0  0  0
    2.5588    0.9148   -0.4450 C   0  0  0  0  0  0  0  0  0  0  0  0
    0.4358    1.8143   -0.5485 H   0  0  0  0  0  0  0  0  0  0  0  0
   -1.0879   -1.5069    0.0768 H   0  0  0  0  0  0  0  0  0  0  0  0
   -0.8007   -0.7423    1.6475 H   0  0  0  0  0  0  0  0  0  0  0  0
   -1.4197    1.5546    0.2488 H   0  0  0  0  0  0  0  0  0  0  0  0
   -3.5150   -0.7229    0.9712 H   0  0  0  0  0  0  0  0  0  0  0  0
   -3.9246    1.0730    0.7344 H   0  0  0  0  0  0  0  0  0  0  0  0
   -2.7101   -0.7893   -1.3825 H   0  0  0  0  0  0  0  0  0  0  0  0
   -3.0178    1.0147   -1.5944 H   0  0  0  0  0  0  0  0  0  0  0  0
    1.5179   -2.1282    0.3682 H   0  0  0  0  0  0  0  0  0  0  0  0
    2.2518   -0.8239    1.4216 H   0  0  0  0  0  0  0  0  0  0  0  0
    3.7557   -0.9205   -0.4551 H   0  0  0  0  0  0  0  0  0  0  0  0
    2.3243   -0.8820   -1.6224 H   0  0  0  0  0  0  0  0  0  0  0  0
    3.0837    1.2324    0.4567 H   0  0  0  0  0  0  0  0  0  0  0  0
    2.9005    1.3831   -1.3715 H   0  0  0  0  0  0  0  0  0  0  0  0
  1  2  2  0
  2  3  1  0
  3  4  1  0
  4  5  1  0
  5  6  1  0
  2  7  1  0
  7  8  1  0
  8  9  1  0
  9  1  1  0
  6  4  1  0
  1 10  1  0
  3 11  1  0
  3 12  1  0
  4 13  1  0
  5 14  1  0
  5 15  1  0
  6 16  1  0
  6 17  1  0
  7 18  1  0
  7 19  1  0
  8 20  1  0
  8 21  1  0
  9 22  1  0
  9 23  1  0
M  END
