
     RDKit          3D

 19 20  0  0  0  0  0  0  0  0999 V2000
    1.9292    0.2092    0.5788 C   0  0  0  0  0  0  0  0  0  0  0  0
    1.1322    1.2493    0.4091 C   0  0  0  0  0  0  0  0  0  0  0  0
   -0.1716    1.0184   -0.2724 C   0  0  0  0  0  0  0  0  0  0  0  0
   -1.2833    0.7394    0.7109 C   0  0  0  0  0  0  0  0  0  0  0  0
   -1.9290   -0.5100    0.2417 C   0  0  0  0  0  0  0  0  0  0  0  0
   -1.3121   -1.0212   -0.8056 C   0  0  0  0  0  0  0  0  0  0  0  0
   -0.1591   -0.1663   -1.1751 C   0  0  0  0  0  0  0  0  0  0  0  0
    0.9834   -0.9183   -1.1751 O   0  0  0  0  0  0  0  0  0  0  0  0
    1.5326   -1.1382    0.1042 C   0  0  0  0  0  0  0  0  0  0  0  0
    2.8739    0.3543    1.0683 H   0  0  0  0  0  0  0  0  0  0  0  0
    1.3575    2.2617    0.7300 H   0  0  0  0  0  0  0  0  0  0  0  0
   -0.4992    1.9550   -0.8197 H   0  0  0  0  0  0  0  0  0  0  0  0
   -2.0598    1.5185    0.7424 H   0  0  0  0  0  0  0  0  0  0  0  0
   -0.8977    0.5450    1.7331 H   0  0  0  0  0  0  0  0  0  0  0  0
   -2.8173   -0.9518    0.7163 H   0  0  0  0  0  0  0  0  0  0  0  0
   -1.5818   -1.9172   -1.3297 H   0  0  0  0  0  0  0  0  0  0  0  0
   -0.2854    0.2115   -2.2251 H   0  0  0  0  0  0  0  0  0  0  0  0
    2.3829   -1.8238   -0.0206 H   0  0  0  0  0  0  0  0  0  0  0  0
    0.8045   -1.6155    0.7881 H   0  0  0  0  0  0  0  0  0  0  0  0
  1  2  2  0
  2  3  1  0
  3  4  1  0
  4  5  1  0
  5  6  2  0
  6  7  1  0
  7  8  1  0
  8  9  1  0
  9  1  1  0
  7  3  1  0
  1 10  1  0
  2 11  1  0
  3 12  1  0
  4 13  1  0
  4 14  1  0
  5 15  1  0
  6 16  1  0
  7 17  1  0
  9 18  1  0
  9 19  1  0
M  END
