
     RDKit          3D

 21 22  0  0  0  0  0  0  0  0999 V2000
    1.5414   -1.0419   -0.0344 C   0  0  0  0  0  0  0  0  0  0  0  0
    0.3524   -1.6337   -0.0080 C   0  0  0  0  0  0  0  0  0  0  0  0
   -1.0470   -1.1670   -0.1052 C   0  0  0  0  0  0  0  0  0  0  0  0
   -1.1882   -0.0326   -1.1249 C   0  0  0  0  0  0  0  0  0  0  0  0
   -1.1521    0.9795   -0.0046 C   0  0  0  0  0  0  0  0  0  0  0  0
    0.1822    1.6192    0.0529 C   0  0  0  0  0  0  0  0  0  0  0  0
    1.0636    1.0553    0.9524 O   0  0  0  0  0  0  0  0  0  0  0  0
    2.0512    0.2999    0.3480 C   0  0  0  0  0  0  0  0  0  0  0  0
   -1.3515   -0.1487    0.9668 C   0  0  0  0  0  0  0  0  0  0  0  0
    2.3556   -1.6517   -0.4197 H   0  0  0  0  0  0  0  0  0  0  0  0
    0.4455   -2.6963    0.1121 H   0  0  0  0  0  0  0  0  0  0  0  0
   -1.8028   -1.9202   -0.3042 H   0  0  0  0  0  0  0  0  0  0  0  0
   -2.1465   -0.0487   -1.6747 H   0  0  0  0  0  0  0  0  0  0  0  0
   -0.2863   -0.0246   -1.7627 H   0  0  0  0  0  0  0  0  0  0  0  0
   -2.0068    1.6596   -0.0581 H   0  0  0  0  0  0  0  0  0  0  0  0
    0.6498    1.5343   -0.9667 H   0  0  0  0  0  0  0  0  0  0  0  0
    0.0753    2.7010    0.2868 H   0  0  0  0  0  0  0  0  0  0  0  0
    2.5016    0.7590   -0.5353 H   0  0  0  0  0  0  0  0  0  0  0  0
    2.8480    0.1470    1.1337 H   0  0  0  0  0  0  0  0  0  0  0  0
   -0.6788   -0.1734    1.8287 H   0  0  0  0  0  0  0  0  0  0  0  0
   -2.4068   -0.2159    1.3172 H   0  0  0  0  0  0  0  0  0  0  0  0
  1  2  2  3
  2  3  1  0
  3  4  1  0
  4  5  1  0
  5  6  1  0
  6  7  1  0
  7  8  1  0
  5  9  1  0
  8  1  1  0
  9  3  1  0
  1 10  1  0
  2 11  1  0
  3 12  1  0
  4 13  1  0
  4 14  1  0
  5 15  1  0
  6 16  1  0
  6 17  1  0
  8 18  1  0
  8 19  1  0
  9 20  1  0
  9 21  1  0
M  END
