
     RDKit          3D

 15 16  0  0  0  0  0  0  0  0999 V2000
    1.0406    1.0190    0.3923 C   0  0  0  0  0  0  0  0  0  0  0  0
    1.5378   -0.2341    0.2798 C   0  0  0  0  0  0  0  0  0  0  0  0
    0.5043   -0.9354   -0.5596 C   0  0  0  0  0  0  0  0  0  0  0  0
   -0.7252   -1.0200    0.2884 C   0  0  0  0  0  0  0  0  0  0  0  0
   -1.3197    0.3822    0.0958 C   0  0  0  0  0  0  0  0  0  0  0  0
   -0.1177    1.0820   -0.5202 C   0  0  0  0  0  0  0  0  0  0  0  0
    0.2416    0.1056   -1.4831 O   0  0  0  0  0  0  0  0  0  0  0  0
    1.4684    1.7708    1.0478 H   0  0  0  0  0  0  0  0  0  0  0  0
    2.4551   -0.6281    0.6948 H   0  0  0  0  0  0  0  0  0  0  0  0
    0.8424   -1.8422   -1.0117 H   0  0  0  0  0  0  0  0  0  0  0  0
   -1.4184   -1.8089   -0.0006 H   0  0  0  0  0  0  0  0  0  0  0  0
   -0.4482   -1.0713    1.3816 H   0  0  0  0  0  0  0  0  0  0  0  0
   -1.6477    0.8279    1.0326 H   0  0  0  0  0  0  0  0  0  0  0  0
   -2.0807    0.3085   -0.6918 H   0  0  0  0  0  0  0  0  0  0  0  0
   -0.3326    2.0440   -0.9461 H   0  0  0  0  0  0  0  0  0  0  0  0
  1  2  2  0
  2  3  1  0
  3  4  1  0
  4  5  1  0
  5  6  1  0
  6  7  1  0
  6  1  1  0
  7  3  1  0
  1  8  1  0
  2  9  1  0
  3 10  1  0
  4 11  1  0
  4 12  1  0
  5 13  1  0
  5 14  1  0
  6 15  1  0
M  END
