
     RDKit          3D

 19 21  0  0  0  0  0  0  0  0999 V2000
    0.3635    1.3703   -0.4309 C   0  0  0  0  0  0  0  0  0  0  0  0
   -0.7058    0.7510    0.0353 C   0  0  0  0  0  0  0  0  0  0  0  0
   -2.1140    0.6514    0.5020 C   0  0  0  0  0  0  0  0  0  0  0  0
   -2.0667   -0.8191    0.1248 C   0  0  0  0  0  0  0  0  0  0  0  0
   -0.5884   -0.7179    0.3018 C   0  0  0  0  0  0  0  0  0  0  0  0
    0.1821   -1.2461   -0.6957 O   0  0  0  0  0  0  0  0  0  0  0  0
    1.4793   -0.8171   -0.7218 C   0  0  0  0  0  0  0  0  0  0  0  0
    2.1753   -0.2204    0.4245 C   0  0  0  0  0  0  0  0  0  0  0  0
    1.6363    0.6548   -0.6875 C   0  0  0  0  0  0  0  0  0  0  0  0
    0.3126    2.4237   -0.6310 H   0  0  0  0  0  0  0  0  0  0  0  0
   -2.2516    0.8062    1.5768 H   0  0  0  0  0  0  0  0  0  0  0  0
   -2.8292    1.2324   -0.1463 H   0  0  0  0  0  0  0  0  0  0  0  0
   -2.3564   -1.0459   -0.9123 H   0  0  0  0  0  0  0  0  0  0  0  0
   -2.5777   -1.4961    0.8304 H   0  0  0  0  0  0  0  0  0  0  0  0
   -0.1888   -0.9695    1.3030 H   0  0  0  0  0  0  0  0  0  0  0  0
    2.1148   -1.3367   -1.4768 H   0  0  0  0  0  0  0  0  0  0  0  0
    3.2911   -0.3476    0.4776 H   0  0  0  0  0  0  0  0  0  0  0  0
    1.7190   -0.0523    1.4024 H   0  0  0  0  0  0  0  0  0  0  0  0
    2.4047    1.1789   -1.2765 H   0  0  0  0  0  0  0  0  0  0  0  0
  1  2  2  0
  2  3  1  0
  3  4  1  0
  4  5  1  0
  5  6  1  0
  6  7  1  0
  7  8  1  0
  8  9  1  0
  9  1  1  0
  5  2  1  0
  9  7  1  0
  1 10  1  0
  3 11  1  0
  3 12  1  0
  4 13  1  0
  4 14  1  0
  5 15  1  0
  7 16  1  0
  8 17  1  0
  8 18  1  0
  9 19  1  0
M  END
