
     RDKit          3D

 17 17  0  0  0  0  0  0  0  0999 V2000
   -0.4510    1.4413   -0.0922 C   0  0  0  0  0  0  0  0  0  0  0  0
    0.8224    1.2607    0.2323 C   0  0  0  0  0  0  0  0  0  0  0  0
    1.7217    0.1305    0.3589 C   0  0  0  0  0  0  0  0  0  0  0  0
    1.2216   -1.1061    0.4558 O   0  0  0  0  0  0  0  0  0  0  0  0
    0.1575   -1.4543   -0.3036 C   0  0  0  0  0  0  0  0  0  0  0  0
   -1.0941   -0.8436    0.3411 C   0  0  0  0  0  0  0  0  0  0  0  0
   -1.4106    0.3756   -0.4598 C   0  0  0  0  0  0  0  0  0  0  0  0
   -0.8513    2.4558   -0.0963 H   0  0  0  0  0  0  0  0  0  0  0  0
    1.2999    2.2212    0.4590 H   0  0  0  0  0  0  0  0  0  0  0  0
    2.3665    0.3145    1.2698 H   0  0  0  0  0  0  0  0  0  0  0  0
    2.4641    0.1670   -0.4892 H   0  0  0  0  0  0  0  0  0  0  0  0
    0.2342   -1.1447   -1.3779 H   0  0  0  0  0  0  0  0  0  0  0  0
    0.0520   -2.5592   -0.3001 H   0  0  0  0  0  0  0  0  0  0  0  0
   -1.8986   -1.5815    0.3817 H   0  0  0  0  0  0  0  0  0  0  0  0
   -0.8724   -0.5210    1.3867 H   0  0  0  0  0  0  0  0  0  0  0  0
   -2.4639    0.6998   -0.2314 H   0  0  0  0  0  0  0  0  0  0  0  0
   -1.2979    0.1439   -1.5347 H   0  0  0  0  0  0  0  0  0  0  0  0
  1  2  2  0
  2  3  1  0
  3  4  1  0
  4  5  1  0
  5  6  1  0
  6  7  1  0
  7  1  1  0
  1  8  1  0
  2  9  1  0
  3 10  1  0
  3 11  1  0
  5 12  1  0
  5 13  1  0
  6 14  1  0
  6 15  1  0
  7 16  1  0
  7 17  1  0
M  END
