
     RDKit          3D

 16 18  0  0  0  0  0  0  0  0999 V2000
   -1.1214   -0.8643    0.7629 C   0  0  0  0  0  0  0  0  0  0  0  0
   -1.2471   -0.9147   -0.5629 C   0  0  0  0  0  0  0  0  0  0  0  0
   -0.3695    0.2186   -1.0099 C   0  0  0  0  0  0  0  0  0  0  0  0
   -0.8230    1.2962   -0.0073 C   0  0  0  0  0  0  0  0  0  0  0  0
   -0.2237    0.2816    0.9825 C   0  0  0  0  0  0  0  0  0  0  0  0
    0.7950    0.0820   -0.1169 C   0  0  0  0  0  0  0  0  0  0  0  0
    1.9210   -0.6220   -0.0588 C   0  0  0  0  0  0  0  0  0  0  0  0
    1.9007    0.8758   -0.2184 O   0  0  0  0  0  0  0  0  0  0  0  0
   -1.5719   -1.5115    1.5007 H   0  0  0  0  0  0  0  0  0  0  0  0
   -1.8117   -1.5687   -1.2070 H   0  0  0  0  0  0  0  0  0  0  0  0
   -0.3147    0.4719   -2.0243 H   0  0  0  0  0  0  0  0  0  0  0  0
   -1.8998    1.4208    0.0670 H   0  0  0  0  0  0  0  0  0  0  0  0
   -0.1942    2.1909   -0.0079 H   0  0  0  0  0  0  0  0  0  0  0  0
    0.0598    0.6090    1.9311 H   0  0  0  0  0  0  0  0  0  0  0  0
    2.4370   -0.8930    0.8999 H   0  0  0  0  0  0  0  0  0  0  0  0
    2.4635   -1.0727   -0.9307 H   0  0  0  0  0  0  0  0  0  0  0  0
  1  2  2  0
  2  3  1  0
  3  4  1  0
  4  5  1  0
  5  6  1  0
  6  7  1  0
  7  8  1  0
  5  1  1  0
  8  6  1  0
  6  3  1  0
  1  9  1  0
  2 10  1  0
  3 11  1  0
  4 12  1  0
  4 13  1  0
  5 14  1  0
  7 15  1  0
  7 16  1  0
M  END
