
     RDKit          3D

 21 22  0  0  0  0  0  0  0  0999 V2000
    1.3677    1.0867   -0.2066 C   0  0  0  0  0  0  0  0  0  0  0  0
    0.2098    1.7203   -0.3769 C   0  0  0  0  0  0  0  0  0  0  0  0
   -1.1230    1.0904   -0.3716 C   0  0  0  0  0  0  0  0  0  0  0  0
   -1.4220    0.7121    1.0566 C   0  0  0  0  0  0  0  0  0  0  0  0
   -1.2476   -0.5823    1.2270 C   0  0  0  0  0  0  0  0  0  0  0  0
   -0.5737   -1.1395    0.0243 C   0  0  0  0  0  0  0  0  0  0  0  0
    0.8606   -1.3321    0.2683 C   0  0  0  0  0  0  0  0  0  0  0  0
    1.8082   -0.2832   -0.0820 C   0  0  0  0  0  0  0  0  0  0  0  0
   -0.9701   -0.2353   -1.0842 C   0  0  0  0  0  0  0  0  0  0  0  0
    2.1896    1.8170   -0.1500 H   0  0  0  0  0  0  0  0  0  0  0  0
    0.2355    2.8067   -0.5360 H   0  0  0  0  0  0  0  0  0  0  0  0
   -1.9194    1.7161   -0.8001 H   0  0  0  0  0  0  0  0  0  0  0  0
   -1.7307    1.4082    1.8112 H   0  0  0  0  0  0  0  0  0  0  0  0
   -1.5312   -1.1943    2.0882 H   0  0  0  0  0  0  0  0  0  0  0  0
   -1.0729   -2.1338   -0.1801 H   0  0  0  0  0  0  0  0  0  0  0  0
    1.1727   -2.2930   -0.2465 H   0  0  0  0  0  0  0  0  0  0  0  0
    0.9660   -1.6090    1.3639 H   0  0  0  0  0  0  0  0  0  0  0  0
    2.3520   -0.5506   -1.0392 H   0  0  0  0  0  0  0  0  0  0  0  0
    2.6503   -0.2912    0.6780 H   0  0  0  0  0  0  0  0  0  0  0  0
   -0.2607   -0.1804   -1.9175 H   0  0  0  0  0  0  0  0  0  0  0  0
   -1.9613   -0.5328   -1.5269 H   0  0  0  0  0  0  0  0  0  0  0  0
  1  2  2  0
  2  3  1  0
  3  4  1  0
  4  5  2  0
  5  6  1  0
  6  7  1  0
  7  8  1  0
  6  9  1  0
  8  1  1  0
  9  3  1  0
  1 10  1  0
  2 11  1  0
  3 12  1  0
  4 13  1  0
  5 14  1  0
  6 15  1  0
  7 16  1  0
  7 17  1  0
  8 18  1  0
  8 19  1  0
  9 20  1  0
  9 21  1  0
M  END
