
     RDKit          3D

 18 19  0  0  0  0  0  0  0  0999 V2000
   -1.6605    0.7596   -0.5950 C   0  0  0  0  0  0  0  0  0  0  0  0
   -0.3986    1.1481   -0.6207 C   0  0  0  0  0  0  0  0  0  0  0  0
    0.4820    0.1588    0.0385 C   0  0  0  0  0  0  0  0  0  0  0  0
   -0.4940   -0.4773    1.0002 C   0  0  0  0  0  0  0  0  0  0  0  0
   -1.7044   -0.5437    0.0971 C   0  0  0  0  0  0  0  0  0  0  0  0
    1.7835    0.6195    0.5712 C   0  0  0  0  0  0  0  0  0  0  0  0
    2.4001   -0.3515   -0.2545 O   0  0  0  0  0  0  0  0  0  0  0  0
    1.1862   -0.8349   -0.7990 C   0  0  0  0  0  0  0  0  0  0  0  0
   -2.5266    1.3025   -1.0111 H   0  0  0  0  0  0  0  0  0  0  0  0
   -0.0940    2.1005   -1.0882 H   0  0  0  0  0  0  0  0  0  0  0  0
   -0.7449    0.1967    1.8332 H   0  0  0  0  0  0  0  0  0  0  0  0
   -0.1855   -1.4905    1.3133 H   0  0  0  0  0  0  0  0  0  0  0  0
   -1.5324   -1.3209   -0.6805 H   0  0  0  0  0  0  0  0  0  0  0  0
   -2.6405   -0.7092    0.6582 H   0  0  0  0  0  0  0  0  0  0  0  0
    1.8966    0.4102    1.6505 H   0  0  0  0  0  0  0  0  0  0  0  0
    2.0617    1.6566    0.2540 H   0  0  0  0  0  0  0  0  0  0  0  0
    1.0452   -1.8868   -0.4729 H   0  0  0  0  0  0  0  0  0  0  0  0
    1.1262   -0.7378   -1.8944 H   0  0  0  0  0  0  0  0  0  0  0  0
  1  2  2  0
  2  3  1  0
  3  4  1  0
  4  5  1  0
  3  6  1  0
  6  7  1  0
  7  8  1  0
  5  1  1  0
  8  3  1  0
  1  9  1  0
  2 10  1  0
  4 11  1  0
  4 12  1  0
  5 13  1  0
  5 14  1  0
  6 15  1  0
  6 16  1  0
  8 17  1  0
  8 18  1  0
M  END
