
     RDKit          3D

 19 20  0  0  0  0  0  0  0  0999 V2000
   -1.9406   -0.9811   -0.3585 C   0  0  0  0  0  0  0  0  0  0  0  0
   -2.2377    0.2040    0.1679 C   0  0  0  0  0  0  0  0  0  0  0  0
   -1.0795    0.7055    0.9849 C   0  0  0  0  0  0  0  0  0  0  0  0
    0.0598   -0.0150    0.2878 C   0  0  0  0  0  0  0  0  0  0  0  0
   -0.5604   -1.3735    0.0605 C   0  0  0  0  0  0  0  0  0  0  0  0
    0.2587    0.5874   -0.9322 O   0  0  0  0  0  0  0  0  0  0  0  0
    1.6266    0.3857   -1.1827 C   0  0  0  0  0  0  0  0  0  0  0  0
    2.1937    0.6356    0.2180 C   0  0  0  0  0  0  0  0  0  0  0  0
    1.2159   -0.0283    0.9931 O   0  0  0  0  0  0  0  0  0  0  0  0
   -2.5988   -1.5462   -0.9796 H   0  0  0  0  0  0  0  0  0  0  0  0
   -3.1551    0.7691    0.0599 H   0  0  0  0  0  0  0  0  0  0  0  0
   -1.2479    0.3004    2.0133 H   0  0  0  0  0  0  0  0  0  0  0  0
   -0.9777    1.7918    0.9515 H   0  0  0  0  0  0  0  0  0  0  0  0
   -0.6110   -1.8843    1.0482 H   0  0  0  0  0  0  0  0  0  0  0  0
   -0.0374   -1.9686   -0.6976 H   0  0  0  0  0  0  0  0  0  0  0  0
    1.9695    1.1524   -1.8987 H   0  0  0  0  0  0  0  0  0  0  0  0
    1.7941   -0.6468   -1.4981 H   0  0  0  0  0  0  0  0  0  0  0  0
    2.1386    1.7173    0.4231 H   0  0  0  0  0  0  0  0  0  0  0  0
    3.1894    0.1946    0.3391 H   0  0  0  0  0  0  0  0  0  0  0  0
  1  2  2  0
  2  3  1  0
  3  4  1  0
  4  5  1  0
  4  6  1  0
  6  7  1  0
  7  8  1  0
  8  9  1  0
  5  1  1  0
  9  4  1  0
  1 10  1  0
  2 11  1  0
  3 12  1  0
  3 13  1  0
  5 14  1  0
  5 15  1  0
  7 16  1  0
  7 17  1  0
  8 18  1  0
  8 19  1  0
M  END
