
     RDKit          3D

 17 19  0  0  0  0  0  0  0  0999 V2000
    0.9170    1.3146    0.2648 C   0  0  0  0  0  0  0  0  0  0  0  0
   -0.3675    1.4798   -0.0242 C   0  0  0  0  0  0  0  0  0  0  0  0
   -1.0625    0.2107    0.2013 C   0  0  0  0  0  0  0  0  0  0  0  0
   -2.3097   -0.1494   -0.4512 C   0  0  0  0  0  0  0  0  0  0  0  0
   -2.2518    0.2267    0.9025 O   0  0  0  0  0  0  0  0  0  0  0  0
   -0.0372   -0.8427    0.4156 C   0  0  0  0  0  0  0  0  0  0  0  0
    0.4995   -1.2434   -0.8288 O   0  0  0  0  0  0  0  0  0  0  0  0
    1.7818   -0.8901   -0.4222 C   0  0  0  0  0  0  0  0  0  0  0  0
    1.2140   -0.0545    0.7057 C   0  0  0  0  0  0  0  0  0  0  0  0
    1.6532    2.1304    0.1744 H   0  0  0  0  0  0  0  0  0  0  0  0
   -0.8729    2.3852   -0.3741 H   0  0  0  0  0  0  0  0  0  0  0  0
   -2.7425    0.5584   -1.1770 H   0  0  0  0  0  0  0  0  0  0  0  0
   -2.5528   -1.2364   -0.5629 H   0  0  0  0  0  0  0  0  0  0  0  0
   -0.2738   -1.6635    1.1005 H   0  0  0  0  0  0  0  0  0  0  0  0
    2.3748   -1.7589   -0.1211 H   0  0  0  0  0  0  0  0  0  0  0  0
    2.3569   -0.2739   -1.1539 H   0  0  0  0  0  0  0  0  0  0  0  0
    1.6733   -0.1932    1.6842 H   0  0  0  0  0  0  0  0  0  0  0  0
  1  2  2  0
  2  3  1  0
  3  4  1  0
  4  5  1  0
  3  6  1  0
  6  7  1  0
  7  8  1  0
  8  9  1  0
  9  1  1  0
  5  3  1  0
  9  6  1  0
  1 10  1  0
  2 11  1  0
  4 12  1  0
  4 13  1  0
  6 14  1  0
  8 15  1  0
  8 16  1  0
  9 17  1  0
M  END
