
     RDKit          3D

 19 21  0  0  0  0  0  0  0  0999 V2000
    1.9922   -0.0052   -0.1052 C   0  0  0  0  0  0  0  0  0  0  0  0
    1.4485   -1.1954   -0.4032 C   0  0  0  0  0  0  0  0  0  0  0  0
    0.0054   -1.3325   -0.0870 C   0  0  0  0  0  0  0  0  0  0  0  0
   -0.2181   -0.9167    1.2532 O   0  0  0  0  0  0  0  0  0  0  0  0
   -0.9222    0.2457    1.1029 C   0  0  0  0  0  0  0  0  0  0  0  0
   -1.9877   -0.1614    0.0693 C   0  0  0  0  0  0  0  0  0  0  0  0
   -0.7302   -0.2494   -0.8161 C   0  0  0  0  0  0  0  0  0  0  0  0
   -0.2953    0.9880   -0.0870 C   0  0  0  0  0  0  0  0  0  0  0  0
    1.1602    1.1998    0.0010 C   0  0  0  0  0  0  0  0  0  0  0  0
    3.0580    0.0989    0.0649 H   0  0  0  0  0  0  0  0  0  0  0  0
    2.0612   -1.9601   -0.8390 H   0  0  0  0  0  0  0  0  0  0  0  0
   -0.3933   -2.3333   -0.2137 H   0  0  0  0  0  0  0  0  0  0  0  0
   -1.2428    0.8243    1.9281 H   0  0  0  0  0  0  0  0  0  0  0  0
   -2.6427    0.6679   -0.2043 H   0  0  0  0  0  0  0  0  0  0  0  0
   -2.4486   -1.1262    0.2886 H   0  0  0  0  0  0  0  0  0  0  0  0
   -0.8567   -0.2621   -1.8582 H   0  0  0  0  0  0  0  0  0  0  0  0
   -0.8443    1.9019   -0.3103 H   0  0  0  0  0  0  0  0  0  0  0  0
    1.3795    1.7047    0.9863 H   0  0  0  0  0  0  0  0  0  0  0  0
    1.4768    1.9110   -0.7702 H   0  0  0  0  0  0  0  0  0  0  0  0
  1  2  2  0
  2  3  1  0
  3  4  1  0
  4  5  1  0
  5  6  1  0
  6  7  1  0
  7  8  1  0
  8  9  1  0
  9  1  1  0
  7  3  1  0
  8  5  1  0
  1 10  1  0
  2 11  1  0
  3 12  1  0
  5 13  1  0
  6 14  1  0
  6 15  1  0
  7 16  1  0
  8 17  1  0
  9 18  1  0
  9 19  1  0
M  END
