
     RDKit          3D

 19 20  0  0  0  0  0  0  0  0999 V2000
    1.5812    0.8161    0.4612 C   0  0  0  0  0  0  0  0  0  0  0  0
    0.5923    1.5858    0.0878 C   0  0  0  0  0  0  0  0  0  0  0  0
   -0.6594    1.2334   -0.5754 C   0  0  0  0  0  0  0  0  0  0  0  0
   -1.1973   -0.1190   -0.2674 C   0  0  0  0  0  0  0  0  0  0  0  0
   -0.3081   -1.1458   -0.8437 C   0  0  0  0  0  0  0  0  0  0  0  0
    0.9553   -1.3460   -0.5622 C   0  0  0  0  0  0  0  0  0  0  0  0
    1.8287   -0.6363    0.3737 C   0  0  0  0  0  0  0  0  0  0  0  0
   -2.0452   -0.4530    0.8255 C   0  0  0  0  0  0  0  0  0  0  0  0
   -2.5799   -0.2465   -0.4730 O   0  0  0  0  0  0  0  0  0  0  0  0
    2.3962    1.3758    0.9403 H   0  0  0  0  0  0  0  0  0  0  0  0
    0.7077    2.6494    0.2969 H   0  0  0  0  0  0  0  0  0  0  0  0
   -1.4494    1.9784   -0.2622 H   0  0  0  0  0  0  0  0  0  0  0  0
   -0.5307    1.4198   -1.6700 H   0  0  0  0  0  0  0  0  0  0  0  0
   -0.7358   -1.8012   -1.5711 H   0  0  0  0  0  0  0  0  0  0  0  0
    1.4659   -2.1678   -1.0959 H   0  0  0  0  0  0  0  0  0  0  0  0
    2.8994   -0.8465    0.1714 H   0  0  0  0  0  0  0  0  0  0  0  0
    1.6146   -1.0531    1.4019 H   0  0  0  0  0  0  0  0  0  0  0  0
   -2.1027   -1.5107    1.1673 H   0  0  0  0  0  0  0  0  0  0  0  0
   -2.4328    0.2672    1.5947 H   0  0  0  0  0  0  0  0  0  0  0  0
  1  2  2  0
  2  3  1  0
  3  4  1  0
  4  5  1  0
  5  6  2  0
  6  7  1  0
  4  8  1  0
  8  9  1  0
  7  1  1  0
  9  4  1  0
  1 10  1  0
  2 11  1  0
  3 12  1  0
  3 13  1  0
  5 14  1  0
  6 15  1  0
  7 16  1  0
  7 17  1  0
  8 18  1  0
  8 19  1  0
M  END
