
     RDKit          3D

 17 19  0  0  0  0  0  0  0  0999 V2000
   -0.6042   -1.1184   -0.3910 C   0  0  0  0  0  0  0  0  0  0  0  0
    0.1796   -0.2139    0.1837 C   0  0  0  0  0  0  0  0  0  0  0  0
    1.6145   -0.4543    0.4791 C   0  0  0  0  0  0  0  0  0  0  0  0
    2.6825    0.3517   -0.0736 C   0  0  0  0  0  0  0  0  0  0  0  0
    2.3080   -0.7612   -0.8042 O   0  0  0  0  0  0  0  0  0  0  0  0
   -0.5830    1.0138    0.4659 C   0  0  0  0  0  0  0  0  0  0  0  0
   -1.5548    0.8755    1.4526 O   0  0  0  0  0  0  0  0  0  0  0  0
   -2.0168    0.7402    0.1613 C   0  0  0  0  0  0  0  0  0  0  0  0
   -1.9799   -0.5737   -0.5489 C   0  0  0  0  0  0  0  0  0  0  0  0
   -0.3404   -2.1169   -0.7175 H   0  0  0  0  0  0  0  0  0  0  0  0
    1.8760   -1.2706    1.1776 H   0  0  0  0  0  0  0  0  0  0  0  0
    2.4983    1.3534   -0.5211 H   0  0  0  0  0  0  0  0  0  0  0  0
    3.6577    0.3389    0.4881 H   0  0  0  0  0  0  0  0  0  0  0  0
   -0.2196    2.0013    0.1682 H   0  0  0  0  0  0  0  0  0  0  0  0
   -2.6918    1.5320   -0.2110 H   0  0  0  0  0  0  0  0  0  0  0  0
   -2.6944   -1.3008   -0.1493 H   0  0  0  0  0  0  0  0  0  0  0  0
   -2.1317   -0.3970   -1.6377 H   0  0  0  0  0  0  0  0  0  0  0  0
  1  2  2  0
  2  3  1  0
  3  4  1  0
  4  5  1  0
  2  6  1  0
  6  7  1  0
  7  8  1  0
  8  9  1  0
  9  1  1  0
  5  3  1  0
  8  6  1  0
  1 10  1  0
  3 11  1  0
  4 12  1  0
  4 13  1  0
  6 14  1  0
  8 15  1  0
  9 16  1  0
  9 17  1  0
M  END
