
     RDKit          3D

 21 22  0  0  0  0  0  0  0  0999 V2000
   -0.6314   -1.4602    0.2857 C   0  0  0  0  0  0  0  0  0  0  0  0
    0.4386   -0.6980    0.1519 C   0  0  0  0  0  0  0  0  0  0  0  0
    1.8809   -1.0261    0.1407 C   0  0  0  0  0  0  0  0  0  0  0  0
    2.5474    0.2992   -0.0320 C   0  0  0  0  0  0  0  0  0  0  0  0
    1.4711    1.3042   -0.1256 C   0  0  0  0  0  0  0  0  0  0  0  0
    0.2817    0.7409   -0.0217 C   0  0  0  0  0  0  0  0  0  0  0  0
   -1.0516    1.3512   -0.0590 C   0  0  0  0  0  0  0  0  0  0  0  0
   -2.1165    0.3876   -0.4518 C   0  0  0  0  0  0  0  0  0  0  0  0
   -2.0209   -0.9356    0.2705 C   0  0  0  0  0  0  0  0  0  0  0  0
   -0.5297   -2.5378    0.4163 H   0  0  0  0  0  0  0  0  0  0  0  0
    2.2112   -1.5272    1.0781 H   0  0  0  0  0  0  0  0  0  0  0  0
    2.1348   -1.7330   -0.6821 H   0  0  0  0  0  0  0  0  0  0  0  0
    3.1725    0.3720   -0.9508 H   0  0  0  0  0  0  0  0  0  0  0  0
    3.2239    0.5268    0.8187 H   0  0  0  0  0  0  0  0  0  0  0  0
    1.6618    2.3606   -0.2619 H   0  0  0  0  0  0  0  0  0  0  0  0
   -1.0532    2.1782   -0.8209 H   0  0  0  0  0  0  0  0  0  0  0  0
   -1.3457    1.8239    0.8953 H   0  0  0  0  0  0  0  0  0  0  0  0
   -2.1604    0.2167   -1.5662 H   0  0  0  0  0  0  0  0  0  0  0  0
   -3.0991    0.8377   -0.1879 H   0  0  0  0  0  0  0  0  0  0  0  0
   -2.3399   -0.8038    1.3291 H   0  0  0  0  0  0  0  0  0  0  0  0
   -2.6755   -1.6771   -0.2263 H   0  0  0  0  0  0  0  0  0  0  0  0
  1  2  2  0
  2  3  1  0
  3  4  1  0
  4  5  1  0
  5  6  2  0
  6  7  1  0
  7  8  1  0
  8  9  1  0
  9  1  1  0
  6  2  1  0
  1 10  1  0
  3 11  1  0
  3 12  1  0
  4 13  1  0
  4 14  1  0
  5 15  1  0
  7 16  1  0
  7 17  1  0
  8 18  1  0
  8 19  1  0
  9 20  1  0
  9 21  1  0
M  END
