
     RDKit          3D

 19 21  0  0  0  0  0  0  0  0999 V2000
   -2.4547   -0.1584    0.5064 C   0  0  0  0  0  0  0  0  0  0  0  0
   -2.4318    0.1236   -0.7811 C   0  0  0  0  0  0  0  0  0  0  0  0
   -1.0152    0.1066   -1.2381 C   0  0  0  0  0  0  0  0  0  0  0  0
   -0.3339    1.2862   -0.6549 O   0  0  0  0  0  0  0  0  0  0  0  0
   -0.2228   -0.0845   -0.1670 C   0  0  0  0  0  0  0  0  0  0  0  0
    1.2080   -0.5444   -0.0473 C   0  0  0  0  0  0  0  0  0  0  0  0
    2.3173    0.1935   -0.6717 C   0  0  0  0  0  0  0  0  0  0  0  0
    2.0885    0.3480    0.8190 C   0  0  0  0  0  0  0  0  0  0  0  0
   -1.0925   -0.3875    1.0315 C   0  0  0  0  0  0  0  0  0  0  0  0
   -3.3439   -0.2255    1.1462 H   0  0  0  0  0  0  0  0  0  0  0  0
   -3.3122    0.3290   -1.3809 H   0  0  0  0  0  0  0  0  0  0  0  0
   -0.8002   -0.0247   -2.3164 H   0  0  0  0  0  0  0  0  0  0  0  0
    1.3125   -1.6439    0.0690 H   0  0  0  0  0  0  0  0  0  0  0  0
    3.2329   -0.3752   -0.9397 H   0  0  0  0  0  0  0  0  0  0  0  0
    2.1491    1.1123   -1.2838 H   0  0  0  0  0  0  0  0  0  0  0  0
    2.8119   -0.1582    1.5086 H   0  0  0  0  0  0  0  0  0  0  0  0
    1.6503    1.2673    1.2184 H   0  0  0  0  0  0  0  0  0  0  0  0
   -0.9110   -1.4488    1.2937 H   0  0  0  0  0  0  0  0  0  0  0  0
   -0.8522    0.2846    1.8879 H   0  0  0  0  0  0  0  0  0  0  0  0
  1  2  2  0
  2  3  1  0
  3  4  1  0
  4  5  1  0
  5  6  1  0
  6  7  1  0
  7  8  1  0
  5  9  1  0
  9  1  1  0
  5  3  1  0
  8  6  1  0
  1 10  1  0
  2 11  1  0
  3 12  1  0
  6 13  1  0
  7 14  1  0
  7 15  1  0
  8 16  1  0
  8 17  1  0
  9 18  1  0
  9 19  1  0
M  END
