
     RDKit          3D

 20 21  0  0  0  0  0  0  0  0999 V2000
    1.1308    1.1757   -0.6821 C   0  0  0  0  0  0  0  0  0  0  0  0
   -0.1179    1.5520   -0.4983 C   0  0  0  0  0  0  0  0  0  0  0  0
   -1.3202    0.7211   -0.2267 C   0  0  0  0  0  0  0  0  0  0  0  0
   -1.2179    0.0995    1.1484 C   0  0  0  0  0  0  0  0  0  0  0  0
   -0.4585   -1.0527    0.4952 C   0  0  0  0  0  0  0  0  0  0  0  0
    1.0071   -0.9294    0.6287 C   0  0  0  0  0  0  0  0  0  0  0  0
    1.7109   -0.1820   -0.4584 C   0  0  0  0  0  0  0  0  0  0  0  0
   -1.0499   -0.6483   -0.8059 C   0  0  0  0  0  0  0  0  0  0  0  0
    1.7924    1.9690   -1.0391 H   0  0  0  0  0  0  0  0  0  0  0  0
   -0.3471    2.6115   -0.5431 H   0  0  0  0  0  0  0  0  0  0  0  0
   -2.2895    1.1660   -0.4281 H   0  0  0  0  0  0  0  0  0  0  0  0
   -2.2158   -0.1827    1.5280 H   0  0  0  0  0  0  0  0  0  0  0  0
   -0.6071    0.6453    1.8723 H   0  0  0  0  0  0  0  0  0  0  0  0
   -0.8391   -2.0047    0.9337 H   0  0  0  0  0  0  0  0  0  0  0  0
    1.4982   -1.9218    0.7202 H   0  0  0  0  0  0  0  0  0  0  0  0
    1.2188   -0.3731    1.5886 H   0  0  0  0  0  0  0  0  0  0  0  0
    1.7493   -0.7484   -1.4173 H   0  0  0  0  0  0  0  0  0  0  0  0
    2.7580   -0.0121   -0.0966 H   0  0  0  0  0  0  0  0  0  0  0  0
   -0.4004   -0.6861   -1.6820 H   0  0  0  0  0  0  0  0  0  0  0  0
   -2.0020   -1.1987   -1.0374 H   0  0  0  0  0  0  0  0  0  0  0  0
  1  2  2  0
  2  3  1  0
  3  4  1  0
  4  5  1  0
  5  6  1  0
  6  7  1  0
  5  8  1  0
  7  1  1  0
  8  3  1  0
  1  9  1  0
  2 10  1  0
  3 11  1  0
  4 12  1  0
  4 13  1  0
  5 14  1  0
  6 15  1  0
  6 16  1  0
  7 17  1  0
  7 18  1  0
  8 19  1  0
  8 20  1  0
M  END
