
     RDKit          3D

 17 19  0  0  0  0  0  0  0  0999 V2000
    1.8588    0.5589    0.0176 C   0  0  0  0  0  0  0  0  0  0  0  0
    0.8696    1.4108   -0.2241 C   0  0  0  0  0  0  0  0  0  0  0  0
   -0.4971    0.8841   -0.2899 C   0  0  0  0  0  0  0  0  0  0  0  0
   -1.6072    1.6311   -0.0375 O   0  0  0  0  0  0  0  0  0  0  0  0
   -1.3572    0.5371    0.7384 C   0  0  0  0  0  0  0  0  0  0  0  0
   -1.7043   -0.7832    0.0770 C   0  0  0  0  0  0  0  0  0  0  0  0
   -0.5865   -0.4860   -0.9014 C   0  0  0  0  0  0  0  0  0  0  0  0
    0.4909   -1.2796   -0.6954 O   0  0  0  0  0  0  0  0  0  0  0  0
    1.4333   -0.8718    0.1965 C   0  0  0  0  0  0  0  0  0  0  0  0
    2.9052    0.8344    0.0881 H   0  0  0  0  0  0  0  0  0  0  0  0
    1.1143    2.4494   -0.3609 H   0  0  0  0  0  0  0  0  0  0  0  0
   -1.2314    0.5950    1.8250 H   0  0  0  0  0  0  0  0  0  0  0  0
   -2.6910   -0.7542   -0.4630 H   0  0  0  0  0  0  0  0  0  0  0  0
   -1.5729   -1.6788    0.6938 H   0  0  0  0  0  0  0  0  0  0  0  0
   -0.8886   -0.4716   -1.9684 H   0  0  0  0  0  0  0  0  0  0  0  0
    2.3426   -1.5221    0.0461 H   0  0  0  0  0  0  0  0  0  0  0  0
    1.1216   -1.0534    1.2580 H   0  0  0  0  0  0  0  0  0  0  0  0
  1  2  2  0
  2  3  1  0
  3  4  1  0
  4  5  1  0
  5  6  1  0
  6  7  1  0
  7  8  1  0
  8  9  1  0
  9  1  1  0
  5  3  1  0
  7  3  1  0
  1 10  1  0
  2 11  1  0
  5 12  1  0
  6 13  1  0
  6 14  1  0
  7 15  1  0
  9 16  1  0
  9 17  1  0
M  END
