
     RDKit          3D

 19 20  0  0  0  0  0  0  0  0999 V2000
    0.5525    1.4973   -0.2736 C   0  0  0  0  0  0  0  0  0  0  0  0
   -0.5333    1.5201    0.5301 C   0  0  0  0  0  0  0  0  0  0  0  0
   -0.8639    0.1735    1.1047 C   0  0  0  0  0  0  0  0  0  0  0  0
   -1.5613   -0.6244    0.0688 C   0  0  0  0  0  0  0  0  0  0  0  0
   -1.0305   -0.7506   -1.1353 O   0  0  0  0  0  0  0  0  0  0  0  0
    0.2462   -0.5997   -1.4297 C   0  0  0  0  0  0  0  0  0  0  0  0
    1.1259    0.1457   -0.4871 C   0  0  0  0  0  0  0  0  0  0  0  0
    1.2560   -0.6418    0.7854 C   0  0  0  0  0  0  0  0  0  0  0  0
    0.2345   -0.4231    1.6719 O   0  0  0  0  0  0  0  0  0  0  0  0
    0.9478    2.3963   -0.7091 H   0  0  0  0  0  0  0  0  0  0  0  0
   -1.0965    2.3996    0.7354 H   0  0  0  0  0  0  0  0  0  0  0  0
   -1.5925    0.3729    1.9342 H   0  0  0  0  0  0  0  0  0  0  0  0
   -1.7576   -1.6447    0.5147 H   0  0  0  0  0  0  0  0  0  0  0  0
   -2.6010   -0.1890   -0.0461 H   0  0  0  0  0  0  0  0  0  0  0  0
    0.3490   -0.0978   -2.4388 H   0  0  0  0  0  0  0  0  0  0  0  0
    0.7281   -1.6098   -1.5963 H   0  0  0  0  0  0  0  0  0  0  0  0
    2.1296    0.2718   -0.9505 H   0  0  0  0  0  0  0  0  0  0  0  0
    2.2494   -0.4624    1.2221 H   0  0  0  0  0  0  0  0  0  0  0  0
    1.2176   -1.7338    0.4992 H   0  0  0  0  0  0  0  0  0  0  0  0
  1  2  2  0
  2  3  1  0
  3  4  1  0
  4  5  1  0
  5  6  1  0
  6  7  1  0
  7  8  1  0
  8  9  1  0
  7  1  1  0
  9  3  1  0
  1 10  1  0
  2 11  1  0
  3 12  1  0
  4 13  1  0
  4 14  1  0
  6 15  1  0
  6 16  1  0
  7 17  1  0
  8 18  1  0
  8 19  1  0
M  END
