
     RDKit          3D

 19 20  0  0  0  0  0  0  0  0999 V2000
    1.5578    0.3910    1.1685 C   0  0  0  0  0  0  0  0  0  0  0  0
    0.2968   -0.0174    1.2194 C   0  0  0  0  0  0  0  0  0  0  0  0
   -0.3550   -0.1984   -0.1024 C   0  0  0  0  0  0  0  0  0  0  0  0
   -1.7921   -0.6370   -0.0493 C   0  0  0  0  0  0  0  0  0  0  0  0
   -2.0062    0.8469   -0.1960 C   0  0  0  0  0  0  0  0  0  0  0  0
   -0.7168    1.0145   -0.7019 O   0  0  0  0  0  0  0  0  0  0  0  0
    0.5598   -1.0422   -0.9374 C   0  0  0  0  0  0  0  0  0  0  0  0
    1.7777   -0.4420   -1.0774 O   0  0  0  0  0  0  0  0  0  0  0  0
    2.0767    0.5900   -0.2362 C   0  0  0  0  0  0  0  0  0  0  0  0
    2.1714    0.5696    2.0410 H   0  0  0  0  0  0  0  0  0  0  0  0
   -0.1491   -0.1829    2.1837 H   0  0  0  0  0  0  0  0  0  0  0  0
   -2.0657   -1.1943   -0.9842 H   0  0  0  0  0  0  0  0  0  0  0  0
   -2.1370   -1.0946    0.8781 H   0  0  0  0  0  0  0  0  0  0  0  0
   -2.8227    1.0736   -0.9111 H   0  0  0  0  0  0  0  0  0  0  0  0
   -2.1022    1.3551    0.7960 H   0  0  0  0  0  0  0  0  0  0  0  0
    0.0729   -1.3031   -1.9100 H   0  0  0  0  0  0  0  0  0  0  0  0
    0.7234   -1.9989   -0.3647 H   0  0  0  0  0  0  0  0  0  0  0  0
    1.7264    1.5864   -0.6331 H   0  0  0  0  0  0  0  0  0  0  0  0
    3.1839    0.6836   -0.1830 H   0  0  0  0  0  0  0  0  0  0  0  0
  1  2  2  0
  2  3  1  0
  3  4  1  0
  4  5  1  0
  5  6  1  0
  3  7  1  0
  7  8  1  0
  8  9  1  0
  9  1  1  0
  6  3  1  0
  1 10  1  0
  2 11  1  0
  4 12  1  0
  4 13  1  0
  5 14  1  0
  5 15  1  0
  7 16  1  0
  7 17  1  0
  9 18  1  0
  9 19  1  0
M  END
