
     RDKit          3D

 19 20  0  0  0  0  0  0  0  0999 V2000
    1.6880    0.6490   -0.1820 C   0  0  0  0  0  0  0  0  0  0  0  0
    1.7728   -0.6764   -0.1207 C   0  0  0  0  0  0  0  0  0  0  0  0
    0.8626   -1.8342    0.2528 C   0  0  0  0  0  0  0  0  0  0  0  0
   -0.4665   -1.1792    0.4146 C   0  0  0  0  0  0  0  0  0  0  0  0
   -0.4865   -0.7560   -1.0402 O   0  0  0  0  0  0  0  0  0  0  0  0
   -1.5151   -0.7538   -0.2611 C   0  0  0  0  0  0  0  0  0  0  0  0
   -1.7931    0.7661   -0.1730 C   0  0  0  0  0  0  0  0  0  0  0  0
   -0.6589    1.6045    0.0866 C   0  0  0  0  0  0  0  0  0  0  0  0
    0.6363    1.6045    0.0961 C   0  0  0  0  0  0  0  0  0  0  0  0
    2.6368    1.0812   -0.5196 H   0  0  0  0  0  0  0  0  0  0  0  0
    2.7087   -1.0393   -0.4030 H   0  0  0  0  0  0  0  0  0  0  0  0
    1.2058   -2.2313    1.2548 H   0  0  0  0  0  0  0  0  0  0  0  0
    0.9484   -2.6745   -0.4219 H   0  0  0  0  0  0  0  0  0  0  0  0
   -0.2317   -0.3880    1.2007 H   0  0  0  0  0  0  0  0  0  0  0  0
   -2.4509   -1.2920   -0.5465 H   0  0  0  0  0  0  0  0  0  0  0  0
   -2.3984    1.0581   -1.0812 H   0  0  0  0  0  0  0  0  0  0  0  0
   -2.5315    0.8992    0.6737 H   0  0  0  0  0  0  0  0  0  0  0  0
   -1.0403    2.6012    0.3845 H   0  0  0  0  0  0  0  0  0  0  0  0
    1.1135    2.5609    0.3854 H   0  0  0  0  0  0  0  0  0  0  0  0
  1  2  2  3
  2  3  1  0
  3  4  1  0
  4  5  1  0
  5  6  1  0
  6  7  1  0
  7  8  1  0
  8  9  2  3
  9  1  1  0
  6  4  1  0
  1 10  1  0
  2 11  1  0
  3 12  1  0
  3 13  1  0
  4 14  1  0
  6 15  1  0
  7 16  1  0
  7 17  1  0
  8 18  1  0
  9 19  1  0
M  END
