
     RDKit          3D

 18 19  0  0  0  0  0  0  0  0999 V2000
    1.1840    1.2022    0.0543 C   0  0  0  0  0  0  0  0  0  0  0  0
   -0.0904    1.5804    0.0646 C   0  0  0  0  0  0  0  0  0  0  0  0
   -1.3319    0.7784    0.3855 C   0  0  0  0  0  0  0  0  0  0  0  0
   -1.5641   -0.3001   -0.6270 C   0  0  0  0  0  0  0  0  0  0  0  0
   -0.6251   -1.1345    0.2553 C   0  0  0  0  0  0  0  0  0  0  0  0
    0.7595   -1.1377   -0.3025 C   0  0  0  0  0  0  0  0  0  0  0  0
    1.6863   -0.1573    0.4051 C   0  0  0  0  0  0  0  0  0  0  0  0
   -0.8705   -0.2342    1.2616 O   0  0  0  0  0  0  0  0  0  0  0  0
    1.9608    1.9012   -0.2244 H   0  0  0  0  0  0  0  0  0  0  0  0
   -0.2778    2.6188   -0.1951 H   0  0  0  0  0  0  0  0  0  0  0  0
   -2.1766    1.3563    0.7371 H   0  0  0  0  0  0  0  0  0  0  0  0
   -1.1617   -0.1323   -1.6259 H   0  0  0  0  0  0  0  0  0  0  0  0
   -2.6219   -0.6526   -0.5748 H   0  0  0  0  0  0  0  0  0  0  0  0
   -1.0352   -2.1326    0.5067 H   0  0  0  0  0  0  0  0  0  0  0  0
    0.7116   -0.7642   -1.3682 H   0  0  0  0  0  0  0  0  0  0  0  0
    1.2113   -2.1464   -0.3707 H   0  0  0  0  0  0  0  0  0  0  0  0
    1.5190   -0.3431    1.5030 H   0  0  0  0  0  0  0  0  0  0  0  0
    2.7229   -0.3022    0.1153 H   0  0  0  0  0  0  0  0  0  0  0  0
  1  2  2  0
  2  3  1  0
  3  4  1  0
  4  5  1  0
  5  6  1  0
  6  7  1  0
  5  8  1  0
  7  1  1  0
  8  3  1  0
  1  9  1  0
  2 10  1  0
  3 11  1  0
  4 12  1  0
  4 13  1  0
  5 14  1  0
  6 15  1  0
  6 16  1  0
  7 17  1  0
  7 18  1  0
M  END
