
     RDKit          3D

 21 22  0  0  0  0  0  0  0  0999 V2000
   -1.8576    1.0200    0.2567 C   0  0  0  0  0  0  0  0  0  0  0  0
   -0.7228    1.4189   -0.2558 C   0  0  0  0  0  0  0  0  0  0  0  0
    0.3602    0.5703   -0.7722 C   0  0  0  0  0  0  0  0  0  0  0  0
    1.5835    0.8182    0.1128 C   0  0  0  0  0  0  0  0  0  0  0  0
    2.3201   -0.4782   -0.1181 C   0  0  0  0  0  0  0  0  0  0  0  0
    1.3867   -1.4620   -0.2995 O   0  0  0  0  0  0  0  0  0  0  0  0
    0.1618   -0.8892   -0.5385 C   0  0  0  0  0  0  0  0  0  0  0  0
   -0.8104   -1.1674    0.5805 C   0  0  0  0  0  0  0  0  0  0  0  0
   -2.1128   -0.4436    0.3417 C   0  0  0  0  0  0  0  0  0  0  0  0
   -2.6291    1.7167    0.6266 H   0  0  0  0  0  0  0  0  0  0  0  0
   -0.5559    2.5032   -0.3084 H   0  0  0  0  0  0  0  0  0  0  0  0
    0.5912    0.7899   -1.8349 H   0  0  0  0  0  0  0  0  0  0  0  0
    1.2200    0.8080    1.1582 H   0  0  0  0  0  0  0  0  0  0  0  0
    2.1375    1.7031   -0.1781 H   0  0  0  0  0  0  0  0  0  0  0  0
    2.8714   -0.7142    0.8334 H   0  0  0  0  0  0  0  0  0  0  0  0
    3.0870   -0.4055   -0.9022 H   0  0  0  0  0  0  0  0  0  0  0  0
   -0.2605   -1.3937   -1.4504 H   0  0  0  0  0  0  0  0  0  0  0  0
   -1.0154   -2.2440    0.6317 H   0  0  0  0  0  0  0  0  0  0  0  0
   -0.3986   -0.7639    1.5463 H   0  0  0  0  0  0  0  0  0  0  0  0
   -2.5619   -0.7449   -0.6224 H   0  0  0  0  0  0  0  0  0  0  0  0
   -2.7944   -0.6414    1.1928 H   0  0  0  0  0  0  0  0  0  0  0  0
  1  2  2  0
  2  3  1  0
  3  4  1  0
  4  5  1  0
  5  6  1  0
  6  7  1  0
  7  8  1  0
  8  9  1  0
  9  1  1  0
  7  3  1  0
  1 10  1  0
  2 11  1  0
  3 12  1  0
  4 13  1  0
  4 14  1  0
  5 15  1  0
  5 16  1  0
  7 17  1  0
  8 18  1  0
  8 19  1  0
  9 20  1  0
  9 21  1  0
M  END
