
     RDKit          3D

 19 21  0  0  0  0  0  0  0  0999 V2000
   -2.1750   -0.1855    0.3757 C   0  0  0  0  0  0  0  0  0  0  0  0
   -1.5066    0.9649    0.3662 C   0  0  0  0  0  0  0  0  0  0  0  0
   -0.2712    0.8722   -0.4092 C   0  0  0  0  0  0  0  0  0  0  0  0
    1.0305    1.3926    0.1271 C   0  0  0  0  0  0  0  0  0  0  0  0
    1.8603    0.1782    0.4022 C   0  0  0  0  0  0  0  0  0  0  0  0
    1.1322   -1.0043   -0.1589 C   0  0  0  0  0  0  0  0  0  0  0  0
   -0.1572   -0.5430   -0.7317 C   0  0  0  0  0  0  0  0  0  0  0  0
   -1.4505   -1.2186   -0.4133 C   0  0  0  0  0  0  0  0  0  0  0  0
   -0.2297    0.4342   -1.7010 O   0  0  0  0  0  0  0  0  0  0  0  0
   -3.1277   -0.3366    0.8977 H   0  0  0  0  0  0  0  0  0  0  0  0
   -1.8473    1.8619    0.8778 H   0  0  0  0  0  0  0  0  0  0  0  0
    0.9391    2.0886    0.9598 H   0  0  0  0  0  0  0  0  0  0  0  0
    1.5086    1.9755   -0.7152 H   0  0  0  0  0  0  0  0  0  0  0  0
    2.8749    0.3123   -0.0402 H   0  0  0  0  0  0  0  0  0  0  0  0
    2.0265    0.1015    1.5027 H   0  0  0  0  0  0  0  0  0  0  0  0
    1.7540   -1.6072   -0.8391 H   0  0  0  0  0  0  0  0  0  0  0  0
    0.8935   -1.6780    0.7079 H   0  0  0  0  0  0  0  0  0  0  0  0
   -1.9959   -1.4666   -1.3576 H   0  0  0  0  0  0  0  0  0  0  0  0
   -1.2584   -2.1420    0.1492 H   0  0  0  0  0  0  0  0  0  0  0  0
  1  2  2  0
  2  3  1  0
  3  4  1  0
  4  5  1  0
  5  6  1  0
  6  7  1  0
  7  8  1  0
  7  9  1  0
  8  1  1  0
  7  3  1  0
  9  3  1  0
  1 10  1  0
  2 11  1  0
  4 12  1  0
  4 13  1  0
  5 14  1  0
  5 15  1  0
  6 16  1  0
  6 17  1  0
  8 18  1  0
  8 19  1  0
M  END
