
     RDKit          3D

 21 23  0  0  0  0  0  0  0  0999 V2000
   -0.6930    1.8643   -0.7862 C   0  0  0  0  0  0  0  0  0  0  0  0
    0.4479    1.3112   -1.1802 C   0  0  0  0  0  0  0  0  0  0  0  0
    0.7362    0.1491   -0.3178 C   0  0  0  0  0  0  0  0  0  0  0  0
    1.8622   -0.7402   -0.4678 C   0  0  0  0  0  0  0  0  0  0  0  0
    1.8604    0.2264    0.6947 C   0  0  0  0  0  0  0  0  0  0  0  0
   -0.6167   -0.2396    0.1871 C   0  0  0  0  0  0  0  0  0  0  0  0
   -1.2556    1.1153    0.3698 C   0  0  0  0  0  0  0  0  0  0  0  0
   -0.8858   -1.3785    1.0380 C   0  0  0  0  0  0  0  0  0  0  0  0
   -1.3984   -1.3472   -0.3966 C   0  0  0  0  0  0  0  0  0  0  0  0
   -1.1702    2.7355   -1.2238 H   0  0  0  0  0  0  0  0  0  0  0  0
    1.0459    1.6736   -2.0004 H   0  0  0  0  0  0  0  0  0  0  0  0
    1.7530   -1.8156   -0.2264 H   0  0  0  0  0  0  0  0  0  0  0  0
    2.6238   -0.5078   -1.2370 H   0  0  0  0  0  0  0  0  0  0  0  0
    1.6472   -0.1349    1.7126 H   0  0  0  0  0  0  0  0  0  0  0  0
    2.4522    1.1484    0.6333 H   0  0  0  0  0  0  0  0  0  0  0  0
   -0.8156    1.5624    1.2814 H   0  0  0  0  0  0  0  0  0  0  0  0
   -2.3547    1.0817    0.3718 H   0  0  0  0  0  0  0  0  0  0  0  0
   -1.6743   -1.2596    1.8340 H   0  0  0  0  0  0  0  0  0  0  0  0
   -0.1319   -2.1246    1.3170 H   0  0  0  0  0  0  0  0  0  0  0  0
   -2.4956   -1.2218   -0.5623 H   0  0  0  0  0  0  0  0  0  0  0  0
   -0.9368   -2.0981   -1.0412 H   0  0  0  0  0  0  0  0  0  0  0  0
  1  2  2  0
  2  3  1  0
  3  4  1  0
  4  5  1  0
  3  6  1  0
  6  7  1  0
  6  8  1  0
  8  9  1  0
  7  1  1  0
  5  3  1  0
  9  6  1  0
  1 10  1  0
  2 11  1  0
  4 12  1  0
  4 13  1  0
  5 14  1  0
  5 15  1  0
  7 16  1  0
  7 17  1  0
  8 18  1  0
  8 19  1  0
  9 20  1  0
  9 21  1  0
M  END
