
     RDKit          3D

 19 21  0  0  0  0  0  0  0  0999 V2000
    1.4610   -0.2840   -0.6197 C   0  0  0  0  0  0  0  0  0  0  0  0
    1.3088    0.9461   -0.1077 C   0  0  0  0  0  0  0  0  0  0  0  0
   -0.1505    1.2829    0.1177 C   0  0  0  0  0  0  0  0  0  0  0  0
   -0.8165    0.7426   -1.1622 C   0  0  0  0  0  0  0  0  0  0  0  0
   -1.0049   -0.7007   -0.6603 C   0  0  0  0  0  0  0  0  0  0  0  0
   -1.7316   -0.3420    0.5063 O   0  0  0  0  0  0  0  0  0  0  0  0
   -0.6659    0.3401    1.1568 C   0  0  0  0  0  0  0  0  0  0  0  0
    0.2325   -0.9050    1.3073 C   0  0  0  0  0  0  0  0  0  0  0  0
    0.3290   -1.2070   -0.2039 C   0  0  0  0  0  0  0  0  0  0  0  0
    2.2648   -0.5932   -1.2386 H   0  0  0  0  0  0  0  0  0  0  0  0
    2.1066    1.6250    0.1214 H   0  0  0  0  0  0  0  0  0  0  0  0
   -0.3280    2.3288    0.2802 H   0  0  0  0  0  0  0  0  0  0  0  0
   -1.7813    1.2276   -1.3488 H   0  0  0  0  0  0  0  0  0  0  0  0
   -0.1443    0.7303   -2.0118 H   0  0  0  0  0  0  0  0  0  0  0  0
   -1.5527   -1.3215   -1.3361 H   0  0  0  0  0  0  0  0  0  0  0  0
   -0.9506    0.7687    2.0987 H   0  0  0  0  0  0  0  0  0  0  0  0
    1.1983   -0.6635    1.7414 H   0  0  0  0  0  0  0  0  0  0  0  0
   -0.3147   -1.7305    1.7668 H   0  0  0  0  0  0  0  0  0  0  0  0
    0.5399   -2.2447   -0.4076 H   0  0  0  0  0  0  0  0  0  0  0  0
  1  2  2  0
  2  3  1  0
  3  4  1  0
  4  5  1  0
  5  6  1  0
  6  7  1  0
  7  8  1  0
  8  9  1  0
  9  1  1  0
  7  3  1  0
  9  5  1  0
  1 10  1  0
  2 11  1  0
  3 12  1  0
  4 13  1  0
  4 14  1  0
  5 15  1  0
  7 16  1  0
  8 17  1  0
  8 18  1  0
  9 19  1  0
M  END
