
     RDKit          3D

 19 21  0  0  0  0  0  0  0  0999 V2000
    1.4657   -0.5372    0.9229 C   0  0  0  0  0  0  0  0  0  0  0  0
    0.3828   -1.3031    0.9322 C   0  0  0  0  0  0  0  0  0  0  0  0
   -0.7041   -1.3238   -0.0665 C   0  0  0  0  0  0  0  0  0  0  0  0
   -1.7115   -0.2481   -0.0655 C   0  0  0  0  0  0  0  0  0  0  0  0
   -1.2050    1.1071    0.3927 C   0  0  0  0  0  0  0  0  0  0  0  0
   -0.2373    1.0556   -0.7674 C   0  0  0  0  0  0  0  0  0  0  0  0
    1.0089    1.3976   -0.4201 O   0  0  0  0  0  0  0  0  0  0  0  0
    1.9107    0.4775   -0.0241 C   0  0  0  0  0  0  0  0  0  0  0  0
   -0.5547   -0.3263   -1.1178 C   0  0  0  0  0  0  0  0  0  0  0  0
    2.1507   -0.6924    1.7767 H   0  0  0  0  0  0  0  0  0  0  0  0
    0.3284   -1.9683    1.7774 H   0  0  0  0  0  0  0  0  0  0  0  0
   -0.9918   -2.3452   -0.4137 H   0  0  0  0  0  0  0  0  0  0  0  0
   -2.7291   -0.3492   -0.4227 H   0  0  0  0  0  0  0  0  0  0  0  0
   -0.6626    1.0518    1.3759 H   0  0  0  0  0  0  0  0  0  0  0  0
   -1.9920    1.8637    0.3364 H   0  0  0  0  0  0  0  0  0  0  0  0
   -0.6233    1.7611   -1.5649 H   0  0  0  0  0  0  0  0  0  0  0  0
    2.3395   -0.0690   -0.9158 H   0  0  0  0  0  0  0  0  0  0  0  0
    2.7826    1.0114    0.4113 H   0  0  0  0  0  0  0  0  0  0  0  0
   -0.9579   -0.5631   -2.1470 H   0  0  0  0  0  0  0  0  0  0  0  0
  1  2  2  0
  2  3  1  0
  3  4  1  0
  4  5  1  0
  5  6  1  0
  6  7  1  0
  7  8  1  0
  6  9  1  0
  8  1  1  0
  9  3  1  0
  9  4  1  0
  1 10  1  0
  2 11  1  0
  3 12  1  0
  4 13  1  0
  5 14  1  0
  5 15  1  0
  6 16  1  0
  8 17  1  0
  8 18  1  0
  9 19  1  0
M  END
