
     RDKit          2D

 19 22  0  0  0  0  0  0  0  0999 V2000
   -2.7413    0.0000    0.0000 C   0  0  0  0  0  0  0  0  0  0  0  0
   -1.8596    1.2135    0.0000 C   0  0  0  0  0  0  0  0  0  0  0  0
    0.3285    1.4004    0.0000 C   0  0  0  0  0  0  0  0  0  0  0  0
    0.8660    0.0000    0.0000 C   0  0  0  0  0  0  0  0  0  0  0  0
   -0.4330    0.7500    0.0000 C   0  0  0  0  0  0  0  0  0  0  0  0
   -0.4330   -0.7500    0.0000 C   0  0  0  0  0  0  0  0  0  0  0  0
   -1.8596   -1.2135    0.0000 C   0  0  0  0  0  0  0  0  0  0  0  0
   -1.5477   -2.6807    0.0000 C   0  0  0  0  0  0  0  0  0  0  0  0
   -2.9743   -2.2172    0.0000 C   0  0  0  0  0  0  0  0  0  0  0  0
   -4.2413    0.0000    0.0000 H   0  0  0  0  0  0  0  0  0  0  0  0
    1.7288    1.9379    0.0000 H   0  0  0  0  0  0  0  0  0  0  0  0
   -0.0344    2.8558    0.0000 H   0  0  0  0  0  0  0  0  0  0  0  0
    2.3660    0.0000    0.0000 H   0  0  0  0  0  0  0  0  0  0  0  0
   -0.0224    1.4333    0.0000 H   0  0  0  0  0  0  0  0  0  0  0  0
    0.3396   -2.0357    0.0000 H   0  0  0  0  0  0  0  0  0  0  0  0
   -0.0534   -2.8115    0.0000 H   0  0  0  0  0  0  0  0  0  0  0  0
   -1.7565   -4.1661    0.0000 H   0  0  0  0  0  0  0  0  0  0  0  0
   -3.6785   -3.5416    0.0000 H   0  0  0  0  0  0  0  0  0  0  0  0
   -4.1563   -1.2937    0.0000 H   0  0  0  0  0  0  0  0  0  0  0  0
  1  2  2  0
  2  3  1  0
  3  4  1  0
  4  5  1  0
  5  6  1  0
  6  7  1  0
  7  8  1  0
  8  9  1  0
  7  1  1  0
  5  2  1  0
  9  7  1  0
  6  4  1  0
  1 10  1  0
  3 11  1  0
  3 12  1  0
  4 13  1  0
  5 14  1  0
  6 15  1  0
  8 16  1  0
  8 17  1  0
  9 18  1  0
  9 19  1  0
M  END
