
     RDKit          3D

 19 20  0  0  0  0  0  0  0  0999 V2000
    1.6797   -0.3960   -0.4303 C   0  0  0  0  0  0  0  0  0  0  0  0
    1.3889    0.8797   -0.2092 C   0  0  0  0  0  0  0  0  0  0  0  0
    0.3464    1.6072    0.4820 C   0  0  0  0  0  0  0  0  0  0  0  0
   -0.4213    2.4289   -0.4919 O   0  0  0  0  0  0  0  0  0  0  0  0
   -0.9899    1.3780    0.3299 C   0  0  0  0  0  0  0  0  0  0  0  0
   -1.5085    0.1704   -0.3833 C   0  0  0  0  0  0  0  0  0  0  0  0
   -1.1301   -1.1273    0.2777 C   0  0  0  0  0  0  0  0  0  0  0  0
   -0.2523   -1.7943   -0.5780 O   0  0  0  0  0  0  0  0  0  0  0  0
    1.0224   -1.6449   -0.0396 C   0  0  0  0  0  0  0  0  0  0  0  0
    2.5775   -0.5750   -1.0140 H   0  0  0  0  0  0  0  0  0  0  0  0
    2.1268    1.5275   -0.6677 H   0  0  0  0  0  0  0  0  0  0  0  0
    0.7168    2.3169    1.2681 H   0  0  0  0  0  0  0  0  0  0  0  0
   -1.7215    1.8285    1.0334 H   0  0  0  0  0  0  0  0  0  0  0  0
   -2.6274    0.1821   -0.4537 H   0  0  0  0  0  0  0  0  0  0  0  0
   -1.1617    0.2216   -1.4529 H   0  0  0  0  0  0  0  0  0  0  0  0
   -0.6640   -0.9307    1.2702 H   0  0  0  0  0  0  0  0  0  0  0  0
   -2.0075   -1.8115    0.4047 H   0  0  0  0  0  0  0  0  0  0  0  0
    1.6253   -2.4942   -0.4167 H   0  0  0  0  0  0  0  0  0  0  0  0
    1.0004   -1.7670    1.0713 H   0  0  0  0  0  0  0  0  0  0  0  0
  1  2  2  3
  2  3  1  0
  3  4  1  0
  4  5  1  0
  5  6  1  0
  6  7  1  0
  7  8  1  0
  8  9  1  0
  9  1  1  0
  5  3  1  0
  1 10  1  0
  2 11  1  0
  3 12  1  0
  5 13  1  0
  6 14  1  0
  6 15  1  0
  7 16  1  0
  7 17  1  0
  9 18  1  0
  9 19  1  0
M  END
