
     RDKit          3D

 19 20  0  0  0  0  0  0  0  0999 V2000
   -1.8003    0.7988    0.1912 C   0  0  0  0  0  0  0  0  0  0  0  0
   -0.7408    1.2213   -0.4948 C   0  0  0  0  0  0  0  0  0  0  0  0
    0.1353    0.1576   -1.0637 C   0  0  0  0  0  0  0  0  0  0  0  0
    1.4423    0.6557   -1.1739 O   0  0  0  0  0  0  0  0  0  0  0  0
    1.8751    0.6832    0.1592 C   0  0  0  0  0  0  0  0  0  0  0  0
    1.4617   -0.6405    0.7537 C   0  0  0  0  0  0  0  0  0  0  0  0
    0.2968   -1.0235   -0.1507 C   0  0  0  0  0  0  0  0  0  0  0  0
   -0.7816   -1.2992    0.6447 O   0  0  0  0  0  0  0  0  0  0  0  0
   -1.9594   -0.6840    0.2926 C   0  0  0  0  0  0  0  0  0  0  0  0
   -2.4670    1.5177    0.6241 H   0  0  0  0  0  0  0  0  0  0  0  0
   -0.5261    2.2848   -0.6326 H   0  0  0  0  0  0  0  0  0  0  0  0
   -0.2109   -0.1390   -2.0792 H   0  0  0  0  0  0  0  0  0  0  0  0
    1.3528    1.4919    0.6863 H   0  0  0  0  0  0  0  0  0  0  0  0
    2.9674    0.8298    0.1500 H   0  0  0  0  0  0  0  0  0  0  0  0
    2.2425   -1.4021    0.7168 H   0  0  0  0  0  0  0  0  0  0  0  0
    1.1505   -0.5100    1.8033 H   0  0  0  0  0  0  0  0  0  0  0  0
    0.5390   -1.9452   -0.7408 H   0  0  0  0  0  0  0  0  0  0  0  0
   -2.7263   -0.9122    1.0255 H   0  0  0  0  0  0  0  0  0  0  0  0
   -2.2509   -1.0851   -0.7117 H   0  0  0  0  0  0  0  0  0  0  0  0
  1  2  2  0
  2  3  1  0
  3  4  1  0
  4  5  1  0
  5  6  1  0
  6  7  1  0
  7  8  1  0
  8  9  1  0
  9  1  1  0
  7  3  1  0
  1 10  1  0
  2 11  1  0
  3 12  1  0
  5 13  1  0
  5 14  1  0
  6 15  1  0
  6 16  1  0
  7 17  1  0
  9 18  1  0
  9 19  1  0
M  END
