
     RDKit          3D

 19 21  0  0  0  0  0  0  0  0999 V2000
    1.8607    0.8743    0.5135 C   0  0  0  0  0  0  0  0  0  0  0  0
    1.0611    1.3838   -0.4146 C   0  0  0  0  0  0  0  0  0  0  0  0
    0.0072    0.4821   -0.9572 C   0  0  0  0  0  0  0  0  0  0  0  0
    0.6608   -0.7533   -1.1966 O   0  0  0  0  0  0  0  0  0  0  0  0
    0.4226   -1.0809    0.1608 C   0  0  0  0  0  0  0  0  0  0  0  0
    1.6047   -0.5562    0.9218 C   0  0  0  0  0  0  0  0  0  0  0  0
   -0.7500   -0.2113    0.1058 C   0  0  0  0  0  0  0  0  0  0  0  0
   -1.5431    0.3335    1.1456 C   0  0  0  0  0  0  0  0  0  0  0  0
   -2.1383   -0.6041    0.0517 C   0  0  0  0  0  0  0  0  0  0  0  0
    2.6643    1.3855    0.9931 H   0  0  0  0  0  0  0  0  0  0  0  0
    1.1254    2.3948   -0.7952 H   0  0  0  0  0  0  0  0  0  0  0  0
   -0.5461    0.8629   -1.8251 H   0  0  0  0  0  0  0  0  0  0  0  0
    0.2405   -2.1406    0.3430 H   0  0  0  0  0  0  0  0  0  0  0  0
    2.5013   -1.1239    0.5881 H   0  0  0  0  0  0  0  0  0  0  0  0
    1.5079   -0.6531    2.0187 H   0  0  0  0  0  0  0  0  0  0  0  0
   -1.5191   -0.1206    2.1736 H   0  0  0  0  0  0  0  0  0  0  0  0
   -1.9862    1.3286    1.1350 H   0  0  0  0  0  0  0  0  0  0  0  0
   -2.3773   -1.6456    0.4038 H   0  0  0  0  0  0  0  0  0  0  0  0
   -2.7963   -0.1561   -0.6890 H   0  0  0  0  0  0  0  0  0  0  0  0
  1  2  2  0
  2  3  1  0
  3  4  1  0
  4  5  1  0
  5  6  1  0
  5  7  1  0
  7  8  1  0
  8  9  1  0
  6  1  1  0
  9  7  1  0
  7  3  1  0
  1 10  1  0
  2 11  1  0
  3 12  1  0
  5 13  1  0
  6 14  1  0
  6 15  1  0
  8 16  1  0
  8 17  1  0
  9 18  1  0
  9 19  1  0
M  END
