
     RDKit          3D

 17 19  0  0  0  0  0  0  0  0999 V2000
    1.9426    0.6743   -0.2773 C   0  0  0  0  0  0  0  0  0  0  0  0
    0.9400    1.5100   -0.0823 C   0  0  0  0  0  0  0  0  0  0  0  0
   -0.2372    0.9064    0.5160 C   0  0  0  0  0  0  0  0  0  0  0  0
   -1.5448    0.8967   -0.1365 C   0  0  0  0  0  0  0  0  0  0  0  0
   -2.0080   -0.3033   -0.4256 C   0  0  0  0  0  0  0  0  0  0  0  0
   -1.0078   -1.2946    0.0249 C   0  0  0  0  0  0  0  0  0  0  0  0
    0.0963   -0.5449    0.6900 C   0  0  0  0  0  0  0  0  0  0  0  0
    1.5055   -0.6579    0.2031 C   0  0  0  0  0  0  0  0  0  0  0  0
   -0.1910    0.2981    1.7622 O   0  0  0  0  0  0  0  0  0  0  0  0
    2.9235    0.9346   -0.7194 H   0  0  0  0  0  0  0  0  0  0  0  0
    0.9874    2.5829   -0.3507 H   0  0  0  0  0  0  0  0  0  0  0  0
   -2.0849    1.8297   -0.3607 H   0  0  0  0  0  0  0  0  0  0  0  0
   -2.9799   -0.5078   -0.9200 H   0  0  0  0  0  0  0  0  0  0  0  0
   -0.5772   -1.8073   -0.8851 H   0  0  0  0  0  0  0  0  0  0  0  0
   -1.4529   -2.0827    0.6683 H   0  0  0  0  0  0  0  0  0  0  0  0
    2.1967   -1.0783    0.9644 H   0  0  0  0  0  0  0  0  0  0  0  0
    1.4916   -1.3560   -0.6712 H   0  0  0  0  0  0  0  0  0  0  0  0
  1  2  2  0
  2  3  1  0
  3  4  1  0
  4  5  2  0
  5  6  1  0
  6  7  1  0
  7  8  1  0
  7  9  1  0
  8  1  1  0
  7  3  1  0
  9  3  1  0
  1 10  1  0
  2 11  1  0
  4 12  1  0
  5 13  1  0
  6 14  1  0
  6 15  1  0
  8 16  1  0
  8 17  1  0
M  END
