
     RDKit          3D

 17 19  0  0  0  0  0  0  0  0999 V2000
   -1.9418   -0.2464   -0.4044 C   0  0  0  0  0  0  0  0  0  0  0  0
   -1.8284    0.7695    0.4354 C   0  0  0  0  0  0  0  0  0  0  0  0
   -0.4700    0.7782    1.0431 C   0  0  0  0  0  0  0  0  0  0  0  0
    0.6860    1.0903    0.2963 C   0  0  0  0  0  0  0  0  0  0  0  0
    1.1051    0.6791   -0.9464 O   0  0  0  0  0  0  0  0  0  0  0  0
    1.9580   -0.3876   -0.5631 C   0  0  0  0  0  0  0  0  0  0  0  0
    1.4389   -0.8893    0.6478 O   0  0  0  0  0  0  0  0  0  0  0  0
    0.1808   -0.3748    0.6538 C   0  0  0  0  0  0  0  0  0  0  0  0
   -0.6814   -0.9931   -0.4275 C   0  0  0  0  0  0  0  0  0  0  0  0
   -2.8623   -0.4619   -0.9784 H   0  0  0  0  0  0  0  0  0  0  0  0
   -2.6371    1.4856    0.6339 H   0  0  0  0  0  0  0  0  0  0  0  0
   -0.5193    1.0895    2.1127 H   0  0  0  0  0  0  0  0  0  0  0  0
    1.5899    1.4236    0.8954 H   0  0  0  0  0  0  0  0  0  0  0  0
    2.0371   -1.1511   -1.3386 H   0  0  0  0  0  0  0  0  0  0  0  0
    2.9504    0.1057   -0.3693 H   0  0  0  0  0  0  0  0  0  0  0  0
   -0.7917   -2.0721   -0.2472 H   0  0  0  0  0  0  0  0  0  0  0  0
   -0.2142   -0.8452   -1.4435 H   0  0  0  0  0  0  0  0  0  0  0  0
  1  2  2  0
  2  3  1  0
  3  4  1  0
  4  5  1  0
  5  6  1  0
  6  7  1  0
  7  8  1  0
  8  9  1  0
  9  1  1  0
  8  3  1  0
  8  4  1  0
  1 10  1  0
  2 11  1  0
  3 12  1  0
  4 13  1  0
  6 14  1  0
  6 15  1  0
  9 16  1  0
  9 17  1  0
M  END
