
     RDKit          3D

 17 20  0  0  0  0  0  0  0  0999 V2000
   -0.7010    1.4355   -0.0412 C   0  0  0  0  0  0  0  0  0  0  0  0
    0.5427    1.0751   -0.2383 C   0  0  0  0  0  0  0  0  0  0  0  0
    1.9011    0.5943   -0.4298 C   0  0  0  0  0  0  0  0  0  0  0  0
    1.0543   -0.7308   -0.7508 C   0  0  0  0  0  0  0  0  0  0  0  0
    0.7030   -0.2167    0.6624 C   0  0  0  0  0  0  0  0  0  0  0  0
    0.0519   -1.3114    0.1143 C   0  0  0  0  0  0  0  0  0  0  0  0
   -1.4151   -0.9677    0.2696 C   0  0  0  0  0  0  0  0  0  0  0  0
   -2.0256   -0.3493   -0.8226 O   0  0  0  0  0  0  0  0  0  0  0  0
   -1.7334    0.4426    0.4518 C   0  0  0  0  0  0  0  0  0  0  0  0
   -0.9342    2.4673   -0.2549 H   0  0  0  0  0  0  0  0  0  0  0  0
    2.4428    0.9135   -1.3324 H   0  0  0  0  0  0  0  0  0  0  0  0
    2.5703    0.4574    0.4006 H   0  0  0  0  0  0  0  0  0  0  0  0
    0.5075   -0.3629   -1.6606 H   0  0  0  0  0  0  0  0  0  0  0  0
    1.4624   -0.1763    1.3838 H   0  0  0  0  0  0  0  0  0  0  0  0
    0.2802   -2.3252    0.5372 H   0  0  0  0  0  0  0  0  0  0  0  0
   -2.0768   -1.7020    0.7647 H   0  0  0  0  0  0  0  0  0  0  0  0
   -2.6303    0.7568    0.9460 H   0  0  0  0  0  0  0  0  0  0  0  0
  1  2  2  0
  2  3  1  0
  3  4  1  0
  4  5  1  0
  5  6  1  0
  6  7  1  0
  7  8  1  0
  8  9  1  0
  9  1  1  0
  5  2  1  0
  9  7  1  0
  6  4  1  0
  1 10  1  0
  3 11  1  0
  3 12  1  0
  4 13  1  0
  5 14  1  0
  6 15  1  0
  7 16  1  0
  9 17  1  0
M  END
