
     RDKit          3D

 18 19  0  0  0  0  0  0  0  0999 V2000
    1.7936    0.8769   -0.1422 C   0  0  0  0  0  0  0  0  0  0  0  0
    1.7597   -0.4224   -0.0227 C   0  0  0  0  0  0  0  0  0  0  0  0
    0.4233   -0.9867   -0.2892 C   0  0  0  0  0  0  0  0  0  0  0  0
   -0.2865   -1.3914    0.9543 C   0  0  0  0  0  0  0  0  0  0  0  0
   -1.4176   -0.7345    1.0983 C   0  0  0  0  0  0  0  0  0  0  0  0
   -1.6635    0.2105   -0.0030 C   0  0  0  0  0  0  0  0  0  0  0  0
   -0.3903    0.1694   -0.8198 C   0  0  0  0  0  0  0  0  0  0  0  0
    0.4561    1.3738   -0.5133 C   0  0  0  0  0  0  0  0  0  0  0  0
    2.6541    1.5202    0.0018 H   0  0  0  0  0  0  0  0  0  0  0  0
    2.6193   -1.0294    0.2440 H   0  0  0  0  0  0  0  0  0  0  0  0
    0.4752   -1.8095   -1.0295 H   0  0  0  0  0  0  0  0  0  0  0  0
    0.1168   -2.1408    1.6303 H   0  0  0  0  0  0  0  0  0  0  0  0
   -2.1054   -0.8665    1.9359 H   0  0  0  0  0  0  0  0  0  0  0  0
   -2.5651   -0.0307   -0.6010 H   0  0  0  0  0  0  0  0  0  0  0  0
   -1.7675    1.2304    0.4646 H   0  0  0  0  0  0  0  0  0  0  0  0
   -0.5891    0.0306   -1.8996 H   0  0  0  0  0  0  0  0  0  0  0  0
    0.4529    2.0748   -1.3624 H   0  0  0  0  0  0  0  0  0  0  0  0
    0.0341    1.9251    0.3535 H   0  0  0  0  0  0  0  0  0  0  0  0
  1  2  2  0
  2  3  1  0
  3  4  1  0
  4  5  2  0
  5  6  1  0
  6  7  1  0
  7  8  1  0
  8  1  1  0
  7  3  1  0
  1  9  1  0
  2 10  1  0
  3 11  1  0
  4 12  1  0
  5 13  1  0
  6 14  1  0
  6 15  1  0
  7 16  1  0
  8 17  1  0
  8 18  1  0
M  END
