
     RDKit          3D

 17 19  0  0  0  0  0  0  0  0999 V2000
    0.8215   -1.3088    0.5186 C   0  0  0  0  0  0  0  0  0  0  0  0
    1.4302   -0.1422    0.7839 C   0  0  0  0  0  0  0  0  0  0  0  0
    1.1469    0.9348   -0.2294 C   0  0  0  0  0  0  0  0  0  0  0  0
    1.1361    0.2470   -1.4668 O   0  0  0  0  0  0  0  0  0  0  0  0
   -0.2027   -0.0461   -1.2809 C   0  0  0  0  0  0  0  0  0  0  0  0
   -0.4564   -1.1424   -0.2714 C   0  0  0  0  0  0  0  0  0  0  0  0
   -1.4173   -0.5129    0.6633 C   0  0  0  0  0  0  0  0  0  0  0  0
   -1.2361    0.7920    0.6430 C   0  0  0  0  0  0  0  0  0  0  0  0
   -0.3031    1.1957   -0.4228 C   0  0  0  0  0  0  0  0  0  0  0  0
    1.1942   -2.2672    0.8302 H   0  0  0  0  0  0  0  0  0  0  0  0
    2.0675    0.0153    1.6451 H   0  0  0  0  0  0  0  0  0  0  0  0
    1.8118    1.7922   -0.1945 H   0  0  0  0  0  0  0  0  0  0  0  0
   -0.8414   -0.0713   -2.1626 H   0  0  0  0  0  0  0  0  0  0  0  0
   -0.8015   -2.0777   -0.7052 H   0  0  0  0  0  0  0  0  0  0  0  0
   -2.1405   -1.0267    1.2587 H   0  0  0  0  0  0  0  0  0  0  0  0
   -1.7117    1.4845    1.3230 H   0  0  0  0  0  0  0  0  0  0  0  0
   -0.4974    2.1339   -0.9325 H   0  0  0  0  0  0  0  0  0  0  0  0
  1  2  2  0
  2  3  1  0
  3  4  1  0
  4  5  1  0
  5  6  1  0
  6  7  1  0
  7  8  2  0
  8  9  1  0
  6  1  1  0
  9  3  1  0
  9  5  1  0
  1 10  1  0
  2 11  1  0
  3 12  1  0
  5 13  1  0
  6 14  1  0
  7 15  1  0
  8 16  1  0
  9 17  1  0
M  END
