
     RDKit          3D

 17 19  0  0  0  0  0  0  0  0999 V2000
    1.2423    1.2840   -0.2477 C   0  0  0  0  0  0  0  0  0  0  0  0
    1.9946    0.2097   -0.1696 C   0  0  0  0  0  0  0  0  0  0  0  0
    1.3770   -1.1154   -0.3168 C   0  0  0  0  0  0  0  0  0  0  0  0
    0.5686   -1.3343   -1.4186 O   0  0  0  0  0  0  0  0  0  0  0  0
    0.0404   -1.2053   -0.0310 C   0  0  0  0  0  0  0  0  0  0  0  0
   -0.8211   -0.0076    0.0616 C   0  0  0  0  0  0  0  0  0  0  0  0
   -0.2026    1.2498   -0.4767 C   0  0  0  0  0  0  0  0  0  0  0  0
   -2.2967   -0.2561   -0.1666 C   0  0  0  0  0  0  0  0  0  0  0  0
   -1.7718    0.1371    1.0452 O   0  0  0  0  0  0  0  0  0  0  0  0
    1.7469    2.2544   -0.1317 H   0  0  0  0  0  0  0  0  0  0  0  0
    3.0820    0.3182    0.0057 H   0  0  0  0  0  0  0  0  0  0  0  0
    2.0724   -1.9727   -0.1225 H   0  0  0  0  0  0  0  0  0  0  0  0
   -0.4672   -2.1657    0.1919 H   0  0  0  0  0  0  0  0  0  0  0  0
   -0.6721    2.1567   -0.0134 H   0  0  0  0  0  0  0  0  0  0  0  0
   -0.4351    1.2989   -1.5562 H   0  0  0  0  0  0  0  0  0  0  0  0
   -2.8032    0.4556   -0.8352 H   0  0  0  0  0  0  0  0  0  0  0  0
   -2.6544   -1.3071   -0.2316 H   0  0  0  0  0  0  0  0  0  0  0  0
  1  2  2  0
  2  3  1  0
  3  4  1  0
  4  5  1  0
  5  6  1  0
  6  7  1  0
  6  8  1  0
  8  9  1  0
  7  1  1  0
  5  3  1  0
  9  6  1  0
  1 10  1  0
  2 11  1  0
  3 12  1  0
  5 13  1  0
  7 14  1  0
  7 15  1  0
  8 16  1  0
  8 17  1  0
M  END
