
     RDKit          3D

 17 19  0  0  0  0  0  0  0  0999 V2000
   -1.9726    0.7106    0.4571 C   0  0  0  0  0  0  0  0  0  0  0  0
   -0.6924    1.0730    0.4563 C   0  0  0  0  0  0  0  0  0  0  0  0
   -0.0310    0.1674   -0.5121 C   0  0  0  0  0  0  0  0  0  0  0  0
   -1.0086   -0.2228   -1.3805 O   0  0  0  0  0  0  0  0  0  0  0  0
   -2.1062   -0.4166   -0.5077 C   0  0  0  0  0  0  0  0  0  0  0  0
    1.3914    0.0767   -0.7094 C   0  0  0  0  0  0  0  0  0  0  0  0
    2.2789    0.1765    0.5284 C   0  0  0  0  0  0  0  0  0  0  0  0
    1.5263   -0.7748    1.2025 O   0  0  0  0  0  0  0  0  0  0  0  0
    0.7613   -0.9980    0.0840 C   0  0  0  0  0  0  0  0  0  0  0  0
   -2.8006    1.1180    1.0261 H   0  0  0  0  0  0  0  0  0  0  0  0
   -0.2958    1.8742    1.0663 H   0  0  0  0  0  0  0  0  0  0  0  0
   -3.0334   -0.3719   -1.0802 H   0  0  0  0  0  0  0  0  0  0  0  0
   -1.9461   -1.3881    0.0219 H   0  0  0  0  0  0  0  0  0  0  0  0
    1.8577   -0.0942   -1.6848 H   0  0  0  0  0  0  0  0  0  0  0  0
    2.1485    1.1863    0.9702 H   0  0  0  0  0  0  0  0  0  0  0  0
    3.3312   -0.1139    0.3617 H   0  0  0  0  0  0  0  0  0  0  0  0
    0.5913   -2.0024   -0.2998 H   0  0  0  0  0  0  0  0  0  0  0  0
  1  2  2  0
  2  3  1  0
  3  4  1  0
  4  5  1  0
  3  6  1  0
  6  7  1  0
  7  8  1  0
  8  9  1  0
  5  1  1  0
  9  6  1  0
  9  3  1  0
  1 10  1  0
  2 11  1  0
  5 12  1  0
  5 13  1  0
  6 14  1  0
  7 15  1  0
  7 16  1  0
  9 17  1  0
M  END
