
     RDKit          3D

 17 19  0  0  0  0  0  0  0  0999 V2000
   -0.4347   -1.2420   -0.2222 C   0  0  0  0  0  0  0  0  0  0  0  0
    0.7245   -0.6409   -0.2644 C   0  0  0  0  0  0  0  0  0  0  0  0
    2.1557   -0.4671   -0.4333 C   0  0  0  0  0  0  0  0  0  0  0  0
    2.1348    0.7006    0.4052 O   0  0  0  0  0  0  0  0  0  0  0  0
    0.8422    0.8646    0.0072 C   0  0  0  0  0  0  0  0  0  0  0  0
   -0.2557    1.0924    0.9478 C   0  0  0  0  0  0  0  0  0  0  0  0
   -1.3350    1.8448    0.9235 O   0  0  0  0  0  0  0  0  0  0  0  0
   -1.4891    0.8893    0.0249 C   0  0  0  0  0  0  0  0  0  0  0  0
   -1.7198   -0.5503    0.1064 C   0  0  0  0  0  0  0  0  0  0  0  0
   -0.5064   -2.3229   -0.4362 H   0  0  0  0  0  0  0  0  0  0  0  0
    2.8133   -1.2164    0.0860 H   0  0  0  0  0  0  0  0  0  0  0  0
    2.4242   -0.2603   -1.4667 H   0  0  0  0  0  0  0  0  0  0  0  0
    0.6890    1.3927   -0.9681 H   0  0  0  0  0  0  0  0  0  0  0  0
   -0.1917    0.4300    1.8506 H   0  0  0  0  0  0  0  0  0  0  0  0
   -1.4053    1.2584   -1.0261 H   0  0  0  0  0  0  0  0  0  0  0  0
   -2.4487   -0.8795   -0.6605 H   0  0  0  0  0  0  0  0  0  0  0  0
   -1.9972   -0.8933    1.1260 H   0  0  0  0  0  0  0  0  0  0  0  0
  1  2  2  0
  2  3  1  0
  3  4  1  0
  4  5  1  0
  5  6  1  0
  6  7  1  0
  7  8  1  0
  8  9  1  0
  9  1  1  0
  5  2  1  0
  8  6  1  0
  1 10  1  0
  3 11  1  0
  3 12  1  0
  5 13  1  0
  6 14  1  0
  8 15  1  0
  9 16  1  0
  9 17  1  0
M  END
