
     RDKit          3D

 20 21  0  0  0  0  0  0  0  0999 V2000
    0.8184    1.2557    0.8856 C   0  0  0  0  0  0  0  0  0  0  0  0
   -0.4780    1.4800    0.6977 C   0  0  0  0  0  0  0  0  0  0  0  0
   -1.3174    0.7712   -0.2455 C   0  0  0  0  0  0  0  0  0  0  0  0
   -2.3268   -0.2123   -0.0825 C   0  0  0  0  0  0  0  0  0  0  0  0
   -1.0116   -0.7385    0.0571 C   0  0  0  0  0  0  0  0  0  0  0  0
    0.0431   -1.0670   -0.8996 C   0  0  0  0  0  0  0  0  0  0  0  0
    1.3956   -0.9036   -0.2979 C   0  0  0  0  0  0  0  0  0  0  0  0
    1.8039    0.3409    0.3134 C   0  0  0  0  0  0  0  0  0  0  0  0
    1.2530    1.9161    1.6488 H   0  0  0  0  0  0  0  0  0  0  0  0
   -0.9429    2.2434    1.2870 H   0  0  0  0  0  0  0  0  0  0  0  0
   -1.1244    1.1118   -1.3041 H   0  0  0  0  0  0  0  0  0  0  0  0
   -2.9327   -0.5141   -0.9668 H   0  0  0  0  0  0  0  0  0  0  0  0
   -2.9871   -0.1551    0.8183 H   0  0  0  0  0  0  0  0  0  0  0  0
   -0.6954   -0.9724    1.1200 H   0  0  0  0  0  0  0  0  0  0  0  0
   -0.0538   -2.1494   -1.1834 H   0  0  0  0  0  0  0  0  0  0  0  0
   -0.0604   -0.5218   -1.8817 H   0  0  0  0  0  0  0  0  0  0  0  0
    2.1337   -1.1718   -1.1160 H   0  0  0  0  0  0  0  0  0  0  0  0
    1.5174   -1.7659    0.4266 H   0  0  0  0  0  0  0  0  0  0  0  0
    2.5409    0.1033    1.1351 H   0  0  0  0  0  0  0  0  0  0  0  0
    2.4245    0.9493   -0.4122 H   0  0  0  0  0  0  0  0  0  0  0  0
  1  2  2  0
  2  3  1  0
  3  4  1  0
  4  5  1  0
  5  6  1  0
  6  7  1  0
  7  8  1  0
  8  1  1  0
  5  3  1  0
  1  9  1  0
  2 10  1  0
  3 11  1  0
  4 12  1  0
  4 13  1  0
  5 14  1  0
  6 15  1  0
  6 16  1  0
  7 17  1  0
  7 18  1  0
  8 19  1  0
  8 20  1  0
M  END
