
     RDKit          3D

 17 19  0  0  0  0  0  0  0  0999 V2000
   -0.4935    1.0436    0.9800 C   0  0  0  0  0  0  0  0  0  0  0  0
    0.4028    1.5377    0.1171 C   0  0  0  0  0  0  0  0  0  0  0  0
    0.8396    0.5547   -0.9159 C   0  0  0  0  0  0  0  0  0  0  0  0
   -0.3107    0.1590   -1.6160 O   0  0  0  0  0  0  0  0  0  0  0  0
   -1.3202   -0.3094   -0.8110 C   0  0  0  0  0  0  0  0  0  0  0  0
   -0.8613   -0.3913    0.6534 C   0  0  0  0  0  0  0  0  0  0  0  0
    0.3924   -1.2478    0.6300 C   0  0  0  0  0  0  0  0  0  0  0  0
    1.5472   -0.5932    1.1856 O   0  0  0  0  0  0  0  0  0  0  0  0
    1.3946   -0.6956   -0.2206 C   0  0  0  0  0  0  0  0  0  0  0  0
   -0.9100    1.5784    1.8033 H   0  0  0  0  0  0  0  0  0  0  0  0
    0.7843    2.5492    0.1507 H   0  0  0  0  0  0  0  0  0  0  0  0
    1.5462    0.9606   -1.6347 H   0  0  0  0  0  0  0  0  0  0  0  0
   -2.1923    0.4079   -0.7848 H   0  0  0  0  0  0  0  0  0  0  0  0
   -1.7470   -1.2775   -1.1357 H   0  0  0  0  0  0  0  0  0  0  0  0
   -1.6504   -0.7738    1.2905 H   0  0  0  0  0  0  0  0  0  0  0  0
    0.3322   -2.2883    0.9899 H   0  0  0  0  0  0  0  0  0  0  0  0
    2.2462   -1.2142   -0.6815 H   0  0  0  0  0  0  0  0  0  0  0  0
  1  2  2  0
  2  3  1  0
  3  4  1  0
  4  5  1  0
  5  6  1  0
  6  7  1  0
  7  8  1  0
  8  9  1  0
  6  1  1  0
  9  7  1  0
  9  3  1  0
  1 10  1  0
  2 11  1  0
  3 12  1  0
  5 13  1  0
  5 14  1  0
  6 15  1  0
  7 16  1  0
  9 17  1  0
M  END
