
     RDKit          3D

 15 16  0  0  0  0  0  0  0  0999 V2000
    1.5320    0.3361    0.5018 C   0  0  0  0  0  0  0  0  0  0  0  0
    0.6336    1.2364    0.1447 C   0  0  0  0  0  0  0  0  0  0  0  0
   -0.5296    0.6498   -0.5275 C   0  0  0  0  0  0  0  0  0  0  0  0
   -1.6839    0.2353    0.3160 C   0  0  0  0  0  0  0  0  0  0  0  0
   -1.2876   -1.1058    0.2251 O   0  0  0  0  0  0  0  0  0  0  0  0
   -0.2170   -0.8064   -0.6239 C   0  0  0  0  0  0  0  0  0  0  0  0
    1.0796   -1.0111    0.1063 C   0  0  0  0  0  0  0  0  0  0  0  0
    2.4854    0.5064    1.0155 H   0  0  0  0  0  0  0  0  0  0  0  0
    0.7610    2.2879    0.3366 H   0  0  0  0  0  0  0  0  0  0  0  0
   -0.8508    1.1435   -1.4675 H   0  0  0  0  0  0  0  0  0  0  0  0
   -1.7613    0.6345    1.3270 H   0  0  0  0  0  0  0  0  0  0  0  0
   -2.6626    0.3385   -0.2125 H   0  0  0  0  0  0  0  0  0  0  0  0
   -0.2790   -1.2445   -1.6304 H   0  0  0  0  0  0  0  0  0  0  0  0
    1.8477   -1.5257   -0.5162 H   0  0  0  0  0  0  0  0  0  0  0  0
    0.9325   -1.6750    1.0049 H   0  0  0  0  0  0  0  0  0  0  0  0
  1  2  2  0
  2  3  1  0
  3  4  1  0
  4  5  1  0
  5  6  1  0
  6  7  1  0
  7  1  1  0
  6  3  1  0
  1  8  1  0
  2  9  1  0
  3 10  1  0
  4 11  1  0
  4 12  1  0
  6 13  1  0
  7 14  1  0
  7 15  1  0
M  END
