
     RDKit          3D

 19 21  0  0  0  0  0  0  0  0999 V2000
    1.5618    0.9683    0.1483 C   0  0  0  0  0  0  0  0  0  0  0  0
    1.7561   -0.2965    0.5021 C   0  0  0  0  0  0  0  0  0  0  0  0
    0.7938   -1.1052   -0.3351 C   0  0  0  0  0  0  0  0  0  0  0  0
    0.7477   -0.2964   -1.4961 O   0  0  0  0  0  0  0  0  0  0  0  0
    0.4896    0.9539   -0.8865 C   0  0  0  0  0  0  0  0  0  0  0  0
   -0.8477    0.8847   -0.1920 C   0  0  0  0  0  0  0  0  0  0  0  0
   -0.6891    0.1357    1.1408 C   0  0  0  0  0  0  0  0  0  0  0  0
   -0.5865   -1.1082    0.2439 C   0  0  0  0  0  0  0  0  0  0  0  0
   -1.5866   -0.3613   -0.6523 C   0  0  0  0  0  0  0  0  0  0  0  0
    2.0336    1.8842    0.4843 H   0  0  0  0  0  0  0  0  0  0  0  0
    2.4617   -0.6277    1.2356 H   0  0  0  0  0  0  0  0  0  0  0  0
    1.1991   -2.0923   -0.5578 H   0  0  0  0  0  0  0  0  0  0  0  0
    0.5631    1.7805   -1.6008 H   0  0  0  0  0  0  0  0  0  0  0  0
   -1.4307    1.7981   -0.1396 H   0  0  0  0  0  0  0  0  0  0  0  0
   -1.6498    0.1143    1.6565 H   0  0  0  0  0  0  0  0  0  0  0  0
    0.2061    0.3757    1.6994 H   0  0  0  0  0  0  0  0  0  0  0  0
   -0.9552   -2.0216    0.6904 H   0  0  0  0  0  0  0  0  0  0  0  0
   -1.4830   -0.5993   -1.7221 H   0  0  0  0  0  0  0  0  0  0  0  0
   -2.5838   -0.3869   -0.2189 H   0  0  0  0  0  0  0  0  0  0  0  0
  1  2  2  0
  2  3  1  0
  3  4  1  0
  4  5  1  0
  5  6  1  0
  6  7  1  0
  7  8  1  0
  8  9  1  0
  5  1  1  0
  9  6  1  0
  8  3  1  0
  1 10  1  0
  2 11  1  0
  3 12  1  0
  5 13  1  0
  6 14  1  0
  7 15  1  0
  7 16  1  0
  8 17  1  0
  9 18  1  0
  9 19  1  0
M  END
