
     RDKit          3D

 18 19  0  0  0  0  0  0  0  0999 V2000
    2.0979    0.2614   -0.0984 C   0  0  0  0  0  0  0  0  0  0  0  0
    0.9549    0.8961    0.1384 C   0  0  0  0  0  0  0  0  0  0  0  0
   -0.0532   -0.1411    0.3505 C   0  0  0  0  0  0  0  0  0  0  0  0
   -1.2980    0.2630    1.0943 C   0  0  0  0  0  0  0  0  0  0  0  0
   -1.8492    0.7232   -0.2630 C   0  0  0  0  0  0  0  0  0  0  0  0
   -0.9142   -0.3052   -0.8818 C   0  0  0  0  0  0  0  0  0  0  0  0
    0.6090   -1.2434    0.7853 O   0  0  0  0  0  0  0  0  0  0  0  0
    1.7664   -1.2103   -0.0259 C   0  0  0  0  0  0  0  0  0  0  0  0
    3.0672    0.6683   -0.3014 H   0  0  0  0  0  0  0  0  0  0  0  0
    0.8348    1.9944    0.1612 H   0  0  0  0  0  0  0  0  0  0  0  0
   -1.8381   -0.6520    1.4268 H   0  0  0  0  0  0  0  0  0  0  0  0
   -1.1993    1.0609    1.8337 H   0  0  0  0  0  0  0  0  0  0  0  0
   -2.9121    0.5386   -0.4146 H   0  0  0  0  0  0  0  0  0  0  0  0
   -1.4845    1.7563   -0.4770 H   0  0  0  0  0  0  0  0  0  0  0  0
   -0.4765    0.0862   -1.8197 H   0  0  0  0  0  0  0  0  0  0  0  0
   -1.3225   -1.3263   -0.9269 H   0  0  0  0  0  0  0  0  0  0  0  0
    1.4390   -1.5937   -1.0120 H   0  0  0  0  0  0  0  0  0  0  0  0
    2.5783   -1.7765    0.4304 H   0  0  0  0  0  0  0  0  0  0  0  0
  1  2  2  0
  2  3  1  0
  3  4  1  0
  4  5  1  0
  5  6  1  0
  3  7  1  0
  7  8  1  0
  8  1  1  0
  6  3  1  0
  1  9  1  0
  2 10  1  0
  4 11  1  0
  4 12  1  0
  5 13  1  0
  5 14  1  0
  6 15  1  0
  6 16  1  0
  8 17  1  0
  8 18  1  0
M  END
