
     RDKit          3D

 17 19  0  0  0  0  0  0  0  0999 V2000
    1.1419    1.3981    0.0125 C   0  0  0  0  0  0  0  0  0  0  0  0
   -0.0236    0.7384   -0.0705 C   0  0  0  0  0  0  0  0  0  0  0  0
   -1.4842    0.8928   -0.1552 C   0  0  0  0  0  0  0  0  0  0  0  0
   -2.0288   -0.4361    0.2427 C   0  0  0  0  0  0  0  0  0  0  0  0
   -0.8846   -1.3584    0.1078 C   0  0  0  0  0  0  0  0  0  0  0  0
    0.2430   -0.6927   -0.0674 C   0  0  0  0  0  0  0  0  0  0  0  0
    1.6819   -0.9393   -0.2478 C   0  0  0  0  0  0  0  0  0  0  0  0
    2.4274   -0.2382   -1.1543 O   0  0  0  0  0  0  0  0  0  0  0  0
    2.2652    0.4186    0.0578 C   0  0  0  0  0  0  0  0  0  0  0  0
    1.3075    2.4525    0.0448 H   0  0  0  0  0  0  0  0  0  0  0  0
   -1.8646    1.7307    0.4691 H   0  0  0  0  0  0  0  0  0  0  0  0
   -1.7206    1.0441   -1.2325 H   0  0  0  0  0  0  0  0  0  0  0  0
   -2.8627   -0.7254   -0.4633 H   0  0  0  0  0  0  0  0  0  0  0  0
   -2.4206   -0.4375    1.2987 H   0  0  0  0  0  0  0  0  0  0  0  0
   -0.9536   -2.4471    0.1465 H   0  0  0  0  0  0  0  0  0  0  0  0
    2.1557   -1.8406    0.1788 H   0  0  0  0  0  0  0  0  0  0  0  0
    3.0207    0.4399    0.8323 H   0  0  0  0  0  0  0  0  0  0  0  0
  1  2  2  0
  2  3  1  0
  3  4  1  0
  4  5  1  0
  5  6  2  0
  6  7  1  0
  7  8  1  0
  8  9  1  0
  9  1  1  0
  6  2  1  0
  9  7  1  0
  1 10  1  0
  3 11  1  0
  3 12  1  0
  4 13  1  0
  4 14  1  0
  5 15  1  0
  7 16  1  0
  9 17  1  0
M  END
