
     RDKit          3D

 23 24  0  0  0  0  0  0  0  0999 V2000
   -2.0189    1.1130    0.3127 C   0  0  0  0  0  0  0  0  0  0  0  0
   -0.7231    1.4122    0.2403 C   0  0  0  0  0  0  0  0  0  0  0  0
    0.1562    0.1980    0.1105 C   0  0  0  0  0  0  0  0  0  0  0  0
    1.6077    0.5728    0.0286 C   0  0  0  0  0  0  0  0  0  0  0  0
    2.6664   -0.4263   -0.1020 C   0  0  0  0  0  0  0  0  0  0  0  0
    2.4105    0.1798    1.2770 C   0  0  0  0  0  0  0  0  0  0  0  0
   -0.3356   -0.4801   -1.1534 C   0  0  0  0  0  0  0  0  0  0  0  0
   -1.6742   -1.0974   -0.8258 C   0  0  0  0  0  0  0  0  0  0  0  0
   -2.3472   -0.3317    0.2533 C   0  0  0  0  0  0  0  0  0  0  0  0
   -2.7561    1.8911    0.4076 H   0  0  0  0  0  0  0  0  0  0  0  0
   -0.3710    2.4191    0.2735 H   0  0  0  0  0  0  0  0  0  0  0  0
   -0.0690   -0.4266    1.0017 H   0  0  0  0  0  0  0  0  0  0  0  0
    1.7877    1.5770   -0.3977 H   0  0  0  0  0  0  0  0  0  0  0  0
    3.6282   -0.1278   -0.5509 H   0  0  0  0  0  0  0  0  0  0  0  0
    2.4698   -1.5125   -0.1863 H   0  0  0  0  0  0  0  0  0  0  0  0
    1.9339   -0.4519    2.0240 H   0  0  0  0  0  0  0  0  0  0  0  0
    3.1056    0.9675    1.6308 H   0  0  0  0  0  0  0  0  0  0  0  0
    0.4005   -1.2120   -1.5336 H   0  0  0  0  0  0  0  0  0  0  0  0
   -0.5459    0.2987   -1.9442 H   0  0  0  0  0  0  0  0  0  0  0  0
   -1.4461   -2.1608   -0.5213 H   0  0  0  0  0  0  0  0  0  0  0  0
   -2.3146   -1.1981   -1.7288 H   0  0  0  0  0  0  0  0  0  0  0  0
   -2.1174   -0.7553    1.2568 H   0  0  0  0  0  0  0  0  0  0  0  0
   -3.4474   -0.4486    0.1271 H   0  0  0  0  0  0  0  0  0  0  0  0
  1  2  2  0
  2  3  1  0
  3  4  1  0
  4  5  1  0
  5  6  1  0
  3  7  1  0
  7  8  1  0
  8  9  1  0
  9  1  1  0
  6  4  1  0
  1 10  1  0
  2 11  1  0
  3 12  1  0
  4 13  1  0
  5 14  1  0
  5 15  1  0
  6 16  1  0
  6 17  1  0
  7 18  1  0
  7 19  1  0
  8 20  1  0
  8 21  1  0
  9 22  1  0
  9 23  1  0
M  END
