
     RDKit          3D

 21 22  0  0  0  0  0  0  0  0999 V2000
    1.6756   -0.8482   -0.5081 C   0  0  0  0  0  0  0  0  0  0  0  0
    0.7345    0.1302   -0.4981 C   0  0  0  0  0  0  0  0  0  0  0  0
   -0.4891    0.1634   -1.3168 C   0  0  0  0  0  0  0  0  0  0  0  0
   -1.7997    0.1891   -0.6058 C   0  0  0  0  0  0  0  0  0  0  0  0
   -2.1967   -0.9100    0.3193 C   0  0  0  0  0  0  0  0  0  0  0  0
   -2.0306    0.5387    0.7907 C   0  0  0  0  0  0  0  0  0  0  0  0
    1.2502    1.1002    0.4975 C   0  0  0  0  0  0  0  0  0  0  0  0
    2.6619    0.9364    0.3397 O   0  0  0  0  0  0  0  0  0  0  0  0
    2.7561   -0.4771    0.4765 C   0  0  0  0  0  0  0  0  0  0  0  0
    1.6570   -1.7350   -1.1120 H   0  0  0  0  0  0  0  0  0  0  0  0
   -0.5487   -0.7510   -1.9951 H   0  0  0  0  0  0  0  0  0  0  0  0
   -0.4197    1.0629   -2.0091 H   0  0  0  0  0  0  0  0  0  0  0  0
   -2.6404    0.4345   -1.3504 H   0  0  0  0  0  0  0  0  0  0  0  0
   -1.3991   -1.5742    0.6996 H   0  0  0  0  0  0  0  0  0  0  0  0
   -3.2251   -1.3189    0.2770 H   0  0  0  0  0  0  0  0  0  0  0  0
   -1.2370    0.7675    1.5016 H   0  0  0  0  0  0  0  0  0  0  0  0
   -3.0257    1.0185    1.0642 H   0  0  0  0  0  0  0  0  0  0  0  0
    0.9986    2.1382    0.2965 H   0  0  0  0  0  0  0  0  0  0  0  0
    1.0470    0.7847    1.5633 H   0  0  0  0  0  0  0  0  0  0  0  0
    3.7311   -0.8365    0.0901 H   0  0  0  0  0  0  0  0  0  0  0  0
    2.4996   -0.8134    1.4796 H   0  0  0  0  0  0  0  0  0  0  0  0
  1  2  2  0
  2  3  1  0
  3  4  1  0
  4  5  1  0
  5  6  1  0
  2  7  1  0
  7  8  1  0
  8  9  1  0
  9  1  1  0
  6  4  1  0
  1 10  1  0
  3 11  1  0
  3 12  1  0
  4 13  1  0
  5 14  1  0
  5 15  1  0
  6 16  1  0
  6 17  1  0
  7 18  1  0
  7 19  1  0
  9 20  1  0
  9 21  1  0
M  END
