
     RDKit          3D

 19 21  0  0  0  0  0  0  0  0999 V2000
   -0.4374   -1.4754   -0.4040 C   0  0  0  0  0  0  0  0  0  0  0  0
    0.7602   -1.0123   -0.1014 C   0  0  0  0  0  0  0  0  0  0  0  0
    2.2084   -1.0282    0.1722 C   0  0  0  0  0  0  0  0  0  0  0  0
    2.1923    0.2799    0.6543 O   0  0  0  0  0  0  0  0  0  0  0  0
    0.9345    0.4148    0.1599 C   0  0  0  0  0  0  0  0  0  0  0  0
    0.4211    1.5007   -0.6350 C   0  0  0  0  0  0  0  0  0  0  0  0
   -0.1804    1.1166    0.7292 C   0  0  0  0  0  0  0  0  0  0  0  0
   -1.5364    0.4775    0.6178 C   0  0  0  0  0  0  0  0  0  0  0  0
   -1.6279   -0.5503   -0.4824 C   0  0  0  0  0  0  0  0  0  0  0  0
   -0.5417   -2.5393   -0.5947 H   0  0  0  0  0  0  0  0  0  0  0  0
    2.7727   -1.1998   -0.7503 H   0  0  0  0  0  0  0  0  0  0  0  0
    2.5456   -1.7028    0.9819 H   0  0  0  0  0  0  0  0  0  0  0  0
   -0.2083    1.4095   -1.5261 H   0  0  0  0  0  0  0  0  0  0  0  0
    1.0001    2.4681   -0.6126 H   0  0  0  0  0  0  0  0  0  0  0  0
   -0.0434    1.7795    1.5740 H   0  0  0  0  0  0  0  0  0  0  0  0
   -1.7988    0.0293    1.5894 H   0  0  0  0  0  0  0  0  0  0  0  0
   -2.2579    1.2864    0.3762 H   0  0  0  0  0  0  0  0  0  0  0  0
   -1.6907   -0.0643   -1.4627 H   0  0  0  0  0  0  0  0  0  0  0  0
   -2.5120   -1.1900   -0.2858 H   0  0  0  0  0  0  0  0  0  0  0  0
  1  2  2  0
  2  3  1  0
  3  4  1  0
  4  5  1  0
  5  6  1  0
  6  7  1  0
  7  8  1  0
  8  9  1  0
  9  1  1  0
  5  2  1  0
  7  5  1  0
  1 10  1  0
  3 11  1  0
  3 12  1  0
  6 13  1  0
  6 14  1  0
  7 15  1  0
  8 16  1  0
  8 17  1  0
  9 18  1  0
  9 19  1  0
M  END
