
     RDKit          3D

 19 21  0  0  0  0  0  0  0  0999 V2000
   -1.8807    1.0061    0.2329 C   0  0  0  0  0  0  0  0  0  0  0  0
   -0.7356    1.3606    0.7762 C   0  0  0  0  0  0  0  0  0  0  0  0
    0.2008    0.2303    0.8488 C   0  0  0  0  0  0  0  0  0  0  0  0
   -0.5665   -0.9797    0.3681 C   0  0  0  0  0  0  0  0  0  0  0  0
   -1.8523   -0.4243   -0.1302 C   0  0  0  0  0  0  0  0  0  0  0  0
    0.4543   -1.2071   -0.7545 C   0  0  0  0  0  0  0  0  0  0  0  0
    1.1281    0.0454   -0.3190 C   0  0  0  0  0  0  0  0  0  0  0  0
    2.4268    0.4407   -0.3513 C   0  0  0  0  0  0  0  0  0  0  0  0
    1.4352    1.0630   -1.1685 O   0  0  0  0  0  0  0  0  0  0  0  0
   -2.7327    1.6599    0.0688 H   0  0  0  0  0  0  0  0  0  0  0  0
   -0.5141    2.3584    1.1244 H   0  0  0  0  0  0  0  0  0  0  0  0
    0.7072    0.0887    1.8321 H   0  0  0  0  0  0  0  0  0  0  0  0
   -0.6152   -1.8056    1.1028 H   0  0  0  0  0  0  0  0  0  0  0  0
   -2.6934   -0.9766    0.3607 H   0  0  0  0  0  0  0  0  0  0  0  0
   -1.9051   -0.5562   -1.2436 H   0  0  0  0  0  0  0  0  0  0  0  0
   -0.0525   -1.1973   -1.7333 H   0  0  0  0  0  0  0  0  0  0  0  0
    1.0629   -2.0914   -0.5257 H   0  0  0  0  0  0  0  0  0  0  0  0
    3.2338   -0.1055   -0.9200 H   0  0  0  0  0  0  0  0  0  0  0  0
    2.8989    1.0908    0.4311 H   0  0  0  0  0  0  0  0  0  0  0  0
  1  2  2  0
  2  3  1  0
  3  4  1  0
  4  5  1  0
  4  6  1  0
  6  7  1  0
  7  8  1  0
  8  9  1  0
  5  1  1  0
  9  7  1  0
  7  3  1  0
  1 10  1  0
  2 11  1  0
  3 12  1  0
  4 13  1  0
  5 14  1  0
  5 15  1  0
  6 16  1  0
  6 17  1  0
  8 18  1  0
  8 19  1  0
M  END
