
     RDKit          3D

 16 17  0  0  0  0  0  0  0  0999 V2000
    1.1588    1.0512    0.3882 C   0  0  0  0  0  0  0  0  0  0  0  0
   -0.0841    0.7149    0.0963 C   0  0  0  0  0  0  0  0  0  0  0  0
   -1.5434    0.9793    0.0246 C   0  0  0  0  0  0  0  0  0  0  0  0
   -2.1477   -0.2409   -0.1794 O   0  0  0  0  0  0  0  0  0  0  0  0
   -1.2360   -1.2638    0.0398 C   0  0  0  0  0  0  0  0  0  0  0  0
    0.0252   -0.6839   -0.4889 C   0  0  0  0  0  0  0  0  0  0  0  0
    1.2029   -1.1748    0.0020 O   0  0  0  0  0  0  0  0  0  0  0  0
    2.0879   -0.0889    0.0378 C   0  0  0  0  0  0  0  0  0  0  0  0
    1.4160    2.0146    0.8139 H   0  0  0  0  0  0  0  0  0  0  0  0
   -1.7205    1.6896   -0.7894 H   0  0  0  0  0  0  0  0  0  0  0  0
   -1.9403    1.4201    0.9607 H   0  0  0  0  0  0  0  0  0  0  0  0
   -1.0856   -1.4661    1.1314 H   0  0  0  0  0  0  0  0  0  0  0  0
   -1.5897   -2.1528   -0.5018 H   0  0  0  0  0  0  0  0  0  0  0  0
    0.0897   -0.6435   -1.5896 H   0  0  0  0  0  0  0  0  0  0  0  0
    2.7271   -0.2296    0.9330 H   0  0  0  0  0  0  0  0  0  0  0  0
    2.6396    0.0746   -0.8786 H   0  0  0  0  0  0  0  0  0  0  0  0
  1  2  2  0
  2  3  1  0
  3  4  1  0
  4  5  1  0
  5  6  1  0
  6  7  1  0
  7  8  1  0
  8  1  1  0
  6  2  1  0
  1  9  1  0
  3 10  1  0
  3 11  1  0
  5 12  1  0
  5 13  1  0
  6 14  1  0
  8 15  1  0
  8 16  1  0
M  END
