
     RDKit          3D

 15 16  0  0  0  0  0  0  0  0999 V2000
    0.9951    0.9331   -0.1372 C   0  0  0  0  0  0  0  0  0  0  0  0
   -0.1880    1.5233   -0.1403 C   0  0  0  0  0  0  0  0  0  0  0  0
   -1.3492    0.7369    0.1771 C   0  0  0  0  0  0  0  0  0  0  0  0
   -2.2103    0.0298   -0.5112 O   0  0  0  0  0  0  0  0  0  0  0  0
   -1.0563   -0.5769   -0.6024 C   0  0  0  0  0  0  0  0  0  0  0  0
   -0.1431   -1.2514    0.3264 C   0  0  0  0  0  0  0  0  0  0  0  0
    1.1973   -0.5116    0.1788 C   0  0  0  0  0  0  0  0  0  0  0  0
    1.9082    1.4790   -0.3701 H   0  0  0  0  0  0  0  0  0  0  0  0
   -0.2498    2.5598   -0.3766 H   0  0  0  0  0  0  0  0  0  0  0  0
   -1.4896    0.6428    1.2850 H   0  0  0  0  0  0  0  0  0  0  0  0
   -0.5827   -0.4524   -1.6257 H   0  0  0  0  0  0  0  0  0  0  0  0
    0.0346   -2.3083    0.0639 H   0  0  0  0  0  0  0  0  0  0  0  0
   -0.4033   -1.1429    1.4140 H   0  0  0  0  0  0  0  0  0  0  0  0
    1.6800   -0.9764   -0.7125 H   0  0  0  0  0  0  0  0  0  0  0  0
    1.8571   -0.6849    1.0306 H   0  0  0  0  0  0  0  0  0  0  0  0
  1  2  2  0
  2  3  1  0
  3  4  1  0
  4  5  1  0
  5  6  1  0
  6  7  1  0
  7  1  1  0
  5  3  1  0
  1  8  1  0
  2  9  1  0
  3 10  1  0
  5 11  1  0
  6 12  1  0
  6 13  1  0
  7 14  1  0
  7 15  1  0
M  END
