
     RDKit          3D

 21 23  0  0  0  0  0  0  0  0999 V2000
   -2.1858   -0.6841   -0.1906 C   0  0  0  0  0  0  0  0  0  0  0  0
   -2.2005    0.4858    0.4256 C   0  0  0  0  0  0  0  0  0  0  0  0
   -0.9763    1.3213    0.3478 C   0  0  0  0  0  0  0  0  0  0  0  0
    0.1850    0.4594    0.7451 C   0  0  0  0  0  0  0  0  0  0  0  0
    0.2002   -0.8508    0.0298 C   0  0  0  0  0  0  0  0  0  0  0  0
   -0.9441   -1.0636   -0.9092 C   0  0  0  0  0  0  0  0  0  0  0  0
    1.5019   -0.4494   -0.6150 C   0  0  0  0  0  0  0  0  0  0  0  0
    2.6103   -0.1165    0.3230 C   0  0  0  0  0  0  0  0  0  0  0  0
    1.5033    0.8236    0.1086 C   0  0  0  0  0  0  0  0  0  0  0  0
   -3.0201   -1.3661   -0.1963 H   0  0  0  0  0  0  0  0  0  0  0  0
   -3.0440    0.8649    0.9770 H   0  0  0  0  0  0  0  0  0  0  0  0
   -1.0237    2.2066    1.0128 H   0  0  0  0  0  0  0  0  0  0  0  0
   -0.8476    1.7319   -0.6960 H   0  0  0  0  0  0  0  0  0  0  0  0
    0.2043    0.3321    1.8431 H   0  0  0  0  0  0  0  0  0  0  0  0
    0.3200   -1.7368    0.6885 H   0  0  0  0  0  0  0  0  0  0  0  0
   -0.8667   -0.4719   -1.8421 H   0  0  0  0  0  0  0  0  0  0  0  0
   -0.9506   -2.1284   -1.2143 H   0  0  0  0  0  0  0  0  0  0  0  0
    1.6603   -0.5562   -1.6853 H   0  0  0  0  0  0  0  0  0  0  0  0
    2.6565   -0.5966    1.3357 H   0  0  0  0  0  0  0  0  0  0  0  0
    3.5997   -0.0129   -0.1348 H   0  0  0  0  0  0  0  0  0  0  0  0
    1.6178    1.8077   -0.3532 H   0  0  0  0  0  0  0  0  0  0  0  0
  1  2  2  0
  2  3  1  0
  3  4  1  0
  4  5  1  0
  5  6  1  0
  5  7  1  0
  7  8  1  0
  8  9  1  0
  6  1  1  0
  9  7  1  0
  9  4  1  0
  1 10  1  0
  2 11  1  0
  3 12  1  0
  3 13  1  0
  4 14  1  0
  5 15  1  0
  6 16  1  0
  6 17  1  0
  7 18  1  0
  8 19  1  0
  8 20  1  0
  9 21  1  0
M  END
