
     RDKit          3D

 19 21  0  0  0  0  0  0  0  0999 V2000
    2.0100    0.1385    0.5508 C   0  0  0  0  0  0  0  0  0  0  0  0
    1.3575    1.2901    0.4465 C   0  0  0  0  0  0  0  0  0  0  0  0
    0.1330    1.0390   -0.2840 C   0  0  0  0  0  0  0  0  0  0  0  0
   -0.8646    1.9383   -0.4851 O   0  0  0  0  0  0  0  0  0  0  0  0
   -1.1188    1.0994    0.5555 C   0  0  0  0  0  0  0  0  0  0  0  0
   -1.7292   -0.2367    0.4254 C   0  0  0  0  0  0  0  0  0  0  0  0
   -1.1491   -0.8651   -0.8044 C   0  0  0  0  0  0  0  0  0  0  0  0
    0.2084   -0.2778   -0.9379 C   0  0  0  0  0  0  0  0  0  0  0  0
    1.2630   -0.9787   -0.1087 C   0  0  0  0  0  0  0  0  0  0  0  0
    2.9745   -0.0431    1.0422 H   0  0  0  0  0  0  0  0  0  0  0  0
    1.7404    2.2300    0.8654 H   0  0  0  0  0  0  0  0  0  0  0  0
   -1.0534    1.5774    1.5737 H   0  0  0  0  0  0  0  0  0  0  0  0
   -1.3800   -0.8596    1.3023 H   0  0  0  0  0  0  0  0  0  0  0  0
   -2.8502   -0.2425    0.4180 H   0  0  0  0  0  0  0  0  0  0  0  0
   -1.1595   -1.9723   -0.7533 H   0  0  0  0  0  0  0  0  0  0  0  0
   -1.7629   -0.5014   -1.6709 H   0  0  0  0  0  0  0  0  0  0  0  0
    0.5567   -0.1731   -1.9889 H   0  0  0  0  0  0  0  0  0  0  0  0
    1.9898   -1.4899   -0.7741 H   0  0  0  0  0  0  0  0  0  0  0  0
    0.8346   -1.6724    0.6274 H   0  0  0  0  0  0  0  0  0  0  0  0
  1  2  2  0
  2  3  1  0
  3  4  1  0
  4  5  1  0
  5  6  1  0
  6  7  1  0
  7  8  1  0
  8  9  1  0
  9  1  1  0
  5  3  1  0
  8  3  1  0
  1 10  1  0
  2 11  1  0
  5 12  1  0
  6 13  1  0
  6 14  1  0
  7 15  1  0
  7 16  1  0
  8 17  1  0
  9 18  1  0
  9 19  1  0
M  END
