
     RDKit          3D

 21 22  0  0  0  0  0  0  0  0999 V2000
   -0.3222    1.7461   -0.2845 C   0  0  0  0  0  0  0  0  0  0  0  0
    0.9645    1.4867   -0.1030 C   0  0  0  0  0  0  0  0  0  0  0  0
    1.6678    0.3718    0.5856 C   0  0  0  0  0  0  0  0  0  0  0  0
    1.6372   -0.9119   -0.1966 C   0  0  0  0  0  0  0  0  0  0  0  0
    0.8779   -0.9712   -1.3601 O   0  0  0  0  0  0  0  0  0  0  0  0
    0.4754   -1.7125   -0.1500 C   0  0  0  0  0  0  0  0  0  0  0  0
   -0.7593   -1.2005    0.4881 C   0  0  0  0  0  0  0  0  0  0  0  0
   -1.5649   -0.3335   -0.4626 C   0  0  0  0  0  0  0  0  0  0  0  0
   -1.5836    1.0675    0.1029 C   0  0  0  0  0  0  0  0  0  0  0  0
   -0.5205    2.6376   -0.8282 H   0  0  0  0  0  0  0  0  0  0  0  0
    1.5866    2.2493   -0.5532 H   0  0  0  0  0  0  0  0  0  0  0  0
    1.2859    0.2279    1.6393 H   0  0  0  0  0  0  0  0  0  0  0  0
    2.7255    0.7160    0.7270 H   0  0  0  0  0  0  0  0  0  0  0  0
    2.6283   -1.4212   -0.2965 H   0  0  0  0  0  0  0  0  0  0  0  0
    0.5425   -2.8141   -0.2704 H   0  0  0  0  0  0  0  0  0  0  0  0
   -1.4498   -2.0479    0.7711 H   0  0  0  0  0  0  0  0  0  0  0  0
   -0.5651   -0.6650    1.4633 H   0  0  0  0  0  0  0  0  0  0  0  0
   -0.9946   -0.2744   -1.4269 H   0  0  0  0  0  0  0  0  0  0  0  0
   -2.5447   -0.7351   -0.7010 H   0  0  0  0  0  0  0  0  0  0  0  0
   -1.6090    0.9597    1.2256 H   0  0  0  0  0  0  0  0  0  0  0  0
   -2.4780    1.6248   -0.1677 H   0  0  0  0  0  0  0  0  0  0  0  0
  1  2  2  3
  2  3  1  0
  3  4  1  0
  4  5  1  0
  5  6  1  0
  6  7  1  0
  7  8  1  0
  8  9  1  0
  9  1  1  0
  6  4  1  0
  1 10  1  0
  2 11  1  0
  3 12  1  0
  3 13  1  0
  4 14  1  0
  6 15  1  0
  7 16  1  0
  7 17  1  0
  8 18  1  0
  8 19  1  0
  9 20  1  0
  9 21  1  0
M  END
