
     RDKit          3D

 19 21  0  0  0  0  0  0  0  0999 V2000
   -0.9265    0.9958    0.3906 C   0  0  0  0  0  0  0  0  0  0  0  0
   -0.1482   -0.0652    0.1934 C   0  0  0  0  0  0  0  0  0  0  0  0
    1.2367   -0.3005    0.6907 C   0  0  0  0  0  0  0  0  0  0  0  0
    2.3158    0.6593    0.4718 C   0  0  0  0  0  0  0  0  0  0  0  0
    2.2367   -0.5028   -0.4413 C   0  0  0  0  0  0  0  0  0  0  0  0
   -0.8798   -0.9794   -0.6504 C   0  0  0  0  0  0  0  0  0  0  0  0
   -1.8229   -1.8583   -0.5140 O   0  0  0  0  0  0  0  0  0  0  0  0
   -2.2498   -0.7654    0.0343 C   0  0  0  0  0  0  0  0  0  0  0  0
   -2.2360    0.6978   -0.3408 C   0  0  0  0  0  0  0  0  0  0  0  0
   -0.6835    1.8889    0.9540 H   0  0  0  0  0  0  0  0  0  0  0  0
    1.2661   -1.0013    1.5547 H   0  0  0  0  0  0  0  0  0  0  0  0
    3.1693    0.6048    1.2090 H   0  0  0  0  0  0  0  0  0  0  0  0
    2.1766    1.6756    0.0860 H   0  0  0  0  0  0  0  0  0  0  0  0
    1.9309   -0.2764   -1.4762 H   0  0  0  0  0  0  0  0  0  0  0  0
    2.8426   -1.4006   -0.3361 H   0  0  0  0  0  0  0  0  0  0  0  0
   -0.8036   -0.6248   -1.7322 H   0  0  0  0  0  0  0  0  0  0  0  0
   -2.2410   -0.8355    1.1688 H   0  0  0  0  0  0  0  0  0  0  0  0
   -2.1308    0.8723   -1.4199 H   0  0  0  0  0  0  0  0  0  0  0  0
   -3.0526    1.2156    0.1578 H   0  0  0  0  0  0  0  0  0  0  0  0
  1  2  2  0
  2  3  1  0
  3  4  1  0
  4  5  1  0
  2  6  1  0
  6  7  1  0
  7  8  1  0
  8  9  1  0
  9  1  1  0
  5  3  1  0
  8  6  1  0
  1 10  1  0
  3 11  1  0
  4 12  1  0
  4 13  1  0
  5 14  1  0
  5 15  1  0
  6 16  1  0
  8 17  1  0
  9 18  1  0
  9 19  1  0
M  END
