
     RDKit          3D

 19 21  0  0  0  0  0  0  0  0999 V2000
    1.9839   -0.7940   -0.0791 C   0  0  0  0  0  0  0  0  0  0  0  0
    0.7960   -1.0520    0.4251 C   0  0  0  0  0  0  0  0  0  0  0  0
   -0.0410    0.1860    0.5687 C   0  0  0  0  0  0  0  0  0  0  0  0
   -1.4287   -0.1061    0.9766 C   0  0  0  0  0  0  0  0  0  0  0  0
   -1.9703   -0.6466   -0.3609 C   0  0  0  0  0  0  0  0  0  0  0  0
   -0.9166   -0.4323   -1.2899 O   0  0  0  0  0  0  0  0  0  0  0  0
   -0.4800    0.7960   -0.8363 C   0  0  0  0  0  0  0  0  0  0  0  0
    0.6510    1.1800   -0.0945 C   0  0  0  0  0  0  0  0  0  0  0  0
    2.0628    0.6647   -0.3272 C   0  0  0  0  0  0  0  0  0  0  0  0
    2.7850   -1.5098   -0.2867 H   0  0  0  0  0  0  0  0  0  0  0  0
    0.5209   -2.0904    0.6880 H   0  0  0  0  0  0  0  0  0  0  0  0
   -2.0183    0.7141    1.3605 H   0  0  0  0  0  0  0  0  0  0  0  0
   -1.4360   -0.9664    1.6810 H   0  0  0  0  0  0  0  0  0  0  0  0
   -2.7798    0.0433   -0.6655 H   0  0  0  0  0  0  0  0  0  0  0  0
   -2.2548   -1.6937   -0.2948 H   0  0  0  0  0  0  0  0  0  0  0  0
   -1.3745    1.4910   -0.7815 H   0  0  0  0  0  0  0  0  0  0  0  0
    0.6933    2.2332    0.3067 H   0  0  0  0  0  0  0  0  0  0  0  0
    2.7932    1.1054    0.3658 H   0  0  0  0  0  0  0  0  0  0  0  0
    2.4140    0.8777   -1.3559 H   0  0  0  0  0  0  0  0  0  0  0  0
  1  2  2  0
  2  3  1  0
  3  4  1  0
  4  5  1  0
  5  6  1  0
  6  7  1  0
  7  8  1  0
  8  9  1  0
  9  1  1  0
  7  3  1  0
  8  3  1  0
  1 10  1  0
  2 11  1  0
  4 12  1  0
  4 13  1  0
  5 14  1  0
  5 15  1  0
  7 16  1  0
  8 17  1  0
  9 18  1  0
  9 19  1  0
M  END
