
     RDKit          3D

 18 19  0  0  0  0  0  0  0  0999 V2000
   -0.1237    1.4555    0.3236 C   0  0  0  0  0  0  0  0  0  0  0  0
    0.9096    0.6743    0.0523 C   0  0  0  0  0  0  0  0  0  0  0  0
    2.3374    0.2648   -0.0208 C   0  0  0  0  0  0  0  0  0  0  0  0
    1.8973   -1.0513    0.1177 O   0  0  0  0  0  0  0  0  0  0  0  0
    0.7372   -0.6522   -0.5778 C   0  0  0  0  0  0  0  0  0  0  0  0
   -0.5092   -1.3423   -0.1881 C   0  0  0  0  0  0  0  0  0  0  0  0
   -1.5199   -0.4764    0.4618 C   0  0  0  0  0  0  0  0  0  0  0  0
   -1.5122    0.9738   -0.0009 C   0  0  0  0  0  0  0  0  0  0  0  0
    0.0740    2.4127    0.7698 H   0  0  0  0  0  0  0  0  0  0  0  0
    2.7258    0.4745   -1.0383 H   0  0  0  0  0  0  0  0  0  0  0  0
    2.9768    0.6369    0.8018 H   0  0  0  0  0  0  0  0  0  0  0  0
    0.9813   -0.6955   -1.6616 H   0  0  0  0  0  0  0  0  0  0  0  0
   -0.2412   -2.1471    0.5332 H   0  0  0  0  0  0  0  0  0  0  0  0
   -0.9480   -1.7961   -1.1092 H   0  0  0  0  0  0  0  0  0  0  0  0
   -2.5447   -0.8975    0.3466 H   0  0  0  0  0  0  0  0  0  0  0  0
   -1.2919   -0.4435    1.5663 H   0  0  0  0  0  0  0  0  0  0  0  0
   -2.1953    1.5227    0.6807 H   0  0  0  0  0  0  0  0  0  0  0  0
   -1.7533    1.0868   -1.0571 H   0  0  0  0  0  0  0  0  0  0  0  0
  1  2  2  0
  2  3  1  0
  3  4  1  0
  4  5  1  0
  5  6  1  0
  6  7  1  0
  7  8  1  0
  8  1  1  0
  5  2  1  0
  1  9  1  0
  3 10  1  0
  3 11  1  0
  5 12  1  0
  6 13  1  0
  6 14  1  0
  7 15  1  0
  7 16  1  0
  8 17  1  0
  8 18  1  0
M  END
