
     RDKit          3D

 17 19  0  0  0  0  0  0  0  0999 V2000
    1.2033    1.1889   -0.0838 C   0  0  0  0  0  0  0  0  0  0  0  0
    1.8026    0.0135    0.0263 C   0  0  0  0  0  0  0  0  0  0  0  0
    0.7966   -1.0096   -0.4497 C   0  0  0  0  0  0  0  0  0  0  0  0
    0.1992   -0.2990   -1.5006 O   0  0  0  0  0  0  0  0  0  0  0  0
   -0.0481    0.9338   -0.8511 C   0  0  0  0  0  0  0  0  0  0  0  0
   -1.2133    0.8176    0.0727 C   0  0  0  0  0  0  0  0  0  0  0  0
   -1.3740   -0.5216    0.7097 C   0  0  0  0  0  0  0  0  0  0  0  0
   -1.5030   -1.6669   -0.0420 O   0  0  0  0  0  0  0  0  0  0  0  0
   -0.1945   -1.3359    0.6110 C   0  0  0  0  0  0  0  0  0  0  0  0
    1.5124    2.1523    0.2843 H   0  0  0  0  0  0  0  0  0  0  0  0
    2.8021   -0.1473    0.3847 H   0  0  0  0  0  0  0  0  0  0  0  0
    1.2983   -1.8774   -0.9048 H   0  0  0  0  0  0  0  0  0  0  0  0
   -0.1918    1.6698   -1.6623 H   0  0  0  0  0  0  0  0  0  0  0  0
   -1.0766    1.5637    0.8917 H   0  0  0  0  0  0  0  0  0  0  0  0
   -2.1297    1.1561   -0.4799 H   0  0  0  0  0  0  0  0  0  0  0  0
   -1.9381   -0.5223    1.6598 H   0  0  0  0  0  0  0  0  0  0  0  0
    0.0547   -2.1158    1.3340 H   0  0  0  0  0  0  0  0  0  0  0  0
  1  2  2  0
  2  3  1  0
  3  4  1  0
  4  5  1  0
  5  6  1  0
  6  7  1  0
  7  8  1  0
  8  9  1  0
  5  1  1  0
  9  7  1  0
  9  3  1  0
  1 10  1  0
  2 11  1  0
  3 12  1  0
  5 13  1  0
  6 14  1  0
  6 15  1  0
  7 16  1  0
  9 17  1  0
M  END
