
     RDKit          3D

 21 22  0  0  0  0  0  0  0  0999 V2000
   -2.8437   -0.3809   -0.0167 C   0  0  0  0  0  0  0  0  0  0  0  0
   -1.9035   -0.8005    0.8102 C   0  0  0  0  0  0  0  0  0  0  0  0
   -0.7555    0.1356    0.6710 C   0  0  0  0  0  0  0  0  0  0  0  0
    0.5025   -0.6932    0.7600 C   0  0  0  0  0  0  0  0  0  0  0  0
    1.7566    0.0928    0.6387 C   0  0  0  0  0  0  0  0  0  0  0  0
    2.1087    0.9001   -0.5319 C   0  0  0  0  0  0  0  0  0  0  0  0
    2.7649   -0.4338   -0.3941 C   0  0  0  0  0  0  0  0  0  0  0  0
   -0.9434    0.7044   -0.5633 O   0  0  0  0  0  0  0  0  0  0  0  0
   -2.3344    0.8502   -0.7256 C   0  0  0  0  0  0  0  0  0  0  0  0
   -3.8325   -0.8293   -0.1806 H   0  0  0  0  0  0  0  0  0  0  0  0
   -1.9848   -1.6825    1.4669 H   0  0  0  0  0  0  0  0  0  0  0  0
   -0.7795    0.9167    1.4775 H   0  0  0  0  0  0  0  0  0  0  0  0
    0.4339   -1.4615   -0.0476 H   0  0  0  0  0  0  0  0  0  0  0  0
    0.5015   -1.2489    1.7142 H   0  0  0  0  0  0  0  0  0  0  0  0
    2.1888    0.4156    1.6296 H   0  0  0  0  0  0  0  0  0  0  0  0
    1.4044    1.0662   -1.3648 H   0  0  0  0  0  0  0  0  0  0  0  0
    2.8166    1.7617   -0.3659 H   0  0  0  0  0  0  0  0  0  0  0  0
    2.4487   -1.2871   -1.0193 H   0  0  0  0  0  0  0  0  0  0  0  0
    3.7998   -0.5301   -0.0196 H   0  0  0  0  0  0  0  0  0  0  0  0
   -2.6405    0.7425   -1.7834 H   0  0  0  0  0  0  0  0  0  0  0  0
   -2.7085    1.7620   -0.2496 H   0  0  0  0  0  0  0  0  0  0  0  0
  1  2  2  0
  2  3  1  0
  3  4  1  0
  4  5  1  0
  5  6  1  0
  6  7  1  0
  3  8  1  0
  8  9  1  0
  9  1  1  0
  7  5  1  0
  1 10  1  0
  2 11  1  0
  3 12  1  0
  4 13  1  0
  4 14  1  0
  5 15  1  0
  6 16  1  0
  6 17  1  0
  7 18  1  0
  7 19  1  0
  9 20  1  0
  9 21  1  0
M  END
