
     RDKit          3D

 14 16  0  0  0  0  0  0  0  0999 V2000
   -0.5701    1.2898    0.2648 C   0  0  0  0  0  0  0  0  0  0  0  0
    0.5814    0.7104    0.1545 C   0  0  0  0  0  0  0  0  0  0  0  0
    1.9633    0.1744    0.0386 C   0  0  0  0  0  0  0  0  0  0  0  0
    1.3556   -0.9909    0.6711 O   0  0  0  0  0  0  0  0  0  0  0  0
    0.3720   -0.7577   -0.2625 C   0  0  0  0  0  0  0  0  0  0  0  0
   -1.0464   -0.9883   -0.0654 C   0  0  0  0  0  0  0  0  0  0  0  0
   -1.6259   -0.7332    1.1468 O   0  0  0  0  0  0  0  0  0  0  0  0
   -1.7018    0.3201    0.2280 C   0  0  0  0  0  0  0  0  0  0  0  0
   -0.7149    2.3590    0.3726 H   0  0  0  0  0  0  0  0  0  0  0  0
    2.7250    0.6293    0.6630 H   0  0  0  0  0  0  0  0  0  0  0  0
    2.2161   -0.1275   -0.9785 H   0  0  0  0  0  0  0  0  0  0  0  0
    0.7709   -0.9093   -1.3070 H   0  0  0  0  0  0  0  0  0  0  0  0
   -1.6461   -1.5824   -0.8226 H   0  0  0  0  0  0  0  0  0  0  0  0
   -2.6791    0.6063   -0.1033 H   0  0  0  0  0  0  0  0  0  0  0  0
  1  2  2  0
  2  3  1  0
  3  4  1  0
  4  5  1  0
  5  6  1  0
  6  7  1  0
  7  8  1  0
  8  1  1  0
  5  2  1  0
  8  6  1  0
  1  9  1  0
  3 10  1  0
  3 11  1  0
  5 12  1  0
  6 13  1  0
  8 14  1  0
M  END
