
     RDKit          3D

 21 22  0  0  0  0  0  0  0  0999 V2000
    0.5772    1.4597   -0.1686 C   0  0  0  0  0  0  0  0  0  0  0  0
   -0.5626    0.7884   -0.1855 C   0  0  0  0  0  0  0  0  0  0  0  0
   -2.0161    0.9571    0.0370 C   0  0  0  0  0  0  0  0  0  0  0  0
   -2.1337   -0.5617    0.1530 C   0  0  0  0  0  0  0  0  0  0  0  0
   -0.7910   -0.6318   -0.4952 C   0  0  0  0  0  0  0  0  0  0  0  0
    0.1900   -1.5551    0.1982 C   0  0  0  0  0  0  0  0  0  0  0  0
    1.4892   -1.3518   -0.1940 O   0  0  0  0  0  0  0  0  0  0  0  0
    2.1135   -0.3014    0.4334 C   0  0  0  0  0  0  0  0  0  0  0  0
    1.9273    0.9262   -0.4650 C   0  0  0  0  0  0  0  0  0  0  0  0
    0.5197    2.5059    0.0879 H   0  0  0  0  0  0  0  0  0  0  0  0
   -2.5796    1.3776   -0.8085 H   0  0  0  0  0  0  0  0  0  0  0  0
   -2.2596    1.4923    0.9707 H   0  0  0  0  0  0  0  0  0  0  0  0
   -2.2001   -0.9044    1.1894 H   0  0  0  0  0  0  0  0  0  0  0  0
   -2.9399   -0.9248   -0.5222 H   0  0  0  0  0  0  0  0  0  0  0  0
   -0.7734   -0.8045   -1.5812 H   0  0  0  0  0  0  0  0  0  0  0  0
   -0.1005   -2.5962   -0.1258 H   0  0  0  0  0  0  0  0  0  0  0  0
    0.0462   -1.5565    1.3046 H   0  0  0  0  0  0  0  0  0  0  0  0
    1.6543   -0.0965    1.4452 H   0  0  0  0  0  0  0  0  0  0  0  0
    3.1954   -0.4330    0.5911 H   0  0  0  0  0  0  0  0  0  0  0  0
    2.7271    1.6495   -0.3436 H   0  0  0  0  0  0  0  0  0  0  0  0
    1.9166    0.5609   -1.5207 H   0  0  0  0  0  0  0  0  0  0  0  0
  1  2  2  0
  2  3  1  0
  3  4  1  0
  4  5  1  0
  5  6  1  0
  6  7  1  0
  7  8  1  0
  8  9  1  0
  9  1  1  0
  5  2  1  0
  1 10  1  0
  3 11  1  0
  3 12  1  0
  4 13  1  0
  4 14  1  0
  5 15  1  0
  6 16  1  0
  6 17  1  0
  8 18  1  0
  8 19  1  0
  9 20  1  0
  9 21  1  0
M  END
