
     RDKit          3D

 19 21  0  0  0  0  0  0  0  0999 V2000
    1.8874    0.5753   -0.7721 C   0  0  0  0  0  0  0  0  0  0  0  0
    0.7649    1.2684   -0.8280 C   0  0  0  0  0  0  0  0  0  0  0  0
   -0.2266    0.6703    0.0382 C   0  0  0  0  0  0  0  0  0  0  0  0
   -1.5151    1.2561    0.4039 C   0  0  0  0  0  0  0  0  0  0  0  0
   -1.4624    0.1341   -0.5783 C   0  0  0  0  0  0  0  0  0  0  0  0
   -1.5019   -1.2634   -0.1460 C   0  0  0  0  0  0  0  0  0  0  0  0
   -0.4767   -1.5754    0.6366 C   0  0  0  0  0  0  0  0  0  0  0  0
    0.4084   -0.4028    0.8391 C   0  0  0  0  0  0  0  0  0  0  0  0
    1.7310   -0.5705    0.1599 C   0  0  0  0  0  0  0  0  0  0  0  0
    2.8290    0.7565   -1.3019 H   0  0  0  0  0  0  0  0  0  0  0  0
    0.6398    2.1443   -1.4385 H   0  0  0  0  0  0  0  0  0  0  0  0
   -1.9226    0.9961    1.4057 H   0  0  0  0  0  0  0  0  0  0  0  0
   -1.8078    2.2431    0.0461 H   0  0  0  0  0  0  0  0  0  0  0  0
   -1.6584    0.4046   -1.6353 H   0  0  0  0  0  0  0  0  0  0  0  0
   -2.2666   -1.9801   -0.4183 H   0  0  0  0  0  0  0  0  0  0  0  0
   -0.2555   -2.5505    1.1033 H   0  0  0  0  0  0  0  0  0  0  0  0
    0.4988   -0.1089    1.9088 H   0  0  0  0  0  0  0  0  0  0  0  0
    2.5208   -0.4508    0.9370 H   0  0  0  0  0  0  0  0  0  0  0  0
    1.8134   -1.5462   -0.3601 H   0  0  0  0  0  0  0  0  0  0  0  0
  1  2  2  0
  2  3  1  0
  3  4  1  0
  4  5  1  0
  5  6  1  0
  6  7  2  0
  7  8  1  0
  8  9  1  0
  9  1  1  0
  5  3  1  0
  8  3  1  0
  1 10  1  0
  2 11  1  0
  4 12  1  0
  4 13  1  0
  5 14  1  0
  6 15  1  0
  7 16  1  0
  8 17  1  0
  9 18  1  0
  9 19  1  0
M  END
