
     RDKit          3D

 21 21  0  0  0  0  0  0  0  0999 V2000
   -1.6034    1.4878    0.5823 C   0  0  0  0  0  0  0  0  0  0  0  0
   -2.1623    0.3427    0.2878 C   0  0  0  0  0  0  0  0  0  0  0  0
   -1.3735   -0.8610   -0.1452 C   0  0  0  0  0  0  0  0  0  0  0  0
   -0.4660   -1.1264    0.8487 O   0  0  0  0  0  0  0  0  0  0  0  0
    0.6399   -1.7674    0.3090 C   0  0  0  0  0  0  0  0  0  0  0  0
    1.4977   -0.8688   -0.5352 C   0  0  0  0  0  0  0  0  0  0  0  0
    1.6932    0.4790    0.1598 C   0  0  0  0  0  0  0  0  0  0  0  0
    0.6223    0.7429    1.0102 O   0  0  0  0  0  0  0  0  0  0  0  0
   -0.1642    1.7904    0.5443 C   0  0  0  0  0  0  0  0  0  0  0  0
   -2.2755    2.3088    0.8895 H   0  0  0  0  0  0  0  0  0  0  0  0
   -3.2503    0.2385    0.3541 H   0  0  0  0  0  0  0  0  0  0  0  0
   -0.8987   -0.6650   -1.1375 H   0  0  0  0  0  0  0  0  0  0  0  0
   -2.0227   -1.7266   -0.2722 H   0  0  0  0  0  0  0  0  0  0  0  0
    0.2848   -2.5927   -0.3281 H   0  0  0  0  0  0  0  0  0  0  0  0
    1.2648   -2.1075    1.1623 H   0  0  0  0  0  0  0  0  0  0  0  0
    2.4798   -1.3700   -0.6645 H   0  0  0  0  0  0  0  0  0  0  0  0
    1.1011   -0.6762   -1.5392 H   0  0  0  0  0  0  0  0  0  0  0  0
    2.6153    0.3613    0.7895 H   0  0  0  0  0  0  0  0  0  0  0  0
    1.8389    1.2879   -0.5891 H   0  0  0  0  0  0  0  0  0  0  0  0
    0.0776    2.6688    1.1779 H   0  0  0  0  0  0  0  0  0  0  0  0
    0.1011    2.0534   -0.5137 H   0  0  0  0  0  0  0  0  0  0  0  0
  1  2  2  3
  2  3  1  0
  3  4  1  0
  4  5  1  0
  5  6  1  0
  6  7  1  0
  7  8  1  0
  8  9  1  0
  9  1  1  0
  1 10  1  0
  2 11  1  0
  3 12  1  0
  3 13  1  0
  5 14  1  0
  5 15  1  0
  6 16  1  0
  6 17  1  0
  7 18  1  0
  7 19  1  0
  9 20  1  0
  9 21  1  0
M  END
