
     RDKit          3D

 19 21  0  0  0  0  0  0  0  0999 V2000
    1.6814    0.4128    0.7696 C   0  0  0  0  0  0  0  0  0  0  0  0
    1.1255    1.3582    0.0237 C   0  0  0  0  0  0  0  0  0  0  0  0
   -0.1657    1.1427   -0.6408 C   0  0  0  0  0  0  0  0  0  0  0  0
   -1.3203    1.1076    0.2804 C   0  0  0  0  0  0  0  0  0  0  0  0
   -1.8646   -0.0943    0.3504 C   0  0  0  0  0  0  0  0  0  0  0  0
   -1.1475   -1.0624   -0.5243 C   0  0  0  0  0  0  0  0  0  0  0  0
    0.3085   -1.2913   -0.3225 C   0  0  0  0  0  0  0  0  0  0  0  0
    0.9823   -0.8787    0.9322 C   0  0  0  0  0  0  0  0  0  0  0  0
   -0.1409   -0.2322   -1.2470 C   0  0  0  0  0  0  0  0  0  0  0  0
    2.6496    0.6166    1.2477 H   0  0  0  0  0  0  0  0  0  0  0  0
    1.6437    2.3087   -0.0923 H   0  0  0  0  0  0  0  0  0  0  0  0
   -0.3098    1.8594   -1.4773 H   0  0  0  0  0  0  0  0  0  0  0  0
   -1.7213    1.9598    0.8658 H   0  0  0  0  0  0  0  0  0  0  0  0
   -2.7210   -0.3488    0.9627 H   0  0  0  0  0  0  0  0  0  0  0  0
   -1.7357   -1.8514   -1.0284 H   0  0  0  0  0  0  0  0  0  0  0  0
    0.7119   -2.2063   -0.8014 H   0  0  0  0  0  0  0  0  0  0  0  0
    0.2988   -0.8347    1.8112 H   0  0  0  0  0  0  0  0  0  0  0  0
    1.7671   -1.6360    1.2380 H   0  0  0  0  0  0  0  0  0  0  0  0
   -0.0421   -0.3298   -2.3476 H   0  0  0  0  0  0  0  0  0  0  0  0
  1  2  2  0
  2  3  1  0
  3  4  1  0
  4  5  2  0
  5  6  1  0
  6  7  1  0
  7  8  1  0
  7  9  1  0
  8  1  1  0
  9  3  1  0
  9  6  1  0
  1 10  1  0
  2 11  1  0
  3 12  1  0
  4 13  1  0
  5 14  1  0
  6 15  1  0
  7 16  1  0
  8 17  1  0
  8 18  1  0
  9 19  1  0
M  END
