
     RDKit          2D

 17 20  0  0  0  0  0  0  0  0999 V2000
   -0.1718    4.6226    0.0000 C   0  0  0  0  0  0  0  0  0  0  0  0
   -1.5722    4.0851    0.0000 C   0  0  0  0  0  0  0  0  0  0  0  0
   -1.4937    2.5871    0.0000 C   0  0  0  0  0  0  0  0  0  0  0  0
   -0.0448    2.1989    0.0000 C   0  0  0  0  0  0  0  0  0  0  0  0
    0.7722    3.4569    0.0000 C   0  0  0  0  0  0  0  0  0  0  0  0
   -1.8819    1.1382    0.0000 C   0  0  0  0  0  0  0  0  0  0  0  0
   -0.4330    0.7500    0.0000 C   0  0  0  0  0  0  0  0  0  0  0  0
    0.8660    0.0000    0.0000 C   0  0  0  0  0  0  0  0  0  0  0  0
   -0.4330   -0.7500    0.0000 O   0  0  0  0  0  0  0  0  0  0  0  0
    0.2164    6.0715    0.0000 H   0  0  0  0  0  0  0  0  0  0  0  0
   -2.8302    4.9020    0.0000 H   0  0  0  0  0  0  0  0  0  0  0  0
   -2.9855    2.7439    0.0000 H   0  0  0  0  0  0  0  0  0  0  0  0
    1.3897    1.7604    0.0000 H   0  0  0  0  0  0  0  0  0  0  0  0
    2.2701    3.5354    0.0000 H   0  0  0  0  0  0  0  0  0  0  0  0
   -3.1809    0.3882    0.0000 H   0  0  0  0  0  0  0  0  0  0  0  0
    1.9631    1.0230    0.0000 H   0  0  0  0  0  0  0  0  0  0  0  0
    1.8302   -1.1491    0.0000 H   0  0  0  0  0  0  0  0  0  0  0  0
  1  2  2  0
  2  3  1  0
  3  4  1  0
  4  5  1  0
  5  6  1  0
  6  7  1  0
  7  8  1  0
  8  9  1  0
  5  1  1  0
  9  7  1  0
  6  3  1  0
  7  4  1  0
  1 10  1  0
  2 11  1  0
  3 12  1  0
  4 13  1  0
  5 14  1  0
  6 15  1  0
  8 16  1  0
  8 17  1  0
M  END
