
     RDKit          3D

 19 21  0  0  0  0  0  0  0  0999 V2000
    1.2097    1.1791    0.1834 C   0  0  0  0  0  0  0  0  0  0  0  0
    1.5916    0.0010    0.6724 C   0  0  0  0  0  0  0  0  0  0  0  0
    1.1126   -1.1803   -0.1318 C   0  0  0  0  0  0  0  0  0  0  0  0
    1.1887   -0.7757   -1.4695 O   0  0  0  0  0  0  0  0  0  0  0  0
   -0.0626   -0.2005   -1.3416 C   0  0  0  0  0  0  0  0  0  0  0  0
   -0.0664    1.1085   -0.6218 C   0  0  0  0  0  0  0  0  0  0  0  0
   -1.1762    0.9544    0.4298 C   0  0  0  0  0  0  0  0  0  0  0  0
   -1.1822   -0.5100    0.7570 C   0  0  0  0  0  0  0  0  0  0  0  0
   -0.3662   -1.2245   -0.2653 C   0  0  0  0  0  0  0  0  0  0  0  0
    1.7453    2.1025    0.3366 H   0  0  0  0  0  0  0  0  0  0  0  0
    2.1904   -0.1236    1.5623 H   0  0  0  0  0  0  0  0  0  0  0  0
    1.6468   -2.0877    0.1275 H   0  0  0  0  0  0  0  0  0  0  0  0
   -0.7087   -0.2694   -2.2368 H   0  0  0  0  0  0  0  0  0  0  0  0
   -0.2088    1.9867   -1.2474 H   0  0  0  0  0  0  0  0  0  0  0  0
   -2.1376    1.3409    0.0642 H   0  0  0  0  0  0  0  0  0  0  0  0
   -0.8907    1.4990    1.3589 H   0  0  0  0  0  0  0  0  0  0  0  0
   -0.9227   -0.7412    1.8008 H   0  0  0  0  0  0  0  0  0  0  0  0
   -2.2473   -0.8600    0.6300 H   0  0  0  0  0  0  0  0  0  0  0  0
   -0.7155   -2.1993   -0.6086 H   0  0  0  0  0  0  0  0  0  0  0  0
  1  2  2  0
  2  3  1  0
  3  4  1  0
  4  5  1  0
  5  6  1  0
  6  7  1  0
  7  8  1  0
  8  9  1  0
  6  1  1  0
  9  3  1  0
  9  5  1  0
  1 10  1  0
  2 11  1  0
  3 12  1  0
  5 13  1  0
  6 14  1  0
  7 15  1  0
  7 16  1  0
  8 17  1  0
  8 18  1  0
  9 19  1  0
M  END
