
     RDKit          3D

 17 19  0  0  0  0  0  0  0  0999 V2000
   -0.1321   -1.0195    0.9974 C   0  0  0  0  0  0  0  0  0  0  0  0
    0.9386   -0.3251    0.6968 C   0  0  0  0  0  0  0  0  0  0  0  0
    2.2733    0.3647    0.5871 C   0  0  0  0  0  0  0  0  0  0  0  0
    1.9525    0.3735   -0.8350 O   0  0  0  0  0  0  0  0  0  0  0  0
    0.6282    0.5629   -0.5008 C   0  0  0  0  0  0  0  0  0  0  0  0
   -0.4298   -0.1853   -1.1890 C   0  0  0  0  0  0  0  0  0  0  0  0
   -1.6098    0.5303   -1.4367 O   0  0  0  0  0  0  0  0  0  0  0  0
   -1.8767    0.4572   -0.0660 C   0  0  0  0  0  0  0  0  0  0  0  0
   -1.1715   -0.8351   -0.0256 C   0  0  0  0  0  0  0  0  0  0  0  0
   -0.2051   -1.6359    1.8897 H   0  0  0  0  0  0  0  0  0  0  0  0
    3.1543   -0.2787    0.7550 H   0  0  0  0  0  0  0  0  0  0  0  0
    2.3156    1.3645    1.0069 H   0  0  0  0  0  0  0  0  0  0  0  0
    0.4186    1.6214   -0.2337 H   0  0  0  0  0  0  0  0  0  0  0  0
   -0.1821   -0.8408   -2.0203 H   0  0  0  0  0  0  0  0  0  0  0  0
   -1.3719    1.2501    0.5143 H   0  0  0  0  0  0  0  0  0  0  0  0
   -2.9619    0.3383    0.1699 H   0  0  0  0  0  0  0  0  0  0  0  0
   -1.7403   -1.7424   -0.3102 H   0  0  0  0  0  0  0  0  0  0  0  0
  1  2  2  0
  2  3  1  0
  3  4  1  0
  4  5  1  0
  5  6  1  0
  6  7  1  0
  7  8  1  0
  8  9  1  0
  9  1  1  0
  5  2  1  0
  9  6  1  0
  1 10  1  0
  3 11  1  0
  3 12  1  0
  5 13  1  0
  6 14  1  0
  8 15  1  0
  8 16  1  0
  9 17  1  0
M  END
