
     RDKit          3D

 23 24  0  0  0  0  0  0  0  0999 V2000
    2.8163    0.4159   -0.6586 C   0  0  0  0  0  0  0  0  0  0  0  0
    1.6215    0.8671   -1.0146 C   0  0  0  0  0  0  0  0  0  0  0  0
    0.5437    0.0121   -0.3927 C   0  0  0  0  0  0  0  0  0  0  0  0
   -0.6176    0.8892   -0.0739 C   0  0  0  0  0  0  0  0  0  0  0  0
   -1.7497    0.1326    0.5515 C   0  0  0  0  0  0  0  0  0  0  0  0
   -2.3498   -0.9672   -0.2352 C   0  0  0  0  0  0  0  0  0  0  0  0
   -3.1225    0.2717    0.0410 C   0  0  0  0  0  0  0  0  0  0  0  0
    1.3041   -0.4310    0.8632 C   0  0  0  0  0  0  0  0  0  0  0  0
    2.6347   -0.7643    0.2199 C   0  0  0  0  0  0  0  0  0  0  0  0
    3.7563    0.8578   -0.9736 H   0  0  0  0  0  0  0  0  0  0  0  0
    1.4304    1.7032   -1.6423 H   0  0  0  0  0  0  0  0  0  0  0  0
    0.2849   -0.8353   -1.0252 H   0  0  0  0  0  0  0  0  0  0  0  0
   -0.2702    1.7109    0.6117 H   0  0  0  0  0  0  0  0  0  0  0  0
   -0.9111    1.4147   -1.0133 H   0  0  0  0  0  0  0  0  0  0  0  0
   -1.6558    0.0130    1.6565 H   0  0  0  0  0  0  0  0  0  0  0  0
   -2.6269   -1.8791    0.3316 H   0  0  0  0  0  0  0  0  0  0  0  0
   -2.0879   -1.1505   -1.2738 H   0  0  0  0  0  0  0  0  0  0  0  0
   -3.9787    0.1840    0.7475 H   0  0  0  0  0  0  0  0  0  0  0  0
   -3.3089    1.0219   -0.7753 H   0  0  0  0  0  0  0  0  0  0  0  0
    0.8322   -1.3103    1.3356 H   0  0  0  0  0  0  0  0  0  0  0  0
    1.4502    0.4255    1.5199 H   0  0  0  0  0  0  0  0  0  0  0  0
    2.5612   -1.7129   -0.3792 H   0  0  0  0  0  0  0  0  0  0  0  0
    3.4438   -0.8689    0.9695 H   0  0  0  0  0  0  0  0  0  0  0  0
  1  2  2  0
  2  3  1  0
  3  4  1  0
  4  5  1  0
  5  6  1  0
  6  7  1  0
  3  8  1  0
  8  9  1  0
  9  1  1  0
  7  5  1  0
  1 10  1  0
  2 11  1  0
  3 12  1  0
  4 13  1  0
  4 14  1  0
  5 15  1  0
  6 16  1  0
  6 17  1  0
  7 18  1  0
  7 19  1  0
  8 20  1  0
  8 21  1  0
  9 22  1  0
  9 23  1  0
M  END
