
     RDKit          3D

 21 23  0  0  0  0  0  0  0  0999 V2000
   -0.4606   -0.5576    1.2755 C   0  0  0  0  0  0  0  0  0  0  0  0
    0.0978   -0.5183    0.0716 C   0  0  0  0  0  0  0  0  0  0  0  0
    1.5893   -0.6199   -0.1257 C   0  0  0  0  0  0  0  0  0  0  0  0
    2.3906    0.3943    0.7265 C   0  0  0  0  0  0  0  0  0  0  0  0
    2.3260    0.4741   -0.7759 C   0  0  0  0  0  0  0  0  0  0  0  0
   -0.9667   -0.4103   -0.8958 C   0  0  0  0  0  0  0  0  0  0  0  0
   -1.8168    0.5508   -1.4416 C   0  0  0  0  0  0  0  0  0  0  0  0
   -1.8156    0.5929   -0.0458 C   0  0  0  0  0  0  0  0  0  0  0  0
   -1.9597   -0.4209    1.0565 C   0  0  0  0  0  0  0  0  0  0  0  0
    0.0047   -0.6620    2.2273 H   0  0  0  0  0  0  0  0  0  0  0  0
    1.9913   -1.6399   -0.1598 H   0  0  0  0  0  0  0  0  0  0  0  0
    1.8055    1.1049    1.3398 H   0  0  0  0  0  0  0  0  0  0  0  0
    3.2680   -0.0088    1.2306 H   0  0  0  0  0  0  0  0  0  0  0  0
    1.7906    1.3466   -1.2475 H   0  0  0  0  0  0  0  0  0  0  0  0
    3.2862    0.2011   -1.2746 H   0  0  0  0  0  0  0  0  0  0  0  0
   -1.3824   -1.4708   -0.9967 H   0  0  0  0  0  0  0  0  0  0  0  0
   -2.7807    0.2574   -1.9492 H   0  0  0  0  0  0  0  0  0  0  0  0
   -1.3675    1.3856   -2.0389 H   0  0  0  0  0  0  0  0  0  0  0  0
   -1.2468    1.4742    0.3944 H   0  0  0  0  0  0  0  0  0  0  0  0
   -2.4701   -0.0641    1.9464 H   0  0  0  0  0  0  0  0  0  0  0  0
   -2.2832   -1.4095    0.6831 H   0  0  0  0  0  0  0  0  0  0  0  0
  1  2  2  0
  2  3  1  0
  3  4  1  0
  4  5  1  0
  2  6  1  0
  6  7  1  0
  7  8  1  0
  8  9  1  0
  9  1  1  0
  5  3  1  0
  8  6  1  0
  1 10  1  0
  3 11  1  0
  4 12  1  0
  4 13  1  0
  5 14  1  0
  5 15  1  0
  6 16  1  0
  7 17  1  0
  7 18  1  0
  8 19  1  0
  9 20  1  0
  9 21  1  0
M  END
