
     RDKit          3D

 17 19  0  0  0  0  0  0  0  0999 V2000
    1.5032    0.4351   -0.7371 C   0  0  0  0  0  0  0  0  0  0  0  0
    0.2705    0.0875   -0.4554 C   0  0  0  0  0  0  0  0  0  0  0  0
    0.2797   -0.0442    1.0700 C   0  0  0  0  0  0  0  0  0  0  0  0
   -0.7044   -1.1598    0.8281 C   0  0  0  0  0  0  0  0  0  0  0  0
   -1.1169   -0.2885   -0.3345 C   0  0  0  0  0  0  0  0  0  0  0  0
   -2.3006    0.0540   -0.8333 C   0  0  0  0  0  0  0  0  0  0  0  0
   -1.8942    0.8656    0.2455 O   0  0  0  0  0  0  0  0  0  0  0  0
    1.5827   -0.3621    1.3640 O   0  0  0  0  0  0  0  0  0  0  0  0
    2.3198    0.5342    0.5305 C   0  0  0  0  0  0  0  0  0  0  0  0
    1.9502    0.6414   -1.7283 H   0  0  0  0  0  0  0  0  0  0  0  0
   -0.1615    0.8289    1.5570 H   0  0  0  0  0  0  0  0  0  0  0  0
   -1.4457   -1.3499    1.5939 H   0  0  0  0  0  0  0  0  0  0  0  0
   -0.1623   -2.0594    0.4182 H   0  0  0  0  0  0  0  0  0  0  0  0
   -2.4514    0.6392   -1.7537 H   0  0  0  0  0  0  0  0  0  0  0  0
   -3.2273   -0.5512   -0.5937 H   0  0  0  0  0  0  0  0  0  0  0  0
    2.2192    1.5572    0.8926 H   0  0  0  0  0  0  0  0  0  0  0  0
    3.3390    0.1720    0.3957 H   0  0  0  0  0  0  0  0  0  0  0  0
  1  2  2  0
  2  3  1  0
  3  4  1  0
  4  5  1  0
  5  6  1  0
  6  7  1  0
  3  8  1  0
  8  9  1  0
  9  1  1  0
  5  2  1  0
  7  5  1  0
  1 10  1  0
  3 11  1  0
  4 12  1  0
  4 13  1  0
  6 14  1  0
  6 15  1  0
  9 16  1  0
  9 17  1  0
M  END
