
     RDKit          3D

 17 19  0  0  0  0  0  0  0  0999 V2000
    0.2298    0.1841   -1.2194 C   0  0  0  0  0  0  0  0  0  0  0  0
   -0.9888    0.2701   -0.7546 C   0  0  0  0  0  0  0  0  0  0  0  0
   -2.4116    0.4160   -0.3785 C   0  0  0  0  0  0  0  0  0  0  0  0
   -2.1837   -0.6310    0.5700 O   0  0  0  0  0  0  0  0  0  0  0  0
   -0.9433   -0.0701    0.7389 C   0  0  0  0  0  0  0  0  0  0  0  0
    0.2613   -0.9535    0.8468 C   0  0  0  0  0  0  0  0  0  0  0  0
    1.1862   -0.2801   -0.1490 C   0  0  0  0  0  0  0  0  0  0  0  0
    2.3441    0.4582    0.1014 C   0  0  0  0  0  0  0  0  0  0  0  0
    2.3391   -0.8864   -0.5735 O   0  0  0  0  0  0  0  0  0  0  0  0
    0.5231    0.4140   -2.2378 H   0  0  0  0  0  0  0  0  0  0  0  0
   -3.1545    0.1645   -1.1362 H   0  0  0  0  0  0  0  0  0  0  0  0
   -2.6319    1.3807    0.0859 H   0  0  0  0  0  0  0  0  0  0  0  0
   -0.9302    0.8380    1.3725 H   0  0  0  0  0  0  0  0  0  0  0  0
    0.6717   -0.9808    1.8637 H   0  0  0  0  0  0  0  0  0  0  0  0
    0.0191   -1.9917    0.5468 H   0  0  0  0  0  0  0  0  0  0  0  0
    2.6477    1.2587   -0.6320 H   0  0  0  0  0  0  0  0  0  0  0  0
    3.0218    0.4094    0.9549 H   0  0  0  0  0  0  0  0  0  0  0  0
  1  2  2  0
  2  3  1  0
  3  4  1  0
  4  5  1  0
  5  6  1  0
  6  7  1  0
  7  8  1  0
  8  9  1  0
  7  1  1  0
  5  2  1  0
  9  7  1  0
  1 10  1  0
  3 11  1  0
  3 12  1  0
  5 13  1  0
  6 14  1  0
  6 15  1  0
  8 16  1  0
  8 17  1  0
M  END
