
     RDKit          3D

 19 21  0  0  0  0  0  0  0  0999 V2000
    1.7624    0.5752   -0.0176 C   0  0  0  0  0  0  0  0  0  0  0  0
    0.8294    1.4567    0.2915 C   0  0  0  0  0  0  0  0  0  0  0  0
   -0.6008    1.1413    0.1182 C   0  0  0  0  0  0  0  0  0  0  0  0
   -1.0479    0.0676    1.1339 C   0  0  0  0  0  0  0  0  0  0  0  0
   -1.1759   -1.0681    0.1457 C   0  0  0  0  0  0  0  0  0  0  0  0
   -1.8956   -0.4149   -0.8839 O   0  0  0  0  0  0  0  0  0  0  0  0
   -0.6932    0.2804   -1.1247 C   0  0  0  0  0  0  0  0  0  0  0  0
    0.0102   -0.9800   -0.7836 C   0  0  0  0  0  0  0  0  0  0  0  0
    1.3260   -0.8530   -0.1079 C   0  0  0  0  0  0  0  0  0  0  0  0
    2.8029    0.8283   -0.2046 H   0  0  0  0  0  0  0  0  0  0  0  0
    1.1255    2.4144    0.6735 H   0  0  0  0  0  0  0  0  0  0  0  0
   -1.2626    2.0010    0.1148 H   0  0  0  0  0  0  0  0  0  0  0  0
   -0.2986   -0.0961    1.9041 H   0  0  0  0  0  0  0  0  0  0  0  0
   -2.0269    0.3830    1.4896 H   0  0  0  0  0  0  0  0  0  0  0  0
   -1.5253   -2.0166    0.4705 H   0  0  0  0  0  0  0  0  0  0  0  0
   -0.5715    0.7421   -2.0767 H   0  0  0  0  0  0  0  0  0  0  0  0
   -0.0839   -1.7637   -1.5589 H   0  0  0  0  0  0  0  0  0  0  0  0
    2.1097   -1.4923   -0.5440 H   0  0  0  0  0  0  0  0  0  0  0  0
    1.2162   -1.2053    0.9599 H   0  0  0  0  0  0  0  0  0  0  0  0
  1  2  2  0
  2  3  1  0
  3  4  1  0
  4  5  1  0
  5  6  1  0
  6  7  1  0
  7  8  1  0
  8  9  1  0
  9  1  1  0
  7  3  1  0
  8  5  1  0
  1 10  1  0
  2 11  1  0
  3 12  1  0
  4 13  1  0
  4 14  1  0
  5 15  1  0
  7 16  1  0
  8 17  1  0
  9 18  1  0
  9 19  1  0
M  END
