
     RDKit          3D

 21 21  0  0  0  0  0  0  0  0999 V2000
   -0.4228    1.6038   -0.7291 C   0  0  0  0  0  0  0  0  0  0  0  0
   -1.4638    0.7877   -0.7196 C   0  0  0  0  0  0  0  0  0  0  0  0
   -1.7236   -0.2481    0.3179 C   0  0  0  0  0  0  0  0  0  0  0  0
   -1.3804   -1.5216   -0.1616 O   0  0  0  0  0  0  0  0  0  0  0  0
   -0.2247   -2.0291    0.3795 C   0  0  0  0  0  0  0  0  0  0  0  0
    0.9073   -1.8886   -0.3683 O   0  0  0  0  0  0  0  0  0  0  0  0
    1.2899   -0.6173   -0.6962 C   0  0  0  0  0  0  0  0  0  0  0  0
    1.3969    0.3379    0.4471 C   0  0  0  0  0  0  0  0  0  0  0  0
    0.6443    1.6175    0.2859 C   0  0  0  0  0  0  0  0  0  0  0  0
   -0.3774    2.3038   -1.5566 H   0  0  0  0  0  0  0  0  0  0  0  0
   -2.2229    0.8438   -1.5228 H   0  0  0  0  0  0  0  0  0  0  0  0
   -2.8296   -0.3214    0.5410 H   0  0  0  0  0  0  0  0  0  0  0  0
   -1.2652   -0.0151    1.2988 H   0  0  0  0  0  0  0  0  0  0  0  0
   -0.1646   -1.6801    1.4283 H   0  0  0  0  0  0  0  0  0  0  0  0
   -0.4061   -3.1450    0.4650 H   0  0  0  0  0  0  0  0  0  0  0  0
    2.2991   -0.7275   -1.2022 H   0  0  0  0  0  0  0  0  0  0  0  0
    0.6611   -0.1360   -1.4874 H   0  0  0  0  0  0  0  0  0  0  0  0
    2.4876    0.6052    0.5837 H   0  0  0  0  0  0  0  0  0  0  0  0
    1.1187   -0.1162    1.4213 H   0  0  0  0  0  0  0  0  0  0  0  0
    0.2763    1.9396    1.2882 H   0  0  0  0  0  0  0  0  0  0  0  0
    1.4000    2.4069   -0.0129 H   0  0  0  0  0  0  0  0  0  0  0  0
  1  2  2  3
  2  3  1  0
  3  4  1  0
  4  5  1  0
  5  6  1  0
  6  7  1  0
  7  8  1  0
  8  9  1  0
  9  1  1  0
  1 10  1  0
  2 11  1  0
  3 12  1  0
  3 13  1  0
  5 14  1  0
  5 15  1  0
  7 16  1  0
  7 17  1  0
  8 18  1  0
  8 19  1  0
  9 20  1  0
  9 21  1  0
M  END
