
     RDKit          3D

 20 20  0  0  0  0  0  0  0  0999 V2000
   -0.4739    1.6190    0.0196 C   0  0  0  0  0  0  0  0  0  0  0  0
    0.7923    1.3676    0.3507 C   0  0  0  0  0  0  0  0  0  0  0  0
    1.5110    0.1431    0.8219 C   0  0  0  0  0  0  0  0  0  0  0  0
    1.6434   -0.8688   -0.2418 C   0  0  0  0  0  0  0  0  0  0  0  0
    0.6485   -1.7612   -0.4108 O   0  0  0  0  0  0  0  0  0  0  0  0
   -0.5934   -1.4501    0.0234 C   0  0  0  0  0  0  0  0  0  0  0  0
   -1.3389   -0.4590   -0.8440 C   0  0  0  0  0  0  0  0  0  0  0  0
   -1.7075    0.7833   -0.0199 C   0  0  0  0  0  0  0  0  0  0  0  0
   -0.6331    2.6461   -0.2827 H   0  0  0  0  0  0  0  0  0  0  0  0
    1.4337    2.2586    0.2516 H   0  0  0  0  0  0  0  0  0  0  0  0
    2.5486    0.4770    1.1191 H   0  0  0  0  0  0  0  0  0  0  0  0
    1.0416   -0.2019    1.7565 H   0  0  0  0  0  0  0  0  0  0  0  0
    1.8552   -0.3210   -1.2076 H   0  0  0  0  0  0  0  0  0  0  0  0
    2.5996   -1.4439   -0.0572 H   0  0  0  0  0  0  0  0  0  0  0  0
   -1.2120   -2.3971   -0.0039 H   0  0  0  0  0  0  0  0  0  0  0  0
   -0.6500   -1.1363    1.1044 H   0  0  0  0  0  0  0  0  0  0  0  0
   -2.2835   -0.8469   -1.2413 H   0  0  0  0  0  0  0  0  0  0  0  0
   -0.7260   -0.1144   -1.7132 H   0  0  0  0  0  0  0  0  0  0  0  0
   -2.5473    1.3278   -0.4401 H   0  0  0  0  0  0  0  0  0  0  0  0
   -1.9083    0.3780    1.0153 H   0  0  0  0  0  0  0  0  0  0  0  0
  1  2  2  3
  2  3  1  0
  3  4  1  0
  4  5  1  0
  5  6  1  0
  6  7  1  0
  7  8  1  0
  8  1  1  0
  1  9  1  0
  2 10  1  0
  3 11  1  0
  3 12  1  0
  4 13  1  0
  4 14  1  0
  6 15  1  0
  6 16  1  0
  7 17  1  0
  7 18  1  0
  8 19  1  0
  8 20  1  0
M  END
