
     RDKit          3D

 17 18  0  0  0  0  0  0  0  0999 V2000
    1.8251    0.6326    0.4172 C   0  0  0  0  0  0  0  0  0  0  0  0
    1.7944   -0.6972    0.3326 C   0  0  0  0  0  0  0  0  0  0  0  0
    0.7794   -1.6459   -0.1472 C   0  0  0  0  0  0  0  0  0  0  0  0
   -0.5323   -1.5599   -0.2582 C   0  0  0  0  0  0  0  0  0  0  0  0
   -1.6387   -0.6593   -0.0298 C   0  0  0  0  0  0  0  0  0  0  0  0
   -2.0079    0.1322   -1.2059 O   0  0  0  0  0  0  0  0  0  0  0  0
   -1.6130    0.6748    0.1430 C   0  0  0  0  0  0  0  0  0  0  0  0
   -0.4984    1.5790   -0.0298 C   0  0  0  0  0  0  0  0  0  0  0  0
    0.8213    1.6575    0.0487 C   0  0  0  0  0  0  0  0  0  0  0  0
    2.7264    1.0146    0.8170 H   0  0  0  0  0  0  0  0  0  0  0  0
    2.6945   -1.1756    0.6869 H   0  0  0  0  0  0  0  0  0  0  0  0
    1.2167   -2.5838   -0.4609 H   0  0  0  0  0  0  0  0  0  0  0  0
   -0.8960   -2.5212   -0.6765 H   0  0  0  0  0  0  0  0  0  0  0  0
   -2.5880   -1.2191    0.2680 H   0  0  0  0  0  0  0  0  0  0  0  0
   -2.5116    1.1878    0.6205 H   0  0  0  0  0  0  0  0  0  0  0  0
   -0.8495    2.5789   -0.3432 H   0  0  0  0  0  0  0  0  0  0  0  0
    1.2775    2.6044   -0.1821 H   0  0  0  0  0  0  0  0  0  0  0  0
  1  2  2  3
  2  3  1  0
  3  4  2  3
  4  5  1  0
  5  6  1  0
  6  7  1  0
  7  8  1  0
  8  9  2  3
  9  1  1  0
  7  5  1  0
  1 10  1  0
  2 11  1  0
  3 12  1  0
  4 13  1  0
  5 14  1  0
  7 15  1  0
  8 16  1  0
  9 17  1  0
M  END
