
     RDKit          3D

 16 18  0  0  0  0  0  0  0  0999 V2000
    1.6224    1.0661   -0.2546 C   0  0  0  0  0  0  0  0  0  0  0  0
    0.3190    1.1728   -0.4699 C   0  0  0  0  0  0  0  0  0  0  0  0
   -0.4055   -0.0036    0.0088 C   0  0  0  0  0  0  0  0  0  0  0  0
   -1.5532   -0.5965   -0.7055 C   0  0  0  0  0  0  0  0  0  0  0  0
   -1.7505    0.1577    0.5787 C   0  0  0  0  0  0  0  0  0  0  0  0
    0.6480   -0.8689    0.5943 C   0  0  0  0  0  0  0  0  0  0  0  0
    1.5313   -1.3736   -0.4925 O   0  0  0  0  0  0  0  0  0  0  0  0
    1.8780   -0.2392    0.4096 C   0  0  0  0  0  0  0  0  0  0  0  0
    2.4278    1.7700   -0.4944 H   0  0  0  0  0  0  0  0  0  0  0  0
   -0.1420    2.0371   -0.9465 H   0  0  0  0  0  0  0  0  0  0  0  0
   -1.6924   -1.7133   -0.6268 H   0  0  0  0  0  0  0  0  0  0  0  0
   -1.8165   -0.1075   -1.6697 H   0  0  0  0  0  0  0  0  0  0  0  0
   -2.0597   -0.3405    1.4962 H   0  0  0  0  0  0  0  0  0  0  0  0
   -2.2190    1.1703    0.4401 H   0  0  0  0  0  0  0  0  0  0  0  0
    0.3580   -1.7025    1.2524 H   0  0  0  0  0  0  0  0  0  0  0  0
    2.8542   -0.4283    0.8797 H   0  0  0  0  0  0  0  0  0  0  0  0
  1  2  2  0
  2  3  1  0
  3  4  1  0
  4  5  1  0
  3  6  1  0
  6  7  1  0
  7  8  1  0
  8  1  1  0
  5  3  1  0
  8  6  1  0
  1  9  1  0
  2 10  1  0
  4 11  1  0
  4 12  1  0
  5 13  1  0
  5 14  1  0
  6 15  1  0
  8 16  1  0
M  END
