
     RDKit          3D

 21 23  0  0  0  0  0  0  0  0999 V2000
    1.5817    1.4214    0.2462 C   0  0  0  0  0  0  0  0  0  0  0  0
    0.4166    1.5724   -0.3326 C   0  0  0  0  0  0  0  0  0  0  0  0
   -0.3757    0.4171   -0.7991 C   0  0  0  0  0  0  0  0  0  0  0  0
   -0.0594   -0.8695   -0.1685 C   0  0  0  0  0  0  0  0  0  0  0  0
    1.2138   -1.0263    0.5300 C   0  0  0  0  0  0  0  0  0  0  0  0
    2.1795    0.0958    0.4709 C   0  0  0  0  0  0  0  0  0  0  0  0
   -1.2615   -0.6245    0.7520 C   0  0  0  0  0  0  0  0  0  0  0  0
   -2.5503   -0.7449    0.0647 C   0  0  0  0  0  0  0  0  0  0  0  0
   -1.7604    0.4554   -0.2396 C   0  0  0  0  0  0  0  0  0  0  0  0
    2.1426    2.2927    0.5795 H   0  0  0  0  0  0  0  0  0  0  0  0
    0.0460    2.5868   -0.4607 H   0  0  0  0  0  0  0  0  0  0  0  0
   -0.4321    0.3566   -1.9226 H   0  0  0  0  0  0  0  0  0  0  0  0
   -0.3105   -1.7284   -0.8564 H   0  0  0  0  0  0  0  0  0  0  0  0
    1.7491   -1.9448    0.1432 H   0  0  0  0  0  0  0  0  0  0  0  0
    1.0031   -1.2874    1.6096 H   0  0  0  0  0  0  0  0  0  0  0  0
    2.7492    0.1268    1.4259 H   0  0  0  0  0  0  0  0  0  0  0  0
    2.9576   -0.0506   -0.3251 H   0  0  0  0  0  0  0  0  0  0  0  0
   -1.1078   -0.2448    1.7516 H   0  0  0  0  0  0  0  0  0  0  0  0
   -2.6171   -1.5831   -0.6840 H   0  0  0  0  0  0  0  0  0  0  0  0
   -3.4527   -0.6302    0.6573 H   0  0  0  0  0  0  0  0  0  0  0  0
   -2.1118    1.4094    0.1885 H   0  0  0  0  0  0  0  0  0  0  0  0
  1  2  2  0
  2  3  1  0
  3  4  1  0
  4  5  1  0
  5  6  1  0
  4  7  1  0
  7  8  1  0
  8  9  1  0
  6  1  1  0
  9  7  1  0
  9  3  1  0
  1 10  1  0
  2 11  1  0
  3 12  1  0
  4 13  1  0
  5 14  1  0
  5 15  1  0
  6 16  1  0
  6 17  1  0
  7 18  1  0
  8 19  1  0
  8 20  1  0
  9 21  1  0
M  END
