
     RDKit          3D

 19 21  0  0  0  0  0  0  0  0999 V2000
    1.8078    0.3048    0.5579 C   0  0  0  0  0  0  0  0  0  0  0  0
    0.9025    1.2752    0.4896 C   0  0  0  0  0  0  0  0  0  0  0  0
   -0.3079    1.0322   -0.3344 C   0  0  0  0  0  0  0  0  0  0  0  0
   -1.5836    1.4456    0.3859 C   0  0  0  0  0  0  0  0  0  0  0  0
   -1.7615    0.1480    0.8938 O   0  0  0  0  0  0  0  0  0  0  0  0
   -0.8563   -0.3030    0.0034 C   0  0  0  0  0  0  0  0  0  0  0  0
   -0.9470   -1.4422   -0.8647 C   0  0  0  0  0  0  0  0  0  0  0  0
    0.1039   -1.3807    0.2097 C   0  0  0  0  0  0  0  0  0  0  0  0
    1.4987   -0.9433   -0.2165 C   0  0  0  0  0  0  0  0  0  0  0  0
    2.7098    0.4238    1.1424 H   0  0  0  0  0  0  0  0  0  0  0  0
    1.0477    2.2096    1.0189 H   0  0  0  0  0  0  0  0  0  0  0  0
   -0.2430    1.3190   -1.3853 H   0  0  0  0  0  0  0  0  0  0  0  0
   -2.3371    1.7513   -0.3590 H   0  0  0  0  0  0  0  0  0  0  0  0
   -1.4061    2.2131    1.1487 H   0  0  0  0  0  0  0  0  0  0  0  0
   -1.7443   -2.2071   -0.6464 H   0  0  0  0  0  0  0  0  0  0  0  0
   -0.6339   -1.4772   -1.9273 H   0  0  0  0  0  0  0  0  0  0  0  0
   -0.0028   -1.9905    1.1313 H   0  0  0  0  0  0  0  0  0  0  0  0
    2.2722   -1.6820    0.0491 H   0  0  0  0  0  0  0  0  0  0  0  0
    1.4807   -0.6964   -1.2970 H   0  0  0  0  0  0  0  0  0  0  0  0
  1  2  2  0
  2  3  1  0
  3  4  1  0
  4  5  1  0
  5  6  1  0
  6  7  1  0
  7  8  1  0
  8  9  1  0
  9  1  1  0
  6  3  1  0
  8  6  1  0
  1 10  1  0
  2 11  1  0
  3 12  1  0
  4 13  1  0
  4 14  1  0
  7 15  1  0
  7 16  1  0
  8 17  1  0
  9 18  1  0
  9 19  1  0
M  END
