
     RDKit          3D

 11 11  0  0  0  0  0  0  0  0999 V2000
    0.3414    1.0273    0.0367 C   0  0  0  0  0  0  0  0  0  0  0  0
    1.0538   -0.0027   -0.3352 C   0  0  0  0  0  0  0  0  0  0  0  0
    0.1843   -1.2031   -0.2238 C   0  0  0  0  0  0  0  0  0  0  0  0
   -1.1133   -0.7284   -0.0943 O   0  0  0  0  0  0  0  0  0  0  0  0
   -1.0075    0.5815    0.4069 C   0  0  0  0  0  0  0  0  0  0  0  0
    0.6751    2.0617    0.0738 H   0  0  0  0  0  0  0  0  0  0  0  0
    2.0718    0.0316   -0.6568 H   0  0  0  0  0  0  0  0  0  0  0  0
    0.2661   -1.7615   -1.1660 H   0  0  0  0  0  0  0  0  0  0  0  0
    0.5119   -1.8514    0.5909 H   0  0  0  0  0  0  0  0  0  0  0  0
   -1.2330    0.6121    1.4725 H   0  0  0  0  0  0  0  0  0  0  0  0
   -1.7505    1.2329   -0.1047 H   0  0  0  0  0  0  0  0  0  0  0  0
  1  2  2  0
  2  3  1  0
  3  4  1  0
  4  5  1  0
  5  1  1  0
  1  6  1  0
  2  7  1  0
  3  8  1  0
  3  9  1  0
  5 10  1  0
  5 11  1  0
M  END
