
     RDKit          3D

 21 23  0  0  0  0  0  0  0  0999 V2000
   -0.4155    0.8896   -0.4622 C   0  0  0  0  0  0  0  0  0  0  0  0
    0.2014   -0.1832    0.0335 C   0  0  0  0  0  0  0  0  0  0  0  0
    1.6348   -0.3896    0.3733 C   0  0  0  0  0  0  0  0  0  0  0  0
    2.5858   -0.3958   -0.8349 C   0  0  0  0  0  0  0  0  0  0  0  0
    2.6040    0.6951    0.1683 C   0  0  0  0  0  0  0  0  0  0  0  0
   -0.8892   -1.2340    0.2544 C   0  0  0  0  0  0  0  0  0  0  0  0
   -1.9030   -0.2396    0.7450 C   0  0  0  0  0  0  0  0  0  0  0  0
   -2.9540    0.4877    0.1849 C   0  0  0  0  0  0  0  0  0  0  0  0
   -1.8016    0.5496   -0.6045 C   0  0  0  0  0  0  0  0  0  0  0  0
    0.0676    1.8379   -0.7058 H   0  0  0  0  0  0  0  0  0  0  0  0
    1.8307   -1.1470    1.1690 H   0  0  0  0  0  0  0  0  0  0  0  0
    3.3848   -1.1423   -0.8592 H   0  0  0  0  0  0  0  0  0  0  0  0
    2.1364   -0.1377   -1.8214 H   0  0  0  0  0  0  0  0  0  0  0  0
    2.2080    1.6998   -0.1061 H   0  0  0  0  0  0  0  0  0  0  0  0
    3.5050    0.7366    0.8159 H   0  0  0  0  0  0  0  0  0  0  0  0
   -0.5921   -1.9576    1.0084 H   0  0  0  0  0  0  0  0  0  0  0  0
   -1.0989   -1.6399   -0.7444 H   0  0  0  0  0  0  0  0  0  0  0  0
   -1.4343    0.2600    1.6527 H   0  0  0  0  0  0  0  0  0  0  0  0
   -3.8700   -0.0673   -0.1501 H   0  0  0  0  0  0  0  0  0  0  0  0
   -3.3045    1.4549    0.6539 H   0  0  0  0  0  0  0  0  0  0  0  0
   -1.8954   -0.0771   -1.5564 H   0  0  0  0  0  0  0  0  0  0  0  0
  1  2  2  0
  2  3  1  0
  3  4  1  0
  4  5  1  0
  2  6  1  0
  6  7  1  0
  7  8  1  0
  8  9  1  0
  9  1  1  0
  5  3  1  0
  9  7  1  0
  1 10  1  0
  3 11  1  0
  4 12  1  0
  4 13  1  0
  5 14  1  0
  5 15  1  0
  6 16  1  0
  6 17  1  0
  7 18  1  0
  8 19  1  0
  8 20  1  0
  9 21  1  0
M  END
