
     RDKit          3D

 19 20  0  0  0  0  0  0  0  0999 V2000
    1.4571    1.1289    0.4236 C   0  0  0  0  0  0  0  0  0  0  0  0
    0.4815    1.6162   -0.3270 C   0  0  0  0  0  0  0  0  0  0  0  0
   -0.5127    0.6836   -0.8840 C   0  0  0  0  0  0  0  0  0  0  0  0
   -1.5955    0.3679    0.1512 C   0  0  0  0  0  0  0  0  0  0  0  0
   -1.5503   -1.1425    0.3429 C   0  0  0  0  0  0  0  0  0  0  0  0
   -0.2761   -1.4083    0.8954 O   0  0  0  0  0  0  0  0  0  0  0  0
    0.6380   -1.1550   -0.1119 C   0  0  0  0  0  0  0  0  0  0  0  0
    1.7994   -0.3168    0.3602 C   0  0  0  0  0  0  0  0  0  0  0  0
    0.0772   -0.5451   -1.2200 O   0  0  0  0  0  0  0  0  0  0  0  0
    2.0097    1.7649    1.0826 H   0  0  0  0  0  0  0  0  0  0  0  0
    0.3934    2.6906   -0.5447 H   0  0  0  0  0  0  0  0  0  0  0  0
   -0.9980    1.0878   -1.7921 H   0  0  0  0  0  0  0  0  0  0  0  0
   -1.2862    0.8277    1.1053 H   0  0  0  0  0  0  0  0  0  0  0  0
   -2.5762    0.7247   -0.1790 H   0  0  0  0  0  0  0  0  0  0  0  0
   -1.5707   -1.5725   -0.6965 H   0  0  0  0  0  0  0  0  0  0  0  0
   -2.3602   -1.5192    0.9592 H   0  0  0  0  0  0  0  0  0  0  0  0
    1.0374   -2.1343   -0.4428 H   0  0  0  0  0  0  0  0  0  0  0  0
    2.2374   -0.6832    1.3083 H   0  0  0  0  0  0  0  0  0  0  0  0
    2.5947   -0.4153   -0.4307 H   0  0  0  0  0  0  0  0  0  0  0  0
  1  2  2  0
  2  3  1  0
  3  4  1  0
  4  5  1  0
  5  6  1  0
  6  7  1  0
  7  8  1  0
  7  9  1  0
  8  1  1  0
  9  3  1  0
  1 10  1  0
  2 11  1  0
  3 12  1  0
  4 13  1  0
  4 14  1  0
  5 15  1  0
  5 16  1  0
  7 17  1  0
  8 18  1  0
  8 19  1  0
M  END
