
     RDKit          3D

 19 21  0  0  0  0  0  0  0  0999 V2000
    1.9786    0.9629   -0.4987 C   0  0  0  0  0  0  0  0  0  0  0  0
    0.7393    1.2978   -0.8118 C   0  0  0  0  0  0  0  0  0  0  0  0
   -0.2365    0.4329   -0.1806 C   0  0  0  0  0  0  0  0  0  0  0  0
   -1.6497    0.8779    0.0567 C   0  0  0  0  0  0  0  0  0  0  0  0
   -2.3197   -0.1805    0.5811 O   0  0  0  0  0  0  0  0  0  0  0  0
   -1.7282   -1.3530    0.1975 C   0  0  0  0  0  0  0  0  0  0  0  0
   -0.3226   -1.0135   -0.2895 C   0  0  0  0  0  0  0  0  0  0  0  0
    0.5215   -0.3822    0.7618 C   0  0  0  0  0  0  0  0  0  0  0  0
    1.9579   -0.2029    0.4063 C   0  0  0  0  0  0  0  0  0  0  0  0
    2.9075    1.4711   -0.8540 H   0  0  0  0  0  0  0  0  0  0  0  0
    0.5155    2.1297   -1.4682 H   0  0  0  0  0  0  0  0  0  0  0  0
   -1.6424    1.7928    0.6761 H   0  0  0  0  0  0  0  0  0  0  0  0
   -2.0911    1.0965   -0.9576 H   0  0  0  0  0  0  0  0  0  0  0  0
   -1.5621   -1.9581    1.1378 H   0  0  0  0  0  0  0  0  0  0  0  0
   -2.2757   -1.9346   -0.5506 H   0  0  0  0  0  0  0  0  0  0  0  0
    0.0936   -1.5179   -1.1541 H   0  0  0  0  0  0  0  0  0  0  0  0
    0.1936   -0.3849    1.8190 H   0  0  0  0  0  0  0  0  0  0  0  0
    2.3427   -1.0831   -0.1888 H   0  0  0  0  0  0  0  0  0  0  0  0
    2.5778   -0.0510    1.3176 H   0  0  0  0  0  0  0  0  0  0  0  0
  1  2  2  0
  2  3  1  0
  3  4  1  0
  4  5  1  0
  5  6  1  0
  6  7  1  0
  7  8  1  0
  8  9  1  0
  9  1  1  0
  7  3  1  0
  8  3  1  0
  1 10  1  0
  2 11  1  0
  4 12  1  0
  4 13  1  0
  6 14  1  0
  6 15  1  0
  7 16  1  0
  8 17  1  0
  9 18  1  0
  9 19  1  0
M  END
