
     RDKit          3D

 19 20  0  0  0  0  0  0  0  0999 V2000
    1.7375    0.8211    0.4295 C   0  0  0  0  0  0  0  0  0  0  0  0
    0.9711    1.3963   -0.4653 C   0  0  0  0  0  0  0  0  0  0  0  0
   -0.1525    0.8278   -1.2168 C   0  0  0  0  0  0  0  0  0  0  0  0
   -0.9906   -0.0145   -0.2905 C   0  0  0  0  0  0  0  0  0  0  0  0
   -0.4203   -1.4001   -0.1971 C   0  0  0  0  0  0  0  0  0  0  0  0
    0.7801   -1.4688    0.6614 C   0  0  0  0  0  0  0  0  0  0  0  0
    1.6898   -0.5635    0.9376 C   0  0  0  0  0  0  0  0  0  0  0  0
   -2.2333    0.3417    0.2211 C   0  0  0  0  0  0  0  0  0  0  0  0
   -1.0447    0.5289    1.0962 O   0  0  0  0  0  0  0  0  0  0  0  0
    2.5010    1.4445    0.8460 H   0  0  0  0  0  0  0  0  0  0  0  0
    1.1979    2.4231   -0.6757 H   0  0  0  0  0  0  0  0  0  0  0  0
   -0.7498    1.5918   -1.7435 H   0  0  0  0  0  0  0  0  0  0  0  0
    0.2789    0.1644   -2.0117 H   0  0  0  0  0  0  0  0  0  0  0  0
   -0.1357   -1.7364   -1.2193 H   0  0  0  0  0  0  0  0  0  0  0  0
   -1.2504   -2.0631    0.1850 H   0  0  0  0  0  0  0  0  0  0  0  0
    0.9344   -2.4181    1.1392 H   0  0  0  0  0  0  0  0  0  0  0  0
    2.5099   -0.8172    1.6050 H   0  0  0  0  0  0  0  0  0  0  0  0
   -2.6768    1.3404    0.0788 H   0  0  0  0  0  0  0  0  0  0  0  0
   -2.9466   -0.3982    0.6200 H   0  0  0  0  0  0  0  0  0  0  0  0
  1  2  2  0
  2  3  1  0
  3  4  1  0
  4  5  1  0
  5  6  1  0
  6  7  2  0
  4  8  1  0
  8  9  1  0
  7  1  1  0
  9  4  1  0
  1 10  1  0
  2 11  1  0
  3 12  1  0
  3 13  1  0
  5 14  1  0
  5 15  1  0
  6 16  1  0
  7 17  1  0
  8 18  1  0
  8 19  1  0
M  END
