
     RDKit          3D

 21 22  0  0  0  0  0  0  0  0999 V2000
   -1.6767    1.1488   -0.0954 C   0  0  0  0  0  0  0  0  0  0  0  0
   -0.5556    1.7590    0.2405 C   0  0  0  0  0  0  0  0  0  0  0  0
    0.7580    1.1788    0.4716 C   0  0  0  0  0  0  0  0  0  0  0  0
    1.1746    0.1156   -0.4772 C   0  0  0  0  0  0  0  0  0  0  0  0
    2.2085   -0.8554    0.0369 C   0  0  0  0  0  0  0  0  0  0  0  0
    1.4109   -1.8602   -0.5661 O   0  0  0  0  0  0  0  0  0  0  0  0
    0.3317   -1.1068   -0.1716 C   0  0  0  0  0  0  0  0  0  0  0  0
   -0.8706   -1.0408   -1.0317 C   0  0  0  0  0  0  0  0  0  0  0  0
   -1.9261   -0.2548   -0.3291 C   0  0  0  0  0  0  0  0  0  0  0  0
   -2.5320    1.8050   -0.2107 H   0  0  0  0  0  0  0  0  0  0  0  0
   -0.6122    2.8339    0.3627 H   0  0  0  0  0  0  0  0  0  0  0  0
    1.5236    1.9756    0.5435 H   0  0  0  0  0  0  0  0  0  0  0  0
    0.7408    0.7114    1.5020 H   0  0  0  0  0  0  0  0  0  0  0  0
    1.3258    0.3604   -1.5198 H   0  0  0  0  0  0  0  0  0  0  0  0
    3.2060   -0.7432   -0.4147 H   0  0  0  0  0  0  0  0  0  0  0  0
    2.1937   -1.0118    1.1214 H   0  0  0  0  0  0  0  0  0  0  0  0
    0.1701   -1.1703    0.9222 H   0  0  0  0  0  0  0  0  0  0  0  0
   -0.6130   -0.6351   -2.0186 H   0  0  0  0  0  0  0  0  0  0  0  0
   -1.2554   -2.0632   -1.1903 H   0  0  0  0  0  0  0  0  0  0  0  0
   -2.1321   -0.7668    0.6547 H   0  0  0  0  0  0  0  0  0  0  0  0
   -2.8701   -0.3802   -0.9066 H   0  0  0  0  0  0  0  0  0  0  0  0
  1  2  2  0
  2  3  1  0
  3  4  1  0
  4  5  1  0
  5  6  1  0
  6  7  1  0
  7  8  1  0
  8  9  1  0
  9  1  1  0
  7  4  1  0
  1 10  1  0
  2 11  1  0
  3 12  1  0
  3 13  1  0
  4 14  1  0
  5 15  1  0
  5 16  1  0
  7 17  1  0
  8 18  1  0
  8 19  1  0
  9 20  1  0
  9 21  1  0
M  END
