
     RDKit          3D

 21 22  0  0  0  0  0  0  0  0999 V2000
    1.0923   -1.4048    0.4308 C   0  0  0  0  0  0  0  0  0  0  0  0
   -0.0861   -1.6247   -0.1053 C   0  0  0  0  0  0  0  0  0  0  0  0
   -1.0131   -0.8515   -0.9372 C   0  0  0  0  0  0  0  0  0  0  0  0
   -2.3002   -0.9285   -0.3452 O   0  0  0  0  0  0  0  0  0  0  0  0
   -1.8813    0.1667    0.4502 C   0  0  0  0  0  0  0  0  0  0  0  0
   -1.0536    0.5940   -0.7177 C   0  0  0  0  0  0  0  0  0  0  0  0
    0.1893    1.3241   -0.4993 C   0  0  0  0  0  0  0  0  0  0  0  0
    0.9870    0.9876    0.7025 C   0  0  0  0  0  0  0  0  0  0  0  0
    1.9068   -0.1826    0.3376 C   0  0  0  0  0  0  0  0  0  0  0  0
    1.5049   -2.2090    1.0004 H   0  0  0  0  0  0  0  0  0  0  0  0
   -0.4736   -2.6345    0.1246 H   0  0  0  0  0  0  0  0  0  0  0  0
   -1.0341   -1.1315   -2.0152 H   0  0  0  0  0  0  0  0  0  0  0  0
   -2.7621    0.8161    0.6219 H   0  0  0  0  0  0  0  0  0  0  0  0
   -1.3731   -0.1055    1.3726 H   0  0  0  0  0  0  0  0  0  0  0  0
   -1.6998    1.0980   -1.4731 H   0  0  0  0  0  0  0  0  0  0  0  0
   -0.0519    2.4250   -0.4431 H   0  0  0  0  0  0  0  0  0  0  0  0
    0.8455    1.2300   -1.3922 H   0  0  0  0  0  0  0  0  0  0  0  0
    0.4360    0.8034    1.6194 H   0  0  0  0  0  0  0  0  0  0  0  0
    1.6897    1.8481    0.8966 H   0  0  0  0  0  0  0  0  0  0  0  0
    2.7719   -0.2040    1.0527 H   0  0  0  0  0  0  0  0  0  0  0  0
    2.3055   -0.0164   -0.6810 H   0  0  0  0  0  0  0  0  0  0  0  0
  1  2  2  0
  2  3  1  0
  3  4  1  0
  4  5  1  0
  5  6  1  0
  6  7  1  0
  7  8  1  0
  8  9  1  0
  9  1  1  0
  6  3  1  0
  1 10  1  0
  2 11  1  0
  3 12  1  0
  5 13  1  0
  5 14  1  0
  6 15  1  0
  7 16  1  0
  7 17  1  0
  8 18  1  0
  8 19  1  0
  9 20  1  0
  9 21  1  0
M  END
