
     RDKit          3D

 21 22  0  0  0  0  0  0  0  0999 V2000
    2.3667    0.5365    0.4809 C   0  0  0  0  0  0  0  0  0  0  0  0
    1.4090    1.3538    0.0515 C   0  0  0  0  0  0  0  0  0  0  0  0
    0.3649    0.5894   -0.6772 C   0  0  0  0  0  0  0  0  0  0  0  0
   -1.0141    1.0849   -0.5764 C   0  0  0  0  0  0  0  0  0  0  0  0
   -1.8338    0.4189    0.4851 C   0  0  0  0  0  0  0  0  0  0  0  0
   -1.8616   -1.0767    0.1272 C   0  0  0  0  0  0  0  0  0  0  0  0
   -0.4310   -1.5100    0.3470 C   0  0  0  0  0  0  0  0  0  0  0  0
    0.5513   -0.7416   -0.0232 C   0  0  0  0  0  0  0  0  0  0  0  0
    2.0188   -0.8513    0.0601 C   0  0  0  0  0  0  0  0  0  0  0  0
    3.2494    0.8071    1.0377 H   0  0  0  0  0  0  0  0  0  0  0  0
    1.4378    2.4186    0.2358 H   0  0  0  0  0  0  0  0  0  0  0  0
    0.6986    0.4924   -1.7363 H   0  0  0  0  0  0  0  0  0  0  0  0
   -1.5292    0.8273   -1.5523 H   0  0  0  0  0  0  0  0  0  0  0  0
   -1.0616    2.1899   -0.5354 H   0  0  0  0  0  0  0  0  0  0  0  0
   -1.3675    0.5853    1.4728 H   0  0  0  0  0  0  0  0  0  0  0  0
   -2.8866    0.7622    0.4282 H   0  0  0  0  0  0  0  0  0  0  0  0
   -2.0373   -1.1510   -0.9600 H   0  0  0  0  0  0  0  0  0  0  0  0
   -2.5567   -1.6291    0.7497 H   0  0  0  0  0  0  0  0  0  0  0  0
   -0.2762   -2.4559    0.8102 H   0  0  0  0  0  0  0  0  0  0  0  0
    2.3863   -1.0319   -0.9877 H   0  0  0  0  0  0  0  0  0  0  0  0
    2.3728   -1.6186    0.7621 H   0  0  0  0  0  0  0  0  0  0  0  0
  1  2  2  0
  2  3  1  0
  3  4  1  0
  4  5  1  0
  5  6  1  0
  6  7  1  0
  7  8  2  0
  8  9  1  0
  9  1  1  0
  8  3  1  0
  1 10  1  0
  2 11  1  0
  3 12  1  0
  4 13  1  0
  4 14  1  0
  5 15  1  0
  5 16  1  0
  6 17  1  0
  6 18  1  0
  7 19  1  0
  9 20  1  0
  9 21  1  0
M  END
