
     RDKit          3D

 16 18  0  0  0  0  0  0  0  0999 V2000
    1.6959   -0.2985   -0.0572 C   0  0  0  0  0  0  0  0  0  0  0  0
    1.1431    0.4803   -0.9757 C   0  0  0  0  0  0  0  0  0  0  0  0
   -0.2804    0.7271   -0.7164 C   0  0  0  0  0  0  0  0  0  0  0  0
   -0.7217    1.4393    0.4965 C   0  0  0  0  0  0  0  0  0  0  0  0
   -0.5924   -0.0634    0.4901 C   0  0  0  0  0  0  0  0  0  0  0  0
    0.6881   -0.6691    0.9402 C   0  0  0  0  0  0  0  0  0  0  0  0
   -1.4306   -0.8764   -0.4641 C   0  0  0  0  0  0  0  0  0  0  0  0
   -1.1902    0.0358   -1.5067 O   0  0  0  0  0  0  0  0  0  0  0  0
    2.7419   -0.5850   -0.0908 H   0  0  0  0  0  0  0  0  0  0  0  0
    1.6650    0.9140   -1.8530 H   0  0  0  0  0  0  0  0  0  0  0  0
    0.0327    1.9614    1.0785 H   0  0  0  0  0  0  0  0  0  0  0  0
   -1.7792    1.7789    0.5299 H   0  0  0  0  0  0  0  0  0  0  0  0
    0.9478   -0.3236    1.9683 H   0  0  0  0  0  0  0  0  0  0  0  0
    0.5483   -1.7824    0.9846 H   0  0  0  0  0  0  0  0  0  0  0  0
   -2.4850   -0.8766   -0.1350 H   0  0  0  0  0  0  0  0  0  0  0  0
   -0.9833   -1.8617   -0.6890 H   0  0  0  0  0  0  0  0  0  0  0  0
  1  2  2  0
  2  3  1  0
  3  4  1  0
  4  5  1  0
  5  6  1  0
  5  7  1  0
  7  8  1  0
  6  1  1  0
  5  3  1  0
  8  3  1  0
  1  9  1  0
  2 10  1  0
  4 11  1  0
  4 12  1  0
  6 13  1  0
  6 14  1  0
  7 15  1  0
  7 16  1  0
M  END
