
     RDKit          3D

 19 20  0  0  0  0  0  0  0  0999 V2000
   -1.2136    1.3374   -0.3829 C   0  0  0  0  0  0  0  0  0  0  0  0
    0.1104    1.3612   -0.3153 C   0  0  0  0  0  0  0  0  0  0  0  0
    0.9629    0.2615    0.2069 C   0  0  0  0  0  0  0  0  0  0  0  0
    0.6537   -1.0571   -0.4166 C   0  0  0  0  0  0  0  0  0  0  0  0
   -0.7127   -1.5848   -0.1068 C   0  0  0  0  0  0  0  0  0  0  0  0
   -1.7448   -0.9011   -0.6876 O   0  0  0  0  0  0  0  0  0  0  0  0
   -2.1315    0.2333    0.0372 C   0  0  0  0  0  0  0  0  0  0  0  0
    2.3612    0.6134    0.6100 C   0  0  0  0  0  0  0  0  0  0  0  0
    1.3273    0.3648    1.5351 O   0  0  0  0  0  0  0  0  0  0  0  0
   -1.6787    2.2359   -0.7960 H   0  0  0  0  0  0  0  0  0  0  0  0
    0.6327    2.2670   -0.6736 H   0  0  0  0  0  0  0  0  0  0  0  0
    1.3852   -1.7933   -0.0083 H   0  0  0  0  0  0  0  0  0  0  0  0
    0.8304   -1.0091   -1.5058 H   0  0  0  0  0  0  0  0  0  0  0  0
   -0.7415   -2.6360   -0.5132 H   0  0  0  0  0  0  0  0  0  0  0  0
   -0.8118   -1.7068    0.9990 H   0  0  0  0  0  0  0  0  0  0  0  0
   -1.8601    0.0135    1.1113 H   0  0  0  0  0  0  0  0  0  0  0  0
   -3.1802    0.4927   -0.0834 H   0  0  0  0  0  0  0  0  0  0  0  0
    2.6630    1.6732    0.4534 H   0  0  0  0  0  0  0  0  0  0  0  0
    3.1482   -0.1657    0.5366 H   0  0  0  0  0  0  0  0  0  0  0  0
  1  2  2  0
  2  3  1  0
  3  4  1  0
  4  5  1  0
  5  6  1  0
  6  7  1  0
  3  8  1  0
  8  9  1  0
  7  1  1  0
  9  3  1  0
  1 10  1  0
  2 11  1  0
  4 12  1  0
  4 13  1  0
  5 14  1  0
  5 15  1  0
  7 16  1  0
  7 17  1  0
  8 18  1  0
  8 19  1  0
M  END
