
     RDKit          3D

 21 23  0  0  0  0  0  0  0  0999 V2000
   -1.5883    1.0338   -0.7034 C   0  0  0  0  0  0  0  0  0  0  0  0
   -1.4435    1.1358    0.6415 C   0  0  0  0  0  0  0  0  0  0  0  0
   -1.0001   -0.2110    1.0255 C   0  0  0  0  0  0  0  0  0  0  0  0
   -1.9342   -1.0862    0.1748 C   0  0  0  0  0  0  0  0  0  0  0  0
   -1.1862   -0.3666   -0.9590 C   0  0  0  0  0  0  0  0  0  0  0  0
    0.0144   -0.5291   -0.0667 C   0  0  0  0  0  0  0  0  0  0  0  0
    1.1122    0.4562   -0.2276 C   0  0  0  0  0  0  0  0  0  0  0  0
    2.1299    0.2314   -1.2509 C   0  0  0  0  0  0  0  0  0  0  0  0
    2.5026   -0.1031    0.1463 C   0  0  0  0  0  0  0  0  0  0  0  0
   -1.9154    1.7917   -1.3996 H   0  0  0  0  0  0  0  0  0  0  0  0
   -1.6098    1.9868    1.2761 H   0  0  0  0  0  0  0  0  0  0  0  0
   -0.8086   -0.4899    2.0152 H   0  0  0  0  0  0  0  0  0  0  0  0
   -1.6186   -2.1305    0.2367 H   0  0  0  0  0  0  0  0  0  0  0  0
   -2.9888   -0.8458    0.2546 H   0  0  0  0  0  0  0  0  0  0  0  0
   -1.2138   -0.7831   -1.9209 H   0  0  0  0  0  0  0  0  0  0  0  0
    0.3074   -1.5983    0.0240 H   0  0  0  0  0  0  0  0  0  0  0  0
    0.8906    1.4674    0.1856 H   0  0  0  0  0  0  0  0  0  0  0  0
    2.0016   -0.5679   -1.9921 H   0  0  0  0  0  0  0  0  0  0  0  0
    2.5689    1.1638   -1.7157 H   0  0  0  0  0  0  0  0  0  0  0  0
    3.1973    0.5966    0.6463 H   0  0  0  0  0  0  0  0  0  0  0  0
    2.5823   -1.1519    0.4289 H   0  0  0  0  0  0  0  0  0  0  0  0
  1  2  2  0
  2  3  1  0
  3  4  1  0
  4  5  1  0
  5  6  1  0
  6  7  1  0
  7  8  1  0
  8  9  1  0
  5  1  1  0
  9  7  1  0
  6  3  1  0
  1 10  1  0
  2 11  1  0
  3 12  1  0
  4 13  1  0
  4 14  1  0
  5 15  1  0
  6 16  1  0
  7 17  1  0
  8 18  1  0
  8 19  1  0
  9 20  1  0
  9 21  1  0
M  END
