
     RDKit          3D

 17 19  0  0  0  0  0  0  0  0999 V2000
   -1.6683    0.4585    0.3643 C   0  0  0  0  0  0  0  0  0  0  0  0
   -1.0396    1.3072   -0.4509 C   0  0  0  0  0  0  0  0  0  0  0  0
    0.2881    0.8197   -0.9784 C   0  0  0  0  0  0  0  0  0  0  0  0
   -0.0209   -0.3792   -1.6625 O   0  0  0  0  0  0  0  0  0  0  0  0
    0.0753   -1.0436   -0.4174 C   0  0  0  0  0  0  0  0  0  0  0  0
   -1.2753   -0.9922    0.2231 C   0  0  0  0  0  0  0  0  0  0  0  0
    0.9413    0.0565    0.0522 C   0  0  0  0  0  0  0  0  0  0  0  0
    1.8780    0.1258    0.9967 C   0  0  0  0  0  0  0  0  0  0  0  0
    2.3641   -0.2029   -0.2754 O   0  0  0  0  0  0  0  0  0  0  0  0
   -2.4152    0.7808    1.0854 H   0  0  0  0  0  0  0  0  0  0  0  0
   -1.4418    2.2701   -0.7181 H   0  0  0  0  0  0  0  0  0  0  0  0
    0.8036    1.4919   -1.6445 H   0  0  0  0  0  0  0  0  0  0  0  0
    0.5552   -2.0248   -0.4692 H   0  0  0  0  0  0  0  0  0  0  0  0
   -2.0049   -1.4916   -0.4714 H   0  0  0  0  0  0  0  0  0  0  0  0
   -1.3280   -1.5288    1.1757 H   0  0  0  0  0  0  0  0  0  0  0  0
    2.0355   -0.7243    1.7299 H   0  0  0  0  0  0  0  0  0  0  0  0
    2.2530    1.0770    1.4604 H   0  0  0  0  0  0  0  0  0  0  0  0
  1  2  2  0
  2  3  1  0
  3  4  1  0
  4  5  1  0
  5  6  1  0
  5  7  1  0
  7  8  1  0
  8  9  1  0
  6  1  1  0
  9  7  1  0
  7  3  1  0
  1 10  1  0
  2 11  1  0
  3 12  1  0
  5 13  1  0
  6 14  1  0
  6 15  1  0
  8 16  1  0
  8 17  1  0
M  END
