
     RDKit          3D

 19 21  0  0  0  0  0  0  0  0999 V2000
    1.5423   -1.1626    0.3423 C   0  0  0  0  0  0  0  0  0  0  0  0
    0.4069   -0.5289    0.1519 C   0  0  0  0  0  0  0  0  0  0  0  0
    0.8353    0.8562   -0.3677 C   0  0  0  0  0  0  0  0  0  0  0  0
   -0.4850    0.9677   -1.0605 C   0  0  0  0  0  0  0  0  0  0  0  0
   -0.9596   -0.0072    0.0057 C   0  0  0  0  0  0  0  0  0  0  0  0
   -1.9217    0.2704    1.0284 C   0  0  0  0  0  0  0  0  0  0  0  0
   -2.1727   -0.7903   -0.0725 C   0  0  0  0  0  0  0  0  0  0  0  0
    1.9726    0.5188   -1.0218 O   0  0  0  0  0  0  0  0  0  0  0  0
    2.6980   -0.2544   -0.0386 C   0  0  0  0  0  0  0  0  0  0  0  0
    1.6517   -2.1834    0.7157 H   0  0  0  0  0  0  0  0  0  0  0  0
    0.9603    1.5591    0.5075 H   0  0  0  0  0  0  0  0  0  0  0  0
   -0.5570    0.5379   -2.0568 H   0  0  0  0  0  0  0  0  0  0  0  0
   -0.9062    1.9929   -0.9296 H   0  0  0  0  0  0  0  0  0  0  0  0
   -1.8176   -0.0930    2.0635 H   0  0  0  0  0  0  0  0  0  0  0  0
   -2.5412    1.1927    0.9605 H   0  0  0  0  0  0  0  0  0  0  0  0
   -2.1490   -1.8552    0.2543 H   0  0  0  0  0  0  0  0  0  0  0  0
   -2.9913   -0.5535   -0.8016 H   0  0  0  0  0  0  0  0  0  0  0  0
    3.5016   -0.8246   -0.5023 H   0  0  0  0  0  0  0  0  0  0  0  0
    2.9327    0.3575    0.8217 H   0  0  0  0  0  0  0  0  0  0  0  0
  1  2  2  0
  2  3  1  0
  3  4  1  0
  4  5  1  0
  5  6  1  0
  6  7  1  0
  3  8  1  0
  8  9  1  0
  9  1  1  0
  5  2  1  0
  7  5  1  0
  1 10  1  0
  3 11  1  0
  4 12  1  0
  4 13  1  0
  6 14  1  0
  6 15  1  0
  7 16  1  0
  7 17  1  0
  9 18  1  0
  9 19  1  0
M  END
