
     RDKit          3D

 21 23  0  0  0  0  0  0  0  0999 V2000
    2.0556   -0.1729    0.0167 C   0  0  0  0  0  0  0  0  0  0  0  0
    1.7534    1.0797   -0.3107 C   0  0  0  0  0  0  0  0  0  0  0  0
    0.3614    1.3859   -0.7414 C   0  0  0  0  0  0  0  0  0  0  0  0
   -0.6783    0.7084    0.0783 C   0  0  0  0  0  0  0  0  0  0  0  0
   -1.7114   -0.0567   -0.6549 C   0  0  0  0  0  0  0  0  0  0  0  0
   -1.5950   -1.2631    0.2557 C   0  0  0  0  0  0  0  0  0  0  0  0
   -0.2367   -0.6500    0.6333 C   0  0  0  0  0  0  0  0  0  0  0  0
    0.9309   -1.1540   -0.0890 C   0  0  0  0  0  0  0  0  0  0  0  0
   -0.3374    0.5027    1.5006 C   0  0  0  0  0  0  0  0  0  0  0  0
    3.0383   -0.4931    0.3413 H   0  0  0  0  0  0  0  0  0  0  0  0
    2.5508    1.8095   -0.2425 H   0  0  0  0  0  0  0  0  0  0  0  0
    0.2081    2.4936   -0.6155 H   0  0  0  0  0  0  0  0  0  0  0  0
    0.2405    1.2020   -1.8366 H   0  0  0  0  0  0  0  0  0  0  0  0
   -1.3661   -0.3415   -1.6759 H   0  0  0  0  0  0  0  0  0  0  0  0
   -2.7219    0.3734   -0.7313 H   0  0  0  0  0  0  0  0  0  0  0  0
   -2.3122   -1.2162    1.1181 H   0  0  0  0  0  0  0  0  0  0  0  0
   -1.5342   -2.2324   -0.2397 H   0  0  0  0  0  0  0  0  0  0  0  0
    0.7088   -1.2185   -1.1955 H   0  0  0  0  0  0  0  0  0  0  0  0
    1.2266   -2.1598    0.2117 H   0  0  0  0  0  0  0  0  0  0  0  0
   -1.1548    0.4545    2.2807 H   0  0  0  0  0  0  0  0  0  0  0  0
    0.5736    0.9484    1.8966 H   0  0  0  0  0  0  0  0  0  0  0  0
  1  2  2  0
  2  3  1  0
  3  4  1  0
  4  5  1  0
  5  6  1  0
  6  7  1  0
  7  8  1  0
  7  9  1  0
  8  1  1  0
  7  4  1  0
  9  4  1  0
  1 10  1  0
  2 11  1  0
  3 12  1  0
  3 13  1  0
  5 14  1  0
  5 15  1  0
  6 16  1  0
  6 17  1  0
  8 18  1  0
  8 19  1  0
  9 20  1  0
  9 21  1  0
M  END
