
     RDKit          3D

 21 23  0  0  0  0  0  0  0  0999 V2000
    1.2190    1.1545    0.5271 C   0  0  0  0  0  0  0  0  0  0  0  0
    1.8442    0.0069    0.5693 C   0  0  0  0  0  0  0  0  0  0  0  0
    1.5552   -1.2398   -0.1525 C   0  0  0  0  0  0  0  0  0  0  0  0
    0.0799   -1.5605   -0.0963 C   0  0  0  0  0  0  0  0  0  0  0  0
   -0.9266   -0.8597    0.6769 C   0  0  0  0  0  0  0  0  0  0  0  0
   -1.9785    0.1438    0.2836 C   0  0  0  0  0  0  0  0  0  0  0  0
   -0.9411    0.6886   -0.6752 C   0  0  0  0  0  0  0  0  0  0  0  0
    0.0591    1.6180   -0.2090 C   0  0  0  0  0  0  0  0  0  0  0  0
   -0.6919   -0.7304   -0.8514 C   0  0  0  0  0  0  0  0  0  0  0  0
    1.6844    1.9053    1.1923 H   0  0  0  0  0  0  0  0  0  0  0  0
    2.7165   -0.0454    1.2400 H   0  0  0  0  0  0  0  0  0  0  0  0
    2.1995   -2.0663    0.2050 H   0  0  0  0  0  0  0  0  0  0  0  0
    1.8425   -1.0756   -1.2211 H   0  0  0  0  0  0  0  0  0  0  0  0
   -0.0639   -2.6843   -0.1019 H   0  0  0  0  0  0  0  0  0  0  0  0
   -0.3785   -0.4237    1.4864 H   0  0  0  0  0  0  0  0  0  0  0  0
   -2.2808    0.9023    0.9858 H   0  0  0  0  0  0  0  0  0  0  0  0
   -2.8608   -0.2745   -0.2475 H   0  0  0  0  0  0  0  0  0  0  0  0
   -1.5136    1.1437   -1.5427 H   0  0  0  0  0  0  0  0  0  0  0  0
    0.4543    2.2072   -1.0920 H   0  0  0  0  0  0  0  0  0  0  0  0
   -0.4454    2.4213    0.4099 H   0  0  0  0  0  0  0  0  0  0  0  0
   -1.5734   -1.2315   -1.3866 H   0  0  0  0  0  0  0  0  0  0  0  0
  1  2  2  0
  2  3  1  0
  3  4  1  0
  4  5  1  0
  5  6  1  0
  6  7  1  0
  7  8  1  0
  7  9  1  0
  8  1  1  0
  9  4  1  0
  9  5  1  0
  1 10  1  0
  2 11  1  0
  3 12  1  0
  3 13  1  0
  4 14  1  0
  5 15  1  0
  6 16  1  0
  6 17  1  0
  7 18  1  0
  8 19  1  0
  8 20  1  0
  9 21  1  0
M  END
