
     RDKit          3D

 21 23  0  0  0  0  0  0  0  0999 V2000
    1.1263    1.5528   -0.0941 C   0  0  0  0  0  0  0  0  0  0  0  0
   -0.1554    1.7314    0.2181 C   0  0  0  0  0  0  0  0  0  0  0  0
   -0.9161    0.5096    0.4333 C   0  0  0  0  0  0  0  0  0  0  0  0
   -0.0680   -0.3492    1.3482 C   0  0  0  0  0  0  0  0  0  0  0  0
    0.9106   -0.9025    0.3271 C   0  0  0  0  0  0  0  0  0  0  0  0
    1.7307    0.2009   -0.2448 C   0  0  0  0  0  0  0  0  0  0  0  0
   -0.0864   -1.4388   -0.7027 C   0  0  0  0  0  0  0  0  0  0  0  0
   -0.9994   -0.3025   -0.9033 C   0  0  0  0  0  0  0  0  0  0  0  0
   -2.1527    0.0683   -0.0988 C   0  0  0  0  0  0  0  0  0  0  0  0
    1.7667    2.4112   -0.2476 H   0  0  0  0  0  0  0  0  0  0  0  0
   -0.5440    2.7198    0.2917 H   0  0  0  0  0  0  0  0  0  0  0  0
    0.5205    0.2915    2.0356 H   0  0  0  0  0  0  0  0  0  0  0  0
   -0.6265   -1.1223    1.8689 H   0  0  0  0  0  0  0  0  0  0  0  0
    1.4985   -1.7100    0.7873 H   0  0  0  0  0  0  0  0  0  0  0  0
    1.8330    0.0027   -1.3485 H   0  0  0  0  0  0  0  0  0  0  0  0
    2.7383    0.1580    0.2186 H   0  0  0  0  0  0  0  0  0  0  0  0
    0.4441   -1.7166   -1.6316 H   0  0  0  0  0  0  0  0  0  0  0  0
   -0.5950   -2.3322   -0.3352 H   0  0  0  0  0  0  0  0  0  0  0  0
   -0.8726    0.2444   -1.8540 H   0  0  0  0  0  0  0  0  0  0  0  0
   -2.6623   -0.7811    0.4462 H   0  0  0  0  0  0  0  0  0  0  0  0
   -2.8902    0.7645   -0.5143 H   0  0  0  0  0  0  0  0  0  0  0  0
  1  2  2  0
  2  3  1  0
  3  4  1  0
  4  5  1  0
  5  6  1  0
  5  7  1  0
  7  8  1  0
  8  9  1  0
  6  1  1  0
  8  3  1  0
  9  3  1  0
  1 10  1  0
  2 11  1  0
  4 12  1  0
  4 13  1  0
  5 14  1  0
  6 15  1  0
  6 16  1  0
  7 17  1  0
  7 18  1  0
  8 19  1  0
  9 20  1  0
  9 21  1  0
M  END
