
     RDKit          3D

 17 19  0  0  0  0  0  0  0  0999 V2000
   -0.6716    1.5159   -0.0453 C   0  0  0  0  0  0  0  0  0  0  0  0
   -1.5540    0.6402    0.4272 C   0  0  0  0  0  0  0  0  0  0  0  0
   -1.2328   -0.7362    0.0071 C   0  0  0  0  0  0  0  0  0  0  0  0
   -0.4686   -1.4714    0.9196 O   0  0  0  0  0  0  0  0  0  0  0  0
    0.6669   -1.2225    0.1852 C   0  0  0  0  0  0  0  0  0  0  0  0
    1.4692   -0.0979    0.7924 C   0  0  0  0  0  0  0  0  0  0  0  0
    1.6121    0.8439   -0.2234 O   0  0  0  0  0  0  0  0  0  0  0  0
    0.3763    0.8604   -0.8546 C   0  0  0  0  0  0  0  0  0  0  0  0
   -0.0715   -0.5569   -0.9257 C   0  0  0  0  0  0  0  0  0  0  0  0
   -0.6956    2.5863    0.1277 H   0  0  0  0  0  0  0  0  0  0  0  0
   -2.4144    0.8899    1.0494 H   0  0  0  0  0  0  0  0  0  0  0  0
   -2.0677   -1.3558   -0.3495 H   0  0  0  0  0  0  0  0  0  0  0  0
    1.2420   -2.0998   -0.1549 H   0  0  0  0  0  0  0  0  0  0  0  0
    0.9360    0.3878    1.6469 H   0  0  0  0  0  0  0  0  0  0  0  0
    2.4684   -0.4800    1.1279 H   0  0  0  0  0  0  0  0  0  0  0  0
    0.5225    1.3411   -1.8408 H   0  0  0  0  0  0  0  0  0  0  0  0
   -0.1172   -1.0450   -1.8894 H   0  0  0  0  0  0  0  0  0  0  0  0
  1  2  2  0
  2  3  1  0
  3  4  1  0
  4  5  1  0
  5  6  1  0
  6  7  1  0
  7  8  1  0
  8  9  1  0
  8  1  1  0
  9  3  1  0
  9  5  1  0
  1 10  1  0
  2 11  1  0
  3 12  1  0
  5 13  1  0
  6 14  1  0
  6 15  1  0
  8 16  1  0
  9 17  1  0
M  END
