
     RDKit          3D

 19 20  0  0  0  0  0  0  0  0999 V2000
    0.8336    1.3445   -0.3526 C   0  0  0  0  0  0  0  0  0  0  0  0
   -0.4116    1.4053    0.2085 C   0  0  0  0  0  0  0  0  0  0  0  0
   -1.2028    0.3665    0.9166 C   0  0  0  0  0  0  0  0  0  0  0  0
   -2.0674   -0.5525    0.0631 C   0  0  0  0  0  0  0  0  0  0  0  0
   -1.2123   -1.6767   -0.2517 O   0  0  0  0  0  0  0  0  0  0  0  0
   -0.0841   -0.9863   -0.1911 C   0  0  0  0  0  0  0  0  0  0  0  0
    1.2907   -1.1551   -0.3785 C   0  0  0  0  0  0  0  0  0  0  0  0
    1.8633    0.2592   -0.0949 C   0  0  0  0  0  0  0  0  0  0  0  0
   -0.2113   -0.6132    1.1807 O   0  0  0  0  0  0  0  0  0  0  0  0
    1.1125    2.1363   -1.0395 H   0  0  0  0  0  0  0  0  0  0  0  0
   -0.8558    2.3989    0.0914 H   0  0  0  0  0  0  0  0  0  0  0  0
   -1.6908    0.7066    1.8209 H   0  0  0  0  0  0  0  0  0  0  0  0
   -2.8427   -0.9483    0.7128 H   0  0  0  0  0  0  0  0  0  0  0  0
   -2.4095   -0.0707   -0.8505 H   0  0  0  0  0  0  0  0  0  0  0  0
   -0.3344   -0.1637   -0.9348 H   0  0  0  0  0  0  0  0  0  0  0  0
    1.5733   -1.3463   -1.4548 H   0  0  0  0  0  0  0  0  0  0  0  0
    1.8901   -1.8410    0.2413 H   0  0  0  0  0  0  0  0  0  0  0  0
    2.0177    0.2770    1.0036 H   0  0  0  0  0  0  0  0  0  0  0  0
    2.7415    0.4595   -0.6908 H   0  0  0  0  0  0  0  0  0  0  0  0
  1  2  2  0
  2  3  1  0
  3  4  1  0
  4  5  1  0
  5  6  1  0
  6  7  1  0
  7  8  1  0
  6  9  1  0
  8  1  1  0
  9  3  1  0
  1 10  1  0
  2 11  1  0
  3 12  1  0
  4 13  1  0
  4 14  1  0
  6 15  1  0
  7 16  1  0
  7 17  1  0
  8 18  1  0
  8 19  1  0
M  END
