
     RDKit          3D

 23 24  0  0  0  0  0  0  0  0999 V2000
    2.4834    0.2145    1.0015 C   0  0  0  0  0  0  0  0  0  0  0  0
    1.2177    0.0485    1.3498 C   0  0  0  0  0  0  0  0  0  0  0  0
    0.3689    0.1792    0.1529 C   0  0  0  0  0  0  0  0  0  0  0  0
   -0.8286   -0.7416    0.1975 C   0  0  0  0  0  0  0  0  0  0  0  0
   -1.6952   -0.6119   -1.0183 C   0  0  0  0  0  0  0  0  0  0  0  0
   -2.3323    0.5976   -0.3554 C   0  0  0  0  0  0  0  0  0  0  0  0
   -1.9411   -0.0267    0.9725 C   0  0  0  0  0  0  0  0  0  0  0  0
    1.3003   -0.2499   -0.9557 C   0  0  0  0  0  0  0  0  0  0  0  0
    2.5743    0.4726   -0.4831 C   0  0  0  0  0  0  0  0  0  0  0  0
    3.3770    0.1846    1.6272 H   0  0  0  0  0  0  0  0  0  0  0  0
    0.8647   -0.1529    2.3632 H   0  0  0  0  0  0  0  0  0  0  0  0
    0.0731    1.2445    0.0698 H   0  0  0  0  0  0  0  0  0  0  0  0
   -0.5893   -1.7431    0.5479 H   0  0  0  0  0  0  0  0  0  0  0  0
   -1.2008   -0.4325   -1.9698 H   0  0  0  0  0  0  0  0  0  0  0  0
   -2.4622   -1.4351   -1.0582 H   0  0  0  0  0  0  0  0  0  0  0  0
   -1.8305    1.5375   -0.6021 H   0  0  0  0  0  0  0  0  0  0  0  0
   -3.4323    0.6670   -0.4663 H   0  0  0  0  0  0  0  0  0  0  0  0
   -2.6665   -0.7679    1.3258 H   0  0  0  0  0  0  0  0  0  0  0  0
   -1.5682    0.6913    1.7231 H   0  0  0  0  0  0  0  0  0  0  0  0
    1.4297   -1.3461   -0.8627 H   0  0  0  0  0  0  0  0  0  0  0  0
    0.9897    0.0891   -1.9460 H   0  0  0  0  0  0  0  0  0  0  0  0
    3.4717    0.0462   -0.9264 H   0  0  0  0  0  0  0  0  0  0  0  0
    2.3964    1.5351   -0.6874 H   0  0  0  0  0  0  0  0  0  0  0  0
  1  2  2  0
  2  3  1  0
  3  4  1  0
  4  5  1  0
  5  6  1  0
  6  7  1  0
  3  8  1  0
  8  9  1  0
  9  1  1  0
  7  4  1  0
  1 10  1  0
  2 11  1  0
  3 12  1  0
  4 13  1  0
  5 14  1  0
  5 15  1  0
  6 16  1  0
  6 17  1  0
  7 18  1  0
  7 19  1  0
  8 20  1  0
  8 21  1  0
  9 22  1  0
  9 23  1  0
M  END
