
     RDKit          3D

 23 24  0  0  0  0  0  0  0  0999 V2000
    1.6846   -1.0755    0.1382 C   0  0  0  0  0  0  0  0  0  0  0  0
    1.7740    0.1576    0.6268 C   0  0  0  0  0  0  0  0  0  0  0  0
    0.8691    1.2964    0.6484 C   0  0  0  0  0  0  0  0  0  0  0  0
   -0.2116    1.3267   -0.3500 C   0  0  0  0  0  0  0  0  0  0  0  0
   -1.5764    1.0486    0.2951 C   0  0  0  0  0  0  0  0  0  0  0  0
   -1.3948   -0.4079    0.6375 C   0  0  0  0  0  0  0  0  0  0  0  0
   -0.6987   -0.9556   -0.5706 C   0  0  0  0  0  0  0  0  0  0  0  0
    0.4438   -1.7979   -0.1385 C   0  0  0  0  0  0  0  0  0  0  0  0
   -0.1584    0.2038   -1.3616 C   0  0  0  0  0  0  0  0  0  0  0  0
    2.6416   -1.5830   -0.0707 H   0  0  0  0  0  0  0  0  0  0  0  0
    2.7391    0.3706    1.1245 H   0  0  0  0  0  0  0  0  0  0  0  0
    1.4839    2.2362    0.5240 H   0  0  0  0  0  0  0  0  0  0  0  0
    0.4160    1.4055    1.6697 H   0  0  0  0  0  0  0  0  0  0  0  0
   -0.2724    2.2794   -0.8959 H   0  0  0  0  0  0  0  0  0  0  0  0
   -1.7272    1.6920    1.1664 H   0  0  0  0  0  0  0  0  0  0  0  0
   -2.3755    1.1172   -0.4606 H   0  0  0  0  0  0  0  0  0  0  0  0
   -0.7562   -0.4858    1.5547 H   0  0  0  0  0  0  0  0  0  0  0  0
   -2.3706   -0.9111    0.7711 H   0  0  0  0  0  0  0  0  0  0  0  0
   -1.4149   -1.4934   -1.2229 H   0  0  0  0  0  0  0  0  0  0  0  0
    0.1341   -2.4378    0.7366 H   0  0  0  0  0  0  0  0  0  0  0  0
    0.6644   -2.5399   -0.9576 H   0  0  0  0  0  0  0  0  0  0  0  0
    0.9095    0.0855   -1.6405 H   0  0  0  0  0  0  0  0  0  0  0  0
   -0.8032    0.4684   -2.2241 H   0  0  0  0  0  0  0  0  0  0  0  0
  1  2  2  0
  2  3  1  0
  3  4  1  0
  4  5  1  0
  5  6  1  0
  6  7  1  0
  7  8  1  0
  7  9  1  0
  8  1  1  0
  9  4  1  0
  1 10  1  0
  2 11  1  0
  3 12  1  0
  3 13  1  0
  4 14  1  0
  5 15  1  0
  5 16  1  0
  6 17  1  0
  6 18  1  0
  7 19  1  0
  8 20  1  0
  8 21  1  0
  9 22  1  0
  9 23  1  0
M  END
