
     RDKit          3D

 19 20  0  0  0  0  0  0  0  0999 V2000
   -1.9383    0.7926    0.2732 C   0  0  0  0  0  0  0  0  0  0  0  0
   -0.7883    1.4363    0.4399 C   0  0  0  0  0  0  0  0  0  0  0  0
    0.4462    0.6528    0.5794 C   0  0  0  0  0  0  0  0  0  0  0  0
    1.5897    1.3647    0.1832 O   0  0  0  0  0  0  0  0  0  0  0  0
    2.5202    0.3045    0.1019 C   0  0  0  0  0  0  0  0  0  0  0  0
    1.7344   -0.6817   -0.6972 C   0  0  0  0  0  0  0  0  0  0  0  0
    0.4435   -0.4632   -0.3985 C   0  0  0  0  0  0  0  0  0  0  0  0
   -0.8412   -1.0596   -0.8145 C   0  0  0  0  0  0  0  0  0  0  0  0
   -1.9044   -0.7164    0.2372 C   0  0  0  0  0  0  0  0  0  0  0  0
   -2.8602    1.3342    0.1678 H   0  0  0  0  0  0  0  0  0  0  0  0
   -0.7588    2.5308    0.4730 H   0  0  0  0  0  0  0  0  0  0  0  0
    0.5905    0.2342    1.5959 H   0  0  0  0  0  0  0  0  0  0  0  0
    2.6394   -0.0601    1.1564 H   0  0  0  0  0  0  0  0  0  0  0  0
    3.4566    0.6019   -0.3668 H   0  0  0  0  0  0  0  0  0  0  0  0
    2.0754   -1.4390   -1.3893 H   0  0  0  0  0  0  0  0  0  0  0  0
   -0.7969   -2.1345   -1.0152 H   0  0  0  0  0  0  0  0  0  0  0  0
   -1.1730   -0.4964   -1.7360 H   0  0  0  0  0  0  0  0  0  0  0  0
   -1.5503   -1.0696    1.2267 H   0  0  0  0  0  0  0  0  0  0  0  0
   -2.8844   -1.1314   -0.0170 H   0  0  0  0  0  0  0  0  0  0  0  0
  1  2  2  0
  2  3  1  0
  3  4  1  0
  4  5  1  0
  5  6  1  0
  6  7  2  0
  7  8  1  0
  8  9  1  0
  9  1  1  0
  7  3  1  0
  1 10  1  0
  2 11  1  0
  3 12  1  0
  5 13  1  0
  5 14  1  0
  6 15  1  0
  8 16  1  0
  8 17  1  0
  9 18  1  0
  9 19  1  0
M  END
