
     RDKit          3D

 19 21  0  0  0  0  0  0  0  0999 V2000
    1.0754   -0.8982   -0.7622 C   0  0  0  0  0  0  0  0  0  0  0  0
    1.6396    0.3043   -0.7170 C   0  0  0  0  0  0  0  0  0  0  0  0
    0.7546    1.1023    0.1855 C   0  0  0  0  0  0  0  0  0  0  0  0
    0.5659    0.0758    1.3129 C   0  0  0  0  0  0  0  0  0  0  0  0
    0.2332   -1.1444    0.4408 C   0  0  0  0  0  0  0  0  0  0  0  0
   -1.2317   -1.0289    0.1120 C   0  0  0  0  0  0  0  0  0  0  0  0
   -1.5078    0.2872   -0.5364 C   0  0  0  0  0  0  0  0  0  0  0  0
   -0.8333    0.6587   -1.6892 O   0  0  0  0  0  0  0  0  0  0  0  0
   -0.5729    1.3274   -0.4653 C   0  0  0  0  0  0  0  0  0  0  0  0
    1.2292   -1.6041   -1.5974 H   0  0  0  0  0  0  0  0  0  0  0  0
    2.5437    0.6637   -1.2129 H   0  0  0  0  0  0  0  0  0  0  0  0
    1.2372    2.0127    0.5536 H   0  0  0  0  0  0  0  0  0  0  0  0
    1.5309   -0.0557    1.8333 H   0  0  0  0  0  0  0  0  0  0  0  0
   -0.2674    0.3616    1.9531 H   0  0  0  0  0  0  0  0  0  0  0  0
    0.5034   -2.0811    0.9358 H   0  0  0  0  0  0  0  0  0  0  0  0
   -1.7701   -1.0199    1.1052 H   0  0  0  0  0  0  0  0  0  0  0  0
   -1.6163   -1.9032   -0.4480 H   0  0  0  0  0  0  0  0  0  0  0  0
   -2.6084    0.5455   -0.5529 H   0  0  0  0  0  0  0  0  0  0  0  0
   -0.9051    2.3961   -0.4508 H   0  0  0  0  0  0  0  0  0  0  0  0
  1  2  2  0
  2  3  1  0
  3  4  1  0
  4  5  1  0
  5  6  1  0
  6  7  1  0
  7  8  1  0
  8  9  1  0
  5  1  1  0
  9  7  1  0
  9  3  1  0
  1 10  1  0
  2 11  1  0
  3 12  1  0
  4 13  1  0
  4 14  1  0
  5 15  1  0
  6 16  1  0
  6 17  1  0
  7 18  1  0
  9 19  1  0
M  END
