
     RDKit          3D

 21 22  0  0  0  0  0  0  0  0999 V2000
    1.6499    0.7168   -0.2632 C   0  0  0  0  0  0  0  0  0  0  0  0
    0.6810    1.6049   -0.0724 C   0  0  0  0  0  0  0  0  0  0  0  0
   -0.7925    1.3516   -0.2013 C   0  0  0  0  0  0  0  0  0  0  0  0
   -1.1835    0.5723    1.0509 C   0  0  0  0  0  0  0  0  0  0  0  0
   -0.4541   -0.7334    1.1360 C   0  0  0  0  0  0  0  0  0  0  0  0
    0.1068   -1.1968   -0.1842 C   0  0  0  0  0  0  0  0  0  0  0  0
    1.5464   -0.7791   -0.3752 C   0  0  0  0  0  0  0  0  0  0  0  0
   -0.7959   -0.7115   -1.2703 C   0  0  0  0  0  0  0  0  0  0  0  0
   -0.9806    0.6280   -1.3501 O   0  0  0  0  0  0  0  0  0  0  0  0
    2.6442    1.1211   -0.3493 H   0  0  0  0  0  0  0  0  0  0  0  0
    0.9799    2.6251    0.2069 H   0  0  0  0  0  0  0  0  0  0  0  0
   -1.3687    2.2746   -0.2161 H   0  0  0  0  0  0  0  0  0  0  0  0
   -2.2685    0.4698    1.0482 H   0  0  0  0  0  0  0  0  0  0  0  0
   -0.8094    1.2060    1.9097 H   0  0  0  0  0  0  0  0  0  0  0  0
    0.3855   -0.7203    1.8601 H   0  0  0  0  0  0  0  0  0  0  0  0
   -1.1807   -1.4972    1.5238 H   0  0  0  0  0  0  0  0  0  0  0  0
    0.1027   -2.3178   -0.2317 H   0  0  0  0  0  0  0  0  0  0  0  0
    2.1134   -1.1855    0.4870 H   0  0  0  0  0  0  0  0  0  0  0  0
    1.9037   -1.1542   -1.3319 H   0  0  0  0  0  0  0  0  0  0  0  0
   -0.4834   -1.0826   -2.2802 H   0  0  0  0  0  0  0  0  0  0  0  0
   -1.7961   -1.1917   -1.0968 H   0  0  0  0  0  0  0  0  0  0  0  0
  1  2  2  0
  2  3  1  0
  3  4  1  0
  4  5  1  0
  5  6  1  0
  6  7  1  0
  6  8  1  0
  8  9  1  0
  7  1  1  0
  9  3  1  0
  1 10  1  0
  2 11  1  0
  3 12  1  0
  4 13  1  0
  4 14  1  0
  5 15  1  0
  5 16  1  0
  6 17  1  0
  7 18  1  0
  7 19  1  0
  8 20  1  0
  8 21  1  0
M  END
