
     RDKit          3D

 23 24  0  0  0  0  0  0  0  0999 V2000
    0.9219    1.5545   -0.4124 C   0  0  0  0  0  0  0  0  0  0  0  0
   -0.3507    1.2700   -0.5709 C   0  0  0  0  0  0  0  0  0  0  0  0
   -1.0785    0.1071   -0.0244 C   0  0  0  0  0  0  0  0  0  0  0  0
   -0.3306   -1.1538   -0.3273 C   0  0  0  0  0  0  0  0  0  0  0  0
    0.9367   -1.3192    0.4442 C   0  0  0  0  0  0  0  0  0  0  0  0
    2.0692   -0.5632   -0.2297 C   0  0  0  0  0  0  0  0  0  0  0  0
    2.0139    0.8586    0.3224 C   0  0  0  0  0  0  0  0  0  0  0  0
   -2.5773    0.0040   -0.3512 C   0  0  0  0  0  0  0  0  0  0  0  0
   -2.0633    0.2290    1.0465 C   0  0  0  0  0  0  0  0  0  0  0  0
    1.2277    2.4750   -0.9171 H   0  0  0  0  0  0  0  0  0  0  0  0
   -0.9641    1.9438   -1.1639 H   0  0  0  0  0  0  0  0  0  0  0  0
   -0.0535   -1.1174   -1.4146 H   0  0  0  0  0  0  0  0  0  0  0  0
   -0.9746   -2.0620   -0.2319 H   0  0  0  0  0  0  0  0  0  0  0  0
    1.2183   -2.4034    0.3980 H   0  0  0  0  0  0  0  0  0  0  0  0
    0.7722   -1.0090    1.4844 H   0  0  0  0  0  0  0  0  0  0  0  0
    3.0618   -1.0064   -0.0074 H   0  0  0  0  0  0  0  0  0  0  0  0
    1.8524   -0.5541   -1.3172 H   0  0  0  0  0  0  0  0  0  0  0  0
    2.9803    1.3183    0.0944 H   0  0  0  0  0  0  0  0  0  0  0  0
    1.8247    0.8314    1.4191 H   0  0  0  0  0  0  0  0  0  0  0  0
   -3.0104   -0.9847   -0.5201 H   0  0  0  0  0  0  0  0  0  0  0  0
   -2.9845    0.8284   -0.9455 H   0  0  0  0  0  0  0  0  0  0  0  0
   -2.2598    1.2781    1.4104 H   0  0  0  0  0  0  0  0  0  0  0  0
   -2.2317   -0.5249    1.8142 H   0  0  0  0  0  0  0  0  0  0  0  0
  1  2  2  0
  2  3  1  0
  3  4  1  0
  4  5  1  0
  5  6  1  0
  6  7  1  0
  3  8  1  0
  8  9  1  0
  7  1  1  0
  9  3  1  0
  1 10  1  0
  2 11  1  0
  4 12  1  0
  4 13  1  0
  5 14  1  0
  5 15  1  0
  6 16  1  0
  6 17  1  0
  7 18  1  0
  7 19  1  0
  8 20  1  0
  8 21  1  0
  9 22  1  0
  9 23  1  0
M  END
