
     RDKit          3D

 21 23  0  0  0  0  0  0  0  0999 V2000
    0.7538    1.1160    1.3888 C   0  0  0  0  0  0  0  0  0  0  0  0
    1.4284    0.4296    0.4969 C   0  0  0  0  0  0  0  0  0  0  0  0
    2.4188   -0.3055   -0.3108 C   0  0  0  0  0  0  0  0  0  0  0  0
    1.2217   -1.2099   -0.6866 C   0  0  0  0  0  0  0  0  0  0  0  0
    0.4874    0.1082   -0.6560 C   0  0  0  0  0  0  0  0  0  0  0  0
   -0.8524    0.1560   -0.0004 C   0  0  0  0  0  0  0  0  0  0  0  0
   -0.6558    1.3067    0.9676 C   0  0  0  0  0  0  0  0  0  0  0  0
   -2.1220    0.1351   -0.7256 C   0  0  0  0  0  0  0  0  0  0  0  0
   -1.7092   -0.9865    0.2639 C   0  0  0  0  0  0  0  0  0  0  0  0
    1.1107    1.5333    2.3509 H   0  0  0  0  0  0  0  0  0  0  0  0
    3.2161   -0.8285    0.2102 H   0  0  0  0  0  0  0  0  0  0  0  0
    2.6877    0.2632   -1.2241 H   0  0  0  0  0  0  0  0  0  0  0  0
    1.3333   -1.6888   -1.6600 H   0  0  0  0  0  0  0  0  0  0  0  0
    1.0190   -1.8641    0.1809 H   0  0  0  0  0  0  0  0  0  0  0  0
    0.6520    0.7075   -1.5472 H   0  0  0  0  0  0  0  0  0  0  0  0
   -1.3638    1.2918    1.7983 H   0  0  0  0  0  0  0  0  0  0  0  0
   -0.7050    2.2416    0.3697 H   0  0  0  0  0  0  0  0  0  0  0  0
   -2.9776    0.7694   -0.4340 H   0  0  0  0  0  0  0  0  0  0  0  0
   -2.1977   -0.2153   -1.7806 H   0  0  0  0  0  0  0  0  0  0  0  0
   -1.4312   -1.9663   -0.1907 H   0  0  0  0  0  0  0  0  0  0  0  0
   -2.3142   -0.9936    1.1887 H   0  0  0  0  0  0  0  0  0  0  0  0
  1  2  2  0
  2  3  1  0
  3  4  1  0
  4  5  1  0
  5  6  1  0
  6  7  1  0
  6  8  1  0
  8  9  1  0
  7  1  1  0
  5  2  1  0
  9  6  1  0
  1 10  1  0
  3 11  1  0
  3 12  1  0
  4 13  1  0
  4 14  1  0
  5 15  1  0
  7 16  1  0
  7 17  1  0
  8 18  1  0
  8 19  1  0
  9 20  1  0
  9 21  1  0
M  END
