
     RDKit          3D

 19 21  0  0  0  0  0  0  0  0999 V2000
    1.1158    1.0921    0.6229 C   0  0  0  0  0  0  0  0  0  0  0  0
   -0.1316    1.3282    0.3158 C   0  0  0  0  0  0  0  0  0  0  0  0
   -1.0799    0.6946   -0.6022 C   0  0  0  0  0  0  0  0  0  0  0  0
   -2.2649   -0.0155    0.0366 C   0  0  0  0  0  0  0  0  0  0  0  0
   -1.1472   -0.8144   -0.4777 C   0  0  0  0  0  0  0  0  0  0  0  0
   -0.0158   -1.2162    0.3964 C   0  0  0  0  0  0  0  0  0  0  0  0
    0.8635   -2.1999    0.1520 O   0  0  0  0  0  0  0  0  0  0  0  0
    1.2308   -1.0692   -0.4929 C   0  0  0  0  0  0  0  0  0  0  0  0
    2.0255    0.0336    0.1009 C   0  0  0  0  0  0  0  0  0  0  0  0
    1.5869    1.7358    1.3559 H   0  0  0  0  0  0  0  0  0  0  0  0
   -0.5597    2.1825    0.8613 H   0  0  0  0  0  0  0  0  0  0  0  0
   -1.3047    1.1773   -1.5641 H   0  0  0  0  0  0  0  0  0  0  0  0
   -2.3739    0.0277    1.1359 H   0  0  0  0  0  0  0  0  0  0  0  0
   -3.2270   -0.0209   -0.5157 H   0  0  0  0  0  0  0  0  0  0  0  0
   -1.1947   -1.3089   -1.4906 H   0  0  0  0  0  0  0  0  0  0  0  0
   -0.0110   -0.7462    1.3942 H   0  0  0  0  0  0  0  0  0  0  0  0
    1.1270   -1.0601   -1.5719 H   0  0  0  0  0  0  0  0  0  0  0  0
    2.6525   -0.3079    0.9658 H   0  0  0  0  0  0  0  0  0  0  0  0
    2.7084    0.4874   -0.6226 H   0  0  0  0  0  0  0  0  0  0  0  0
  1  2  2  0
  2  3  1  0
  3  4  1  0
  4  5  1  0
  5  6  1  0
  6  7  1  0
  7  8  1  0
  8  9  1  0
  9  1  1  0
  5  3  1  0
  8  6  1  0
  1 10  1  0
  2 11  1  0
  3 12  1  0
  4 13  1  0
  4 14  1  0
  5 15  1  0
  6 16  1  0
  8 17  1  0
  9 18  1  0
  9 19  1  0
M  END
