
     RDKit          3D

 21 22  0  0  0  0  0  0  0  0999 V2000
    1.3317    1.0949   -0.3036 C   0  0  0  0  0  0  0  0  0  0  0  0
    0.1087    1.5999   -0.3998 C   0  0  0  0  0  0  0  0  0  0  0  0
   -1.1933    0.9249   -0.0776 C   0  0  0  0  0  0  0  0  0  0  0  0
   -1.1645    0.3279    1.2773 C   0  0  0  0  0  0  0  0  0  0  0  0
   -0.3629   -0.6907    1.5120 C   0  0  0  0  0  0  0  0  0  0  0  0
    0.5883   -1.1079    0.4121 C   0  0  0  0  0  0  0  0  0  0  0  0
    1.7625   -0.1183    0.4822 C   0  0  0  0  0  0  0  0  0  0  0  0
   -0.0721   -1.0746   -0.9223 C   0  0  0  0  0  0  0  0  0  0  0  0
   -1.3332   -0.2849   -1.0189 C   0  0  0  0  0  0  0  0  0  0  0  0
    2.1019    1.6070   -0.8460 H   0  0  0  0  0  0  0  0  0  0  0  0
    0.0236    2.6142   -0.7494 H   0  0  0  0  0  0  0  0  0  0  0  0
   -2.0081    1.6433   -0.2133 H   0  0  0  0  0  0  0  0  0  0  0  0
   -1.7845    0.7221    2.0420 H   0  0  0  0  0  0  0  0  0  0  0  0
   -0.3531   -1.2374    2.4451 H   0  0  0  0  0  0  0  0  0  0  0  0
    1.0121   -2.0858    0.6665 H   0  0  0  0  0  0  0  0  0  0  0  0
    2.0280    0.1281    1.5134 H   0  0  0  0  0  0  0  0  0  0  0  0
    2.5870   -0.5879   -0.0814 H   0  0  0  0  0  0  0  0  0  0  0  0
   -0.2309   -2.1064   -1.3416 H   0  0  0  0  0  0  0  0  0  0  0  0
    0.6625   -0.6049   -1.6405 H   0  0  0  0  0  0  0  0  0  0  0  0
   -1.4643    0.0572   -2.0697 H   0  0  0  0  0  0  0  0  0  0  0  0
   -2.2395   -0.8207   -0.6865 H   0  0  0  0  0  0  0  0  0  0  0  0
  1  2  2  0
  2  3  1  0
  3  4  1  0
  4  5  2  0
  5  6  1  0
  6  7  1  0
  6  8  1  0
  8  9  1  0
  7  1  1  0
  9  3  1  0
  1 10  1  0
  2 11  1  0
  3 12  1  0
  4 13  1  0
  5 14  1  0
  6 15  1  0
  7 16  1  0
  7 17  1  0
  8 18  1  0
  8 19  1  0
  9 20  1  0
  9 21  1  0
M  END
