
     RDKit          3D

 19 21  0  0  0  0  0  0  0  0999 V2000
    2.1019    0.7974    0.5069 C   0  0  0  0  0  0  0  0  0  0  0  0
    0.8981    1.2862    0.8144 C   0  0  0  0  0  0  0  0  0  0  0  0
   -0.1093    0.5338    0.0548 C   0  0  0  0  0  0  0  0  0  0  0  0
   -1.1550    1.1530   -0.7474 C   0  0  0  0  0  0  0  0  0  0  0  0
   -1.4662    0.2335    0.4801 C   0  0  0  0  0  0  0  0  0  0  0  0
   -1.6683   -1.2129    0.1762 C   0  0  0  0  0  0  0  0  0  0  0  0
   -0.3099   -1.7007   -0.1797 C   0  0  0  0  0  0  0  0  0  0  0  0
    0.5725   -0.7313   -0.2500 C   0  0  0  0  0  0  0  0  0  0  0  0
    1.9763   -0.3302   -0.4928 C   0  0  0  0  0  0  0  0  0  0  0  0
    3.0675    1.1119    0.8788 H   0  0  0  0  0  0  0  0  0  0  0  0
    0.6919    2.0930    1.5001 H   0  0  0  0  0  0  0  0  0  0  0  0
   -1.3414    2.2303   -0.5731 H   0  0  0  0  0  0  0  0  0  0  0  0
   -1.5406    0.7182   -1.6671 H   0  0  0  0  0  0  0  0  0  0  0  0
   -1.9900    0.7270    1.3179 H   0  0  0  0  0  0  0  0  0  0  0  0
   -2.0824   -1.7273    1.0481 H   0  0  0  0  0  0  0  0  0  0  0  0
   -2.2893   -1.3242   -0.7374 H   0  0  0  0  0  0  0  0  0  0  0  0
   -0.1389   -2.7873   -0.3526 H   0  0  0  0  0  0  0  0  0  0  0  0
    2.0900    0.0712   -1.5185 H   0  0  0  0  0  0  0  0  0  0  0  0
    2.6928   -1.1415   -0.2585 H   0  0  0  0  0  0  0  0  0  0  0  0
  1  2  2  0
  2  3  1  0
  3  4  1  0
  4  5  1  0
  5  6  1  0
  6  7  1  0
  7  8  2  0
  8  9  1  0
  9  1  1  0
  5  3  1  0
  8  3  1  0
  1 10  1  0
  2 11  1  0
  4 12  1  0
  4 13  1  0
  5 14  1  0
  6 15  1  0
  6 16  1  0
  7 17  1  0
  9 18  1  0
  9 19  1  0
M  END
