
     RDKit          3D

 17 20  0  0  0  0  0  0  0  0999 V2000
    1.4021    0.4874   -0.9614 C   0  0  0  0  0  0  0  0  0  0  0  0
    0.3446    1.2861   -0.8542 C   0  0  0  0  0  0  0  0  0  0  0  0
   -0.4513    0.6840    0.1905 C   0  0  0  0  0  0  0  0  0  0  0  0
   -1.8423    0.6524    0.4129 C   0  0  0  0  0  0  0  0  0  0  0  0
   -1.2777   -0.5378   -0.2567 C   0  0  0  0  0  0  0  0  0  0  0  0
   -0.8086   -1.6183    0.4701 O   0  0  0  0  0  0  0  0  0  0  0  0
    0.4930   -1.3188    0.8505 C   0  0  0  0  0  0  0  0  0  0  0  0
    1.4390   -0.6576   -0.0779 C   0  0  0  0  0  0  0  0  0  0  0  0
    0.6577   -0.0059    0.9366 C   0  0  0  0  0  0  0  0  0  0  0  0
    2.2478    0.6677   -1.6832 H   0  0  0  0  0  0  0  0  0  0  0  0
    0.1715    2.1639   -1.4351 H   0  0  0  0  0  0  0  0  0  0  0  0
   -2.4900    1.3020   -0.2000 H   0  0  0  0  0  0  0  0  0  0  0  0
   -2.2269    0.5780    1.4688 H   0  0  0  0  0  0  0  0  0  0  0  0
   -1.4455   -0.7134   -1.3110 H   0  0  0  0  0  0  0  0  0  0  0  0
    0.9593   -2.0800    1.4989 H   0  0  0  0  0  0  0  0  0  0  0  0
    1.6054   -1.4891   -0.7184 H   0  0  0  0  0  0  0  0  0  0  0  0
    1.2219    0.5993    1.6696 H   0  0  0  0  0  0  0  0  0  0  0  0
  1  2  2  0
  2  3  1  0
  3  4  1  0
  4  5  1  0
  5  6  1  0
  6  7  1  0
  7  8  1  0
  8  9  1  0
  8  1  1  0
  5  3  1  0
  9  7  1  0
  9  3  1  0
  1 10  1  0
  2 11  1  0
  4 12  1  0
  4 13  1  0
  5 14  1  0
  7 15  1  0
  8 16  1  0
  9 17  1  0
M  END
