
     RDKit          3D

 17 19  0  0  0  0  0  0  0  0999 V2000
    1.1988    1.1828   -0.3461 C   0  0  0  0  0  0  0  0  0  0  0  0
   -0.0922    1.5817   -0.2632 C   0  0  0  0  0  0  0  0  0  0  0  0
   -0.7731    0.5121    0.4391 C   0  0  0  0  0  0  0  0  0  0  0  0
   -2.0774   -0.0194    0.2835 C   0  0  0  0  0  0  0  0  0  0  0  0
   -1.0514   -0.6971   -0.4935 C   0  0  0  0  0  0  0  0  0  0  0  0
   -0.2441   -1.7086   -0.0507 O   0  0  0  0  0  0  0  0  0  0  0  0
    1.1106   -1.2970   -0.0720 C   0  0  0  0  0  0  0  0  0  0  0  0
    1.2986    0.0326    0.6279 C   0  0  0  0  0  0  0  0  0  0  0  0
    0.1386    0.1784    1.4301 O   0  0  0  0  0  0  0  0  0  0  0  0
    1.9978    1.5627   -0.9462 H   0  0  0  0  0  0  0  0  0  0  0  0
   -0.4464    2.5300   -0.6720 H   0  0  0  0  0  0  0  0  0  0  0  0
   -2.8545    0.5467   -0.2457 H   0  0  0  0  0  0  0  0  0  0  0  0
   -2.5121   -0.5918    1.1549 H   0  0  0  0  0  0  0  0  0  0  0  0
   -1.0577   -0.5181   -1.5880 H   0  0  0  0  0  0  0  0  0  0  0  0
    1.6336   -2.0552    0.5797 H   0  0  0  0  0  0  0  0  0  0  0  0
    1.5340   -1.3251   -1.0781 H   0  0  0  0  0  0  0  0  0  0  0  0
    2.1967    0.0852    1.2404 H   0  0  0  0  0  0  0  0  0  0  0  0
  1  2  2  0
  2  3  1  0
  3  4  1  0
  4  5  1  0
  5  6  1  0
  6  7  1  0
  7  8  1  0
  8  9  1  0
  8  1  1  0
  5  3  1  0
  9  3  1  0
  1 10  1  0
  2 11  1  0
  4 12  1  0
  4 13  1  0
  5 14  1  0
  7 15  1  0
  7 16  1  0
  8 17  1  0
M  END
