
     RDKit          3D

 19 21  0  0  0  0  0  0  0  0999 V2000
   -0.3053   -1.6801   -0.5396 C   0  0  0  0  0  0  0  0  0  0  0  0
    0.5679   -0.7202   -0.4126 C   0  0  0  0  0  0  0  0  0  0  0  0
    1.9750   -0.2024   -0.5842 C   0  0  0  0  0  0  0  0  0  0  0  0
    2.1374    0.8041    0.3142 O   0  0  0  0  0  0  0  0  0  0  0  0
    0.9206    1.2853    0.7203 C   0  0  0  0  0  0  0  0  0  0  0  0
   -0.0622    1.7683   -0.3874 C   0  0  0  0  0  0  0  0  0  0  0  0
   -0.1336    0.4428    0.1918 C   0  0  0  0  0  0  0  0  0  0  0  0
   -1.2519   -0.1496    0.9290 C   0  0  0  0  0  0  0  0  0  0  0  0
   -1.6581   -1.2646   -0.0407 C   0  0  0  0  0  0  0  0  0  0  0  0
   -0.0708   -2.6652   -0.9598 H   0  0  0  0  0  0  0  0  0  0  0  0
    2.1005    0.1663   -1.5990 H   0  0  0  0  0  0  0  0  0  0  0  0
    2.6856   -1.0361   -0.3599 H   0  0  0  0  0  0  0  0  0  0  0  0
    0.8746    1.8773    1.6306 H   0  0  0  0  0  0  0  0  0  0  0  0
   -0.7907    2.5302   -0.1153 H   0  0  0  0  0  0  0  0  0  0  0  0
    0.3818    1.8423   -1.4160 H   0  0  0  0  0  0  0  0  0  0  0  0
   -0.8565   -0.6710    1.8416 H   0  0  0  0  0  0  0  0  0  0  0  0
   -2.0819    0.5007    1.1896 H   0  0  0  0  0  0  0  0  0  0  0  0
   -2.1995   -2.0650    0.4529 H   0  0  0  0  0  0  0  0  0  0  0  0
   -2.2331   -0.7632   -0.8554 H   0  0  0  0  0  0  0  0  0  0  0  0
  1  2  2  0
  2  3  1  0
  3  4  1  0
  4  5  1  0
  5  6  1  0
  6  7  1  0
  7  8  1  0
  8  9  1  0
  9  1  1  0
  7  2  1  0
  7  5  1  0
  1 10  1  0
  3 11  1  0
  3 12  1  0
  5 13  1  0
  6 14  1  0
  6 15  1  0
  8 16  1  0
  8 17  1  0
  9 18  1  0
  9 19  1  0
M  END
