
     RDKit          3D

 19 21  0  0  0  0  0  0  0  0999 V2000
   -1.7158    0.4262    0.8120 C   0  0  0  0  0  0  0  0  0  0  0  0
   -0.5802    1.0749    0.5691 C   0  0  0  0  0  0  0  0  0  0  0  0
    0.1214    0.4645   -0.6264 C   0  0  0  0  0  0  0  0  0  0  0  0
    1.2586    1.1416   -1.0626 C   0  0  0  0  0  0  0  0  0  0  0  0
    1.6114   -0.0258   -0.3706 C   0  0  0  0  0  0  0  0  0  0  0  0
    1.2468   -0.5856    0.9535 C   0  0  0  0  0  0  0  0  0  0  0  0
    0.1874   -1.4470    0.5678 O   0  0  0  0  0  0  0  0  0  0  0  0
   -0.4030   -0.8886   -0.5701 C   0  0  0  0  0  0  0  0  0  0  0  0
   -1.8785   -0.6785   -0.1989 C   0  0  0  0  0  0  0  0  0  0  0  0
   -2.4288    0.6360    1.6025 H   0  0  0  0  0  0  0  0  0  0  0  0
   -0.2663    1.9129    1.1830 H   0  0  0  0  0  0  0  0  0  0  0  0
    1.4559    1.2227   -2.1676 H   0  0  0  0  0  0  0  0  0  0  0  0
    1.5496    2.1305   -0.5939 H   0  0  0  0  0  0  0  0  0  0  0  0
    1.9314   -0.8956   -1.0323 H   0  0  0  0  0  0  0  0  0  0  0  0
    0.8586    0.1654    1.6773 H   0  0  0  0  0  0  0  0  0  0  0  0
    2.0238   -1.1537    1.4671 H   0  0  0  0  0  0  0  0  0  0  0  0
   -0.2969   -1.5157   -1.4633 H   0  0  0  0  0  0  0  0  0  0  0  0
   -2.1920   -1.6019    0.3070 H   0  0  0  0  0  0  0  0  0  0  0  0
   -2.4835   -0.3822   -1.0536 H   0  0  0  0  0  0  0  0  0  0  0  0
  1  2  2  0
  2  3  1  0
  3  4  1  0
  4  5  1  0
  5  6  1  0
  6  7  1  0
  7  8  1  0
  8  9  1  0
  9  1  1  0
  5  3  1  0
  8  3  1  0
  1 10  1  0
  2 11  1  0
  4 12  1  0
  4 13  1  0
  5 14  1  0
  6 15  1  0
  6 16  1  0
  8 17  1  0
  9 18  1  0
  9 19  1  0
M  END
