
     RDKit          3D

 21 23  0  0  0  0  0  0  0  0999 V2000
    0.5755    1.6434    0.4140 C   0  0  0  0  0  0  0  0  0  0  0  0
    1.3595    0.7042    0.9000 C   0  0  0  0  0  0  0  0  0  0  0  0
    1.3931   -0.7018    0.5734 C   0  0  0  0  0  0  0  0  0  0  0  0
    1.4410   -1.1686   -0.8826 C   0  0  0  0  0  0  0  0  0  0  0  0
    0.2692   -1.4394    0.1201 C   0  0  0  0  0  0  0  0  0  0  0  0
   -0.9912   -0.9370   -0.3291 C   0  0  0  0  0  0  0  0  0  0  0  0
   -1.7838   -0.1824    0.7662 C   0  0  0  0  0  0  0  0  0  0  0  0
   -1.3748    0.4002   -0.5655 C   0  0  0  0  0  0  0  0  0  0  0  0
   -0.4708    1.5526   -0.5760 C   0  0  0  0  0  0  0  0  0  0  0  0
    0.7385    2.6363    0.8147 H   0  0  0  0  0  0  0  0  0  0  0  0
    2.0733    1.0703    1.6534 H   0  0  0  0  0  0  0  0  0  0  0  0
    2.1797   -1.2712    1.1672 H   0  0  0  0  0  0  0  0  0  0  0  0
    2.0469   -2.0197   -1.1789 H   0  0  0  0  0  0  0  0  0  0  0  0
    1.2670   -0.4117   -1.6657 H   0  0  0  0  0  0  0  0  0  0  0  0
    0.2417   -2.5363    0.4441 H   0  0  0  0  0  0  0  0  0  0  0  0
   -1.6007   -1.7281   -0.8840 H   0  0  0  0  0  0  0  0  0  0  0  0
   -1.2328    0.2068    1.6232 H   0  0  0  0  0  0  0  0  0  0  0  0
   -2.8075   -0.5357    0.9375 H   0  0  0  0  0  0  0  0  0  0  0  0
   -2.2646    0.5843   -1.2131 H   0  0  0  0  0  0  0  0  0  0  0  0
   -1.0938    2.4880   -0.5304 H   0  0  0  0  0  0  0  0  0  0  0  0
    0.0346    1.6457   -1.5885 H   0  0  0  0  0  0  0  0  0  0  0  0
  1  2  2  0
  2  3  1  0
  3  4  1  0
  4  5  1  0
  5  6  1  0
  6  7  1  0
  7  8  1  0
  8  9  1  0
  9  1  1  0
  5  3  1  0
  8  6  1  0
  1 10  1  0
  2 11  1  0
  3 12  1  0
  4 13  1  0
  4 14  1  0
  5 15  1  0
  6 16  1  0
  7 17  1  0
  7 18  1  0
  8 19  1  0
  9 20  1  0
  9 21  1  0
M  END
