
     RDKit          3D

 21 22  0  0  0  0  0  0  0  0999 V2000
    1.6493    1.1959   -0.0458 C   0  0  0  0  0  0  0  0  0  0  0  0
    0.4250    1.5516   -0.4116 C   0  0  0  0  0  0  0  0  0  0  0  0
   -0.6757    0.6817   -0.8692 C   0  0  0  0  0  0  0  0  0  0  0  0
   -0.8813   -0.4066    0.1151 C   0  0  0  0  0  0  0  0  0  0  0  0
   -2.2462   -0.9695    0.3578 C   0  0  0  0  0  0  0  0  0  0  0  0
   -1.7301    0.0105    1.3406 C   0  0  0  0  0  0  0  0  0  0  0  0
    0.1746   -1.2149    0.3710 O   0  0  0  0  0  0  0  0  0  0  0  0
    1.2184   -1.1828   -0.4931 C   0  0  0  0  0  0  0  0  0  0  0  0
    2.2457   -0.1768    0.0025 C   0  0  0  0  0  0  0  0  0  0  0  0
    2.2954    1.9983    0.2545 H   0  0  0  0  0  0  0  0  0  0  0  0
    0.2635    2.6200   -0.3492 H   0  0  0  0  0  0  0  0  0  0  0  0
   -1.6061    1.3124   -0.8675 H   0  0  0  0  0  0  0  0  0  0  0  0
   -0.5589    0.3443   -1.9163 H   0  0  0  0  0  0  0  0  0  0  0  0
   -2.3165   -2.0247    0.6489 H   0  0  0  0  0  0  0  0  0  0  0  0
   -3.0995   -0.6451   -0.2970 H   0  0  0  0  0  0  0  0  0  0  0  0
   -1.3239   -0.3045    2.3281 H   0  0  0  0  0  0  0  0  0  0  0  0
   -2.1915    1.0043    1.3277 H   0  0  0  0  0  0  0  0  0  0  0  0
    1.7404   -2.1757   -0.4674 H   0  0  0  0  0  0  0  0  0  0  0  0
    0.9719   -0.9924   -1.5452 H   0  0  0  0  0  0  0  0  0  0  0  0
    2.4600   -0.4156    1.0646 H   0  0  0  0  0  0  0  0  0  0  0  0
    3.1854   -0.2104   -0.5485 H   0  0  0  0  0  0  0  0  0  0  0  0
  1  2  2  0
  2  3  1  0
  3  4  1  0
  4  5  1  0
  5  6  1  0
  4  7  1  0
  7  8  1  0
  8  9  1  0
  9  1  1  0
  6  4  1  0
  1 10  1  0
  2 11  1  0
  3 12  1  0
  3 13  1  0
  5 14  1  0
  5 15  1  0
  6 16  1  0
  6 17  1  0
  8 18  1  0
  8 19  1  0
  9 20  1  0
  9 21  1  0
M  END
