
     RDKit          3D

 21 21  0  0  0  0  0  0  0  0999 V2000
   -0.4647   -1.7786    0.1241 C   0  0  0  0  0  0  0  0  0  0  0  0
    0.8429   -1.6326    0.2879 C   0  0  0  0  0  0  0  0  0  0  0  0
    1.6449   -0.5224   -0.2383 C   0  0  0  0  0  0  0  0  0  0  0  0
    1.5314    0.7007    0.6783 C   0  0  0  0  0  0  0  0  0  0  0  0
    1.2254    1.8235   -0.0974 O   0  0  0  0  0  0  0  0  0  0  0  0
   -0.1699    1.8901   -0.3229 C   0  0  0  0  0  0  0  0  0  0  0  0
   -0.8289    1.2120    0.6559 O   0  0  0  0  0  0  0  0  0  0  0  0
   -1.7685    0.3127    0.2472 C   0  0  0  0  0  0  0  0  0  0  0  0
   -1.2591   -0.7789   -0.6437 C   0  0  0  0  0  0  0  0  0  0  0  0
   -0.9732   -2.6421    0.5557 H   0  0  0  0  0  0  0  0  0  0  0  0
    1.3464   -2.4232    0.8712 H   0  0  0  0  0  0  0  0  0  0  0  0
    1.3599   -0.2195   -1.2808 H   0  0  0  0  0  0  0  0  0  0  0  0
    2.7123   -0.8222   -0.2770 H   0  0  0  0  0  0  0  0  0  0  0  0
    0.7895    0.5105    1.4698 H   0  0  0  0  0  0  0  0  0  0  0  0
    2.5062    0.9019    1.1899 H   0  0  0  0  0  0  0  0  0  0  0  0
   -0.4258    1.6261   -1.3524 H   0  0  0  0  0  0  0  0  0  0  0  0
   -0.4115    2.9856   -0.2140 H   0  0  0  0  0  0  0  0  0  0  0  0
   -2.6582    0.7948   -0.2399 H   0  0  0  0  0  0  0  0  0  0  0  0
   -2.1784   -0.1925    1.1516 H   0  0  0  0  0  0  0  0  0  0  0  0
   -2.1655   -1.2906   -1.0830 H   0  0  0  0  0  0  0  0  0  0  0  0
   -0.6551   -0.4554   -1.4822 H   0  0  0  0  0  0  0  0  0  0  0  0
  1  2  2  3
  2  3  1  0
  3  4  1  0
  4  5  1  0
  5  6  1  0
  6  7  1  0
  7  8  1  0
  8  9  1  0
  9  1  1  0
  1 10  1  0
  2 11  1  0
  3 12  1  0
  3 13  1  0
  4 14  1  0
  4 15  1  0
  6 16  1  0
  6 17  1  0
  8 18  1  0
  8 19  1  0
  9 20  1  0
  9 21  1  0
M  END
