
     RDKit          3D

 17 19  0  0  0  0  0  0  0  0999 V2000
    1.4430    1.1500   -0.5228 C   0  0  0  0  0  0  0  0  0  0  0  0
    2.2143    0.3021    0.1318 C   0  0  0  0  0  0  0  0  0  0  0  0
    1.3514   -0.8989    0.4891 C   0  0  0  0  0  0  0  0  0  0  0  0
    0.4588   -0.3526    1.5798 O   0  0  0  0  0  0  0  0  0  0  0  0
    0.1133   -0.5789    0.2330 C   0  0  0  0  0  0  0  0  0  0  0  0
   -1.2899   -0.9927    0.0826 C   0  0  0  0  0  0  0  0  0  0  0  0
   -1.9784    0.3842    0.0284 C   0  0  0  0  0  0  0  0  0  0  0  0
   -0.9267    1.3351   -0.0260 O   0  0  0  0  0  0  0  0  0  0  0  0
    0.0950    0.6611   -0.6704 C   0  0  0  0  0  0  0  0  0  0  0  0
    1.8171    2.1051   -0.8960 H   0  0  0  0  0  0  0  0  0  0  0  0
    3.2810    0.4159    0.3849 H   0  0  0  0  0  0  0  0  0  0  0  0
    1.8840   -1.7851    0.8677 H   0  0  0  0  0  0  0  0  0  0  0  0
   -1.4281   -1.4987   -0.8935 H   0  0  0  0  0  0  0  0  0  0  0  0
   -1.7021   -1.6254    0.8673 H   0  0  0  0  0  0  0  0  0  0  0  0
   -2.5765    0.5292    0.9505 H   0  0  0  0  0  0  0  0  0  0  0  0
   -2.5703    0.4877   -0.9012 H   0  0  0  0  0  0  0  0  0  0  0  0
   -0.1857    0.3619   -1.7052 H   0  0  0  0  0  0  0  0  0  0  0  0
  1  2  2  0
  2  3  1  0
  3  4  1  0
  4  5  1  0
  5  6  1  0
  6  7  1  0
  7  8  1  0
  8  9  1  0
  9  1  1  0
  5  3  1  0
  9  5  1  0
  1 10  1  0
  2 11  1  0
  3 12  1  0
  6 13  1  0
  6 14  1  0
  7 15  1  0
  7 16  1  0
  9 17  1  0
M  END
