
     RDKit          3D

 19 21  0  0  0  0  0  0  0  0999 V2000
   -0.2766    1.7554   -0.4081 C   0  0  0  0  0  0  0  0  0  0  0  0
    0.7564    0.9806   -0.1504 C   0  0  0  0  0  0  0  0  0  0  0  0
    2.1103    0.4090    0.0685 C   0  0  0  0  0  0  0  0  0  0  0  0
    1.4854   -0.9067   -0.4422 C   0  0  0  0  0  0  0  0  0  0  0  0
    0.2846   -0.4060    0.1837 C   0  0  0  0  0  0  0  0  0  0  0  0
   -0.0761   -0.6862    1.4426 O   0  0  0  0  0  0  0  0  0  0  0  0
   -1.2813   -1.2198    0.9156 C   0  0  0  0  0  0  0  0  0  0  0  0
   -1.0653   -0.4580   -0.3855 C   0  0  0  0  0  0  0  0  0  0  0  0
   -1.5210    0.9704   -0.2581 C   0  0  0  0  0  0  0  0  0  0  0  0
   -0.2739    2.8274   -0.6952 H   0  0  0  0  0  0  0  0  0  0  0  0
    2.9133    0.7973   -0.5666 H   0  0  0  0  0  0  0  0  0  0  0  0
    2.3223    0.3053    1.1441 H   0  0  0  0  0  0  0  0  0  0  0  0
    1.4627   -0.8153   -1.5617 H   0  0  0  0  0  0  0  0  0  0  0  0
    2.0038   -1.7969   -0.0722 H   0  0  0  0  0  0  0  0  0  0  0  0
   -1.2698   -2.3235    0.8132 H   0  0  0  0  0  0  0  0  0  0  0  0
   -2.1239   -0.8418    1.5176 H   0  0  0  0  0  0  0  0  0  0  0  0
   -1.2733   -0.9866   -1.3033 H   0  0  0  0  0  0  0  0  0  0  0  0
   -1.8964    1.1744    0.7793 H   0  0  0  0  0  0  0  0  0  0  0  0
   -2.2813    1.2212   -1.0213 H   0  0  0  0  0  0  0  0  0  0  0  0
  1  2  2  0
  2  3  1  0
  3  4  1  0
  4  5  1  0
  5  6  1  0
  6  7  1  0
  7  8  1  0
  8  9  1  0
  9  1  1  0
  5  2  1  0
  8  5  1  0
  1 10  1  0
  3 11  1  0
  3 12  1  0
  4 13  1  0
  4 14  1  0
  7 15  1  0
  7 16  1  0
  8 17  1  0
  9 18  1  0
  9 19  1  0
M  END
