
     RDKit          3D

 18 20  0  0  0  0  0  0  0  0999 V2000
    1.4626    1.0069   -0.0068 C   0  0  0  0  0  0  0  0  0  0  0  0
    0.3626    1.5531    0.4458 C   0  0  0  0  0  0  0  0  0  0  0  0
   -0.8765    0.7556    0.5798 C   0  0  0  0  0  0  0  0  0  0  0  0
   -1.4660    0.2722   -0.7229 C   0  0  0  0  0  0  0  0  0  0  0  0
   -0.9194   -1.0851   -0.4329 C   0  0  0  0  0  0  0  0  0  0  0  0
    0.4760   -1.2750    0.0356 C   0  0  0  0  0  0  0  0  0  0  0  0
    1.5947   -0.4086   -0.4204 C   0  0  0  0  0  0  0  0  0  0  0  0
   -0.5171   -0.6424    0.9224 C   0  0  0  0  0  0  0  0  0  0  0  0
    2.3508    1.6253   -0.0904 H   0  0  0  0  0  0  0  0  0  0  0  0
    0.3231    2.5955    0.7342 H   0  0  0  0  0  0  0  0  0  0  0  0
   -1.6445    1.1732    1.2397 H   0  0  0  0  0  0  0  0  0  0  0  0
   -1.0838    0.7848   -1.6133 H   0  0  0  0  0  0  0  0  0  0  0  0
   -2.5820    0.2719   -0.7203 H   0  0  0  0  0  0  0  0  0  0  0  0
   -1.5979   -1.9422   -0.4807 H   0  0  0  0  0  0  0  0  0  0  0  0
    0.7410   -2.3215    0.2961 H   0  0  0  0  0  0  0  0  0  0  0  0
    1.6920   -0.3980   -1.5454 H   0  0  0  0  0  0  0  0  0  0  0  0
    2.5553   -0.8375   -0.0617 H   0  0  0  0  0  0  0  0  0  0  0  0
   -0.8711   -1.1283    1.8413 H   0  0  0  0  0  0  0  0  0  0  0  0
  1  2  2  0
  2  3  1  0
  3  4  1  0
  4  5  1  0
  5  6  1  0
  6  7  1  0
  6  8  1  0
  7  1  1  0
  8  3  1  0
  8  5  1  0
  1  9  1  0
  2 10  1  0
  3 11  1  0
  4 12  1  0
  4 13  1  0
  5 14  1  0
  6 15  1  0
  7 16  1  0
  7 17  1  0
  8 18  1  0
M  END
