
     RDKit          3D

 16 18  0  0  0  0  0  0  0  0999 V2000
    1.1290    0.7451   -0.7363 C   0  0  0  0  0  0  0  0  0  0  0  0
   -0.1692    0.8379   -0.6046 C   0  0  0  0  0  0  0  0  0  0  0  0
   -1.5909    0.8735   -0.3938 C   0  0  0  0  0  0  0  0  0  0  0  0
   -1.3069   -0.6867   -0.2345 C   0  0  0  0  0  0  0  0  0  0  0  0
   -0.2376   -1.2638    0.5914 C   0  0  0  0  0  0  0  0  0  0  0  0
    1.1033   -1.4705    0.1513 O   0  0  0  0  0  0  0  0  0  0  0  0
    1.8577   -0.2853    0.1520 C   0  0  0  0  0  0  0  0  0  0  0  0
   -0.4149    0.0911    0.7615 C   0  0  0  0  0  0  0  0  0  0  0  0
    1.6644    1.3621   -1.4384 H   0  0  0  0  0  0  0  0  0  0  0  0
   -2.0422    1.3020    0.5033 H   0  0  0  0  0  0  0  0  0  0  0  0
   -2.2482    1.0550   -1.2619 H   0  0  0  0  0  0  0  0  0  0  0  0
   -0.9656   -0.8986   -1.2925 H   0  0  0  0  0  0  0  0  0  0  0  0
   -0.4995   -1.9969    1.3793 H   0  0  0  0  0  0  0  0  0  0  0  0
    1.8116    0.1333    1.1617 H   0  0  0  0  0  0  0  0  0  0  0  0
    2.8448   -0.4105   -0.2569 H   0  0  0  0  0  0  0  0  0  0  0  0
   -0.9358    0.6123    1.5183 H   0  0  0  0  0  0  0  0  0  0  0  0
  1  2  2  0
  2  3  1  0
  3  4  1  0
  4  5  1  0
  5  6  1  0
  6  7  1  0
  5  8  1  0
  7  1  1  0
  8  2  1  0
  8  4  1  0
  1  9  1  0
  3 10  1  0
  3 11  1  0
  4 12  1  0
  5 13  1  0
  7 14  1  0
  7 15  1  0
  8 16  1  0
M  END
