
     RDKit          3D

 20 20  0  0  0  0  0  0  0  0999 V2000
   -0.0451   -1.5360   -0.2748 C   0  0  0  0  0  0  0  0  0  0  0  0
   -1.2943   -1.1078   -0.3881 C   0  0  0  0  0  0  0  0  0  0  0  0
   -2.0981   -0.0268    0.2269 C   0  0  0  0  0  0  0  0  0  0  0  0
   -1.4623    1.1791    0.3034 O   0  0  0  0  0  0  0  0  0  0  0  0
   -0.3887    1.3433   -0.5300 C   0  0  0  0  0  0  0  0  0  0  0  0
    0.8556    1.3557    0.2901 C   0  0  0  0  0  0  0  0  0  0  0  0
    1.7429    0.1568    0.0734 C   0  0  0  0  0  0  0  0  0  0  0  0
    1.1139   -1.1336    0.5133 C   0  0  0  0  0  0  0  0  0  0  0  0
    0.1606   -2.3808   -0.9177 H   0  0  0  0  0  0  0  0  0  0  0  0
   -1.8649   -1.6875   -1.1018 H   0  0  0  0  0  0  0  0  0  0  0  0
   -3.0476    0.1058   -0.3329 H   0  0  0  0  0  0  0  0  0  0  0  0
   -2.4130   -0.4107    1.2387 H   0  0  0  0  0  0  0  0  0  0  0  0
   -0.3645    0.6394   -1.3885 H   0  0  0  0  0  0  0  0  0  0  0  0
   -0.4980    2.3638   -1.0043 H   0  0  0  0  0  0  0  0  0  0  0  0
    0.6521    1.4001    1.3920 H   0  0  0  0  0  0  0  0  0  0  0  0
    1.4771    2.2553    0.0772 H   0  0  0  0  0  0  0  0  0  0  0  0
    2.1434    0.0851   -0.9525 H   0  0  0  0  0  0  0  0  0  0  0  0
    2.6370    0.3164    0.7413 H   0  0  0  0  0  0  0  0  0  0  0  0
    0.7987   -1.0009    1.5701 H   0  0  0  0  0  0  0  0  0  0  0  0
    1.8952   -1.9167    0.4642 H   0  0  0  0  0  0  0  0  0  0  0  0
  1  2  2  3
  2  3  1  0
  3  4  1  0
  4  5  1  0
  5  6  1  0
  6  7  1  0
  7  8  1  0
  8  1  1  0
  1  9  1  0
  2 10  1  0
  3 11  1  0
  3 12  1  0
  5 13  1  0
  5 14  1  0
  6 15  1  0
  6 16  1  0
  7 17  1  0
  7 18  1  0
  8 19  1  0
  8 20  1  0
M  END
