
     RDKit          3D

 21 23  0  0  0  0  0  0  0  0999 V2000
   -0.9741    1.5829    0.7282 C   0  0  0  0  0  0  0  0  0  0  0  0
    0.3161    1.5958    0.5168 C   0  0  0  0  0  0  0  0  0  0  0  0
    0.8274    0.2637    0.2523 C   0  0  0  0  0  0  0  0  0  0  0  0
    1.6590    0.0721   -0.9578 C   0  0  0  0  0  0  0  0  0  0  0  0
    2.2534   -0.0981    0.4215 C   0  0  0  0  0  0  0  0  0  0  0  0
   -0.2658   -0.6735    0.6238 C   0  0  0  0  0  0  0  0  0  0  0  0
   -0.8467   -1.4883   -0.5098 C   0  0  0  0  0  0  0  0  0  0  0  0
   -1.7828   -0.3156   -0.7601 C   0  0  0  0  0  0  0  0  0  0  0  0
   -1.4703    0.2040    0.6245 C   0  0  0  0  0  0  0  0  0  0  0  0
   -1.6311    2.4482    0.9533 H   0  0  0  0  0  0  0  0  0  0  0  0
    0.9136    2.5334    0.5448 H   0  0  0  0  0  0  0  0  0  0  0  0
    2.0135    1.0109   -1.4535 H   0  0  0  0  0  0  0  0  0  0  0  0
    1.5876   -0.7935   -1.6225 H   0  0  0  0  0  0  0  0  0  0  0  0
    2.9853    0.6318    0.8038 H   0  0  0  0  0  0  0  0  0  0  0  0
    2.4494   -1.1489    0.7137 H   0  0  0  0  0  0  0  0  0  0  0  0
   -0.0316   -1.2250    1.5446 H   0  0  0  0  0  0  0  0  0  0  0  0
   -0.1802   -1.7563   -1.3295 H   0  0  0  0  0  0  0  0  0  0  0  0
   -1.3635   -2.3832   -0.1063 H   0  0  0  0  0  0  0  0  0  0  0  0
   -1.4141    0.2830   -1.5926 H   0  0  0  0  0  0  0  0  0  0  0  0
   -2.8361   -0.6510   -0.7968 H   0  0  0  0  0  0  0  0  0  0  0  0
   -2.2091   -0.0924    1.4016 H   0  0  0  0  0  0  0  0  0  0  0  0
  1  2  2  0
  2  3  1  0
  3  4  1  0
  4  5  1  0
  3  6  1  0
  6  7  1  0
  7  8  1  0
  8  9  1  0
  9  1  1  0
  5  3  1  0
  9  6  1  0
  1 10  1  0
  2 11  1  0
  4 12  1  0
  4 13  1  0
  5 14  1  0
  5 15  1  0
  6 16  1  0
  7 17  1  0
  7 18  1  0
  8 19  1  0
  8 20  1  0
  9 21  1  0
M  END
