
     RDKit          3D

 15 15  0  0  0  0  0  0  0  0999 V2000
    1.4847   -0.7511   -0.3708 C   0  0  0  0  0  0  0  0  0  0  0  0
    1.6016    0.5560   -0.2094 C   0  0  0  0  0  0  0  0  0  0  0  0
    0.5581    1.4361    0.3651 C   0  0  0  0  0  0  0  0  0  0  0  0
   -0.7503    1.2804    0.4058 C   0  0  0  0  0  0  0  0  0  0  0  0
   -1.5317    0.1522   -0.1295 C   0  0  0  0  0  0  0  0  0  0  0  0
   -0.9050   -1.1731    0.0563 C   0  0  0  0  0  0  0  0  0  0  0  0
    0.3403   -1.6005   -0.0323 C   0  0  0  0  0  0  0  0  0  0  0  0
    2.3429   -1.2309   -0.8026 H   0  0  0  0  0  0  0  0  0  0  0  0
    2.5062    1.0677   -0.5024 H   0  0  0  0  0  0  0  0  0  0  0  0
    0.8939    2.3675    0.8337 H   0  0  0  0  0  0  0  0  0  0  0  0
   -1.3038    2.0949    0.8989 H   0  0  0  0  0  0  0  0  0  0  0  0
   -2.5702    0.1292    0.2550 H   0  0  0  0  0  0  0  0  0  0  0  0
   -1.6034    0.3015   -1.2445 H   0  0  0  0  0  0  0  0  0  0  0  0
   -1.5965   -1.9827    0.3228 H   0  0  0  0  0  0  0  0  0  0  0  0
    0.5331   -2.6473    0.1538 H   0  0  0  0  0  0  0  0  0  0  0  0
  1  2  2  0
  2  3  1  0
  3  4  2  0
  4  5  1  0
  5  6  1  0
  6  7  2  0
  7  1  1  0
  1  8  1  0
  2  9  1  0
  3 10  1  0
  4 11  1  0
  5 12  1  0
  5 13  1  0
  6 14  1  0
  7 15  1  0
M  END
