
     RDKit          3D

 19 21  0  0  0  0  0  0  0  0999 V2000
    1.3137    1.2480   -0.1076 C   0  0  0  0  0  0  0  0  0  0  0  0
    1.8893    0.1057   -0.4396 C   0  0  0  0  0  0  0  0  0  0  0  0
    1.0342   -1.0619   -0.1902 C   0  0  0  0  0  0  0  0  0  0  0  0
    1.0886   -1.5857    1.1232 O   0  0  0  0  0  0  0  0  0  0  0  0
   -0.3059   -1.3907    1.2795 C   0  0  0  0  0  0  0  0  0  0  0  0
   -0.2526   -0.4420    0.1694 C   0  0  0  0  0  0  0  0  0  0  0  0
   -1.3036   -0.2166   -0.7792 C   0  0  0  0  0  0  0  0  0  0  0  0
   -1.1739    1.2845   -0.5404 C   0  0  0  0  0  0  0  0  0  0  0  0
   -0.0270    0.9890    0.4175 C   0  0  0  0  0  0  0  0  0  0  0  0
    1.7600    2.2479   -0.2046 H   0  0  0  0  0  0  0  0  0  0  0  0
    2.8896    0.0455   -0.8527 H   0  0  0  0  0  0  0  0  0  0  0  0
    0.9777   -1.8228   -0.9730 H   0  0  0  0  0  0  0  0  0  0  0  0
   -0.4698   -0.8935    2.2660 H   0  0  0  0  0  0  0  0  0  0  0  0
   -0.9114   -2.2876    1.2138 H   0  0  0  0  0  0  0  0  0  0  0  0
   -1.0022   -0.4240   -1.8449 H   0  0  0  0  0  0  0  0  0  0  0  0
   -2.3209   -0.6206   -0.6118 H   0  0  0  0  0  0  0  0  0  0  0  0
   -0.8909    1.8782   -1.4105 H   0  0  0  0  0  0  0  0  0  0  0  0
   -2.0721    1.6230    0.0291 H   0  0  0  0  0  0  0  0  0  0  0  0
   -0.2227    1.3234    1.4561 H   0  0  0  0  0  0  0  0  0  0  0  0
  1  2  2  0
  2  3  1  0
  3  4  1  0
  4  5  1  0
  5  6  1  0
  6  7  1  0
  7  8  1  0
  8  9  1  0
  9  1  1  0
  6  3  1  0
  9  6  1  0
  1 10  1  0
  2 11  1  0
  3 12  1  0
  5 13  1  0
  5 14  1  0
  7 15  1  0
  7 16  1  0
  8 17  1  0
  8 18  1  0
  9 19  1  0
M  END
