
     RDKit          3D

 17 19  0  0  0  0  0  0  0  0999 V2000
    1.4146   -0.6429    0.3592 C   0  0  0  0  0  0  0  0  0  0  0  0
    0.8789   -0.9076   -0.8250 C   0  0  0  0  0  0  0  0  0  0  0  0
   -0.0126    0.1928   -1.2192 C   0  0  0  0  0  0  0  0  0  0  0  0
   -1.3059    0.1489   -0.4445 C   0  0  0  0  0  0  0  0  0  0  0  0
   -1.1078   -0.6139    0.8517 C   0  0  0  0  0  0  0  0  0  0  0  0
   -0.3195    0.1554    1.7205 O   0  0  0  0  0  0  0  0  0  0  0  0
    0.7858    0.5713    0.9515 C   0  0  0  0  0  0  0  0  0  0  0  0
    0.2190    1.3165   -0.2438 C   0  0  0  0  0  0  0  0  0  0  0  0
   -1.1623    1.5066   -0.2079 O   0  0  0  0  0  0  0  0  0  0  0  0
    2.1978   -1.2476    0.8013 H   0  0  0  0  0  0  0  0  0  0  0  0
    1.0512   -1.7877   -1.4315 H   0  0  0  0  0  0  0  0  0  0  0  0
   -0.0828    0.4494   -2.2714 H   0  0  0  0  0  0  0  0  0  0  0  0
   -2.1678   -0.1614   -1.0293 H   0  0  0  0  0  0  0  0  0  0  0  0
   -0.6009   -1.5711    0.7197 H   0  0  0  0  0  0  0  0  0  0  0  0
   -2.0897   -0.7392    1.3534 H   0  0  0  0  0  0  0  0  0  0  0  0
    1.4866    1.1750    1.5195 H   0  0  0  0  0  0  0  0  0  0  0  0
    0.8153    2.1555   -0.6040 H   0  0  0  0  0  0  0  0  0  0  0  0
  1  2  2  0
  2  3  1  0
  3  4  1  0
  4  5  1  0
  5  6  1  0
  6  7  1  0
  7  8  1  0
  8  9  1  0
  7  1  1  0
  8  3  1  0
  9  4  1  0
  1 10  1  0
  2 11  1  0
  3 12  1  0
  4 13  1  0
  5 14  1  0
  5 15  1  0
  7 16  1  0
  8 17  1  0
M  END
