
     RDKit          3D

 19 20  0  0  0  0  0  0  0  0999 V2000
    1.5465    0.4605   -0.2938 C   0  0  0  0  0  0  0  0  0  0  0  0
    0.6273    1.3507   -0.0253 C   0  0  0  0  0  0  0  0  0  0  0  0
   -0.7269    1.3465    0.5592 C   0  0  0  0  0  0  0  0  0  0  0  0
   -1.6627    0.6631   -0.3844 C   0  0  0  0  0  0  0  0  0  0  0  0
   -1.3559   -0.5406    0.5008 C   0  0  0  0  0  0  0  0  0  0  0  0
   -0.3259   -1.3961   -0.1751 C   0  0  0  0  0  0  0  0  0  0  0  0
    0.7977   -1.6122    0.6166 O   0  0  0  0  0  0  0  0  0  0  0  0
    1.9094   -0.9080    0.1538 C   0  0  0  0  0  0  0  0  0  0  0  0
   -0.8300    0.2863    1.4822 O   0  0  0  0  0  0  0  0  0  0  0  0
    2.2372    0.8059   -1.0479 H   0  0  0  0  0  0  0  0  0  0  0  0
    0.9257    2.3459   -0.2967 H   0  0  0  0  0  0  0  0  0  0  0  0
   -1.0687    2.3190    0.9670 H   0  0  0  0  0  0  0  0  0  0  0  0
   -2.7210    0.9888   -0.3318 H   0  0  0  0  0  0  0  0  0  0  0  0
   -1.3159    0.5294   -1.4242 H   0  0  0  0  0  0  0  0  0  0  0  0
   -2.2360   -1.0859    0.8692 H   0  0  0  0  0  0  0  0  0  0  0  0
   -0.7661   -2.3910   -0.3982 H   0  0  0  0  0  0  0  0  0  0  0  0
   -0.0378   -0.9741   -1.1822 H   0  0  0  0  0  0  0  0  0  0  0  0
    2.4379   -1.4245   -0.6522 H   0  0  0  0  0  0  0  0  0  0  0  0
    2.5653   -0.7637    1.0630 H   0  0  0  0  0  0  0  0  0  0  0  0
  1  2  2  3
  2  3  1  0
  3  4  1  0
  4  5  1  0
  5  6  1  0
  6  7  1  0
  7  8  1  0
  5  9  1  0
  8  1  1  0
  9  3  1  0
  1 10  1  0
  2 11  1  0
  3 12  1  0
  4 13  1  0
  4 14  1  0
  5 15  1  0
  6 16  1  0
  6 17  1  0
  8 18  1  0
  8 19  1  0
M  END
