
     RDKit          3D

 17 19  0  0  0  0  0  0  0  0999 V2000
   -1.4896    1.2616   -0.0332 C   0  0  0  0  0  0  0  0  0  0  0  0
   -2.1164    0.0739    0.1905 C   0  0  0  0  0  0  0  0  0  0  0  0
   -1.1425   -1.0431    0.1599 C   0  0  0  0  0  0  0  0  0  0  0  0
    0.1774   -1.3753   -0.2260 C   0  0  0  0  0  0  0  0  0  0  0  0
    1.1827   -0.9413   -1.0693 O   0  0  0  0  0  0  0  0  0  0  0  0
    2.0129    0.0913   -0.3863 C   0  0  0  0  0  0  0  0  0  0  0  0
    1.0534    1.2390   -0.6984 C   0  0  0  0  0  0  0  0  0  0  0  0
   -0.1149    0.9478   -0.2301 C   0  0  0  0  0  0  0  0  0  0  0  0
    0.0030   -0.2939    0.7412 C   0  0  0  0  0  0  0  0  0  0  0  0
   -1.8561    2.2631   -0.0872 H   0  0  0  0  0  0  0  0  0  0  0  0
   -3.1776    0.0262    0.3541 H   0  0  0  0  0  0  0  0  0  0  0  0
   -1.5972   -1.8513    0.8944 H   0  0  0  0  0  0  0  0  0  0  0  0
    0.5472   -2.3951    0.2130 H   0  0  0  0  0  0  0  0  0  0  0  0
    2.9060    0.1552   -0.9977 H   0  0  0  0  0  0  0  0  0  0  0  0
    2.0680   -0.1176    0.6553 H   0  0  0  0  0  0  0  0  0  0  0  0
    1.2170    2.1347   -1.1905 H   0  0  0  0  0  0  0  0  0  0  0  0
    0.3266   -0.1752    1.7103 H   0  0  0  0  0  0  0  0  0  0  0  0
  1  2  2  0
  2  3  1  0
  3  4  1  0
  4  5  1  0
  5  6  1  0
  6  7  1  0
  7  8  2  0
  8  9  1  0
  8  1  1  0
  9  3  1  0
  9  4  1  0
  1 10  1  0
  2 11  1  0
  3 12  1  0
  4 13  1  0
  6 14  1  0
  6 15  1  0
  7 16  1  0
  9 17  1  0
M  END
