
     RDKit          3D

 21 22  0  0  0  0  0  0  0  0999 V2000
   -1.7955    1.0905    0.0966 C   0  0  0  0  0  0  0  0  0  0  0  0
   -1.9942   -0.2111   -0.0377 C   0  0  0  0  0  0  0  0  0  0  0  0
   -1.2631   -1.4672   -0.0731 C   0  0  0  0  0  0  0  0  0  0  0  0
    0.1545   -1.4205   -0.5180 C   0  0  0  0  0  0  0  0  0  0  0  0
    0.9440   -0.6082    0.4221 C   0  0  0  0  0  0  0  0  0  0  0  0
    2.3505   -0.2621    0.3183 C   0  0  0  0  0  0  0  0  0  0  0  0
    1.4661    0.6129   -0.4041 C   0  0  0  0  0  0  0  0  0  0  0  0
    0.6946    1.7348    0.0909 C   0  0  0  0  0  0  0  0  0  0  0  0
   -0.6159    1.9201    0.2895 C   0  0  0  0  0  0  0  0  0  0  0  0
   -2.6891    1.7169    0.0613 H   0  0  0  0  0  0  0  0  0  0  0  0
   -3.0566   -0.3783   -0.1601 H   0  0  0  0  0  0  0  0  0  0  0  0
   -1.8221   -2.1813   -0.7443 H   0  0  0  0  0  0  0  0  0  0  0  0
   -1.2593   -1.8941    0.9747 H   0  0  0  0  0  0  0  0  0  0  0  0
    0.5113   -2.4790   -0.6242 H   0  0  0  0  0  0  0  0  0  0  0  0
    0.1509   -1.0370   -1.5812 H   0  0  0  0  0  0  0  0  0  0  0  0
    0.4658   -0.3761    1.4127 H   0  0  0  0  0  0  0  0  0  0  0  0
    2.8749    0.1343    1.2121 H   0  0  0  0  0  0  0  0  0  0  0  0
    3.0167   -0.9307   -0.2691 H   0  0  0  0  0  0  0  0  0  0  0  0
    1.4378    0.5120   -1.5097 H   0  0  0  0  0  0  0  0  0  0  0  0
    1.2606    2.6136    0.3629 H   0  0  0  0  0  0  0  0  0  0  0  0
   -0.8318    2.9107    0.6805 H   0  0  0  0  0  0  0  0  0  0  0  0
  1  2  2  3
  2  3  1  0
  3  4  1  0
  4  5  1  0
  5  6  1  0
  6  7  1  0
  7  8  1  0
  8  9  2  3
  9  1  1  0
  7  5  1  0
  1 10  1  0
  2 11  1  0
  3 12  1  0
  3 13  1  0
  4 14  1  0
  4 15  1  0
  5 16  1  0
  6 17  1  0
  6 18  1  0
  7 19  1  0
  8 20  1  0
  9 21  1  0
M  END
