
     RDKit          3D

 19 21  0  0  0  0  0  0  0  0999 V2000
   -1.6029    0.9708   -0.4631 C   0  0  0  0  0  0  0  0  0  0  0  0
   -2.2696    0.0861    0.2604 C   0  0  0  0  0  0  0  0  0  0  0  0
   -1.3602   -1.0598    0.4945 C   0  0  0  0  0  0  0  0  0  0  0  0
   -0.9490   -1.7931   -0.7323 O   0  0  0  0  0  0  0  0  0  0  0  0
   -0.1839   -0.8423   -0.1175 C   0  0  0  0  0  0  0  0  0  0  0  0
    1.2277   -1.0623    0.3197 C   0  0  0  0  0  0  0  0  0  0  0  0
    1.9401    0.2011   -0.0188 C   0  0  0  0  0  0  0  0  0  0  0  0
    0.8532    1.2472   -0.0179 C   0  0  0  0  0  0  0  0  0  0  0  0
   -0.2327    0.5197   -0.7732 C   0  0  0  0  0  0  0  0  0  0  0  0
   -2.0557    1.9264   -0.7791 H   0  0  0  0  0  0  0  0  0  0  0  0
   -3.3135    0.1762    0.6276 H   0  0  0  0  0  0  0  0  0  0  0  0
   -1.7301   -1.8358    1.2026 H   0  0  0  0  0  0  0  0  0  0  0  0
    1.3199   -1.2265    1.4242 H   0  0  0  0  0  0  0  0  0  0  0  0
    1.6483   -1.9247   -0.2577 H   0  0  0  0  0  0  0  0  0  0  0  0
    2.2935    0.1081   -1.0831 H   0  0  0  0  0  0  0  0  0  0  0  0
    2.7745    0.4514    0.6629 H   0  0  0  0  0  0  0  0  0  0  0  0
    1.1933    2.1203   -0.5769 H   0  0  0  0  0  0  0  0  0  0  0  0
    0.4749    1.4712    0.9890 H   0  0  0  0  0  0  0  0  0  0  0  0
   -0.0276    0.4657   -1.8581 H   0  0  0  0  0  0  0  0  0  0  0  0
  1  2  2  0
  2  3  1  0
  3  4  1  0
  4  5  1  0
  5  6  1  0
  6  7  1  0
  7  8  1  0
  8  9  1  0
  9  1  1  0
  5  3  1  0
  9  5  1  0
  1 10  1  0
  2 11  1  0
  3 12  1  0
  6 13  1  0
  6 14  1  0
  7 15  1  0
  7 16  1  0
  8 17  1  0
  8 18  1  0
  9 19  1  0
M  END
