
     RDKit          3D

 18 19  0  0  0  0  0  0  0  0999 V2000
   -0.5470   -0.2533    1.3167 C   0  0  0  0  0  0  0  0  0  0  0  0
    0.5743   -0.0924    0.6622 C   0  0  0  0  0  0  0  0  0  0  0  0
    2.0281   -0.0508    0.4879 C   0  0  0  0  0  0  0  0  0  0  0  0
    1.7321   -0.5746   -0.9380 C   0  0  0  0  0  0  0  0  0  0  0  0
    0.4941    0.2810   -0.8047 C   0  0  0  0  0  0  0  0  0  0  0  0
   -0.6968   -0.2364   -1.2944 O   0  0  0  0  0  0  0  0  0  0  0  0
   -1.7475    0.4750   -0.6647 C   0  0  0  0  0  0  0  0  0  0  0  0
   -1.8946   -0.1028    0.7087 C   0  0  0  0  0  0  0  0  0  0  0  0
   -0.5675   -0.5194    2.3958 H   0  0  0  0  0  0  0  0  0  0  0  0
    2.6262   -0.7604    1.0845 H   0  0  0  0  0  0  0  0  0  0  0  0
    2.4168    0.9763    0.3970 H   0  0  0  0  0  0  0  0  0  0  0  0
    1.4445   -1.6515   -0.9438 H   0  0  0  0  0  0  0  0  0  0  0  0
    2.4713   -0.2561   -1.6713 H   0  0  0  0  0  0  0  0  0  0  0  0
    0.7204    1.3209   -1.0247 H   0  0  0  0  0  0  0  0  0  0  0  0
   -2.6893    0.3873   -1.2302 H   0  0  0  0  0  0  0  0  0  0  0  0
   -1.4604    1.5490   -0.5400 H   0  0  0  0  0  0  0  0  0  0  0  0
   -2.4633    0.5834    1.3940 H   0  0  0  0  0  0  0  0  0  0  0  0
   -2.4415   -1.0752    0.6650 H   0  0  0  0  0  0  0  0  0  0  0  0
  1  2  2  0
  2  3  1  0
  3  4  1  0
  4  5  1  0
  5  6  1  0
  6  7  1  0
  7  8  1  0
  8  1  1  0
  5  2  1  0
  1  9  1  0
  3 10  1  0
  3 11  1  0
  4 12  1  0
  4 13  1  0
  5 14  1  0
  7 15  1  0
  7 16  1  0
  8 17  1  0
  8 18  1  0
M  END
