
     RDKit          3D

 21 23  0  0  0  0  0  0  0  0999 V2000
    2.0955   -0.6967    0.0271 C   0  0  0  0  0  0  0  0  0  0  0  0
    2.0798    0.5867   -0.2150 C   0  0  0  0  0  0  0  0  0  0  0  0
    0.8269    1.3436   -0.2724 C   0  0  0  0  0  0  0  0  0  0  0  0
   -0.4132    0.5819   -0.4742 C   0  0  0  0  0  0  0  0  0  0  0  0
   -1.6855    1.3231   -0.5349 C   0  0  0  0  0  0  0  0  0  0  0  0
   -1.4560    0.3593    0.5404 C   0  0  0  0  0  0  0  0  0  0  0  0
   -1.5966   -1.0876    0.1135 C   0  0  0  0  0  0  0  0  0  0  0  0
   -0.2888   -0.8871   -0.6212 C   0  0  0  0  0  0  0  0  0  0  0  0
    0.8399   -1.4319    0.2526 C   0  0  0  0  0  0  0  0  0  0  0  0
    3.0214   -1.2425    0.0671 H   0  0  0  0  0  0  0  0  0  0  0  0
    3.0049    1.1088   -0.3774 H   0  0  0  0  0  0  0  0  0  0  0  0
    0.7303    1.9849    0.6341 H   0  0  0  0  0  0  0  0  0  0  0  0
    0.9308    2.0678   -1.1353 H   0  0  0  0  0  0  0  0  0  0  0  0
   -2.4363    1.1191   -1.3433 H   0  0  0  0  0  0  0  0  0  0  0  0
   -1.6475    2.3889   -0.2690 H   0  0  0  0  0  0  0  0  0  0  0  0
   -1.3368    0.6149    1.5957 H   0  0  0  0  0  0  0  0  0  0  0  0
   -2.3971   -1.2911   -0.6159 H   0  0  0  0  0  0  0  0  0  0  0  0
   -1.5546   -1.7873    0.9715 H   0  0  0  0  0  0  0  0  0  0  0  0
   -0.2534   -1.2134   -1.6580 H   0  0  0  0  0  0  0  0  0  0  0  0
    0.5693   -1.3284    1.3237 H   0  0  0  0  0  0  0  0  0  0  0  0
    0.9669   -2.5131    0.0596 H   0  0  0  0  0  0  0  0  0  0  0  0
  1  2  2  0
  2  3  1  0
  3  4  1  0
  4  5  1  0
  5  6  1  0
  6  7  1  0
  7  8  1  0
  8  9  1  0
  9  1  1  0
  6  4  1  0
  8  4  1  0
  1 10  1  0
  2 11  1  0
  3 12  1  0
  3 13  1  0
  5 14  1  0
  5 15  1  0
  6 16  1  0
  7 17  1  0
  7 18  1  0
  8 19  1  0
  9 20  1  0
  9 21  1  0
M  END
