
     RDKit          3D

 19 20  0  0  0  0  0  0  0  0999 V2000
   -1.8416   -0.7057   -0.2161 C   0  0  0  0  0  0  0  0  0  0  0  0
   -1.7245    0.6142   -0.0572 C   0  0  0  0  0  0  0  0  0  0  0  0
   -0.5972    1.5437   -0.1631 C   0  0  0  0  0  0  0  0  0  0  0  0
    0.6986    1.0263    0.3909 C   0  0  0  0  0  0  0  0  0  0  0  0
    1.7900    1.1140   -0.5053 O   0  0  0  0  0  0  0  0  0  0  0  0
    2.2998   -0.0157    0.1786 C   0  0  0  0  0  0  0  0  0  0  0  0
    0.8547   -0.4566    0.3253 C   0  0  0  0  0  0  0  0  0  0  0  0
    0.4066   -1.0007   -0.8767 O   0  0  0  0  0  0  0  0  0  0  0  0
   -0.7857   -1.6756   -0.5712 C   0  0  0  0  0  0  0  0  0  0  0  0
   -2.8191   -1.1261   -0.0707 H   0  0  0  0  0  0  0  0  0  0  0  0
   -2.6696    1.0758    0.2028 H   0  0  0  0  0  0  0  0  0  0  0  0
   -0.8421    2.4613    0.4110 H   0  0  0  0  0  0  0  0  0  0  0  0
   -0.4326    1.8795   -1.2098 H   0  0  0  0  0  0  0  0  0  0  0  0
    1.0186    1.4164    1.3608 H   0  0  0  0  0  0  0  0  0  0  0  0
    2.7889    0.2627    1.1263 H   0  0  0  0  0  0  0  0  0  0  0  0
    2.8646   -0.7096   -0.4431 H   0  0  0  0  0  0  0  0  0  0  0  0
    0.6113   -1.0127    1.2260 H   0  0  0  0  0  0  0  0  0  0  0  0
   -1.0936   -2.3448   -1.4067 H   0  0  0  0  0  0  0  0  0  0  0  0
   -0.5270   -2.3464    0.2984 H   0  0  0  0  0  0  0  0  0  0  0  0
  1  2  2  0
  2  3  1  0
  3  4  1  0
  4  5  1  0
  5  6  1  0
  6  7  1  0
  7  8  1  0
  8  9  1  0
  9  1  1  0
  7  4  1  0
  1 10  1  0
  2 11  1  0
  3 12  1  0
  3 13  1  0
  4 14  1  0
  6 15  1  0
  6 16  1  0
  7 17  1  0
  9 18  1  0
  9 19  1  0
M  END
