
     RDKit          3D

 21 22  0  0  0  0  0  0  0  0999 V2000
   -2.1488   -0.1103   -0.8755 C   0  0  0  0  0  0  0  0  0  0  0  0
   -1.0539    0.5673   -1.1496 C   0  0  0  0  0  0  0  0  0  0  0  0
   -0.0615    0.2851   -0.1005 C   0  0  0  0  0  0  0  0  0  0  0  0
    0.7581    1.4863    0.2354 C   0  0  0  0  0  0  0  0  0  0  0  0
    2.0196    1.1205    0.4193 C   0  0  0  0  0  0  0  0  0  0  0  0
    2.1662   -0.3441    0.2268 C   0  0  0  0  0  0  0  0  0  0  0  0
    0.9733   -0.6456   -0.6680 C   0  0  0  0  0  0  0  0  0  0  0  0
   -0.8174   -0.2457    1.0508 C   0  0  0  0  0  0  0  0  0  0  0  0
   -2.0203   -0.9164    0.3751 C   0  0  0  0  0  0  0  0  0  0  0  0
   -3.0471   -0.0966   -1.4755 H   0  0  0  0  0  0  0  0  0  0  0  0
   -0.8693    1.2296   -1.9891 H   0  0  0  0  0  0  0  0  0  0  0  0
    0.3263    2.4785    0.3028 H   0  0  0  0  0  0  0  0  0  0  0  0
    2.8198    1.7969    0.6725 H   0  0  0  0  0  0  0  0  0  0  0  0
    2.1320   -0.8997    1.1758 H   0  0  0  0  0  0  0  0  0  0  0  0
    3.0661   -0.6164   -0.3570 H   0  0  0  0  0  0  0  0  0  0  0  0
    0.6825   -1.6997   -0.6510 H   0  0  0  0  0  0  0  0  0  0  0  0
    1.2445   -0.3097   -1.6950 H   0  0  0  0  0  0  0  0  0  0  0  0
   -1.2319    0.6406    1.6174 H   0  0  0  0  0  0  0  0  0  0  0  0
   -0.2904   -0.9083    1.7268 H   0  0  0  0  0  0  0  0  0  0  0  0
   -2.9253   -0.8518    0.9897 H   0  0  0  0  0  0  0  0  0  0  0  0
   -1.7226   -1.9604    0.1688 H   0  0  0  0  0  0  0  0  0  0  0  0
  1  2  2  0
  2  3  1  0
  3  4  1  0
  4  5  2  0
  5  6  1  0
  6  7  1  0
  3  8  1  0
  8  9  1  0
  9  1  1  0
  7  3  1  0
  1 10  1  0
  2 11  1  0
  4 12  1  0
  5 13  1  0
  6 14  1  0
  6 15  1  0
  7 16  1  0
  7 17  1  0
  8 18  1  0
  8 19  1  0
  9 20  1  0
  9 21  1  0
M  END
