
     RDKit          3D

 19 21  0  0  0  0  0  0  0  0999 V2000
    1.3533    1.1615    0.3751 C   0  0  0  0  0  0  0  0  0  0  0  0
    0.1856    1.7508    0.4131 C   0  0  0  0  0  0  0  0  0  0  0  0
   -1.1353    1.1174    0.1878 C   0  0  0  0  0  0  0  0  0  0  0  0
   -1.5909    0.2865    1.1747 O   0  0  0  0  0  0  0  0  0  0  0  0
   -1.7416   -0.7305    0.2551 C   0  0  0  0  0  0  0  0  0  0  0  0
   -0.4655   -1.2247   -0.4294 C   0  0  0  0  0  0  0  0  0  0  0  0
    0.7212   -1.2448    0.4426 C   0  0  0  0  0  0  0  0  0  0  0  0
    1.7884   -0.2345    0.1182 C   0  0  0  0  0  0  0  0  0  0  0  0
   -1.0359    0.0356   -0.8332 C   0  0  0  0  0  0  0  0  0  0  0  0
    2.1861    1.8272    0.5713 H   0  0  0  0  0  0  0  0  0  0  0  0
    0.1840    2.8107    0.6317 H   0  0  0  0  0  0  0  0  0  0  0  0
   -1.9423    1.8515   -0.0983 H   0  0  0  0  0  0  0  0  0  0  0  0
   -2.6880   -1.2324    0.0830 H   0  0  0  0  0  0  0  0  0  0  0  0
   -0.6821   -2.1064   -1.0905 H   0  0  0  0  0  0  0  0  0  0  0  0
    1.2113   -2.2505    0.3370 H   0  0  0  0  0  0  0  0  0  0  0  0
    0.4711   -1.1687    1.5375 H   0  0  0  0  0  0  0  0  0  0  0  0
    2.0983   -0.3411   -0.9348 H   0  0  0  0  0  0  0  0  0  0  0  0
    2.6240   -0.4369    0.8383 H   0  0  0  0  0  0  0  0  0  0  0  0
   -1.5418    0.1294   -1.8184 H   0  0  0  0  0  0  0  0  0  0  0  0
  1  2  2  0
  2  3  1  0
  3  4  1  0
  4  5  1  0
  5  6  1  0
  6  7  1  0
  7  8  1  0
  6  9  1  0
  8  1  1  0
  9  3  1  0
  9  5  1  0
  1 10  1  0
  2 11  1  0
  3 12  1  0
  5 13  1  0
  6 14  1  0
  7 15  1  0
  7 16  1  0
  8 17  1  0
  8 18  1  0
  9 19  1  0
M  END
