
     RDKit          3D

 19 21  0  0  0  0  0  0  0  0999 V2000
   -2.2766   -0.3287    0.3005 C   0  0  0  0  0  0  0  0  0  0  0  0
   -2.0191    0.9424    0.0437 C   0  0  0  0  0  0  0  0  0  0  0  0
   -0.6099    1.1714   -0.2855 C   0  0  0  0  0  0  0  0  0  0  0  0
    0.4329    0.9204    0.7437 C   0  0  0  0  0  0  0  0  0  0  0  0
    1.7459    1.2512    0.3959 O   0  0  0  0  0  0  0  0  0  0  0  0
    2.2962    0.0001    0.1252 C   0  0  0  0  0  0  0  0  0  0  0  0
    1.2742   -0.5307   -0.8908 C   0  0  0  0  0  0  0  0  0  0  0  0
    0.0031   -0.1623   -0.2256 C   0  0  0  0  0  0  0  0  0  0  0  0
   -1.0268   -1.1506    0.1726 C   0  0  0  0  0  0  0  0  0  0  0  0
   -3.2205   -0.7919    0.5706 H   0  0  0  0  0  0  0  0  0  0  0  0
   -2.7726    1.7212    0.0755 H   0  0  0  0  0  0  0  0  0  0  0  0
   -0.3250    1.8177   -1.1549 H   0  0  0  0  0  0  0  0  0  0  0  0
    0.1942    0.8368    1.8032 H   0  0  0  0  0  0  0  0  0  0  0  0
    3.3045    0.0307   -0.2746 H   0  0  0  0  0  0  0  0  0  0  0  0
    2.1732   -0.6118    1.0372 H   0  0  0  0  0  0  0  0  0  0  0  0
    1.3823   -1.6015   -1.0657 H   0  0  0  0  0  0  0  0  0  0  0  0
    1.3805    0.0559   -1.8335 H   0  0  0  0  0  0  0  0  0  0  0  0
   -1.1417   -1.8876   -0.6486 H   0  0  0  0  0  0  0  0  0  0  0  0
   -0.7946   -1.6829    1.1111 H   0  0  0  0  0  0  0  0  0  0  0  0
  1  2  2  0
  2  3  1  0
  3  4  1  0
  4  5  1  0
  5  6  1  0
  6  7  1  0
  7  8  1  0
  8  9  1  0
  9  1  1  0
  8  3  1  0
  8  4  1  0
  1 10  1  0
  2 11  1  0
  3 12  1  0
  4 13  1  0
  6 14  1  0
  6 15  1  0
  7 16  1  0
  7 17  1  0
  9 18  1  0
  9 19  1  0
M  END
