
     RDKit          3D

 16 18  0  0  0  0  0  0  0  0999 V2000
    1.6066   -0.6080   -0.2850 C   0  0  0  0  0  0  0  0  0  0  0  0
    1.5572    0.7099   -0.2268 C   0  0  0  0  0  0  0  0  0  0  0  0
    0.3016    1.1999    0.3750 C   0  0  0  0  0  0  0  0  0  0  0  0
   -1.0346    0.7795   -0.0058 C   0  0  0  0  0  0  0  0  0  0  0  0
   -1.3804   -0.3393   -0.9115 C   0  0  0  0  0  0  0  0  0  0  0  0
   -0.4908   -1.3697   -0.7922 O   0  0  0  0  0  0  0  0  0  0  0  0
    0.3466   -1.1344    0.2903 C   0  0  0  0  0  0  0  0  0  0  0  0
   -0.1976    0.0004    1.0601 C   0  0  0  0  0  0  0  0  0  0  0  0
    2.4261   -1.2389   -0.6852 H   0  0  0  0  0  0  0  0  0  0  0  0
    2.3641    1.3553   -0.5880 H   0  0  0  0  0  0  0  0  0  0  0  0
    0.3906    2.1613    0.9343 H   0  0  0  0  0  0  0  0  0  0  0  0
   -1.8792    1.3568    0.4200 H   0  0  0  0  0  0  0  0  0  0  0  0
   -1.5337   -0.0205   -1.9608 H   0  0  0  0  0  0  0  0  0  0  0  0
   -2.3788   -0.7446   -0.5610 H   0  0  0  0  0  0  0  0  0  0  0  0
    0.5050   -2.0602    0.8841 H   0  0  0  0  0  0  0  0  0  0  0  0
   -0.6026   -0.0476    2.0526 H   0  0  0  0  0  0  0  0  0  0  0  0
  1  2  2  0
  2  3  1  0
  3  4  1  0
  4  5  1  0
  5  6  1  0
  6  7  1  0
  7  8  1  0
  7  1  1  0
  8  3  1  0
  8  4  1  0
  1  9  1  0
  2 10  1  0
  3 11  1  0
  4 12  1  0
  5 13  1  0
  5 14  1  0
  7 15  1  0
  8 16  1  0
M  END
