
     RDKit          3D

 18 19  0  0  0  0  0  0  0  0999 V2000
   -0.6299    1.4396   -0.4213 C   0  0  0  0  0  0  0  0  0  0  0  0
    0.6167    1.2293   -0.8391 C   0  0  0  0  0  0  0  0  0  0  0  0
    1.2484    0.1435   -0.0368 C   0  0  0  0  0  0  0  0  0  0  0  0
    0.8901   -1.1953   -0.6427 C   0  0  0  0  0  0  0  0  0  0  0  0
   -0.4183   -1.1166   -1.1327 O   0  0  0  0  0  0  0  0  0  0  0  0
   -1.3277   -0.8540   -0.1411 C   0  0  0  0  0  0  0  0  0  0  0  0
   -0.9600    0.4041    0.6180 C   0  0  0  0  0  0  0  0  0  0  0  0
    0.4244    0.2475    1.2532 C   0  0  0  0  0  0  0  0  0  0  0  0
   -1.3495    2.1932   -0.7183 H   0  0  0  0  0  0  0  0  0  0  0  0
    1.0651    1.7905   -1.6489 H   0  0  0  0  0  0  0  0  0  0  0  0
    2.3114    0.2774    0.1322 H   0  0  0  0  0  0  0  0  0  0  0  0
    1.5792   -1.5167   -1.4218 H   0  0  0  0  0  0  0  0  0  0  0  0
    0.8754   -1.9688    0.1538 H   0  0  0  0  0  0  0  0  0  0  0  0
   -2.3084   -0.6569   -0.6220 H   0  0  0  0  0  0  0  0  0  0  0  0
   -1.4717   -1.7103    0.5646 H   0  0  0  0  0  0  0  0  0  0  0  0
   -1.7182    0.7248    1.3197 H   0  0  0  0  0  0  0  0  0  0  0  0
    0.6725    1.2021    1.7079 H   0  0  0  0  0  0  0  0  0  0  0  0
    0.5005   -0.6335    1.8753 H   0  0  0  0  0  0  0  0  0  0  0  0
  1  2  2  0
  2  3  1  0
  3  4  1  0
  4  5  1  0
  5  6  1  0
  6  7  1  0
  7  8  1  0
  7  1  1  0
  8  3  1  0
  1  9  1  0
  2 10  1  0
  3 11  1  0
  4 12  1  0
  4 13  1  0
  6 14  1  0
  6 15  1  0
  7 16  1  0
  8 17  1  0
  8 18  1  0
M  END
