
     RDKit          3D

 19 21  0  0  0  0  0  0  0  0999 V2000
    1.3313    1.0201    0.4455 C   0  0  0  0  0  0  0  0  0  0  0  0
    0.1703    1.6096    0.7123 C   0  0  0  0  0  0  0  0  0  0  0  0
   -1.1595    0.8886    0.5964 C   0  0  0  0  0  0  0  0  0  0  0  0
   -1.1818    0.4175   -0.8548 C   0  0  0  0  0  0  0  0  0  0  0  0
   -0.6830   -0.9684   -0.8284 C   0  0  0  0  0  0  0  0  0  0  0  0
    0.5748   -1.2834   -0.1866 C   0  0  0  0  0  0  0  0  0  0  0  0
    1.6471   -0.2876   -0.1069 C   0  0  0  0  0  0  0  0  0  0  0  0
   -0.5633   -1.2863    0.6562 C   0  0  0  0  0  0  0  0  0  0  0  0
   -0.9932   -0.2454    1.3650 O   0  0  0  0  0  0  0  0  0  0  0  0
    2.2399    1.6097    0.6758 H   0  0  0  0  0  0  0  0  0  0  0  0
    0.1418    2.6294    1.0223 H   0  0  0  0  0  0  0  0  0  0  0  0
   -2.0021    1.5181    0.8672 H   0  0  0  0  0  0  0  0  0  0  0  0
   -0.6045    1.1065   -1.5117 H   0  0  0  0  0  0  0  0  0  0  0  0
   -2.2185    0.4229   -1.2489 H   0  0  0  0  0  0  0  0  0  0  0  0
   -1.2382   -1.7278   -1.4306 H   0  0  0  0  0  0  0  0  0  0  0  0
    0.9860   -2.3045   -0.4772 H   0  0  0  0  0  0  0  0  0  0  0  0
    2.0631   -0.1266   -1.1446 H   0  0  0  0  0  0  0  0  0  0  0  0
    2.4986   -0.7163    0.4678 H   0  0  0  0  0  0  0  0  0  0  0  0
   -1.0088   -2.2761    0.9811 H   0  0  0  0  0  0  0  0  0  0  0  0
  1  2  2  0
  2  3  1  0
  3  4  1  0
  4  5  1  0
  5  6  1  0
  6  7  1  0
  6  8  1  0
  8  9  1  0
  7  1  1  0
  9  3  1  0
  8  5  1  0
  1 10  1  0
  2 11  1  0
  3 12  1  0
  4 13  1  0
  4 14  1  0
  5 15  1  0
  6 16  1  0
  7 17  1  0
  7 18  1  0
  8 19  1  0
M  END
