
     RDKit          3D

 21 22  0  0  0  0  0  0  0  0999 V2000
   -2.2722   -0.0012    0.1316 C   0  0  0  0  0  0  0  0  0  0  0  0
   -1.6680   -1.1732   -0.0267 C   0  0  0  0  0  0  0  0  0  0  0  0
   -0.2385   -1.5413    0.0130 C   0  0  0  0  0  0  0  0  0  0  0  0
    0.6816   -0.5471   -0.5903 C   0  0  0  0  0  0  0  0  0  0  0  0
    2.0607   -0.4742    0.0564 C   0  0  0  0  0  0  0  0  0  0  0  0
    1.9340    1.0199    0.1502 C   0  0  0  0  0  0  0  0  0  0  0  0
    0.4659    0.8650   -0.2197 C   0  0  0  0  0  0  0  0  0  0  0  0
   -0.3360    1.0983    0.8627 O   0  0  0  0  0  0  0  0  0  0  0  0
   -1.6322    1.3111    0.4039 C   0  0  0  0  0  0  0  0  0  0  0  0
   -3.3719   -0.0036    0.0519 H   0  0  0  0  0  0  0  0  0  0  0  0
   -2.4058   -1.9732   -0.2178 H   0  0  0  0  0  0  0  0  0  0  0  0
    0.0686   -1.8624    1.0489 H   0  0  0  0  0  0  0  0  0  0  0  0
   -0.1503   -2.4918   -0.5935 H   0  0  0  0  0  0  0  0  0  0  0  0
    0.8259   -0.6995   -1.6956 H   0  0  0  0  0  0  0  0  0  0  0  0
    2.8966   -0.7833   -0.5990 H   0  0  0  0  0  0  0  0  0  0  0  0
    2.1111   -0.9999    1.0509 H   0  0  0  0  0  0  0  0  0  0  0  0
    2.1124    1.3704    1.1813 H   0  0  0  0  0  0  0  0  0  0  0  0
    2.4902    1.6031   -0.6138 H   0  0  0  0  0  0  0  0  0  0  0  0
    0.1987    1.4855   -1.1209 H   0  0  0  0  0  0  0  0  0  0  0  0
   -2.1662    1.8497    1.2360 H   0  0  0  0  0  0  0  0  0  0  0  0
   -1.6048    1.9477   -0.5095 H   0  0  0  0  0  0  0  0  0  0  0  0
  1  2  2  0
  2  3  1  0
  3  4  1  0
  4  5  1  0
  5  6  1  0
  6  7  1  0
  7  8  1  0
  8  9  1  0
  9  1  1  0
  7  4  1  0
  1 10  1  0
  2 11  1  0
  3 12  1  0
  3 13  1  0
  4 14  1  0
  5 15  1  0
  5 16  1  0
  6 17  1  0
  6 18  1  0
  7 19  1  0
  9 20  1  0
  9 21  1  0
M  END
