
     RDKit          2D

 18 20  0  0  0  0  0  0  0  0999 V2000
   -2.1625   -2.1625    0.0000 C   0  0  0  0  0  0  0  0  0  0  0  0
   -2.3972   -0.6810    0.0000 C   0  0  0  0  0  0  0  0  0  0  0  0
   -1.0607    0.0000    0.0000 C   0  0  0  0  0  0  0  0  0  0  0  0
    0.0000    1.0607    0.0000 C   0  0  0  0  0  0  0  0  0  0  0  0
    0.6306   -0.3004    0.0000 C   0  0  0  0  0  0  0  0  0  0  0  0
   -0.6810   -2.3972    0.0000 C   0  0  0  0  0  0  0  0  0  0  0  0
   -0.0000   -1.0607    0.0000 C   0  0  0  0  0  0  0  0  0  0  0  0
   -0.3393    0.0000    0.0000 C   0  0  0  0  0  0  0  0  0  0  0  0
   -3.2232   -3.2232    0.0000 H   0  0  0  0  0  0  0  0  0  0  0  0
   -3.7337    0.0000    0.0000 H   0  0  0  0  0  0  0  0  0  0  0  0
   -1.9423    1.2135    0.0000 H   0  0  0  0  0  0  0  0  0  0  0  0
    0.0000    2.5607    0.0000 H   0  0  0  0  0  0  0  0  0  0  0  0
    1.8148    0.6202    0.0000 H   0  0  0  0  0  0  0  0  0  0  0  0
    1.1087   -0.9382    0.0000 H   0  0  0  0  0  0  0  0  0  0  0  0
   -0.0000   -3.7337    0.0000 H   0  0  0  0  0  0  0  0  0  0  0  0
    0.5830   -1.6043    0.0000 H   0  0  0  0  0  0  0  0  0  0  0  0
    2.2427    0.9235    0.0000 H   0  0  0  0  0  0  0  0  0  0  0  0
    2.2427   -0.9235    0.0000 H   0  0  0  0  0  0  0  0  0  0  0  0
  1  2  2  0
  2  3  1  0
  3  4  1  0
  4  5  1  0
  5  6  1  0
  6  7  1  0
  7  8  1  0
  6  1  1  0
  7  3  1  0
  8  4  1  0
  1  9  1  0
  2 10  1  0
  3 11  1  0
  4 12  1  0
  5 13  1  0
  5 14  1  0
  6 15  1  0
  7 16  1  0
  8 17  1  0
  8 18  1  0
M  END
