
     RDKit          3D

 18 19  0  0  0  0  0  0  0  0999 V2000
    1.9992    0.1812   -0.0863 C   0  0  0  0  0  0  0  0  0  0  0  0
    1.2682    1.2870   -0.0138 C   0  0  0  0  0  0  0  0  0  0  0  0
   -0.1578    1.4525    0.1969 C   0  0  0  0  0  0  0  0  0  0  0  0
   -1.0969    0.5429   -0.4322 C   0  0  0  0  0  0  0  0  0  0  0  0
   -1.8294   -0.4247    0.5408 C   0  0  0  0  0  0  0  0  0  0  0  0
   -0.9154   -0.8430   -0.6154 C   0  0  0  0  0  0  0  0  0  0  0  0
    0.2644   -1.5641   -0.2006 C   0  0  0  0  0  0  0  0  0  0  0  0
    1.5141   -1.1708    0.0343 C   0  0  0  0  0  0  0  0  0  0  0  0
    3.0731    0.2833   -0.2529 H   0  0  0  0  0  0  0  0  0  0  0  0
    1.8678    2.1762   -0.1343 H   0  0  0  0  0  0  0  0  0  0  0  0
   -0.3950    2.5309   -0.0708 H   0  0  0  0  0  0  0  0  0  0  0  0
   -0.3290    1.4732    1.3184 H   0  0  0  0  0  0  0  0  0  0  0  0
   -1.8544    1.0447   -1.1161 H   0  0  0  0  0  0  0  0  0  0  0  0
   -1.4075   -0.4818    1.5787 H   0  0  0  0  0  0  0  0  0  0  0  0
   -2.8970   -0.5833    0.4294 H   0  0  0  0  0  0  0  0  0  0  0  0
   -1.4562   -1.3512   -1.4695 H   0  0  0  0  0  0  0  0  0  0  0  0
    0.1374   -2.6274   -0.0441 H   0  0  0  0  0  0  0  0  0  0  0  0
    2.2146   -1.9256    0.3376 H   0  0  0  0  0  0  0  0  0  0  0  0
  1  2  2  0
  2  3  1  0
  3  4  1  0
  4  5  1  0
  5  6  1  0
  6  7  1  0
  7  8  2  0
  8  1  1  0
  6  4  1  0
  1  9  1  0
  2 10  1  0
  3 11  1  0
  3 12  1  0
  4 13  1  0
  5 14  1  0
  5 15  1  0
  6 16  1  0
  7 17  1  0
  8 18  1  0
M  END
