
     RDKit          3D

 17 19  0  0  0  0  0  0  0  0999 V2000
    1.8324   -0.2685    0.0367 C   0  0  0  0  0  0  0  0  0  0  0  0
    0.8626   -1.0060    0.5276 C   0  0  0  0  0  0  0  0  0  0  0  0
   -0.5193   -0.6324    0.2190 C   0  0  0  0  0  0  0  0  0  0  0  0
   -1.1071   -1.2436   -0.9975 C   0  0  0  0  0  0  0  0  0  0  0  0
   -0.7357    0.1654   -0.9912 C   0  0  0  0  0  0  0  0  0  0  0  0
   -1.6649    1.0380   -0.1369 C   0  0  0  0  0  0  0  0  0  0  0  0
   -1.1572    0.3299    0.9524 O   0  0  0  0  0  0  0  0  0  0  0  0
    0.3538    0.7191   -1.5868 O   0  0  0  0  0  0  0  0  0  0  0  0
    1.4616    0.8870   -0.7928 C   0  0  0  0  0  0  0  0  0  0  0  0
    2.8618   -0.4996    0.2331 H   0  0  0  0  0  0  0  0  0  0  0  0
    1.0684   -1.8652    1.1422 H   0  0  0  0  0  0  0  0  0  0  0  0
   -0.5010   -1.9377   -1.5719 H   0  0  0  0  0  0  0  0  0  0  0  0
   -2.1822   -1.5259   -0.9438 H   0  0  0  0  0  0  0  0  0  0  0  0
   -1.4309    2.1080   -0.1602 H   0  0  0  0  0  0  0  0  0  0  0  0
   -2.7391    0.7722   -0.2616 H   0  0  0  0  0  0  0  0  0  0  0  0
    1.2665    1.7872   -0.1441 H   0  0  0  0  0  0  0  0  0  0  0  0
    2.3304    1.1722   -1.4206 H   0  0  0  0  0  0  0  0  0  0  0  0
  1  2  2  0
  2  3  1  0
  3  4  1  0
  4  5  1  0
  5  6  1  0
  6  7  1  0
  5  8  1  0
  8  9  1  0
  9  1  1  0
  5  3  1  0
  7  3  1  0
  1 10  1  0
  2 11  1  0
  4 12  1  0
  4 13  1  0
  6 14  1  0
  6 15  1  0
  9 16  1  0
  9 17  1  0
M  END
