
     RDKit          3D

 19 21  0  0  0  0  0  0  0  0999 V2000
   -1.3013   -0.7787    0.8720 C   0  0  0  0  0  0  0  0  0  0  0  0
   -0.7464    0.3590    1.2635 C   0  0  0  0  0  0  0  0  0  0  0  0
   -0.2004    1.0894    0.0794 C   0  0  0  0  0  0  0  0  0  0  0  0
   -1.2151    0.5381   -0.9646 C   0  0  0  0  0  0  0  0  0  0  0  0
   -1.0496   -0.9480   -0.5856 C   0  0  0  0  0  0  0  0  0  0  0  0
    0.2741   -1.3786   -0.8567 O   0  0  0  0  0  0  0  0  0  0  0  0
    1.1092   -0.8677    0.0650 C   0  0  0  0  0  0  0  0  0  0  0  0
    2.2237   -0.0123    0.1375 C   0  0  0  0  0  0  0  0  0  0  0  0
    1.0972    0.6295   -0.4177 C   0  0  0  0  0  0  0  0  0  0  0  0
   -1.8410   -1.4668    1.4895 H   0  0  0  0  0  0  0  0  0  0  0  0
   -0.6999    0.6992    2.2842 H   0  0  0  0  0  0  0  0  0  0  0  0
   -0.3196    2.1717    0.1454 H   0  0  0  0  0  0  0  0  0  0  0  0
   -0.8902    0.7440   -1.9774 H   0  0  0  0  0  0  0  0  0  0  0  0
   -2.2189    0.8259   -0.6865 H   0  0  0  0  0  0  0  0  0  0  0  0
   -1.7982   -1.5763   -1.0536 H   0  0  0  0  0  0  0  0  0  0  0  0
    0.6505   -1.0788    1.0791 H   0  0  0  0  0  0  0  0  0  0  0  0
    3.1704   -0.1104   -0.4764 H   0  0  0  0  0  0  0  0  0  0  0  0
    2.5703    0.3813    1.1440 H   0  0  0  0  0  0  0  0  0  0  0  0
    1.1853    0.7795   -1.5412 H   0  0  0  0  0  0  0  0  0  0  0  0
  1  2  2  0
  2  3  1  0
  3  4  1  0
  4  5  1  0
  5  6  1  0
  6  7  1  0
  7  8  1  0
  8  9  1  0
  5  1  1  0
  9  7  1  0
  9  3  1  0
  1 10  1  0
  2 11  1  0
  3 12  1  0
  4 13  1  0
  4 14  1  0
  5 15  1  0
  7 16  1  0
  8 17  1  0
  8 18  1  0
  9 19  1  0
M  END
