
     RDKit          3D

 20 21  0  0  0  0  0  0  0  0999 V2000
   -1.8113    0.8807   -0.6910 C   0  0  0  0  0  0  0  0  0  0  0  0
   -2.0326   -0.4286   -0.6411 C   0  0  0  0  0  0  0  0  0  0  0  0
   -1.0453   -1.0861    0.2633 C   0  0  0  0  0  0  0  0  0  0  0  0
    0.0648   -0.0699    0.2681 C   0  0  0  0  0  0  0  0  0  0  0  0
   -0.6401    1.2226    0.1872 C   0  0  0  0  0  0  0  0  0  0  0  0
    1.0090   -0.2814   -0.9107 C   0  0  0  0  0  0  0  0  0  0  0  0
    2.1225    0.1627    0.0454 C   0  0  0  0  0  0  0  0  0  0  0  0
    1.1900   -0.2702    1.1821 C   0  0  0  0  0  0  0  0  0  0  0  0
   -2.3630    1.6314   -1.2629 H   0  0  0  0  0  0  0  0  0  0  0  0
   -2.8303   -0.9077   -1.1965 H   0  0  0  0  0  0  0  0  0  0  0  0
   -0.7375   -2.0768   -0.0830 H   0  0  0  0  0  0  0  0  0  0  0  0
   -1.5105   -1.1436    1.2896 H   0  0  0  0  0  0  0  0  0  0  0  0
   -0.0617    2.0667   -0.1922 H   0  0  0  0  0  0  0  0  0  0  0  0
   -1.1004    1.4402    1.1902 H   0  0  0  0  0  0  0  0  0  0  0  0
    0.8166    0.4193   -1.7234 H   0  0  0  0  0  0  0  0  0  0  0  0
    1.0658   -1.3531   -1.1948 H   0  0  0  0  0  0  0  0  0  0  0  0
    3.0247   -0.4272   -0.0626 H   0  0  0  0  0  0  0  0  0  0  0  0
    2.2073    1.2485    0.0427 H   0  0  0  0  0  0  0  0  0  0  0  0
    1.3551   -1.3581    1.4010 H   0  0  0  0  0  0  0  0  0  0  0  0
    1.2770    0.3306    2.0883 H   0  0  0  0  0  0  0  0  0  0  0  0
  1  2  2  0
  2  3  1  0
  3  4  1  0
  4  5  1  0
  4  6  1  0
  6  7  1  0
  7  8  1  0
  5  1  1  0
  8  4  1  0
  1  9  1  0
  2 10  1  0
  3 11  1  0
  3 12  1  0
  5 13  1  0
  5 14  1  0
  6 15  1  0
  6 16  1  0
  7 17  1  0
  7 18  1  0
  8 19  1  0
  8 20  1  0
M  END
