
     RDKit          3D

 19 21  0  0  0  0  0  0  0  0999 V2000
   -0.6495    1.6668    0.2264 C   0  0  0  0  0  0  0  0  0  0  0  0
    0.4811    1.0308    0.0172 C   0  0  0  0  0  0  0  0  0  0  0  0
    1.8986    0.6369   -0.2343 C   0  0  0  0  0  0  0  0  0  0  0  0
    1.5705   -0.7807    0.3343 C   0  0  0  0  0  0  0  0  0  0  0  0
    0.2033   -0.4140   -0.0181 C   0  0  0  0  0  0  0  0  0  0  0  0
   -0.5614   -1.0596   -1.0483 C   0  0  0  0  0  0  0  0  0  0  0  0
   -1.4104   -1.6012   -0.0494 O   0  0  0  0  0  0  0  0  0  0  0  0
   -0.9837   -0.5745    0.7897 C   0  0  0  0  0  0  0  0  0  0  0  0
   -1.7773    0.6896    0.3952 C   0  0  0  0  0  0  0  0  0  0  0  0
   -0.7899    2.7506    0.2773 H   0  0  0  0  0  0  0  0  0  0  0  0
    2.1985    0.6041   -1.2875 H   0  0  0  0  0  0  0  0  0  0  0  0
    2.6443    1.1067    0.4341 H   0  0  0  0  0  0  0  0  0  0  0  0
    1.8271   -0.8742    1.3879 H   0  0  0  0  0  0  0  0  0  0  0  0
    2.0951   -1.5228   -0.3041 H   0  0  0  0  0  0  0  0  0  0  0  0
   -1.0624   -0.5032   -1.8437 H   0  0  0  0  0  0  0  0  0  0  0  0
   -0.0148   -1.9491   -1.4869 H   0  0  0  0  0  0  0  0  0  0  0  0
   -0.9505   -0.7787    1.8528 H   0  0  0  0  0  0  0  0  0  0  0  0
   -2.4847    0.9788    1.1656 H   0  0  0  0  0  0  0  0  0  0  0  0
   -2.2339    0.5938   -0.6082 H   0  0  0  0  0  0  0  0  0  0  0  0
  1  2  2  0
  2  3  1  0
  3  4  1  0
  4  5  1  0
  5  6  1  0
  6  7  1  0
  7  8  1  0
  8  9  1  0
  9  1  1  0
  5  2  1  0
  8  5  1  0
  1 10  1  0
  3 11  1  0
  3 12  1  0
  4 13  1  0
  4 14  1  0
  6 15  1  0
  6 16  1  0
  8 17  1  0
  9 18  1  0
  9 19  1  0
M  END
