
     RDKit          3D

 21 22  0  0  0  0  0  0  0  0999 V2000
    0.0666   -1.7146   -0.3811 C   0  0  0  0  0  0  0  0  0  0  0  0
    1.3011   -1.2400   -0.3166 C   0  0  0  0  0  0  0  0  0  0  0  0
    1.9758   -0.1589    0.4102 C   0  0  0  0  0  0  0  0  0  0  0  0
    1.3514    0.3880    1.5457 O   0  0  0  0  0  0  0  0  0  0  0  0
    1.4407    1.1528    0.3685 C   0  0  0  0  0  0  0  0  0  0  0  0
    0.2155    1.4158   -0.4394 C   0  0  0  0  0  0  0  0  0  0  0  0
   -1.0632    1.1403    0.3071 C   0  0  0  0  0  0  0  0  0  0  0  0
   -1.7561   -0.0425   -0.3277 C   0  0  0  0  0  0  0  0  0  0  0  0
   -1.1846   -1.2974    0.3096 C   0  0  0  0  0  0  0  0  0  0  0  0
   -0.0869   -2.5551   -1.0468 H   0  0  0  0  0  0  0  0  0  0  0  0
    1.9639   -1.7989   -0.9665 H   0  0  0  0  0  0  0  0  0  0  0  0
    3.0877   -0.2837    0.5686 H   0  0  0  0  0  0  0  0  0  0  0  0
    2.1357    2.0259    0.4944 H   0  0  0  0  0  0  0  0  0  0  0  0
    0.2144    0.8580   -1.4053 H   0  0  0  0  0  0  0  0  0  0  0  0
    0.1728    2.5021   -0.7467 H   0  0  0  0  0  0  0  0  0  0  0  0
   -0.8841    0.9444    1.3854 H   0  0  0  0  0  0  0  0  0  0  0  0
   -1.7766    1.9936    0.2658 H   0  0  0  0  0  0  0  0  0  0  0  0
   -2.8438    0.0053   -0.2907 H   0  0  0  0  0  0  0  0  0  0  0  0
   -1.4634   -0.1075   -1.4160 H   0  0  0  0  0  0  0  0  0  0  0  0
   -1.9436   -2.1051    0.3075 H   0  0  0  0  0  0  0  0  0  0  0  0
   -0.9232   -1.1225    1.3740 H   0  0  0  0  0  0  0  0  0  0  0  0
  1  2  2  3
  2  3  1  0
  3  4  1  0
  4  5  1  0
  5  6  1  0
  6  7  1  0
  7  8  1  0
  8  9  1  0
  9  1  1  0
  5  3  1  0
  1 10  1  0
  2 11  1  0
  3 12  1  0
  5 13  1  0
  6 14  1  0
  6 15  1  0
  7 16  1  0
  7 17  1  0
  8 18  1  0
  8 19  1  0
  9 20  1  0
  9 21  1  0
M  END
