
     RDKit          3D

 23 24  0  0  0  0  0  0  0  0999 V2000
    1.1804    1.6273    0.4451 C   0  0  0  0  0  0  0  0  0  0  0  0
   -0.0302    1.6795   -0.1045 C   0  0  0  0  0  0  0  0  0  0  0  0
   -0.7942    0.5387   -0.6220 C   0  0  0  0  0  0  0  0  0  0  0  0
   -2.2446    0.4420   -0.2867 C   0  0  0  0  0  0  0  0  0  0  0  0
   -1.9802   -1.0402    0.0367 C   0  0  0  0  0  0  0  0  0  0  0  0
   -0.5721   -0.6120    0.3750 C   0  0  0  0  0  0  0  0  0  0  0  0
    0.5445   -1.4732   -0.0785 C   0  0  0  0  0  0  0  0  0  0  0  0
    1.7236   -0.5619   -0.4442 C   0  0  0  0  0  0  0  0  0  0  0  0
    2.0395    0.4083    0.6632 C   0  0  0  0  0  0  0  0  0  0  0  0
    1.6023    2.5825    0.7781 H   0  0  0  0  0  0  0  0  0  0  0  0
   -0.4495    2.6587   -0.1551 H   0  0  0  0  0  0  0  0  0  0  0  0
   -0.6021    0.2450   -1.6699 H   0  0  0  0  0  0  0  0  0  0  0  0
   -2.5518    0.9585    0.6552 H   0  0  0  0  0  0  0  0  0  0  0  0
   -2.9219    0.5873   -1.1481 H   0  0  0  0  0  0  0  0  0  0  0  0
   -1.9925   -1.6940   -0.8632 H   0  0  0  0  0  0  0  0  0  0  0  0
   -2.5774   -1.4074    0.8909 H   0  0  0  0  0  0  0  0  0  0  0  0
   -0.4844   -0.2106    1.4019 H   0  0  0  0  0  0  0  0  0  0  0  0
    0.2374   -2.0390   -0.9587 H   0  0  0  0  0  0  0  0  0  0  0  0
    0.8696   -2.1373    0.7457 H   0  0  0  0  0  0  0  0  0  0  0  0
    2.5990   -1.2300   -0.5667 H   0  0  0  0  0  0  0  0  0  0  0  0
    1.4791   -0.0003   -1.3789 H   0  0  0  0  0  0  0  0  0  0  0  0
    1.8162   -0.0029    1.6672 H   0  0  0  0  0  0  0  0  0  0  0  0
    3.1095    0.6810    0.6175 H   0  0  0  0  0  0  0  0  0  0  0  0
  1  2  2  0
  2  3  1  0
  3  4  1  0
  4  5  1  0
  5  6  1  0
  6  7  1  0
  7  8  1  0
  8  9  1  0
  9  1  1  0
  6  3  1  0
  1 10  1  0
  2 11  1  0
  3 12  1  0
  4 13  1  0
  4 14  1  0
  5 15  1  0
  5 16  1  0
  6 17  1  0
  7 18  1  0
  7 19  1  0
  8 20  1  0
  8 21  1  0
  9 22  1  0
  9 23  1  0
M  END
