
     RDKit          3D

 18 19  0  0  0  0  0  0  0  0999 V2000
   -0.9116   -1.4265   -0.0789 C   0  0  0  0  0  0  0  0  0  0  0  0
    0.1686   -0.6981   -0.1501 C   0  0  0  0  0  0  0  0  0  0  0  0
    1.6582   -0.7271   -0.3054 C   0  0  0  0  0  0  0  0  0  0  0  0
    2.0628    0.4723    0.5032 C   0  0  0  0  0  0  0  0  0  0  0  0
    0.9251    1.3961    0.3355 C   0  0  0  0  0  0  0  0  0  0  0  0
   -0.1386    0.7157   -0.0331 C   0  0  0  0  0  0  0  0  0  0  0  0
   -1.6038    0.8183   -0.3873 C   0  0  0  0  0  0  0  0  0  0  0  0
   -2.1012   -0.5403    0.0914 C   0  0  0  0  0  0  0  0  0  0  0  0
   -1.0129   -2.5220   -0.1281 H   0  0  0  0  0  0  0  0  0  0  0  0
    1.9250   -0.5314   -1.3677 H   0  0  0  0  0  0  0  0  0  0  0  0
    2.0836   -1.6757    0.0707 H   0  0  0  0  0  0  0  0  0  0  0  0
    2.1250    0.1809    1.5843 H   0  0  0  0  0  0  0  0  0  0  0  0
    3.0223    0.9174    0.1552 H   0  0  0  0  0  0  0  0  0  0  0  0
    0.9226    2.4895    0.4848 H   0  0  0  0  0  0  0  0  0  0  0  0
   -1.7606    0.8965   -1.4658 H   0  0  0  0  0  0  0  0  0  0  0  0
   -2.0902    1.6543    0.1256 H   0  0  0  0  0  0  0  0  0  0  0  0
   -2.8730   -0.9025   -0.5902 H   0  0  0  0  0  0  0  0  0  0  0  0
   -2.4013   -0.5174    1.1558 H   0  0  0  0  0  0  0  0  0  0  0  0
  1  2  2  0
  2  3  1  0
  3  4  1  0
  4  5  1  0
  5  6  2  0
  6  7  1  0
  7  8  1  0
  8  1  1  0
  6  2  1  0
  1  9  1  0
  3 10  1  0
  3 11  1  0
  4 12  1  0
  4 13  1  0
  5 14  1  0
  7 15  1  0
  7 16  1  0
  8 17  1  0
  8 18  1  0
M  END
