
     RDKit          3D

 16 18  0  0  0  0  0  0  0  0999 V2000
    0.9462    1.2497   -0.3710 C   0  0  0  0  0  0  0  0  0  0  0  0
   -0.3549    1.5073   -0.3026 C   0  0  0  0  0  0  0  0  0  0  0  0
   -1.2330    0.4453    0.3216 C   0  0  0  0  0  0  0  0  0  0  0  0
   -0.8821   -0.9174   -0.0547 C   0  0  0  0  0  0  0  0  0  0  0  0
    0.4261   -1.0593   -0.7673 C   0  0  0  0  0  0  0  0  0  0  0  0
    1.3191   -0.1279    0.0493 C   0  0  0  0  0  0  0  0  0  0  0  0
    0.8389   -0.3002    1.3386 O   0  0  0  0  0  0  0  0  0  0  0  0
   -0.5283   -0.3977    1.2872 C   0  0  0  0  0  0  0  0  0  0  0  0
    1.7148    1.9324   -0.6932 H   0  0  0  0  0  0  0  0  0  0  0  0
   -0.7896    2.4269   -0.6696 H   0  0  0  0  0  0  0  0  0  0  0  0
   -2.2592    0.7361    0.5477 H   0  0  0  0  0  0  0  0  0  0  0  0
   -1.6085   -1.7273   -0.2127 H   0  0  0  0  0  0  0  0  0  0  0  0
    0.2795   -0.6311   -1.7988 H   0  0  0  0  0  0  0  0  0  0  0  0
    0.8059   -2.0741   -0.8266 H   0  0  0  0  0  0  0  0  0  0  0  0
    2.3732   -0.3561   -0.0364 H   0  0  0  0  0  0  0  0  0  0  0  0
   -1.0481   -0.7066    2.1884 H   0  0  0  0  0  0  0  0  0  0  0  0
  1  2  2  0
  2  3  1  0
  3  4  1  0
  4  5  1  0
  5  6  1  0
  6  7  1  0
  7  8  1  0
  6  1  1  0
  8  3  1  0
  8  4  1  0
  1  9  1  0
  2 10  1  0
  3 11  1  0
  4 12  1  0
  5 13  1  0
  5 14  1  0
  6 15  1  0
  8 16  1  0
M  END
