
     RDKit          3D

 19 21  0  0  0  0  0  0  0  0999 V2000
   -1.4251    1.1323    0.0741 C   0  0  0  0  0  0  0  0  0  0  0  0
   -0.2208    1.6713    0.0696 C   0  0  0  0  0  0  0  0  0  0  0  0
    1.1330    1.2488   -0.1912 C   0  0  0  0  0  0  0  0  0  0  0  0
    1.4231   -0.1139   -0.5959 C   0  0  0  0  0  0  0  0  0  0  0  0
    1.1926   -1.1757    0.4414 C   0  0  0  0  0  0  0  0  0  0  0  0
    0.0835   -0.9435    1.2339 O   0  0  0  0  0  0  0  0  0  0  0  0
   -0.7029   -1.2278    0.1416 C   0  0  0  0  0  0  0  0  0  0  0  0
   -1.7595   -0.2643   -0.2348 C   0  0  0  0  0  0  0  0  0  0  0  0
    0.4162   -1.0917   -0.8257 C   0  0  0  0  0  0  0  0  0  0  0  0
   -2.2665    1.7689    0.3293 H   0  0  0  0  0  0  0  0  0  0  0  0
   -0.2818    2.7439    0.3434 H   0  0  0  0  0  0  0  0  0  0  0  0
    1.5694    1.9570   -0.9590 H   0  0  0  0  0  0  0  0  0  0  0  0
    1.7477    1.4827    0.7316 H   0  0  0  0  0  0  0  0  0  0  0  0
    2.4058   -0.2538   -1.1312 H   0  0  0  0  0  0  0  0  0  0  0  0
    1.9148   -1.9500    0.6547 H   0  0  0  0  0  0  0  0  0  0  0  0
   -1.1027   -2.2671    0.1718 H   0  0  0  0  0  0  0  0  0  0  0  0
   -2.7306   -0.5368    0.2307 H   0  0  0  0  0  0  0  0  0  0  0  0
   -1.9539   -0.3116   -1.3460 H   0  0  0  0  0  0  0  0  0  0  0  0
    0.5576   -1.8686   -1.6287 H   0  0  0  0  0  0  0  0  0  0  0  0
  1  2  2  0
  2  3  1  0
  3  4  1  0
  4  5  1  0
  5  6  1  0
  6  7  1  0
  7  8  1  0
  7  9  1  0
  8  1  1  0
  9  4  1  0
  9  5  1  0
  1 10  1  0
  2 11  1  0
  3 12  1  0
  3 13  1  0
  4 14  1  0
  5 15  1  0
  7 16  1  0
  8 17  1  0
  8 18  1  0
  9 19  1  0
M  END
