
     RDKit          3D

 19 21  0  0  0  0  0  0  0  0999 V2000
   -1.7234    0.8734    0.0303 C   0  0  0  0  0  0  0  0  0  0  0  0
   -0.8240    1.2175   -0.8891 C   0  0  0  0  0  0  0  0  0  0  0  0
    0.1373    0.0884   -1.0823 C   0  0  0  0  0  0  0  0  0  0  0  0
   -0.8197   -1.0839   -0.7836 C   0  0  0  0  0  0  0  0  0  0  0  0
   -1.2966   -0.4779    0.5475 C   0  0  0  0  0  0  0  0  0  0  0  0
    0.0125   -0.2769    1.2481 C   0  0  0  0  0  0  0  0  0  0  0  0
    0.9998    0.0278    0.1210 C   0  0  0  0  0  0  0  0  0  0  0  0
    2.3519   -0.0319    0.2773 C   0  0  0  0  0  0  0  0  0  0  0  0
    1.7920    1.2428    0.3428 O   0  0  0  0  0  0  0  0  0  0  0  0
   -2.5934    1.3837    0.3887 H   0  0  0  0  0  0  0  0  0  0  0  0
   -0.8178    2.1723   -1.3978 H   0  0  0  0  0  0  0  0  0  0  0  0
    0.5958    0.0338   -2.0428 H   0  0  0  0  0  0  0  0  0  0  0  0
   -1.6046   -1.0843   -1.5338 H   0  0  0  0  0  0  0  0  0  0  0  0
   -0.2828   -2.0192   -0.6344 H   0  0  0  0  0  0  0  0  0  0  0  0
   -2.0510   -1.0331    1.0445 H   0  0  0  0  0  0  0  0  0  0  0  0
   -0.1049    0.6373    1.8852 H   0  0  0  0  0  0  0  0  0  0  0  0
    0.3400   -1.1272    1.8589 H   0  0  0  0  0  0  0  0  0  0  0  0
    2.8289   -0.3911    1.2149 H   0  0  0  0  0  0  0  0  0  0  0  0
    3.0599   -0.1516   -0.5954 H   0  0  0  0  0  0  0  0  0  0  0  0
  1  2  2  0
  2  3  1  0
  3  4  1  0
  4  5  1  0
  5  6  1  0
  6  7  1  0
  7  8  1  0
  8  9  1  0
  5  1  1  0
  9  7  1  0
  7  3  1  0
  1 10  1  0
  2 11  1  0
  3 12  1  0
  4 13  1  0
  4 14  1  0
  5 15  1  0
  6 16  1  0
  6 17  1  0
  8 18  1  0
  8 19  1  0
M  END
