
     RDKit          3D

 17 19  0  0  0  0  0  0  0  0999 V2000
    1.6602   -0.2384    0.1172 C   0  0  0  0  0  0  0  0  0  0  0  0
    1.0837    0.9621    0.1836 C   0  0  0  0  0  0  0  0  0  0  0  0
   -0.0495    1.1486   -0.6963 C   0  0  0  0  0  0  0  0  0  0  0  0
   -1.4476    1.1214   -0.4901 C   0  0  0  0  0  0  0  0  0  0  0  0
   -0.8838   -0.1510   -0.3840 C   0  0  0  0  0  0  0  0  0  0  0  0
   -0.7673   -0.7509    1.0017 C   0  0  0  0  0  0  0  0  0  0  0  0
    0.1487   -1.7904    0.8866 O   0  0  0  0  0  0  0  0  0  0  0  0
    0.8366   -1.4010   -0.2906 C   0  0  0  0  0  0  0  0  0  0  0  0
   -0.2422   -1.0416   -1.1373 O   0  0  0  0  0  0  0  0  0  0  0  0
    2.7199   -0.4003    0.3547 H   0  0  0  0  0  0  0  0  0  0  0  0
    1.4968    1.7082    0.8820 H   0  0  0  0  0  0  0  0  0  0  0  0
    0.2858    1.2654   -1.7731 H   0  0  0  0  0  0  0  0  0  0  0  0
   -1.8420    1.6222    0.4470 H   0  0  0  0  0  0  0  0  0  0  0  0
   -2.1313    1.3697   -1.3293 H   0  0  0  0  0  0  0  0  0  0  0  0
   -0.4971    0.0103    1.7302 H   0  0  0  0  0  0  0  0  0  0  0  0
   -1.7717   -1.2064    1.2151 H   0  0  0  0  0  0  0  0  0  0  0  0
    1.4010   -2.2280   -0.7174 H   0  0  0  0  0  0  0  0  0  0  0  0
  1  2  2  0
  2  3  1  0
  3  4  1  0
  4  5  1  0
  5  6  1  0
  6  7  1  0
  7  8  1  0
  8  9  1  0
  8  1  1  0
  5  3  1  0
  9  5  1  0
  1 10  1  0
  2 11  1  0
  3 12  1  0
  4 13  1  0
  4 14  1  0
  6 15  1  0
  6 16  1  0
  8 17  1  0
M  END
