
     RDKit          3D

 19 21  0  0  0  0  0  0  0  0999 V2000
    1.9853    0.8333   -0.0640 C   0  0  0  0  0  0  0  0  0  0  0  0
    1.6980   -0.1481    0.7744 C   0  0  0  0  0  0  0  0  0  0  0  0
    0.6115   -1.0146    0.2857 C   0  0  0  0  0  0  0  0  0  0  0  0
   -0.3462   -1.0904    1.3323 O   0  0  0  0  0  0  0  0  0  0  0  0
   -1.4999   -0.8550    0.6773 C   0  0  0  0  0  0  0  0  0  0  0  0
   -2.3402    0.2596    0.4973 C   0  0  0  0  0  0  0  0  0  0  0  0
   -1.0316    0.5447    0.0955 C   0  0  0  0  0  0  0  0  0  0  0  0
   -0.0376   -0.1127   -0.7858 C   0  0  0  0  0  0  0  0  0  0  0  0
    1.0921    0.7191   -1.2370 C   0  0  0  0  0  0  0  0  0  0  0  0
    2.7656    1.5995    0.1033 H   0  0  0  0  0  0  0  0  0  0  0  0
    2.2210   -0.2948    1.7349 H   0  0  0  0  0  0  0  0  0  0  0  0
    0.9037   -1.9839   -0.1004 H   0  0  0  0  0  0  0  0  0  0  0  0
   -1.6461   -1.6754   -0.0944 H   0  0  0  0  0  0  0  0  0  0  0  0
   -3.1533    0.2370   -0.2739 H   0  0  0  0  0  0  0  0  0  0  0  0
   -2.7683    0.7392    1.4275 H   0  0  0  0  0  0  0  0  0  0  0  0
   -0.4388    1.1825    0.8304 H   0  0  0  0  0  0  0  0  0  0  0  0
   -0.4751   -0.7734   -1.5575 H   0  0  0  0  0  0  0  0  0  0  0  0
    1.6660    0.1259   -1.9995 H   0  0  0  0  0  0  0  0  0  0  0  0
    0.7941    1.7075   -1.6461 H   0  0  0  0  0  0  0  0  0  0  0  0
  1  2  2  0
  2  3  1  0
  3  4  1  0
  4  5  1  0
  5  6  1  0
  6  7  1  0
  7  8  1  0
  8  9  1  0
  9  1  1  0
  8  3  1  0
  7  5  1  0
  1 10  1  0
  2 11  1  0
  3 12  1  0
  5 13  1  0
  6 14  1  0
  6 15  1  0
  7 16  1  0
  8 17  1  0
  9 18  1  0
  9 19  1  0
M  END
