
     RDKit          3D

 19 20  0  0  0  0  0  0  0  0999 V2000
    1.8702   -0.1339    0.1529 C   0  0  0  0  0  0  0  0  0  0  0  0
    1.5627    1.1580    0.1914 C   0  0  0  0  0  0  0  0  0  0  0  0
    0.2693    1.8746   -0.0425 C   0  0  0  0  0  0  0  0  0  0  0  0
   -0.6145    1.0931   -0.7744 O   0  0  0  0  0  0  0  0  0  0  0  0
   -1.4294    0.3957    0.1048 C   0  0  0  0  0  0  0  0  0  0  0  0
   -2.3136   -0.6757   -0.4214 C   0  0  0  0  0  0  0  0  0  0  0  0
   -0.9790   -1.0028    0.2636 C   0  0  0  0  0  0  0  0  0  0  0  0
   -0.0063   -1.4141   -0.6062 O   0  0  0  0  0  0  0  0  0  0  0  0
    1.2592   -1.4529   -0.0968 C   0  0  0  0  0  0  0  0  0  0  0  0
    2.9298   -0.2523    0.3839 H   0  0  0  0  0  0  0  0  0  0  0  0
    2.3829    1.8249    0.4339 H   0  0  0  0  0  0  0  0  0  0  0  0
   -0.1639    2.0465    0.9787 H   0  0  0  0  0  0  0  0  0  0  0  0
    0.4799    2.8521   -0.4927 H   0  0  0  0  0  0  0  0  0  0  0  0
   -1.8272    0.9251    0.9997 H   0  0  0  0  0  0  0  0  0  0  0  0
   -2.3762   -0.7464   -1.5131 H   0  0  0  0  0  0  0  0  0  0  0  0
   -3.2372   -0.9625    0.1058 H   0  0  0  0  0  0  0  0  0  0  0  0
   -1.0447   -1.4643    1.2878 H   0  0  0  0  0  0  0  0  0  0  0  0
    1.3303   -2.0889    0.8126 H   0  0  0  0  0  0  0  0  0  0  0  0
    1.9076   -1.9763   -0.8590 H   0  0  0  0  0  0  0  0  0  0  0  0
  1  2  2  3
  2  3  1  0
  3  4  1  0
  4  5  1  0
  5  6  1  0
  6  7  1  0
  7  8  1  0
  8  9  1  0
  9  1  1  0
  7  5  1  0
  1 10  1  0
  2 11  1  0
  3 12  1  0
  3 13  1  0
  5 14  1  0
  6 15  1  0
  6 16  1  0
  7 17  1  0
  9 18  1  0
  9 19  1  0
M  END
