
     RDKit          3D

 17 19  0  0  0  0  0  0  0  0999 V2000
   -1.8581    0.5087    0.6490 C   0  0  0  0  0  0  0  0  0  0  0  0
   -1.8768   -0.2919   -0.4269 C   0  0  0  0  0  0  0  0  0  0  0  0
   -0.4638   -0.5634   -0.6802 C   0  0  0  0  0  0  0  0  0  0  0  0
    0.1505    0.8287   -0.4680 C   0  0  0  0  0  0  0  0  0  0  0  0
    1.5083    0.8303   -0.5992 O   0  0  0  0  0  0  0  0  0  0  0  0
    2.1752   -0.1257    0.1197 C   0  0  0  0  0  0  0  0  0  0  0  0
    1.3978   -1.0289    0.7723 O   0  0  0  0  0  0  0  0  0  0  0  0
    0.0542   -0.8114    0.7432 C   0  0  0  0  0  0  0  0  0  0  0  0
   -0.3990    0.6306    0.9293 C   0  0  0  0  0  0  0  0  0  0  0  0
   -2.6668    0.9689    1.2016 H   0  0  0  0  0  0  0  0  0  0  0  0
   -2.7143   -0.6683   -0.9977 H   0  0  0  0  0  0  0  0  0  0  0  0
   -0.1132   -1.1595   -1.4617 H   0  0  0  0  0  0  0  0  0  0  0  0
   -0.3427    1.5684   -1.0853 H   0  0  0  0  0  0  0  0  0  0  0  0
    2.8211   -0.6985   -0.6070 H   0  0  0  0  0  0  0  0  0  0  0  0
    2.8760    0.3744    0.8205 H   0  0  0  0  0  0  0  0  0  0  0  0
   -0.5041   -1.5582    1.3116 H   0  0  0  0  0  0  0  0  0  0  0  0
   -0.0441    1.1958    1.7344 H   0  0  0  0  0  0  0  0  0  0  0  0
  1  2  2  0
  2  3  1  0
  3  4  1  0
  4  5  1  0
  5  6  1  0
  6  7  1  0
  7  8  1  0
  8  9  1  0
  9  1  1  0
  8  3  1  0
  9  4  1  0
  1 10  1  0
  2 11  1  0
  3 12  1  0
  4 13  1  0
  6 14  1  0
  6 15  1  0
  8 16  1  0
  9 17  1  0
M  END
