
     RDKit          3D

 23 23  0  0  0  0  0  0  0  0999 V2000
    0.2931    1.8693    0.0405 C   0  0  0  0  0  0  0  0  0  0  0  0
   -1.0190    1.7291    0.0848 C   0  0  0  0  0  0  0  0  0  0  0  0
   -1.7737    0.6736   -0.6122 C   0  0  0  0  0  0  0  0  0  0  0  0
   -1.9302   -0.4807    0.3877 C   0  0  0  0  0  0  0  0  0  0  0  0
   -0.6820   -0.6459    1.0292 O   0  0  0  0  0  0  0  0  0  0  0  0
    0.0212   -1.7166    0.5429 C   0  0  0  0  0  0  0  0  0  0  0  0
    1.3716   -1.4101    0.0120 C   0  0  0  0  0  0  0  0  0  0  0  0
    1.8420   -0.0111    0.2142 C   0  0  0  0  0  0  0  0  0  0  0  0
    1.2144    0.9915   -0.7141 C   0  0  0  0  0  0  0  0  0  0  0  0
    0.7306    2.7014    0.6079 H   0  0  0  0  0  0  0  0  0  0  0  0
   -1.6049    2.4494    0.6849 H   0  0  0  0  0  0  0  0  0  0  0  0
   -1.2874    0.2825   -1.5162 H   0  0  0  0  0  0  0  0  0  0  0  0
   -2.7881    1.0200   -0.8386 H   0  0  0  0  0  0  0  0  0  0  0  0
   -2.6653   -0.1011    1.1383 H   0  0  0  0  0  0  0  0  0  0  0  0
   -2.2772   -1.3984   -0.0909 H   0  0  0  0  0  0  0  0  0  0  0  0
    0.0755   -2.4747    1.3785 H   0  0  0  0  0  0  0  0  0  0  0  0
   -0.5437   -2.2644   -0.2683 H   0  0  0  0  0  0  0  0  0  0  0  0
    1.4804   -1.6496   -1.0732 H   0  0  0  0  0  0  0  0  0  0  0  0
    2.1242   -2.0795    0.5211 H   0  0  0  0  0  0  0  0  0  0  0  0
    1.7528    0.3569    1.2416 H   0  0  0  0  0  0  0  0  0  0  0  0
    2.9424   -0.0088   -0.0239 H   0  0  0  0  0  0  0  0  0  0  0  0
    1.9832    1.6800   -1.1684 H   0  0  0  0  0  0  0  0  0  0  0  0
    0.7398    0.4875   -1.5777 H   0  0  0  0  0  0  0  0  0  0  0  0
  1  2  2  3
  2  3  1  0
  3  4  1  0
  4  5  1  0
  5  6  1  0
  6  7  1  0
  7  8  1  0
  8  9  1  0
  9  1  1  0
  1 10  1  0
  2 11  1  0
  3 12  1  0
  3 13  1  0
  4 14  1  0
  4 15  1  0
  6 16  1  0
  6 17  1  0
  7 18  1  0
  7 19  1  0
  8 20  1  0
  8 21  1  0
  9 22  1  0
  9 23  1  0
M  END
