
     RDKit          3D

 19 21  0  0  0  0  0  0  0  0999 V2000
   -0.4822   -1.2726    0.7434 C   0  0  0  0  0  0  0  0  0  0  0  0
   -1.6272   -0.6100    0.8377 C   0  0  0  0  0  0  0  0  0  0  0  0
   -1.7202    0.2649   -0.3052 C   0  0  0  0  0  0  0  0  0  0  0  0
   -1.2219    1.5325   -0.6453 C   0  0  0  0  0  0  0  0  0  0  0  0
   -0.1983    0.6458   -0.3655 C   0  0  0  0  0  0  0  0  0  0  0  0
    0.4447    0.8332    0.8923 O   0  0  0  0  0  0  0  0  0  0  0  0
    1.7801    0.5884    0.4954 C   0  0  0  0  0  0  0  0  0  0  0  0
    1.6692   -0.7312   -0.2722 C   0  0  0  0  0  0  0  0  0  0  0  0
    0.1789   -0.7774   -0.5299 C   0  0  0  0  0  0  0  0  0  0  0  0
   -0.1302   -1.9973    1.4378 H   0  0  0  0  0  0  0  0  0  0  0  0
   -2.3778   -0.7022    1.6375 H   0  0  0  0  0  0  0  0  0  0  0  0
   -2.0838   -0.3518   -1.1960 H   0  0  0  0  0  0  0  0  0  0  0  0
   -1.3523    1.9244   -1.6945 H   0  0  0  0  0  0  0  0  0  0  0  0
   -1.4554    2.3852    0.0628 H   0  0  0  0  0  0  0  0  0  0  0  0
    2.0365    1.3517   -0.2615 H   0  0  0  0  0  0  0  0  0  0  0  0
    2.4639    0.5274    1.3411 H   0  0  0  0  0  0  0  0  0  0  0  0
    2.2739   -0.7416   -1.1795 H   0  0  0  0  0  0  0  0  0  0  0  0
    1.9367   -1.5723    0.4177 H   0  0  0  0  0  0  0  0  0  0  0  0
   -0.1347   -1.2971   -1.4162 H   0  0  0  0  0  0  0  0  0  0  0  0
  1  2  2  0
  2  3  1  0
  3  4  1  0
  4  5  1  0
  5  6  1  0
  6  7  1  0
  7  8  1  0
  8  9  1  0
  9  1  1  0
  5  3  1  0
  9  5  1  0
  1 10  1  0
  2 11  1  0
  3 12  1  0
  4 13  1  0
  4 14  1  0
  7 15  1  0
  7 16  1  0
  8 17  1  0
  8 18  1  0
  9 19  1  0
M  END
