
     RDKit          3D

 21 23  0  0  0  0  0  0  0  0999 V2000
    1.6084   -0.8667    0.3985 C   0  0  0  0  0  0  0  0  0  0  0  0
    0.6960   -1.6637   -0.1563 C   0  0  0  0  0  0  0  0  0  0  0  0
   -0.7349   -1.4318   -0.4215 C   0  0  0  0  0  0  0  0  0  0  0  0
   -0.9641   -0.2950   -1.4322 C   0  0  0  0  0  0  0  0  0  0  0  0
   -0.8044    0.6285   -0.3276 C   0  0  0  0  0  0  0  0  0  0  0  0
   -1.1849   -0.4098    0.6404 C   0  0  0  0  0  0  0  0  0  0  0  0
   -0.6087    2.0030   -0.1796 C   0  0  0  0  0  0  0  0  0  0  0  0
    0.5624    1.1746   -0.3071 C   0  0  0  0  0  0  0  0  0  0  0  0
    1.3908    0.5861    0.7721 C   0  0  0  0  0  0  0  0  0  0  0  0
    2.5882   -1.2458    0.6140 H   0  0  0  0  0  0  0  0  0  0  0  0
    1.0757   -2.6306   -0.4549 H   0  0  0  0  0  0  0  0  0  0  0  0
   -1.3733   -2.2975   -0.5323 H   0  0  0  0  0  0  0  0  0  0  0  0
   -0.1872   -0.2836   -2.2489 H   0  0  0  0  0  0  0  0  0  0  0  0
   -1.9769   -0.4291   -1.8868 H   0  0  0  0  0  0  0  0  0  0  0  0
   -0.6133   -0.5051    1.5714 H   0  0  0  0  0  0  0  0  0  0  0  0
   -2.2795   -0.4967    0.7473 H   0  0  0  0  0  0  0  0  0  0  0  0
   -0.8753    2.4895    0.8033 H   0  0  0  0  0  0  0  0  0  0  0  0
   -0.8406    2.7108   -1.0206 H   0  0  0  0  0  0  0  0  0  0  0  0
    1.0969    1.1878   -1.3053 H   0  0  0  0  0  0  0  0  0  0  0  0
    2.4066    1.0753    0.7239 H   0  0  0  0  0  0  0  0  0  0  0  0
    1.0182    0.6996    1.7864 H   0  0  0  0  0  0  0  0  0  0  0  0
  1  2  2  0
  2  3  1  0
  3  4  1  0
  4  5  1  0
  5  6  1  0
  5  7  1  0
  7  8  1  0
  8  9  1  0
  9  1  1  0
  6  3  1  0
  8  5  1  0
  1 10  1  0
  2 11  1  0
  3 12  1  0
  4 13  1  0
  4 14  1  0
  6 15  1  0
  6 16  1  0
  7 17  1  0
  7 18  1  0
  8 19  1  0
  9 20  1  0
  9 21  1  0
M  END
