
     RDKit          3D

 19 21  0  0  0  0  0  0  0  0999 V2000
    1.2952   -0.7344   -0.9997 C   0  0  0  0  0  0  0  0  0  0  0  0
    0.0652   -0.7105   -0.5678 C   0  0  0  0  0  0  0  0  0  0  0  0
   -1.3806   -0.9841   -0.5835 C   0  0  0  0  0  0  0  0  0  0  0  0
   -1.9486    0.4371   -0.4973 C   0  0  0  0  0  0  0  0  0  0  0  0
   -1.3439    0.2821    0.8518 C   0  0  0  0  0  0  0  0  0  0  0  0
   -1.8095   -1.0825    0.7348 O   0  0  0  0  0  0  0  0  0  0  0  0
    0.0843    0.0056    0.8006 C   0  0  0  0  0  0  0  0  0  0  0  0
    1.1200    1.0037    0.5399 C   0  0  0  0  0  0  0  0  0  0  0  0
    2.1850   -0.0007   -0.0291 C   0  0  0  0  0  0  0  0  0  0  0  0
    1.5814   -1.2225   -1.9244 H   0  0  0  0  0  0  0  0  0  0  0  0
   -1.7846   -1.6329   -1.3173 H   0  0  0  0  0  0  0  0  0  0  0  0
   -3.0334    0.3884   -0.5016 H   0  0  0  0  0  0  0  0  0  0  0  0
   -1.5189    1.1511   -1.1885 H   0  0  0  0  0  0  0  0  0  0  0  0
   -1.7916    0.8128    1.6886 H   0  0  0  0  0  0  0  0  0  0  0  0
    0.4307   -0.8015    1.5002 H   0  0  0  0  0  0  0  0  0  0  0  0
    0.8624    1.6789   -0.2689 H   0  0  0  0  0  0  0  0  0  0  0  0
    1.5444    1.5246    1.4120 H   0  0  0  0  0  0  0  0  0  0  0  0
    2.4330   -0.6364    0.8415 H   0  0  0  0  0  0  0  0  0  0  0  0
    3.0096    0.5211   -0.4914 H   0  0  0  0  0  0  0  0  0  0  0  0
  1  2  2  0
  2  3  1  0
  3  4  1  0
  4  5  1  0
  5  6  1  0
  5  7  1  0
  7  8  1  0
  8  9  1  0
  9  1  1  0
  7  2  1  0
  6  3  1  0
  1 10  1  0
  3 11  1  0
  4 12  1  0
  4 13  1  0
  5 14  1  0
  7 15  1  0
  8 16  1  0
  8 17  1  0
  9 18  1  0
  9 19  1  0
M  END
