
     RDKit          3D

 19 21  0  0  0  0  0  0  0  0999 V2000
    0.2486   -0.5931    1.1244 C   0  0  0  0  0  0  0  0  0  0  0  0
   -0.9721   -0.2451    0.8225 C   0  0  0  0  0  0  0  0  0  0  0  0
   -2.4061    0.0612    0.6697 C   0  0  0  0  0  0  0  0  0  0  0  0
   -2.1462   -0.2075   -0.8304 C   0  0  0  0  0  0  0  0  0  0  0  0
   -0.8249    0.4515   -0.5248 C   0  0  0  0  0  0  0  0  0  0  0  0
    0.3172   -0.1171   -1.0676 O   0  0  0  0  0  0  0  0  0  0  0  0
    1.1553   -0.1912    0.0457 C   0  0  0  0  0  0  0  0  0  0  0  0
    2.1900    0.7995    0.3244 C   0  0  0  0  0  0  0  0  0  0  0  0
    2.5486   -0.6244   -0.0566 C   0  0  0  0  0  0  0  0  0  0  0  0
    0.5556   -1.1012    2.0298 H   0  0  0  0  0  0  0  0  0  0  0  0
   -3.1178   -0.6311    1.1192 H   0  0  0  0  0  0  0  0  0  0  0  0
   -2.6080    1.1498    0.8215 H   0  0  0  0  0  0  0  0  0  0  0  0
   -2.8194    0.3210   -1.4973 H   0  0  0  0  0  0  0  0  0  0  0  0
   -2.0588   -1.3034   -0.9544 H   0  0  0  0  0  0  0  0  0  0  0  0
   -0.8651    1.5361   -0.4609 H   0  0  0  0  0  0  0  0  0  0  0  0
    2.3677    1.0982    1.3942 H   0  0  0  0  0  0  0  0  0  0  0  0
    2.4063    1.6178   -0.3985 H   0  0  0  0  0  0  0  0  0  0  0  0
    3.0117   -0.8047   -1.0437 H   0  0  0  0  0  0  0  0  0  0  0  0
    3.0173   -1.2163    0.7555 H   0  0  0  0  0  0  0  0  0  0  0  0
  1  2  2  0
  2  3  1  0
  3  4  1  0
  4  5  1  0
  5  6  1  0
  6  7  1  0
  7  8  1  0
  8  9  1  0
  7  1  1  0
  5  2  1  0
  9  7  1  0
  1 10  1  0
  3 11  1  0
  3 12  1  0
  4 13  1  0
  4 14  1  0
  5 15  1  0
  8 16  1  0
  8 17  1  0
  9 18  1  0
  9 19  1  0
M  END
