
     RDKit          3D

 17 19  0  0  0  0  0  0  0  0999 V2000
    1.8143   -0.4587    0.0800 C   0  0  0  0  0  0  0  0  0  0  0  0
    1.7670    0.7707   -0.4282 C   0  0  0  0  0  0  0  0  0  0  0  0
    0.3788    1.2075   -0.7427 C   0  0  0  0  0  0  0  0  0  0  0  0
   -0.2368    1.3156    0.5319 O   0  0  0  0  0  0  0  0  0  0  0  0
   -1.4199    0.6917    0.2817 C   0  0  0  0  0  0  0  0  0  0  0  0
   -1.8976   -0.6220    0.4203 C   0  0  0  0  0  0  0  0  0  0  0  0
   -0.6762   -0.5923   -0.2824 C   0  0  0  0  0  0  0  0  0  0  0  0
    0.5399   -1.0608    0.5305 C   0  0  0  0  0  0  0  0  0  0  0  0
   -0.1980    0.0584   -1.3512 O   0  0  0  0  0  0  0  0  0  0  0  0
    2.7605   -0.9885    0.1551 H   0  0  0  0  0  0  0  0  0  0  0  0
    2.6232    1.3913   -0.5993 H   0  0  0  0  0  0  0  0  0  0  0  0
    0.2969    2.0967   -1.3401 H   0  0  0  0  0  0  0  0  0  0  0  0
   -1.9575    1.3128   -0.5055 H   0  0  0  0  0  0  0  0  0  0  0  0
   -1.9491   -1.0712    1.4456 H   0  0  0  0  0  0  0  0  0  0  0  0
   -2.8177   -0.9470   -0.1470 H   0  0  0  0  0  0  0  0  0  0  0  0
    0.6118   -2.1555    0.3319 H   0  0  0  0  0  0  0  0  0  0  0  0
    0.3605   -0.9488    1.6194 H   0  0  0  0  0  0  0  0  0  0  0  0
  1  2  2  0
  2  3  1  0
  3  4  1  0
  4  5  1  0
  5  6  1  0
  6  7  1  0
  7  8  1  0
  7  9  1  0
  8  1  1  0
  9  3  1  0
  7  5  1  0
  1 10  1  0
  2 11  1  0
  3 12  1  0
  5 13  1  0
  6 14  1  0
  6 15  1  0
  8 16  1  0
  8 17  1  0
M  END
