
     RDKit          3D

 19 20  0  0  0  0  0  0  0  0999 V2000
    1.6995    1.2817    0.1723 C   0  0  0  0  0  0  0  0  0  0  0  0
    2.2707    0.0931    0.1118 C   0  0  0  0  0  0  0  0  0  0  0  0
    1.6269   -1.2218    0.0075 C   0  0  0  0  0  0  0  0  0  0  0  0
    0.4432   -1.1487   -0.7185 O   0  0  0  0  0  0  0  0  0  0  0  0
   -0.6124   -0.7549    0.0949 C   0  0  0  0  0  0  0  0  0  0  0  0
   -1.9121   -0.7196   -0.6814 C   0  0  0  0  0  0  0  0  0  0  0  0
   -2.1753    0.5711    0.0876 C   0  0  0  0  0  0  0  0  0  0  0  0
   -0.7176    0.7495    0.1184 C   0  0  0  0  0  0  0  0  0  0  0  0
    0.2551    1.6237    0.1520 C   0  0  0  0  0  0  0  0  0  0  0  0
    2.4001    2.1022    0.2465 H   0  0  0  0  0  0  0  0  0  0  0  0
    3.3673    0.0476    0.1409 H   0  0  0  0  0  0  0  0  0  0  0  0
    1.3774   -1.6524    1.0217 H   0  0  0  0  0  0  0  0  0  0  0  0
    2.3137   -1.9573   -0.5023 H   0  0  0  0  0  0  0  0  0  0  0  0
   -0.6557   -1.2246    1.0790 H   0  0  0  0  0  0  0  0  0  0  0  0
   -2.6056   -1.5501   -0.4125 H   0  0  0  0  0  0  0  0  0  0  0  0
   -1.7774   -0.5282   -1.7457 H   0  0  0  0  0  0  0  0  0  0  0  0
   -2.7609    1.3204   -0.4484 H   0  0  0  0  0  0  0  0  0  0  0  0
   -2.5652    0.2900    1.1096 H   0  0  0  0  0  0  0  0  0  0  0  0
    0.0283    2.6785    0.1667 H   0  0  0  0  0  0  0  0  0  0  0  0
  1  2  2  0
  2  3  1  0
  3  4  1  0
  4  5  1  0
  5  6  1  0
  6  7  1  0
  7  8  1  0
  8  9  2  0
  9  1  1  0
  8  5  1  0
  1 10  1  0
  2 11  1  0
  3 12  1  0
  3 13  1  0
  5 14  1  0
  6 15  1  0
  6 16  1  0
  7 17  1  0
  7 18  1  0
  9 19  1  0
M  END
