
     RDKit          3D

 21 22  0  0  0  0  0  0  0  0999 V2000
   -0.3897    1.4092    0.2554 C   0  0  0  0  0  0  0  0  0  0  0  0
    0.7309    0.7637    0.0004 C   0  0  0  0  0  0  0  0  0  0  0  0
    2.2066    0.6828    0.2321 C   0  0  0  0  0  0  0  0  0  0  0  0
    2.0303   -0.8361    0.0606 C   0  0  0  0  0  0  0  0  0  0  0  0
    0.9255   -0.4547   -0.8605 C   0  0  0  0  0  0  0  0  0  0  0  0
   -0.1720   -1.2412   -0.9461 O   0  0  0  0  0  0  0  0  0  0  0  0
   -0.9791   -1.2918    0.1516 C   0  0  0  0  0  0  0  0  0  0  0  0
   -2.1053   -0.3099    0.1639 C   0  0  0  0  0  0  0  0  0  0  0  0
   -1.7385    1.0674   -0.2632 C   0  0  0  0  0  0  0  0  0  0  0  0
   -0.2669    2.2617    0.9088 H   0  0  0  0  0  0  0  0  0  0  0  0
    2.7269    1.1112   -0.6470 H   0  0  0  0  0  0  0  0  0  0  0  0
    2.5467    0.9936    1.2178 H   0  0  0  0  0  0  0  0  0  0  0  0
    2.9468   -1.2590   -0.4002 H   0  0  0  0  0  0  0  0  0  0  0  0
    1.7541   -1.2528    1.0424 H   0  0  0  0  0  0  0  0  0  0  0  0
    1.3049   -0.1478   -1.8402 H   0  0  0  0  0  0  0  0  0  0  0  0
   -0.4052   -1.2421    1.1222 H   0  0  0  0  0  0  0  0  0  0  0  0
   -1.4474   -2.3207    0.1728 H   0  0  0  0  0  0  0  0  0  0  0  0
   -3.0058   -0.6743   -0.4116 H   0  0  0  0  0  0  0  0  0  0  0  0
   -2.4827   -0.2372    1.2260 H   0  0  0  0  0  0  0  0  0  0  0  0
   -1.7234    1.1897   -1.3771 H   0  0  0  0  0  0  0  0  0  0  0  0
   -2.4569    1.7884    0.1918 H   0  0  0  0  0  0  0  0  0  0  0  0
  1  2  2  0
  2  3  1  0
  3  4  1  0
  4  5  1  0
  5  6  1  0
  6  7  1  0
  7  8  1  0
  8  9  1  0
  9  1  1  0
  5  2  1  0
  1 10  1  0
  3 11  1  0
  3 12  1  0
  4 13  1  0
  4 14  1  0
  5 15  1  0
  7 16  1  0
  7 17  1  0
  8 18  1  0
  8 19  1  0
  9 20  1  0
  9 21  1  0
M  END
