
     RDKit          3D

 21 22  0  0  0  0  0  0  0  0999 V2000
   -1.8702    0.9405   -1.0517 C   0  0  0  0  0  0  0  0  0  0  0  0
   -0.5928    0.5793   -1.0637 C   0  0  0  0  0  0  0  0  0  0  0  0
   -0.2845   -0.0439    0.2420 C   0  0  0  0  0  0  0  0  0  0  0  0
    0.8110   -1.0678    0.1716 C   0  0  0  0  0  0  0  0  0  0  0  0
    2.0815   -0.4698   -0.3184 C   0  0  0  0  0  0  0  0  0  0  0  0
    2.8008    0.6028    0.3101 C   0  0  0  0  0  0  0  0  0  0  0  0
    3.2140   -0.8172    0.4873 O   0  0  0  0  0  0  0  0  0  0  0  0
   -1.6249   -0.6531    0.6001 C   0  0  0  0  0  0  0  0  0  0  0  0
   -2.4909    0.5765    0.2710 C   0  0  0  0  0  0  0  0  0  0  0  0
   -2.4232    1.4273   -1.8527 H   0  0  0  0  0  0  0  0  0  0  0  0
    0.0670    0.7386   -1.9147 H   0  0  0  0  0  0  0  0  0  0  0  0
   -0.0566    0.7255    1.0040 H   0  0  0  0  0  0  0  0  0  0  0  0
    0.9480   -1.4534    1.1998 H   0  0  0  0  0  0  0  0  0  0  0  0
    0.4646   -1.9182   -0.4520 H   0  0  0  0  0  0  0  0  0  0  0  0
    2.2808   -0.6703   -1.3953 H   0  0  0  0  0  0  0  0  0  0  0  0
    2.5517    1.0738    1.2635 H   0  0  0  0  0  0  0  0  0  0  0  0
    3.5212    1.1776   -0.2976 H   0  0  0  0  0  0  0  0  0  0  0  0
   -1.7141   -0.9319    1.6487 H   0  0  0  0  0  0  0  0  0  0  0  0
   -1.9152   -1.4571   -0.1064 H   0  0  0  0  0  0  0  0  0  0  0  0
   -3.5429    0.3333    0.1957 H   0  0  0  0  0  0  0  0  0  0  0  0
   -2.2253    1.3076    1.0586 H   0  0  0  0  0  0  0  0  0  0  0  0
  1  2  2  0
  2  3  1  0
  3  4  1  0
  4  5  1  0
  5  6  1  0
  6  7  1  0
  3  8  1  0
  8  9  1  0
  9  1  1  0
  7  5  1  0
  1 10  1  0
  2 11  1  0
  3 12  1  0
  4 13  1  0
  4 14  1  0
  5 15  1  0
  6 16  1  0
  6 17  1  0
  8 18  1  0
  8 19  1  0
  9 20  1  0
  9 21  1  0
M  END
