
     RDKit          3D

 21 22  0  0  0  0  0  0  0  0999 V2000
    1.9101    1.0739   -0.3070 C   0  0  0  0  0  0  0  0  0  0  0  0
    2.2946   -0.1800   -0.1226 C   0  0  0  0  0  0  0  0  0  0  0  0
    1.3230   -1.2824    0.1864 C   0  0  0  0  0  0  0  0  0  0  0  0
   -0.0113   -0.7080    0.5883 C   0  0  0  0  0  0  0  0  0  0  0  0
   -1.0534   -1.5777    0.5088 O   0  0  0  0  0  0  0  0  0  0  0  0
   -2.2102   -0.9021    0.2163 C   0  0  0  0  0  0  0  0  0  0  0  0
   -1.8237    0.5290   -0.1531 C   0  0  0  0  0  0  0  0  0  0  0  0
   -0.3715    0.3256   -0.4894 C   0  0  0  0  0  0  0  0  0  0  0  0
    0.4890    1.5205   -0.2287 C   0  0  0  0  0  0  0  0  0  0  0  0
    2.6714    1.8135   -0.5265 H   0  0  0  0  0  0  0  0  0  0  0  0
    3.3397   -0.4753   -0.1862 H   0  0  0  0  0  0  0  0  0  0  0  0
    1.2124   -1.9716   -0.6626 H   0  0  0  0  0  0  0  0  0  0  0  0
    1.7258   -1.8118    1.0927 H   0  0  0  0  0  0  0  0  0  0  0  0
    0.0507   -0.1938    1.5585 H   0  0  0  0  0  0  0  0  0  0  0  0
   -2.9652   -0.9176    1.0272 H   0  0  0  0  0  0  0  0  0  0  0  0
   -2.6359   -1.3460   -0.7207 H   0  0  0  0  0  0  0  0  0  0  0  0
   -1.8815    1.1545    0.7654 H   0  0  0  0  0  0  0  0  0  0  0  0
   -2.4199    0.9096   -0.9894 H   0  0  0  0  0  0  0  0  0  0  0  0
   -0.2338   -0.1153   -1.4874 H   0  0  0  0  0  0  0  0  0  0  0  0
    0.2633    2.3496   -0.9194 H   0  0  0  0  0  0  0  0  0  0  0  0
    0.3264    1.8055    0.8495 H   0  0  0  0  0  0  0  0  0  0  0  0
  1  2  2  0
  2  3  1  0
  3  4  1  0
  4  5  1  0
  5  6  1  0
  6  7  1  0
  7  8  1  0
  8  9  1  0
  9  1  1  0
  8  4  1  0
  1 10  1  0
  2 11  1  0
  3 12  1  0
  3 13  1  0
  4 14  1  0
  6 15  1  0
  6 16  1  0
  7 17  1  0
  7 18  1  0
  8 19  1  0
  9 20  1  0
  9 21  1  0
M  END
