
     RDKit          3D

 21 22  0  0  0  0  0  0  0  0999 V2000
    1.0567   -1.1595   -0.6872 C   0  0  0  0  0  0  0  0  0  0  0  0
   -0.1402   -0.6641   -0.3984 C   0  0  0  0  0  0  0  0  0  0  0  0
   -1.5398   -1.0343   -0.5783 C   0  0  0  0  0  0  0  0  0  0  0  0
   -2.2352    0.3090   -0.5379 C   0  0  0  0  0  0  0  0  0  0  0  0
   -1.5474    0.9622    0.6493 C   0  0  0  0  0  0  0  0  0  0  0  0
   -0.1090    0.6541    0.3210 C   0  0  0  0  0  0  0  0  0  0  0  0
    0.7083    0.4940    1.4076 O   0  0  0  0  0  0  0  0  0  0  0  0
    2.0174    0.4259    0.9771 C   0  0  0  0  0  0  0  0  0  0  0  0
    2.2433   -0.3635   -0.2714 C   0  0  0  0  0  0  0  0  0  0  0  0
    1.1232   -2.0870   -1.1941 H   0  0  0  0  0  0  0  0  0  0  0  0
   -1.9336   -1.6053    0.3087 H   0  0  0  0  0  0  0  0  0  0  0  0
   -1.7458   -1.5759   -1.5263 H   0  0  0  0  0  0  0  0  0  0  0  0
   -3.3242    0.2132   -0.3866 H   0  0  0  0  0  0  0  0  0  0  0  0
   -1.9487    0.8475   -1.4499 H   0  0  0  0  0  0  0  0  0  0  0  0
   -1.8235    0.4015    1.5605 H   0  0  0  0  0  0  0  0  0  0  0  0
   -1.7461    2.0391    0.7166 H   0  0  0  0  0  0  0  0  0  0  0  0
    0.3046    1.3766   -0.4347 H   0  0  0  0  0  0  0  0  0  0  0  0
    2.6354    0.0134    1.8241 H   0  0  0  0  0  0  0  0  0  0  0  0
    2.3783    1.4930    0.8838 H   0  0  0  0  0  0  0  0  0  0  0  0
    2.5338    0.3292   -1.0754 H   0  0  0  0  0  0  0  0  0  0  0  0
    3.0926   -1.0690   -0.1085 H   0  0  0  0  0  0  0  0  0  0  0  0
  1  2  2  0
  2  3  1  0
  3  4  1  0
  4  5  1  0
  5  6  1  0
  6  7  1  0
  7  8  1  0
  8  9  1  0
  9  1  1  0
  6  2  1  0
  1 10  1  0
  3 11  1  0
  3 12  1  0
  4 13  1  0
  4 14  1  0
  5 15  1  0
  5 16  1  0
  6 17  1  0
  8 18  1  0
  8 19  1  0
  9 20  1  0
  9 21  1  0
M  END
