
     RDKit          3D

 18 19  0  0  0  0  0  0  0  0999 V2000
   -0.3620    1.4490   -0.2901 C   0  0  0  0  0  0  0  0  0  0  0  0
    0.9474    1.2445   -0.2277 C   0  0  0  0  0  0  0  0  0  0  0  0
    1.6982    0.0290    0.1864 C   0  0  0  0  0  0  0  0  0  0  0  0
    0.7948   -1.1828    0.1646 C   0  0  0  0  0  0  0  0  0  0  0  0
   -0.3464   -1.0501   -0.7901 C   0  0  0  0  0  0  0  0  0  0  0  0
   -1.1377   -0.7504    0.4660 C   0  0  0  0  0  0  0  0  0  0  0  0
   -1.4548    0.7229    0.4571 C   0  0  0  0  0  0  0  0  0  0  0  0
   -0.0652   -1.0793    1.2638 O   0  0  0  0  0  0  0  0  0  0  0  0
   -0.6865    2.2444   -0.9693 H   0  0  0  0  0  0  0  0  0  0  0  0
    1.5972    2.0617   -0.5131 H   0  0  0  0  0  0  0  0  0  0  0  0
    2.6010   -0.1210   -0.4120 H   0  0  0  0  0  0  0  0  0  0  0  0
    1.9645    0.1894    1.2704 H   0  0  0  0  0  0  0  0  0  0  0  0
    1.3367   -2.1475    0.1445 H   0  0  0  0  0  0  0  0  0  0  0  0
   -0.6793   -2.0201   -1.2430 H   0  0  0  0  0  0  0  0  0  0  0  0
   -0.3087   -0.2261   -1.5128 H   0  0  0  0  0  0  0  0  0  0  0  0
   -2.0268   -1.3749    0.6332 H   0  0  0  0  0  0  0  0  0  0  0  0
   -1.4951    1.1385    1.4772 H   0  0  0  0  0  0  0  0  0  0  0  0
   -2.3773    0.8727   -0.1049 H   0  0  0  0  0  0  0  0  0  0  0  0
  1  2  2  0
  2  3  1  0
  3  4  1  0
  4  5  1  0
  5  6  1  0
  6  7  1  0
  6  8  1  0
  7  1  1  0
  8  4  1  0
  1  9  1  0
  2 10  1  0
  3 11  1  0
  3 12  1  0
  4 13  1  0
  5 14  1  0
  5 15  1  0
  6 16  1  0
  7 17  1  0
  7 18  1  0
M  END
