
     RDKit          3D

 17 19  0  0  0  0  0  0  0  0999 V2000
   -0.9191   -0.9908   -0.7868 C   0  0  0  0  0  0  0  0  0  0  0  0
    0.2770   -1.0200   -0.2385 C   0  0  0  0  0  0  0  0  0  0  0  0
    1.6326   -1.4568    0.1562 C   0  0  0  0  0  0  0  0  0  0  0  0
    1.6335   -0.5401    1.2440 O   0  0  0  0  0  0  0  0  0  0  0  0
    0.6615    0.1237    0.5798 C   0  0  0  0  0  0  0  0  0  0  0  0
    0.7185    1.4769    0.0502 C   0  0  0  0  0  0  0  0  0  0  0  0
   -0.3615    1.0059    1.0092 C   0  0  0  0  0  0  0  0  0  0  0  0
   -1.6476    0.8479    0.5689 O   0  0  0  0  0  0  0  0  0  0  0  0
   -1.8210    0.1343   -0.5801 C   0  0  0  0  0  0  0  0  0  0  0  0
   -1.2076   -1.8262   -1.3927 H   0  0  0  0  0  0  0  0  0  0  0  0
    2.4423   -1.2061   -0.5391 H   0  0  0  0  0  0  0  0  0  0  0  0
    1.6947   -2.5092    0.4581 H   0  0  0  0  0  0  0  0  0  0  0  0
    0.3826    1.7177   -0.9776 H   0  0  0  0  0  0  0  0  0  0  0  0
    1.5088    2.1653    0.4326 H   0  0  0  0  0  0  0  0  0  0  0  0
   -0.2905    1.4876    2.0103 H   0  0  0  0  0  0  0  0  0  0  0  0
   -2.8712   -0.2773   -0.5611 H   0  0  0  0  0  0  0  0  0  0  0  0
   -1.8331    0.8672   -1.4333 H   0  0  0  0  0  0  0  0  0  0  0  0
  1  2  2  0
  2  3  1  0
  3  4  1  0
  4  5  1  0
  5  6  1  0
  6  7  1  0
  7  8  1  0
  8  9  1  0
  9  1  1  0
  5  2  1  0
  7  5  1  0
  1 10  1  0
  3 11  1  0
  3 12  1  0
  6 13  1  0
  6 14  1  0
  7 15  1  0
  9 16  1  0
  9 17  1  0
M  END
