
     RDKit          3D

 19 21  0  0  0  0  0  0  0  0999 V2000
   -1.1412   -0.3853    1.1225 C   0  0  0  0  0  0  0  0  0  0  0  0
    0.0025    0.0895    1.6290 C   0  0  0  0  0  0  0  0  0  0  0  0
    1.1946    0.3950    0.8441 C   0  0  0  0  0  0  0  0  0  0  0  0
    1.3049   -0.5046   -0.3302 C   0  0  0  0  0  0  0  0  0  0  0  0
    0.0780   -1.2389   -0.7209 C   0  0  0  0  0  0  0  0  0  0  0  0
   -1.1776   -0.4415   -0.3859 C   0  0  0  0  0  0  0  0  0  0  0  0
   -1.0767    0.9971   -0.8177 C   0  0  0  0  0  0  0  0  0  0  0  0
    0.1632    1.3762   -1.2363 O   0  0  0  0  0  0  0  0  0  0  0  0
    1.2262    0.9630   -0.4862 C   0  0  0  0  0  0  0  0  0  0  0  0
   -1.9810   -0.7075    1.7113 H   0  0  0  0  0  0  0  0  0  0  0  0
   -0.0222    0.2372    2.7092 H   0  0  0  0  0  0  0  0  0  0  0  0
    2.1208    0.5486    1.4777 H   0  0  0  0  0  0  0  0  0  0  0  0
    2.2548   -1.0575   -0.4156 H   0  0  0  0  0  0  0  0  0  0  0  0
    0.1166   -1.5635   -1.7569 H   0  0  0  0  0  0  0  0  0  0  0  0
    0.0154   -2.1609   -0.0700 H   0  0  0  0  0  0  0  0  0  0  0  0
   -2.0803   -0.9080   -0.7684 H   0  0  0  0  0  0  0  0  0  0  0  0
   -1.3900    1.7155   -0.0236 H   0  0  0  0  0  0  0  0  0  0  0  0
   -1.7928    1.2077   -1.6664 H   0  0  0  0  0  0  0  0  0  0  0  0
    2.1849    1.4379   -0.8157 H   0  0  0  0  0  0  0  0  0  0  0  0
  1  2  2  0
  2  3  1  0
  3  4  1  0
  4  5  1  0
  5  6  1  0
  6  7  1  0
  7  8  1  0
  8  9  1  0
  6  1  1  0
  9  3  1  0
  9  4  1  0
  1 10  1  0
  2 11  1  0
  3 12  1  0
  4 13  1  0
  5 14  1  0
  5 15  1  0
  6 16  1  0
  7 17  1  0
  7 18  1  0
  9 19  1  0
M  END
