
     RDKit          3D

 19 21  0  0  0  0  0  0  0  0999 V2000
    1.6698   -0.6423    0.8483 C   0  0  0  0  0  0  0  0  0  0  0  0
    0.4300   -0.3150    0.6917 C   0  0  0  0  0  0  0  0  0  0  0  0
   -0.9827   -0.1986    1.0099 C   0  0  0  0  0  0  0  0  0  0  0  0
   -1.5585    1.0297    0.3642 C   0  0  0  0  0  0  0  0  0  0  0  0
   -0.9844    0.3688   -0.9314 C   0  0  0  0  0  0  0  0  0  0  0  0
   -1.5155   -0.8927   -0.2884 C   0  0  0  0  0  0  0  0  0  0  0  0
    0.4385    0.4367   -0.6580 C   0  0  0  0  0  0  0  0  0  0  0  0
    1.3736   -0.2790   -1.3425 O   0  0  0  0  0  0  0  0  0  0  0  0
    2.4395   -0.1740   -0.3723 C   0  0  0  0  0  0  0  0  0  0  0  0
    2.1181   -1.1695    1.7073 H   0  0  0  0  0  0  0  0  0  0  0  0
   -1.3892   -0.5648    1.9162 H   0  0  0  0  0  0  0  0  0  0  0  0
   -2.6650    0.9722    0.3661 H   0  0  0  0  0  0  0  0  0  0  0  0
   -1.0986    1.9863    0.5951 H   0  0  0  0  0  0  0  0  0  0  0  0
   -1.4356    0.7064   -1.8403 H   0  0  0  0  0  0  0  0  0  0  0  0
   -2.6019   -0.9770   -0.2354 H   0  0  0  0  0  0  0  0  0  0  0  0
   -0.9436   -1.8105   -0.5252 H   0  0  0  0  0  0  0  0  0  0  0  0
    0.7905    1.4652   -0.3836 H   0  0  0  0  0  0  0  0  0  0  0  0
    3.2633   -0.8335   -0.6256 H   0  0  0  0  0  0  0  0  0  0  0  0
    2.6518    0.8919   -0.2965 H   0  0  0  0  0  0  0  0  0  0  0  0
  1  2  2  0
  2  3  1  0
  3  4  1  0
  4  5  1  0
  5  6  1  0
  5  7  1  0
  7  8  1  0
  8  9  1  0
  9  1  1  0
  7  2  1  0
  6  3  1  0
  1 10  1  0
  3 11  1  0
  4 12  1  0
  4 13  1  0
  5 14  1  0
  6 15  1  0
  6 16  1  0
  7 17  1  0
  9 18  1  0
  9 19  1  0
M  END
