
     RDKit          3D

 19 20  0  0  0  0  0  0  0  0999 V2000
   -1.5845   -0.8429   -0.5738 C   0  0  0  0  0  0  0  0  0  0  0  0
   -0.3880   -1.3866   -0.3860 C   0  0  0  0  0  0  0  0  0  0  0  0
    0.4661   -0.7586    0.6601 C   0  0  0  0  0  0  0  0  0  0  0  0
    1.7963   -1.1220    0.4637 O   0  0  0  0  0  0  0  0  0  0  0  0
    2.3672   -0.2049   -0.3843 C   0  0  0  0  0  0  0  0  0  0  0  0
    1.3888    0.7183   -0.7553 O   0  0  0  0  0  0  0  0  0  0  0  0
    0.5266    0.7230    0.3595 C   0  0  0  0  0  0  0  0  0  0  0  0
   -0.7992    1.3369    0.0755 C   0  0  0  0  0  0  0  0  0  0  0  0
   -1.9494    0.3445    0.2857 C   0  0  0  0  0  0  0  0  0  0  0  0
   -2.2358   -1.2535   -1.3101 H   0  0  0  0  0  0  0  0  0  0  0  0
   -0.0167   -2.2416   -0.9436 H   0  0  0  0  0  0  0  0  0  0  0  0
    0.1133   -0.9805    1.6795 H   0  0  0  0  0  0  0  0  0  0  0  0
    3.1699    0.3472    0.1723 H   0  0  0  0  0  0  0  0  0  0  0  0
    2.7556   -0.6638   -1.3048 H   0  0  0  0  0  0  0  0  0  0  0  0
    1.0695    1.2758    1.1491 H   0  0  0  0  0  0  0  0  0  0  0  0
   -0.9864    2.2849    0.6261 H   0  0  0  0  0  0  0  0  0  0  0  0
   -0.8364    1.5897   -1.0141 H   0  0  0  0  0  0  0  0  0  0  0  0
   -2.8630    0.7559   -0.1439 H   0  0  0  0  0  0  0  0  0  0  0  0
   -1.9940    0.0783    1.3444 H   0  0  0  0  0  0  0  0  0  0  0  0
  1  2  2  0
  2  3  1  0
  3  4  1  0
  4  5  1  0
  5  6  1  0
  6  7  1  0
  7  8  1  0
  8  9  1  0
  9  1  1  0
  7  3  1  0
  1 10  1  0
  2 11  1  0
  3 12  1  0
  5 13  1  0
  5 14  1  0
  7 15  1  0
  8 16  1  0
  8 17  1  0
  9 18  1  0
  9 19  1  0
M  END
