
     RDKit          3D

 20 21  0  0  0  0  0  0  0  0999 V2000
   -1.1598    0.8535    1.0103 C   0  0  0  0  0  0  0  0  0  0  0  0
   -1.2248   -0.4678    0.9499 C   0  0  0  0  0  0  0  0  0  0  0  0
   -0.8414   -0.9674   -0.3938 C   0  0  0  0  0  0  0  0  0  0  0  0
    0.6239   -1.3966   -0.4141 C   0  0  0  0  0  0  0  0  0  0  0  0
    1.3802   -0.4440    0.4568 C   0  0  0  0  0  0  0  0  0  0  0  0
    1.1038    0.9955    0.1896 C   0  0  0  0  0  0  0  0  0  0  0  0
   -0.3393    1.2814   -0.1561 C   0  0  0  0  0  0  0  0  0  0  0  0
   -0.8518    0.3248   -1.2267 C   0  0  0  0  0  0  0  0  0  0  0  0
   -1.5827    1.5550    1.7208 H   0  0  0  0  0  0  0  0  0  0  0  0
   -1.5192   -1.1068    1.7720 H   0  0  0  0  0  0  0  0  0  0  0  0
   -1.5085   -1.7234   -0.8009 H   0  0  0  0  0  0  0  0  0  0  0  0
    0.7652   -2.4141   -0.0533 H   0  0  0  0  0  0  0  0  0  0  0  0
    0.9365   -1.3370   -1.4857 H   0  0  0  0  0  0  0  0  0  0  0  0
    2.4742   -0.6144    0.2477 H   0  0  0  0  0  0  0  0  0  0  0  0
    1.1582   -0.7308    1.5211 H   0  0  0  0  0  0  0  0  0  0  0  0
    1.8141    1.4547   -0.5413 H   0  0  0  0  0  0  0  0  0  0  0  0
    1.3014    1.5530    1.1523 H   0  0  0  0  0  0  0  0  0  0  0  0
   -0.4517    2.3251   -0.4215 H   0  0  0  0  0  0  0  0  0  0  0  0
   -0.1910    0.2566   -2.0898 H   0  0  0  0  0  0  0  0  0  0  0  0
   -1.8871    0.6027   -1.4375 H   0  0  0  0  0  0  0  0  0  0  0  0
  1  2  2  0
  2  3  1  0
  3  4  1  0
  4  5  1  0
  5  6  1  0
  6  7  1  0
  7  8  1  0
  7  1  1  0
  8  3  1  0
  1  9  1  0
  2 10  1  0
  3 11  1  0
  4 12  1  0
  4 13  1  0
  5 14  1  0
  5 15  1  0
  6 16  1  0
  6 17  1  0
  7 18  1  0
  8 19  1  0
  8 20  1  0
M  END
