
     RDKit          3D

 19 21  0  0  0  0  0  0  0  0999 V2000
    2.0028   -0.1966   -0.2524 C   0  0  0  0  0  0  0  0  0  0  0  0
    1.1610   -1.1501   -0.6015 C   0  0  0  0  0  0  0  0  0  0  0  0
   -0.2173   -1.3911   -0.1994 C   0  0  0  0  0  0  0  0  0  0  0  0
   -1.4988   -0.8786   -0.6223 C   0  0  0  0  0  0  0  0  0  0  0  0
   -2.0336    0.5841   -0.4155 C   0  0  0  0  0  0  0  0  0  0  0  0
   -0.6752    0.9357   -0.0715 C   0  0  0  0  0  0  0  0  0  0  0  0
    0.4458    1.5881    0.1009 C   0  0  0  0  0  0  0  0  0  0  0  0
    1.7278    0.9458    0.6975 C   0  0  0  0  0  0  0  0  0  0  0  0
   -0.7727   -0.4433    0.7083 C   0  0  0  0  0  0  0  0  0  0  0  0
    2.9997   -0.1806   -0.6519 H   0  0  0  0  0  0  0  0  0  0  0  0
    1.5387   -1.9075   -1.3196 H   0  0  0  0  0  0  0  0  0  0  0  0
   -0.2901   -2.4956    0.1819 H   0  0  0  0  0  0  0  0  0  0  0  0
   -2.3947   -1.5485   -0.4050 H   0  0  0  0  0  0  0  0  0  0  0  0
   -2.6999    0.6429    0.4664 H   0  0  0  0  0  0  0  0  0  0  0  0
   -2.5200    0.9910   -1.2956 H   0  0  0  0  0  0  0  0  0  0  0  0
    0.4605    2.5989   -0.1854 H   0  0  0  0  0  0  0  0  0  0  0  0
    2.4969    1.6990    0.5420 H   0  0  0  0  0  0  0  0  0  0  0  0
    1.6061    0.6767    1.7200 H   0  0  0  0  0  0  0  0  0  0  0  0
   -1.3371   -0.4703    1.5970 H   0  0  0  0  0  0  0  0  0  0  0  0
  1  2  2  0
  2  3  1  0
  3  4  1  0
  4  5  1  0
  5  6  1  0
  6  7  2  0
  7  8  1  0
  6  9  1  0
  8  1  1  0
  9  3  1  0
  9  4  1  0
  1 10  1  0
  2 11  1  0
  3 12  1  0
  4 13  1  0
  5 14  1  0
  5 15  1  0
  7 16  1  0
  8 17  1  0
  8 18  1  0
  9 19  1  0
M  END
