
     RDKit          3D

 17 17  0  0  0  0  0  0  0  0999 V2000
    0.8391    1.3142    0.4587 C   0  0  0  0  0  0  0  0  0  0  0  0
   -0.4765    1.4488    0.3446 C   0  0  0  0  0  0  0  0  0  0  0  0
   -1.3521    0.5465   -0.4940 C   0  0  0  0  0  0  0  0  0  0  0  0
   -1.3620   -0.8481    0.0543 C   0  0  0  0  0  0  0  0  0  0  0  0
   -0.0465   -1.4978    0.1610 C   0  0  0  0  0  0  0  0  0  0  0  0
    1.2067   -1.1064    0.0697 C   0  0  0  0  0  0  0  0  0  0  0  0
    1.6746    0.2771   -0.2009 C   0  0  0  0  0  0  0  0  0  0  0  0
    1.3572    2.0224    1.0893 H   0  0  0  0  0  0  0  0  0  0  0  0
   -0.9613    2.2585    0.8870 H   0  0  0  0  0  0  0  0  0  0  0  0
   -0.8299    0.5035   -1.4893 H   0  0  0  0  0  0  0  0  0  0  0  0
   -2.3368    0.9628   -0.6779 H   0  0  0  0  0  0  0  0  0  0  0  0
   -1.8119   -0.7660    1.0840 H   0  0  0  0  0  0  0  0  0  0  0  0
   -2.0265   -1.4921   -0.5674 H   0  0  0  0  0  0  0  0  0  0  0  0
   -0.1291   -2.5881    0.3696 H   0  0  0  0  0  0  0  0  0  0  0  0
    1.9904   -1.8744    0.2063 H   0  0  0  0  0  0  0  0  0  0  0  0
    2.7533    0.4081    0.0147 H   0  0  0  0  0  0  0  0  0  0  0  0
    1.5114    0.4310   -1.3098 H   0  0  0  0  0  0  0  0  0  0  0  0
  1  2  2  0
  2  3  1  0
  3  4  1  0
  4  5  1  0
  5  6  2  0
  6  7  1  0
  7  1  1  0
  1  8  1  0
  2  9  1  0
  3 10  1  0
  3 11  1  0
  4 12  1  0
  4 13  1  0
  5 14  1  0
  6 15  1  0
  7 16  1  0
  7 17  1  0
M  END
