
     RDKit          3D

 12 13  0  0  0  0  0  0  0  0999 V2000
    0.6407    1.1122   -0.2572 C   0  0  0  0  0  0  0  0  0  0  0  0
    1.2812   -0.0497   -0.2651 C   0  0  0  0  0  0  0  0  0  0  0  0
    0.1368   -1.0069   -0.2933 C   0  0  0  0  0  0  0  0  0  0  0  0
   -0.7472   -0.4387    0.7835 C   0  0  0  0  0  0  0  0  0  0  0  0
   -0.7825    0.6458   -0.2734 C   0  0  0  0  0  0  0  0  0  0  0  0
   -0.7269   -0.3931   -1.2049 O   0  0  0  0  0  0  0  0  0  0  0  0
    0.9604    2.1390   -0.2434 H   0  0  0  0  0  0  0  0  0  0  0  0
    2.3271   -0.2949   -0.2551 H   0  0  0  0  0  0  0  0  0  0  0  0
    0.3180   -2.0417   -0.3522 H   0  0  0  0  0  0  0  0  0  0  0  0
   -1.6798   -0.9506    0.9933 H   0  0  0  0  0  0  0  0  0  0  0  0
   -0.1620   -0.0652    1.6610 H   0  0  0  0  0  0  0  0  0  0  0  0
   -1.5658    1.3439   -0.2932 H   0  0  0  0  0  0  0  0  0  0  0  0
  1  2  2  0
  2  3  1  0
  3  4  1  0
  4  5  1  0
  5  6  1  0
  5  1  1  0
  6  3  1  0
  1  7  1  0
  2  8  1  0
  3  9  1  0
  4 10  1  0
  4 11  1  0
  5 12  1  0
M  END
