
     RDKit          3D

 21 23  0  0  0  0  0  0  0  0999 V2000
    1.8928   -0.5885    0.6668 C   0  0  0  0  0  0  0  0  0  0  0  0
    0.7224   -1.1470    0.9805 C   0  0  0  0  0  0  0  0  0  0  0  0
   -0.3684   -0.6714    0.1801 C   0  0  0  0  0  0  0  0  0  0  0  0
   -1.0654   -1.3595   -0.8706 C   0  0  0  0  0  0  0  0  0  0  0  0
   -1.7751   -0.6840    0.2388 C   0  0  0  0  0  0  0  0  0  0  0  0
   -1.7900    0.8458    0.0329 C   0  0  0  0  0  0  0  0  0  0  0  0
   -0.3845    0.8225    0.4237 C   0  0  0  0  0  0  0  0  0  0  0  0
    0.7109    1.3905   -0.3629 C   0  0  0  0  0  0  0  0  0  0  0  0
    1.8480    0.4048   -0.4362 C   0  0  0  0  0  0  0  0  0  0  0  0
    2.8323   -0.8412    1.1852 H   0  0  0  0  0  0  0  0  0  0  0  0
    0.6677   -1.8754    1.7656 H   0  0  0  0  0  0  0  0  0  0  0  0
   -0.9596   -2.4508   -0.9211 H   0  0  0  0  0  0  0  0  0  0  0  0
   -1.0685   -0.8898   -1.8884 H   0  0  0  0  0  0  0  0  0  0  0  0
   -2.4730   -1.1460    0.9125 H   0  0  0  0  0  0  0  0  0  0  0  0
   -2.4771    1.2756    0.8035 H   0  0  0  0  0  0  0  0  0  0  0  0
   -2.0743    1.1449   -0.9782 H   0  0  0  0  0  0  0  0  0  0  0  0
   -0.2555    1.0464    1.5266 H   0  0  0  0  0  0  0  0  0  0  0  0
    0.4280    1.7174   -1.3903 H   0  0  0  0  0  0  0  0  0  0  0  0
    1.1064    2.3215    0.1203 H   0  0  0  0  0  0  0  0  0  0  0  0
    2.8258    0.8857   -0.6197 H   0  0  0  0  0  0  0  0  0  0  0  0
    1.6570   -0.2017   -1.3693 H   0  0  0  0  0  0  0  0  0  0  0  0
  1  2  2  0
  2  3  1  0
  3  4  1  0
  4  5  1  0
  5  6  1  0
  6  7  1  0
  7  8  1  0
  8  9  1  0
  9  1  1  0
  5  3  1  0
  7  3  1  0
  1 10  1  0
  2 11  1  0
  4 12  1  0
  4 13  1  0
  5 14  1  0
  6 15  1  0
  6 16  1  0
  7 17  1  0
  8 18  1  0
  8 19  1  0
  9 20  1  0
  9 21  1  0
M  END
