
     RDKit          3D

 21 22  0  0  0  0  0  0  0  0999 V2000
   -2.3840   -0.1248    0.0796 C   0  0  0  0  0  0  0  0  0  0  0  0
   -1.9947    1.1177    0.1564 C   0  0  0  0  0  0  0  0  0  0  0  0
   -0.5984    1.5542    0.2750 C   0  0  0  0  0  0  0  0  0  0  0  0
    0.3631    0.5705   -0.3544 C   0  0  0  0  0  0  0  0  0  0  0  0
    1.7589    0.6354    0.2072 C   0  0  0  0  0  0  0  0  0  0  0  0
    2.2791   -0.7063   -0.3540 C   0  0  0  0  0  0  0  0  0  0  0  0
    1.0620   -1.5693   -0.1053 C   0  0  0  0  0  0  0  0  0  0  0  0
   -0.0301   -0.8234   -0.1070 C   0  0  0  0  0  0  0  0  0  0  0  0
   -1.4426   -1.2465    0.1046 C   0  0  0  0  0  0  0  0  0  0  0  0
   -3.4611   -0.3542   -0.0083 H   0  0  0  0  0  0  0  0  0  0  0  0
   -2.7642    1.9140    0.1317 H   0  0  0  0  0  0  0  0  0  0  0  0
   -0.4778    2.5084   -0.2930 H   0  0  0  0  0  0  0  0  0  0  0  0
   -0.3036    1.7873    1.3241 H   0  0  0  0  0  0  0  0  0  0  0  0
    0.4576    0.7874   -1.4568 H   0  0  0  0  0  0  0  0  0  0  0  0
    2.3522    1.4730   -0.1633 H   0  0  0  0  0  0  0  0  0  0  0  0
    1.7644    0.5293    1.3126 H   0  0  0  0  0  0  0  0  0  0  0  0
    2.4750   -0.5931   -1.4386 H   0  0  0  0  0  0  0  0  0  0  0  0
    3.1493   -1.0643    0.2220 H   0  0  0  0  0  0  0  0  0  0  0  0
    1.1270   -2.6261    0.0444 H   0  0  0  0  0  0  0  0  0  0  0  0
   -1.5698   -1.7728    1.0891 H   0  0  0  0  0  0  0  0  0  0  0  0
   -1.7624   -1.9963   -0.6660 H   0  0  0  0  0  0  0  0  0  0  0  0
  1  2  2  0
  2  3  1  0
  3  4  1  0
  4  5  1  0
  5  6  1  0
  6  7  1  0
  7  8  2  0
  8  9  1  0
  9  1  1  0
  8  4  1  0
  1 10  1  0
  2 11  1  0
  3 12  1  0
  3 13  1  0
  4 14  1  0
  5 15  1  0
  5 16  1  0
  6 17  1  0
  6 18  1  0
  7 19  1  0
  9 20  1  0
  9 21  1  0
M  END
