
     RDKit          3D

 21 23  0  0  0  0  0  0  0  0999 V2000
    1.5597    1.2900   -0.2796 C   0  0  0  0  0  0  0  0  0  0  0  0
    0.2976    0.9288   -0.2439 C   0  0  0  0  0  0  0  0  0  0  0  0
   -1.1263    1.3893   -0.2596 C   0  0  0  0  0  0  0  0  0  0  0  0
   -1.8959    0.2728    0.4119 C   0  0  0  0  0  0  0  0  0  0  0  0
   -2.2215   -0.9245   -0.3753 C   0  0  0  0  0  0  0  0  0  0  0  0
   -1.0118   -0.9104    0.5454 C   0  0  0  0  0  0  0  0  0  0  0  0
    0.2652   -0.5625   -0.1624 C   0  0  0  0  0  0  0  0  0  0  0  0
    1.5171   -0.8311    0.6078 C   0  0  0  0  0  0  0  0  0  0  0  0
    2.4567    0.0793   -0.2086 C   0  0  0  0  0  0  0  0  0  0  0  0
    1.9663    2.2855   -0.3488 H   0  0  0  0  0  0  0  0  0  0  0  0
   -1.2687    2.3009    0.3550 H   0  0  0  0  0  0  0  0  0  0  0  0
   -1.3996    1.5565   -1.2992 H   0  0  0  0  0  0  0  0  0  0  0  0
   -2.6251    0.5407    1.2127 H   0  0  0  0  0  0  0  0  0  0  0  0
   -2.0679   -0.8532   -1.4667 H   0  0  0  0  0  0  0  0  0  0  0  0
   -3.0780   -1.5796   -0.1085 H   0  0  0  0  0  0  0  0  0  0  0  0
   -1.0382   -1.5924    1.3938 H   0  0  0  0  0  0  0  0  0  0  0  0
    0.3387   -1.0456   -1.1428 H   0  0  0  0  0  0  0  0  0  0  0  0
    1.4911   -0.3605    1.6251 H   0  0  0  0  0  0  0  0  0  0  0  0
    1.8518   -1.8639    0.6087 H   0  0  0  0  0  0  0  0  0  0  0  0
    2.5983   -0.3965   -1.1777 H   0  0  0  0  0  0  0  0  0  0  0  0
    3.3905    0.2765    0.3126 H   0  0  0  0  0  0  0  0  0  0  0  0
  1  2  2  0
  2  3  1  0
  3  4  1  0
  4  5  1  0
  5  6  1  0
  6  7  1  0
  7  8  1  0
  8  9  1  0
  9  1  1  0
  7  2  1  0
  6  4  1  0
  1 10  1  0
  3 11  1  0
  3 12  1  0
  4 13  1  0
  5 14  1  0
  5 15  1  0
  6 16  1  0
  7 17  1  0
  8 18  1  0
  8 19  1  0
  9 20  1  0
  9 21  1  0
M  END
