
     RDKit          3D

 17 19  0  0  0  0  0  0  0  0999 V2000
    2.0854   -0.0935    0.1394 C   0  0  0  0  0  0  0  0  0  0  0  0
    1.4164    1.0250   -0.0958 C   0  0  0  0  0  0  0  0  0  0  0  0
   -0.0470    1.0815   -0.2707 C   0  0  0  0  0  0  0  0  0  0  0  0
   -0.6461    1.1716    1.0167 O   0  0  0  0  0  0  0  0  0  0  0  0
   -1.7531    0.7281    0.2916 C   0  0  0  0  0  0  0  0  0  0  0  0
   -2.0831   -0.5943   -0.0949 C   0  0  0  0  0  0  0  0  0  0  0  0
   -0.6727   -0.3111   -0.2185 C   0  0  0  0  0  0  0  0  0  0  0  0
    0.0656   -0.9282    0.8277 O   0  0  0  0  0  0  0  0  0  0  0  0
    1.2783   -1.3414    0.2249 C   0  0  0  0  0  0  0  0  0  0  0  0
    3.1511   -0.1382    0.2671 H   0  0  0  0  0  0  0  0  0  0  0  0
    1.9743    1.9481   -0.1635 H   0  0  0  0  0  0  0  0  0  0  0  0
   -0.4399    1.7574   -1.0228 H   0  0  0  0  0  0  0  0  0  0  0  0
   -2.0017    1.5343   -0.4687 H   0  0  0  0  0  0  0  0  0  0  0  0
   -2.5243   -1.2821    0.6896 H   0  0  0  0  0  0  0  0  0  0  0  0
   -2.6267   -0.7785   -1.0697 H   0  0  0  0  0  0  0  0  0  0  0  0
    1.7656   -2.1445    0.7837 H   0  0  0  0  0  0  0  0  0  0  0  0
    1.0578   -1.6341   -0.8360 H   0  0  0  0  0  0  0  0  0  0  0  0
  1  2  2  0
  2  3  1  0
  3  4  1  0
  4  5  1  0
  5  6  1  0
  6  7  1  0
  7  8  1  0
  8  9  1  0
  9  1  1  0
  7  3  1  0
  7  5  1  0
  1 10  1  0
  2 11  1  0
  3 12  1  0
  5 13  1  0
  6 14  1  0
  6 15  1  0
  9 16  1  0
  9 17  1  0
M  END
