
     RDKit          3D

 18 19  0  0  0  0  0  0  0  0999 V2000
    1.5618   -0.2852   -0.4943 C   0  0  0  0  0  0  0  0  0  0  0  0
    1.1562    0.9621   -0.6598 C   0  0  0  0  0  0  0  0  0  0  0  0
   -0.0718    1.4377    0.0260 C   0  0  0  0  0  0  0  0  0  0  0  0
   -0.3210    0.5253    1.2354 C   0  0  0  0  0  0  0  0  0  0  0  0
   -0.6626   -0.7611    0.4687 C   0  0  0  0  0  0  0  0  0  0  0  0
    0.6519   -1.3342    0.0042 C   0  0  0  0  0  0  0  0  0  0  0  0
   -1.4390   -0.1869   -0.6795 C   0  0  0  0  0  0  0  0  0  0  0  0
   -1.2114    1.1647   -0.7309 O   0  0  0  0  0  0  0  0  0  0  0  0
    2.5864   -0.5701   -0.7241 H   0  0  0  0  0  0  0  0  0  0  0  0
    1.7287    1.6148   -1.2939 H   0  0  0  0  0  0  0  0  0  0  0  0
   -0.0380    2.4883    0.3172 H   0  0  0  0  0  0  0  0  0  0  0  0
    0.5690    0.3908    1.8451 H   0  0  0  0  0  0  0  0  0  0  0  0
   -1.1981    0.9118    1.7853 H   0  0  0  0  0  0  0  0  0  0  0  0
   -1.2251   -1.4436    1.1073 H   0  0  0  0  0  0  0  0  0  0  0  0
    0.4562   -2.0448   -0.8245 H   0  0  0  0  0  0  0  0  0  0  0  0
    1.1296   -1.8084    0.8801 H   0  0  0  0  0  0  0  0  0  0  0  0
   -1.1339   -0.6316   -1.6615 H   0  0  0  0  0  0  0  0  0  0  0  0
   -2.5388   -0.4298   -0.6007 H   0  0  0  0  0  0  0  0  0  0  0  0
  1  2  2  0
  2  3  1  0
  3  4  1  0
  4  5  1  0
  5  6  1  0
  5  7  1  0
  7  8  1  0
  6  1  1  0
  8  3  1  0
  1  9  1  0
  2 10  1  0
  3 11  1  0
  4 12  1  0
  4 13  1  0
  5 14  1  0
  6 15  1  0
  6 16  1  0
  7 17  1  0
  7 18  1  0
M  END
