
     RDKit          3D

 21 23  0  0  0  0  0  0  0  0999 V2000
   -2.2805    0.0989   -1.0187 C   0  0  0  0  0  0  0  0  0  0  0  0
   -2.4286    0.5221    0.2291 C   0  0  0  0  0  0  0  0  0  0  0  0
   -1.3640   -0.0643    1.0835 C   0  0  0  0  0  0  0  0  0  0  0  0
   -0.2705   -0.2905    0.0627 C   0  0  0  0  0  0  0  0  0  0  0  0
   -1.0822   -0.8202   -1.0945 C   0  0  0  0  0  0  0  0  0  0  0  0
    0.7119    0.6907   -0.1988 C   0  0  0  0  0  0  0  0  0  0  0  0
    2.1832    0.4778   -0.5794 C   0  0  0  0  0  0  0  0  0  0  0  0
    2.2116    0.1010    0.9208 C   0  0  0  0  0  0  0  0  0  0  0  0
    1.0222   -0.7364    0.4337 C   0  0  0  0  0  0  0  0  0  0  0  0
   -2.9155    0.3698   -1.8435 H   0  0  0  0  0  0  0  0  0  0  0  0
   -3.1999    1.1894    0.5808 H   0  0  0  0  0  0  0  0  0  0  0  0
   -1.0570    0.6082    1.9038 H   0  0  0  0  0  0  0  0  0  0  0  0
   -1.7398   -1.0401    1.4452 H   0  0  0  0  0  0  0  0  0  0  0  0
   -1.4680   -1.8395   -0.8607 H   0  0  0  0  0  0  0  0  0  0  0  0
   -0.5830   -0.7754   -2.0553 H   0  0  0  0  0  0  0  0  0  0  0  0
    0.7245    1.5305    0.5689 H   0  0  0  0  0  0  0  0  0  0  0  0
    2.3746   -0.3885   -1.2149 H   0  0  0  0  0  0  0  0  0  0  0  0
    2.6959    1.4071   -0.8174 H   0  0  0  0  0  0  0  0  0  0  0  0
    1.9443    0.9448    1.5600 H   0  0  0  0  0  0  0  0  0  0  0  0
    3.0605   -0.5137    1.2120 H   0  0  0  0  0  0  0  0  0  0  0  0
    1.4601   -1.4717   -0.3172 H   0  0  0  0  0  0  0  0  0  0  0  0
  1  2  2  0
  2  3  1  0
  3  4  1  0
  4  5  1  0
  4  6  1  0
  6  7  1  0
  7  8  1  0
  8  9  1  0
  5  1  1  0
  9  6  1  0
  9  4  1  0
  1 10  1  0
  2 11  1  0
  3 12  1  0
  3 13  1  0
  5 14  1  0
  5 15  1  0
  6 16  1  0
  7 17  1  0
  7 18  1  0
  8 19  1  0
  8 20  1  0
  9 21  1  0
M  END
