
     RDKit          3D

 21 21  0  0  0  0  0  0  0  0999 V2000
    1.0352    1.4050    0.7996 C   0  0  0  0  0  0  0  0  0  0  0  0
   -0.0717    1.8747    0.2655 C   0  0  0  0  0  0  0  0  0  0  0  0
   -0.9128    1.1914   -0.7505 C   0  0  0  0  0  0  0  0  0  0  0  0
   -1.5888   -0.0438   -0.2342 C   0  0  0  0  0  0  0  0  0  0  0  0
   -1.0606   -0.5216    0.9614 O   0  0  0  0  0  0  0  0  0  0  0  0
   -0.4663   -1.7606    0.6384 C   0  0  0  0  0  0  0  0  0  0  0  0
    0.2835   -1.4759   -0.6360 C   0  0  0  0  0  0  0  0  0  0  0  0
    1.2781   -0.6054   -0.6566 C   0  0  0  0  0  0  0  0  0  0  0  0
    1.7029    0.1202    0.5344 C   0  0  0  0  0  0  0  0  0  0  0  0
    1.5415    2.0456    1.5472 H   0  0  0  0  0  0  0  0  0  0  0  0
   -0.4290    2.8632    0.5846 H   0  0  0  0  0  0  0  0  0  0  0  0
   -0.3017    0.9568   -1.6713 H   0  0  0  0  0  0  0  0  0  0  0  0
   -1.7506    1.8732   -1.0868 H   0  0  0  0  0  0  0  0  0  0  0  0
   -1.5841   -0.7947   -1.0483 H   0  0  0  0  0  0  0  0  0  0  0  0
   -2.6834    0.1340   -0.0185 H   0  0  0  0  0  0  0  0  0  0  0  0
   -1.2854   -2.4542    0.4536 H   0  0  0  0  0  0  0  0  0  0  0  0
    0.1889   -2.1232    1.4347 H   0  0  0  0  0  0  0  0  0  0  0  0
   -0.0141   -2.0030   -1.5333 H   0  0  0  0  0  0  0  0  0  0  0  0
    1.7806   -0.4388   -1.5938 H   0  0  0  0  0  0  0  0  0  0  0  0
    2.8094    0.2859    0.5628 H   0  0  0  0  0  0  0  0  0  0  0  0
    1.5283   -0.5286    1.4469 H   0  0  0  0  0  0  0  0  0  0  0  0
  1  2  2  3
  2  3  1  0
  3  4  1  0
  4  5  1  0
  5  6  1  0
  6  7  1  0
  7  8  2  3
  8  9  1  0
  9  1  1  0
  1 10  1  0
  2 11  1  0
  3 12  1  0
  3 13  1  0
  4 14  1  0
  4 15  1  0
  6 16  1  0
  6 17  1  0
  7 18  1  0
  8 19  1  0
  9 20  1  0
  9 21  1  0
M  END
