
     RDKit          3D

 19 21  0  0  0  0  0  0  0  0999 V2000
    1.0106   -0.0693   -1.2611 C   0  0  0  0  0  0  0  0  0  0  0  0
    0.2218    0.3679   -0.2783 C   0  0  0  0  0  0  0  0  0  0  0  0
   -1.2244    0.6381   -0.2507 C   0  0  0  0  0  0  0  0  0  0  0  0
   -2.2331   -0.3075   -0.7352 C   0  0  0  0  0  0  0  0  0  0  0  0
   -2.0468   -0.1686    0.7539 C   0  0  0  0  0  0  0  0  0  0  0  0
    1.1206    0.5231    0.9463 C   0  0  0  0  0  0  0  0  0  0  0  0
    1.9397   -0.7071    0.6531 C   0  0  0  0  0  0  0  0  0  0  0  0
    3.0452   -0.9454    0.0220 O   0  0  0  0  0  0  0  0  0  0  0  0
    2.3498   -0.1466   -0.7264 C   0  0  0  0  0  0  0  0  0  0  0  0
    0.6246   -0.3055   -2.2715 H   0  0  0  0  0  0  0  0  0  0  0  0
   -1.4713    1.7297   -0.2255 H   0  0  0  0  0  0  0  0  0  0  0  0
   -3.1966    0.1557   -1.0897 H   0  0  0  0  0  0  0  0  0  0  0  0
   -1.9828   -1.2461   -1.2470 H   0  0  0  0  0  0  0  0  0  0  0  0
   -2.8065    0.3511    1.3583 H   0  0  0  0  0  0  0  0  0  0  0  0
   -1.5755   -1.0250    1.2541 H   0  0  0  0  0  0  0  0  0  0  0  0
    1.6647    1.4610    0.9381 H   0  0  0  0  0  0  0  0  0  0  0  0
    0.5212    0.3913    1.8414 H   0  0  0  0  0  0  0  0  0  0  0  0
    1.2351   -1.5985    0.6196 H   0  0  0  0  0  0  0  0  0  0  0  0
    2.8036    0.9015   -0.7197 H   0  0  0  0  0  0  0  0  0  0  0  0
  1  2  2  0
  2  3  1  0
  3  4  1  0
  4  5  1  0
  2  6  1  0
  6  7  1  0
  7  8  1  0
  8  9  1  0
  9  1  1  0
  5  3  1  0
  9  7  1  0
  1 10  1  0
  3 11  1  0
  4 12  1  0
  4 13  1  0
  5 14  1  0
  5 15  1  0
  6 16  1  0
  6 17  1  0
  7 18  1  0
  9 19  1  0
M  END
