
     RDKit          3D

 17 19  0  0  0  0  0  0  0  0999 V2000
   -1.8191    0.6074    0.4485 C   0  0  0  0  0  0  0  0  0  0  0  0
   -1.6408   -0.6609    0.0142 C   0  0  0  0  0  0  0  0  0  0  0  0
   -0.2616   -0.8067   -0.4300 C   0  0  0  0  0  0  0  0  0  0  0  0
    0.7440   -0.6668    0.7237 C   0  0  0  0  0  0  0  0  0  0  0  0
    1.9432   -0.2604   -0.1218 C   0  0  0  0  0  0  0  0  0  0  0  0
    1.3957    0.6461   -1.0256 O   0  0  0  0  0  0  0  0  0  0  0  0
    0.0390    0.6338   -0.9107 C   0  0  0  0  0  0  0  0  0  0  0  0
   -0.4479    1.2209    0.4261 C   0  0  0  0  0  0  0  0  0  0  0  0
    0.3033    0.5004    1.3346 O   0  0  0  0  0  0  0  0  0  0  0  0
   -2.7590    1.0161    0.7294 H   0  0  0  0  0  0  0  0  0  0  0  0
   -2.3911   -1.4595   -0.0091 H   0  0  0  0  0  0  0  0  0  0  0  0
   -0.0194   -1.5543   -1.1426 H   0  0  0  0  0  0  0  0  0  0  0  0
    0.8622   -1.5283    1.3253 H   0  0  0  0  0  0  0  0  0  0  0  0
    2.6615    0.2670    0.5265 H   0  0  0  0  0  0  0  0  0  0  0  0
    2.3508   -1.1580   -0.6151 H   0  0  0  0  0  0  0  0  0  0  0  0
   -0.5434    0.9234   -1.7545 H   0  0  0  0  0  0  0  0  0  0  0  0
   -0.4173    2.2798    0.4809 H   0  0  0  0  0  0  0  0  0  0  0  0
  1  2  2  0
  2  3  1  0
  3  4  1  0
  4  5  1  0
  5  6  1  0
  6  7  1  0
  7  8  1  0
  8  9  1  0
  8  1  1  0
  7  3  1  0
  9  4  1  0
  1 10  1  0
  2 11  1  0
  3 12  1  0
  4 13  1  0
  5 14  1  0
  5 15  1  0
  7 16  1  0
  8 17  1  0
M  END
