
     RDKit          3D

 21 22  0  0  0  0  0  0  0  0999 V2000
    1.1298    1.1572   -0.5782 C   0  0  0  0  0  0  0  0  0  0  0  0
   -0.1393    1.4936   -0.4597 C   0  0  0  0  0  0  0  0  0  0  0  0
   -1.2569    0.7000    0.1073 C   0  0  0  0  0  0  0  0  0  0  0  0
   -1.3499   -0.5574   -0.7702 C   0  0  0  0  0  0  0  0  0  0  0  0
   -0.0373   -1.3097   -0.7421 C   0  0  0  0  0  0  0  0  0  0  0  0
    0.8139   -1.0009    0.4475 C   0  0  0  0  0  0  0  0  0  0  0  0
    1.8473    0.0752    0.1553 C   0  0  0  0  0  0  0  0  0  0  0  0
    0.0464   -0.7509    1.5434 O   0  0  0  0  0  0  0  0  0  0  0  0
   -0.8300    0.2814    1.4896 C   0  0  0  0  0  0  0  0  0  0  0  0
    1.7083    1.7489   -1.3009 H   0  0  0  0  0  0  0  0  0  0  0  0
   -0.4186    2.4666   -0.8152 H   0  0  0  0  0  0  0  0  0  0  0  0
   -2.2158    1.2031    0.0724 H   0  0  0  0  0  0  0  0  0  0  0  0
   -1.4866   -0.1764   -1.8032 H   0  0  0  0  0  0  0  0  0  0  0  0
   -2.2023   -1.1695   -0.4680 H   0  0  0  0  0  0  0  0  0  0  0  0
    0.5257   -1.1875   -1.7032 H   0  0  0  0  0  0  0  0  0  0  0  0
   -0.3074   -2.3951   -0.6955 H   0  0  0  0  0  0  0  0  0  0  0  0
    1.4174   -1.9271    0.6766 H   0  0  0  0  0  0  0  0  0  0  0  0
    2.1767    0.5151    1.1342 H   0  0  0  0  0  0  0  0  0  0  0  0
    2.7091   -0.3199   -0.3939 H   0  0  0  0  0  0  0  0  0  0  0  0
   -0.3795    1.1480    2.0494 H   0  0  0  0  0  0  0  0  0  0  0  0
   -1.7510    0.0052    2.0544 H   0  0  0  0  0  0  0  0  0  0  0  0
  1  2  2  0
  2  3  1  0
  3  4  1  0
  4  5  1  0
  5  6  1  0
  6  7  1  0
  6  8  1  0
  8  9  1  0
  7  1  1  0
  9  3  1  0
  1 10  1  0
  2 11  1  0
  3 12  1  0
  4 13  1  0
  4 14  1  0
  5 15  1  0
  5 16  1  0
  6 17  1  0
  7 18  1  0
  7 19  1  0
  9 20  1  0
  9 21  1  0
M  END
