
     RDKit          3D

 19 20  0  0  0  0  0  0  0  0999 V2000
   -2.1077   -0.7685    0.4599 C   0  0  0  0  0  0  0  0  0  0  0  0
   -0.8960   -1.0431    0.8942 C   0  0  0  0  0  0  0  0  0  0  0  0
    0.0581   -0.1106    0.2737 C   0  0  0  0  0  0  0  0  0  0  0  0
   -0.7658    1.0769   -0.2072 C   0  0  0  0  0  0  0  0  0  0  0  0
   -2.0851    0.3761   -0.4954 C   0  0  0  0  0  0  0  0  0  0  0  0
    1.0108    0.3819    1.1384 O   0  0  0  0  0  0  0  0  0  0  0  0
    2.1022    0.5758    0.2898 C   0  0  0  0  0  0  0  0  0  0  0  0
    2.0380   -0.7607   -0.4631 C   0  0  0  0  0  0  0  0  0  0  0  0
    0.6788   -0.7513   -0.7657 O   0  0  0  0  0  0  0  0  0  0  0  0
   -3.0354   -1.2764    0.7288 H   0  0  0  0  0  0  0  0  0  0  0  0
   -0.6422   -1.8179    1.5862 H   0  0  0  0  0  0  0  0  0  0  0  0
   -0.3133    1.5078   -1.1086 H   0  0  0  0  0  0  0  0  0  0  0  0
   -0.8390    1.7833    0.6342 H   0  0  0  0  0  0  0  0  0  0  0  0
   -2.1127    0.0441   -1.5537 H   0  0  0  0  0  0  0  0  0  0  0  0
   -2.9474    1.0161   -0.2643 H   0  0  0  0  0  0  0  0  0  0  0  0
    1.8814    1.4015   -0.4120 H   0  0  0  0  0  0  0  0  0  0  0  0
    3.0527    0.6904    0.8293 H   0  0  0  0  0  0  0  0  0  0  0  0
    2.2321   -1.5353    0.3043 H   0  0  0  0  0  0  0  0  0  0  0  0
    2.6906   -0.7902   -1.3245 H   0  0  0  0  0  0  0  0  0  0  0  0
  1  2  2  0
  2  3  1  0
  3  4  1  0
  4  5  1  0
  3  6  1  0
  6  7  1  0
  7  8  1  0
  8  9  1  0
  5  1  1  0
  9  3  1  0
  1 10  1  0
  2 11  1  0
  4 12  1  0
  4 13  1  0
  5 14  1  0
  5 15  1  0
  7 16  1  0
  7 17  1  0
  8 18  1  0
  8 19  1  0
M  END
