
     RDKit          3D

 19 21  0  0  0  0  0  0  0  0999 V2000
    0.3698   -0.7764    0.9648 C   0  0  0  0  0  0  0  0  0  0  0  0
   -0.4614   -0.0183    0.2965 C   0  0  0  0  0  0  0  0  0  0  0  0
   -1.8695    0.2816    0.6672 C   0  0  0  0  0  0  0  0  0  0  0  0
   -2.9814   -0.0779   -0.2346 C   0  0  0  0  0  0  0  0  0  0  0  0
   -2.4939    1.2779   -0.0748 O   0  0  0  0  0  0  0  0  0  0  0  0
    0.2315    0.4965   -0.8994 C   0  0  0  0  0  0  0  0  0  0  0  0
    1.6722    0.1632   -0.8130 C   0  0  0  0  0  0  0  0  0  0  0  0
    2.5078    0.3768    0.3765 C   0  0  0  0  0  0  0  0  0  0  0  0
    1.7033   -0.8647    0.3152 C   0  0  0  0  0  0  0  0  0  0  0  0
    0.1281   -1.2859    1.8846 H   0  0  0  0  0  0  0  0  0  0  0  0
   -2.0975    0.2306    1.7652 H   0  0  0  0  0  0  0  0  0  0  0  0
   -3.9822   -0.2202    0.1752 H   0  0  0  0  0  0  0  0  0  0  0  0
   -2.6870   -0.5555   -1.1971 H   0  0  0  0  0  0  0  0  0  0  0  0
   -0.1970   -0.0533   -1.7771 H   0  0  0  0  0  0  0  0  0  0  0  0
    0.0283    1.5739   -1.0852 H   0  0  0  0  0  0  0  0  0  0  0  0
    2.1681   -0.0923   -1.7753 H   0  0  0  0  0  0  0  0  0  0  0  0
    2.2523    1.1137    1.1625 H   0  0  0  0  0  0  0  0  0  0  0  0
    3.5973    0.2575    0.2293 H   0  0  0  0  0  0  0  0  0  0  0  0
    2.1113   -1.8272    0.0093 H   0  0  0  0  0  0  0  0  0  0  0  0
  1  2  2  0
  2  3  1  0
  3  4  1  0
  4  5  1  0
  2  6  1  0
  6  7  1  0
  7  8  1  0
  8  9  1  0
  9  1  1  0
  5  3  1  0
  9  7  1  0
  1 10  1  0
  3 11  1  0
  4 12  1  0
  4 13  1  0
  6 14  1  0
  6 15  1  0
  7 16  1  0
  8 17  1  0
  8 18  1  0
  9 19  1  0
M  END
