
     RDKit          3D

 21 23  0  0  0  0  0  0  0  0999 V2000
    0.0936   -1.3024    1.0856 C   0  0  0  0  0  0  0  0  0  0  0  0
    1.0923   -0.8488    0.3758 C   0  0  0  0  0  0  0  0  0  0  0  0
    2.4143   -0.5544   -0.3420 C   0  0  0  0  0  0  0  0  0  0  0  0
    1.9005    0.8971   -0.4911 C   0  0  0  0  0  0  0  0  0  0  0  0
    0.5377    0.2936   -0.4568 C   0  0  0  0  0  0  0  0  0  0  0  0
   -0.5336    0.8100    0.4139 C   0  0  0  0  0  0  0  0  0  0  0  0
   -1.8606    0.9333   -0.3561 C   0  0  0  0  0  0  0  0  0  0  0  0
   -1.9886   -0.5992   -0.2282 C   0  0  0  0  0  0  0  0  0  0  0  0
   -1.1453   -0.5117    0.9973 C   0  0  0  0  0  0  0  0  0  0  0  0
    0.1853   -2.2215    1.7082 H   0  0  0  0  0  0  0  0  0  0  0  0
    2.5421   -1.0993   -1.2802 H   0  0  0  0  0  0  0  0  0  0  0  0
    3.2961   -0.5951    0.2912 H   0  0  0  0  0  0  0  0  0  0  0  0
    2.1404    1.3140   -1.4899 H   0  0  0  0  0  0  0  0  0  0  0  0
    2.1049    1.5238    0.3740 H   0  0  0  0  0  0  0  0  0  0  0  0
    0.2075   -0.0815   -1.4673 H   0  0  0  0  0  0  0  0  0  0  0  0
   -0.3530    1.5608    1.1627 H   0  0  0  0  0  0  0  0  0  0  0  0
   -1.7213    1.2766   -1.3870 H   0  0  0  0  0  0  0  0  0  0  0  0
   -2.6291    1.5072    0.1784 H   0  0  0  0  0  0  0  0  0  0  0  0
   -1.5732   -1.1453   -1.0715 H   0  0  0  0  0  0  0  0  0  0  0  0
   -3.0497   -0.8137    0.0332 H   0  0  0  0  0  0  0  0  0  0  0  0
   -1.6602   -0.3435    1.9498 H   0  0  0  0  0  0  0  0  0  0  0  0
  1  2  2  0
  2  3  1  0
  3  4  1  0
  4  5  1  0
  5  6  1  0
  6  7  1  0
  7  8  1  0
  8  9  1  0
  9  1  1  0
  5  2  1  0
  9  6  1  0
  1 10  1  0
  3 11  1  0
  3 12  1  0
  4 13  1  0
  4 14  1  0
  5 15  1  0
  6 16  1  0
  7 17  1  0
  7 18  1  0
  8 19  1  0
  8 20  1  0
  9 21  1  0
M  END
