
     RDKit          3D

 19 20  0  0  0  0  0  0  0  0999 V2000
    1.5817    0.8369   -0.4829 C   0  0  0  0  0  0  0  0  0  0  0  0
    0.3623    1.4152   -0.2673 C   0  0  0  0  0  0  0  0  0  0  0  0
   -0.7544    0.9560    0.5690 C   0  0  0  0  0  0  0  0  0  0  0  0
   -1.8615    0.1293   -0.0816 C   0  0  0  0  0  0  0  0  0  0  0  0
   -1.3557   -1.3527    0.0900 C   0  0  0  0  0  0  0  0  0  0  0  0
    0.0353   -0.9427    0.1698 C   0  0  0  0  0  0  0  0  0  0  0  0
    1.1930   -1.4614    0.3043 O   0  0  0  0  0  0  0  0  0  0  0  0
    2.1441   -0.4231    0.0901 C   0  0  0  0  0  0  0  0  0  0  0  0
   -0.1723   -0.1082    1.3025 O   0  0  0  0  0  0  0  0  0  0  0  0
    2.2647    1.3356   -1.1612 H   0  0  0  0  0  0  0  0  0  0  0  0
    0.2766    2.3409   -0.8241 H   0  0  0  0  0  0  0  0  0  0  0  0
   -1.1656    1.7275    1.2410 H   0  0  0  0  0  0  0  0  0  0  0  0
   -2.7670    0.2781    0.4995 H   0  0  0  0  0  0  0  0  0  0  0  0
   -1.9593    0.3456   -1.1606 H   0  0  0  0  0  0  0  0  0  0  0  0
   -1.8230   -1.7191    1.0180 H   0  0  0  0  0  0  0  0  0  0  0  0
   -1.6295   -1.9026   -0.8136 H   0  0  0  0  0  0  0  0  0  0  0  0
    0.1201   -0.4305   -0.8308 H   0  0  0  0  0  0  0  0  0  0  0  0
    2.6644   -0.1562    1.0121 H   0  0  0  0  0  0  0  0  0  0  0  0
    2.8463   -0.8684   -0.6746 H   0  0  0  0  0  0  0  0  0  0  0  0
  1  2  2  0
  2  3  1  0
  3  4  1  0
  4  5  1  0
  5  6  1  0
  6  7  1  0
  7  8  1  0
  6  9  1  0
  8  1  1  0
  9  3  1  0
  1 10  1  0
  2 11  1  0
  3 12  1  0
  4 13  1  0
  4 14  1  0
  5 15  1  0
  5 16  1  0
  6 17  1  0
  8 18  1  0
  8 19  1  0
M  END
