
     RDKit          2D

 17 20  0  0  0  0  0  0  0  0999 V2000
    0.1771    2.1203    0.0000 C   0  0  0  0  0  0  0  0  0  0  0  0
   -0.9376    3.1240    0.0000 C   0  0  0  0  0  0  0  0  0  0  0  0
   -1.6876    4.4231    0.0000 C   0  0  0  0  0  0  0  0  0  0  0  0
   -2.9867    3.6731    0.0000 C   0  0  0  0  0  0  0  0  0  0  0  0
   -2.2367    2.3740    0.0000 C   0  0  0  0  0  0  0  0  0  0  0  0
   -1.9248    0.9068    0.0000 C   0  0  0  0  0  0  0  0  0  0  0  0
   -0.4330    0.7500    0.0000 C   0  0  0  0  0  0  0  0  0  0  0  0
    0.8660    0.0000    0.0000 C   0  0  0  0  0  0  0  0  0  0  0  0
   -0.4330   -0.7500    0.0000 O   0  0  0  0  0  0  0  0  0  0  0  0
    1.6443    2.4322    0.0000 H   0  0  0  0  0  0  0  0  0  0  0  0
   -2.4376    5.7221    0.0000 H   0  0  0  0  0  0  0  0  0  0  0  0
   -0.3886    5.1731    0.0000 H   0  0  0  0  0  0  0  0  0  0  0  0
   -4.4356    4.0613    0.0000 H   0  0  0  0  0  0  0  0  0  0  0  0
   -3.6370    1.8365    0.0000 H   0  0  0  0  0  0  0  0  0  0  0  0
   -2.9285   -0.2079    0.0000 H   0  0  0  0  0  0  0  0  0  0  0  0
    1.8302    1.1491    0.0000 H   0  0  0  0  0  0  0  0  0  0  0  0
    1.8302   -1.1491    0.0000 H   0  0  0  0  0  0  0  0  0  0  0  0
  1  2  2  0
  2  3  1  0
  3  4  1  0
  4  5  1  0
  5  6  1  0
  6  7  1  0
  7  8  1  0
  8  9  1  0
  7  1  1  0
  5  2  1  0
  9  7  1  0
  6  4  1  0
  1 10  1  0
  3 11  1  0
  3 12  1  0
  4 13  1  0
  5 14  1  0
  6 15  1  0
  8 16  1  0
  8 17  1  0
M  END
