
     RDKit          3D

 17 19  0  0  0  0  0  0  0  0999 V2000
    1.5474   -0.1362    1.0908 C   0  0  0  0  0  0  0  0  0  0  0  0
    1.6281    0.9413    0.2735 C   0  0  0  0  0  0  0  0  0  0  0  0
    0.8115    0.4609   -0.8891 C   0  0  0  0  0  0  0  0  0  0  0  0
    1.3254   -0.8559   -1.0003 O   0  0  0  0  0  0  0  0  0  0  0  0
    0.6774   -1.0424    0.2475 C   0  0  0  0  0  0  0  0  0  0  0  0
   -0.3577   -0.1437   -0.2420 C   0  0  0  0  0  0  0  0  0  0  0  0
   -1.2187    0.6217    0.6548 C   0  0  0  0  0  0  0  0  0  0  0  0
   -2.2628    0.4496   -0.2881 O   0  0  0  0  0  0  0  0  0  0  0  0
   -1.5328   -0.5656   -0.9539 C   0  0  0  0  0  0  0  0  0  0  0  0
    1.9759   -0.3035    2.0594 H   0  0  0  0  0  0  0  0  0  0  0  0
    2.1380    1.8811    0.4205 H   0  0  0  0  0  0  0  0  0  0  0  0
    0.7649    1.0513   -1.7634 H   0  0  0  0  0  0  0  0  0  0  0  0
    0.5185   -2.0305    0.5818 H   0  0  0  0  0  0  0  0  0  0  0  0
   -1.0273    1.6879    0.8330 H   0  0  0  0  0  0  0  0  0  0  0  0
   -1.4325    0.0715    1.6060 H   0  0  0  0  0  0  0  0  0  0  0  0
   -1.9518   -1.5472   -0.5876 H   0  0  0  0  0  0  0  0  0  0  0  0
   -1.6035   -0.5404   -2.0429 H   0  0  0  0  0  0  0  0  0  0  0  0
  1  2  2  0
  2  3  1  0
  3  4  1  0
  4  5  1  0
  5  6  1  0
  6  7  1  0
  7  8  1  0
  8  9  1  0
  5  1  1  0
  9  6  1  0
  6  3  1  0
  1 10  1  0
  2 11  1  0
  3 12  1  0
  5 13  1  0
  7 14  1  0
  7 15  1  0
  9 16  1  0
  9 17  1  0
M  END
