
     RDKit          3D

 19 21  0  0  0  0  0  0  0  0999 V2000
    1.1558   -1.2179   -0.4166 C   0  0  0  0  0  0  0  0  0  0  0  0
   -0.1243   -0.9733   -0.2138 C   0  0  0  0  0  0  0  0  0  0  0  0
   -1.5434   -1.3485   -0.1526 C   0  0  0  0  0  0  0  0  0  0  0  0
   -1.7567   -0.1047    0.7307 C   0  0  0  0  0  0  0  0  0  0  0  0
   -0.5055    0.3792    0.1690 C   0  0  0  0  0  0  0  0  0  0  0  0
   -0.2275    1.5971   -0.5396 C   0  0  0  0  0  0  0  0  0  0  0  0
    0.5354    1.1903    0.7536 C   0  0  0  0  0  0  0  0  0  0  0  0
    1.8423    0.8733    0.5631 O   0  0  0  0  0  0  0  0  0  0  0  0
    2.1726   -0.1462   -0.2569 C   0  0  0  0  0  0  0  0  0  0  0  0
    1.5309   -2.2022   -0.7080 H   0  0  0  0  0  0  0  0  0  0  0  0
   -2.0090   -1.2120   -1.1683 H   0  0  0  0  0  0  0  0  0  0  0  0
   -1.7950   -2.2900    0.3481 H   0  0  0  0  0  0  0  0  0  0  0  0
   -1.7454   -0.4524    1.8047 H   0  0  0  0  0  0  0  0  0  0  0  0
   -2.7110    0.3613    0.4251 H   0  0  0  0  0  0  0  0  0  0  0  0
   -0.9467    2.4539   -0.4039 H   0  0  0  0  0  0  0  0  0  0  0  0
    0.3619    1.6863   -1.4549 H   0  0  0  0  0  0  0  0  0  0  0  0
    0.2872    1.7802    1.6599 H   0  0  0  0  0  0  0  0  0  0  0  0
    3.1080   -0.6242    0.1481 H   0  0  0  0  0  0  0  0  0  0  0  0
    2.3705    0.2500   -1.2880 H   0  0  0  0  0  0  0  0  0  0  0  0
  1  2  2  0
  2  3  1  0
  3  4  1  0
  4  5  1  0
  5  6  1  0
  6  7  1  0
  7  8  1  0
  8  9  1  0
  9  1  1  0
  5  2  1  0
  7  5  1  0
  1 10  1  0
  3 11  1  0
  3 12  1  0
  4 13  1  0
  4 14  1  0
  6 15  1  0
  6 16  1  0
  7 17  1  0
  9 18  1  0
  9 19  1  0
M  END
