
     RDKit          3D

 13 15  0  0  0  0  0  0  0  0999 V2000
    1.3163    0.3862   -0.5448 C   0  0  0  0  0  0  0  0  0  0  0  0
    1.0313   -0.9096   -0.4816 C   0  0  0  0  0  0  0  0  0  0  0  0
   -0.3289   -1.0872    0.1389 C   0  0  0  0  0  0  0  0  0  0  0  0
   -1.3518   -0.0927   -0.2527 C   0  0  0  0  0  0  0  0  0  0  0  0
   -0.9298    1.0729   -0.8459 O   0  0  0  0  0  0  0  0  0  0  0  0
    0.1852    1.1713    0.0203 C   0  0  0  0  0  0  0  0  0  0  0  0
   -0.4897    0.1662    0.8883 C   0  0  0  0  0  0  0  0  0  0  0  0
    2.2185    0.8328   -0.9387 H   0  0  0  0  0  0  0  0  0  0  0  0
    1.7014   -1.6775   -0.8327 H   0  0  0  0  0  0  0  0  0  0  0  0
   -0.5685   -2.0229    0.6339 H   0  0  0  0  0  0  0  0  0  0  0  0
   -2.4328   -0.2837   -0.1062 H   0  0  0  0  0  0  0  0  0  0  0  0
    0.3997    2.1525    0.4091 H   0  0  0  0  0  0  0  0  0  0  0  0
   -0.7509    0.2917    1.9122 H   0  0  0  0  0  0  0  0  0  0  0  0
  1  2  2  0
  2  3  1  0
  3  4  1  0
  4  5  1  0
  5  6  1  0
  6  7  1  0
  6  1  1  0
  7  3  1  0
  7  4  1  0
  1  8  1  0
  2  9  1  0
  3 10  1  0
  4 11  1  0
  6 12  1  0
  7 13  1  0
M  END
