
     RDKit          3D

 23 24  0  0  0  0  0  0  0  0999 V2000
    1.8043    0.6513    0.8237 C   0  0  0  0  0  0  0  0  0  0  0  0
    1.8688   -0.5670    0.3102 C   0  0  0  0  0  0  0  0  0  0  0  0
    0.7594   -1.0586   -0.5544 C   0  0  0  0  0  0  0  0  0  0  0  0
   -0.3919   -1.5915    0.2507 C   0  0  0  0  0  0  0  0  0  0  0  0
   -1.6699   -0.8604    0.0353 C   0  0  0  0  0  0  0  0  0  0  0  0
   -1.5558    0.6262    0.1947 C   0  0  0  0  0  0  0  0  0  0  0  0
   -0.2848    1.1705   -0.4172 C   0  0  0  0  0  0  0  0  0  0  0  0
    0.6473    1.5512    0.6948 C   0  0  0  0  0  0  0  0  0  0  0  0
    0.2711    0.1451   -1.3480 C   0  0  0  0  0  0  0  0  0  0  0  0
    2.6662    1.0044    1.3756 H   0  0  0  0  0  0  0  0  0  0  0  0
    2.7382   -1.1663    0.5428 H   0  0  0  0  0  0  0  0  0  0  0  0
    1.1743   -1.8378   -1.2375 H   0  0  0  0  0  0  0  0  0  0  0  0
   -0.5548   -2.6555   -0.0401 H   0  0  0  0  0  0  0  0  0  0  0  0
   -0.1068   -1.6250    1.3319 H   0  0  0  0  0  0  0  0  0  0  0  0
   -2.0983   -1.1440   -0.9614 H   0  0  0  0  0  0  0  0  0  0  0  0
   -2.4031   -1.2185    0.7882 H   0  0  0  0  0  0  0  0  0  0  0  0
   -2.4389    1.1186   -0.2924 H   0  0  0  0  0  0  0  0  0  0  0  0
   -1.6055    0.8956    1.2861 H   0  0  0  0  0  0  0  0  0  0  0  0
   -0.5164    2.0832   -1.0376 H   0  0  0  0  0  0  0  0  0  0  0  0
    0.1276    1.5591    1.6954 H   0  0  0  0  0  0  0  0  0  0  0  0
    1.0007    2.5983    0.5504 H   0  0  0  0  0  0  0  0  0  0  0  0
    1.1033    0.5530   -1.9844 H   0  0  0  0  0  0  0  0  0  0  0  0
   -0.5351   -0.2319   -2.0067 H   0  0  0  0  0  0  0  0  0  0  0  0
  1  2  2  0
  2  3  1  0
  3  4  1  0
  4  5  1  0
  5  6  1  0
  6  7  1  0
  7  8  1  0
  7  9  1  0
  8  1  1  0
  9  3  1  0
  1 10  1  0
  2 11  1  0
  3 12  1  0
  4 13  1  0
  4 14  1  0
  5 15  1  0
  5 16  1  0
  6 17  1  0
  6 18  1  0
  7 19  1  0
  8 20  1  0
  8 21  1  0
  9 22  1  0
  9 23  1  0
M  END
