
     RDKit          3D

 21 23  0  0  0  0  0  0  0  0999 V2000
    0.6395    1.5302    0.3383 C   0  0  0  0  0  0  0  0  0  0  0  0
   -0.0767    1.3997   -0.7590 C   0  0  0  0  0  0  0  0  0  0  0  0
   -0.4244    0.0136   -1.2423 C   0  0  0  0  0  0  0  0  0  0  0  0
   -1.7437   -0.3378   -0.5396 C   0  0  0  0  0  0  0  0  0  0  0  0
   -1.2912   -0.1801    0.9114 C   0  0  0  0  0  0  0  0  0  0  0  0
    0.0839   -0.7614    0.9120 C   0  0  0  0  0  0  0  0  0  0  0  0
    1.1628    0.3013    0.9582 C   0  0  0  0  0  0  0  0  0  0  0  0
    1.8271   -0.4600   -0.1935 C   0  0  0  0  0  0  0  0  0  0  0  0
    0.4763   -0.9645   -0.5575 C   0  0  0  0  0  0  0  0  0  0  0  0
    0.8270    2.4884    0.7525 H   0  0  0  0  0  0  0  0  0  0  0  0
   -0.4303    2.2321   -1.3344 H   0  0  0  0  0  0  0  0  0  0  0  0
   -0.4827   -0.0634   -2.3204 H   0  0  0  0  0  0  0  0  0  0  0  0
   -1.9381   -1.4113   -0.6914 H   0  0  0  0  0  0  0  0  0  0  0  0
   -2.5528    0.3287   -0.8111 H   0  0  0  0  0  0  0  0  0  0  0  0
   -1.9428   -0.7239    1.6074 H   0  0  0  0  0  0  0  0  0  0  0  0
   -1.3004    0.9061    1.2037 H   0  0  0  0  0  0  0  0  0  0  0  0
    0.2533   -1.6524    1.5145 H   0  0  0  0  0  0  0  0  0  0  0  0
    1.7406    0.3820    1.8681 H   0  0  0  0  0  0  0  0  0  0  0  0
    2.3080    0.2275   -0.9213 H   0  0  0  0  0  0  0  0  0  0  0  0
    2.4641   -1.2479    0.1998 H   0  0  0  0  0  0  0  0  0  0  0  0
    0.4006   -2.0069   -0.8953 H   0  0  0  0  0  0  0  0  0  0  0  0
  1  2  2  0
  2  3  1  0
  3  4  1  0
  4  5  1  0
  5  6  1  0
  6  7  1  0
  7  8  1  0
  8  9  1  0
  7  1  1  0
  9  3  1  0
  9  6  1  0
  1 10  1  0
  2 11  1  0
  3 12  1  0
  4 13  1  0
  4 14  1  0
  5 15  1  0
  5 16  1  0
  6 17  1  0
  7 18  1  0
  8 19  1  0
  8 20  1  0
  9 21  1  0
M  END
