
     RDKit          3D

 19 20  0  0  0  0  0  0  0  0999 V2000
   -1.0958   -1.2532    0.5709 C   0  0  0  0  0  0  0  0  0  0  0  0
    0.1027   -1.5562    0.1298 C   0  0  0  0  0  0  0  0  0  0  0  0
    1.0866   -0.7571   -0.6214 C   0  0  0  0  0  0  0  0  0  0  0  0
    2.4023   -0.8610   -0.1754 O   0  0  0  0  0  0  0  0  0  0  0  0
    2.4660    0.5050    0.0871 C   0  0  0  0  0  0  0  0  0  0  0  0
    1.0244    0.6435   -0.1333 C   0  0  0  0  0  0  0  0  0  0  0  0
   -0.0616    1.3867   -0.0715 C   0  0  0  0  0  0  0  0  0  0  0  0
   -1.4500    0.9623   -0.4826 C   0  0  0  0  0  0  0  0  0  0  0  0
   -1.9145   -0.0535    0.5039 C   0  0  0  0  0  0  0  0  0  0  0  0
   -1.5983   -2.0921    1.1139 H   0  0  0  0  0  0  0  0  0  0  0  0
    0.4366   -2.5694    0.3517 H   0  0  0  0  0  0  0  0  0  0  0  0
    1.0112   -0.8589   -1.7302 H   0  0  0  0  0  0  0  0  0  0  0  0
    2.8235    0.6535    1.1368 H   0  0  0  0  0  0  0  0  0  0  0  0
    3.0573    1.0810   -0.6566 H   0  0  0  0  0  0  0  0  0  0  0  0
    0.0808    2.3870    0.3117 H   0  0  0  0  0  0  0  0  0  0  0  0
   -2.0946    1.8317   -0.5813 H   0  0  0  0  0  0  0  0  0  0  0  0
   -1.2973    0.4385   -1.4681 H   0  0  0  0  0  0  0  0  0  0  0  0
   -2.9726   -0.3429    0.2266 H   0  0  0  0  0  0  0  0  0  0  0  0
   -2.0066    0.4551    1.4882 H   0  0  0  0  0  0  0  0  0  0  0  0
  1  2  2  0
  2  3  1  0
  3  4  1  0
  4  5  1  0
  5  6  1  0
  6  7  2  0
  7  8  1  0
  8  9  1  0
  9  1  1  0
  6  3  1  0
  1 10  1  0
  2 11  1  0
  3 12  1  0
  5 13  1  0
  5 14  1  0
  7 15  1  0
  8 16  1  0
  8 17  1  0
  9 18  1  0
  9 19  1  0
M  END
