
     RDKit          3D

 19 21  0  0  0  0  0  0  0  0999 V2000
    1.2744   -0.8244   -0.6208 C   0  0  0  0  0  0  0  0  0  0  0  0
    1.5241    0.4627   -0.8536 C   0  0  0  0  0  0  0  0  0  0  0  0
    1.1189    1.3826    0.1990 C   0  0  0  0  0  0  0  0  0  0  0  0
    0.1467    2.2694    0.2526 O   0  0  0  0  0  0  0  0  0  0  0  0
   -0.4033    1.1178    0.3087 C   0  0  0  0  0  0  0  0  0  0  0  0
   -1.1676    0.5767   -0.8477 C   0  0  0  0  0  0  0  0  0  0  0  0
   -1.6899   -0.5039    0.1078 C   0  0  0  0  0  0  0  0  0  0  0  0
   -0.4910   -0.1193    0.9924 C   0  0  0  0  0  0  0  0  0  0  0  0
    0.6192   -1.1351    0.6773 C   0  0  0  0  0  0  0  0  0  0  0  0
    1.5138   -1.6242   -1.2999 H   0  0  0  0  0  0  0  0  0  0  0  0
    1.9966    0.7876   -1.7675 H   0  0  0  0  0  0  0  0  0  0  0  0
    1.6872    1.2611    1.1739 H   0  0  0  0  0  0  0  0  0  0  0  0
   -2.0176    1.2553   -1.1002 H   0  0  0  0  0  0  0  0  0  0  0  0
   -0.6459    0.2262   -1.7314 H   0  0  0  0  0  0  0  0  0  0  0  0
   -1.6676   -1.5016   -0.3132 H   0  0  0  0  0  0  0  0  0  0  0  0
   -2.6673   -0.2825    0.5553 H   0  0  0  0  0  0  0  0  0  0  0  0
   -0.7244   -0.1506    2.0756 H   0  0  0  0  0  0  0  0  0  0  0  0
    1.3551   -1.0315    1.5089 H   0  0  0  0  0  0  0  0  0  0  0  0
    0.2386   -2.1663    0.6827 H   0  0  0  0  0  0  0  0  0  0  0  0
  1  2  2  0
  2  3  1  0
  3  4  1  0
  4  5  1  0
  5  6  1  0
  6  7  1  0
  7  8  1  0
  8  9  1  0
  9  1  1  0
  5  3  1  0
  8  5  1  0
  1 10  1  0
  2 11  1  0
  3 12  1  0
  6 13  1  0
  6 14  1  0
  7 15  1  0
  7 16  1  0
  8 17  1  0
  9 18  1  0
  9 19  1  0
M  END
