
     RDKit          3D

 16 17  0  0  0  0  0  0  0  0999 V2000
    0.8577    1.1448   -0.1970 C   0  0  0  0  0  0  0  0  0  0  0  0
    1.6123    0.0636   -0.0139 C   0  0  0  0  0  0  0  0  0  0  0  0
    0.7773   -1.1988   -0.1006 C   0  0  0  0  0  0  0  0  0  0  0  0
   -0.0811   -1.2122    0.9923 O   0  0  0  0  0  0  0  0  0  0  0  0
   -0.6529    0.0250    1.2655 C   0  0  0  0  0  0  0  0  0  0  0  0
   -0.5914    0.8034   -0.0611 C   0  0  0  0  0  0  0  0  0  0  0  0
   -1.0224   -0.2187   -1.0996 C   0  0  0  0  0  0  0  0  0  0  0  0
    0.0544   -1.0816   -1.2866 O   0  0  0  0  0  0  0  0  0  0  0  0
    1.2590    2.1144   -0.4108 H   0  0  0  0  0  0  0  0  0  0  0  0
    2.6708    0.0504    0.1717 H   0  0  0  0  0  0  0  0  0  0  0  0
    1.4198   -2.0913   -0.0747 H   0  0  0  0  0  0  0  0  0  0  0  0
   -0.0816    0.5731    2.0502 H   0  0  0  0  0  0  0  0  0  0  0  0
   -1.7339   -0.0475    1.5150 H   0  0  0  0  0  0  0  0  0  0  0  0
   -1.2327    1.6884   -0.0434 H   0  0  0  0  0  0  0  0  0  0  0  0
   -1.3900    0.2366   -2.0155 H   0  0  0  0  0  0  0  0  0  0  0  0
   -1.8653   -0.8495   -0.6916 H   0  0  0  0  0  0  0  0  0  0  0  0
  1  2  2  0
  2  3  1  0
  3  4  1  0
  4  5  1  0
  5  6  1  0
  6  7  1  0
  7  8  1  0
  6  1  1  0
  8  3  1  0
  1  9  1  0
  2 10  1  0
  3 11  1  0
  5 12  1  0
  5 13  1  0
  6 14  1  0
  7 15  1  0
  7 16  1  0
M  END
