
     RDKit          3D

 18 19  0  0  0  0  0  0  0  0999 V2000
   -1.4867    0.9495   -0.1000 C   0  0  0  0  0  0  0  0  0  0  0  0
   -0.3116    1.4323   -0.4621 C   0  0  0  0  0  0  0  0  0  0  0  0
    0.9647    0.7974   -0.6857 C   0  0  0  0  0  0  0  0  0  0  0  0
    1.7083    0.4080    0.6035 C   0  0  0  0  0  0  0  0  0  0  0  0
    1.1852   -0.5819   -0.4312 C   0  0  0  0  0  0  0  0  0  0  0  0
    0.1411   -1.4910    0.0334 C   0  0  0  0  0  0  0  0  0  0  0  0
   -1.1023   -1.3720   -0.5685 O   0  0  0  0  0  0  0  0  0  0  0  0
   -1.8351   -0.4629    0.1931 C   0  0  0  0  0  0  0  0  0  0  0  0
   -2.2996    1.6860   -0.0062 H   0  0  0  0  0  0  0  0  0  0  0  0
   -0.3236    2.5237   -0.6182 H   0  0  0  0  0  0  0  0  0  0  0  0
    1.5926    1.2932   -1.4885 H   0  0  0  0  0  0  0  0  0  0  0  0
    1.1434    0.4822    1.5639 H   0  0  0  0  0  0  0  0  0  0  0  0
    2.7570    0.6911    0.6156 H   0  0  0  0  0  0  0  0  0  0  0  0
    2.0439   -1.0811   -0.9723 H   0  0  0  0  0  0  0  0  0  0  0  0
   -0.0365   -1.3964    1.1424 H   0  0  0  0  0  0  0  0  0  0  0  0
    0.4324   -2.5647   -0.0976 H   0  0  0  0  0  0  0  0  0  0  0  0
   -1.6364   -0.7031    1.2768 H   0  0  0  0  0  0  0  0  0  0  0  0
   -2.9368   -0.6103    0.0017 H   0  0  0  0  0  0  0  0  0  0  0  0
  1  2  2  0
  2  3  1  0
  3  4  1  0
  4  5  1  0
  5  6  1  0
  6  7  1  0
  7  8  1  0
  8  1  1  0
  5  3  1  0
  1  9  1  0
  2 10  1  0
  3 11  1  0
  4 12  1  0
  4 13  1  0
  5 14  1  0
  6 15  1  0
  6 16  1  0
  8 17  1  0
  8 18  1  0
M  END
