
     RDKit          3D

 19 21  0  0  0  0  0  0  0  0999 V2000
   -1.4935    1.0936    0.6524 C   0  0  0  0  0  0  0  0  0  0  0  0
   -0.3668    1.7850    0.6565 C   0  0  0  0  0  0  0  0  0  0  0  0
    0.6388    1.1325   -0.2501 C   0  0  0  0  0  0  0  0  0  0  0  0
    1.5489    0.4925    0.5510 O   0  0  0  0  0  0  0  0  0  0  0  0
    1.7770   -0.7348   -0.0023 C   0  0  0  0  0  0  0  0  0  0  0  0
    0.4458   -1.1850   -0.5583 C   0  0  0  0  0  0  0  0  0  0  0  0
   -0.6817   -1.2667    0.4224 C   0  0  0  0  0  0  0  0  0  0  0  0
   -1.3742   -0.0817   -0.2423 C   0  0  0  0  0  0  0  0  0  0  0  0
   -0.1171    0.1266   -1.0438 C   0  0  0  0  0  0  0  0  0  0  0  0
   -2.3700    1.3562    1.2232 H   0  0  0  0  0  0  0  0  0  0  0  0
   -0.1541    2.6909    1.2132 H   0  0  0  0  0  0  0  0  0  0  0  0
    1.1121    1.9055   -0.9017 H   0  0  0  0  0  0  0  0  0  0  0  0
    2.2578   -1.4675    0.6370 H   0  0  0  0  0  0  0  0  0  0  0  0
    2.4443   -0.5923   -0.9028 H   0  0  0  0  0  0  0  0  0  0  0  0
    0.5359   -1.9827   -1.2973 H   0  0  0  0  0  0  0  0  0  0  0  0
   -0.4356   -1.0432    1.4730 H   0  0  0  0  0  0  0  0  0  0  0  0
   -1.3146   -2.1677    0.3084 H   0  0  0  0  0  0  0  0  0  0  0  0
   -2.2331   -0.3226   -0.8651 H   0  0  0  0  0  0  0  0  0  0  0  0
   -0.2199    0.2614   -2.1110 H   0  0  0  0  0  0  0  0  0  0  0  0
  1  2  2  0
  2  3  1  0
  3  4  1  0
  4  5  1  0
  5  6  1  0
  6  7  1  0
  7  8  1  0
  8  9  1  0
  8  1  1  0
  9  3  1  0
  9  6  1  0
  1 10  1  0
  2 11  1  0
  3 12  1  0
  5 13  1  0
  5 14  1  0
  6 15  1  0
  7 16  1  0
  7 17  1  0
  8 18  1  0
  9 19  1  0
M  END
