
     RDKit          3D

 19 21  0  0  0  0  0  0  0  0999 V2000
   -0.1043    1.4331   -0.7582 C   0  0  0  0  0  0  0  0  0  0  0  0
    1.1307    0.9132   -0.9424 C   0  0  0  0  0  0  0  0  0  0  0  0
    1.7947    0.0268   -0.0030 C   0  0  0  0  0  0  0  0  0  0  0  0
    2.0784   -1.2685   -0.1242 O   0  0  0  0  0  0  0  0  0  0  0  0
    0.8195   -1.1552    0.1807 C   0  0  0  0  0  0  0  0  0  0  0  0
   -0.3465   -1.1039   -0.7355 C   0  0  0  0  0  0  0  0  0  0  0  0
   -1.1383   -0.4932    0.4319 C   0  0  0  0  0  0  0  0  0  0  0  0
   -1.2205    0.9884    0.1402 C   0  0  0  0  0  0  0  0  0  0  0  0
    0.0270   -0.8456    1.3376 C   0  0  0  0  0  0  0  0  0  0  0  0
   -0.3615    2.3129   -1.3372 H   0  0  0  0  0  0  0  0  0  0  0  0
    1.5911    1.2214   -1.8699 H   0  0  0  0  0  0  0  0  0  0  0  0
    2.1439    0.5117    0.9539 H   0  0  0  0  0  0  0  0  0  0  0  0
   -0.2326   -0.4571   -1.6019 H   0  0  0  0  0  0  0  0  0  0  0  0
   -0.7129   -2.1511   -0.9451 H   0  0  0  0  0  0  0  0  0  0  0  0
   -2.0762   -1.0075    0.6246 H   0  0  0  0  0  0  0  0  0  0  0  0
   -2.1589    1.1458   -0.4246 H   0  0  0  0  0  0  0  0  0  0  0  0
   -1.2880    1.6071    1.0495 H   0  0  0  0  0  0  0  0  0  0  0  0
    0.3363    0.0068    2.0016 H   0  0  0  0  0  0  0  0  0  0  0  0
   -0.2819   -1.6851    2.0218 H   0  0  0  0  0  0  0  0  0  0  0  0
  1  2  2  0
  2  3  1  0
  3  4  1  0
  4  5  1  0
  5  6  1  0
  6  7  1  0
  7  8  1  0
  7  9  1  0
  8  1  1  0
  5  3  1  0
  9  5  1  0
  1 10  1  0
  2 11  1  0
  3 12  1  0
  6 13  1  0
  6 14  1  0
  7 15  1  0
  8 16  1  0
  8 17  1  0
  9 18  1  0
  9 19  1  0
M  END
