
     RDKit          3D

 19 21  0  0  0  0  0  0  0  0999 V2000
    2.5043   -0.3757    0.1745 C   0  0  0  0  0  0  0  0  0  0  0  0
    1.3906   -1.0638   -0.0424 C   0  0  0  0  0  0  0  0  0  0  0  0
    0.3716   -0.0611   -0.4638 C   0  0  0  0  0  0  0  0  0  0  0  0
    1.1654    0.8986   -1.0768 O   0  0  0  0  0  0  0  0  0  0  0  0
    2.1891    1.0759   -0.1126 C   0  0  0  0  0  0  0  0  0  0  0  0
   -0.5996    0.3232    0.4866 C   0  0  0  0  0  0  0  0  0  0  0  0
   -1.9092   -0.3917    0.8374 C   0  0  0  0  0  0  0  0  0  0  0  0
   -2.2771    0.2618   -0.5150 C   0  0  0  0  0  0  0  0  0  0  0  0
   -0.9486   -0.4130   -0.8803 C   0  0  0  0  0  0  0  0  0  0  0  0
    3.4579   -0.7926    0.4982 H   0  0  0  0  0  0  0  0  0  0  0  0
    1.2744   -2.1380    0.0718 H   0  0  0  0  0  0  0  0  0  0  0  0
    1.8178    1.5331    0.8061 H   0  0  0  0  0  0  0  0  0  0  0  0
    3.0914    1.5109   -0.5389 H   0  0  0  0  0  0  0  0  0  0  0  0
   -0.8527    1.4314    0.4749 H   0  0  0  0  0  0  0  0  0  0  0  0
   -2.4117    0.0459    1.6965 H   0  0  0  0  0  0  0  0  0  0  0  0
   -1.7627   -1.4647    0.8001 H   0  0  0  0  0  0  0  0  0  0  0  0
   -2.2422    1.3511   -0.4601 H   0  0  0  0  0  0  0  0  0  0  0  0
   -3.1249   -0.2032   -1.0042 H   0  0  0  0  0  0  0  0  0  0  0  0
   -1.1338   -1.5284   -0.7517 H   0  0  0  0  0  0  0  0  0  0  0  0
  1  2  2  0
  2  3  1  0
  3  4  1  0
  4  5  1  0
  3  6  1  0
  6  7  1  0
  7  8  1  0
  8  9  1  0
  5  1  1  0
  9  6  1  0
  9  3  1  0
  1 10  1  0
  2 11  1  0
  5 12  1  0
  5 13  1  0
  6 14  1  0
  7 15  1  0
  7 16  1  0
  8 17  1  0
  8 18  1  0
  9 19  1  0
M  END
