
     RDKit          3D

 21 22  0  0  0  0  0  0  0  0999 V2000
   -2.0861    1.1002   -0.0175 C   0  0  0  0  0  0  0  0  0  0  0  0
   -0.9333    1.6509    0.2540 C   0  0  0  0  0  0  0  0  0  0  0  0
    0.3220    0.8996    0.1179 C   0  0  0  0  0  0  0  0  0  0  0  0
    1.5904    1.1914    0.2998 C   0  0  0  0  0  0  0  0  0  0  0  0
    2.4638    0.0031    0.0039 C   0  0  0  0  0  0  0  0  0  0  0  0
    1.4563   -1.1472    0.1877 C   0  0  0  0  0  0  0  0  0  0  0  0
    0.2258   -0.4940   -0.3229 C   0  0  0  0  0  0  0  0  0  0  0  0
   -1.0533   -1.0891    0.2070 C   0  0  0  0  0  0  0  0  0  0  0  0
   -2.1799   -0.3057   -0.4744 C   0  0  0  0  0  0  0  0  0  0  0  0
   -3.0179    1.6479    0.0804 H   0  0  0  0  0  0  0  0  0  0  0  0
   -0.8929    2.6829    0.5871 H   0  0  0  0  0  0  0  0  0  0  0  0
    2.0031    2.1312    0.6152 H   0  0  0  0  0  0  0  0  0  0  0  0
    3.2564   -0.1260    0.7491 H   0  0  0  0  0  0  0  0  0  0  0  0
    2.7903    0.0993   -1.0293 H   0  0  0  0  0  0  0  0  0  0  0  0
    1.8033   -1.9970   -0.4373 H   0  0  0  0  0  0  0  0  0  0  0  0
    1.4250   -1.4201    1.2546 H   0  0  0  0  0  0  0  0  0  0  0  0
    0.1923   -0.5606   -1.4290 H   0  0  0  0  0  0  0  0  0  0  0  0
   -1.0971   -2.1612   -0.1169 H   0  0  0  0  0  0  0  0  0  0  0  0
   -1.1755   -0.9787    1.2927 H   0  0  0  0  0  0  0  0  0  0  0  0
   -3.1345   -0.7873   -0.2407 H   0  0  0  0  0  0  0  0  0  0  0  0
   -1.9583   -0.3397   -1.5816 H   0  0  0  0  0  0  0  0  0  0  0  0
  1  2  2  0
  2  3  1  0
  3  4  2  0
  4  5  1  0
  5  6  1  0
  6  7  1  0
  7  8  1  0
  8  9  1  0
  9  1  1  0
  7  3  1  0
  1 10  1  0
  2 11  1  0
  4 12  1  0
  5 13  1  0
  5 14  1  0
  6 15  1  0
  6 16  1  0
  7 17  1  0
  8 18  1  0
  8 19  1  0
  9 20  1  0
  9 21  1  0
M  END
