
     RDKit          3D

 21 22  0  0  0  0  0  0  0  0999 V2000
    1.4438    1.1735    0.0835 C   0  0  0  0  0  0  0  0  0  0  0  0
    0.2168    1.5566    0.3238 C   0  0  0  0  0  0  0  0  0  0  0  0
   -1.1788    1.0711    0.2036 C   0  0  0  0  0  0  0  0  0  0  0  0
   -1.4345   -0.1531    1.0523 C   0  0  0  0  0  0  0  0  0  0  0  0
   -1.2599   -0.9886   -0.2021 C   0  0  0  0  0  0  0  0  0  0  0  0
    0.0940   -1.5985   -0.2529 C   0  0  0  0  0  0  0  0  0  0  0  0
    1.3527   -1.2282   -0.3521 C   0  0  0  0  0  0  0  0  0  0  0  0
    2.2273   -0.0907    0.0870 C   0  0  0  0  0  0  0  0  0  0  0  0
   -1.3753    0.2333   -1.0651 C   0  0  0  0  0  0  0  0  0  0  0  0
    2.0978    2.0157   -0.2058 H   0  0  0  0  0  0  0  0  0  0  0  0
    0.2124    2.5728    0.7581 H   0  0  0  0  0  0  0  0  0  0  0  0
   -1.9450    1.8187    0.3756 H   0  0  0  0  0  0  0  0  0  0  0  0
   -0.6679   -0.3794    1.8008 H   0  0  0  0  0  0  0  0  0  0  0  0
   -2.4585   -0.1955    1.4821 H   0  0  0  0  0  0  0  0  0  0  0  0
   -2.0751   -1.7008   -0.3204 H   0  0  0  0  0  0  0  0  0  0  0  0
    0.0244   -2.6779   -0.1881 H   0  0  0  0  0  0  0  0  0  0  0  0
    1.9166   -1.9626   -0.9163 H   0  0  0  0  0  0  0  0  0  0  0  0
    3.1217   -0.0299   -0.5736 H   0  0  0  0  0  0  0  0  0  0  0  0
    2.6341   -0.2881    1.1139 H   0  0  0  0  0  0  0  0  0  0  0  0
   -0.5493    0.4443   -1.7512 H   0  0  0  0  0  0  0  0  0  0  0  0
   -2.3974    0.4073   -1.4531 H   0  0  0  0  0  0  0  0  0  0  0  0
  1  2  2  3
  2  3  1  0
  3  4  1  0
  4  5  1  0
  5  6  1  0
  6  7  2  3
  7  8  1  0
  5  9  1  0
  8  1  1  0
  9  3  1  0
  1 10  1  0
  2 11  1  0
  3 12  1  0
  4 13  1  0
  4 14  1  0
  5 15  1  0
  6 16  1  0
  7 17  1  0
  8 18  1  0
  8 19  1  0
  9 20  1  0
  9 21  1  0
M  END
