
     RDKit          3D

 20 20  0  0  0  0  0  0  0  0999 V2000
    0.3517   -1.4120   -0.6270 C   0  0  0  0  0  0  0  0  0  0  0  0
   -0.9421   -1.1653   -0.4589 C   0  0  0  0  0  0  0  0  0  0  0  0
   -1.6636   -0.4292    0.6274 C   0  0  0  0  0  0  0  0  0  0  0  0
   -1.6436    1.0472    0.3140 C   0  0  0  0  0  0  0  0  0  0  0  0
   -0.4214    1.4766   -0.3869 C   0  0  0  0  0  0  0  0  0  0  0  0
    0.8893    1.2411   -0.3858 C   0  0  0  0  0  0  0  0  0  0  0  0
    1.7722    0.3658    0.3903 C   0  0  0  0  0  0  0  0  0  0  0  0
    1.6031   -1.1046    0.1159 C   0  0  0  0  0  0  0  0  0  0  0  0
    0.5547   -1.9895   -1.5473 H   0  0  0  0  0  0  0  0  0  0  0  0
   -1.5796   -1.5665   -1.2429 H   0  0  0  0  0  0  0  0  0  0  0  0
   -1.1762   -0.6299    1.5819 H   0  0  0  0  0  0  0  0  0  0  0  0
   -2.7218   -0.7640    0.6584 H   0  0  0  0  0  0  0  0  0  0  0  0
   -1.8472    1.6357    1.2424 H   0  0  0  0  0  0  0  0  0  0  0  0
   -2.5099    1.2361   -0.3533 H   0  0  0  0  0  0  0  0  0  0  0  0
   -0.6505    2.2185   -1.1423 H   0  0  0  0  0  0  0  0  0  0  0  0
    1.4366    1.8200   -1.1183 H   0  0  0  0  0  0  0  0  0  0  0  0
    1.7042    0.5878    1.4976 H   0  0  0  0  0  0  0  0  0  0  0  0
    2.8547    0.5973    0.1601 H   0  0  0  0  0  0  0  0  0  0  0  0
    1.5154   -1.6207    1.0979 H   0  0  0  0  0  0  0  0  0  0  0  0
    2.4740   -1.5441   -0.4230 H   0  0  0  0  0  0  0  0  0  0  0  0
  1  2  2  3
  2  3  1  0
  3  4  1  0
  4  5  1  0
  5  6  2  3
  6  7  1  0
  7  8  1  0
  8  1  1  0
  1  9  1  0
  2 10  1  0
  3 11  1  0
  3 12  1  0
  4 13  1  0
  4 14  1  0
  5 15  1  0
  6 16  1  0
  7 17  1  0
  7 18  1  0
  8 19  1  0
  8 20  1  0
M  END
