
     RDKit          3D

 19 21  0  0  0  0  0  0  0  0999 V2000
   -0.5265   -0.8817    1.1632 C   0  0  0  0  0  0  0  0  0  0  0  0
    0.7839   -0.9845    0.9655 C   0  0  0  0  0  0  0  0  0  0  0  0
    1.0875   -0.3613   -0.3134 C   0  0  0  0  0  0  0  0  0  0  0  0
    2.4220   -0.2335   -0.8904 C   0  0  0  0  0  0  0  0  0  0  0  0
    1.8531    0.9850   -0.1870 C   0  0  0  0  0  0  0  0  0  0  0  0
   -0.0764   -0.3441   -1.0152 O   0  0  0  0  0  0  0  0  0  0  0  0
   -1.0571   -0.1706   -0.0335 C   0  0  0  0  0  0  0  0  0  0  0  0
   -2.4963   -0.3018   -0.3461 C   0  0  0  0  0  0  0  0  0  0  0  0
   -1.8829    1.0309    0.0603 C   0  0  0  0  0  0  0  0  0  0  0  0
   -1.1342   -1.2208    1.9927 H   0  0  0  0  0  0  0  0  0  0  0  0
    1.4428   -1.4746    1.7017 H   0  0  0  0  0  0  0  0  0  0  0  0
    2.4802   -0.2245   -2.0076 H   0  0  0  0  0  0  0  0  0  0  0  0
    3.2664   -0.7460   -0.4083 H   0  0  0  0  0  0  0  0  0  0  0  0
    2.2909    1.2174    0.8042 H   0  0  0  0  0  0  0  0  0  0  0  0
    1.4645    1.8218   -0.8153 H   0  0  0  0  0  0  0  0  0  0  0  0
   -2.8196   -0.4443   -1.3894 H   0  0  0  0  0  0  0  0  0  0  0  0
   -3.1241   -0.8369    0.4192 H   0  0  0  0  0  0  0  0  0  0  0  0
   -2.1255    1.4071    1.0738 H   0  0  0  0  0  0  0  0  0  0  0  0
   -1.8488    1.7623   -0.7747 H   0  0  0  0  0  0  0  0  0  0  0  0
  1  2  2  0
  2  3  1  0
  3  4  1  0
  4  5  1  0
  3  6  1  0
  6  7  1  0
  7  8  1  0
  8  9  1  0
  7  1  1  0
  5  3  1  0
  9  7  1  0
  1 10  1  0
  2 11  1  0
  4 12  1  0
  4 13  1  0
  5 14  1  0
  5 15  1  0
  8 16  1  0
  8 17  1  0
  9 18  1  0
  9 19  1  0
M  END
