
     RDKit          3D

 17 19  0  0  0  0  0  0  0  0999 V2000
    0.8106   -0.5510    1.0800 C   0  0  0  0  0  0  0  0  0  0  0  0
   -0.0630   -0.3690    0.1112 C   0  0  0  0  0  0  0  0  0  0  0  0
   -1.4682   -0.9639    0.0893 C   0  0  0  0  0  0  0  0  0  0  0  0
   -2.6235   -0.0416    0.0218 C   0  0  0  0  0  0  0  0  0  0  0  0
   -2.1424   -0.7545   -1.0889 O   0  0  0  0  0  0  0  0  0  0  0  0
    0.5003    0.4824   -0.9561 C   0  0  0  0  0  0  0  0  0  0  0  0
    1.7729    1.0094   -0.4421 C   0  0  0  0  0  0  0  0  0  0  0  0
    1.9260    1.5528    0.8275 O   0  0  0  0  0  0  0  0  0  0  0  0
    2.0432    0.1679    0.7599 C   0  0  0  0  0  0  0  0  0  0  0  0
    0.6185   -1.1405    1.9554 H   0  0  0  0  0  0  0  0  0  0  0  0
   -1.5863   -1.9610    0.5530 H   0  0  0  0  0  0  0  0  0  0  0  0
   -2.3829    1.0376    0.1080 H   0  0  0  0  0  0  0  0  0  0  0  0
   -3.5870   -0.4220    0.3877 H   0  0  0  0  0  0  0  0  0  0  0  0
    0.7529   -0.1939   -1.8312 H   0  0  0  0  0  0  0  0  0  0  0  0
   -0.2316    1.2572   -1.2802 H   0  0  0  0  0  0  0  0  0  0  0  0
    2.6290    1.1951   -1.1273 H   0  0  0  0  0  0  0  0  0  0  0  0
    3.0314   -0.3051    0.8321 H   0  0  0  0  0  0  0  0  0  0  0  0
  1  2  2  0
  2  3  1  0
  3  4  1  0
  4  5  1  0
  2  6  1  0
  6  7  1  0
  7  8  1  0
  8  9  1  0
  9  1  1  0
  5  3  1  0
  9  7  1  0
  1 10  1  0
  3 11  1  0
  4 12  1  0
  4 13  1  0
  6 14  1  0
  6 15  1  0
  7 16  1  0
  9 17  1  0
M  END
