
     RDKit          3D

 19 21  0  0  0  0  0  0  0  0999 V2000
    2.0203    0.2166    0.2234 C   0  0  0  0  0  0  0  0  0  0  0  0
    1.3237    1.1724   -0.3919 C   0  0  0  0  0  0  0  0  0  0  0  0
   -0.1037    0.9428   -0.6228 C   0  0  0  0  0  0  0  0  0  0  0  0
   -0.4750   -0.5041   -0.8174 C   0  0  0  0  0  0  0  0  0  0  0  0
   -1.9908   -0.3778   -0.7546 C   0  0  0  0  0  0  0  0  0  0  0  0
   -2.0829    0.4892    0.3670 O   0  0  0  0  0  0  0  0  0  0  0  0
   -0.7674    0.6926    0.7394 C   0  0  0  0  0  0  0  0  0  0  0  0
   -0.1940   -0.6930    0.6659 C   0  0  0  0  0  0  0  0  0  0  0  0
    1.2413   -0.8194    0.9434 C   0  0  0  0  0  0  0  0  0  0  0  0
    3.1071    0.1716    0.2160 H   0  0  0  0  0  0  0  0  0  0  0  0
    1.7575    2.1079   -0.7293 H   0  0  0  0  0  0  0  0  0  0  0  0
   -0.6321    1.6739   -1.2523 H   0  0  0  0  0  0  0  0  0  0  0  0
   -0.0144   -1.1058   -1.5296 H   0  0  0  0  0  0  0  0  0  0  0  0
   -2.4692   -1.3495   -0.5497 H   0  0  0  0  0  0  0  0  0  0  0  0
   -2.3921    0.1436   -1.6405 H   0  0  0  0  0  0  0  0  0  0  0  0
   -0.5227    1.3392    1.5344 H   0  0  0  0  0  0  0  0  0  0  0  0
   -0.8704   -1.4439    1.0710 H   0  0  0  0  0  0  0  0  0  0  0  0
    1.4739   -0.8481    2.0055 H   0  0  0  0  0  0  0  0  0  0  0  0
    1.5910   -1.8081    0.5220 H   0  0  0  0  0  0  0  0  0  0  0  0
  1  2  2  0
  2  3  1  0
  3  4  1  0
  4  5  1  0
  5  6  1  0
  6  7  1  0
  7  8  1  0
  8  9  1  0
  9  1  1  0
  7  3  1  0
  8  4  1  0
  1 10  1  0
  2 11  1  0
  3 12  1  0
  4 13  1  0
  5 14  1  0
  5 15  1  0
  7 16  1  0
  8 17  1  0
  9 18  1  0
  9 19  1  0
M  END
