
     RDKit          3D

 19 21  0  0  0  0  0  0  0  0999 V2000
   -2.0599   -0.0836   -0.3060 C   0  0  0  0  0  0  0  0  0  0  0  0
   -1.3908    1.0612   -0.2590 C   0  0  0  0  0  0  0  0  0  0  0  0
   -0.1355    0.9093    0.4636 C   0  0  0  0  0  0  0  0  0  0  0  0
    0.0533   -0.5615    0.7160 C   0  0  0  0  0  0  0  0  0  0  0  0
   -1.3007   -1.1529    0.4008 C   0  0  0  0  0  0  0  0  0  0  0  0
    1.1026   -1.0257   -0.2368 C   0  0  0  0  0  0  0  0  0  0  0  0
    1.9186    0.2056   -0.5049 C   0  0  0  0  0  0  0  0  0  0  0  0
    2.2691    1.0630    0.5086 O   0  0  0  0  0  0  0  0  0  0  0  0
    1.0796    1.3184   -0.3350 C   0  0  0  0  0  0  0  0  0  0  0  0
   -3.0077   -0.2410   -0.7764 H   0  0  0  0  0  0  0  0  0  0  0  0
   -1.7548    1.9734   -0.7082 H   0  0  0  0  0  0  0  0  0  0  0  0
   -0.1377    1.4750    1.3942 H   0  0  0  0  0  0  0  0  0  0  0  0
    0.3016   -0.7131    1.7813 H   0  0  0  0  0  0  0  0  0  0  0  0
   -1.1410   -2.0501   -0.2426 H   0  0  0  0  0  0  0  0  0  0  0  0
   -1.8809   -1.4076    1.3153 H   0  0  0  0  0  0  0  0  0  0  0  0
    0.5898   -1.2958   -1.2061 H   0  0  0  0  0  0  0  0  0  0  0  0
    1.7037   -1.8562    0.1468 H   0  0  0  0  0  0  0  0  0  0  0  0
    2.6794    0.1067   -1.3020 H   0  0  0  0  0  0  0  0  0  0  0  0
    1.1112    2.2749   -0.8496 H   0  0  0  0  0  0  0  0  0  0  0  0
  1  2  2  0
  2  3  1  0
  3  4  1  0
  4  5  1  0
  4  6  1  0
  6  7  1  0
  7  8  1  0
  8  9  1  0
  5  1  1  0
  9  7  1  0
  9  3  1  0
  1 10  1  0
  2 11  1  0
  3 12  1  0
  4 13  1  0
  5 14  1  0
  5 15  1  0
  6 16  1  0
  6 17  1  0
  7 18  1  0
  9 19  1  0
M  END
