
     RDKit          3D

 17 19  0  0  0  0  0  0  0  0999 V2000
   -1.0144    1.4030   -0.1361 C   0  0  0  0  0  0  0  0  0  0  0  0
   -0.8990    0.9452    1.1112 C   0  0  0  0  0  0  0  0  0  0  0  0
   -0.1301   -0.3557    1.0423 C   0  0  0  0  0  0  0  0  0  0  0  0
   -0.9746   -1.3314    0.2742 C   0  0  0  0  0  0  0  0  0  0  0  0
   -1.1024   -0.8222   -0.9487 C   0  0  0  0  0  0  0  0  0  0  0  0
   -0.2969    0.4349   -1.0156 C   0  0  0  0  0  0  0  0  0  0  0  0
    0.8286    0.0659   -0.0719 C   0  0  0  0  0  0  0  0  0  0  0  0
    2.0800   -0.3451   -0.2736 C   0  0  0  0  0  0  0  0  0  0  0  0
    1.7933    0.9892    0.2420 O   0  0  0  0  0  0  0  0  0  0  0  0
   -1.5366    2.3043   -0.4002 H   0  0  0  0  0  0  0  0  0  0  0  0
   -1.2602    1.3696    2.0372 H   0  0  0  0  0  0  0  0  0  0  0  0
    0.3020   -0.6912    1.9378 H   0  0  0  0  0  0  0  0  0  0  0  0
   -1.3598   -2.2356    0.6971 H   0  0  0  0  0  0  0  0  0  0  0  0
   -1.6840   -1.2397   -1.7533 H   0  0  0  0  0  0  0  0  0  0  0  0
   -0.0242    0.7736   -1.9775 H   0  0  0  0  0  0  0  0  0  0  0  0
    2.6419   -0.9898    0.4635 H   0  0  0  0  0  0  0  0  0  0  0  0
    2.6362   -0.2751   -1.2283 H   0  0  0  0  0  0  0  0  0  0  0  0
  1  2  2  0
  2  3  1  0
  3  4  1  0
  4  5  2  0
  5  6  1  0
  6  7  1  0
  7  8  1  0
  8  9  1  0
  6  1  1  0
  9  7  1  0
  7  3  1  0
  1 10  1  0
  2 11  1  0
  3 12  1  0
  4 13  1  0
  5 14  1  0
  6 15  1  0
  8 16  1  0
  8 17  1  0
M  END
