
     RDKit          3D

 19 21  0  0  0  0  0  0  0  0999 V2000
   -0.7776   -1.3578    0.5100 C   0  0  0  0  0  0  0  0  0  0  0  0
    0.3033   -0.6403    0.3685 C   0  0  0  0  0  0  0  0  0  0  0  0
    1.7209   -0.5881    0.7866 C   0  0  0  0  0  0  0  0  0  0  0  0
    2.3157    0.4682   -0.0713 C   0  0  0  0  0  0  0  0  0  0  0  0
    1.2079    1.1289   -0.7475 C   0  0  0  0  0  0  0  0  0  0  0  0
    0.0824    0.4885   -0.4886 C   0  0  0  0  0  0  0  0  0  0  0  0
   -1.3569    0.5646   -0.8247 C   0  0  0  0  0  0  0  0  0  0  0  0
   -2.3515    0.5895    0.2470 C   0  0  0  0  0  0  0  0  0  0  0  0
   -1.8698   -0.7494   -0.2485 C   0  0  0  0  0  0  0  0  0  0  0  0
   -0.9228   -2.2775    1.0858 H   0  0  0  0  0  0  0  0  0  0  0  0
    2.1407   -1.6077    0.5798 H   0  0  0  0  0  0  0  0  0  0  0  0
    1.8260   -0.3873    1.8762 H   0  0  0  0  0  0  0  0  0  0  0  0
    3.0836    0.0668   -0.7863 H   0  0  0  0  0  0  0  0  0  0  0  0
    2.8351    1.1849    0.6454 H   0  0  0  0  0  0  0  0  0  0  0  0
    1.3050    2.0295   -1.3795 H   0  0  0  0  0  0  0  0  0  0  0  0
   -1.6055    0.7915   -1.8900 H   0  0  0  0  0  0  0  0  0  0  0  0
   -3.4292    0.7741    0.0033 H   0  0  0  0  0  0  0  0  0  0  0  0
   -2.0055    0.8652    1.2623 H   0  0  0  0  0  0  0  0  0  0  0  0
   -2.5018   -1.3438   -0.9286 H   0  0  0  0  0  0  0  0  0  0  0  0
  1  2  2  0
  2  3  1  0
  3  4  1  0
  4  5  1  0
  5  6  2  0
  6  7  1  0
  7  8  1  0
  8  9  1  0
  9  1  1  0
  6  2  1  0
  9  7  1  0
  1 10  1  0
  3 11  1  0
  3 12  1  0
  4 13  1  0
  4 14  1  0
  5 15  1  0
  7 16  1  0
  8 17  1  0
  8 18  1  0
  9 19  1  0
M  END
