
     RDKit          3D

 21 22  0  0  0  0  0  0  0  0999 V2000
   -2.2220    1.2510    0.5180 C   0  0  0  0  0  0  0  0  0  0  0  0
   -2.1150    0.8718   -0.7476 C   0  0  0  0  0  0  0  0  0  0  0  0
   -1.0371   -0.1876   -0.8471 C   0  0  0  0  0  0  0  0  0  0  0  0
   -0.1752    0.2015    0.3223 C   0  0  0  0  0  0  0  0  0  0  0  0
    0.7974   -0.8157    0.7730 C   0  0  0  0  0  0  0  0  0  0  0  0
    1.7670   -1.1335   -0.3225 C   0  0  0  0  0  0  0  0  0  0  0  0
    2.6388   -0.0370   -0.8736 C   0  0  0  0  0  0  0  0  0  0  0  0
    1.6065   -0.5898   -1.5947 O   0  0  0  0  0  0  0  0  0  0  0  0
   -1.2518    0.4987    1.3536 C   0  0  0  0  0  0  0  0  0  0  0  0
   -2.9181    1.9976    0.8662 H   0  0  0  0  0  0  0  0  0  0  0  0
   -2.6554    1.2005   -1.6254 H   0  0  0  0  0  0  0  0  0  0  0  0
   -1.5638   -1.1337   -0.5971 H   0  0  0  0  0  0  0  0  0  0  0  0
   -0.5707   -0.1848   -1.8227 H   0  0  0  0  0  0  0  0  0  0  0  0
    0.3008    1.2025    0.1178 H   0  0  0  0  0  0  0  0  0  0  0  0
    1.3931   -0.5104    1.6605 H   0  0  0  0  0  0  0  0  0  0  0  0
    0.2557   -1.7787    1.0113 H   0  0  0  0  0  0  0  0  0  0  0  0
    2.1826   -2.1682   -0.3709 H   0  0  0  0  0  0  0  0  0  0  0  0
    2.4807    1.0018   -0.5238 H   0  0  0  0  0  0  0  0  0  0  0  0
    3.6734   -0.3291   -1.1305 H   0  0  0  0  0  0  0  0  0  0  0  0
   -0.8645    1.0924    2.1983 H   0  0  0  0  0  0  0  0  0  0  0  0
   -1.7223   -0.4492    1.6346 H   0  0  0  0  0  0  0  0  0  0  0  0
  1  2  2  0
  2  3  1  0
  3  4  1  0
  4  5  1  0
  5  6  1  0
  6  7  1  0
  7  8  1  0
  4  9  1  0
  9  1  1  0
  8  6  1  0
  1 10  1  0
  2 11  1  0
  3 12  1  0
  3 13  1  0
  4 14  1  0
  5 15  1  0
  5 16  1  0
  6 17  1  0
  7 18  1  0
  7 19  1  0
  9 20  1  0
  9 21  1  0
M  END
