
     RDKit          3D

 19 20  0  0  0  0  0  0  0  0999 V2000
    1.5555    0.7404    0.0429 C   0  0  0  0  0  0  0  0  0  0  0  0
    0.4569    1.4667   -0.0740 C   0  0  0  0  0  0  0  0  0  0  0  0
   -0.9633    1.1543    0.0629 C   0  0  0  0  0  0  0  0  0  0  0  0
   -1.2505    0.0217    1.0373 C   0  0  0  0  0  0  0  0  0  0  0  0
   -0.6056   -1.1267    0.2759 C   0  0  0  0  0  0  0  0  0  0  0  0
   -0.7295   -0.6505   -1.1423 C   0  0  0  0  0  0  0  0  0  0  0  0
   -1.4113    0.5690   -1.1225 O   0  0  0  0  0  0  0  0  0  0  0  0
    0.6533   -1.3948    0.6984 O   0  0  0  0  0  0  0  0  0  0  0  0
    1.6812   -0.7196    0.1138 C   0  0  0  0  0  0  0  0  0  0  0  0
    2.4972    1.2724    0.0936 H   0  0  0  0  0  0  0  0  0  0  0  0
    0.6272    2.5316   -0.3269 H   0  0  0  0  0  0  0  0  0  0  0  0
   -1.5630    2.0581    0.3142 H   0  0  0  0  0  0  0  0  0  0  0  0
   -0.8208    0.1817    2.0224 H   0  0  0  0  0  0  0  0  0  0  0  0
   -2.3472   -0.1192    1.0568 H   0  0  0  0  0  0  0  0  0  0  0  0
   -1.2403   -2.0218    0.4504 H   0  0  0  0  0  0  0  0  0  0  0  0
    0.2196   -0.4551   -1.6470 H   0  0  0  0  0  0  0  0  0  0  0  0
   -1.3292   -1.4162   -1.7179 H   0  0  0  0  0  0  0  0  0  0  0  0
    1.9769   -1.1535   -0.8883 H   0  0  0  0  0  0  0  0  0  0  0  0
    2.5930   -0.9385    0.7503 H   0  0  0  0  0  0  0  0  0  0  0  0
  1  2  2  0
  2  3  1  0
  3  4  1  0
  4  5  1  0
  5  6  1  0
  6  7  1  0
  5  8  1  0
  8  9  1  0
  9  1  1  0
  7  3  1  0
  1 10  1  0
  2 11  1  0
  3 12  1  0
  4 13  1  0
  4 14  1  0
  5 15  1  0
  6 16  1  0
  6 17  1  0
  9 18  1  0
  9 19  1  0
M  END
