
     RDKit          3D

 19 21  0  0  0  0  0  0  0  0999 V2000
    2.0401    0.4059    0.3098 C   0  0  0  0  0  0  0  0  0  0  0  0
    1.2309    1.4794    0.3617 C   0  0  0  0  0  0  0  0  0  0  0  0
   -0.1526    1.2881   -0.1465 C   0  0  0  0  0  0  0  0  0  0  0  0
   -0.7651    0.0027    0.2137 C   0  0  0  0  0  0  0  0  0  0  0  0
   -2.1703   -0.2337    0.5098 C   0  0  0  0  0  0  0  0  0  0  0  0
   -1.6464   -0.6928   -0.7980 C   0  0  0  0  0  0  0  0  0  0  0  0
   -0.6857   -1.6887   -0.8792 O   0  0  0  0  0  0  0  0  0  0  0  0
    0.1358   -1.1931    0.1322 C   0  0  0  0  0  0  0  0  0  0  0  0
    1.5409   -0.8898   -0.2348 C   0  0  0  0  0  0  0  0  0  0  0  0
    3.0459    0.5523    0.6815 H   0  0  0  0  0  0  0  0  0  0  0  0
    1.5849    2.4260    0.7562 H   0  0  0  0  0  0  0  0  0  0  0  0
   -0.1453    1.5127   -1.2502 H   0  0  0  0  0  0  0  0  0  0  0  0
   -0.7633    2.1174    0.3185 H   0  0  0  0  0  0  0  0  0  0  0  0
   -2.8593    0.6061    0.4965 H   0  0  0  0  0  0  0  0  0  0  0  0
   -2.3840   -1.0707    1.2367 H   0  0  0  0  0  0  0  0  0  0  0  0
   -1.9861   -0.1716   -1.6979 H   0  0  0  0  0  0  0  0  0  0  0  0
    0.0249   -1.7992    1.0741 H   0  0  0  0  0  0  0  0  0  0  0  0
    2.1933   -1.6809    0.2403 H   0  0  0  0  0  0  0  0  0  0  0  0
    1.7615   -0.9702   -1.3244 H   0  0  0  0  0  0  0  0  0  0  0  0
  1  2  2  0
  2  3  1  0
  3  4  1  0
  4  5  1  0
  5  6  1  0
  6  7  1  0
  7  8  1  0
  8  9  1  0
  9  1  1  0
  6  4  1  0
  8  4  1  0
  1 10  1  0
  2 11  1  0
  3 12  1  0
  3 13  1  0
  5 14  1  0
  5 15  1  0
  6 16  1  0
  8 17  1  0
  9 18  1  0
  9 19  1  0
M  END
