
     RDKit          3D

 21 22  0  0  0  0  0  0  0  0999 V2000
    1.7037   -0.4181   -0.3144 C   0  0  0  0  0  0  0  0  0  0  0  0
    0.8466   -1.4255   -0.3003 C   0  0  0  0  0  0  0  0  0  0  0  0
   -0.4865   -1.6665    0.3043 C   0  0  0  0  0  0  0  0  0  0  0  0
   -1.3638   -0.4624    0.1424 C   0  0  0  0  0  0  0  0  0  0  0  0
   -1.0523    0.3610   -1.0688 C   0  0  0  0  0  0  0  0  0  0  0  0
   -0.4978    1.4745   -0.1837 C   0  0  0  0  0  0  0  0  0  0  0  0
   -0.8949    0.7025    0.9999 C   0  0  0  0  0  0  0  0  0  0  0  0
    0.7961    1.7479   -0.3866 O   0  0  0  0  0  0  0  0  0  0  0  0
    1.7415    0.9761    0.2084 C   0  0  0  0  0  0  0  0  0  0  0  0
    2.6033   -0.7006   -0.8486 H   0  0  0  0  0  0  0  0  0  0  0  0
    1.1603   -2.2991   -0.8515 H   0  0  0  0  0  0  0  0  0  0  0  0
   -0.9997   -2.5215   -0.1741 H   0  0  0  0  0  0  0  0  0  0  0  0
   -0.3068   -1.9297    1.3719 H   0  0  0  0  0  0  0  0  0  0  0  0
   -2.4321   -0.7143    0.2932 H   0  0  0  0  0  0  0  0  0  0  0  0
   -1.9306    0.6609   -1.6821 H   0  0  0  0  0  0  0  0  0  0  0  0
   -0.3015   -0.1255   -1.7175 H   0  0  0  0  0  0  0  0  0  0  0  0
   -1.1329    2.3980   -0.3243 H   0  0  0  0  0  0  0  0  0  0  0  0
   -1.7719    1.1497    1.5552 H   0  0  0  0  0  0  0  0  0  0  0  0
   -0.1595    0.3626    1.7161 H   0  0  0  0  0  0  0  0  0  0  0  0
    2.7431    1.4265   -0.0591 H   0  0  0  0  0  0  0  0  0  0  0  0
    1.7357    1.0035    1.3197 H   0  0  0  0  0  0  0  0  0  0  0  0
  1  2  2  3
  2  3  1  0
  3  4  1  0
  4  5  1  0
  5  6  1  0
  6  7  1  0
  6  8  1  0
  8  9  1  0
  9  1  1  0
  7  4  1  0
  1 10  1  0
  2 11  1  0
  3 12  1  0
  3 13  1  0
  4 14  1  0
  5 15  1  0
  5 16  1  0
  6 17  1  0
  7 18  1  0
  7 19  1  0
  9 20  1  0
  9 21  1  0
M  END
