
     RDKit          3D

 21 23  0  0  0  0  0  0  0  0999 V2000
    2.0518    0.2978    0.5092 C   0  0  0  0  0  0  0  0  0  0  0  0
    1.7700   -1.0116    0.4828 C   0  0  0  0  0  0  0  0  0  0  0  0
    0.5148   -1.2226   -0.3187 C   0  0  0  0  0  0  0  0  0  0  0  0
    0.6624   -0.0480   -1.2913 C   0  0  0  0  0  0  0  0  0  0  0  0
    0.8916    0.9809   -0.1699 C   0  0  0  0  0  0  0  0  0  0  0  0
   -0.3016    0.7498    0.6830 C   0  0  0  0  0  0  0  0  0  0  0  0
   -1.6375    1.1043    0.1372 C   0  0  0  0  0  0  0  0  0  0  0  0
   -1.8829   -0.3674   -0.1434 C   0  0  0  0  0  0  0  0  0  0  0  0
   -0.6190   -0.7474    0.5349 C   0  0  0  0  0  0  0  0  0  0  0  0
    2.9194    0.7715    0.9246 H   0  0  0  0  0  0  0  0  0  0  0  0
    2.3358   -1.8068    0.9524 H   0  0  0  0  0  0  0  0  0  0  0  0
    0.4246   -2.1763   -0.7784 H   0  0  0  0  0  0  0  0  0  0  0  0
   -0.2323    0.1490   -1.8624 H   0  0  0  0  0  0  0  0  0  0  0  0
    1.5917   -0.1723   -1.8460 H   0  0  0  0  0  0  0  0  0  0  0  0
    1.0913    1.9669   -0.5143 H   0  0  0  0  0  0  0  0  0  0  0  0
   -0.1146    0.9673    1.7515 H   0  0  0  0  0  0  0  0  0  0  0  0
   -1.6764    1.7718   -0.7239 H   0  0  0  0  0  0  0  0  0  0  0  0
   -2.3011    1.4744    0.9736 H   0  0  0  0  0  0  0  0  0  0  0  0
   -1.9885   -0.6448   -1.1955 H   0  0  0  0  0  0  0  0  0  0  0  0
   -2.7805   -0.7525    0.4161 H   0  0  0  0  0  0  0  0  0  0  0  0
   -0.7188   -1.2839    1.4783 H   0  0  0  0  0  0  0  0  0  0  0  0
  1  2  2  0
  2  3  1  0
  3  4  1  0
  4  5  1  0
  5  6  1  0
  6  7  1  0
  7  8  1  0
  8  9  1  0
  5  1  1  0
  9  6  1  0
  9  3  1  0
  1 10  1  0
  2 11  1  0
  3 12  1  0
  4 13  1  0
  4 14  1  0
  5 15  1  0
  6 16  1  0
  7 17  1  0
  7 18  1  0
  8 19  1  0
  8 20  1  0
  9 21  1  0
M  END
