
     RDKit          3D

 17 18  0  0  0  0  0  0  0  0999 V2000
   -2.1960   -0.5616   -0.0020 C   0  0  0  0  0  0  0  0  0  0  0  0
   -1.0636   -1.2112    0.1704 C   0  0  0  0  0  0  0  0  0  0  0  0
    0.0272   -0.2365   -0.0618 C   0  0  0  0  0  0  0  0  0  0  0  0
    1.2073   -0.8238   -0.7346 C   0  0  0  0  0  0  0  0  0  0  0  0
    2.2485   -0.1726   -0.2445 C   0  0  0  0  0  0  0  0  0  0  0  0
    1.7447    0.8411    0.7493 C   0  0  0  0  0  0  0  0  0  0  0  0
    0.5329    0.2885    1.1271 O   0  0  0  0  0  0  0  0  0  0  0  0
   -0.5764    0.7683   -0.8510 O   0  0  0  0  0  0  0  0  0  0  0  0
   -1.8641    0.8343   -0.3445 C   0  0  0  0  0  0  0  0  0  0  0  0
   -3.2225   -0.9509    0.0840 H   0  0  0  0  0  0  0  0  0  0  0  0
   -0.9537   -2.2385    0.4272 H   0  0  0  0  0  0  0  0  0  0  0  0
    1.2190   -1.6082   -1.4629 H   0  0  0  0  0  0  0  0  0  0  0  0
    3.3037   -0.2979   -0.4753 H   0  0  0  0  0  0  0  0  0  0  0  0
    2.4607    0.9366    1.5684 H   0  0  0  0  0  0  0  0  0  0  0  0
    1.6101    1.7866    0.1650 H   0  0  0  0  0  0  0  0  0  0  0  0
   -2.5907    1.2324   -1.0804 H   0  0  0  0  0  0  0  0  0  0  0  0
   -1.8869    1.4135    0.6091 H   0  0  0  0  0  0  0  0  0  0  0  0
  1  2  2  0
  2  3  1  0
  3  4  1  0
  4  5  2  0
  5  6  1  0
  6  7  1  0
  3  8  1  0
  8  9  1  0
  9  1  1  0
  7  3  1  0
  1 10  1  0
  2 11  1  0
  4 12  1  0
  5 13  1  0
  6 14  1  0
  6 15  1  0
  9 16  1  0
  9 17  1  0
M  END
