
     RDKit          3D

 19 21  0  0  0  0  0  0  0  0999 V2000
   -1.1018    1.2348    0.2368 C   0  0  0  0  0  0  0  0  0  0  0  0
    0.1402    1.5967    0.0316 C   0  0  0  0  0  0  0  0  0  0  0  0
    1.0719    0.6750   -0.6016 C   0  0  0  0  0  0  0  0  0  0  0  0
    2.0917   -0.1449    0.0265 C   0  0  0  0  0  0  0  0  0  0  0  0
    0.8077   -0.7466   -0.0474 C   0  0  0  0  0  0  0  0  0  0  0  0
   -0.1365   -0.7149    1.1319 C   0  0  0  0  0  0  0  0  0  0  0  0
   -1.3696   -0.2226    0.3475 C   0  0  0  0  0  0  0  0  0  0  0  0
   -1.1419   -0.9374   -0.9661 C   0  0  0  0  0  0  0  0  0  0  0  0
    0.1500   -1.5114   -0.9193 O   0  0  0  0  0  0  0  0  0  0  0  0
   -1.8985    1.9296    0.3244 H   0  0  0  0  0  0  0  0  0  0  0  0
    0.4658    2.5714    0.3301 H   0  0  0  0  0  0  0  0  0  0  0  0
    1.1272    0.7806   -1.7076 H   0  0  0  0  0  0  0  0  0  0  0  0
    2.4216    0.2077    1.0511 H   0  0  0  0  0  0  0  0  0  0  0  0
    2.9648   -0.4419   -0.5797 H   0  0  0  0  0  0  0  0  0  0  0  0
   -0.3482   -1.7391    1.4105 H   0  0  0  0  0  0  0  0  0  0  0  0
    0.1493   -0.0313    1.9208 H   0  0  0  0  0  0  0  0  0  0  0  0
   -2.3012   -0.4760    0.8427 H   0  0  0  0  0  0  0  0  0  0  0  0
   -1.2204   -0.2578   -1.8384 H   0  0  0  0  0  0  0  0  0  0  0  0
   -1.8721   -1.7718   -0.9938 H   0  0  0  0  0  0  0  0  0  0  0  0
  1  2  2  0
  2  3  1  0
  3  4  1  0
  4  5  1  0
  5  6  1  0
  6  7  1  0
  7  8  1  0
  8  9  1  0
  7  1  1  0
  5  3  1  0
  9  5  1  0
  1 10  1  0
  2 11  1  0
  3 12  1  0
  4 13  1  0
  4 14  1  0
  6 15  1  0
  6 16  1  0
  7 17  1  0
  8 18  1  0
  8 19  1  0
M  END
