
     RDKit          3D

 19 20  0  0  0  0  0  0  0  0999 V2000
    1.8875   -0.3913    0.0783 C   0  0  0  0  0  0  0  0  0  0  0  0
    1.0573   -1.4133   -0.1621 C   0  0  0  0  0  0  0  0  0  0  0  0
   -0.3746   -1.7052   -0.2026 C   0  0  0  0  0  0  0  0  0  0  0  0
   -1.2810   -0.5689   -0.4454 C   0  0  0  0  0  0  0  0  0  0  0  0
   -1.3273    0.4007    0.7055 C   0  0  0  0  0  0  0  0  0  0  0  0
   -0.9035    1.4460   -0.3065 C   0  0  0  0  0  0  0  0  0  0  0  0
    0.5184    1.8411   -0.0059 C   0  0  0  0  0  0  0  0  0  0  0  0
    1.5807    1.0433    0.1657 C   0  0  0  0  0  0  0  0  0  0  0  0
   -0.8604    0.4202   -1.2810 O   0  0  0  0  0  0  0  0  0  0  0  0
    2.9243   -0.6435    0.2298 H   0  0  0  0  0  0  0  0  0  0  0  0
    1.6466   -2.2935   -0.4000 H   0  0  0  0  0  0  0  0  0  0  0  0
   -0.5710   -2.5082   -0.9609 H   0  0  0  0  0  0  0  0  0  0  0  0
   -0.6714   -2.1817    0.7788 H   0  0  0  0  0  0  0  0  0  0  0  0
   -2.3008   -0.9239   -0.7816 H   0  0  0  0  0  0  0  0  0  0  0  0
   -0.5568    0.2027    1.4762 H   0  0  0  0  0  0  0  0  0  0  0  0
   -2.3562    0.5027    1.0812 H   0  0  0  0  0  0  0  0  0  0  0  0
   -1.5839    2.2651   -0.5010 H   0  0  0  0  0  0  0  0  0  0  0  0
    0.7028    2.8943    0.0815 H   0  0  0  0  0  0  0  0  0  0  0  0
    2.4692    1.6134    0.4502 H   0  0  0  0  0  0  0  0  0  0  0  0
  1  2  2  3
  2  3  1  0
  3  4  1  0
  4  5  1  0
  5  6  1  0
  6  7  1  0
  7  8  2  3
  6  9  1  0
  8  1  1  0
  9  4  1  0
  1 10  1  0
  2 11  1  0
  3 12  1  0
  3 13  1  0
  4 14  1  0
  5 15  1  0
  5 16  1  0
  6 17  1  0
  7 18  1  0
  8 19  1  0
M  END
