
     RDKit          3D

 21 23  0  0  0  0  0  0  0  0999 V2000
   -2.0596    0.6335    0.6148 C   0  0  0  0  0  0  0  0  0  0  0  0
   -1.3616    1.2467   -0.3330 C   0  0  0  0  0  0  0  0  0  0  0  0
   -0.3826    0.3451   -0.9418 C   0  0  0  0  0  0  0  0  0  0  0  0
   -0.5099   -0.9704   -0.2395 C   0  0  0  0  0  0  0  0  0  0  0  0
   -1.6217   -0.7861    0.7581 C   0  0  0  0  0  0  0  0  0  0  0  0
    0.8139   -1.2610    0.3836 C   0  0  0  0  0  0  0  0  0  0  0  0
    1.7712   -0.3245   -0.2820 C   0  0  0  0  0  0  0  0  0  0  0  0
    1.7791    1.0686    0.3148 C   0  0  0  0  0  0  0  0  0  0  0  0
    1.0225    0.7888   -0.8975 C   0  0  0  0  0  0  0  0  0  0  0  0
   -2.8309    1.0768    1.2037 H   0  0  0  0  0  0  0  0  0  0  0  0
   -1.5001    2.2849   -0.6194 H   0  0  0  0  0  0  0  0  0  0  0  0
   -0.6789    0.1668   -2.0153 H   0  0  0  0  0  0  0  0  0  0  0  0
   -0.7638   -1.8111   -0.9343 H   0  0  0  0  0  0  0  0  0  0  0  0
   -1.2326   -0.9870    1.7850 H   0  0  0  0  0  0  0  0  0  0  0  0
   -2.4742   -1.4532    0.5005 H   0  0  0  0  0  0  0  0  0  0  0  0
    0.8224   -1.0280    1.4860 H   0  0  0  0  0  0  0  0  0  0  0  0
    1.1222   -2.3276    0.3191 H   0  0  0  0  0  0  0  0  0  0  0  0
    2.6533   -0.7165   -0.7923 H   0  0  0  0  0  0  0  0  0  0  0  0
    2.7387    1.5797    0.2383 H   0  0  0  0  0  0  0  0  0  0  0  0
    1.2676    1.2269    1.2979 H   0  0  0  0  0  0  0  0  0  0  0  0
    1.4248    1.2476   -1.8467 H   0  0  0  0  0  0  0  0  0  0  0  0
  1  2  2  0
  2  3  1  0
  3  4  1  0
  4  5  1  0
  4  6  1  0
  6  7  1  0
  7  8  1  0
  8  9  1  0
  5  1  1  0
  9  7  1  0
  9  3  1  0
  1 10  1  0
  2 11  1  0
  3 12  1  0
  4 13  1  0
  5 14  1  0
  5 15  1  0
  6 16  1  0
  6 17  1  0
  7 18  1  0
  8 19  1  0
  8 20  1  0
  9 21  1  0
M  END
