
     RDKit          3D

 17 19  0  0  0  0  0  0  0  0999 V2000
   -0.4967    1.3064    0.0112 C   0  0  0  0  0  0  0  0  0  0  0  0
    0.6238    0.7159    0.2677 C   0  0  0  0  0  0  0  0  0  0  0  0
    0.7450   -0.7919    0.2748 C   0  0  0  0  0  0  0  0  0  0  0  0
   -0.2405   -1.3785   -0.4645 O   0  0  0  0  0  0  0  0  0  0  0  0
   -1.5190   -0.9501   -0.1696 C   0  0  0  0  0  0  0  0  0  0  0  0
   -1.7294    0.5267   -0.2924 C   0  0  0  0  0  0  0  0  0  0  0  0
    1.9784   -0.4523   -0.5474 C   0  0  0  0  0  0  0  0  0  0  0  0
    3.0613    0.1998   -0.1573 O   0  0  0  0  0  0  0  0  0  0  0  0
    2.0674    0.6009    0.6021 C   0  0  0  0  0  0  0  0  0  0  0  0
   -0.5463    2.4050    0.0159 H   0  0  0  0  0  0  0  0  0  0  0  0
    0.9690   -1.2177    1.2682 H   0  0  0  0  0  0  0  0  0  0  0  0
   -2.2097   -1.4424   -0.8895 H   0  0  0  0  0  0  0  0  0  0  0  0
   -1.8443   -1.3207    0.8439 H   0  0  0  0  0  0  0  0  0  0  0  0
   -2.5112    0.8403    0.4283 H   0  0  0  0  0  0  0  0  0  0  0  0
   -2.1163    0.8196   -1.2990 H   0  0  0  0  0  0  0  0  0  0  0  0
    1.6103   -0.0292   -1.5377 H   0  0  0  0  0  0  0  0  0  0  0  0
    2.1581    0.1682    1.6456 H   0  0  0  0  0  0  0  0  0  0  0  0
  1  2  2  0
  2  3  1  0
  3  4  1  0
  4  5  1  0
  5  6  1  0
  3  7  1  0
  7  8  1  0
  8  9  1  0
  6  1  1  0
  9  7  1  0
  9  2  1  0
  1 10  1  0
  3 11  1  0
  5 12  1  0
  5 13  1  0
  6 14  1  0
  6 15  1  0
  7 16  1  0
  9 17  1  0
M  END
