
     RDKit          3D

 19 21  0  0  0  0  0  0  0  0999 V2000
    0.5212    1.8465    0.2633 C   0  0  0  0  0  0  0  0  0  0  0  0
   -0.6305    1.2861    0.5785 C   0  0  0  0  0  0  0  0  0  0  0  0
   -0.6561   -0.0639    0.0337 C   0  0  0  0  0  0  0  0  0  0  0  0
   -1.9170   -0.5098   -0.6010 C   0  0  0  0  0  0  0  0  0  0  0  0
   -1.4233   -1.1676    0.6537 C   0  0  0  0  0  0  0  0  0  0  0  0
    0.6687   -0.3237   -0.6003 C   0  0  0  0  0  0  0  0  0  0  0  0
    1.7627   -0.8331    0.2842 C   0  0  0  0  0  0  0  0  0  0  0  0
    2.4403    0.3688    0.2160 O   0  0  0  0  0  0  0  0  0  0  0  0
    1.4086    0.9681   -0.5201 C   0  0  0  0  0  0  0  0  0  0  0  0
    0.7822    2.8581    0.5568 H   0  0  0  0  0  0  0  0  0  0  0  0
   -1.4334    1.7415    1.1472 H   0  0  0  0  0  0  0  0  0  0  0  0
   -1.7926   -1.0239   -1.5848 H   0  0  0  0  0  0  0  0  0  0  0  0
   -2.8026    0.1734   -0.5312 H   0  0  0  0  0  0  0  0  0  0  0  0
   -2.0652   -1.0390    1.5287 H   0  0  0  0  0  0  0  0  0  0  0  0
   -0.9616   -2.1874    0.5158 H   0  0  0  0  0  0  0  0  0  0  0  0
    0.5864   -0.7920   -1.5973 H   0  0  0  0  0  0  0  0  0  0  0  0
    1.3901   -1.0126    1.3090 H   0  0  0  0  0  0  0  0  0  0  0  0
    2.3948   -1.6409   -0.1386 H   0  0  0  0  0  0  0  0  0  0  0  0
    1.7273    1.3514   -1.5137 H   0  0  0  0  0  0  0  0  0  0  0  0
  1  2  2  0
  2  3  1  0
  3  4  1  0
  4  5  1  0
  3  6  1  0
  6  7  1  0
  7  8  1  0
  8  9  1  0
  9  1  1  0
  5  3  1  0
  9  6  1  0
  1 10  1  0
  2 11  1  0
  4 12  1  0
  4 13  1  0
  5 14  1  0
  5 15  1  0
  6 16  1  0
  7 17  1  0
  7 18  1  0
  9 19  1  0
M  END
