
     RDKit          3D

 20 20  0  0  0  0  0  0  0  0999 V2000
    1.3018   -1.2327   -0.3365 C   0  0  0  0  0  0  0  0  0  0  0  0
    0.0599   -1.6663   -0.2981 C   0  0  0  0  0  0  0  0  0  0  0  0
   -1.2506   -1.2467    0.2833 C   0  0  0  0  0  0  0  0  0  0  0  0
   -1.6875    0.1081   -0.1845 C   0  0  0  0  0  0  0  0  0  0  0  0
   -1.0504    1.2384    0.5923 C   0  0  0  0  0  0  0  0  0  0  0  0
    0.1699    1.6633   -0.1580 C   0  0  0  0  0  0  0  0  0  0  0  0
    1.3899    1.1797   -0.3341 C   0  0  0  0  0  0  0  0  0  0  0  0
    2.0356   -0.0694    0.2004 C   0  0  0  0  0  0  0  0  0  0  0  0
    1.9372   -1.8925   -0.8998 H   0  0  0  0  0  0  0  0  0  0  0  0
   -0.0290   -2.5960   -0.8497 H   0  0  0  0  0  0  0  0  0  0  0  0
   -2.0253   -1.9945    0.0538 H   0  0  0  0  0  0  0  0  0  0  0  0
   -1.1856   -1.1918    1.4078 H   0  0  0  0  0  0  0  0  0  0  0  0
   -1.5121    0.2186   -1.2900 H   0  0  0  0  0  0  0  0  0  0  0  0
   -2.7886    0.1818    0.0124 H   0  0  0  0  0  0  0  0  0  0  0  0
   -1.7216    2.1135    0.6644 H   0  0  0  0  0  0  0  0  0  0  0  0
   -0.7607    0.8323    1.5773 H   0  0  0  0  0  0  0  0  0  0  0  0
    0.0364    2.6108   -0.7042 H   0  0  0  0  0  0  0  0  0  0  0  0
    2.0310    1.7830   -0.9685 H   0  0  0  0  0  0  0  0  0  0  0  0
    3.0819   -0.0340   -0.0919 H   0  0  0  0  0  0  0  0  0  0  0  0
    1.9678   -0.0057    1.3236 H   0  0  0  0  0  0  0  0  0  0  0  0
  1  2  2  3
  2  3  1  0
  3  4  1  0
  4  5  1  0
  5  6  1  0
  6  7  2  3
  7  8  1  0
  8  1  1  0
  1  9  1  0
  2 10  1  0
  3 11  1  0
  3 12  1  0
  4 13  1  0
  4 14  1  0
  5 15  1  0
  5 16  1  0
  6 17  1  0
  7 18  1  0
  8 19  1  0
  8 20  1  0
M  END
