
     RDKit          3D

 19 21  0  0  0  0  0  0  0  0999 V2000
    1.1344    1.2830   -0.6167 C   0  0  0  0  0  0  0  0  0  0  0  0
    0.3264    1.7847    0.3073 C   0  0  0  0  0  0  0  0  0  0  0  0
   -0.8043    0.8994    0.5489 C   0  0  0  0  0  0  0  0  0  0  0  0
   -0.4850   -0.4058    1.2692 C   0  0  0  0  0  0  0  0  0  0  0  0
   -1.3119   -1.0770    0.1628 C   0  0  0  0  0  0  0  0  0  0  0  0
   -0.8457    0.0548   -0.7246 C   0  0  0  0  0  0  0  0  0  0  0  0
    0.6125   -0.0547   -1.0610 C   0  0  0  0  0  0  0  0  0  0  0  0
    1.2598   -1.0602   -0.1080 C   0  0  0  0  0  0  0  0  0  0  0  0
    0.8476   -0.7405    1.1690 O   0  0  0  0  0  0  0  0  0  0  0  0
    2.0429    1.6975   -1.0427 H   0  0  0  0  0  0  0  0  0  0  0  0
    0.4996    2.7243    0.8030 H   0  0  0  0  0  0  0  0  0  0  0  0
   -1.7574    1.3218    0.8592 H   0  0  0  0  0  0  0  0  0  0  0  0
   -0.8926   -0.5028    2.2727 H   0  0  0  0  0  0  0  0  0  0  0  0
   -2.3828   -0.9388    0.3972 H   0  0  0  0  0  0  0  0  0  0  0  0
   -0.9763   -2.0789   -0.1017 H   0  0  0  0  0  0  0  0  0  0  0  0
   -1.5234    0.3921   -1.4952 H   0  0  0  0  0  0  0  0  0  0  0  0
    0.8277   -0.2672   -2.1090 H   0  0  0  0  0  0  0  0  0  0  0  0
    1.0507   -2.0958   -0.3969 H   0  0  0  0  0  0  0  0  0  0  0  0
    2.3778   -0.9358   -0.1335 H   0  0  0  0  0  0  0  0  0  0  0  0
  1  2  2  0
  2  3  1  0
  3  4  1  0
  4  5  1  0
  5  6  1  0
  6  7  1  0
  7  8  1  0
  8  9  1  0
  7  1  1  0
  6  3  1  0
  9  4  1  0
  1 10  1  0
  2 11  1  0
  3 12  1  0
  4 13  1  0
  5 14  1  0
  5 15  1  0
  6 16  1  0
  7 17  1  0
  8 18  1  0
  8 19  1  0
M  END
