
     RDKit          3D

 19 21  0  0  0  0  0  0  0  0999 V2000
    0.3578    1.4081    1.5088 C   0  0  0  0  0  0  0  0  0  0  0  0
   -0.9144    1.6497    1.2637 C   0  0  0  0  0  0  0  0  0  0  0  0
   -1.2759    0.9260    0.0709 C   0  0  0  0  0  0  0  0  0  0  0  0
   -1.7848   -0.3357   -0.1197 C   0  0  0  0  0  0  0  0  0  0  0  0
   -0.3765   -0.2553    0.0880 C   0  0  0  0  0  0  0  0  0  0  0  0
    0.2401   -1.4691   -0.3057 C   0  0  0  0  0  0  0  0  0  0  0  0
    1.3366   -0.9358   -1.2663 C   0  0  0  0  0  0  0  0  0  0  0  0
    1.7797    0.1700   -0.3217 C   0  0  0  0  0  0  0  0  0  0  0  0
    0.7738    0.5107    0.4311 C   0  0  0  0  0  0  0  0  0  0  0  0
    0.9885    1.7925    2.3369 H   0  0  0  0  0  0  0  0  0  0  0  0
   -1.5909    2.2895    1.8580 H   0  0  0  0  0  0  0  0  0  0  0  0
   -1.2640    1.6176   -0.8288 H   0  0  0  0  0  0  0  0  0  0  0  0
   -2.1400   -0.6841   -1.1102 H   0  0  0  0  0  0  0  0  0  0  0  0
   -2.4124   -0.8066    0.6955 H   0  0  0  0  0  0  0  0  0  0  0  0
    0.7904   -2.0310    0.5017 H   0  0  0  0  0  0  0  0  0  0  0  0
   -0.3603   -2.2158   -0.9090 H   0  0  0  0  0  0  0  0  0  0  0  0
    0.9049   -0.5360   -2.1804 H   0  0  0  0  0  0  0  0  0  0  0  0
    2.1490   -1.6546   -1.3781 H   0  0  0  0  0  0  0  0  0  0  0  0
    2.7986    0.5600   -0.3346 H   0  0  0  0  0  0  0  0  0  0  0  0
  1  2  2  0
  2  3  1  0
  3  4  1  0
  4  5  1  0
  5  6  1  0
  6  7  1  0
  7  8  1  0
  8  9  2  0
  9  1  1  0
  5  3  1  0
  9  5  1  0
  1 10  1  0
  2 11  1  0
  3 12  1  0
  4 13  1  0
  4 14  1  0
  6 15  1  0
  6 16  1  0
  7 17  1  0
  7 18  1  0
  8 19  1  0
M  END
