
     RDKit          3D

 19 20  0  0  0  0  0  0  0  0999 V2000
    1.4304   -1.4795    0.1966 C   0  0  0  0  0  0  0  0  0  0  0  0
    1.7111   -0.1814    0.3732 C   0  0  0  0  0  0  0  0  0  0  0  0
    1.0535    0.9006   -0.4341 C   0  0  0  0  0  0  0  0  0  0  0  0
    0.0268    1.7338    0.2635 C   0  0  0  0  0  0  0  0  0  0  0  0
   -1.2845    1.6225    0.0161 C   0  0  0  0  0  0  0  0  0  0  0  0
   -1.7933    0.2005   -0.1982 C   0  0  0  0  0  0  0  0  0  0  0  0
   -0.5708   -0.5054   -0.0753 C   0  0  0  0  0  0  0  0  0  0  0  0
   -0.0245   -1.8277   -0.0742 C   0  0  0  0  0  0  0  0  0  0  0  0
    0.1669    0.0699   -1.1650 O   0  0  0  0  0  0  0  0  0  0  0  0
    2.1912   -2.1965    0.2487 H   0  0  0  0  0  0  0  0  0  0  0  0
    2.4300    0.1403    1.1093 H   0  0  0  0  0  0  0  0  0  0  0  0
    1.7304    1.4545   -1.0590 H   0  0  0  0  0  0  0  0  0  0  0  0
    0.3779    2.4491    0.9892 H   0  0  0  0  0  0  0  0  0  0  0  0
   -1.9150    2.4597   -0.0251 H   0  0  0  0  0  0  0  0  0  0  0  0
   -2.5847   -0.0433    0.5068 H   0  0  0  0  0  0  0  0  0  0  0  0
   -2.2063    0.1509   -1.2451 H   0  0  0  0  0  0  0  0  0  0  0  0
   -0.2262   -0.1478    0.9593 H   0  0  0  0  0  0  0  0  0  0  0  0
   -0.4326   -2.4803    0.6976 H   0  0  0  0  0  0  0  0  0  0  0  0
   -0.0800   -2.3198   -1.0842 H   0  0  0  0  0  0  0  0  0  0  0  0
  1  2  2  0
  2  3  1  0
  3  4  1  0
  4  5  2  0
  5  6  1  0
  6  7  1  0
  7  8  1  0
  7  9  1  0
  8  1  1  0
  9  3  1  0
  1 10  1  0
  2 11  1  0
  3 12  1  0
  4 13  1  0
  5 14  1  0
  6 15  1  0
  6 16  1  0
  7 17  1  0
  8 18  1  0
  8 19  1  0
M  END
