
     RDKit          3D

 21 22  0  0  0  0  0  0  0  0999 V2000
    2.5341    0.1649    0.0496 C   0  0  0  0  0  0  0  0  0  0  0  0
    1.9509    0.4675    1.1890 C   0  0  0  0  0  0  0  0  0  0  0  0
    0.4760    0.5643    1.1980 C   0  0  0  0  0  0  0  0  0  0  0  0
   -0.0065   -0.5433    0.2488 C   0  0  0  0  0  0  0  0  0  0  0  0
   -1.4775   -0.6538    0.4071 C   0  0  0  0  0  0  0  0  0  0  0  0
   -2.2520    0.6050    0.0816 C   0  0  0  0  0  0  0  0  0  0  0  0
   -2.4176   -0.6297   -0.7286 C   0  0  0  0  0  0  0  0  0  0  0  0
    0.3902   -0.1356   -1.0165 O   0  0  0  0  0  0  0  0  0  0  0  0
    1.7424   -0.0658   -1.1602 C   0  0  0  0  0  0  0  0  0  0  0  0
    3.6147    0.0757   -0.0346 H   0  0  0  0  0  0  0  0  0  0  0  0
    2.5093    0.6405    2.0860 H   0  0  0  0  0  0  0  0  0  0  0  0
    0.2204    1.5457    0.7028 H   0  0  0  0  0  0  0  0  0  0  0  0
    0.0272    0.4689    2.1908 H   0  0  0  0  0  0  0  0  0  0  0  0
    0.5257   -1.4933    0.4921 H   0  0  0  0  0  0  0  0  0  0  0  0
   -1.7955   -1.2339    1.3159 H   0  0  0  0  0  0  0  0  0  0  0  0
   -1.7212    1.4324   -0.4300 H   0  0  0  0  0  0  0  0  0  0  0  0
   -3.0157    0.8903    0.8355 H   0  0  0  0  0  0  0  0  0  0  0  0
   -2.0054   -0.6633   -1.7478 H   0  0  0  0  0  0  0  0  0  0  0  0
   -3.3932   -1.1495   -0.5877 H   0  0  0  0  0  0  0  0  0  0  0  0
    2.0849   -1.0368   -1.6237 H   0  0  0  0  0  0  0  0  0  0  0  0
    2.0089    0.7500   -1.8931 H   0  0  0  0  0  0  0  0  0  0  0  0
  1  2  2  0
  2  3  1  0
  3  4  1  0
  4  5  1  0
  5  6  1  0
  6  7  1  0
  4  8  1  0
  8  9  1  0
  9  1  1  0
  7  5  1  0
  1 10  1  0
  2 11  1  0
  3 12  1  0
  3 13  1  0
  4 14  1  0
  5 15  1  0
  6 16  1  0
  6 17  1  0
  7 18  1  0
  7 19  1  0
  9 20  1  0
  9 21  1  0
M  END
