
     RDKit          3D

 19 21  0  0  0  0  0  0  0  0999 V2000
    2.2281   -0.1735    0.1058 C   0  0  0  0  0  0  0  0  0  0  0  0
    1.6684    0.9917   -0.2648 C   0  0  0  0  0  0  0  0  0  0  0  0
    0.3644    0.6287   -0.8920 C   0  0  0  0  0  0  0  0  0  0  0  0
    0.7041   -0.6402   -1.4342 O   0  0  0  0  0  0  0  0  0  0  0  0
    1.2014   -1.1998   -0.2324 C   0  0  0  0  0  0  0  0  0  0  0  0
    0.0179   -1.0352    0.7195 C   0  0  0  0  0  0  0  0  0  0  0  0
   -0.6299    0.1822    0.1362 C   0  0  0  0  0  0  0  0  0  0  0  0
   -1.6763    0.9562    0.7133 C   0  0  0  0  0  0  0  0  0  0  0  0
   -2.0425    0.0275   -0.3937 C   0  0  0  0  0  0  0  0  0  0  0  0
    3.2011   -0.3165    0.5468 H   0  0  0  0  0  0  0  0  0  0  0  0
    2.1249    1.9633   -0.1100 H   0  0  0  0  0  0  0  0  0  0  0  0
    0.0075    1.3230   -1.6294 H   0  0  0  0  0  0  0  0  0  0  0  0
    1.5602   -2.1984   -0.3290 H   0  0  0  0  0  0  0  0  0  0  0  0
    0.4904   -0.8024    1.7195 H   0  0  0  0  0  0  0  0  0  0  0  0
   -0.6176   -1.9185    0.7426 H   0  0  0  0  0  0  0  0  0  0  0  0
   -1.7634    2.0338    0.4642 H   0  0  0  0  0  0  0  0  0  0  0  0
   -2.0385    0.7241    1.7300 H   0  0  0  0  0  0  0  0  0  0  0  0
   -2.2781    0.4042   -1.4100 H   0  0  0  0  0  0  0  0  0  0  0  0
   -2.5222   -0.9503   -0.1820 H   0  0  0  0  0  0  0  0  0  0  0  0
  1  2  2  0
  2  3  1  0
  3  4  1  0
  4  5  1  0
  5  6  1  0
  6  7  1  0
  7  8  1  0
  8  9  1  0
  5  1  1  0
  9  7  1  0
  7  3  1  0
  1 10  1  0
  2 11  1  0
  3 12  1  0
  5 13  1  0
  6 14  1  0
  6 15  1  0
  8 16  1  0
  8 17  1  0
  9 18  1  0
  9 19  1  0
M  END
