
     RDKit          3D

 16 17  0  0  0  0  0  0  0  0999 V2000
   -1.0111   -0.7883   -0.5663 C   0  0  0  0  0  0  0  0  0  0  0  0
   -0.0258    0.0195   -0.2852 C   0  0  0  0  0  0  0  0  0  0  0  0
    1.3808   -0.1357   -0.6846 C   0  0  0  0  0  0  0  0  0  0  0  0
    2.3687   -0.2300    0.4130 C   0  0  0  0  0  0  0  0  0  0  0  0
    2.0455   -1.3289   -0.5452 O   0  0  0  0  0  0  0  0  0  0  0  0
   -0.5558    1.1436    0.5175 C   0  0  0  0  0  0  0  0  0  0  0  0
   -1.9177    0.9401    0.6515 O   0  0  0  0  0  0  0  0  0  0  0  0
   -2.2406   -0.2446    0.0325 C   0  0  0  0  0  0  0  0  0  0  0  0
   -0.9499   -1.6906   -1.1316 H   0  0  0  0  0  0  0  0  0  0  0  0
    1.6841    0.4494   -1.5788 H   0  0  0  0  0  0  0  0  0  0  0  0
    3.3499    0.2089    0.2518 H   0  0  0  0  0  0  0  0  0  0  0  0
    2.0458   -0.5951    1.4110 H   0  0  0  0  0  0  0  0  0  0  0  0
   -0.0471    1.2057    1.5071 H   0  0  0  0  0  0  0  0  0  0  0  0
   -0.4355    2.1276   -0.0087 H   0  0  0  0  0  0  0  0  0  0  0  0
   -2.6708   -0.9469    0.7784 H   0  0  0  0  0  0  0  0  0  0  0  0
   -3.0204   -0.1346   -0.7625 H   0  0  0  0  0  0  0  0  0  0  0  0
  1  2  2  0
  2  3  1  0
  3  4  1  0
  4  5  1  0
  2  6  1  0
  6  7  1  0
  7  8  1  0
  8  1  1  0
  5  3  1  0
  1  9  1  0
  3 10  1  0
  4 11  1  0
  4 12  1  0
  6 13  1  0
  6 14  1  0
  8 15  1  0
  8 16  1  0
M  END
