
     RDKit          3D

 19 21  0  0  0  0  0  0  0  0999 V2000
   -1.7258    1.2143    0.3609 C   0  0  0  0  0  0  0  0  0  0  0  0
   -2.3234    0.0214    0.1004 C   0  0  0  0  0  0  0  0  0  0  0  0
   -1.2963   -0.9879   -0.2189 C   0  0  0  0  0  0  0  0  0  0  0  0
    0.0845   -1.2882   -0.1976 C   0  0  0  0  0  0  0  0  0  0  0  0
    1.3231   -0.9042    0.5530 C   0  0  0  0  0  0  0  0  0  0  0  0
    1.9277    0.4515   -0.0640 C   0  0  0  0  0  0  0  0  0  0  0  0
    0.8815    1.3747    0.5539 C   0  0  0  0  0  0  0  0  0  0  0  0
   -0.3184    0.9998    0.2360 C   0  0  0  0  0  0  0  0  0  0  0  0
   -0.3083   -0.0838   -0.9024 C   0  0  0  0  0  0  0  0  0  0  0  0
   -2.1383    2.1639    0.6269 H   0  0  0  0  0  0  0  0  0  0  0  0
   -3.3950   -0.1211    0.1394 H   0  0  0  0  0  0  0  0  0  0  0  0
   -1.8755   -1.7605   -0.9389 H   0  0  0  0  0  0  0  0  0  0  0  0
    0.3737   -2.1822   -0.8980 H   0  0  0  0  0  0  0  0  0  0  0  0
    1.1680   -0.6759    1.6119 H   0  0  0  0  0  0  0  0  0  0  0  0
    2.1456   -1.6252    0.4653 H   0  0  0  0  0  0  0  0  0  0  0  0
    1.8820    0.4070   -1.1307 H   0  0  0  0  0  0  0  0  0  0  0  0
    2.8730    0.5748    0.4485 H   0  0  0  0  0  0  0  0  0  0  0  0
    1.0153    2.2122    1.1553 H   0  0  0  0  0  0  0  0  0  0  0  0
   -0.2933    0.2094   -1.9012 H   0  0  0  0  0  0  0  0  0  0  0  0
  1  2  2  0
  2  3  1  0
  3  4  1  0
  4  5  1  0
  5  6  1  0
  6  7  1  0
  7  8  2  0
  8  9  1  0
  8  1  1  0
  9  3  1  0
  9  4  1  0
  1 10  1  0
  2 11  1  0
  3 12  1  0
  4 13  1  0
  5 14  1  0
  5 15  1  0
  6 16  1  0
  6 17  1  0
  7 18  1  0
  9 19  1  0
M  END
