
     RDKit          3D

 19 21  0  0  0  0  0  0  0  0999 V2000
    1.9189    0.0928   -0.2123 C   0  0  0  0  0  0  0  0  0  0  0  0
    1.2945    1.1950    0.1520 C   0  0  0  0  0  0  0  0  0  0  0  0
   -0.0685    1.1615    0.7424 C   0  0  0  0  0  0  0  0  0  0  0  0
   -0.9691    2.0830    0.1522 O   0  0  0  0  0  0  0  0  0  0  0  0
   -1.4733    1.0934   -0.7307 C   0  0  0  0  0  0  0  0  0  0  0  0
   -0.8569    0.0896    0.1159 C   0  0  0  0  0  0  0  0  0  0  0  0
   -1.2944   -1.1524    0.6260 C   0  0  0  0  0  0  0  0  0  0  0  0
   -0.1891   -1.0740   -0.4254 C   0  0  0  0  0  0  0  0  0  0  0  0
    1.2274   -1.2101   -0.0203 C   0  0  0  0  0  0  0  0  0  0  0  0
    2.9176    0.1680   -0.6409 H   0  0  0  0  0  0  0  0  0  0  0  0
    1.7632    2.1601    0.0290 H   0  0  0  0  0  0  0  0  0  0  0  0
   -0.1194    1.2076    1.8362 H   0  0  0  0  0  0  0  0  0  0  0  0
   -2.5587    1.1291   -0.8617 H   0  0  0  0  0  0  0  0  0  0  0  0
   -0.9327    1.2427   -1.7036 H   0  0  0  0  0  0  0  0  0  0  0  0
   -0.9192   -1.4876    1.6383 H   0  0  0  0  0  0  0  0  0  0  0  0
   -2.2448   -1.6465    0.3742 H   0  0  0  0  0  0  0  0  0  0  0  0
   -0.5065   -1.5248   -1.3994 H   0  0  0  0  0  0  0  0  0  0  0  0
    1.2924   -1.5759    1.0190 H   0  0  0  0  0  0  0  0  0  0  0  0
    1.7188   -1.9516   -0.6910 H   0  0  0  0  0  0  0  0  0  0  0  0
  1  2  2  0
  2  3  1  0
  3  4  1  0
  4  5  1  0
  5  6  1  0
  6  7  1  0
  7  8  1  0
  8  9  1  0
  9  1  1  0
  6  3  1  0
  8  6  1  0
  1 10  1  0
  2 11  1  0
  3 12  1  0
  5 13  1  0
  5 14  1  0
  7 15  1  0
  7 16  1  0
  8 17  1  0
  9 18  1  0
  9 19  1  0
M  END
