
     RDKit          3D

 17 19  0  0  0  0  0  0  0  0999 V2000
    1.6514   -1.2098    0.3731 C   0  0  0  0  0  0  0  0  0  0  0  0
    0.3827   -1.0310    0.0461 C   0  0  0  0  0  0  0  0  0  0  0  0
   -1.0703   -1.1248   -0.2709 C   0  0  0  0  0  0  0  0  0  0  0  0
   -1.1548    0.3697   -0.0165 C   0  0  0  0  0  0  0  0  0  0  0  0
   -2.1544    1.2336   -0.3266 C   0  0  0  0  0  0  0  0  0  0  0  0
   -1.7621    0.8776    1.0876 O   0  0  0  0  0  0  0  0  0  0  0  0
    0.2861    0.4431   -0.3023 C   0  0  0  0  0  0  0  0  0  0  0  0
    1.1779    0.9448    0.6124 O   0  0  0  0  0  0  0  0  0  0  0  0
    2.3072    0.1456    0.2669 C   0  0  0  0  0  0  0  0  0  0  0  0
    2.1766   -2.1053    0.6646 H   0  0  0  0  0  0  0  0  0  0  0  0
   -1.2103   -1.3181   -1.3464 H   0  0  0  0  0  0  0  0  0  0  0  0
   -1.6660   -1.7472    0.4170 H   0  0  0  0  0  0  0  0  0  0  0  0
   -3.2269    0.9120   -0.4842 H   0  0  0  0  0  0  0  0  0  0  0  0
   -1.9939    2.3164   -0.5228 H   0  0  0  0  0  0  0  0  0  0  0  0
    0.6119    0.6707   -1.3334 H   0  0  0  0  0  0  0  0  0  0  0  0
    2.5246    0.3481   -0.7793 H   0  0  0  0  0  0  0  0  0  0  0  0
    3.1202    0.2748    0.9726 H   0  0  0  0  0  0  0  0  0  0  0  0
  1  2  2  0
  2  3  1  0
  3  4  1  0
  4  5  1  0
  5  6  1  0
  4  7  1  0
  7  8  1  0
  8  9  1  0
  9  1  1  0
  7  2  1  0
  6  4  1  0
  1 10  1  0
  3 11  1  0
  3 12  1  0
  5 13  1  0
  5 14  1  0
  7 15  1  0
  9 16  1  0
  9 17  1  0
M  END
