
     RDKit          3D

 19 21  0  0  0  0  0  0  0  0999 V2000
   -1.5773    0.4634   -0.7124 C   0  0  0  0  0  0  0  0  0  0  0  0
   -1.7097   -0.6997   -0.1250 C   0  0  0  0  0  0  0  0  0  0  0  0
   -0.5961   -1.3627    0.5463 C   0  0  0  0  0  0  0  0  0  0  0  0
    0.6190   -0.5630    0.7402 C   0  0  0  0  0  0  0  0  0  0  0  0
    0.7234    0.6904    1.4696 C   0  0  0  0  0  0  0  0  0  0  0  0
    0.8045    0.6566    0.0001 C   0  0  0  0  0  0  0  0  0  0  0  0
   -0.3129    1.2331   -0.7678 C   0  0  0  0  0  0  0  0  0  0  0  0
    1.7684   -0.2012   -0.7525 C   0  0  0  0  0  0  0  0  0  0  0  0
    1.8491   -1.1122    0.3082 O   0  0  0  0  0  0  0  0  0  0  0  0
   -2.4418    0.9054   -1.1945 H   0  0  0  0  0  0  0  0  0  0  0  0
   -2.6827   -1.1732   -0.1461 H   0  0  0  0  0  0  0  0  0  0  0  0
   -0.9442   -1.7935    1.5302 H   0  0  0  0  0  0  0  0  0  0  0  0
   -0.3355   -2.2773   -0.0643 H   0  0  0  0  0  0  0  0  0  0  0  0
   -0.1959    1.1020    1.9146 H   0  0  0  0  0  0  0  0  0  0  0  0
    1.6311    0.9143    2.0933 H   0  0  0  0  0  0  0  0  0  0  0  0
   -0.5372    2.2525   -0.3418 H   0  0  0  0  0  0  0  0  0  0  0  0
   -0.0620    1.4391   -1.8428 H   0  0  0  0  0  0  0  0  0  0  0  0
    2.7132    0.2695   -1.0362 H   0  0  0  0  0  0  0  0  0  0  0  0
    1.2866   -0.7436   -1.6192 H   0  0  0  0  0  0  0  0  0  0  0  0
  1  2  2  0
  2  3  1  0
  3  4  1  0
  4  5  1  0
  5  6  1  0
  6  7  1  0
  6  8  1  0
  8  9  1  0
  7  1  1  0
  6  4  1  0
  9  4  1  0
  1 10  1  0
  2 11  1  0
  3 12  1  0
  3 13  1  0
  5 14  1  0
  5 15  1  0
  7 16  1  0
  7 17  1  0
  8 18  1  0
  8 19  1  0
M  END
