
     RDKit          3D

 19 21  0  0  0  0  0  0  0  0999 V2000
    0.5588   -0.7025    1.1677 C   0  0  0  0  0  0  0  0  0  0  0  0
    1.5892    0.0420    0.7881 C   0  0  0  0  0  0  0  0  0  0  0  0
    1.7258    0.2874   -0.6500 C   0  0  0  0  0  0  0  0  0  0  0  0
    1.3003    1.2448   -1.4412 O   0  0  0  0  0  0  0  0  0  0  0  0
    0.2548    0.6048   -1.0320 C   0  0  0  0  0  0  0  0  0  0  0  0
   -0.6179    1.2890    0.0038 C   0  0  0  0  0  0  0  0  0  0  0  0
   -1.5623    0.1937    0.5111 C   0  0  0  0  0  0  0  0  0  0  0  0
   -0.6201   -1.0075    0.3163 C   0  0  0  0  0  0  0  0  0  0  0  0
   -0.3033   -0.7366   -1.1703 C   0  0  0  0  0  0  0  0  0  0  0  0
    0.5687   -1.1187    2.1611 H   0  0  0  0  0  0  0  0  0  0  0  0
    2.3161    0.4676    1.4635 H   0  0  0  0  0  0  0  0  0  0  0  0
    2.2078   -0.5866   -1.1782 H   0  0  0  0  0  0  0  0  0  0  0  0
   -1.1551    2.1346   -0.4296 H   0  0  0  0  0  0  0  0  0  0  0  0
   -0.0082    1.5934    0.9038 H   0  0  0  0  0  0  0  0  0  0  0  0
   -1.8505    0.3307    1.5460 H   0  0  0  0  0  0  0  0  0  0  0  0
   -2.3754    0.1273   -0.2162 H   0  0  0  0  0  0  0  0  0  0  0  0
   -1.0849   -1.9569    0.4872 H   0  0  0  0  0  0  0  0  0  0  0  0
   -1.2979   -0.6889   -1.6724 H   0  0  0  0  0  0  0  0  0  0  0  0
    0.3543   -1.5176   -1.5589 H   0  0  0  0  0  0  0  0  0  0  0  0
  1  2  2  0
  2  3  1  0
  3  4  1  0
  4  5  1  0
  5  6  1  0
  6  7  1  0
  7  8  1  0
  8  9  1  0
  8  1  1  0
  5  3  1  0
  9  5  1  0
  1 10  1  0
  2 11  1  0
  3 12  1  0
  6 13  1  0
  6 14  1  0
  7 15  1  0
  7 16  1  0
  8 17  1  0
  9 18  1  0
  9 19  1  0
M  END
