
     RDKit          3D

 19 21  0  0  0  0  0  0  0  0999 V2000
   -2.0293    0.8570    0.2151 C   0  0  0  0  0  0  0  0  0  0  0  0
   -0.8358    1.3088   -0.1539 C   0  0  0  0  0  0  0  0  0  0  0  0
   -0.0462    0.2340   -0.7667 C   0  0  0  0  0  0  0  0  0  0  0  0
   -0.7343   -1.0547   -0.4306 C   0  0  0  0  0  0  0  0  0  0  0  0
   -2.1417   -0.6075   -0.1317 C   0  0  0  0  0  0  0  0  0  0  0  0
    0.0748   -1.2494    0.6975 O   0  0  0  0  0  0  0  0  0  0  0  0
    0.9437   -0.3372    0.1948 C   0  0  0  0  0  0  0  0  0  0  0  0
    1.8187    0.5332    0.9521 C   0  0  0  0  0  0  0  0  0  0  0  0
    2.3503   -0.5092   -0.0529 C   0  0  0  0  0  0  0  0  0  0  0  0
   -2.8235    1.4162    0.6914 H   0  0  0  0  0  0  0  0  0  0  0  0
   -0.5221    2.3363   -0.0070 H   0  0  0  0  0  0  0  0  0  0  0  0
    0.2778    0.3717   -1.8016 H   0  0  0  0  0  0  0  0  0  0  0  0
   -0.6124   -1.8906   -1.1178 H   0  0  0  0  0  0  0  0  0  0  0  0
   -2.5339   -1.1374    0.7376 H   0  0  0  0  0  0  0  0  0  0  0  0
   -2.7563   -0.7336   -1.0281 H   0  0  0  0  0  0  0  0  0  0  0  0
    1.9591    0.3496    2.0161 H   0  0  0  0  0  0  0  0  0  0  0  0
    1.9022    1.5999    0.6164 H   0  0  0  0  0  0  0  0  0  0  0  0
    2.9183   -1.3714    0.3690 H   0  0  0  0  0  0  0  0  0  0  0  0
    2.7906   -0.1156   -0.9997 H   0  0  0  0  0  0  0  0  0  0  0  0
  1  2  2  0
  2  3  1  0
  3  4  1  0
  4  5  1  0
  4  6  1  0
  6  7  1  0
  7  8  1  0
  8  9  1  0
  5  1  1  0
  9  7  1  0
  7  3  1  0
  1 10  1  0
  2 11  1  0
  3 12  1  0
  4 13  1  0
  5 14  1  0
  5 15  1  0
  8 16  1  0
  8 17  1  0
  9 18  1  0
  9 19  1  0
M  END
