
     RDKit          3D

 19 21  0  0  0  0  0  0  0  0999 V2000
   -1.1505   -0.5334   -1.3721 C   0  0  0  0  0  0  0  0  0  0  0  0
   -0.1590   -1.1517   -0.7793 C   0  0  0  0  0  0  0  0  0  0  0  0
    0.1573   -0.5254    0.5086 C   0  0  0  0  0  0  0  0  0  0  0  0
    1.6320   -0.3046    0.7104 C   0  0  0  0  0  0  0  0  0  0  0  0
    2.4615    0.4859   -0.1185 C   0  0  0  0  0  0  0  0  0  0  0  0
    2.4741   -0.9667   -0.3212 O   0  0  0  0  0  0  0  0  0  0  0  0
   -0.6559    0.7060    0.5705 C   0  0  0  0  0  0  0  0  0  0  0  0
   -2.1224    0.5173    0.7994 C   0  0  0  0  0  0  0  0  0  0  0  0
   -1.6538    0.5901   -0.5942 C   0  0  0  0  0  0  0  0  0  0  0  0
   -1.5694   -0.8228   -2.3563 H   0  0  0  0  0  0  0  0  0  0  0  0
    0.3972   -2.0305   -1.1567 H   0  0  0  0  0  0  0  0  0  0  0  0
   -0.2328   -1.2470    1.2944 H   0  0  0  0  0  0  0  0  0  0  0  0
    2.0056   -0.6410    1.6961 H   0  0  0  0  0  0  0  0  0  0  0  0
    3.4539    0.8137    0.2540 H   0  0  0  0  0  0  0  0  0  0  0  0
    2.1588    1.0075   -1.0380 H   0  0  0  0  0  0  0  0  0  0  0  0
   -0.1878    1.6883    0.7324 H   0  0  0  0  0  0  0  0  0  0  0  0
   -2.4363   -0.4624    1.2160 H   0  0  0  0  0  0  0  0  0  0  0  0
   -2.7591    1.3561    1.1425 H   0  0  0  0  0  0  0  0  0  0  0  0
   -1.8135    1.5209   -1.1879 H   0  0  0  0  0  0  0  0  0  0  0  0
  1  2  2  0
  2  3  1  0
  3  4  1  0
  4  5  1  0
  5  6  1  0
  3  7  1  0
  7  8  1  0
  8  9  1  0
  9  1  1  0
  6  4  1  0
  9  7  1  0
  1 10  1  0
  2 11  1  0
  3 12  1  0
  4 13  1  0
  5 14  1  0
  5 15  1  0
  7 16  1  0
  8 17  1  0
  8 18  1  0
  9 19  1  0
M  END
