
     RDKit          3D

 23 23  0  0  0  0  0  0  0  0999 V2000
    1.3745   -1.6632   -0.4380 C   0  0  0  0  0  0  0  0  0  0  0  0
    0.2500   -2.0876    0.0783 C   0  0  0  0  0  0  0  0  0  0  0  0
   -0.8630   -1.2593    0.5939 C   0  0  0  0  0  0  0  0  0  0  0  0
   -1.4989   -0.3678   -0.3983 C   0  0  0  0  0  0  0  0  0  0  0  0
   -1.6565    1.0747    0.0947 C   0  0  0  0  0  0  0  0  0  0  0  0
   -0.3815    1.8222   -0.3005 C   0  0  0  0  0  0  0  0  0  0  0  0
    0.6518    1.4875    0.6953 C   0  0  0  0  0  0  0  0  0  0  0  0
    1.6054    0.5938    0.5846 C   0  0  0  0  0  0  0  0  0  0  0  0
    1.7820   -0.2440   -0.6203 C   0  0  0  0  0  0  0  0  0  0  0  0
    2.1103   -2.4176   -0.7804 H   0  0  0  0  0  0  0  0  0  0  0  0
    0.0873   -3.1585    0.1486 H   0  0  0  0  0  0  0  0  0  0  0  0
   -1.6471   -1.8632    1.0976 H   0  0  0  0  0  0  0  0  0  0  0  0
   -0.4212   -0.6022    1.3957 H   0  0  0  0  0  0  0  0  0  0  0  0
   -1.0014   -0.3810   -1.3958 H   0  0  0  0  0  0  0  0  0  0  0  0
   -2.5298   -0.7312   -0.5879 H   0  0  0  0  0  0  0  0  0  0  0  0
   -2.4757    1.5901   -0.4503 H   0  0  0  0  0  0  0  0  0  0  0  0
   -1.7609    1.1195    1.1821 H   0  0  0  0  0  0  0  0  0  0  0  0
   -0.1638    1.5710   -1.3329 H   0  0  0  0  0  0  0  0  0  0  0  0
   -0.5577    2.9304   -0.2758 H   0  0  0  0  0  0  0  0  0  0  0  0
    0.5995    2.0648    1.6331 H   0  0  0  0  0  0  0  0  0  0  0  0
    2.2891    0.4888    1.4476 H   0  0  0  0  0  0  0  0  0  0  0  0
    1.3178    0.2085   -1.5198 H   0  0  0  0  0  0  0  0  0  0  0  0
    2.8898   -0.1760   -0.8515 H   0  0  0  0  0  0  0  0  0  0  0  0
  1  2  2  3
  2  3  1  0
  3  4  1  0
  4  5  1  0
  5  6  1  0
  6  7  1  0
  7  8  2  3
  8  9  1  0
  9  1  1  0
  1 10  1  0
  2 11  1  0
  3 12  1  0
  3 13  1  0
  4 14  1  0
  4 15  1  0
  5 16  1  0
  5 17  1  0
  6 18  1  0
  6 19  1  0
  7 20  1  0
  8 21  1  0
  9 22  1  0
  9 23  1  0
M  END
