
     RDKit          3D

 19 21  0  0  0  0  0  0  0  0999 V2000
   -0.5228    1.7894    0.5788 C   0  0  0  0  0  0  0  0  0  0  0  0
   -1.4201    0.7983    0.7881 C   0  0  0  0  0  0  0  0  0  0  0  0
   -1.0867   -0.2134   -0.1761 C   0  0  0  0  0  0  0  0  0  0  0  0
   -1.3198   -1.6114   -0.2300 C   0  0  0  0  0  0  0  0  0  0  0  0
   -0.0570   -1.2422    0.3705 C   0  0  0  0  0  0  0  0  0  0  0  0
    1.2158   -0.9695   -0.3395 C   0  0  0  0  0  0  0  0  0  0  0  0
    1.4996    0.5319   -0.1727 C   0  0  0  0  0  0  0  0  0  0  0  0
    0.3133    1.3652   -0.5868 C   0  0  0  0  0  0  0  0  0  0  0  0
   -0.5713    0.4873   -1.2488 O   0  0  0  0  0  0  0  0  0  0  0  0
   -0.3862    2.7135    1.1038 H   0  0  0  0  0  0  0  0  0  0  0  0
   -2.1690    0.9066    1.5637 H   0  0  0  0  0  0  0  0  0  0  0  0
   -1.2815   -2.0979   -1.2504 H   0  0  0  0  0  0  0  0  0  0  0  0
   -2.0609   -2.1438    0.4142 H   0  0  0  0  0  0  0  0  0  0  0  0
    0.0362   -1.3315    1.4691 H   0  0  0  0  0  0  0  0  0  0  0  0
    2.0333   -1.5085    0.1884 H   0  0  0  0  0  0  0  0  0  0  0  0
    1.2151   -1.2125   -1.4086 H   0  0  0  0  0  0  0  0  0  0  0  0
    2.3727    0.8504   -0.7464 H   0  0  0  0  0  0  0  0  0  0  0  0
    1.6192    0.6995    0.9382 H   0  0  0  0  0  0  0  0  0  0  0  0
    0.5702    2.1887   -1.2555 H   0  0  0  0  0  0  0  0  0  0  0  0
  1  2  2  0
  2  3  1  0
  3  4  1  0
  4  5  1  0
  5  6  1  0
  6  7  1  0
  7  8  1  0
  8  9  1  0
  8  1  1  0
  5  3  1  0
  9  3  1  0
  1 10  1  0
  2 11  1  0
  4 12  1  0
  4 13  1  0
  5 14  1  0
  6 15  1  0
  6 16  1  0
  7 17  1  0
  7 18  1  0
  8 19  1  0
M  END
