
     RDKit          3D

 21 23  0  0  0  0  0  0  0  0999 V2000
    1.1473    1.5093   -0.1449 C   0  0  0  0  0  0  0  0  0  0  0  0
   -0.1594    1.4328    0.0678 C   0  0  0  0  0  0  0  0  0  0  0  0
   -0.8400    0.1025    0.1375 C   0  0  0  0  0  0  0  0  0  0  0  0
   -1.9990   -0.1128    1.0072 C   0  0  0  0  0  0  0  0  0  0  0  0
   -2.1436   -0.0276   -0.5337 C   0  0  0  0  0  0  0  0  0  0  0  0
    0.1852   -0.9785    0.0507 C   0  0  0  0  0  0  0  0  0  0  0  0
    1.4046   -0.6372    0.8724 C   0  0  0  0  0  0  0  0  0  0  0  0
    1.8665    0.2185   -0.2938 C   0  0  0  0  0  0  0  0  0  0  0  0
    1.0406   -0.7014   -1.1811 C   0  0  0  0  0  0  0  0  0  0  0  0
    1.7040    2.4196   -0.2147 H   0  0  0  0  0  0  0  0  0  0  0  0
   -0.7199    2.3531    0.1894 H   0  0  0  0  0  0  0  0  0  0  0  0
   -2.1309   -1.1292    1.4357 H   0  0  0  0  0  0  0  0  0  0  0  0
   -2.4466    0.7078    1.5872 H   0  0  0  0  0  0  0  0  0  0  0  0
   -2.3238   -1.0151   -1.0410 H   0  0  0  0  0  0  0  0  0  0  0  0
   -2.6519    0.8723   -0.9309 H   0  0  0  0  0  0  0  0  0  0  0  0
   -0.1707   -2.0116    0.1342 H   0  0  0  0  0  0  0  0  0  0  0  0
    1.2140   -0.0341    1.7829 H   0  0  0  0  0  0  0  0  0  0  0  0
    2.0400   -1.5026    1.0961 H   0  0  0  0  0  0  0  0  0  0  0  0
    2.9305    0.2538   -0.4857 H   0  0  0  0  0  0  0  0  0  0  0  0
    0.4590   -0.1681   -1.9628 H   0  0  0  0  0  0  0  0  0  0  0  0
    1.5940   -1.5516   -1.5726 H   0  0  0  0  0  0  0  0  0  0  0  0
  1  2  2  0
  2  3  1  0
  3  4  1  0
  4  5  1  0
  3  6  1  0
  6  7  1  0
  7  8  1  0
  8  9  1  0
  8  1  1  0
  5  3  1  0
  9  6  1  0
  1 10  1  0
  2 11  1  0
  4 12  1  0
  4 13  1  0
  5 14  1  0
  5 15  1  0
  6 16  1  0
  7 17  1  0
  7 18  1  0
  8 19  1  0
  9 20  1  0
  9 21  1  0
M  END
