
     RDKit          3D

 21 23  0  0  0  0  0  0  0  0999 V2000
   -0.9792    1.0670   -1.0665 C   0  0  0  0  0  0  0  0  0  0  0  0
    0.2733    1.4566   -0.8723 C   0  0  0  0  0  0  0  0  0  0  0  0
    1.1688    0.7980    0.1155 C   0  0  0  0  0  0  0  0  0  0  0  0
    1.6950   -0.5551   -0.3750 C   0  0  0  0  0  0  0  0  0  0  0  0
    0.5287   -1.1824    0.3578 C   0  0  0  0  0  0  0  0  0  0  0  0
   -0.6854   -1.2604   -0.5064 C   0  0  0  0  0  0  0  0  0  0  0  0
   -1.4929   -0.0142   -0.1795 C   0  0  0  0  0  0  0  0  0  0  0  0
   -1.0440    0.3808    1.2326 C   0  0  0  0  0  0  0  0  0  0  0  0
    0.4226    0.0719    1.1915 C   0  0  0  0  0  0  0  0  0  0  0  0
   -1.6145    1.4910   -1.8173 H   0  0  0  0  0  0  0  0  0  0  0  0
    0.6626    2.2838   -1.4517 H   0  0  0  0  0  0  0  0  0  0  0  0
    1.9822    1.4021    0.5028 H   0  0  0  0  0  0  0  0  0  0  0  0
    2.6926   -0.7981    0.0733 H   0  0  0  0  0  0  0  0  0  0  0  0
    1.6296   -0.7104   -1.4550 H   0  0  0  0  0  0  0  0  0  0  0  0
    0.8145   -2.0941    0.9038 H   0  0  0  0  0  0  0  0  0  0  0  0
   -1.2441   -2.1863   -0.3572 H   0  0  0  0  0  0  0  0  0  0  0  0
   -0.4098   -1.2141   -1.5874 H   0  0  0  0  0  0  0  0  0  0  0  0
   -2.5659   -0.1677   -0.2468 H   0  0  0  0  0  0  0  0  0  0  0  0
   -1.2370    1.4648    1.3746 H   0  0  0  0  0  0  0  0  0  0  0  0
   -1.5226   -0.2267    1.9955 H   0  0  0  0  0  0  0  0  0  0  0  0
    0.9256   -0.0064    2.1678 H   0  0  0  0  0  0  0  0  0  0  0  0
  1  2  2  0
  2  3  1  0
  3  4  1  0
  4  5  1  0
  5  6  1  0
  6  7  1  0
  7  8  1  0
  8  9  1  0
  7  1  1  0
  9  3  1  0
  9  5  1  0
  1 10  1  0
  2 11  1  0
  3 12  1  0
  4 13  1  0
  4 14  1  0
  5 15  1  0
  6 16  1  0
  6 17  1  0
  7 18  1  0
  8 19  1  0
  8 20  1  0
  9 21  1  0
M  END
