
     RDKit          3D

 18 18  0  0  0  0  0  0  0  0999 V2000
    0.7700    1.6466    0.2418 C   0  0  0  0  0  0  0  0  0  0  0  0
   -0.5548    1.5883    0.1301 C   0  0  0  0  0  0  0  0  0  0  0  0
   -1.5202    0.5803   -0.3632 C   0  0  0  0  0  0  0  0  0  0  0  0
   -1.4682   -0.7453    0.3384 C   0  0  0  0  0  0  0  0  0  0  0  0
   -0.2884   -1.0894    0.9202 O   0  0  0  0  0  0  0  0  0  0  0  0
    0.6588   -1.6573    0.0384 C   0  0  0  0  0  0  0  0  0  0  0  0
    1.7607   -0.6858   -0.2051 C   0  0  0  0  0  0  0  0  0  0  0  0
    1.7953    0.6370   -0.1207 C   0  0  0  0  0  0  0  0  0  0  0  0
    1.1574    2.5679    0.6557 H   0  0  0  0  0  0  0  0  0  0  0  0
   -1.0325    2.5170    0.4951 H   0  0  0  0  0  0  0  0  0  0  0  0
   -1.3185    0.3864   -1.4526 H   0  0  0  0  0  0  0  0  0  0  0  0
   -2.5359    1.0279   -0.3093 H   0  0  0  0  0  0  0  0  0  0  0  0
   -2.2485   -0.6846    1.1559 H   0  0  0  0  0  0  0  0  0  0  0  0
   -1.8629   -1.5547   -0.3429 H   0  0  0  0  0  0  0  0  0  0  0  0
    0.1817   -2.0095   -0.8879 H   0  0  0  0  0  0  0  0  0  0  0  0
    1.0775   -2.5596    0.5518 H   0  0  0  0  0  0  0  0  0  0  0  0
    2.7024   -1.0884   -0.5008 H   0  0  0  0  0  0  0  0  0  0  0  0
    2.7260    1.1232   -0.3448 H   0  0  0  0  0  0  0  0  0  0  0  0
  1  2  2  3
  2  3  1  0
  3  4  1  0
  4  5  1  0
  5  6  1  0
  6  7  1  0
  7  8  2  3
  8  1  1  0
  1  9  1  0
  2 10  1  0
  3 11  1  0
  3 12  1  0
  4 13  1  0
  4 14  1  0
  6 15  1  0
  6 16  1  0
  7 17  1  0
  8 18  1  0
M  END
