
     RDKit          3D

 21 23  0  0  0  0  0  0  0  0999 V2000
    1.2795    1.0015    1.0832 C   0  0  0  0  0  0  0  0  0  0  0  0
    0.1090    0.6071    0.6356 C   0  0  0  0  0  0  0  0  0  0  0  0
    0.3426   -0.2227   -0.5788 C   0  0  0  0  0  0  0  0  0  0  0  0
    1.6933   -0.8229   -0.3030 C   0  0  0  0  0  0  0  0  0  0  0  0
    2.3834    0.4659    0.2096 C   0  0  0  0  0  0  0  0  0  0  0  0
   -0.7862   -1.2218   -0.6056 C   0  0  0  0  0  0  0  0  0  0  0  0
   -1.9222   -0.5136    0.1011 C   0  0  0  0  0  0  0  0  0  0  0  0
   -2.1827    0.8669   -0.3485 C   0  0  0  0  0  0  0  0  0  0  0  0
   -1.3816    0.6405    0.8531 C   0  0  0  0  0  0  0  0  0  0  0  0
    1.4340    1.6187    1.9493 H   0  0  0  0  0  0  0  0  0  0  0  0
    0.3478    0.3766   -1.5100 H   0  0  0  0  0  0  0  0  0  0  0  0
    1.6038   -1.5530    0.5284 H   0  0  0  0  0  0  0  0  0  0  0  0
    2.2026   -1.2138   -1.1908 H   0  0  0  0  0  0  0  0  0  0  0  0
    3.2925    0.2407    0.7641 H   0  0  0  0  0  0  0  0  0  0  0  0
    2.5079    1.0955   -0.6831 H   0  0  0  0  0  0  0  0  0  0  0  0
   -0.5094   -2.1600   -0.1178 H   0  0  0  0  0  0  0  0  0  0  0  0
   -1.0764   -1.3763   -1.6627 H   0  0  0  0  0  0  0  0  0  0  0  0
   -2.6604   -1.1376    0.5913 H   0  0  0  0  0  0  0  0  0  0  0  0
   -3.2449    1.1960   -0.3029 H   0  0  0  0  0  0  0  0  0  0  0  0
   -1.6645    1.2563   -1.2601 H   0  0  0  0  0  0  0  0  0  0  0  0
   -1.7679    0.8559    1.8473 H   0  0  0  0  0  0  0  0  0  0  0  0
  1  2  2  0
  2  3  1  0
  3  4  1  0
  4  5  1  0
  3  6  1  0
  6  7  1  0
  7  8  1  0
  8  9  1  0
  5  1  1  0
  9  7  1  0
  9  2  1  0
  1 10  1  0
  3 11  1  0
  4 12  1  0
  4 13  1  0
  5 14  1  0
  5 15  1  0
  6 16  1  0
  6 17  1  0
  7 18  1  0
  8 19  1  0
  8 20  1  0
  9 21  1  0
M  END
