
     RDKit          3D

 21 22  0  0  0  0  0  0  0  0999 V2000
   -1.9670    1.1685    0.2763 C   0  0  0  0  0  0  0  0  0  0  0  0
   -0.6795    1.0999    0.5650 C   0  0  0  0  0  0  0  0  0  0  0  0
    0.1570   -0.0876    0.1992 C   0  0  0  0  0  0  0  0  0  0  0  0
    1.5099    0.3719   -0.2930 C   0  0  0  0  0  0  0  0  0  0  0  0
    2.5405   -0.5685   -0.7219 C   0  0  0  0  0  0  0  0  0  0  0  0
    2.6749    0.1622    0.6143 C   0  0  0  0  0  0  0  0  0  0  0  0
   -0.4931   -0.9106   -0.7014 O   0  0  0  0  0  0  0  0  0  0  0  0
   -1.7558   -1.1877   -0.2066 C   0  0  0  0  0  0  0  0  0  0  0  0
   -2.6171    0.0366   -0.4343 C   0  0  0  0  0  0  0  0  0  0  0  0
   -2.5059    2.0612    0.5737 H   0  0  0  0  0  0  0  0  0  0  0  0
   -0.1795    1.9108    1.0826 H   0  0  0  0  0  0  0  0  0  0  0  0
    0.2998   -0.6695    1.1358 H   0  0  0  0  0  0  0  0  0  0  0  0
    1.4833    1.3667   -0.7945 H   0  0  0  0  0  0  0  0  0  0  0  0
    3.2763   -0.2254   -1.5066 H   0  0  0  0  0  0  0  0  0  0  0  0
    2.3942   -1.6764   -0.6961 H   0  0  0  0  0  0  0  0  0  0  0  0
    2.5772   -0.4813    1.5174 H   0  0  0  0  0  0  0  0  0  0  0  0
    3.4627    0.9341    0.7130 H   0  0  0  0  0  0  0  0  0  0  0  0
   -2.1808   -2.1033   -0.6454 H   0  0  0  0  0  0  0  0  0  0  0  0
   -1.7464   -1.3484    0.9070 H   0  0  0  0  0  0  0  0  0  0  0  0
   -3.6465   -0.0883   -0.0568 H   0  0  0  0  0  0  0  0  0  0  0  0
   -2.6042    0.2350   -1.5277 H   0  0  0  0  0  0  0  0  0  0  0  0
  1  2  2  0
  2  3  1  0
  3  4  1  0
  4  5  1  0
  5  6  1  0
  3  7  1  0
  7  8  1  0
  8  9  1  0
  9  1  1  0
  6  4  1  0
  1 10  1  0
  2 11  1  0
  3 12  1  0
  4 13  1  0
  5 14  1  0
  5 15  1  0
  6 16  1  0
  6 17  1  0
  8 18  1  0
  8 19  1  0
  9 20  1  0
  9 21  1  0
M  END
