
     RDKit          3D

 19 21  0  0  0  0  0  0  0  0999 V2000
   -0.3740   -1.3053    0.7572 C   0  0  0  0  0  0  0  0  0  0  0  0
    0.6922   -0.7674    0.2097 C   0  0  0  0  0  0  0  0  0  0  0  0
    2.1249   -0.5461   -0.1123 C   0  0  0  0  0  0  0  0  0  0  0  0
    1.7453    0.9289   -0.1089 C   0  0  0  0  0  0  0  0  0  0  0  0
    0.4631    0.4052   -0.7141 C   0  0  0  0  0  0  0  0  0  0  0  0
   -0.7854    1.1306   -0.3664 C   0  0  0  0  0  0  0  0  0  0  0  0
   -1.8722    0.7190   -1.2919 O   0  0  0  0  0  0  0  0  0  0  0  0
   -1.9017    0.4921    0.0870 C   0  0  0  0  0  0  0  0  0  0  0  0
   -1.7861   -0.9073    0.5654 C   0  0  0  0  0  0  0  0  0  0  0  0
   -0.1461   -2.1577    1.4390 H   0  0  0  0  0  0  0  0  0  0  0  0
    2.8373   -0.8368    0.6793 H   0  0  0  0  0  0  0  0  0  0  0  0
    2.3803   -0.8484   -1.1347 H   0  0  0  0  0  0  0  0  0  0  0  0
    2.3543    1.5776   -0.7389 H   0  0  0  0  0  0  0  0  0  0  0  0
    1.6320    1.2483    0.9584 H   0  0  0  0  0  0  0  0  0  0  0  0
    0.6077    0.1839   -1.7882 H   0  0  0  0  0  0  0  0  0  0  0  0
   -0.6900    2.2378   -0.4655 H   0  0  0  0  0  0  0  0  0  0  0  0
   -2.7150    1.0841    0.5902 H   0  0  0  0  0  0  0  0  0  0  0  0
   -2.2388   -1.6534   -0.1249 H   0  0  0  0  0  0  0  0  0  0  0  0
   -2.3277   -0.9850    1.5597 H   0  0  0  0  0  0  0  0  0  0  0  0
  1  2  2  0
  2  3  1  0
  3  4  1  0
  4  5  1  0
  5  6  1  0
  6  7  1  0
  7  8  1  0
  8  9  1  0
  9  1  1  0
  5  2  1  0
  8  6  1  0
  1 10  1  0
  3 11  1  0
  3 12  1  0
  4 13  1  0
  4 14  1  0
  5 15  1  0
  6 16  1  0
  8 17  1  0
  9 18  1  0
  9 19  1  0
M  END
