
     RDKit          3D

 21 23  0  0  0  0  0  0  0  0999 V2000
    0.7803   -1.5856   -0.4756 C   0  0  0  0  0  0  0  0  0  0  0  0
   -0.2271   -0.7860   -0.4865 C   0  0  0  0  0  0  0  0  0  0  0  0
   -1.6500   -0.5895   -0.7642 C   0  0  0  0  0  0  0  0  0  0  0  0
   -2.0450    0.0378    0.6119 C   0  0  0  0  0  0  0  0  0  0  0  0
   -0.6661    0.5681    1.1302 C   0  0  0  0  0  0  0  0  0  0  0  0
    0.1611    0.5314   -0.0228 C   0  0  0  0  0  0  0  0  0  0  0  0
    0.9488    1.6566   -0.2459 C   0  0  0  0  0  0  0  0  0  0  0  0
    1.5863    0.4646   -0.5331 C   0  0  0  0  0  0  0  0  0  0  0  0
    1.9977   -0.8001    0.0405 C   0  0  0  0  0  0  0  0  0  0  0  0
    0.8716   -2.6306   -0.7531 H   0  0  0  0  0  0  0  0  0  0  0  0
   -1.8074    0.1727   -1.5383 H   0  0  0  0  0  0  0  0  0  0  0  0
   -2.2187   -1.5236   -0.9204 H   0  0  0  0  0  0  0  0  0  0  0  0
   -2.7740    0.8254    0.5055 H   0  0  0  0  0  0  0  0  0  0  0  0
   -2.3007   -0.7798    1.3068 H   0  0  0  0  0  0  0  0  0  0  0  0
   -0.9040    1.6079    1.4443 H   0  0  0  0  0  0  0  0  0  0  0  0
   -0.3850    0.0512    2.0553 H   0  0  0  0  0  0  0  0  0  0  0  0
    0.6563    2.3973   -1.0201 H   0  0  0  0  0  0  0  0  0  0  0  0
    1.3407    2.2371    0.6496 H   0  0  0  0  0  0  0  0  0  0  0  0
    1.6451    0.2871   -1.6902 H   0  0  0  0  0  0  0  0  0  0  0  0
    2.9057   -1.2472   -0.4120 H   0  0  0  0  0  0  0  0  0  0  0  0
    2.0844   -0.8946    1.1181 H   0  0  0  0  0  0  0  0  0  0  0  0
  1  2  2  0
  2  3  1  0
  3  4  1  0
  4  5  1  0
  5  6  1  0
  6  7  1  0
  7  8  1  0
  8  9  1  0
  9  1  1  0
  6  2  1  0
  8  6  1  0
  1 10  1  0
  3 11  1  0
  3 12  1  0
  4 13  1  0
  4 14  1  0
  5 15  1  0
  5 16  1  0
  7 17  1  0
  7 18  1  0
  8 19  1  0
  9 20  1  0
  9 21  1  0
M  END
