
     RDKit          3D

 15 15  0  0  0  0  0  0  0  0999 V2000
   -0.9670    0.9951    0.0189 C   0  0  0  0  0  0  0  0  0  0  0  0
    0.3207    1.2876   -0.0673 C   0  0  0  0  0  0  0  0  0  0  0  0
    1.5624    0.5140   -0.0010 C   0  0  0  0  0  0  0  0  0  0  0  0
    1.4560   -0.7753    0.3869 O   0  0  0  0  0  0  0  0  0  0  0  0
    0.3907   -1.4910   -0.0565 C   0  0  0  0  0  0  0  0  0  0  0  0
   -0.6958   -1.2394    0.7776 O   0  0  0  0  0  0  0  0  0  0  0  0
   -1.5643   -0.3273    0.2269 C   0  0  0  0  0  0  0  0  0  0  0  0
   -1.6671    1.8358   -0.0757 H   0  0  0  0  0  0  0  0  0  0  0  0
    0.4865    2.3574   -0.2245 H   0  0  0  0  0  0  0  0  0  0  0  0
    2.1120    0.6464   -0.9801 H   0  0  0  0  0  0  0  0  0  0  0  0
    2.2344    1.0404    0.7430 H   0  0  0  0  0  0  0  0  0  0  0  0
    0.1436   -1.3804   -1.1213 H   0  0  0  0  0  0  0  0  0  0  0  0
    0.6355   -2.5829    0.0951 H   0  0  0  0  0  0  0  0  0  0  0  0
   -2.4024   -0.1941    0.9712 H   0  0  0  0  0  0  0  0  0  0  0  0
   -2.0451   -0.6865   -0.6930 H   0  0  0  0  0  0  0  0  0  0  0  0
  1  2  2  0
  2  3  1  0
  3  4  1  0
  4  5  1  0
  5  6  1  0
  6  7  1  0
  7  1  1  0
  1  8  1  0
  2  9  1  0
  3 10  1  0
  3 11  1  0
  5 12  1  0
  5 13  1  0
  7 14  1  0
  7 15  1  0
M  END
