
     RDKit          3D

 21 23  0  0  0  0  0  0  0  0999 V2000
   -0.5376    1.5837    0.4966 C   0  0  0  0  0  0  0  0  0  0  0  0
   -0.6484    1.3387   -0.8200 C   0  0  0  0  0  0  0  0  0  0  0  0
   -0.2291   -0.0865   -1.1044 C   0  0  0  0  0  0  0  0  0  0  0  0
   -1.4173   -0.9350   -0.6861 C   0  0  0  0  0  0  0  0  0  0  0  0
   -1.5078   -0.5781    0.7969 C   0  0  0  0  0  0  0  0  0  0  0  0
   -0.2530    0.2278    1.1044 C   0  0  0  0  0  0  0  0  0  0  0  0
    0.6796   -0.2870    0.0640 C   0  0  0  0  0  0  0  0  0  0  0  0
    2.0207    0.4707   -0.0352 C   0  0  0  0  0  0  0  0  0  0  0  0
    1.8583   -1.0293    0.1773 C   0  0  0  0  0  0  0  0  0  0  0  0
   -0.6340    2.5350    0.9780 H   0  0  0  0  0  0  0  0  0  0  0  0
   -0.9716    1.9915   -1.5992 H   0  0  0  0  0  0  0  0  0  0  0  0
    0.1542   -0.2552   -2.0787 H   0  0  0  0  0  0  0  0  0  0  0  0
   -2.2843   -0.5982   -1.2533 H   0  0  0  0  0  0  0  0  0  0  0  0
   -1.2362   -2.0135   -0.8184 H   0  0  0  0  0  0  0  0  0  0  0  0
   -1.6280   -1.4476    1.4369 H   0  0  0  0  0  0  0  0  0  0  0  0
   -2.3952    0.0825    0.8948 H   0  0  0  0  0  0  0  0  0  0  0  0
    0.0595    0.2416    2.1149 H   0  0  0  0  0  0  0  0  0  0  0  0
    2.3153    1.0603    0.8629 H   0  0  0  0  0  0  0  0  0  0  0  0
    2.3087    0.8485   -1.0255 H   0  0  0  0  0  0  0  0  0  0  0  0
    2.1806   -1.4367    1.1562 H   0  0  0  0  0  0  0  0  0  0  0  0
    2.1656   -1.7132   -0.6620 H   0  0  0  0  0  0  0  0  0  0  0  0
  1  2  2  0
  2  3  1  0
  3  4  1  0
  4  5  1  0
  5  6  1  0
  6  7  1  0
  7  8  1  0
  8  9  1  0
  6  1  1  0
  9  7  1  0
  7  3  1  0
  1 10  1  0
  2 11  1  0
  3 12  1  0
  4 13  1  0
  4 14  1  0
  5 15  1  0
  5 16  1  0
  6 17  1  0
  8 18  1  0
  8 19  1  0
  9 20  1  0
  9 21  1  0
M  END
