
     RDKit          3D

 19 21  0  0  0  0  0  0  0  0999 V2000
    1.3756    1.0508    0.4302 C   0  0  0  0  0  0  0  0  0  0  0  0
    1.7612    0.0143   -0.2856 C   0  0  0  0  0  0  0  0  0  0  0  0
    0.9490   -1.2004   -0.2919 C   0  0  0  0  0  0  0  0  0  0  0  0
   -0.4958   -1.2083   -0.5769 C   0  0  0  0  0  0  0  0  0  0  0  0
   -1.2657    0.0276   -0.9236 C   0  0  0  0  0  0  0  0  0  0  0  0
   -1.0227    1.1887   -0.0248 C   0  0  0  0  0  0  0  0  0  0  0  0
    0.0053    0.9693    1.0307 C   0  0  0  0  0  0  0  0  0  0  0  0
   -0.1917   -0.2471    1.6195 O   0  0  0  0  0  0  0  0  0  0  0  0
   -0.0378   -1.3280    0.8005 C   0  0  0  0  0  0  0  0  0  0  0  0
    2.0361    1.8829    0.5498 H   0  0  0  0  0  0  0  0  0  0  0  0
    2.6728    0.0598   -0.8663 H   0  0  0  0  0  0  0  0  0  0  0  0
    1.5228   -2.1383   -0.5204 H   0  0  0  0  0  0  0  0  0  0  0  0
   -0.9043   -2.1302   -1.0498 H   0  0  0  0  0  0  0  0  0  0  0  0
   -2.3598   -0.2528   -0.8773 H   0  0  0  0  0  0  0  0  0  0  0  0
   -1.0863    0.2702   -1.9989 H   0  0  0  0  0  0  0  0  0  0  0  0
   -0.7620    2.0994   -0.6340 H   0  0  0  0  0  0  0  0  0  0  0  0
   -1.9755    1.4882    0.5032 H   0  0  0  0  0  0  0  0  0  0  0  0
   -0.0534    1.7642    1.7858 H   0  0  0  0  0  0  0  0  0  0  0  0
   -0.1680   -2.3104    1.3299 H   0  0  0  0  0  0  0  0  0  0  0  0
  1  2  2  0
  2  3  1  0
  3  4  1  0
  4  5  1  0
  5  6  1  0
  6  7  1  0
  7  8  1  0
  8  9  1  0
  7  1  1  0
  9  3  1  0
  9  4  1  0
  1 10  1  0
  2 11  1  0
  3 12  1  0
  4 13  1  0
  5 14  1  0
  5 15  1  0
  6 16  1  0
  6 17  1  0
  7 18  1  0
  9 19  1  0
M  END
