
     RDKit          3D

 19 21  0  0  0  0  0  0  0  0999 V2000
   -1.6160    0.4718    1.2652 C   0  0  0  0  0  0  0  0  0  0  0  0
   -1.8436   -0.8224    0.9230 C   0  0  0  0  0  0  0  0  0  0  0  0
   -0.9410   -0.9955   -0.2623 C   0  0  0  0  0  0  0  0  0  0  0  0
   -1.2071    0.2963   -1.0058 C   0  0  0  0  0  0  0  0  0  0  0  0
   -0.6079    0.8908    0.2723 C   0  0  0  0  0  0  0  0  0  0  0  0
    0.3025   -0.3218    0.2605 C   0  0  0  0  0  0  0  0  0  0  0  0
    1.4674   -0.2593   -0.6657 C   0  0  0  0  0  0  0  0  0  0  0  0
    2.6876    0.4256   -0.0935 C   0  0  0  0  0  0  0  0  0  0  0  0
    1.9355    0.9849   -1.1083 O   0  0  0  0  0  0  0  0  0  0  0  0
   -2.0595    1.0530    2.0633 H   0  0  0  0  0  0  0  0  0  0  0  0
   -2.5073   -1.5304    1.3941 H   0  0  0  0  0  0  0  0  0  0  0  0
   -0.8981   -1.9101   -0.7672 H   0  0  0  0  0  0  0  0  0  0  0  0
   -2.2905    0.4776   -1.1235 H   0  0  0  0  0  0  0  0  0  0  0  0
   -0.6286    0.4630   -1.9101 H   0  0  0  0  0  0  0  0  0  0  0  0
   -0.2101    1.8568    0.2502 H   0  0  0  0  0  0  0  0  0  0  0  0
    0.5575   -0.7296    1.2606 H   0  0  0  0  0  0  0  0  0  0  0  0
    1.5973   -1.1180   -1.3456 H   0  0  0  0  0  0  0  0  0  0  0  0
    2.6235    0.8734    0.9199 H   0  0  0  0  0  0  0  0  0  0  0  0
    3.6385   -0.1061   -0.3269 H   0  0  0  0  0  0  0  0  0  0  0  0
  1  2  2  0
  2  3  1  0
  3  4  1  0
  4  5  1  0
  5  6  1  0
  6  7  1  0
  7  8  1  0
  8  9  1  0
  5  1  1  0
  9  7  1  0
  6  3  1  0
  1 10  1  0
  2 11  1  0
  3 12  1  0
  4 13  1  0
  4 14  1  0
  5 15  1  0
  6 16  1  0
  7 17  1  0
  8 18  1  0
  8 19  1  0
M  END
