
     RDKit          3D

 17 18  0  0  0  0  0  0  0  0999 V2000
   -2.0004   -0.4837    0.2648 C   0  0  0  0  0  0  0  0  0  0  0  0
   -1.8747    0.8496    0.4031 C   0  0  0  0  0  0  0  0  0  0  0  0
   -0.7659    1.6482   -0.0317 C   0  0  0  0  0  0  0  0  0  0  0  0
    0.4627    1.2535   -0.2847 C   0  0  0  0  0  0  0  0  0  0  0  0
    1.0924   -0.0714   -0.2137 C   0  0  0  0  0  0  0  0  0  0  0  0
    0.2443   -1.2075   -0.5420 C   0  0  0  0  0  0  0  0  0  0  0  0
   -1.0455   -1.4006   -0.3520 C   0  0  0  0  0  0  0  0  0  0  0  0
    2.2702   -0.2880    0.5637 C   0  0  0  0  0  0  0  0  0  0  0  0
    2.4094   -0.1473   -0.8707 O   0  0  0  0  0  0  0  0  0  0  0  0
   -2.8886   -0.9494    0.6394 H   0  0  0  0  0  0  0  0  0  0  0  0
   -2.7184    1.3183    0.8960 H   0  0  0  0  0  0  0  0  0  0  0  0
   -0.9725    2.6946   -0.1629 H   0  0  0  0  0  0  0  0  0  0  0  0
    1.1539    2.0397   -0.6059 H   0  0  0  0  0  0  0  0  0  0  0  0
    0.7247   -2.0720   -1.0333 H   0  0  0  0  0  0  0  0  0  0  0  0
   -1.4689   -2.3598   -0.6918 H   0  0  0  0  0  0  0  0  0  0  0  0
    2.5168   -1.3170    0.9419 H   0  0  0  0  0  0  0  0  0  0  0  0
    2.8607    0.4928    1.0798 H   0  0  0  0  0  0  0  0  0  0  0  0
  1  2  2  0
  2  3  1  0
  3  4  2  0
  4  5  1  0
  5  6  1  0
  6  7  2  0
  5  8  1  0
  8  9  1  0
  7  1  1  0
  9  5  1  0
  1 10  1  0
  2 11  1  0
  3 12  1  0
  4 13  1  0
  6 14  1  0
  7 15  1  0
  8 16  1  0
  8 17  1  0
M  END
