
     RDKit          3D

 19 21  0  0  0  0  0  0  0  0999 V2000
    1.0980    1.2672    0.4930 C   0  0  0  0  0  0  0  0  0  0  0  0
   -0.0527    0.6577    0.3271 C   0  0  0  0  0  0  0  0  0  0  0  0
    0.2150   -0.5868   -0.5246 C   0  0  0  0  0  0  0  0  0  0  0  0
    1.6304   -0.9173   -0.1300 C   0  0  0  0  0  0  0  0  0  0  0  0
    2.2017    0.5160   -0.2026 C   0  0  0  0  0  0  0  0  0  0  0  0
   -0.8961   -1.2028    0.2925 C   0  0  0  0  0  0  0  0  0  0  0  0
   -1.4236    0.2108    0.3140 C   0  0  0  0  0  0  0  0  0  0  0  0
   -2.6446    0.7274    0.2274 C   0  0  0  0  0  0  0  0  0  0  0  0
   -2.0155    0.4732   -1.0499 O   0  0  0  0  0  0  0  0  0  0  0  0
    1.2873    2.2023    1.0545 H   0  0  0  0  0  0  0  0  0  0  0  0
    0.0160   -0.4192   -1.5797 H   0  0  0  0  0  0  0  0  0  0  0  0
    1.6428   -1.2805    0.8964 H   0  0  0  0  0  0  0  0  0  0  0  0
    2.0792   -1.5675   -0.8800 H   0  0  0  0  0  0  0  0  0  0  0  0
    3.1474    0.5916    0.3249 H   0  0  0  0  0  0  0  0  0  0  0  0
    2.2067    0.8523   -1.2446 H   0  0  0  0  0  0  0  0  0  0  0  0
   -1.4996   -1.9450   -0.2264 H   0  0  0  0  0  0  0  0  0  0  0  0
   -0.5296   -1.4724    1.3060 H   0  0  0  0  0  0  0  0  0  0  0  0
   -3.5762    0.0967    0.2918 H   0  0  0  0  0  0  0  0  0  0  0  0
   -2.8864    1.7963    0.3102 H   0  0  0  0  0  0  0  0  0  0  0  0
  1  2  2  0
  2  3  1  0
  3  4  1  0
  4  5  1  0
  3  6  1  0
  6  7  1  0
  7  8  1  0
  8  9  1  0
  5  1  1  0
  9  7  1  0
  7  2  1  0
  1 10  1  0
  3 11  1  0
  4 12  1  0
  4 13  1  0
  5 14  1  0
  5 15  1  0
  6 16  1  0
  6 17  1  0
  8 18  1  0
  8 19  1  0
M  END
