
     RDKit          3D

 17 18  0  0  0  0  0  0  0  0999 V2000
    1.5335   -0.0742    0.4345 C   0  0  0  0  0  0  0  0  0  0  0  0
    0.7291   -0.9461    1.0195 C   0  0  0  0  0  0  0  0  0  0  0  0
   -0.5324   -0.9993    0.2484 C   0  0  0  0  0  0  0  0  0  0  0  0
   -1.2594    0.2901    0.5482 C   0  0  0  0  0  0  0  0  0  0  0  0
   -0.3577    1.3528   -0.0940 C   0  0  0  0  0  0  0  0  0  0  0  0
    0.7592    0.5725   -0.6891 C   0  0  0  0  0  0  0  0  0  0  0  0
   -0.0116   -0.6758   -1.1630 C   0  0  0  0  0  0  0  0  0  0  0  0
    2.5576    0.1116    0.7388 H   0  0  0  0  0  0  0  0  0  0  0  0
    0.9349   -1.5201    1.8940 H   0  0  0  0  0  0  0  0  0  0  0  0
   -1.1024   -1.8930    0.3110 H   0  0  0  0  0  0  0  0  0  0  0  0
   -1.2831    0.3963    1.6522 H   0  0  0  0  0  0  0  0  0  0  0  0
   -2.2653    0.2995    0.1140 H   0  0  0  0  0  0  0  0  0  0  0  0
   -0.9131    1.8557   -0.8925 H   0  0  0  0  0  0  0  0  0  0  0  0
    0.0407    2.0435    0.6742 H   0  0  0  0  0  0  0  0  0  0  0  0
    1.3569    1.0270   -1.4410 H   0  0  0  0  0  0  0  0  0  0  0  0
    0.6560   -1.4467   -1.5406 H   0  0  0  0  0  0  0  0  0  0  0  0
   -0.8428   -0.3939   -1.8146 H   0  0  0  0  0  0  0  0  0  0  0  0
  1  2  2  0
  2  3  1  0
  3  4  1  0
  4  5  1  0
  5  6  1  0
  6  7  1  0
  6  1  1  0
  7  3  1  0
  1  8  1  0
  2  9  1  0
  3 10  1  0
  4 11  1  0
  4 12  1  0
  5 13  1  0
  5 14  1  0
  6 15  1  0
  7 16  1  0
  7 17  1  0
M  END
