
     RDKit          3D

 19 21  0  0  0  0  0  0  0  0999 V2000
    1.9691    0.4102    0.3871 C   0  0  0  0  0  0  0  0  0  0  0  0
    0.9681    1.2640    0.4877 C   0  0  0  0  0  0  0  0  0  0  0  0
   -0.1893    0.8503   -0.3098 C   0  0  0  0  0  0  0  0  0  0  0  0
   -1.4297    0.6984    0.6005 C   0  0  0  0  0  0  0  0  0  0  0  0
   -2.0056   -0.5009   -0.0458 C   0  0  0  0  0  0  0  0  0  0  0  0
   -1.9434   -1.7806    0.1800 O   0  0  0  0  0  0  0  0  0  0  0  0
   -0.7131   -1.3539    0.1747 C   0  0  0  0  0  0  0  0  0  0  0  0
    0.1028   -0.5623   -0.7848 C   0  0  0  0  0  0  0  0  0  0  0  0
    1.5666   -0.6910   -0.5155 C   0  0  0  0  0  0  0  0  0  0  0  0
    2.9474    0.4975    0.8912 H   0  0  0  0  0  0  0  0  0  0  0  0
    1.0096    2.1572    1.0893 H   0  0  0  0  0  0  0  0  0  0  0  0
   -0.4233    1.5155   -1.1617 H   0  0  0  0  0  0  0  0  0  0  0  0
   -2.0696    1.5894    0.5456 H   0  0  0  0  0  0  0  0  0  0  0  0
   -1.0173    0.5111    1.6225 H   0  0  0  0  0  0  0  0  0  0  0  0
   -2.2459   -0.2730   -1.1330 H   0  0  0  0  0  0  0  0  0  0  0  0
   -0.2638   -1.2920    1.2140 H   0  0  0  0  0  0  0  0  0  0  0  0
   -0.1688   -0.7096   -1.8456 H   0  0  0  0  0  0  0  0  0  0  0  0
    1.7217   -1.6505    0.0476 H   0  0  0  0  0  0  0  0  0  0  0  0
    2.1844   -0.6799   -1.4441 H   0  0  0  0  0  0  0  0  0  0  0  0
  1  2  2  0
  2  3  1  0
  3  4  1  0
  4  5  1  0
  5  6  1  0
  6  7  1  0
  7  8  1  0
  8  9  1  0
  9  1  1  0
  8  3  1  0
  7  5  1  0
  1 10  1  0
  2 11  1  0
  3 12  1  0
  4 13  1  0
  4 14  1  0
  5 15  1  0
  7 16  1  0
  8 17  1  0
  9 18  1  0
  9 19  1  0
M  END
