
     RDKit          3D

 19 21  0  0  0  0  0  0  0  0999 V2000
   -1.0250    1.1106   -0.6941 C   0  0  0  0  0  0  0  0  0  0  0  0
    0.2974    1.3045   -0.6473 C   0  0  0  0  0  0  0  0  0  0  0  0
    1.1895    0.8613    0.4307 C   0  0  0  0  0  0  0  0  0  0  0  0
    2.1527   -0.2062    0.3865 C   0  0  0  0  0  0  0  0  0  0  0  0
    0.8448   -0.6620    0.5978 C   0  0  0  0  0  0  0  0  0  0  0  0
    0.0036   -1.1783   -0.5093 C   0  0  0  0  0  0  0  0  0  0  0  0
   -1.0573   -0.9907    0.5601 C   0  0  0  0  0  0  0  0  0  0  0  0
   -1.8855    0.2003    0.1504 C   0  0  0  0  0  0  0  0  0  0  0  0
   -0.0853   -0.6876    1.5207 O   0  0  0  0  0  0  0  0  0  0  0  0
   -1.5811    1.6751   -1.4346 H   0  0  0  0  0  0  0  0  0  0  0  0
    0.7827    1.8297   -1.4578 H   0  0  0  0  0  0  0  0  0  0  0  0
    1.1332    1.4666    1.3694 H   0  0  0  0  0  0  0  0  0  0  0  0
    2.9812   -0.1690    1.1544 H   0  0  0  0  0  0  0  0  0  0  0  0
    2.6207   -0.4088   -0.6261 H   0  0  0  0  0  0  0  0  0  0  0  0
   -0.1071   -0.5744   -1.4068 H   0  0  0  0  0  0  0  0  0  0  0  0
    0.2308   -2.2588   -0.7035 H   0  0  0  0  0  0  0  0  0  0  0  0
   -1.5982   -1.9303    0.7298 H   0  0  0  0  0  0  0  0  0  0  0  0
   -2.7204   -0.1578   -0.4464 H   0  0  0  0  0  0  0  0  0  0  0  0
   -2.1767    0.7757    1.0263 H   0  0  0  0  0  0  0  0  0  0  0  0
  1  2  2  0
  2  3  1  0
  3  4  1  0
  4  5  1  0
  5  6  1  0
  6  7  1  0
  7  8  1  0
  7  9  1  0
  8  1  1  0
  5  3  1  0
  9  5  1  0
  1 10  1  0
  2 11  1  0
  3 12  1  0
  4 13  1  0
  4 14  1  0
  6 15  1  0
  6 16  1  0
  7 17  1  0
  8 18  1  0
  8 19  1  0
M  END
