
     RDKit          3D

 17 19  0  0  0  0  0  0  0  0999 V2000
    0.1338    1.5773    0.2340 C   0  0  0  0  0  0  0  0  0  0  0  0
    1.3004    0.9306    0.1290 C   0  0  0  0  0  0  0  0  0  0  0  0
    1.5094   -0.4880    0.4203 C   0  0  0  0  0  0  0  0  0  0  0  0
    1.8449   -1.5389   -0.2675 O   0  0  0  0  0  0  0  0  0  0  0  0
    0.6596   -1.1591   -0.6915 C   0  0  0  0  0  0  0  0  0  0  0  0
   -0.7015   -1.2227   -0.1306 C   0  0  0  0  0  0  0  0  0  0  0  0
   -1.4219    0.0047   -0.5101 C   0  0  0  0  0  0  0  0  0  0  0  0
   -2.2897    0.7798    0.0916 O   0  0  0  0  0  0  0  0  0  0  0  0
   -1.1335    0.9914    0.6547 C   0  0  0  0  0  0  0  0  0  0  0  0
    0.1569    2.6504   -0.0266 H   0  0  0  0  0  0  0  0  0  0  0  0
    2.1597    1.5173   -0.2013 H   0  0  0  0  0  0  0  0  0  0  0  0
    1.1795   -0.7202    1.4803 H   0  0  0  0  0  0  0  0  0  0  0  0
    0.6955   -0.6746   -1.7073 H   0  0  0  0  0  0  0  0  0  0  0  0
   -1.2204   -2.1209   -0.5770 H   0  0  0  0  0  0  0  0  0  0  0  0
   -0.6799   -1.4040    0.9721 H   0  0  0  0  0  0  0  0  0  0  0  0
   -1.1585    0.3683   -1.5467 H   0  0  0  0  0  0  0  0  0  0  0  0
   -1.0342    0.5085    1.6764 H   0  0  0  0  0  0  0  0  0  0  0  0
  1  2  2  0
  2  3  1  0
  3  4  1  0
  4  5  1  0
  5  6  1  0
  6  7  1  0
  7  8  1  0
  8  9  1  0
  9  1  1  0
  5  3  1  0
  9  7  1  0
  1 10  1  0
  2 11  1  0
  3 12  1  0
  5 13  1  0
  6 14  1  0
  6 15  1  0
  7 16  1  0
  9 17  1  0
M  END
