
     RDKit          3D

 19 20  0  0  0  0  0  0  0  0999 V2000
   -0.6080    1.3066    0.4805 C   0  0  0  0  0  0  0  0  0  0  0  0
    0.4782    0.6467    0.1075 C   0  0  0  0  0  0  0  0  0  0  0  0
    1.9279    0.8198    0.2573 C   0  0  0  0  0  0  0  0  0  0  0  0
    2.4117   -0.4537    0.3612 O   0  0  0  0  0  0  0  0  0  0  0  0
    1.5988   -1.3231   -0.2994 C   0  0  0  0  0  0  0  0  0  0  0  0
    0.3118   -0.6064   -0.6707 C   0  0  0  0  0  0  0  0  0  0  0  0
   -0.8030   -1.3313   -0.3914 O   0  0  0  0  0  0  0  0  0  0  0  0
   -1.8499   -0.7248    0.2224 C   0  0  0  0  0  0  0  0  0  0  0  0
   -1.9122    0.7573    0.1037 C   0  0  0  0  0  0  0  0  0  0  0  0
   -0.4432    2.2158    1.0442 H   0  0  0  0  0  0  0  0  0  0  0  0
    2.1581    1.4584    1.1370 H   0  0  0  0  0  0  0  0  0  0  0  0
    2.4120    1.2951   -0.6366 H   0  0  0  0  0  0  0  0  0  0  0  0
    1.3567   -2.1703    0.3896 H   0  0  0  0  0  0  0  0  0  0  0  0
    2.0854   -1.6949   -1.2346 H   0  0  0  0  0  0  0  0  0  0  0  0
    0.3857   -0.3024   -1.7484 H   0  0  0  0  0  0  0  0  0  0  0  0
   -2.7959   -1.1333   -0.2404 H   0  0  0  0  0  0  0  0  0  0  0  0
   -1.9029   -0.9692    1.3248 H   0  0  0  0  0  0  0  0  0  0  0  0
   -2.7025    1.1540    0.7510 H   0  0  0  0  0  0  0  0  0  0  0  0
   -2.1087    1.0559   -0.9580 H   0  0  0  0  0  0  0  0  0  0  0  0
  1  2  2  0
  2  3  1  0
  3  4  1  0
  4  5  1  0
  5  6  1  0
  6  7  1  0
  7  8  1  0
  8  9  1  0
  9  1  1  0
  6  2  1  0
  1 10  1  0
  3 11  1  0
  3 12  1  0
  5 13  1  0
  5 14  1  0
  6 15  1  0
  8 16  1  0
  8 17  1  0
  9 18  1  0
  9 19  1  0
M  END
