
     RDKit          3D

 17 19  0  0  0  0  0  0  0  0999 V2000
   -1.4543    0.9570    0.0588 C   0  0  0  0  0  0  0  0  0  0  0  0
   -1.7558   -0.1082    0.8381 C   0  0  0  0  0  0  0  0  0  0  0  0
   -1.1286   -1.2056    0.0058 C   0  0  0  0  0  0  0  0  0  0  0  0
   -1.6274   -0.8216   -1.2622 O   0  0  0  0  0  0  0  0  0  0  0  0
   -0.7881    0.3013   -1.0902 C   0  0  0  0  0  0  0  0  0  0  0  0
    0.1739   -0.6657   -0.4417 C   0  0  0  0  0  0  0  0  0  0  0  0
    1.0776   -0.0678    0.5905 C   0  0  0  0  0  0  0  0  0  0  0  0
    2.3908    0.4741    0.1241 C   0  0  0  0  0  0  0  0  0  0  0  0
    1.2857    1.3573    0.2848 O   0  0  0  0  0  0  0  0  0  0  0  0
   -1.6753    1.9893    0.2846 H   0  0  0  0  0  0  0  0  0  0  0  0
   -2.2808   -0.1661    1.7672 H   0  0  0  0  0  0  0  0  0  0  0  0
   -1.2628   -2.2038    0.3159 H   0  0  0  0  0  0  0  0  0  0  0  0
   -0.4990    0.8534   -1.9382 H   0  0  0  0  0  0  0  0  0  0  0  0
    0.6786   -1.3235   -1.1483 H   0  0  0  0  0  0  0  0  0  0  0  0
    0.9828   -0.2889    1.6502 H   0  0  0  0  0  0  0  0  0  0  0  0
    3.1869    0.7071    0.8589 H   0  0  0  0  0  0  0  0  0  0  0  0
    2.6958    0.2118   -0.8983 H   0  0  0  0  0  0  0  0  0  0  0  0
  1  2  2  0
  2  3  1  0
  3  4  1  0
  4  5  1  0
  5  6  1  0
  6  7  1  0
  7  8  1  0
  8  9  1  0
  5  1  1  0
  9  7  1  0
  6  3  1  0
  1 10  1  0
  2 11  1  0
  3 12  1  0
  5 13  1  0
  6 14  1  0
  7 15  1  0
  8 16  1  0
  8 17  1  0
M  END
