
     RDKit          3D

 19 21  0  0  0  0  0  0  0  0999 V2000
    0.4278    1.5902    0.0726 C   0  0  0  0  0  0  0  0  0  0  0  0
   -0.6820    0.8974   -0.0121 C   0  0  0  0  0  0  0  0  0  0  0  0
   -2.0585    0.5027   -0.3257 C   0  0  0  0  0  0  0  0  0  0  0  0
   -1.4806   -0.9266   -0.4253 C   0  0  0  0  0  0  0  0  0  0  0  0
   -0.5528   -0.4698    0.6394 C   0  0  0  0  0  0  0  0  0  0  0  0
    0.8748   -0.9106    0.6139 C   0  0  0  0  0  0  0  0  0  0  0  0
    1.6704   -0.4656   -0.5522 C   0  0  0  0  0  0  0  0  0  0  0  0
    1.7214    0.8071    0.2587 C   0  0  0  0  0  0  0  0  0  0  0  0
    1.6097    0.0115    1.3981 O   0  0  0  0  0  0  0  0  0  0  0  0
    0.5058    2.6727    0.0217 H   0  0  0  0  0  0  0  0  0  0  0  0
   -2.4834    0.8630   -1.2807 H   0  0  0  0  0  0  0  0  0  0  0  0
   -2.7534    0.5409    0.5312 H   0  0  0  0  0  0  0  0  0  0  0  0
   -2.1928   -1.7111   -0.1381 H   0  0  0  0  0  0  0  0  0  0  0  0
   -1.0649   -1.0164   -1.4484 H   0  0  0  0  0  0  0  0  0  0  0  0
   -0.9859   -0.5358    1.6329 H   0  0  0  0  0  0  0  0  0  0  0  0
    1.0083   -1.9171    1.0017 H   0  0  0  0  0  0  0  0  0  0  0  0
    1.1808   -0.3991   -1.5293 H   0  0  0  0  0  0  0  0  0  0  0  0
    2.6399   -0.9469   -0.6177 H   0  0  0  0  0  0  0  0  0  0  0  0
    2.6153    1.4135    0.1593 H   0  0  0  0  0  0  0  0  0  0  0  0
  1  2  2  0
  2  3  1  0
  3  4  1  0
  4  5  1  0
  5  6  1  0
  6  7  1  0
  7  8  1  0
  8  9  1  0
  8  1  1  0
  5  2  1  0
  9  6  1  0
  1 10  1  0
  3 11  1  0
  3 12  1  0
  4 13  1  0
  4 14  1  0
  5 15  1  0
  6 16  1  0
  7 17  1  0
  7 18  1  0
  8 19  1  0
M  END
