
     RDKit          3D

 15 17  0  0  0  0  0  0  0  0999 V2000
    1.3547   -0.7474   -0.0908 C   0  0  0  0  0  0  0  0  0  0  0  0
    0.4303   -1.4792    0.5116 C   0  0  0  0  0  0  0  0  0  0  0  0
   -0.9176   -0.8827    0.3359 C   0  0  0  0  0  0  0  0  0  0  0  0
   -1.0393    0.5601    0.4712 C   0  0  0  0  0  0  0  0  0  0  0  0
    0.2163    1.3890    0.3830 C   0  0  0  0  0  0  0  0  0  0  0  0
    0.6777    0.4177   -0.7231 C   0  0  0  0  0  0  0  0  0  0  0  0
   -0.7225   -0.0158   -0.8448 C   0  0  0  0  0  0  0  0  0  0  0  0
    2.4075   -0.9425   -0.1280 H   0  0  0  0  0  0  0  0  0  0  0  0
    0.6468   -2.3898    1.0562 H   0  0  0  0  0  0  0  0  0  0  0  0
   -1.7976   -1.5596    0.2649 H   0  0  0  0  0  0  0  0  0  0  0  0
   -2.0098    1.0764    0.6496 H   0  0  0  0  0  0  0  0  0  0  0  0
    0.8002    1.2503    1.3382 H   0  0  0  0  0  0  0  0  0  0  0  0
    0.1051    2.4233    0.0548 H   0  0  0  0  0  0  0  0  0  0  0  0
    1.1834    0.8875   -1.5587 H   0  0  0  0  0  0  0  0  0  0  0  0
   -1.3352    0.0126   -1.7200 H   0  0  0  0  0  0  0  0  0  0  0  0
  1  2  2  0
  2  3  1  0
  3  4  1  0
  4  5  1  0
  5  6  1  0
  6  7  1  0
  6  1  1  0
  7  3  1  0
  7  4  1  0
  1  8  1  0
  2  9  1  0
  3 10  1  0
  4 11  1  0
  5 12  1  0
  5 13  1  0
  6 14  1  0
  7 15  1  0
M  END
