
     RDKit          3D

 21 23  0  0  0  0  0  0  0  0999 V2000
    2.1373    0.3493   -0.5619 C   0  0  0  0  0  0  0  0  0  0  0  0
    1.4754    1.1569    0.2382 C   0  0  0  0  0  0  0  0  0  0  0  0
    0.3172    0.5778    0.8966 C   0  0  0  0  0  0  0  0  0  0  0  0
   -1.0144    1.0047    0.3535 C   0  0  0  0  0  0  0  0  0  0  0  0
   -1.8761   -0.1955    0.7767 C   0  0  0  0  0  0  0  0  0  0  0  0
   -1.0106   -0.9292   -0.2393 C   0  0  0  0  0  0  0  0  0  0  0  0
   -1.0846    0.3824   -1.0324 C   0  0  0  0  0  0  0  0  0  0  0  0
    0.3454   -0.8601    0.4042 C   0  0  0  0  0  0  0  0  0  0  0  0
    1.4752   -0.9708   -0.5537 C   0  0  0  0  0  0  0  0  0  0  0  0
    3.0439    0.5781   -1.1607 H   0  0  0  0  0  0  0  0  0  0  0  0
    1.7974    2.2046    0.3852 H   0  0  0  0  0  0  0  0  0  0  0  0
    0.3303    0.6267    2.0050 H   0  0  0  0  0  0  0  0  0  0  0  0
   -1.3964    1.9747    0.5127 H   0  0  0  0  0  0  0  0  0  0  0  0
   -2.9318   -0.1073    0.5206 H   0  0  0  0  0  0  0  0  0  0  0  0
   -1.6560   -0.4812    1.8349 H   0  0  0  0  0  0  0  0  0  0  0  0
   -1.3677   -1.8117   -0.6875 H   0  0  0  0  0  0  0  0  0  0  0  0
   -2.0758    0.4710   -1.4835 H   0  0  0  0  0  0  0  0  0  0  0  0
   -0.2208    0.5683   -1.6755 H   0  0  0  0  0  0  0  0  0  0  0  0
    0.4198   -1.5294    1.2769 H   0  0  0  0  0  0  0  0  0  0  0  0
    1.1206   -1.2229   -1.5973 H   0  0  0  0  0  0  0  0  0  0  0  0
    2.1716   -1.7865   -0.2125 H   0  0  0  0  0  0  0  0  0  0  0  0
  1  2  2  0
  2  3  1  0
  3  4  1  0
  4  5  1  0
  5  6  1  0
  6  7  1  0
  6  8  1  0
  8  9  1  0
  9  1  1  0
  8  3  1  0
  7  4  1  0
  1 10  1  0
  2 11  1  0
  3 12  1  0
  4 13  1  0
  5 14  1  0
  5 15  1  0
  6 16  1  0
  7 17  1  0
  7 18  1  0
  8 19  1  0
  9 20  1  0
  9 21  1  0
M  END
