
     RDKit          3D

 19 21  0  0  0  0  0  0  0  0999 V2000
    0.1919    1.7958   -0.3076 C   0  0  0  0  0  0  0  0  0  0  0  0
    1.0580    0.8927    0.0618 C   0  0  0  0  0  0  0  0  0  0  0  0
    2.2163    0.0709    0.4261 C   0  0  0  0  0  0  0  0  0  0  0  0
    1.3996   -1.0703   -0.2315 C   0  0  0  0  0  0  0  0  0  0  0  0
    0.2745   -0.3550    0.4681 C   0  0  0  0  0  0  0  0  0  0  0  0
   -1.0402   -0.2124   -0.1929 C   0  0  0  0  0  0  0  0  0  0  0  0
   -1.2111    1.2916   -0.2481 C   0  0  0  0  0  0  0  0  0  0  0  0
   -2.1085   -1.1484    0.0562 C   0  0  0  0  0  0  0  0  0  0  0  0
   -1.3863   -1.0183   -1.2371 O   0  0  0  0  0  0  0  0  0  0  0  0
    0.4029    2.8281   -0.6363 H   0  0  0  0  0  0  0  0  0  0  0  0
    3.1676    0.2651   -0.0787 H   0  0  0  0  0  0  0  0  0  0  0  0
    2.2652   -0.0576    1.5325 H   0  0  0  0  0  0  0  0  0  0  0  0
    1.6571   -2.0616    0.1486 H   0  0  0  0  0  0  0  0  0  0  0  0
    1.4086   -0.9239   -1.3182 H   0  0  0  0  0  0  0  0  0  0  0  0
    0.3103   -0.5515    1.5439 H   0  0  0  0  0  0  0  0  0  0  0  0
   -1.6379    1.6724    0.6989 H   0  0  0  0  0  0  0  0  0  0  0  0
   -1.8271    1.5795   -1.1017 H   0  0  0  0  0  0  0  0  0  0  0  0
   -3.1888   -0.8948   -0.1407 H   0  0  0  0  0  0  0  0  0  0  0  0
   -1.9522   -2.1025    0.5568 H   0  0  0  0  0  0  0  0  0  0  0  0
  1  2  2  0
  2  3  1  0
  3  4  1  0
  4  5  1  0
  5  6  1  0
  6  7  1  0
  6  8  1  0
  8  9  1  0
  7  1  1  0
  5  2  1  0
  9  6  1  0
  1 10  1  0
  3 11  1  0
  3 12  1  0
  4 13  1  0
  4 14  1  0
  5 15  1  0
  7 16  1  0
  7 17  1  0
  8 18  1  0
  8 19  1  0
M  END
