
     RDKit          3D

 16 17  0  0  0  0  0  0  0  0999 V2000
    1.2706    0.3517    0.9294 C   0  0  0  0  0  0  0  0  0  0  0  0
    0.0786    0.3498    0.4148 C   0  0  0  0  0  0  0  0  0  0  0  0
   -1.3468    0.6622    0.5206 C   0  0  0  0  0  0  0  0  0  0  0  0
   -1.9271   -0.5386   -0.2288 C   0  0  0  0  0  0  0  0  0  0  0  0
   -0.9674   -1.0050   -1.0918 O   0  0  0  0  0  0  0  0  0  0  0  0
    0.1759   -0.2684   -0.9442 C   0  0  0  0  0  0  0  0  0  0  0  0
    1.3631   -0.9951   -0.9005 O   0  0  0  0  0  0  0  0  0  0  0  0
    2.2055   -0.2566   -0.0626 C   0  0  0  0  0  0  0  0  0  0  0  0
    1.5893    0.7298    1.9311 H   0  0  0  0  0  0  0  0  0  0  0  0
   -1.7305    0.7166    1.5522 H   0  0  0  0  0  0  0  0  0  0  0  0
   -1.5481    1.5734   -0.0720 H   0  0  0  0  0  0  0  0  0  0  0  0
   -2.1324   -1.2978    0.5832 H   0  0  0  0  0  0  0  0  0  0  0  0
   -2.8760   -0.2756   -0.7362 H   0  0  0  0  0  0  0  0  0  0  0  0
    0.2416    0.5925   -1.6547 H   0  0  0  0  0  0  0  0  0  0  0  0
    2.6536    0.5803   -0.6347 H   0  0  0  0  0  0  0  0  0  0  0  0
    2.9502   -0.9191    0.3942 H   0  0  0  0  0  0  0  0  0  0  0  0
  1  2  2  0
  2  3  1  0
  3  4  1  0
  4  5  1  0
  5  6  1  0
  6  7  1  0
  7  8  1  0
  8  1  1  0
  6  2  1  0
  1  9  1  0
  3 10  1  0
  3 11  1  0
  4 12  1  0
  4 13  1  0
  6 14  1  0
  8 15  1  0
  8 16  1  0
M  END
