
     RDKit          3D

 18 19  0  0  0  0  0  0  0  0999 V2000
    0.7052    1.5032   -0.1761 C   0  0  0  0  0  0  0  0  0  0  0  0
   -0.5739    1.4401    0.1487 C   0  0  0  0  0  0  0  0  0  0  0  0
   -1.6166    0.4318    0.2148 C   0  0  0  0  0  0  0  0  0  0  0  0
   -1.2752   -0.9787    0.1747 C   0  0  0  0  0  0  0  0  0  0  0  0
   -0.7162   -1.3324   -1.1606 O   0  0  0  0  0  0  0  0  0  0  0  0
   -0.0308   -1.5299    0.0354 C   0  0  0  0  0  0  0  0  0  0  0  0
    1.2261   -0.7826    0.3180 C   0  0  0  0  0  0  0  0  0  0  0  0
    1.5230    0.3340   -0.6348 C   0  0  0  0  0  0  0  0  0  0  0  0
    1.1859    2.4620   -0.1040 H   0  0  0  0  0  0  0  0  0  0  0  0
   -0.9437    2.4404    0.4530 H   0  0  0  0  0  0  0  0  0  0  0  0
   -2.2354    0.6419    1.1402 H   0  0  0  0  0  0  0  0  0  0  0  0
   -2.3460    0.6528   -0.6220 H   0  0  0  0  0  0  0  0  0  0  0  0
   -2.1580   -1.6481    0.4269 H   0  0  0  0  0  0  0  0  0  0  0  0
    0.1059   -2.6231    0.2510 H   0  0  0  0  0  0  0  0  0  0  0  0
    1.1242   -0.3294    1.3417 H   0  0  0  0  0  0  0  0  0  0  0  0
    2.1351   -1.4158    0.3644 H   0  0  0  0  0  0  0  0  0  0  0  0
    1.3060    0.1118   -1.6839 H   0  0  0  0  0  0  0  0  0  0  0  0
    2.5845    0.6221   -0.4874 H   0  0  0  0  0  0  0  0  0  0  0  0
  1  2  2  0
  2  3  1  0
  3  4  1  0
  4  5  1  0
  5  6  1  0
  6  7  1  0
  7  8  1  0
  8  1  1  0
  6  4  1  0
  1  9  1  0
  2 10  1  0
  3 11  1  0
  3 12  1  0
  4 13  1  0
  6 14  1  0
  7 15  1  0
  7 16  1  0
  8 17  1  0
  8 18  1  0
M  END
