
     RDKit          3D

 21 22  0  0  0  0  0  0  0  0999 V2000
   -1.2966    1.2415   -0.4133 C   0  0  0  0  0  0  0  0  0  0  0  0
   -0.0987    1.6258   -0.0173 C   0  0  0  0  0  0  0  0  0  0  0  0
    0.8451    0.9317    0.8897 C   0  0  0  0  0  0  0  0  0  0  0  0
    1.9544    0.3636    0.0376 C   0  0  0  0  0  0  0  0  0  0  0  0
    1.2881   -0.8533   -0.5690 C   0  0  0  0  0  0  0  0  0  0  0  0
    0.1926   -1.1521    0.4312 C   0  0  0  0  0  0  0  0  0  0  0  0
   -1.1662   -1.2234   -0.1767 C   0  0  0  0  0  0  0  0  0  0  0  0
   -2.0134    0.0013    0.0386 C   0  0  0  0  0  0  0  0  0  0  0  0
    0.2758   -0.2172    1.4304 O   0  0  0  0  0  0  0  0  0  0  0  0
   -1.7834    1.8874   -1.1210 H   0  0  0  0  0  0  0  0  0  0  0  0
    0.2516    2.5698   -0.3979 H   0  0  0  0  0  0  0  0  0  0  0  0
    1.2015    1.5566    1.7104 H   0  0  0  0  0  0  0  0  0  0  0  0
    2.7918    0.1122    0.6993 H   0  0  0  0  0  0  0  0  0  0  0  0
    2.1892    1.0962   -0.7438 H   0  0  0  0  0  0  0  0  0  0  0  0
    2.0346   -1.6619   -0.6516 H   0  0  0  0  0  0  0  0  0  0  0  0
    0.8503   -0.6615   -1.5478 H   0  0  0  0  0  0  0  0  0  0  0  0
    0.4360   -2.1674    0.8542 H   0  0  0  0  0  0  0  0  0  0  0  0
   -1.0673   -1.3735   -1.2753 H   0  0  0  0  0  0  0  0  0  0  0  0
   -1.7391   -2.0800    0.2691 H   0  0  0  0  0  0  0  0  0  0  0  0
   -2.2252    0.1031    1.1201 H   0  0  0  0  0  0  0  0  0  0  0  0
   -2.9211   -0.0988   -0.5668 H   0  0  0  0  0  0  0  0  0  0  0  0
  1  2  2  0
  2  3  1  0
  3  4  1  0
  4  5  1  0
  5  6  1  0
  6  7  1  0
  7  8  1  0
  6  9  1  0
  8  1  1  0
  9  3  1  0
  1 10  1  0
  2 11  1  0
  3 12  1  0
  4 13  1  0
  4 14  1  0
  5 15  1  0
  5 16  1  0
  6 17  1  0
  7 18  1  0
  7 19  1  0
  8 20  1  0
  8 21  1  0
M  END
