
     RDKit          3D

 21 22  0  0  0  0  0  0  0  0999 V2000
    0.5237   -0.3000    1.4257 C   0  0  0  0  0  0  0  0  0  0  0  0
    1.0672    0.8294    0.9548 C   0  0  0  0  0  0  0  0  0  0  0  0
    0.7312    1.1255   -0.4795 C   0  0  0  0  0  0  0  0  0  0  0  0
   -0.7628    1.4513   -0.4877 C   0  0  0  0  0  0  0  0  0  0  0  0
   -1.5650    0.3210    0.1379 C   0  0  0  0  0  0  0  0  0  0  0  0
   -1.0413   -0.9992   -0.3767 C   0  0  0  0  0  0  0  0  0  0  0  0
    0.2425   -1.3278    0.3497 C   0  0  0  0  0  0  0  0  0  0  0  0
    1.3828   -1.0913   -0.6552 C   0  0  0  0  0  0  0  0  0  0  0  0
    1.0476    0.0870   -1.3232 O   0  0  0  0  0  0  0  0  0  0  0  0
    0.3029   -0.4753    2.4607 H   0  0  0  0  0  0  0  0  0  0  0  0
    1.6957    1.4765    1.5539 H   0  0  0  0  0  0  0  0  0  0  0  0
    1.2319    2.0775   -0.8092 H   0  0  0  0  0  0  0  0  0  0  0  0
   -1.1414    1.6722   -1.4862 H   0  0  0  0  0  0  0  0  0  0  0  0
   -0.8736    2.3127    0.2197 H   0  0  0  0  0  0  0  0  0  0  0  0
   -1.5066    0.3121    1.2283 H   0  0  0  0  0  0  0  0  0  0  0  0
   -2.6042    0.4246   -0.2527 H   0  0  0  0  0  0  0  0  0  0  0  0
   -1.8070   -1.8003   -0.2662 H   0  0  0  0  0  0  0  0  0  0  0  0
   -0.8806   -0.8540   -1.4768 H   0  0  0  0  0  0  0  0  0  0  0  0
    0.2588   -2.3437    0.7531 H   0  0  0  0  0  0  0  0  0  0  0  0
    1.3599   -1.9115   -1.3701 H   0  0  0  0  0  0  0  0  0  0  0  0
    2.3384   -0.9869   -0.1003 H   0  0  0  0  0  0  0  0  0  0  0  0
  1  2  2  0
  2  3  1  0
  3  4  1  0
  4  5  1  0
  5  6  1  0
  6  7  1  0
  7  8  1  0
  8  9  1  0
  7  1  1  0
  9  3  1  0
  1 10  1  0
  2 11  1  0
  3 12  1  0
  4 13  1  0
  4 14  1  0
  5 15  1  0
  5 16  1  0
  6 17  1  0
  6 18  1  0
  7 19  1  0
  8 20  1  0
  8 21  1  0
M  END
