
     RDKit          3D

 21 22  0  0  0  0  0  0  0  0999 V2000
    1.4301   -1.4216    0.0657 C   0  0  0  0  0  0  0  0  0  0  0  0
    0.1341   -1.3941   -0.0162 C   0  0  0  0  0  0  0  0  0  0  0  0
   -0.6006   -0.1240   -0.1495 C   0  0  0  0  0  0  0  0  0  0  0  0
    0.1777    1.0989    0.0718 C   0  0  0  0  0  0  0  0  0  0  0  0
    1.6383    1.0613   -0.0785 C   0  0  0  0  0  0  0  0  0  0  0  0
    2.3183   -0.2449    0.0390 C   0  0  0  0  0  0  0  0  0  0  0  0
   -1.8960   -0.1433    0.6734 C   0  0  0  0  0  0  0  0  0  0  0  0
   -2.6193    0.0641   -0.6230 C   0  0  0  0  0  0  0  0  0  0  0  0
   -1.4168   -0.1602   -1.2863 O   0  0  0  0  0  0  0  0  0  0  0  0
    1.9282   -2.4010    0.1642 H   0  0  0  0  0  0  0  0  0  0  0  0
   -0.4131   -2.3298    0.0150 H   0  0  0  0  0  0  0  0  0  0  0  0
   -0.2264    1.8857   -0.6359 H   0  0  0  0  0  0  0  0  0  0  0  0
   -0.0970    1.5185    1.0860 H   0  0  0  0  0  0  0  0  0  0  0  0
    1.9584    1.5250   -1.0603 H   0  0  0  0  0  0  0  0  0  0  0  0
    2.1074    1.7608    0.6781 H   0  0  0  0  0  0  0  0  0  0  0  0
    3.0539   -0.4291   -0.8001 H   0  0  0  0  0  0  0  0  0  0  0  0
    2.9618   -0.3152    0.9662 H   0  0  0  0  0  0  0  0  0  0  0  0
   -2.0736   -1.0769    1.2090 H   0  0  0  0  0  0  0  0  0  0  0  0
   -2.0109    0.7266    1.3419 H   0  0  0  0  0  0  0  0  0  0  0  0
   -2.9816    1.0966   -0.7622 H   0  0  0  0  0  0  0  0  0  0  0  0
   -3.3728   -0.6974   -0.8983 H   0  0  0  0  0  0  0  0  0  0  0  0
  1  2  2  0
  2  3  1  0
  3  4  1  0
  4  5  1  0
  5  6  1  0
  3  7  1  0
  7  8  1  0
  8  9  1  0
  6  1  1  0
  9  3  1  0
  1 10  1  0
  2 11  1  0
  4 12  1  0
  4 13  1  0
  5 14  1  0
  5 15  1  0
  6 16  1  0
  6 17  1  0
  7 18  1  0
  7 19  1  0
  8 20  1  0
  8 21  1  0
M  END
