
     RDKit          3D

 19 22  0  0  0  0  0  0  0  0999 V2000
   -1.0332    1.2440    0.6757 C   0  0  0  0  0  0  0  0  0  0  0  0
   -0.0932    1.7170   -0.1269 C   0  0  0  0  0  0  0  0  0  0  0  0
    0.9677    0.7671   -0.5351 C   0  0  0  0  0  0  0  0  0  0  0  0
    0.3882   -0.4904   -1.1437 C   0  0  0  0  0  0  0  0  0  0  0  0
   -1.1008   -0.5723   -0.8716 C   0  0  0  0  0  0  0  0  0  0  0  0
   -1.1239   -0.2708    0.6378 C   0  0  0  0  0  0  0  0  0  0  0  0
    0.1586   -0.8367    1.1591 C   0  0  0  0  0  0  0  0  0  0  0  0
    1.2955   -0.0380    0.7056 C   0  0  0  0  0  0  0  0  0  0  0  0
    0.9475   -1.2617   -0.0002 C   0  0  0  0  0  0  0  0  0  0  0  0
   -1.6715    1.8389    1.2927 H   0  0  0  0  0  0  0  0  0  0  0  0
   -0.0761    2.7238   -0.4759 H   0  0  0  0  0  0  0  0  0  0  0  0
    1.8133    1.1762   -1.0876 H   0  0  0  0  0  0  0  0  0  0  0  0
    0.7069   -0.7412   -2.1515 H   0  0  0  0  0  0  0  0  0  0  0  0
   -1.6006    0.2358   -1.4363 H   0  0  0  0  0  0  0  0  0  0  0  0
   -1.5172   -1.5509   -1.0884 H   0  0  0  0  0  0  0  0  0  0  0  0
   -2.0237   -0.6391    1.1190 H   0  0  0  0  0  0  0  0  0  0  0  0
    0.2253   -1.2913    2.1556 H   0  0  0  0  0  0  0  0  0  0  0  0
    2.2067    0.1468    1.2626 H   0  0  0  0  0  0  0  0  0  0  0  0
    1.5306   -2.1572   -0.0912 H   0  0  0  0  0  0  0  0  0  0  0  0
  1  2  2  0
  2  3  1  0
  3  4  1  0
  4  5  1  0
  5  6  1  0
  6  7  1  0
  7  8  1  0
  8  9  1  0
  6  1  1  0
  9  7  1  0
  8  3  1  0
  9  4  1  0
  1 10  1  0
  2 11  1  0
  3 12  1  0
  4 13  1  0
  5 14  1  0
  5 15  1  0
  6 16  1  0
  7 17  1  0
  8 18  1  0
  9 19  1  0
M  END
