
     RDKit          3D

 19 21  0  0  0  0  0  0  0  0999 V2000
    2.4002   -0.9001   -0.4250 C   0  0  0  0  0  0  0  0  0  0  0  0
    2.2273    0.3324   -0.8979 C   0  0  0  0  0  0  0  0  0  0  0  0
    1.0301    0.7766   -0.1355 C   0  0  0  0  0  0  0  0  0  0  0  0
    1.4017    0.3333    1.1532 O   0  0  0  0  0  0  0  0  0  0  0  0
    1.2692   -0.9567    0.5804 C   0  0  0  0  0  0  0  0  0  0  0  0
    0.0865   -0.4076   -0.1396 C   0  0  0  0  0  0  0  0  0  0  0  0
   -1.0856   -0.1401    0.7500 C   0  0  0  0  0  0  0  0  0  0  0  0
   -1.9010    1.0774    0.3338 C   0  0  0  0  0  0  0  0  0  0  0  0
   -2.4807   -0.2796    0.2791 C   0  0  0  0  0  0  0  0  0  0  0  0
    3.1274   -1.6659   -0.6666 H   0  0  0  0  0  0  0  0  0  0  0  0
    2.7436    0.9326   -1.6218 H   0  0  0  0  0  0  0  0  0  0  0  0
    0.6546    1.7539   -0.2479 H   0  0  0  0  0  0  0  0  0  0  0  0
    1.2079   -1.7884    1.2207 H   0  0  0  0  0  0  0  0  0  0  0  0
   -0.1412   -0.8166   -1.1313 H   0  0  0  0  0  0  0  0  0  0  0  0
   -0.8905   -0.2764    1.8342 H   0  0  0  0  0  0  0  0  0  0  0  0
   -2.1752    1.7542    1.1584 H   0  0  0  0  0  0  0  0  0  0  0  0
   -1.6306    1.6077   -0.6028 H   0  0  0  0  0  0  0  0  0  0  0  0
   -2.6125   -0.7881   -0.7144 H   0  0  0  0  0  0  0  0  0  0  0  0
   -3.2312   -0.5488    1.0505 H   0  0  0  0  0  0  0  0  0  0  0  0
  1  2  2  0
  2  3  1  0
  3  4  1  0
  4  5  1  0
  5  6  1  0
  6  7  1  0
  7  8  1  0
  8  9  1  0
  5  1  1  0
  9  7  1  0
  6  3  1  0
  1 10  1  0
  2 11  1  0
  3 12  1  0
  5 13  1  0
  6 14  1  0
  7 15  1  0
  8 16  1  0
  8 17  1  0
  9 18  1  0
  9 19  1  0
M  END
