
     RDKit          3D

 15 16  0  0  0  0  0  0  0  0999 V2000
   -0.5892   -0.1807    1.2546 C   0  0  0  0  0  0  0  0  0  0  0  0
    0.5998   -0.1654    0.7033 C   0  0  0  0  0  0  0  0  0  0  0  0
    2.0726   -0.1841    0.3654 C   0  0  0  0  0  0  0  0  0  0  0  0
    1.6526    0.5269   -0.8180 O   0  0  0  0  0  0  0  0  0  0  0  0
    0.4488   -0.1122   -0.8104 C   0  0  0  0  0  0  0  0  0  0  0  0
   -0.8411    0.6195   -0.9149 C   0  0  0  0  0  0  0  0  0  0  0  0
   -1.6861   -0.0181    0.2148 C   0  0  0  0  0  0  0  0  0  0  0  0
   -0.7906   -0.2940    2.3183 H   0  0  0  0  0  0  0  0  0  0  0  0
    2.4160   -1.2007    0.1100 H   0  0  0  0  0  0  0  0  0  0  0  0
    2.7179    0.3973    1.0248 H   0  0  0  0  0  0  0  0  0  0  0  0
    0.4965   -1.1070   -1.2873 H   0  0  0  0  0  0  0  0  0  0  0  0
   -0.7062    1.6960   -0.7348 H   0  0  0  0  0  0  0  0  0  0  0  0
   -1.3320    0.4139   -1.8784 H   0  0  0  0  0  0  0  0  0  0  0  0
   -2.4851    0.6427    0.5432 H   0  0  0  0  0  0  0  0  0  0  0  0
   -1.9738   -1.0341   -0.0905 H   0  0  0  0  0  0  0  0  0  0  0  0
  1  2  2  0
  2  3  1  0
  3  4  1  0
  4  5  1  0
  5  6  1  0
  6  7  1  0
  7  1  1  0
  5  2  1  0
  1  8  1  0
  3  9  1  0
  3 10  1  0
  5 11  1  0
  6 12  1  0
  6 13  1  0
  7 14  1  0
  7 15  1  0
M  END
