
     RDKit          3D

 21 23  0  0  0  0  0  0  0  0999 V2000
   -0.6097   -1.4425   -0.7111 C   0  0  0  0  0  0  0  0  0  0  0  0
    0.4428   -0.9147   -0.2246 C   0  0  0  0  0  0  0  0  0  0  0  0
    1.8678   -0.7635   -0.1954 C   0  0  0  0  0  0  0  0  0  0  0  0
    1.7610    0.8061   -0.5142 C   0  0  0  0  0  0  0  0  0  0  0  0
    0.7593    1.2576    0.4908 C   0  0  0  0  0  0  0  0  0  0  0  0
   -0.6724    1.1009    0.5900 C   0  0  0  0  0  0  0  0  0  0  0  0
   -1.7248    0.6116   -0.3457 C   0  0  0  0  0  0  0  0  0  0  0  0
   -1.9293   -0.9458   -0.0781 C   0  0  0  0  0  0  0  0  0  0  0  0
    0.1453   -0.0396    1.0543 C   0  0  0  0  0  0  0  0  0  0  0  0
   -0.6502   -2.1650   -1.4828 H   0  0  0  0  0  0  0  0  0  0  0  0
    2.3472   -0.7890    0.7806 H   0  0  0  0  0  0  0  0  0  0  0  0
    2.4387   -1.2198   -1.0095 H   0  0  0  0  0  0  0  0  0  0  0  0
    2.7417    1.2492   -0.3929 H   0  0  0  0  0  0  0  0  0  0  0  0
    1.3819    0.7846   -1.5555 H   0  0  0  0  0  0  0  0  0  0  0  0
    1.2668    1.8581    1.3255 H   0  0  0  0  0  0  0  0  0  0  0  0
   -1.1411    1.6621    1.4666 H   0  0  0  0  0  0  0  0  0  0  0  0
   -1.4006    0.7152   -1.3825 H   0  0  0  0  0  0  0  0  0  0  0  0
   -2.7168    1.0443   -0.1830 H   0  0  0  0  0  0  0  0  0  0  0  0
   -1.8988   -1.0929    0.9861 H   0  0  0  0  0  0  0  0  0  0  0  0
   -2.7630   -1.3123   -0.6224 H   0  0  0  0  0  0  0  0  0  0  0  0
    0.3539   -0.4045    2.0037 H   0  0  0  0  0  0  0  0  0  0  0  0
  1  2  2  0
  2  3  1  0
  3  4  1  0
  4  5  1  0
  5  6  1  0
  6  7  1  0
  7  8  1  0
  6  9  1  0
  8  1  1  0
  9  2  1  0
  9  5  1  0
  1 10  1  0
  3 11  1  0
  3 12  1  0
  4 13  1  0
  4 14  1  0
  5 15  1  0
  6 16  1  0
  7 17  1  0
  7 18  1  0
  8 19  1  0
  8 20  1  0
  9 21  1  0
M  END
