
     RDKit          3D

 16 18  0  0  0  0  0  0  0  0999 V2000
    1.3352    1.4124   -0.1963 C   0  0  0  0  0  0  0  0  0  0  0  0
    1.9963    0.2919    0.2008 C   0  0  0  0  0  0  0  0  0  0  0  0
    0.9691   -0.7562    0.5325 C   0  0  0  0  0  0  0  0  0  0  0  0
   -0.4022   -1.0179    0.6201 C   0  0  0  0  0  0  0  0  0  0  0  0
   -1.7659   -0.3945    0.2526 C   0  0  0  0  0  0  0  0  0  0  0  0
   -1.3701    1.0377   -0.0383 C   0  0  0  0  0  0  0  0  0  0  0  0
   -0.0702    1.0924   -0.0942 C   0  0  0  0  0  0  0  0  0  0  0  0
    0.1576   -0.4433   -0.6356 C   0  0  0  0  0  0  0  0  0  0  0  0
    1.6580    2.3749   -0.5205 H   0  0  0  0  0  0  0  0  0  0  0  0
    3.0620    0.2299    0.2519 H   0  0  0  0  0  0  0  0  0  0  0  0
    1.5883   -1.7550    0.3908 H   0  0  0  0  0  0  0  0  0  0  0  0
   -0.6508   -2.1420    0.6803 H   0  0  0  0  0  0  0  0  0  0  0  0
   -2.4905   -0.4334    1.0494 H   0  0  0  0  0  0  0  0  0  0  0  0
   -2.1288   -0.7977   -0.6973 H   0  0  0  0  0  0  0  0  0  0  0  0
   -1.9427    1.9288   -0.1892 H   0  0  0  0  0  0  0  0  0  0  0  0
    0.0545   -0.6279   -1.6069 H   0  0  0  0  0  0  0  0  0  0  0  0
  1  2  2  0
  2  3  1  0
  3  4  1  0
  4  5  1  0
  5  6  1  0
  6  7  2  0
  7  8  1  0
  7  1  1  0
  8  3  1  0
  8  4  1  0
  1  9  1  0
  2 10  1  0
  3 11  1  0
  4 12  1  0
  5 13  1  0
  5 14  1  0
  6 15  1  0
  8 16  1  0
M  END
