
     RDKit          3D

 19 21  0  0  0  0  0  0  0  0999 V2000
   -0.4643    0.7569    1.2690 C   0  0  0  0  0  0  0  0  0  0  0  0
    0.5965    0.5967    0.5667 C   0  0  0  0  0  0  0  0  0  0  0  0
    2.0143    0.8271    0.2837 C   0  0  0  0  0  0  0  0  0  0  0  0
    2.4883   -0.3566   -0.3058 O   0  0  0  0  0  0  0  0  0  0  0  0
    1.3798   -1.2101   -0.4947 C   0  0  0  0  0  0  0  0  0  0  0  0
    0.2447   -0.2615   -0.6358 C   0  0  0  0  0  0  0  0  0  0  0  0
   -1.1280   -0.7285   -0.3978 C   0  0  0  0  0  0  0  0  0  0  0  0
   -2.1702    0.3778   -0.5687 C   0  0  0  0  0  0  0  0  0  0  0  0
   -1.6413    0.0506    0.7560 C   0  0  0  0  0  0  0  0  0  0  0  0
   -0.4922    1.3768    2.1874 H   0  0  0  0  0  0  0  0  0  0  0  0
    2.6106    1.0906    1.1828 H   0  0  0  0  0  0  0  0  0  0  0  0
    2.0958    1.6927   -0.4103 H   0  0  0  0  0  0  0  0  0  0  0  0
    1.5475   -1.8803   -1.3352 H   0  0  0  0  0  0  0  0  0  0  0  0
    1.2620   -1.7525    0.4799 H   0  0  0  0  0  0  0  0  0  0  0  0
    0.3742    0.3376   -1.5702 H   0  0  0  0  0  0  0  0  0  0  0  0
   -1.4226   -1.7608   -0.5960 H   0  0  0  0  0  0  0  0  0  0  0  0
   -1.8728    1.3339   -1.0394 H   0  0  0  0  0  0  0  0  0  0  0  0
   -3.1980    0.0700   -0.8588 H   0  0  0  0  0  0  0  0  0  0  0  0
   -2.2244   -0.5604    1.4873 H   0  0  0  0  0  0  0  0  0  0  0  0
  1  2  2  0
  2  3  1  0
  3  4  1  0
  4  5  1  0
  5  6  1  0
  6  7  1  0
  7  8  1  0
  8  9  1  0
  9  1  1  0
  6  2  1  0
  9  7  1  0
  1 10  1  0
  3 11  1  0
  3 12  1  0
  5 13  1  0
  5 14  1  0
  6 15  1  0
  7 16  1  0
  8 17  1  0
  8 18  1  0
  9 19  1  0
M  END
