
     RDKit          3D

 18 19  0  0  0  0  0  0  0  0999 V2000
    1.6647    0.7825    0.0702 C   0  0  0  0  0  0  0  0  0  0  0  0
    0.5780    1.5519    0.0407 C   0  0  0  0  0  0  0  0  0  0  0  0
   -0.8503    1.0654   -0.0232 C   0  0  0  0  0  0  0  0  0  0  0  0
   -0.9849   -0.0312   -1.0817 C   0  0  0  0  0  0  0  0  0  0  0  0
   -0.7930   -1.1210   -0.0223 C   0  0  0  0  0  0  0  0  0  0  0  0
    0.6415   -1.5225    0.0210 C   0  0  0  0  0  0  0  0  0  0  0  0
    1.7059   -0.7018    0.0538 C   0  0  0  0  0  0  0  0  0  0  0  0
   -1.0870   -0.0281    1.0119 C   0  0  0  0  0  0  0  0  0  0  0  0
    2.6064    1.3090    0.1101 H   0  0  0  0  0  0  0  0  0  0  0  0
    0.7187    2.6287    0.0642 H   0  0  0  0  0  0  0  0  0  0  0  0
   -1.5831    1.8610   -0.0647 H   0  0  0  0  0  0  0  0  0  0  0  0
   -1.9733   -0.0585   -1.5530 H   0  0  0  0  0  0  0  0  0  0  0  0
   -0.1219    0.0606   -1.7785 H   0  0  0  0  0  0  0  0  0  0  0  0
   -1.4899   -1.9460   -0.0544 H   0  0  0  0  0  0  0  0  0  0  0  0
    0.8122   -2.5877    0.0257 H   0  0  0  0  0  0  0  0  0  0  0  0
    2.6828   -1.1286    0.0701 H   0  0  0  0  0  0  0  0  0  0  0  0
   -0.3662   -0.0505    1.8291 H   0  0  0  0  0  0  0  0  0  0  0  0
   -2.1605   -0.0831    1.2812 H   0  0  0  0  0  0  0  0  0  0  0  0
  1  2  2  0
  2  3  1  0
  3  4  1  0
  4  5  1  0
  5  6  1  0
  6  7  2  0
  5  8  1  0
  7  1  1  0
  8  3  1  0
  1  9  1  0
  2 10  1  0
  3 11  1  0
  4 12  1  0
  4 13  1  0
  5 14  1  0
  6 15  1  0
  7 16  1  0
  8 17  1  0
  8 18  1  0
M  END
