
     RDKit          3D

 21 21  0  0  0  0  0  0  0  0999 V2000
   -0.6585   -1.8402    0.1871 C   0  0  0  0  0  0  0  0  0  0  0  0
   -1.7199   -1.1108    0.4444 C   0  0  0  0  0  0  0  0  0  0  0  0
   -1.9055    0.3501    0.0949 C   0  0  0  0  0  0  0  0  0  0  0  0
   -0.5553    0.8135   -0.0383 C   0  0  0  0  0  0  0  0  0  0  0  0
    0.1542    2.0518    0.1112 C   0  0  0  0  0  0  0  0  0  0  0  0
    1.5087    1.6216   -0.0547 O   0  0  0  0  0  0  0  0  0  0  0  0
    1.8321    0.3936    0.4366 C   0  0  0  0  0  0  0  0  0  0  0  0
    1.6020   -0.8077   -0.3674 C   0  0  0  0  0  0  0  0  0  0  0  0
    0.6049   -1.6576   -0.4322 C   0  0  0  0  0  0  0  0  0  0  0  0
   -0.8151   -2.8941    0.5699 H   0  0  0  0  0  0  0  0  0  0  0  0
   -2.6122   -1.5001    0.9564 H   0  0  0  0  0  0  0  0  0  0  0  0
   -2.5326    0.8629    0.8584 H   0  0  0  0  0  0  0  0  0  0  0  0
   -2.4856    0.3630   -0.8603 H   0  0  0  0  0  0  0  0  0  0  0  0
   -0.2773    0.4576   -1.0351 H   0  0  0  0  0  0  0  0  0  0  0  0
   -0.1110    0.2819    0.8636 H   0  0  0  0  0  0  0  0  0  0  0  0
   -0.0180    2.7248   -0.7641 H   0  0  0  0  0  0  0  0  0  0  0  0
    0.0348    2.6462    1.0167 H   0  0  0  0  0  0  0  0  0  0  0  0
    1.6964    0.2550    1.5525 H   0  0  0  0  0  0  0  0  0  0  0  0
    2.9801    0.4810    0.4737 H   0  0  0  0  0  0  0  0  0  0  0  0
    2.4397   -1.0347   -1.0738 H   0  0  0  0  0  0  0  0  0  0  0  0
    0.8382   -2.4579   -1.2012 H   0  0  0  0  0  0  0  0  0  0  0  0
  1  2  2  3
  2  3  1  0
  3  4  1  0
  4  5  1  0
  5  6  1  0
  6  7  1  0
  7  8  1  0
  8  9  2  3
  9  1  1  0
  1 10  1  0
  2 11  1  0
  3 12  1  0
  3 13  1  0
  4 14  1  0
  4 15  1  0
  5 16  1  0
  5 17  1  0
  7 18  1  0
  7 19  1  0
  8 20  1  0
  9 21  1  0
M  END
