
     RDKit          3D

 21 22  0  0  0  0  0  0  0  0999 V2000
    1.4203   -1.1626    0.4709 C   0  0  0  0  0  0  0  0  0  0  0  0
    0.1383   -1.4935    0.6079 C   0  0  0  0  0  0  0  0  0  0  0  0
   -1.0863   -1.2228   -0.1165 C   0  0  0  0  0  0  0  0  0  0  0  0
   -1.3160    0.0766   -0.7097 C   0  0  0  0  0  0  0  0  0  0  0  0
   -1.8274    1.1511    0.3046 C   0  0  0  0  0  0  0  0  0  0  0  0
   -0.5478    1.2364   -0.5051 C   0  0  0  0  0  0  0  0  0  0  0  0
    0.6909    1.2889    0.2695 C   0  0  0  0  0  0  0  0  0  0  0  0
    1.8488    0.9920   -0.4770 O   0  0  0  0  0  0  0  0  0  0  0  0
    2.1437   -0.3448   -0.5264 C   0  0  0  0  0  0  0  0  0  0  0  0
    2.0458   -1.5905    1.2631 H   0  0  0  0  0  0  0  0  0  0  0  0
   -0.0020   -2.1190    1.4810 H   0  0  0  0  0  0  0  0  0  0  0  0
   -1.1663   -2.0325   -0.9071 H   0  0  0  0  0  0  0  0  0  0  0  0
   -1.9638   -1.4664    0.5574 H   0  0  0  0  0  0  0  0  0  0  0  0
   -1.9882    0.0465   -1.6252 H   0  0  0  0  0  0  0  0  0  0  0  0
   -2.7011    1.7412    0.0310 H   0  0  0  0  0  0  0  0  0  0  0  0
   -1.7308    0.9151    1.3715 H   0  0  0  0  0  0  0  0  0  0  0  0
   -0.6157    2.0599   -1.2818 H   0  0  0  0  0  0  0  0  0  0  0  0
    0.8579    2.3837    0.5387 H   0  0  0  0  0  0  0  0  0  0  0  0
    0.6943    0.7981    1.2633 H   0  0  0  0  0  0  0  0  0  0  0  0
    3.2498   -0.5546   -0.4517 H   0  0  0  0  0  0  0  0  0  0  0  0
    1.8556   -0.7029   -1.5583 H   0  0  0  0  0  0  0  0  0  0  0  0
  1  2  2  3
  2  3  1  0
  3  4  1  0
  4  5  1  0
  5  6  1  0
  6  7  1  0
  7  8  1  0
  8  9  1  0
  9  1  1  0
  6  4  1  0
  1 10  1  0
  2 11  1  0
  3 12  1  0
  3 13  1  0
  4 14  1  0
  5 15  1  0
  5 16  1  0
  6 17  1  0
  7 18  1  0
  7 19  1  0
  9 20  1  0
  9 21  1  0
M  END
