
     RDKit          3D

 21 23  0  0  0  0  0  0  0  0999 V2000
    1.4014   -1.4632    0.6504 C   0  0  0  0  0  0  0  0  0  0  0  0
    0.1045   -1.6921    0.4371 C   0  0  0  0  0  0  0  0  0  0  0  0
   -0.4952   -0.7479   -0.4962 C   0  0  0  0  0  0  0  0  0  0  0  0
   -1.9124   -0.4480   -0.5705 C   0  0  0  0  0  0  0  0  0  0  0  0
   -1.4488    1.0234   -0.5194 C   0  0  0  0  0  0  0  0  0  0  0  0
   -1.1237    1.4395    0.8464 C   0  0  0  0  0  0  0  0  0  0  0  0
   -0.2222    0.5916    0.1276 C   0  0  0  0  0  0  0  0  0  0  0  0
    1.1737    0.9292   -0.1112 C   0  0  0  0  0  0  0  0  0  0  0  0
    2.0190   -0.3204   -0.0710 C   0  0  0  0  0  0  0  0  0  0  0  0
    1.9945   -2.0893    1.3296 H   0  0  0  0  0  0  0  0  0  0  0  0
   -0.3717   -2.5124    0.9439 H   0  0  0  0  0  0  0  0  0  0  0  0
   -0.0205   -0.8617   -1.5145 H   0  0  0  0  0  0  0  0  0  0  0  0
   -2.4874   -0.6813   -1.4686 H   0  0  0  0  0  0  0  0  0  0  0  0
   -2.4692   -0.7480    0.3543 H   0  0  0  0  0  0  0  0  0  0  0  0
   -1.5516    1.6531   -1.3856 H   0  0  0  0  0  0  0  0  0  0  0  0
   -1.8310    1.1047    1.6404 H   0  0  0  0  0  0  0  0  0  0  0  0
   -0.8332    2.5021    0.9747 H   0  0  0  0  0  0  0  0  0  0  0  0
    1.3236    1.5004   -1.0597 H   0  0  0  0  0  0  0  0  0  0  0  0
    1.5311    1.6022    0.7229 H   0  0  0  0  0  0  0  0  0  0  0  0
    2.1752   -0.6687   -1.1323 H   0  0  0  0  0  0  0  0  0  0  0  0
    3.0438   -0.1131    0.3017 H   0  0  0  0  0  0  0  0  0  0  0  0
  1  2  2  0
  2  3  1  0
  3  4  1  0
  4  5  1  0
  5  6  1  0
  6  7  1  0
  7  8  1  0
  8  9  1  0
  9  1  1  0
  7  3  1  0
  7  5  1  0
  1 10  1  0
  2 11  1  0
  3 12  1  0
  4 13  1  0
  4 14  1  0
  5 15  1  0
  6 16  1  0
  6 17  1  0
  8 18  1  0
  8 19  1  0
  9 20  1  0
  9 21  1  0
M  END
