
     RDKit          3D

 17 19  0  0  0  0  0  0  0  0999 V2000
    1.0856    1.0648   -0.2709 C   0  0  0  0  0  0  0  0  0  0  0  0
   -0.0323    1.6833    0.1014 C   0  0  0  0  0  0  0  0  0  0  0  0
   -1.1960    1.0170    0.6877 C   0  0  0  0  0  0  0  0  0  0  0  0
   -2.4053    0.7853    0.2196 O   0  0  0  0  0  0  0  0  0  0  0  0
   -1.5585   -0.0260   -0.3972 C   0  0  0  0  0  0  0  0  0  0  0  0
   -0.8816   -1.2541    0.0362 C   0  0  0  0  0  0  0  0  0  0  0  0
   -0.1758   -1.3464    1.2330 O   0  0  0  0  0  0  0  0  0  0  0  0
    0.4992   -1.3881   -0.0938 C   0  0  0  0  0  0  0  0  0  0  0  0
    1.4764   -0.3316   -0.2222 C   0  0  0  0  0  0  0  0  0  0  0  0
    1.8329    1.7335   -0.6817 H   0  0  0  0  0  0  0  0  0  0  0  0
   -0.0810    2.7545   -0.0407 H   0  0  0  0  0  0  0  0  0  0  0  0
   -0.9908    0.6282    1.7132 H   0  0  0  0  0  0  0  0  0  0  0  0
   -1.3560    0.2417   -1.4621 H   0  0  0  0  0  0  0  0  0  0  0  0
   -1.5137   -2.1802   -0.1289 H   0  0  0  0  0  0  0  0  0  0  0  0
    0.9531   -2.4229   -0.1773 H   0  0  0  0  0  0  0  0  0  0  0  0
    2.2285   -0.4290    0.6194 H   0  0  0  0  0  0  0  0  0  0  0  0
    2.1152   -0.5300   -1.1358 H   0  0  0  0  0  0  0  0  0  0  0  0
  1  2  2  0
  2  3  1  0
  3  4  1  0
  4  5  1  0
  5  6  1  0
  6  7  1  0
  7  8  1  0
  8  9  1  0
  9  1  1  0
  5  3  1  0
  8  6  1  0
  1 10  1  0
  2 11  1  0
  3 12  1  0
  5 13  1  0
  6 14  1  0
  8 15  1  0
  9 16  1  0
  9 17  1  0
M  END
