
     RDKit          2D

 17 20  0  0  0  0  0  0  0  0999 V2000
   -3.4578    0.3797    0.0000 C   0  0  0  0  0  0  0  0  0  0  0  0
   -2.1213    1.0607    0.0000 C   0  0  0  0  0  0  0  0  0  0  0  0
   -1.0607    2.1213    0.0000 C   0  0  0  0  0  0  0  0  0  0  0  0
   -0.0000   -1.0607    0.0000 C   0  0  0  0  0  0  0  0  0  0  0  0
    1.0607    0.0000    0.0000 O   0  0  0  0  0  0  0  0  0  0  0  0
    0.0000    1.0607    0.0000 C   0  0  0  0  0  0  0  0  0  0  0  0
   -1.0607    0.0000    0.0000 C   0  0  0  0  0  0  0  0  0  0  0  0
   -1.7416   -1.3365    0.0000 C   0  0  0  0  0  0  0  0  0  0  0  0
   -3.2232   -1.1019    0.0000 C   0  0  0  0  0  0  0  0  0  0  0  0
   -4.7943    1.0607    0.0000 H   0  0  0  0  0  0  0  0  0  0  0  0
   -1.0607    3.6213    0.0000 H   0  0  0  0  0  0  0  0  0  0  0  0
    0.1333   -2.1460    0.0000 H   0  0  0  0  0  0  0  0  0  0  0  0
    1.0607    2.1213    0.0000 H   0  0  0  0  0  0  0  0  0  0  0  0
   -2.1299   -2.7854    0.0000 H   0  0  0  0  0  0  0  0  0  0  0  0
   -0.7762   -1.8499    0.0000 H   0  0  0  0  0  0  0  0  0  0  0  0
   -4.7211   -1.1804    0.0000 H   0  0  0  0  0  0  0  0  0  0  0  0
   -3.3017   -2.5998    0.0000 H   0  0  0  0  0  0  0  0  0  0  0  0
  1  2  2  0
  2  3  1  0
  3  4  1  0
  4  5  1  0
  5  6  1  0
  6  7  1  0
  7  8  1  0
  8  9  1  0
  9  1  1  0
  7  2  1  0
  6  3  1  0
  7  4  1  0
  1 10  1  0
  3 11  1  0
  4 12  1  0
  6 13  1  0
  8 14  1  0
  8 15  1  0
  9 16  1  0
  9 17  1  0
M  END
