
     RDKit          3D

 21 22  0  0  0  0  0  0  0  0999 V2000
    2.2350    0.1680    0.0458 C   0  0  0  0  0  0  0  0  0  0  0  0
    1.5531    1.2167    0.4088 C   0  0  0  0  0  0  0  0  0  0  0  0
    0.1025    1.1839    0.5642 C   0  0  0  0  0  0  0  0  0  0  0  0
   -0.6024    0.0359   -0.0111 C   0  0  0  0  0  0  0  0  0  0  0  0
    0.1663   -1.1019   -0.5083 C   0  0  0  0  0  0  0  0  0  0  0  0
    1.6272   -1.1303   -0.2392 C   0  0  0  0  0  0  0  0  0  0  0  0
   -1.7597    0.4855   -0.9173 C   0  0  0  0  0  0  0  0  0  0  0  0
   -2.4295    0.8284    0.2703 O   0  0  0  0  0  0  0  0  0  0  0  0
   -1.8451   -0.3209    0.8192 C   0  0  0  0  0  0  0  0  0  0  0  0
    3.3180    0.2604   -0.0517 H   0  0  0  0  0  0  0  0  0  0  0  0
    2.0670    2.1588    0.6073 H   0  0  0  0  0  0  0  0  0  0  0  0
   -0.2963    2.1646    0.1677 H   0  0  0  0  0  0  0  0  0  0  0  0
   -0.1182    1.2407    1.6692 H   0  0  0  0  0  0  0  0  0  0  0  0
    0.0095   -1.2015   -1.6181 H   0  0  0  0  0  0  0  0  0  0  0  0
   -0.2707   -2.0508   -0.0853 H   0  0  0  0  0  0  0  0  0  0  0  0
    1.8695   -1.8213    0.6029 H   0  0  0  0  0  0  0  0  0  0  0  0
    2.1809   -1.5719   -1.1178 H   0  0  0  0  0  0  0  0  0  0  0  0
   -2.3050   -0.3831   -1.3611 H   0  0  0  0  0  0  0  0  0  0  0  0
   -1.5211    1.3100   -1.5829 H   0  0  0  0  0  0  0  0  0  0  0  0
   -2.3595   -1.2049    0.4433 H   0  0  0  0  0  0  0  0  0  0  0  0
   -1.6217   -0.2666    1.8940 H   0  0  0  0  0  0  0  0  0  0  0  0
  1  2  2  0
  2  3  1  0
  3  4  1  0
  4  5  1  0
  5  6  1  0
  4  7  1  0
  7  8  1  0
  8  9  1  0
  6  1  1  0
  9  4  1  0
  1 10  1  0
  2 11  1  0
  3 12  1  0
  3 13  1  0
  5 14  1  0
  5 15  1  0
  6 16  1  0
  6 17  1  0
  7 18  1  0
  7 19  1  0
  9 20  1  0
  9 21  1  0
M  END
