
     RDKit          3D

 19 21  0  0  0  0  0  0  0  0999 V2000
   -1.3443   -1.4002   -0.1026 C   0  0  0  0  0  0  0  0  0  0  0  0
   -0.1145   -1.0983   -0.4077 C   0  0  0  0  0  0  0  0  0  0  0  0
    1.3390   -1.0236   -0.7534 C   0  0  0  0  0  0  0  0  0  0  0  0
    1.2987    0.3334   -0.0410 C   0  0  0  0  0  0  0  0  0  0  0  0
    1.9311    0.7047    1.0882 C   0  0  0  0  0  0  0  0  0  0  0  0
    2.2767    1.2589   -0.2614 O   0  0  0  0  0  0  0  0  0  0  0  0
   -0.0550    0.4275   -0.5857 C   0  0  0  0  0  0  0  0  0  0  0  0
   -1.1708    0.9320    0.2568 C   0  0  0  0  0  0  0  0  0  0  0  0
   -2.2108   -0.1786    0.0424 C   0  0  0  0  0  0  0  0  0  0  0  0
   -1.7443   -2.3954    0.0402 H   0  0  0  0  0  0  0  0  0  0  0  0
    1.9875   -1.7392   -0.2531 H   0  0  0  0  0  0  0  0  0  0  0  0
    1.4687   -0.9397   -1.8476 H   0  0  0  0  0  0  0  0  0  0  0  0
    2.8645    0.1877    1.4605 H   0  0  0  0  0  0  0  0  0  0  0  0
    1.5942    1.4747    1.7895 H   0  0  0  0  0  0  0  0  0  0  0  0
   -0.1065    0.7167   -1.6583 H   0  0  0  0  0  0  0  0  0  0  0  0
   -1.5318    1.9024   -0.1210 H   0  0  0  0  0  0  0  0  0  0  0  0
   -0.9107    1.0476    1.3142 H   0  0  0  0  0  0  0  0  0  0  0  0
   -2.8371   -0.2087    0.9309 H   0  0  0  0  0  0  0  0  0  0  0  0
   -2.7347   -0.0017   -0.8910 H   0  0  0  0  0  0  0  0  0  0  0  0
  1  2  2  0
  2  3  1  0
  3  4  1  0
  4  5  1  0
  5  6  1  0
  4  7  1  0
  7  8  1  0
  8  9  1  0
  9  1  1  0
  7  2  1  0
  6  4  1  0
  1 10  1  0
  3 11  1  0
  3 12  1  0
  5 13  1  0
  5 14  1  0
  7 15  1  0
  8 16  1  0
  8 17  1  0
  9 18  1  0
  9 19  1  0
M  END
