
     RDKit          3D

 19 21  0  0  0  0  0  0  0  0999 V2000
    0.3277    1.3120   -0.8278 C   0  0  0  0  0  0  0  0  0  0  0  0
    1.0743    0.2594   -1.1535 C   0  0  0  0  0  0  0  0  0  0  0  0
    0.9699   -0.8863   -0.1925 C   0  0  0  0  0  0  0  0  0  0  0  0
    1.3836   -0.3070    1.1427 C   0  0  0  0  0  0  0  0  0  0  0  0
    0.6746    0.7656    1.4833 C   0  0  0  0  0  0  0  0  0  0  0  0
   -0.3674    1.1935    0.5092 C   0  0  0  0  0  0  0  0  0  0  0  0
   -1.2989   -0.0099    0.3532 C   0  0  0  0  0  0  0  0  0  0  0  0
   -1.5043   -0.6493   -0.9469 C   0  0  0  0  0  0  0  0  0  0  0  0
   -0.5016   -1.2295   -0.0264 C   0  0  0  0  0  0  0  0  0  0  0  0
    0.2277    2.1788   -1.4671 H   0  0  0  0  0  0  0  0  0  0  0  0
    1.7108    0.2020   -2.0258 H   0  0  0  0  0  0  0  0  0  0  0  0
    1.5372   -1.7610   -0.4748 H   0  0  0  0  0  0  0  0  0  0  0  0
    2.1657   -0.7561    1.7014 H   0  0  0  0  0  0  0  0  0  0  0  0
    0.7932    1.3366    2.3900 H   0  0  0  0  0  0  0  0  0  0  0  0
   -0.9007    2.0944    0.7828 H   0  0  0  0  0  0  0  0  0  0  0  0
   -1.9759   -0.1752    1.2130 H   0  0  0  0  0  0  0  0  0  0  0  0
   -2.4559   -1.2172   -1.0680 H   0  0  0  0  0  0  0  0  0  0  0  0
   -1.1827   -0.1569   -1.8710 H   0  0  0  0  0  0  0  0  0  0  0  0
   -0.6774   -2.1940    0.4783 H   0  0  0  0  0  0  0  0  0  0  0  0
  1  2  2  0
  2  3  1  0
  3  4  1  0
  4  5  2  0
  5  6  1  0
  6  7  1  0
  7  8  1  0
  8  9  1  0
  6  1  1  0
  9  7  1  0
  9  3  1  0
  1 10  1  0
  2 11  1  0
  3 12  1  0
  4 13  1  0
  5 14  1  0
  6 15  1  0
  7 16  1  0
  8 17  1  0
  8 18  1  0
  9 19  1  0
M  END
