
     RDKit          3D

 17 19  0  0  0  0  0  0  0  0999 V2000
    0.6019    1.3731    0.2334 C   0  0  0  0  0  0  0  0  0  0  0  0
   -0.6935    1.4474    0.5591 C   0  0  0  0  0  0  0  0  0  0  0  0
   -1.7178    0.5738   -0.0298 C   0  0  0  0  0  0  0  0  0  0  0  0
   -2.4349   -0.4314    0.3788 O   0  0  0  0  0  0  0  0  0  0  0  0
   -1.1736   -0.8100    0.4276 C   0  0  0  0  0  0  0  0  0  0  0  0
   -0.1690   -1.1748   -0.5470 C   0  0  0  0  0  0  0  0  0  0  0  0
    1.2370   -1.0382    0.0730 C   0  0  0  0  0  0  0  0  0  0  0  0
    1.2989    0.3150   -0.5978 C   0  0  0  0  0  0  0  0  0  0  0  0
    0.2746   -0.1994   -1.4404 O   0  0  0  0  0  0  0  0  0  0  0  0
    1.2633    2.1756    0.6093 H   0  0  0  0  0  0  0  0  0  0  0  0
   -0.9993    2.1860    1.2908 H   0  0  0  0  0  0  0  0  0  0  0  0
   -1.7400    0.7120   -1.1562 H   0  0  0  0  0  0  0  0  0  0  0  0
   -0.8236   -0.8717    1.5052 H   0  0  0  0  0  0  0  0  0  0  0  0
   -0.2991   -2.1548   -1.0472 H   0  0  0  0  0  0  0  0  0  0  0  0
    1.9601   -1.7272   -0.3601 H   0  0  0  0  0  0  0  0  0  0  0  0
    1.2053   -0.9932    1.1842 H   0  0  0  0  0  0  0  0  0  0  0  0
    2.2097    0.6178   -1.0830 H   0  0  0  0  0  0  0  0  0  0  0  0
  1  2  2  0
  2  3  1  0
  3  4  1  0
  4  5  1  0
  5  6  1  0
  6  7  1  0
  7  8  1  0
  8  9  1  0
  8  1  1  0
  5  3  1  0
  9  6  1  0
  1 10  1  0
  2 11  1  0
  3 12  1  0
  5 13  1  0
  6 14  1  0
  7 15  1  0
  7 16  1  0
  8 17  1  0
M  END
