
     RDKit          3D

 17 21  0  0  0  0  0  0  0  0999 V2000
    1.8007    0.4656    0.1581 C   0  0  0  0  0  0  0  0  0  0  0  0
    0.8244    1.3484   -0.0553 C   0  0  0  0  0  0  0  0  0  0  0  0
   -0.3512    0.8003   -0.6040 C   0  0  0  0  0  0  0  0  0  0  0  0
   -1.7490    0.5884    0.1934 C   0  0  0  0  0  0  0  0  0  0  0  0
   -1.3421    0.1639   -0.7947 C   0  0  0  0  0  0  0  0  0  0  0  0
   -0.5307   -0.2679    0.6075 C   0  0  0  0  0  0  0  0  0  0  0  0
   -1.3552   -1.0011    0.3671 C   0  0  0  0  0  0  0  0  0  0  0  0
   -0.0216   -0.7527   -0.4382 C   0  0  0  0  0  0  0  0  0  0  0  0
    1.3546   -0.9130   -0.2607 C   0  0  0  0  0  0  0  0  0  0  0  0
    2.7654    0.6771    0.5644 H   0  0  0  0  0  0  0  0  0  0  0  0
    0.9699    2.4194    0.1943 H   0  0  0  0  0  0  0  0  0  0  0  0
   -1.8733    1.1384    1.1010 H   0  0  0  0  0  0  0  0  0  0  0  0
   -1.6389   -0.6142   -1.4925 H   0  0  0  0  0  0  0  0  0  0  0  0
   -0.2757    0.4662    1.3489 H   0  0  0  0  0  0  0  0  0  0  0  0
   -2.1029   -1.6392   -0.1431 H   0  0  0  0  0  0  0  0  0  0  0  0
    1.6972   -1.6735    0.4748 H   0  0  0  0  0  0  0  0  0  0  0  0
    1.8282   -1.2061   -1.2209 H   0  0  0  0  0  0  0  0  0  0  0  0
  1  2  2  0
  2  3  1  0
  3  4  1  0
  4  5  1  0
  5  6  1  0
  6  7  1  0
  7  8  1  0
  8  9  1  0
  9  1  1  0
  5  3  1  0
  8  6  1  0
  8  3  1  0
  7  4  1  0
  1 10  1  0
  2 11  1  0
  4 12  1  0
  5 13  1  0
  6 14  1  0
  7 15  1  0
  9 16  1  0
  9 17  1  0
M  END
