
     RDKit          3D

 21 23  0  0  0  0  0  0  0  0999 V2000
   -1.2473    1.2836    0.1327 C   0  0  0  0  0  0  0  0  0  0  0  0
    0.0264    1.6321    0.0222 C   0  0  0  0  0  0  0  0  0  0  0  0
    1.0792    0.9155   -0.6580 C   0  0  0  0  0  0  0  0  0  0  0  0
    2.2221    0.2436   -0.0925 C   0  0  0  0  0  0  0  0  0  0  0  0
    1.0625   -0.5206   -0.0466 C   0  0  0  0  0  0  0  0  0  0  0  0
    0.1681   -1.2608   -0.8679 C   0  0  0  0  0  0  0  0  0  0  0  0
   -0.8864   -1.1818    0.2246 C   0  0  0  0  0  0  0  0  0  0  0  0
   -1.8735   -0.0737   -0.0056 C   0  0  0  0  0  0  0  0  0  0  0  0
    0.1873   -0.6006    1.1547 C   0  0  0  0  0  0  0  0  0  0  0  0
   -1.9872    2.0480    0.3538 H   0  0  0  0  0  0  0  0  0  0  0  0
    0.2965    2.5597    0.4991 H   0  0  0  0  0  0  0  0  0  0  0  0
    1.0152    0.9494   -1.7870 H   0  0  0  0  0  0  0  0  0  0  0  0
    2.6231    0.6753    0.8741 H   0  0  0  0  0  0  0  0  0  0  0  0
    3.0725    0.0048   -0.7754 H   0  0  0  0  0  0  0  0  0  0  0  0
    0.4488   -2.3179   -1.0912 H   0  0  0  0  0  0  0  0  0  0  0  0
   -0.2742   -0.8113   -1.8016 H   0  0  0  0  0  0  0  0  0  0  0  0
   -1.3283   -2.1156    0.5447 H   0  0  0  0  0  0  0  0  0  0  0  0
   -2.6290   -0.1439    0.8045 H   0  0  0  0  0  0  0  0  0  0  0  0
   -2.4035   -0.1935   -0.9648 H   0  0  0  0  0  0  0  0  0  0  0  0
   -0.0884    0.3280    1.6531 H   0  0  0  0  0  0  0  0  0  0  0  0
    0.5161   -1.4203    1.8270 H   0  0  0  0  0  0  0  0  0  0  0  0
  1  2  2  0
  2  3  1  0
  3  4  1  0
  4  5  1  0
  5  6  1  0
  6  7  1  0
  7  8  1  0
  7  9  1  0
  8  1  1  0
  5  3  1  0
  9  5  1  0
  1 10  1  0
  2 11  1  0
  3 12  1  0
  4 13  1  0
  4 14  1  0
  6 15  1  0
  6 16  1  0
  7 17  1  0
  8 18  1  0
  8 19  1  0
  9 20  1  0
  9 21  1  0
M  END
