
     RDKit          3D

 21 23  0  0  0  0  0  0  0  0999 V2000
   -0.6187    1.3255   -0.6109 C   0  0  0  0  0  0  0  0  0  0  0  0
    0.5847    1.0038   -0.2095 C   0  0  0  0  0  0  0  0  0  0  0  0
    2.0533    0.9929   -0.1224 C   0  0  0  0  0  0  0  0  0  0  0  0
    1.9502   -0.5302    0.1284 C   0  0  0  0  0  0  0  0  0  0  0  0
    0.7080   -1.2819    0.2758 C   0  0  0  0  0  0  0  0  0  0  0  0
   -0.5010   -1.1541   -0.6713 C   0  0  0  0  0  0  0  0  0  0  0  0
   -1.6960   -0.6783    0.1544 C   0  0  0  0  0  0  0  0  0  0  0  0
   -1.9550    0.8024   -0.1437 C   0  0  0  0  0  0  0  0  0  0  0  0
    0.7227   -0.0047    0.9651 C   0  0  0  0  0  0  0  0  0  0  0  0
   -0.6694    2.0604   -1.3758 H   0  0  0  0  0  0  0  0  0  0  0  0
    2.6173    1.2587   -1.0138 H   0  0  0  0  0  0  0  0  0  0  0  0
    2.3750    1.4766    0.8244 H   0  0  0  0  0  0  0  0  0  0  0  0
    2.8117   -0.8881    0.7148 H   0  0  0  0  0  0  0  0  0  0  0  0
    0.7040   -2.1944    0.8768 H   0  0  0  0  0  0  0  0  0  0  0  0
   -0.7704   -2.1347   -1.0988 H   0  0  0  0  0  0  0  0  0  0  0  0
   -0.2592   -0.4596   -1.4984 H   0  0  0  0  0  0  0  0  0  0  0  0
   -2.5975   -1.2533   -0.0522 H   0  0  0  0  0  0  0  0  0  0  0  0
   -1.4715   -0.8001    1.2395 H   0  0  0  0  0  0  0  0  0  0  0  0
   -2.6220    0.8125   -1.0337 H   0  0  0  0  0  0  0  0  0  0  0  0
   -2.3373    1.3375    0.7194 H   0  0  0  0  0  0  0  0  0  0  0  0
    0.9711    0.3091    1.9321 H   0  0  0  0  0  0  0  0  0  0  0  0
  1  2  2  0
  2  3  1  0
  3  4  1  0
  4  5  1  0
  5  6  1  0
  6  7  1  0
  7  8  1  0
  5  9  1  0
  8  1  1  0
  9  2  1  0
  9  4  1  0
  1 10  1  0
  3 11  1  0
  3 12  1  0
  4 13  1  0
  5 14  1  0
  6 15  1  0
  6 16  1  0
  7 17  1  0
  7 18  1  0
  8 19  1  0
  8 20  1  0
  9 21  1  0
M  END
