
     RDKit          3D

 19 20  0  0  0  0  0  0  0  0999 V2000
    2.1743   -0.8852    0.1863 C   0  0  0  0  0  0  0  0  0  0  0  0
    2.2505    0.4195    0.3981 C   0  0  0  0  0  0  0  0  0  0  0  0
    1.2853    1.4422    0.0121 C   0  0  0  0  0  0  0  0  0  0  0  0
   -0.0121    1.2943   -0.2387 C   0  0  0  0  0  0  0  0  0  0  0  0
   -0.8590    0.0774   -0.2049 C   0  0  0  0  0  0  0  0  0  0  0  0
   -0.1667   -1.1386   -0.6327 C   0  0  0  0  0  0  0  0  0  0  0  0
    1.0660   -1.5850   -0.5021 C   0  0  0  0  0  0  0  0  0  0  0  0
   -2.3215    0.2115   -0.4017 C   0  0  0  0  0  0  0  0  0  0  0  0
   -1.7833    0.0282    0.9785 C   0  0  0  0  0  0  0  0  0  0  0  0
    2.9763   -1.4969    0.5381 H   0  0  0  0  0  0  0  0  0  0  0  0
    3.1103    0.8111    0.9124 H   0  0  0  0  0  0  0  0  0  0  0  0
    1.6786    2.4503   -0.0802 H   0  0  0  0  0  0  0  0  0  0  0  0
   -0.5365    2.2253   -0.5149 H   0  0  0  0  0  0  0  0  0  0  0  0
   -0.7854   -1.8585   -1.1882 H   0  0  0  0  0  0  0  0  0  0  0  0
    1.3556   -2.5427   -0.9118 H   0  0  0  0  0  0  0  0  0  0  0  0
   -2.7568    1.2101   -0.6736 H   0  0  0  0  0  0  0  0  0  0  0  0
   -2.8913   -0.6258   -0.8421 H   0  0  0  0  0  0  0  0  0  0  0  0
   -1.9287   -0.9355    1.5063 H   0  0  0  0  0  0  0  0  0  0  0  0
   -1.8555    0.8983    1.6591 H   0  0  0  0  0  0  0  0  0  0  0  0
  1  2  2  0
  2  3  1  0
  3  4  2  0
  4  5  1  0
  5  6  1  0
  6  7  2  0
  5  8  1  0
  8  9  1  0
  7  1  1  0
  9  5  1  0
  1 10  1  0
  2 11  1  0
  3 12  1  0
  4 13  1  0
  6 14  1  0
  7 15  1  0
  8 16  1  0
  8 17  1  0
  9 18  1  0
  9 19  1  0
M  END
