
     RDKit          3D

 19 21  0  0  0  0  0  0  0  0999 V2000
    1.8314    1.0001   -0.0765 C   0  0  0  0  0  0  0  0  0  0  0  0
    0.7307    1.7290   -0.1497 C   0  0  0  0  0  0  0  0  0  0  0  0
   -0.6007    1.1518   -0.2040 C   0  0  0  0  0  0  0  0  0  0  0  0
   -1.0739    0.6974   -1.4141 O   0  0  0  0  0  0  0  0  0  0  0  0
   -1.4739   -0.5255   -0.9474 C   0  0  0  0  0  0  0  0  0  0  0  0
   -2.0995   -0.7625    0.3505 C   0  0  0  0  0  0  0  0  0  0  0  0
   -0.7532   -0.2217    0.3263 C   0  0  0  0  0  0  0  0  0  0  0  0
    0.4864   -0.9455    0.6960 C   0  0  0  0  0  0  0  0  0  0  0  0
    1.7030   -0.4624   -0.0487 C   0  0  0  0  0  0  0  0  0  0  0  0
    2.7846    1.5334   -0.0404 H   0  0  0  0  0  0  0  0  0  0  0  0
    0.7917    2.8357   -0.1732 H   0  0  0  0  0  0  0  0  0  0  0  0
   -1.3849    1.8246    0.2550 H   0  0  0  0  0  0  0  0  0  0  0  0
   -1.1740   -1.3801   -1.5863 H   0  0  0  0  0  0  0  0  0  0  0  0
   -2.2916   -1.8048    0.6307 H   0  0  0  0  0  0  0  0  0  0  0  0
   -2.9022   -0.0721    0.7468 H   0  0  0  0  0  0  0  0  0  0  0  0
    0.4182   -2.0466    0.5158 H   0  0  0  0  0  0  0  0  0  0  0  0
    0.6821   -0.8242    1.7817 H   0  0  0  0  0  0  0  0  0  0  0  0
    1.6997   -0.8562   -1.0923 H   0  0  0  0  0  0  0  0  0  0  0  0
    2.6261   -0.8705    0.4300 H   0  0  0  0  0  0  0  0  0  0  0  0
  1  2  2  0
  2  3  1  0
  3  4  1  0
  4  5  1  0
  5  6  1  0
  6  7  1  0
  7  8  1  0
  8  9  1  0
  9  1  1  0
  7  3  1  0
  7  5  1  0
  1 10  1  0
  2 11  1  0
  3 12  1  0
  5 13  1  0
  6 14  1  0
  6 15  1  0
  8 16  1  0
  8 17  1  0
  9 18  1  0
  9 19  1  0
M  END
