
     RDKit          3D

 19 21  0  0  0  0  0  0  0  0999 V2000
    1.3538    0.8924   -0.7171 C   0  0  0  0  0  0  0  0  0  0  0  0
    0.0366    0.6337   -0.7498 C   0  0  0  0  0  0  0  0  0  0  0  0
   -1.2958    0.6725   -1.2660 C   0  0  0  0  0  0  0  0  0  0  0  0
   -1.6480    0.5104    0.1390 C   0  0  0  0  0  0  0  0  0  0  0  0
   -1.6490   -0.5582    1.0101 C   0  0  0  0  0  0  0  0  0  0  0  0
   -0.3755   -0.1620    0.4371 C   0  0  0  0  0  0  0  0  0  0  0  0
    0.4707   -1.2913    0.2382 C   0  0  0  0  0  0  0  0  0  0  0  0
    1.7654   -0.9615    0.7295 O   0  0  0  0  0  0  0  0  0  0  0  0
    2.1647    0.3372    0.4441 C   0  0  0  0  0  0  0  0  0  0  0  0
    1.8402    1.4632   -1.4619 H   0  0  0  0  0  0  0  0  0  0  0  0
   -1.7074   -0.1123   -1.9143 H   0  0  0  0  0  0  0  0  0  0  0  0
   -1.5217    1.6523   -1.7436 H   0  0  0  0  0  0  0  0  0  0  0  0
   -1.7100    1.5389    0.6409 H   0  0  0  0  0  0  0  0  0  0  0  0
   -2.1719   -1.5197    0.7098 H   0  0  0  0  0  0  0  0  0  0  0  0
   -1.7402   -0.4365    2.1168 H   0  0  0  0  0  0  0  0  0  0  0  0
    0.5689   -1.6969   -0.8043 H   0  0  0  0  0  0  0  0  0  0  0  0
    0.2502   -2.2369    0.8287 H   0  0  0  0  0  0  0  0  0  0  0  0
    2.1651    1.0091    1.2996 H   0  0  0  0  0  0  0  0  0  0  0  0
    3.2038    0.2655    0.0632 H   0  0  0  0  0  0  0  0  0  0  0  0
  1  2  2  0
  2  3  1  0
  3  4  1  0
  4  5  1  0
  5  6  1  0
  6  7  1  0
  7  8  1  0
  8  9  1  0
  9  1  1  0
  6  2  1  0
  6  4  1  0
  1 10  1  0
  3 11  1  0
  3 12  1  0
  4 13  1  0
  5 14  1  0
  5 15  1  0
  7 16  1  0
  7 17  1  0
  9 18  1  0
  9 19  1  0
M  END
