
     RDKit          3D

 21 23  0  0  0  0  0  0  0  0999 V2000
    2.5679   -0.0809    0.1195 C   0  0  0  0  0  0  0  0  0  0  0  0
    1.9618   -1.2594    0.1850 C   0  0  0  0  0  0  0  0  0  0  0  0
    0.4937   -1.0937    0.3179 C   0  0  0  0  0  0  0  0  0  0  0  0
   -0.1798   -0.5362   -0.9113 C   0  0  0  0  0  0  0  0  0  0  0  0
   -1.6758   -0.6362   -0.8789 C   0  0  0  0  0  0  0  0  0  0  0  0
   -2.1749    0.3771    0.1199 C   0  0  0  0  0  0  0  0  0  0  0  0
   -0.9668    1.0225    0.7365 C   0  0  0  0  0  0  0  0  0  0  0  0
    0.2313    0.3545    0.1715 C   0  0  0  0  0  0  0  0  0  0  0  0
    1.5748    1.0209    0.2010 C   0  0  0  0  0  0  0  0  0  0  0  0
    3.6379    0.0476    0.0205 H   0  0  0  0  0  0  0  0  0  0  0  0
    2.4541   -2.2208    0.1482 H   0  0  0  0  0  0  0  0  0  0  0  0
   -0.0774   -1.7114    1.0288 H   0  0  0  0  0  0  0  0  0  0  0  0
    0.3625   -0.4636   -1.8602 H   0  0  0  0  0  0  0  0  0  0  0  0
   -2.1595   -0.5772   -1.8540 H   0  0  0  0  0  0  0  0  0  0  0  0
   -1.9263   -1.6506   -0.4515 H   0  0  0  0  0  0  0  0  0  0  0  0
   -2.8105    1.1087   -0.4438 H   0  0  0  0  0  0  0  0  0  0  0  0
   -2.8045   -0.0650    0.9143 H   0  0  0  0  0  0  0  0  0  0  0  0
   -0.9610    0.9982    1.8309 H   0  0  0  0  0  0  0  0  0  0  0  0
   -0.9645    2.0916    0.4326 H   0  0  0  0  0  0  0  0  0  0  0  0
    1.6803    1.7636   -0.6084 H   0  0  0  0  0  0  0  0  0  0  0  0
    1.7366    1.5102    1.1953 H   0  0  0  0  0  0  0  0  0  0  0  0
  1  2  2  0
  2  3  1  0
  3  4  1  0
  4  5  1  0
  5  6  1  0
  6  7  1  0
  7  8  1  0
  8  9  1  0
  9  1  1  0
  8  3  1  0
  8  4  1  0
  1 10  1  0
  2 11  1  0
  3 12  1  0
  4 13  1  0
  5 14  1  0
  5 15  1  0
  6 16  1  0
  6 17  1  0
  7 18  1  0
  7 19  1  0
  9 20  1  0
  9 21  1  0
M  END
