
     RDKit          3D

 19 21  0  0  0  0  0  0  0  0999 V2000
    1.3023    0.7567   -0.8961 C   0  0  0  0  0  0  0  0  0  0  0  0
    0.2948    1.5864   -0.6952 C   0  0  0  0  0  0  0  0  0  0  0  0
   -0.7642    1.1125    0.2569 C   0  0  0  0  0  0  0  0  0  0  0  0
   -1.5579   -0.0524   -0.3029 C   0  0  0  0  0  0  0  0  0  0  0  0
   -0.7146   -0.9665    0.5243 C   0  0  0  0  0  0  0  0  0  0  0  0
    0.4764   -1.4636   -0.2175 C   0  0  0  0  0  0  0  0  0  0  0  0
    1.4976   -0.3736    0.0309 C   0  0  0  0  0  0  0  0  0  0  0  0
    1.1808    0.1227    1.3176 O   0  0  0  0  0  0  0  0  0  0  0  0
   -0.1990    0.2139    1.3101 C   0  0  0  0  0  0  0  0  0  0  0  0
    1.9653    0.9086   -1.7236 H   0  0  0  0  0  0  0  0  0  0  0  0
    0.2504    2.5412   -1.1917 H   0  0  0  0  0  0  0  0  0  0  0  0
   -1.3883    1.9255    0.6249 H   0  0  0  0  0  0  0  0  0  0  0  0
   -2.6177   -0.0948    0.0138 H   0  0  0  0  0  0  0  0  0  0  0  0
   -1.3965   -0.1255   -1.3973 H   0  0  0  0  0  0  0  0  0  0  0  0
   -1.2349   -1.6799    1.1821 H   0  0  0  0  0  0  0  0  0  0  0  0
    0.2140   -1.5307   -1.3132 H   0  0  0  0  0  0  0  0  0  0  0  0
    0.8016   -2.4547    0.0906 H   0  0  0  0  0  0  0  0  0  0  0  0
    2.5328   -0.7510    0.0703 H   0  0  0  0  0  0  0  0  0  0  0  0
   -0.6428    0.3251    2.3161 H   0  0  0  0  0  0  0  0  0  0  0  0
  1  2  2  0
  2  3  1  0
  3  4  1  0
  4  5  1  0
  5  6  1  0
  6  7  1  0
  7  8  1  0
  8  9  1  0
  7  1  1  0
  9  3  1  0
  9  5  1  0
  1 10  1  0
  2 11  1  0
  3 12  1  0
  4 13  1  0
  4 14  1  0
  5 15  1  0
  6 16  1  0
  6 17  1  0
  7 18  1  0
  9 19  1  0
M  END
