
     RDKit          3D

 19 20  0  0  0  0  0  0  0  0999 V2000
   -1.1948    1.2388    0.0238 C   0  0  0  0  0  0  0  0  0  0  0  0
   -0.5120    0.1604    0.3741 C   0  0  0  0  0  0  0  0  0  0  0  0
    0.9182    0.0894    0.7538 C   0  0  0  0  0  0  0  0  0  0  0  0
    1.6783   -0.8133   -0.1897 C   0  0  0  0  0  0  0  0  0  0  0  0
    2.7411    0.2331    0.1342 C   0  0  0  0  0  0  0  0  0  0  0  0
    1.7052    1.1564    0.3668 O   0  0  0  0  0  0  0  0  0  0  0  0
   -1.4486   -0.9817    0.3071 C   0  0  0  0  0  0  0  0  0  0  0  0
   -2.6631   -0.3850    0.6163 O   0  0  0  0  0  0  0  0  0  0  0  0
   -2.5905    0.7347   -0.2525 C   0  0  0  0  0  0  0  0  0  0  0  0
   -0.8603    2.2584   -0.0559 H   0  0  0  0  0  0  0  0  0  0  0  0
    1.0545   -0.2286    1.8072 H   0  0  0  0  0  0  0  0  0  0  0  0
    1.8742   -1.8123    0.2233 H   0  0  0  0  0  0  0  0  0  0  0  0
    1.3331   -0.7952   -1.2461 H   0  0  0  0  0  0  0  0  0  0  0  0
    3.2828   -0.0296    1.0644 H   0  0  0  0  0  0  0  0  0  0  0  0
    3.4101    0.4848   -0.7010 H   0  0  0  0  0  0  0  0  0  0  0  0
   -1.1817   -1.8053    0.9911 H   0  0  0  0  0  0  0  0  0  0  0  0
   -1.5097   -1.3050   -0.7485 H   0  0  0  0  0  0  0  0  0  0  0  0
   -2.6837    0.3260   -1.2683 H   0  0  0  0  0  0  0  0  0  0  0  0
   -3.3530    1.4741   -0.0169 H   0  0  0  0  0  0  0  0  0  0  0  0
  1  2  2  0
  2  3  1  0
  3  4  1  0
  4  5  1  0
  5  6  1  0
  2  7  1  0
  7  8  1  0
  8  9  1  0
  9  1  1  0
  6  3  1  0
  1 10  1  0
  3 11  1  0
  4 12  1  0
  4 13  1  0
  5 14  1  0
  5 15  1  0
  7 16  1  0
  7 17  1  0
  9 18  1  0
  9 19  1  0
M  END
