
     RDKit          3D

 21 23  0  0  0  0  0  0  0  0999 V2000
    0.9615   -1.4703    0.3055 C   0  0  0  0  0  0  0  0  0  0  0  0
   -0.2226   -1.0315    0.0402 C   0  0  0  0  0  0  0  0  0  0  0  0
   -1.6753   -1.0480    0.1647 C   0  0  0  0  0  0  0  0  0  0  0  0
   -1.8549    0.4416    0.6012 C   0  0  0  0  0  0  0  0  0  0  0  0
   -0.7397    1.1629   -0.1195 C   0  0  0  0  0  0  0  0  0  0  0  0
    0.5996    1.2337    0.6100 C   0  0  0  0  0  0  0  0  0  0  0  0
    1.2943    0.6575   -0.6162 C   0  0  0  0  0  0  0  0  0  0  0  0
    2.0099   -0.6682   -0.4087 C   0  0  0  0  0  0  0  0  0  0  0  0
   -0.0668    0.1178   -0.9826 C   0  0  0  0  0  0  0  0  0  0  0  0
    1.2743   -2.3113    0.9537 H   0  0  0  0  0  0  0  0  0  0  0  0
   -2.0494   -1.6970    0.9849 H   0  0  0  0  0  0  0  0  0  0  0  0
   -2.1642   -1.2090   -0.7979 H   0  0  0  0  0  0  0  0  0  0  0  0
   -1.6892    0.4096    1.7003 H   0  0  0  0  0  0  0  0  0  0  0  0
   -2.8451    0.8080    0.3309 H   0  0  0  0  0  0  0  0  0  0  0  0
   -1.0128    2.1048   -0.5503 H   0  0  0  0  0  0  0  0  0  0  0  0
    0.9513    2.2749    0.7648 H   0  0  0  0  0  0  0  0  0  0  0  0
    0.6876    0.5771    1.4718 H   0  0  0  0  0  0  0  0  0  0  0  0
    1.7966    1.3277   -1.2837 H   0  0  0  0  0  0  0  0  0  0  0  0
    2.9054   -0.4961    0.1794 H   0  0  0  0  0  0  0  0  0  0  0  0
    2.1963   -1.1190   -1.3803 H   0  0  0  0  0  0  0  0  0  0  0  0
   -0.3568   -0.0653   -1.9684 H   0  0  0  0  0  0  0  0  0  0  0  0
  1  2  2  0
  2  3  1  0
  3  4  1  0
  4  5  1  0
  5  6  1  0
  6  7  1  0
  7  8  1  0
  7  9  1  0
  8  1  1  0
  9  2  1  0
  9  5  1  0
  1 10  1  0
  3 11  1  0
  3 12  1  0
  4 13  1  0
  4 14  1  0
  5 15  1  0
  6 16  1  0
  6 17  1  0
  7 18  1  0
  8 19  1  0
  8 20  1  0
  9 21  1  0
M  END
