
     RDKit          3D

 19 20  0  0  0  0  0  0  0  0999 V2000
   -1.2639    1.1209    0.6734 C   0  0  0  0  0  0  0  0  0  0  0  0
    0.0472    0.9895    0.3887 C   0  0  0  0  0  0  0  0  0  0  0  0
    0.3996   -0.1504   -0.4899 C   0  0  0  0  0  0  0  0  0  0  0  0
    1.8508   -0.5213   -0.4318 C   0  0  0  0  0  0  0  0  0  0  0  0
    2.8649    0.2424    0.2324 C   0  0  0  0  0  0  0  0  0  0  0  0
    2.3241   -0.8952    0.8425 O   0  0  0  0  0  0  0  0  0  0  0  0
   -0.3426   -1.2426   -0.0811 O   0  0  0  0  0  0  0  0  0  0  0  0
   -1.6968   -1.1171   -0.3185 C   0  0  0  0  0  0  0  0  0  0  0  0
   -2.2716    0.1927    0.1448 C   0  0  0  0  0  0  0  0  0  0  0  0
   -1.5941    1.9301    1.3087 H   0  0  0  0  0  0  0  0  0  0  0  0
    0.7360    1.6954    0.8019 H   0  0  0  0  0  0  0  0  0  0  0  0
    0.1763    0.1624   -1.5321 H   0  0  0  0  0  0  0  0  0  0  0  0
    2.1653   -1.1863   -1.2801 H   0  0  0  0  0  0  0  0  0  0  0  0
    3.9264    0.0991   -0.0847 H   0  0  0  0  0  0  0  0  0  0  0  0
    2.7179    1.2179    0.7388 H   0  0  0  0  0  0  0  0  0  0  0  0
   -2.2001   -1.9273    0.2646 H   0  0  0  0  0  0  0  0  0  0  0  0
   -1.9651   -1.3202   -1.3833 H   0  0  0  0  0  0  0  0  0  0  0  0
   -3.0482    0.0534    0.9295 H   0  0  0  0  0  0  0  0  0  0  0  0
   -2.8260    0.6565   -0.7241 H   0  0  0  0  0  0  0  0  0  0  0  0
  1  2  2  0
  2  3  1  0
  3  4  1  0
  4  5  1  0
  5  6  1  0
  3  7  1  0
  7  8  1  0
  8  9  1  0
  9  1  1  0
  6  4  1  0
  1 10  1  0
  2 11  1  0
  3 12  1  0
  4 13  1  0
  5 14  1  0
  5 15  1  0
  8 16  1  0
  8 17  1  0
  9 18  1  0
  9 19  1  0
M  END
