
     RDKit          3D

 18 19  0  0  0  0  0  0  0  0999 V2000
    1.5010   -0.5955    0.5430 C   0  0  0  0  0  0  0  0  0  0  0  0
    0.4610   -1.4072    0.6202 C   0  0  0  0  0  0  0  0  0  0  0  0
   -0.8080   -1.3496   -0.1362 C   0  0  0  0  0  0  0  0  0  0  0  0
   -1.4123    0.0153   -0.2152 C   0  0  0  0  0  0  0  0  0  0  0  0
   -0.9117    1.1711    0.5361 C   0  0  0  0  0  0  0  0  0  0  0  0
   -0.5625    1.0046   -0.8858 C   0  0  0  0  0  0  0  0  0  0  0  0
    0.6637    0.5802   -1.3243 O   0  0  0  0  0  0  0  0  0  0  0  0
    1.6581    0.6098   -0.3475 C   0  0  0  0  0  0  0  0  0  0  0  0
    2.3419   -0.8207    1.1960 H   0  0  0  0  0  0  0  0  0  0  0  0
    0.5412   -2.2195    1.3246 H   0  0  0  0  0  0  0  0  0  0  0  0
   -1.5785   -2.0188    0.3449 H   0  0  0  0  0  0  0  0  0  0  0  0
   -0.6667   -1.7984   -1.1623 H   0  0  0  0  0  0  0  0  0  0  0  0
   -2.5031   -0.0006   -0.5002 H   0  0  0  0  0  0  0  0  0  0  0  0
   -1.6803    1.9609    0.7866 H   0  0  0  0  0  0  0  0  0  0  0  0
   -0.2077    0.9757    1.3636 H   0  0  0  0  0  0  0  0  0  0  0  0
   -1.0716    1.7050   -1.6098 H   0  0  0  0  0  0  0  0  0  0  0  0
    1.5717    1.5375    0.2723 H   0  0  0  0  0  0  0  0  0  0  0  0
    2.6637    0.6501   -0.8061 H   0  0  0  0  0  0  0  0  0  0  0  0
  1  2  2  0
  2  3  1  0
  3  4  1  0
  4  5  1  0
  5  6  1  0
  6  7  1  0
  7  8  1  0
  8  1  1  0
  6  4  1  0
  1  9  1  0
  2 10  1  0
  3 11  1  0
  3 12  1  0
  4 13  1  0
  5 14  1  0
  5 15  1  0
  6 16  1  0
  8 17  1  0
  8 18  1  0
M  END
