
     RDKit          3D

 17 17  0  0  0  0  0  0  0  0999 V2000
    1.7793    0.1078    0.0876 C   0  0  0  0  0  0  0  0  0  0  0  0
    1.1955   -1.0849    0.1104 C   0  0  0  0  0  0  0  0  0  0  0  0
   -0.2004   -1.5244    0.1247 C   0  0  0  0  0  0  0  0  0  0  0  0
   -1.1886   -0.4349    0.4252 C   0  0  0  0  0  0  0  0  0  0  0  0
   -1.2227    0.6404   -0.6283 C   0  0  0  0  0  0  0  0  0  0  0  0
   -0.2088    1.6604   -0.2230 C   0  0  0  0  0  0  0  0  0  0  0  0
    1.0523    1.3792    0.0699 C   0  0  0  0  0  0  0  0  0  0  0  0
    2.8709    0.1441    0.0816 H   0  0  0  0  0  0  0  0  0  0  0  0
    1.9129   -1.8878    0.1204 H   0  0  0  0  0  0  0  0  0  0  0  0
   -0.4686   -1.9982   -0.8286 H   0  0  0  0  0  0  0  0  0  0  0  0
   -0.3357   -2.3027    0.9161 H   0  0  0  0  0  0  0  0  0  0  0  0
   -1.0517   -0.0181    1.4519 H   0  0  0  0  0  0  0  0  0  0  0  0
   -2.1985   -0.9044    0.4326 H   0  0  0  0  0  0  0  0  0  0  0  0
   -2.2300    1.0883   -0.7429 H   0  0  0  0  0  0  0  0  0  0  0  0
   -0.8482    0.1867   -1.5830 H   0  0  0  0  0  0  0  0  0  0  0  0
   -0.5152    2.6976   -0.1621 H   0  0  0  0  0  0  0  0  0  0  0  0
    1.6574    2.2507    0.3475 H   0  0  0  0  0  0  0  0  0  0  0  0
  1  2  2  0
  2  3  1  0
  3  4  1  0
  4  5  1  0
  5  6  1  0
  6  7  2  0
  7  1  1  0
  1  8  1  0
  2  9  1  0
  3 10  1  0
  3 11  1  0
  4 12  1  0
  4 13  1  0
  5 14  1  0
  5 15  1  0
  6 16  1  0
  7 17  1  0
M  END
