
     RDKit          3D

 23 24  0  0  0  0  0  0  0  0999 V2000
    0.4517    0.6240    1.6433 C   0  0  0  0  0  0  0  0  0  0  0  0
    1.1488   -0.4487    1.3380 C   0  0  0  0  0  0  0  0  0  0  0  0
    1.1067   -0.8326   -0.0968 C   0  0  0  0  0  0  0  0  0  0  0  0
   -0.1259   -1.5772   -0.4815 C   0  0  0  0  0  0  0  0  0  0  0  0
   -1.4007   -0.8842   -0.4774 C   0  0  0  0  0  0  0  0  0  0  0  0
   -1.6099    0.3019    0.3776 C   0  0  0  0  0  0  0  0  0  0  0  0
   -0.4091    1.1800    0.5870 C   0  0  0  0  0  0  0  0  0  0  0  0
    0.2745    1.4033   -0.7191 C   0  0  0  0  0  0  0  0  0  0  0  0
    1.3550    0.4032   -0.9007 C   0  0  0  0  0  0  0  0  0  0  0  0
    0.5042    1.0727    2.6094 H   0  0  0  0  0  0  0  0  0  0  0  0
    1.6940   -0.9818    2.0896 H   0  0  0  0  0  0  0  0  0  0  0  0
    1.9727   -1.5272   -0.3101 H   0  0  0  0  0  0  0  0  0  0  0  0
    0.1077   -2.0126   -1.5013 H   0  0  0  0  0  0  0  0  0  0  0  0
   -0.1565   -2.4880    0.1745 H   0  0  0  0  0  0  0  0  0  0  0  0
   -1.6586   -0.5919   -1.5404 H   0  0  0  0  0  0  0  0  0  0  0  0
   -2.2349   -1.6080   -0.2301 H   0  0  0  0  0  0  0  0  0  0  0  0
   -2.3818    0.9638   -0.0773 H   0  0  0  0  0  0  0  0  0  0  0  0
   -2.0021    0.0506    1.3872 H   0  0  0  0  0  0  0  0  0  0  0  0
   -0.7783    2.1726    0.9348 H   0  0  0  0  0  0  0  0  0  0  0  0
    0.6928    2.4418   -0.7791 H   0  0  0  0  0  0  0  0  0  0  0  0
   -0.4467    1.2918   -1.5751 H   0  0  0  0  0  0  0  0  0  0  0  0
    1.5934    0.1854   -1.9628 H   0  0  0  0  0  0  0  0  0  0  0  0
    2.3031    0.8610   -0.4896 H   0  0  0  0  0  0  0  0  0  0  0  0
  1  2  2  0
  2  3  1  0
  3  4  1  0
  4  5  1  0
  5  6  1  0
  6  7  1  0
  7  8  1  0
  8  9  1  0
  7  1  1  0
  9  3  1  0
  1 10  1  0
  2 11  1  0
  3 12  1  0
  4 13  1  0
  4 14  1  0
  5 15  1  0
  5 16  1  0
  6 17  1  0
  6 18  1  0
  7 19  1  0
  8 20  1  0
  8 21  1  0
  9 22  1  0
  9 23  1  0
M  END
