
     RDKit          3D

 16 17  0  0  0  0  0  0  0  0999 V2000
   -1.6494    0.9364   -0.2073 C   0  0  0  0  0  0  0  0  0  0  0  0
   -0.4615    0.9000    0.3804 C   0  0  0  0  0  0  0  0  0  0  0  0
   -0.0561   -0.4992    0.5221 C   0  0  0  0  0  0  0  0  0  0  0  0
    1.3854   -0.7460    0.1510 C   0  0  0  0  0  0  0  0  0  0  0  0
    2.2297    0.2656   -0.4278 C   0  0  0  0  0  0  0  0  0  0  0  0
    2.3439   -0.0348    1.0191 O   0  0  0  0  0  0  0  0  0  0  0  0
   -0.8604   -1.2040   -0.3432 O   0  0  0  0  0  0  0  0  0  0  0  0
   -2.0473   -0.4704   -0.4649 C   0  0  0  0  0  0  0  0  0  0  0  0
   -2.2654    1.7959   -0.4761 H   0  0  0  0  0  0  0  0  0  0  0  0
    0.0496    1.8204    0.6729 H   0  0  0  0  0  0  0  0  0  0  0  0
   -0.1901   -0.8302    1.5828 H   0  0  0  0  0  0  0  0  0  0  0  0
    1.6941   -1.8075    0.0650 H   0  0  0  0  0  0  0  0  0  0  0  0
    1.9488    1.3116   -0.5440 H   0  0  0  0  0  0  0  0  0  0  0  0
    3.1242   -0.0551   -1.0039 H   0  0  0  0  0  0  0  0  0  0  0  0
   -2.7165   -0.7938    0.3795 H   0  0  0  0  0  0  0  0  0  0  0  0
   -2.5289   -0.5889   -1.4311 H   0  0  0  0  0  0  0  0  0  0  0  0
  1  2  2  0
  2  3  1  0
  3  4  1  0
  4  5  1  0
  5  6  1  0
  3  7  1  0
  7  8  1  0
  8  1  1  0
  6  4  1  0
  1  9  1  0
  2 10  1  0
  3 11  1  0
  4 12  1  0
  5 13  1  0
  5 14  1  0
  8 15  1  0
  8 16  1  0
M  END
