
     RDKit          3D

 18 18  0  0  0  0  0  0  0  0999 V2000
   -0.4254    1.4964   -0.0291 C   0  0  0  0  0  0  0  0  0  0  0  0
    0.8929    1.3388    0.0216 C   0  0  0  0  0  0  0  0  0  0  0  0
    1.8204    0.2339    0.3857 C   0  0  0  0  0  0  0  0  0  0  0  0
    1.8839   -0.6882   -0.6547 O   0  0  0  0  0  0  0  0  0  0  0  0
    0.7500   -1.5223   -0.5169 C   0  0  0  0  0  0  0  0  0  0  0  0
   -0.3179   -0.7991   -1.0273 O   0  0  0  0  0  0  0  0  0  0  0  0
   -1.4211   -0.7781   -0.2133 C   0  0  0  0  0  0  0  0  0  0  0  0
   -1.6220    0.6626    0.2478 C   0  0  0  0  0  0  0  0  0  0  0  0
   -0.7389    2.5008   -0.3606 H   0  0  0  0  0  0  0  0  0  0  0  0
    1.4022    2.2401   -0.2768 H   0  0  0  0  0  0  0  0  0  0  0  0
    1.4156   -0.3373    1.2704 H   0  0  0  0  0  0  0  0  0  0  0  0
    2.8061    0.6042    0.7055 H   0  0  0  0  0  0  0  0  0  0  0  0
    0.6148   -1.7302    0.5596 H   0  0  0  0  0  0  0  0  0  0  0  0
    0.8649   -2.4495   -1.1250 H   0  0  0  0  0  0  0  0  0  0  0  0
   -1.2863   -1.3912    0.7125 H   0  0  0  0  0  0  0  0  0  0  0  0
   -2.3087   -1.1451   -0.7725 H   0  0  0  0  0  0  0  0  0  0  0  0
   -2.4985    1.0623   -0.2748 H   0  0  0  0  0  0  0  0  0  0  0  0
   -1.8320    0.7021    1.3479 H   0  0  0  0  0  0  0  0  0  0  0  0
  1  2  2  3
  2  3  1  0
  3  4  1  0
  4  5  1  0
  5  6  1  0
  6  7  1  0
  7  8  1  0
  8  1  1  0
  1  9  1  0
  2 10  1  0
  3 11  1  0
  3 12  1  0
  5 13  1  0
  5 14  1  0
  7 15  1  0
  7 16  1  0
  8 17  1  0
  8 18  1  0
M  END
