
     RDKit          3D

 17 19  0  0  0  0  0  0  0  0999 V2000
   -1.9368    0.4826    0.6488 C   0  0  0  0  0  0  0  0  0  0  0  0
   -0.6415    0.4929    0.9180 C   0  0  0  0  0  0  0  0  0  0  0  0
    0.0482    0.1080   -0.3746 C   0  0  0  0  0  0  0  0  0  0  0  0
    1.3852   -0.4940   -0.1473 C   0  0  0  0  0  0  0  0  0  0  0  0
    2.4857    0.1637    0.5139 C   0  0  0  0  0  0  0  0  0  0  0  0
    2.4415    0.1304   -0.9607 O   0  0  0  0  0  0  0  0  0  0  0  0
   -0.9631   -0.9434   -0.7526 C   0  0  0  0  0  0  0  0  0  0  0  0
   -2.0576   -0.9715   -1.4467 O   0  0  0  0  0  0  0  0  0  0  0  0
   -2.1106    0.1179   -0.7392 C   0  0  0  0  0  0  0  0  0  0  0  0
   -2.7597    0.7087    1.3437 H   0  0  0  0  0  0  0  0  0  0  0  0
   -0.1732    0.7222    1.8451 H   0  0  0  0  0  0  0  0  0  0  0  0
    0.0255    1.0003   -1.0093 H   0  0  0  0  0  0  0  0  0  0  0  0
    1.4421   -1.5964   -0.2742 H   0  0  0  0  0  0  0  0  0  0  0  0
    2.4052    1.2054    0.8668 H   0  0  0  0  0  0  0  0  0  0  0  0
    3.3281   -0.4530    0.8740 H   0  0  0  0  0  0  0  0  0  0  0  0
   -1.0021   -1.7029    0.0925 H   0  0  0  0  0  0  0  0  0  0  0  0
   -1.9169    1.0291   -1.3983 H   0  0  0  0  0  0  0  0  0  0  0  0
  1  2  2  0
  2  3  1  0
  3  4  1  0
  4  5  1  0
  5  6  1  0
  3  7  1  0
  7  8  1  0
  8  9  1  0
  9  1  1  0
  6  4  1  0
  9  7  1  0
  1 10  1  0
  2 11  1  0
  3 12  1  0
  4 13  1  0
  5 14  1  0
  5 15  1  0
  7 16  1  0
  9 17  1  0
M  END
