
     RDKit          3D

 17 18  0  0  0  0  0  0  0  0999 V2000
    1.8842   -0.3643   -0.5401 C   0  0  0  0  0  0  0  0  0  0  0  0
    1.8471    0.5826    0.3757 C   0  0  0  0  0  0  0  0  0  0  0  0
    0.4754    0.8646    0.8177 C   0  0  0  0  0  0  0  0  0  0  0  0
   -0.3957   -0.0434   -0.0144 C   0  0  0  0  0  0  0  0  0  0  0  0
    0.5178   -0.8688   -0.8557 C   0  0  0  0  0  0  0  0  0  0  0  0
   -1.6884    0.4655   -0.4633 C   0  0  0  0  0  0  0  0  0  0  0  0
   -1.6449   -0.6142    0.5721 C   0  0  0  0  0  0  0  0  0  0  0  0
    2.7864   -0.7382   -1.0121 H   0  0  0  0  0  0  0  0  0  0  0  0
    2.7239    1.1152    0.7793 H   0  0  0  0  0  0  0  0  0  0  0  0
    0.3880    0.6011    1.8875 H   0  0  0  0  0  0  0  0  0  0  0  0
    0.1546    1.9097    0.6087 H   0  0  0  0  0  0  0  0  0  0  0  0
    0.3749   -0.7223   -1.9465 H   0  0  0  0  0  0  0  0  0  0  0  0
    0.5124   -1.9479   -0.5840 H   0  0  0  0  0  0  0  0  0  0  0  0
   -2.0120    1.4609   -0.0447 H   0  0  0  0  0  0  0  0  0  0  0  0
   -2.0945    0.2922   -1.4656 H   0  0  0  0  0  0  0  0  0  0  0  0
   -2.0059   -1.6152    0.2614 H   0  0  0  0  0  0  0  0  0  0  0  0
   -1.8234   -0.3775    1.6242 H   0  0  0  0  0  0  0  0  0  0  0  0
  1  2  2  0
  2  3  1  0
  3  4  1  0
  4  5  1  0
  4  6  1  0
  6  7  1  0
  5  1  1  0
  7  4  1  0
  1  8  1  0
  2  9  1  0
  3 10  1  0
  3 11  1  0
  5 12  1  0
  5 13  1  0
  6 14  1  0
  6 15  1  0
  7 16  1  0
  7 17  1  0
M  END
