
     RDKit          3D

 21 23  0  0  0  0  0  0  0  0999 V2000
   -0.5241   -0.3305   -0.9609 C   0  0  0  0  0  0  0  0  0  0  0  0
    0.0889   -0.1764    0.2423 C   0  0  0  0  0  0  0  0  0  0  0  0
    1.5000   -0.4925    0.5474 C   0  0  0  0  0  0  0  0  0  0  0  0
    2.6128    0.3340    0.0828 C   0  0  0  0  0  0  0  0  0  0  0  0
    2.3723   -1.0415   -0.5636 C   0  0  0  0  0  0  0  0  0  0  0  0
   -0.9882    0.3557    1.0787 C   0  0  0  0  0  0  0  0  0  0  0  0
   -1.5908    1.4259    0.1563 C   0  0  0  0  0  0  0  0  0  0  0  0
   -1.8677    0.1894   -0.7108 C   0  0  0  0  0  0  0  0  0  0  0  0
   -2.2034   -0.4703    0.6361 C   0  0  0  0  0  0  0  0  0  0  0  0
   -0.1243   -0.7362   -1.8806 H   0  0  0  0  0  0  0  0  0  0  0  0
    1.6350   -1.0195    1.5197 H   0  0  0  0  0  0  0  0  0  0  0  0
    3.5391    0.3930    0.7219 H   0  0  0  0  0  0  0  0  0  0  0  0
    2.4988    1.2300   -0.5536 H   0  0  0  0  0  0  0  0  0  0  0  0
    2.0147   -0.9699   -1.6082 H   0  0  0  0  0  0  0  0  0  0  0  0
    3.0817   -1.8485   -0.3402 H   0  0  0  0  0  0  0  0  0  0  0  0
   -0.8701    0.5763    2.0946 H   0  0  0  0  0  0  0  0  0  0  0  0
   -0.8697    2.1272   -0.2652 H   0  0  0  0  0  0  0  0  0  0  0  0
   -2.5169    1.8069    0.5804 H   0  0  0  0  0  0  0  0  0  0  0  0
   -2.6135    0.2430   -1.4443 H   0  0  0  0  0  0  0  0  0  0  0  0
   -2.0637   -1.5496    0.6662 H   0  0  0  0  0  0  0  0  0  0  0  0
   -3.1110   -0.0465    1.0873 H   0  0  0  0  0  0  0  0  0  0  0  0
  1  2  2  0
  2  3  1  0
  3  4  1  0
  4  5  1  0
  2  6  1  0
  6  7  1  0
  7  8  1  0
  8  9  1  0
  8  1  1  0
  5  3  1  0
  9  6  1  0
  1 10  1  0
  3 11  1  0
  4 12  1  0
  4 13  1  0
  5 14  1  0
  5 15  1  0
  6 16  1  0
  7 17  1  0
  7 18  1  0
  8 19  1  0
  9 20  1  0
  9 21  1  0
M  END
