
     RDKit          3D

 21 23  0  0  0  0  0  0  0  0999 V2000
    0.2514    1.7592   -0.0622 C   0  0  0  0  0  0  0  0  0  0  0  0
   -0.8327    0.9665   -0.0866 C   0  0  0  0  0  0  0  0  0  0  0  0
   -2.2591    0.6897   -0.3266 C   0  0  0  0  0  0  0  0  0  0  0  0
   -1.9733   -0.7903   -0.2337 C   0  0  0  0  0  0  0  0  0  0  0  0
   -0.6442   -0.4470    0.3352 C   0  0  0  0  0  0  0  0  0  0  0  0
    0.5523   -0.9761   -0.4121 C   0  0  0  0  0  0  0  0  0  0  0  0
    1.6853   -1.4146    0.4868 C   0  0  0  0  0  0  0  0  0  0  0  0
    1.7584   -0.1448   -0.2965 C   0  0  0  0  0  0  0  0  0  0  0  0
    1.5238    1.1648    0.3808 C   0  0  0  0  0  0  0  0  0  0  0  0
    0.1016    2.7858   -0.3744 H   0  0  0  0  0  0  0  0  0  0  0  0
   -2.6450    1.0298   -1.3151 H   0  0  0  0  0  0  0  0  0  0  0  0
   -2.9615    0.9854    0.4749 H   0  0  0  0  0  0  0  0  0  0  0  0
   -1.9701   -1.2949   -1.2169 H   0  0  0  0  0  0  0  0  0  0  0  0
   -2.5911   -1.3299    0.5321 H   0  0  0  0  0  0  0  0  0  0  0  0
   -0.5853   -0.5026    1.4339 H   0  0  0  0  0  0  0  0  0  0  0  0
    0.3817   -1.5842   -1.3450 H   0  0  0  0  0  0  0  0  0  0  0  0
    1.6033   -1.3165    1.5685 H   0  0  0  0  0  0  0  0  0  0  0  0
    2.3015   -2.2759    0.1527 H   0  0  0  0  0  0  0  0  0  0  0  0
    2.5221   -0.1133   -1.0964 H   0  0  0  0  0  0  0  0  0  0  0  0
    2.3715    1.8617    0.3072 H   0  0  0  0  0  0  0  0  0  0  0  0
    1.4093    0.9473    1.4793 H   0  0  0  0  0  0  0  0  0  0  0  0
  1  2  2  0
  2  3  1  0
  3  4  1  0
  4  5  1  0
  5  6  1  0
  6  7  1  0
  7  8  1  0
  8  9  1  0
  9  1  1  0
  5  2  1  0
  8  6  1  0
  1 10  1  0
  3 11  1  0
  3 12  1  0
  4 13  1  0
  4 14  1  0
  5 15  1  0
  6 16  1  0
  7 17  1  0
  7 18  1  0
  8 19  1  0
  9 20  1  0
  9 21  1  0
M  END
