
     RDKit          3D

 17 19  0  0  0  0  0  0  0  0999 V2000
    0.9784    0.6779    1.1560 C   0  0  0  0  0  0  0  0  0  0  0  0
   -0.2229    0.4886    0.6769 C   0  0  0  0  0  0  0  0  0  0  0  0
   -1.6898    0.5370    0.8378 C   0  0  0  0  0  0  0  0  0  0  0  0
   -2.2228   -0.3859   -0.0578 O   0  0  0  0  0  0  0  0  0  0  0  0
   -1.1421   -1.0787   -0.6582 C   0  0  0  0  0  0  0  0  0  0  0  0
   -0.1193   -0.0183   -0.7595 C   0  0  0  0  0  0  0  0  0  0  0  0
    1.3027   -0.3990   -0.8664 C   0  0  0  0  0  0  0  0  0  0  0  0
    2.0615    0.8724   -1.0926 O   0  0  0  0  0  0  0  0  0  0  0  0
    1.9966    0.3061    0.1552 C   0  0  0  0  0  0  0  0  0  0  0  0
    1.2234    1.0607    2.1636 H   0  0  0  0  0  0  0  0  0  0  0  0
   -2.0365    0.2574    1.8448 H   0  0  0  0  0  0  0  0  0  0  0  0
   -2.0187    1.5653    0.6387 H   0  0  0  0  0  0  0  0  0  0  0  0
   -0.8056   -1.8955    0.0180 H   0  0  0  0  0  0  0  0  0  0  0  0
   -1.5240   -1.4629   -1.6145 H   0  0  0  0  0  0  0  0  0  0  0  0
   -0.4224    0.7724   -1.4629 H   0  0  0  0  0  0  0  0  0  0  0  0
    1.6694   -1.2142   -1.4942 H   0  0  0  0  0  0  0  0  0  0  0  0
    2.9724   -0.0833    0.5151 H   0  0  0  0  0  0  0  0  0  0  0  0
  1  2  2  0
  2  3  1  0
  3  4  1  0
  4  5  1  0
  5  6  1  0
  6  7  1  0
  7  8  1  0
  8  9  1  0
  9  1  1  0
  6  2  1  0
  9  7  1  0
  1 10  1  0
  3 11  1  0
  3 12  1  0
  5 13  1  0
  5 14  1  0
  6 15  1  0
  7 16  1  0
  9 17  1  0
M  END
