
     RDKit          3D

 21 22  0  0  0  0  0  0  0  0999 V2000
    1.9066   -0.5631    0.0811 C   0  0  0  0  0  0  0  0  0  0  0  0
    1.0252   -1.5409    0.0652 C   0  0  0  0  0  0  0  0  0  0  0  0
   -0.4103   -1.7757   -0.1938 C   0  0  0  0  0  0  0  0  0  0  0  0
   -1.2630   -0.5647   -0.1584 C   0  0  0  0  0  0  0  0  0  0  0  0
   -0.9155    0.5161   -1.1127 C   0  0  0  0  0  0  0  0  0  0  0  0
   -0.7577    1.4945    0.0564 C   0  0  0  0  0  0  0  0  0  0  0  0
    0.7107    1.7560    0.1809 C   0  0  0  0  0  0  0  0  0  0  0  0
    1.7306    0.8820    0.1799 C   0  0  0  0  0  0  0  0  0  0  0  0
   -1.0710    0.3529    0.9925 C   0  0  0  0  0  0  0  0  0  0  0  0
    2.9186   -0.9185    0.0067 H   0  0  0  0  0  0  0  0  0  0  0  0
    1.5002   -2.4772    0.3258 H   0  0  0  0  0  0  0  0  0  0  0  0
   -0.5437   -2.2807   -1.1594 H   0  0  0  0  0  0  0  0  0  0  0  0
   -0.7695   -2.4761    0.5881 H   0  0  0  0  0  0  0  0  0  0  0  0
   -2.3334   -0.8551   -0.2742 H   0  0  0  0  0  0  0  0  0  0  0  0
   -1.7612    0.8932   -1.7519 H   0  0  0  0  0  0  0  0  0  0  0  0
   -0.0136    0.3856   -1.7237 H   0  0  0  0  0  0  0  0  0  0  0  0
   -1.4041    2.3586    0.0577 H   0  0  0  0  0  0  0  0  0  0  0  0
    0.9983    2.7906    0.2868 H   0  0  0  0  0  0  0  0  0  0  0  0
    2.6912    1.3881    0.2803 H   0  0  0  0  0  0  0  0  0  0  0  0
   -1.9909    0.5749    1.5972 H   0  0  0  0  0  0  0  0  0  0  0  0
   -0.2475    0.0594    1.6754 H   0  0  0  0  0  0  0  0  0  0  0  0
  1  2  2  3
  2  3  1  0
  3  4  1  0
  4  5  1  0
  5  6  1  0
  6  7  1  0
  7  8  2  3
  6  9  1  0
  8  1  1  0
  9  4  1  0
  1 10  1  0
  2 11  1  0
  3 12  1  0
  3 13  1  0
  4 14  1  0
  5 15  1  0
  5 16  1  0
  6 17  1  0
  7 18  1  0
  8 19  1  0
  9 20  1  0
  9 21  1  0
M  END
