
     RDKit          3D

 19 22  0  0  0  0  0  0  0  0999 V2000
    1.9320    0.0235   -0.3913 C   0  0  0  0  0  0  0  0  0  0  0  0
    1.2709    1.1462   -0.2103 C   0  0  0  0  0  0  0  0  0  0  0  0
    0.0708    0.8342    0.5300 C   0  0  0  0  0  0  0  0  0  0  0  0
   -1.1674    1.5832    0.6288 C   0  0  0  0  0  0  0  0  0  0  0  0
   -1.1074    0.6138   -0.4553 C   0  0  0  0  0  0  0  0  0  0  0  0
   -1.2913   -0.8496   -0.3665 C   0  0  0  0  0  0  0  0  0  0  0  0
   -0.1159   -1.4947    0.2577 C   0  0  0  0  0  0  0  0  0  0  0  0
    1.2766   -1.1420    0.1923 C   0  0  0  0  0  0  0  0  0  0  0  0
    0.3154   -0.4603    1.2199 C   0  0  0  0  0  0  0  0  0  0  0  0
    2.8908   -0.0239   -0.9342 H   0  0  0  0  0  0  0  0  0  0  0  0
    1.5730    2.1238   -0.5542 H   0  0  0  0  0  0  0  0  0  0  0  0
   -1.1588    2.6438    0.3852 H   0  0  0  0  0  0  0  0  0  0  0  0
   -1.8313    1.2995    1.4957 H   0  0  0  0  0  0  0  0  0  0  0  0
   -1.0237    1.0269   -1.4833 H   0  0  0  0  0  0  0  0  0  0  0  0
   -2.1686   -1.0286    0.3279 H   0  0  0  0  0  0  0  0  0  0  0  0
   -1.6149   -1.3152   -1.3201 H   0  0  0  0  0  0  0  0  0  0  0  0
   -0.3410   -2.5409    0.6125 H   0  0  0  0  0  0  0  0  0  0  0  0
    1.9834   -1.8459    0.7094 H   0  0  0  0  0  0  0  0  0  0  0  0
    0.5075   -0.5936    2.2688 H   0  0  0  0  0  0  0  0  0  0  0  0
  1  2  2  0
  2  3  1  0
  3  4  1  0
  4  5  1  0
  5  6  1  0
  6  7  1  0
  7  8  1  0
  8  9  1  0
  8  1  1  0
  5  3  1  0
  9  7  1  0
  9  3  1  0
  1 10  1  0
  2 11  1  0
  4 12  1  0
  4 13  1  0
  5 14  1  0
  6 15  1  0
  6 16  1  0
  7 17  1  0
  8 18  1  0
  9 19  1  0
M  END
