
     RDKit          3D

 21 22  0  0  0  0  0  0  0  0999 V2000
    2.4787   -0.1179   -0.3477 C   0  0  0  0  0  0  0  0  0  0  0  0
    1.3512   -0.4550   -0.9597 C   0  0  0  0  0  0  0  0  0  0  0  0
    0.2519   -0.1613   -0.0260 C   0  0  0  0  0  0  0  0  0  0  0  0
   -0.7764   -1.2740    0.0483 C   0  0  0  0  0  0  0  0  0  0  0  0
   -2.1161   -0.6103   -0.2119 C   0  0  0  0  0  0  0  0  0  0  0  0
   -1.8432    0.7948    0.3320 C   0  0  0  0  0  0  0  0  0  0  0  0
   -0.5241    1.0865   -0.3942 C   0  0  0  0  0  0  0  0  0  0  0  0
    0.8459   -0.0289    1.2310 O   0  0  0  0  0  0  0  0  0  0  0  0
    2.1340    0.3989    0.9882 C   0  0  0  0  0  0  0  0  0  0  0  0
    3.4798   -0.2207   -0.7923 H   0  0  0  0  0  0  0  0  0  0  0  0
    1.2271   -0.8673   -1.9495 H   0  0  0  0  0  0  0  0  0  0  0  0
   -0.7534   -1.7745    1.0396 H   0  0  0  0  0  0  0  0  0  0  0  0
   -0.5610   -2.0661   -0.7051 H   0  0  0  0  0  0  0  0  0  0  0  0
   -2.9394   -1.1051    0.3266 H   0  0  0  0  0  0  0  0  0  0  0  0
   -2.2575   -0.5402   -1.2920 H   0  0  0  0  0  0  0  0  0  0  0  0
   -2.6242    1.5058    0.0761 H   0  0  0  0  0  0  0  0  0  0  0  0
   -1.5992    0.7184    1.4020 H   0  0  0  0  0  0  0  0  0  0  0  0
   -0.0611    2.0101   -0.0519 H   0  0  0  0  0  0  0  0  0  0  0  0
   -0.6681    1.1098   -1.4877 H   0  0  0  0  0  0  0  0  0  0  0  0
    2.1001    1.5268    1.0072 H   0  0  0  0  0  0  0  0  0  0  0  0
    2.8549    0.0702    1.7670 H   0  0  0  0  0  0  0  0  0  0  0  0
  1  2  2  0
  2  3  1  0
  3  4  1  0
  4  5  1  0
  5  6  1  0
  6  7  1  0
  3  8  1  0
  8  9  1  0
  9  1  1  0
  7  3  1  0
  1 10  1  0
  2 11  1  0
  4 12  1  0
  4 13  1  0
  5 14  1  0
  5 15  1  0
  6 16  1  0
  6 17  1  0
  7 18  1  0
  7 19  1  0
  9 20  1  0
  9 21  1  0
M  END
