
     RDKit          3D

 17 18  0  0  0  0  0  0  0  0999 V2000
   -2.1390    0.1135    0.0838 C   0  0  0  0  0  0  0  0  0  0  0  0
   -1.5068    1.2826    0.1208 C   0  0  0  0  0  0  0  0  0  0  0  0
   -0.0560    1.5071    0.2685 C   0  0  0  0  0  0  0  0  0  0  0  0
    0.8694    0.6205    0.0282 C   0  0  0  0  0  0  0  0  0  0  0  0
    2.3419    0.3654    0.0213 C   0  0  0  0  0  0  0  0  0  0  0  0
    2.0222   -0.9687    0.3676 O   0  0  0  0  0  0  0  0  0  0  0  0
    0.8694   -0.7830   -0.4277 C   0  0  0  0  0  0  0  0  0  0  0  0
   -0.2993   -1.5513   -0.0423 C   0  0  0  0  0  0  0  0  0  0  0  0
   -1.5607   -1.2167    0.1791 C   0  0  0  0  0  0  0  0  0  0  0  0
   -3.2141    0.1559   -0.0310 H   0  0  0  0  0  0  0  0  0  0  0  0
   -2.0907    2.1868    0.0358 H   0  0  0  0  0  0  0  0  0  0  0  0
    0.2752    2.4732    0.5994 H   0  0  0  0  0  0  0  0  0  0  0  0
    2.9258    0.9098    0.7593 H   0  0  0  0  0  0  0  0  0  0  0  0
    2.7184    0.3576   -1.0234 H   0  0  0  0  0  0  0  0  0  0  0  0
    1.1850   -0.8295   -1.4921 H   0  0  0  0  0  0  0  0  0  0  0  0
   -0.1139   -2.6123    0.0943 H   0  0  0  0  0  0  0  0  0  0  0  0
   -2.2267   -2.0110    0.4583 H   0  0  0  0  0  0  0  0  0  0  0  0
  1  2  2  0
  2  3  1  0
  3  4  2  0
  4  5  1  0
  5  6  1  0
  6  7  1  0
  7  8  1  0
  8  9  2  0
  9  1  1  0
  7  4  1  0
  1 10  1  0
  2 11  1  0
  3 12  1  0
  5 13  1  0
  5 14  1  0
  7 15  1  0
  8 16  1  0
  9 17  1  0
M  END
