
     RDKit          3D

 19 20  0  0  0  0  0  0  0  0999 V2000
    1.5864    1.0973   -0.0002 C   0  0  0  0  0  0  0  0  0  0  0  0
    0.4283    0.4935   -0.2107 C   0  0  0  0  0  0  0  0  0  0  0  0
   -0.8757    0.9847   -0.6789 C   0  0  0  0  0  0  0  0  0  0  0  0
   -1.9593    0.3205    0.1559 C   0  0  0  0  0  0  0  0  0  0  0  0
   -1.6222   -1.1696    0.1536 C   0  0  0  0  0  0  0  0  0  0  0  0
   -0.4780   -1.3066    0.9383 O   0  0  0  0  0  0  0  0  0  0  0  0
    0.5982   -0.9276    0.1192 C   0  0  0  0  0  0  0  0  0  0  0  0
    1.8114   -1.0521    0.7891 O   0  0  0  0  0  0  0  0  0  0  0  0
    2.5388    0.0813    0.4715 C   0  0  0  0  0  0  0  0  0  0  0  0
    1.7924    2.1503   -0.1491 H   0  0  0  0  0  0  0  0  0  0  0  0
   -1.0217    0.6198   -1.7159 H   0  0  0  0  0  0  0  0  0  0  0  0
   -0.9684    2.0911   -0.6543 H   0  0  0  0  0  0  0  0  0  0  0  0
   -2.0280    0.7254    1.1700 H   0  0  0  0  0  0  0  0  0  0  0  0
   -2.9660    0.4192   -0.3197 H   0  0  0  0  0  0  0  0  0  0  0  0
   -1.3762   -1.4079   -0.9140 H   0  0  0  0  0  0  0  0  0  0  0  0
   -2.4724   -1.7636    0.5236 H   0  0  0  0  0  0  0  0  0  0  0  0
    0.5881   -1.5873   -0.7643 H   0  0  0  0  0  0  0  0  0  0  0  0
    3.3192   -0.1714   -0.2896 H   0  0  0  0  0  0  0  0  0  0  0  0
    3.1050    0.4030    1.3754 H   0  0  0  0  0  0  0  0  0  0  0  0
  1  2  2  0
  2  3  1  0
  3  4  1  0
  4  5  1  0
  5  6  1  0
  6  7  1  0
  7  8  1  0
  8  9  1  0
  9  1  1  0
  7  2  1  0
  1 10  1  0
  3 11  1  0
  3 12  1  0
  4 13  1  0
  4 14  1  0
  5 15  1  0
  5 16  1  0
  7 17  1  0
  9 18  1  0
  9 19  1  0
M  END
