
     RDKit          3D

 18 19  0  0  0  0  0  0  0  0999 V2000
   -2.0145   -0.0658   -0.7880 C   0  0  0  0  0  0  0  0  0  0  0  0
   -2.0140    0.6421    0.3355 C   0  0  0  0  0  0  0  0  0  0  0  0
   -0.6293    0.7194    0.8725 C   0  0  0  0  0  0  0  0  0  0  0  0
   -0.0473   -0.5711    0.3019 C   0  0  0  0  0  0  0  0  0  0  0  0
    1.4170   -0.6745    0.3617 C   0  0  0  0  0  0  0  0  0  0  0  0
    2.3652    0.2080   -0.2485 C   0  0  0  0  0  0  0  0  0  0  0  0
    1.9501    0.4531    1.1768 O   0  0  0  0  0  0  0  0  0  0  0  0
   -0.6266   -0.5224   -1.0972 C   0  0  0  0  0  0  0  0  0  0  0  0
   -2.8920   -0.2853   -1.3987 H   0  0  0  0  0  0  0  0  0  0  0  0
   -2.8795    1.0951    0.7952 H   0  0  0  0  0  0  0  0  0  0  0  0
   -0.0897    1.5512    0.3792 H   0  0  0  0  0  0  0  0  0  0  0  0
   -0.5798    0.7283    1.9610 H   0  0  0  0  0  0  0  0  0  0  0  0
   -0.5223   -1.4585    0.7882 H   0  0  0  0  0  0  0  0  0  0  0  0
    1.8161   -1.6029    0.8453 H   0  0  0  0  0  0  0  0  0  0  0  0
    2.0494    1.0987   -0.8175 H   0  0  0  0  0  0  0  0  0  0  0  0
    3.4373   -0.0407   -0.2020 H   0  0  0  0  0  0  0  0  0  0  0  0
   -0.5952   -1.5283   -1.5428 H   0  0  0  0  0  0  0  0  0  0  0  0
   -0.1449    0.2535   -1.7226 H   0  0  0  0  0  0  0  0  0  0  0  0
  1  2  2  0
  2  3  1  0
  3  4  1  0
  4  5  1  0
  5  6  1  0
  6  7  1  0
  4  8  1  0
  8  1  1  0
  7  5  1  0
  1  9  1  0
  2 10  1  0
  3 11  1  0
  3 12  1  0
  4 13  1  0
  5 14  1  0
  6 15  1  0
  6 16  1  0
  8 17  1  0
  8 18  1  0
M  END
