
     RDKit          3D

 19 21  0  0  0  0  0  0  0  0999 V2000
    1.8926   -0.4361    0.5334 C   0  0  0  0  0  0  0  0  0  0  0  0
    1.3882    0.7896    0.5349 C   0  0  0  0  0  0  0  0  0  0  0  0
    0.3413    0.8743   -0.4426 C   0  0  0  0  0  0  0  0  0  0  0  0
   -0.9974    1.4380   -0.0476 C   0  0  0  0  0  0  0  0  0  0  0  0
   -1.8036    0.1604   -0.3319 C   0  0  0  0  0  0  0  0  0  0  0  0
   -1.0882   -0.7798    0.6084 C   0  0  0  0  0  0  0  0  0  0  0  0
   -0.0988   -0.5892   -0.5060 C   0  0  0  0  0  0  0  0  0  0  0  0
    1.1568   -1.2684   -0.5054 C   0  0  0  0  0  0  0  0  0  0  0  0
   -1.1016   -0.5195   -1.3608 O   0  0  0  0  0  0  0  0  0  0  0  0
    2.6898   -0.8705    1.1254 H   0  0  0  0  0  0  0  0  0  0  0  0
    1.7518    1.5694    1.1971 H   0  0  0  0  0  0  0  0  0  0  0  0
    0.6484    1.2350   -1.4478 H   0  0  0  0  0  0  0  0  0  0  0  0
   -1.0327    1.7007    1.0289 H   0  0  0  0  0  0  0  0  0  0  0  0
   -1.3428    2.2566   -0.7103 H   0  0  0  0  0  0  0  0  0  0  0  0
   -2.8508    0.2077   -0.3659 H   0  0  0  0  0  0  0  0  0  0  0  0
   -0.8285   -0.3524    1.5835 H   0  0  0  0  0  0  0  0  0  0  0  0
   -1.4808   -1.7910    0.6100 H   0  0  0  0  0  0  0  0  0  0  0  0
    1.0658   -2.2802   -0.0626 H   0  0  0  0  0  0  0  0  0  0  0  0
    1.6903   -1.3444   -1.4408 H   0  0  0  0  0  0  0  0  0  0  0  0
  1  2  2  0
  2  3  1  0
  3  4  1  0
  4  5  1  0
  5  6  1  0
  6  7  1  0
  7  8  1  0
  7  9  1  0
  8  1  1  0
  7  3  1  0
  9  5  1  0
  1 10  1  0
  2 11  1  0
  3 12  1  0
  4 13  1  0
  4 14  1  0
  5 15  1  0
  6 16  1  0
  6 17  1  0
  8 18  1  0
  8 19  1  0
M  END
