
     RDKit          3D

 16 18  0  0  0  0  0  0  0  0999 V2000
   -0.6937    1.3353   -0.0719 C   0  0  0  0  0  0  0  0  0  0  0  0
    0.4975    0.8535   -0.0172 C   0  0  0  0  0  0  0  0  0  0  0  0
    1.8933    0.3984    0.0335 C   0  0  0  0  0  0  0  0  0  0  0  0
    1.7609   -0.9832   -0.3961 O   0  0  0  0  0  0  0  0  0  0  0  0
    0.4102   -1.1893   -0.6690 C   0  0  0  0  0  0  0  0  0  0  0  0
   -0.8912   -1.0297   -0.0909 C   0  0  0  0  0  0  0  0  0  0  0  0
   -1.7618    0.2531    0.0365 C   0  0  0  0  0  0  0  0  0  0  0  0
    0.1027   -0.5406    0.6902 C   0  0  0  0  0  0  0  0  0  0  0  0
   -0.8503    2.4173   -0.1867 H   0  0  0  0  0  0  0  0  0  0  0  0
    2.2495    0.4066    1.0581 H   0  0  0  0  0  0  0  0  0  0  0  0
    2.5683    0.9211   -0.6605 H   0  0  0  0  0  0  0  0  0  0  0  0
    0.3306   -0.7028   -1.6601 H   0  0  0  0  0  0  0  0  0  0  0  0
   -1.5038   -1.9181    0.1513 H   0  0  0  0  0  0  0  0  0  0  0  0
   -2.4498    0.3052   -0.8212 H   0  0  0  0  0  0  0  0  0  0  0  0
   -2.2295    0.2496    1.0170 H   0  0  0  0  0  0  0  0  0  0  0  0
    0.5671   -0.7763    1.5870 H   0  0  0  0  0  0  0  0  0  0  0  0
  1  2  2  0
  2  3  1  0
  3  4  1  0
  4  5  1  0
  5  6  1  0
  6  7  1  0
  6  8  1  0
  7  1  1  0
  8  2  1  0
  8  5  1  0
  1  9  1  0
  3 10  1  0
  3 11  1  0
  5 12  1  0
  6 13  1  0
  7 14  1  0
  7 15  1  0
  8 16  1  0
M  END
