
     RDKit          3D

 18 19  0  0  0  0  0  0  0  0999 V2000
    1.2469   -0.7381    0.9862 C   0  0  0  0  0  0  0  0  0  0  0  0
   -0.0439   -1.0004    1.0263 C   0  0  0  0  0  0  0  0  0  0  0  0
   -1.1312   -0.8617    0.0641 C   0  0  0  0  0  0  0  0  0  0  0  0
   -2.0587    0.2941    0.3462 C   0  0  0  0  0  0  0  0  0  0  0  0
   -1.1327    0.2380   -0.8805 C   0  0  0  0  0  0  0  0  0  0  0  0
    0.0158    1.1398   -0.9276 C   0  0  0  0  0  0  0  0  0  0  0  0
    1.2994    1.0180   -0.6478 C   0  0  0  0  0  0  0  0  0  0  0  0
    2.0041   -0.1775   -0.1614 C   0  0  0  0  0  0  0  0  0  0  0  0
    1.7673   -0.9696    1.9017 H   0  0  0  0  0  0  0  0  0  0  0  0
   -0.4034   -1.4171    1.9894 H   0  0  0  0  0  0  0  0  0  0  0  0
   -1.5751   -1.8273   -0.2796 H   0  0  0  0  0  0  0  0  0  0  0  0
   -1.7765    1.0363    1.0945 H   0  0  0  0  0  0  0  0  0  0  0  0
   -3.1262    0.0568    0.2009 H   0  0  0  0  0  0  0  0  0  0  0  0
   -1.7084    0.0727   -1.8416 H   0  0  0  0  0  0  0  0  0  0  0  0
   -0.2716    2.1565   -1.2813 H   0  0  0  0  0  0  0  0  0  0  0  0
    1.8880    1.8975   -0.7955 H   0  0  0  0  0  0  0  0  0  0  0  0
    3.0319    0.0286    0.1835 H   0  0  0  0  0  0  0  0  0  0  0  0
    1.9743   -0.9467   -0.9774 H   0  0  0  0  0  0  0  0  0  0  0  0
  1  2  2  0
  2  3  1  0
  3  4  1  0
  4  5  1  0
  5  6  1  0
  6  7  2  0
  7  8  1  0
  8  1  1  0
  5  3  1  0
  1  9  1  0
  2 10  1  0
  3 11  1  0
  4 12  1  0
  4 13  1  0
  5 14  1  0
  6 15  1  0
  7 16  1  0
  8 17  1  0
  8 18  1  0
M  END
