
     RDKit          3D

 19 21  0  0  0  0  0  0  0  0999 V2000
    2.0329   -1.0503    0.0196 C   0  0  0  0  0  0  0  0  0  0  0  0
    0.7626   -1.3620    0.2276 C   0  0  0  0  0  0  0  0  0  0  0  0
   -0.1054   -0.2013   -0.0068 C   0  0  0  0  0  0  0  0  0  0  0  0
   -1.0320    0.1851    1.1142 C   0  0  0  0  0  0  0  0  0  0  0  0
   -1.9658    0.6887    0.0030 C   0  0  0  0  0  0  0  0  0  0  0  0
   -1.3045   -0.3929   -0.8663 C   0  0  0  0  0  0  0  0  0  0  0  0
    0.8516    0.8790   -0.4247 C   0  0  0  0  0  0  0  0  0  0  0  0
    1.6852    1.2783    0.7402 O   0  0  0  0  0  0  0  0  0  0  0  0
    2.1244    0.3779   -0.3807 C   0  0  0  0  0  0  0  0  0  0  0  0
    2.8847   -1.7007    0.1157 H   0  0  0  0  0  0  0  0  0  0  0  0
    0.4286   -2.3480    0.5302 H   0  0  0  0  0  0  0  0  0  0  0  0
   -1.5037   -0.6731    1.6219 H   0  0  0  0  0  0  0  0  0  0  0  0
   -0.6764    0.9976    1.7733 H   0  0  0  0  0  0  0  0  0  0  0  0
   -3.0221    0.5504    0.1888 H   0  0  0  0  0  0  0  0  0  0  0  0
   -1.6363    1.7107   -0.2899 H   0  0  0  0  0  0  0  0  0  0  0  0
   -1.8163   -1.3508   -0.6582 H   0  0  0  0  0  0  0  0  0  0  0  0
   -1.2103   -0.1187   -1.9232 H   0  0  0  0  0  0  0  0  0  0  0  0
    0.4704    1.7556   -0.9609 H   0  0  0  0  0  0  0  0  0  0  0  0
    3.0325    0.7744   -0.8238 H   0  0  0  0  0  0  0  0  0  0  0  0
  1  2  2  0
  2  3  1  0
  3  4  1  0
  4  5  1  0
  5  6  1  0
  3  7  1  0
  7  8  1  0
  8  9  1  0
  9  1  1  0
  6  3  1  0
  9  7  1  0
  1 10  1  0
  2 11  1  0
  4 12  1  0
  4 13  1  0
  5 14  1  0
  5 15  1  0
  6 16  1  0
  6 17  1  0
  7 18  1  0
  9 19  1  0
M  END
