
     RDKit          3D

 19 21  0  0  0  0  0  0  0  0999 V2000
    0.7890    1.4893    0.2410 C   0  0  0  0  0  0  0  0  0  0  0  0
   -0.4489    1.1614    0.0023 C   0  0  0  0  0  0  0  0  0  0  0  0
   -1.8729    1.0654   -0.1747 C   0  0  0  0  0  0  0  0  0  0  0  0
   -1.5404   -0.3742    0.4419 C   0  0  0  0  0  0  0  0  0  0  0  0
   -0.5732   -1.3096   -0.0823 C   0  0  0  0  0  0  0  0  0  0  0  0
    0.8613   -1.5504    0.3403 C   0  0  0  0  0  0  0  0  0  0  0  0
    1.5690   -0.5451    0.8550 O   0  0  0  0  0  0  0  0  0  0  0  0
    1.9857    0.5219    0.0468 C   0  0  0  0  0  0  0  0  0  0  0  0
   -0.6517   -0.1452   -0.8125 C   0  0  0  0  0  0  0  0  0  0  0  0
    0.9673    2.4661    0.5836 H   0  0  0  0  0  0  0  0  0  0  0  0
   -2.2846    0.9904   -1.1748 H   0  0  0  0  0  0  0  0  0  0  0  0
   -2.5339    1.6181    0.5097 H   0  0  0  0  0  0  0  0  0  0  0  0
   -1.1512   -0.0408    1.4561 H   0  0  0  0  0  0  0  0  0  0  0  0
   -1.0303   -2.2417   -0.5439 H   0  0  0  0  0  0  0  0  0  0  0  0
    1.3953   -2.1188   -0.4838 H   0  0  0  0  0  0  0  0  0  0  0  0
    0.7815   -2.3389    1.1668 H   0  0  0  0  0  0  0  0  0  0  0  0
    2.8667    1.0327    0.4022 H   0  0  0  0  0  0  0  0  0  0  0  0
    1.9744    0.2857   -1.0237 H   0  0  0  0  0  0  0  0  0  0  0  0
   -1.1034    0.0338   -1.7500 H   0  0  0  0  0  0  0  0  0  0  0  0
  1  2  2  0
  2  3  1  0
  3  4  1  0
  4  5  1  0
  5  6  1  0
  6  7  1  0
  7  8  1  0
  5  9  1  0
  8  1  1  0
  9  2  1  0
  9  4  1  0
  1 10  1  0
  3 11  1  0
  3 12  1  0
  4 13  1  0
  5 14  1  0
  6 15  1  0
  6 16  1  0
  8 17  1  0
  8 18  1  0
  9 19  1  0
M  END
