
     RDKit          3D

 19 20  0  0  0  0  0  0  0  0999 V2000
   -1.1017    1.3286   -0.2828 C   0  0  0  0  0  0  0  0  0  0  0  0
    0.0937    0.7344   -0.1516 C   0  0  0  0  0  0  0  0  0  0  0  0
    1.4966    1.1930   -0.2811 C   0  0  0  0  0  0  0  0  0  0  0  0
    2.3438    0.2175   -0.7032 O   0  0  0  0  0  0  0  0  0  0  0  0
    2.0588   -1.0526   -0.2360 C   0  0  0  0  0  0  0  0  0  0  0  0
    0.7707   -1.4512   -0.4903 O   0  0  0  0  0  0  0  0  0  0  0  0
   -0.1268   -0.6816    0.1992 C   0  0  0  0  0  0  0  0  0  0  0  0
   -1.5607   -0.9663   -0.1849 C   0  0  0  0  0  0  0  0  0  0  0  0
   -2.2075    0.3781   -0.0343 C   0  0  0  0  0  0  0  0  0  0  0  0
   -1.1678    2.3878   -0.5430 H   0  0  0  0  0  0  0  0  0  0  0  0
    1.5787    2.0395   -1.0264 H   0  0  0  0  0  0  0  0  0  0  0  0
    1.8753    1.6090    0.6753 H   0  0  0  0  0  0  0  0  0  0  0  0
    2.2947   -1.1964    0.8275 H   0  0  0  0  0  0  0  0  0  0  0  0
    2.7410   -1.7538   -0.7945 H   0  0  0  0  0  0  0  0  0  0  0  0
    0.0116   -0.7472    1.3172 H   0  0  0  0  0  0  0  0  0  0  0  0
   -1.5481   -1.3272   -1.2327 H   0  0  0  0  0  0  0  0  0  0  0  0
   -1.9731   -1.7250    0.4999 H   0  0  0  0  0  0  0  0  0  0  0  0
   -2.5192    0.4795    1.0213 H   0  0  0  0  0  0  0  0  0  0  0  0
   -3.0600    0.5341   -0.7207 H   0  0  0  0  0  0  0  0  0  0  0  0
  1  2  2  0
  2  3  1  0
  3  4  1  0
  4  5  1  0
  5  6  1  0
  6  7  1  0
  7  8  1  0
  8  9  1  0
  9  1  1  0
  7  2  1  0
  1 10  1  0
  3 11  1  0
  3 12  1  0
  5 13  1  0
  5 14  1  0
  7 15  1  0
  8 16  1  0
  8 17  1  0
  9 18  1  0
  9 19  1  0
M  END
