
     RDKit          3D

 19 21  0  0  0  0  0  0  0  0999 V2000
   -1.5400    0.9183    0.2221 C   0  0  0  0  0  0  0  0  0  0  0  0
   -0.6541    1.4369   -0.5748 C   0  0  0  0  0  0  0  0  0  0  0  0
    0.4870    0.6803   -1.1301 C   0  0  0  0  0  0  0  0  0  0  0  0
    1.6262    1.1035   -0.4150 O   0  0  0  0  0  0  0  0  0  0  0  0
    1.5372    0.3695    0.7693 C   0  0  0  0  0  0  0  0  0  0  0  0
    1.0531   -0.9959    0.3984 C   0  0  0  0  0  0  0  0  0  0  0  0
   -0.3660   -1.2998    0.1432 C   0  0  0  0  0  0  0  0  0  0  0  0
   -1.4883   -0.4856    0.6499 C   0  0  0  0  0  0  0  0  0  0  0  0
    0.4024   -0.7851   -0.9812 C   0  0  0  0  0  0  0  0  0  0  0  0
   -2.3609    1.5177    0.6033 H   0  0  0  0  0  0  0  0  0  0  0  0
   -0.7425    2.4809   -0.8575 H   0  0  0  0  0  0  0  0  0  0  0  0
    0.5929    1.0088   -2.2051 H   0  0  0  0  0  0  0  0  0  0  0  0
    0.8956    0.8814    1.5243 H   0  0  0  0  0  0  0  0  0  0  0  0
    2.5507    0.3311    1.2040 H   0  0  0  0  0  0  0  0  0  0  0  0
    1.7892   -1.7982    0.4933 H   0  0  0  0  0  0  0  0  0  0  0  0
   -0.5871   -2.4067    0.1003 H   0  0  0  0  0  0  0  0  0  0  0  0
   -2.4481   -0.9646    0.2862 H   0  0  0  0  0  0  0  0  0  0  0  0
   -1.5345   -0.5688    1.7712 H   0  0  0  0  0  0  0  0  0  0  0  0
    0.7872   -1.4236   -1.8094 H   0  0  0  0  0  0  0  0  0  0  0  0
  1  2  2  0
  2  3  1  0
  3  4  1  0
  4  5  1  0
  5  6  1  0
  6  7  1  0
  7  8  1  0
  7  9  1  0
  8  1  1  0
  9  3  1  0
  9  6  1  0
  1 10  1  0
  2 11  1  0
  3 12  1  0
  5 13  1  0
  5 14  1  0
  6 15  1  0
  7 16  1  0
  8 17  1  0
  8 18  1  0
  9 19  1  0
M  END
