
     RDKit          3D

 21 23  0  0  0  0  0  0  0  0999 V2000
    1.8999    0.6648   -0.2608 C   0  0  0  0  0  0  0  0  0  0  0  0
    0.9739    1.5953   -0.0536 C   0  0  0  0  0  0  0  0  0  0  0  0
   -0.3248    1.1253    0.5026 C   0  0  0  0  0  0  0  0  0  0  0  0
    0.0112   -0.0972    1.3675 C   0  0  0  0  0  0  0  0  0  0  0  0
    0.2466   -1.1266    0.2858 C   0  0  0  0  0  0  0  0  0  0  0  0
    1.5150   -0.7515   -0.4524 C   0  0  0  0  0  0  0  0  0  0  0  0
   -0.9028   -0.9340   -0.6438 C   0  0  0  0  0  0  0  0  0  0  0  0
   -2.2020   -0.3986   -0.2249 C   0  0  0  0  0  0  0  0  0  0  0  0
   -1.1303    0.5394   -0.6362 C   0  0  0  0  0  0  0  0  0  0  0  0
    2.9457    0.9489   -0.2894 H   0  0  0  0  0  0  0  0  0  0  0  0
    1.1513    2.6532   -0.2782 H   0  0  0  0  0  0  0  0  0  0  0  0
   -0.8550    1.8957    1.0644 H   0  0  0  0  0  0  0  0  0  0  0  0
   -0.7920   -0.3540    2.0558 H   0  0  0  0  0  0  0  0  0  0  0  0
    0.9730    0.0721    1.9047 H   0  0  0  0  0  0  0  0  0  0  0  0
    0.3060   -2.1289    0.7454 H   0  0  0  0  0  0  0  0  0  0  0  0
    1.3690   -0.8853   -1.5643 H   0  0  0  0  0  0  0  0  0  0  0  0
    2.3427   -1.4381   -0.1908 H   0  0  0  0  0  0  0  0  0  0  0  0
   -0.8352   -1.4977   -1.6023 H   0  0  0  0  0  0  0  0  0  0  0  0
   -2.5343   -0.3716    0.8296 H   0  0  0  0  0  0  0  0  0  0  0  0
   -3.0415   -0.5291   -0.9345 H   0  0  0  0  0  0  0  0  0  0  0  0
   -1.1163    1.0178   -1.6247 H   0  0  0  0  0  0  0  0  0  0  0  0
  1  2  2  0
  2  3  1  0
  3  4  1  0
  4  5  1  0
  5  6  1  0
  5  7  1  0
  7  8  1  0
  8  9  1  0
  6  1  1  0
  9  7  1  0
  9  3  1  0
  1 10  1  0
  2 11  1  0
  3 12  1  0
  4 13  1  0
  4 14  1  0
  5 15  1  0
  6 16  1  0
  6 17  1  0
  7 18  1  0
  8 19  1  0
  8 20  1  0
  9 21  1  0
M  END
