
     RDKit          3D

 17 19  0  0  0  0  0  0  0  0999 V2000
    1.9054    0.1814   -0.1121 C   0  0  0  0  0  0  0  0  0  0  0  0
    1.1701    1.2580    0.1347 C   0  0  0  0  0  0  0  0  0  0  0  0
   -0.3037    0.9887    0.2122 C   0  0  0  0  0  0  0  0  0  0  0  0
   -0.7668    0.1304   -0.9742 C   0  0  0  0  0  0  0  0  0  0  0  0
   -1.6981   -0.5517    0.0398 C   0  0  0  0  0  0  0  0  0  0  0  0
   -0.5802   -0.2647    1.0543 C   0  0  0  0  0  0  0  0  0  0  0  0
    0.3747   -1.2251    0.8740 O   0  0  0  0  0  0  0  0  0  0  0  0
    1.1047   -1.0592   -0.3226 C   0  0  0  0  0  0  0  0  0  0  0  0
    0.1684   -0.8055   -1.3288 O   0  0  0  0  0  0  0  0  0  0  0  0
    2.9797    0.1416   -0.1681 H   0  0  0  0  0  0  0  0  0  0  0  0
    1.5263    2.2595    0.2769 H   0  0  0  0  0  0  0  0  0  0  0  0
   -0.9449    1.8309    0.4286 H   0  0  0  0  0  0  0  0  0  0  0  0
   -1.2621    0.6800   -1.7660 H   0  0  0  0  0  0  0  0  0  0  0  0
   -2.5888    0.0478    0.2852 H   0  0  0  0  0  0  0  0  0  0  0  0
   -1.8781   -1.6117   -0.1528 H   0  0  0  0  0  0  0  0  0  0  0  0
   -0.9033   -0.0607    2.0648 H   0  0  0  0  0  0  0  0  0  0  0  0
    1.6970   -1.9399   -0.5458 H   0  0  0  0  0  0  0  0  0  0  0  0
  1  2  2  0
  2  3  1  0
  3  4  1  0
  4  5  1  0
  5  6  1  0
  6  7  1  0
  7  8  1  0
  8  9  1  0
  8  1  1  0
  6  3  1  0
  9  4  1  0
  1 10  1  0
  2 11  1  0
  3 12  1  0
  4 13  1  0
  5 14  1  0
  5 15  1  0
  6 16  1  0
  8 17  1  0
M  END
