
     RDKit          3D

 19 21  0  0  0  0  0  0  0  0999 V2000
    1.9484   -0.2796   -0.0659 C   0  0  0  0  0  0  0  0  0  0  0  0
    1.5260    0.9676   -0.1127 C   0  0  0  0  0  0  0  0  0  0  0  0
    0.0964    1.2751   -0.3134 C   0  0  0  0  0  0  0  0  0  0  0  0
   -0.7915    1.3713    0.9483 C   0  0  0  0  0  0  0  0  0  0  0  0
   -0.8048    0.2239    0.0891 C   0  0  0  0  0  0  0  0  0  0  0  0
   -1.9191   -0.3452   -0.6665 C   0  0  0  0  0  0  0  0  0  0  0  0
   -1.3871   -1.6267   -0.4034 O   0  0  0  0  0  0  0  0  0  0  0  0
   -0.2991   -1.1191    0.3489 C   0  0  0  0  0  0  0  0  0  0  0  0
    1.0426   -1.4531   -0.2079 C   0  0  0  0  0  0  0  0  0  0  0  0
    3.0153   -0.4374    0.0847 H   0  0  0  0  0  0  0  0  0  0  0  0
    2.2266    1.7735   -0.0039 H   0  0  0  0  0  0  0  0  0  0  0  0
   -0.1504    2.0446   -1.0830 H   0  0  0  0  0  0  0  0  0  0  0  0
   -0.1948    1.3561    1.9009 H   0  0  0  0  0  0  0  0  0  0  0  0
   -1.6356    2.0824    0.9109 H   0  0  0  0  0  0  0  0  0  0  0  0
   -1.8406   -0.1460   -1.7674 H   0  0  0  0  0  0  0  0  0  0  0  0
   -2.9521   -0.2032   -0.2901 H   0  0  0  0  0  0  0  0  0  0  0  0
   -0.3874   -1.3926    1.4413 H   0  0  0  0  0  0  0  0  0  0  0  0
    1.0142   -1.8269   -1.2462 H   0  0  0  0  0  0  0  0  0  0  0  0
    1.4929   -2.2645    0.4362 H   0  0  0  0  0  0  0  0  0  0  0  0
  1  2  2  0
  2  3  1  0
  3  4  1  0
  4  5  1  0
  5  6  1  0
  6  7  1  0
  7  8  1  0
  8  9  1  0
  9  1  1  0
  5  3  1  0
  8  5  1  0
  1 10  1  0
  2 11  1  0
  3 12  1  0
  4 13  1  0
  4 14  1  0
  6 15  1  0
  6 16  1  0
  8 17  1  0
  9 18  1  0
  9 19  1  0
M  END
