
     RDKit          3D

 21 22  0  0  0  0  0  0  0  0999 V2000
    2.4522   -0.0120    0.1936 C   0  0  0  0  0  0  0  0  0  0  0  0
    1.9161    1.0258   -0.4163 C   0  0  0  0  0  0  0  0  0  0  0  0
    0.4625    0.8478   -0.6371 C   0  0  0  0  0  0  0  0  0  0  0  0
   -0.1893    1.5175    0.3638 O   0  0  0  0  0  0  0  0  0  0  0  0
   -1.5181    1.2536    0.5191 C   0  0  0  0  0  0  0  0  0  0  0  0
   -1.9415   -0.1636    0.4411 C   0  0  0  0  0  0  0  0  0  0  0  0
   -1.0589   -1.0943   -0.2953 C   0  0  0  0  0  0  0  0  0  0  0  0
    0.3081   -0.6274   -0.5883 C   0  0  0  0  0  0  0  0  0  0  0  0
    1.3503   -1.0087    0.4377 C   0  0  0  0  0  0  0  0  0  0  0  0
    3.5088   -0.1539    0.4848 H   0  0  0  0  0  0  0  0  0  0  0  0
    2.4779    1.9074   -0.7204 H   0  0  0  0  0  0  0  0  0  0  0  0
    0.2124    1.2142   -1.6568 H   0  0  0  0  0  0  0  0  0  0  0  0
   -2.0796    1.8870   -0.2204 H   0  0  0  0  0  0  0  0  0  0  0  0
   -1.8082    1.6596    1.5145 H   0  0  0  0  0  0  0  0  0  0  0  0
   -2.0752   -0.5787    1.4853 H   0  0  0  0  0  0  0  0  0  0  0  0
   -2.9658   -0.2025    0.0104 H   0  0  0  0  0  0  0  0  0  0  0  0
   -0.9721   -2.0921    0.2318 H   0  0  0  0  0  0  0  0  0  0  0  0
   -1.5380   -1.3718   -1.2829 H   0  0  0  0  0  0  0  0  0  0  0  0
    0.6854   -1.0389   -1.5697 H   0  0  0  0  0  0  0  0  0  0  0  0
    1.7943   -2.0046    0.2339 H   0  0  0  0  0  0  0  0  0  0  0  0
    0.9788   -0.9645    1.4711 H   0  0  0  0  0  0  0  0  0  0  0  0
  1  2  2  0
  2  3  1  0
  3  4  1  0
  4  5  1  0
  5  6  1  0
  6  7  1  0
  7  8  1  0
  8  9  1  0
  9  1  1  0
  8  3  1  0
  1 10  1  0
  2 11  1  0
  3 12  1  0
  5 13  1  0
  5 14  1  0
  6 15  1  0
  6 16  1  0
  7 17  1  0
  7 18  1  0
  8 19  1  0
  9 20  1  0
  9 21  1  0
M  END
