
     RDKit          3D

 19 20  0  0  0  0  0  0  0  0999 V2000
    0.1601    1.4994   -0.1162 C   0  0  0  0  0  0  0  0  0  0  0  0
    1.0052    0.5001   -0.1187 C   0  0  0  0  0  0  0  0  0  0  0  0
    2.3348   -0.0924   -0.4323 C   0  0  0  0  0  0  0  0  0  0  0  0
    1.6479   -1.3281   -0.5468 O   0  0  0  0  0  0  0  0  0  0  0  0
    0.7729   -0.8661    0.3973 C   0  0  0  0  0  0  0  0  0  0  0  0
   -0.6386   -1.2950    0.3762 C   0  0  0  0  0  0  0  0  0  0  0  0
   -1.5504   -0.6034   -0.5564 C   0  0  0  0  0  0  0  0  0  0  0  0
   -2.0032    0.6287   -0.2853 O   0  0  0  0  0  0  0  0  0  0  0  0
   -1.2319    1.5044    0.4066 C   0  0  0  0  0  0  0  0  0  0  0  0
    0.5807    2.4016   -0.5597 H   0  0  0  0  0  0  0  0  0  0  0  0
    3.0442   -0.0507    0.4051 H   0  0  0  0  0  0  0  0  0  0  0  0
    2.7874    0.2556   -1.3799 H   0  0  0  0  0  0  0  0  0  0  0  0
    1.2052   -0.9788    1.4117 H   0  0  0  0  0  0  0  0  0  0  0  0
   -0.6671   -2.3845    0.1291 H   0  0  0  0  0  0  0  0  0  0  0  0
   -1.0592   -1.2145    1.3994 H   0  0  0  0  0  0  0  0  0  0  0  0
   -2.4454   -1.2848   -0.6867 H   0  0  0  0  0  0  0  0  0  0  0  0
   -1.0660   -0.5972   -1.5744 H   0  0  0  0  0  0  0  0  0  0  0  0
   -1.2508    1.3602    1.5169 H   0  0  0  0  0  0  0  0  0  0  0  0
   -1.6258    2.5453    0.2141 H   0  0  0  0  0  0  0  0  0  0  0  0
  1  2  2  0
  2  3  1  0
  3  4  1  0
  4  5  1  0
  5  6  1  0
  6  7  1  0
  7  8  1  0
  8  9  1  0
  9  1  1  0
  5  2  1  0
  1 10  1  0
  3 11  1  0
  3 12  1  0
  5 13  1  0
  6 14  1  0
  6 15  1  0
  7 16  1  0
  7 17  1  0
  9 18  1  0
  9 19  1  0
M  END
