
     RDKit          3D

 17 18  0  0  0  0  0  0  0  0999 V2000
    1.4771   -0.6290   -0.0838 C   0  0  0  0  0  0  0  0  0  0  0  0
    1.3533    0.6832   -0.2695 C   0  0  0  0  0  0  0  0  0  0  0  0
    0.0076    1.2530   -0.0603 C   0  0  0  0  0  0  0  0  0  0  0  0
   -0.5644    0.5101    1.1576 C   0  0  0  0  0  0  0  0  0  0  0  0
   -0.9550   -0.5830    0.1592 C   0  0  0  0  0  0  0  0  0  0  0  0
    0.2310   -1.4454   -0.0883 C   0  0  0  0  0  0  0  0  0  0  0  0
   -0.9814    0.5034   -0.9001 C   0  0  0  0  0  0  0  0  0  0  0  0
    2.4357   -1.0886    0.0641 H   0  0  0  0  0  0  0  0  0  0  0  0
    2.2084    1.2915   -0.5602 H   0  0  0  0  0  0  0  0  0  0  0  0
   -0.0920    2.3212    0.0294 H   0  0  0  0  0  0  0  0  0  0  0  0
   -1.3943    1.0441    1.6134 H   0  0  0  0  0  0  0  0  0  0  0  0
    0.2300    0.1591    1.8505 H   0  0  0  0  0  0  0  0  0  0  0  0
   -1.8984   -1.0541    0.4005 H   0  0  0  0  0  0  0  0  0  0  0  0
    0.3182   -2.2379    0.6771 H   0  0  0  0  0  0  0  0  0  0  0  0
    0.1404   -1.8643   -1.1182 H   0  0  0  0  0  0  0  0  0  0  0  0
   -1.9305    1.0391   -1.0134 H   0  0  0  0  0  0  0  0  0  0  0  0
   -0.5860    0.0976   -1.8580 H   0  0  0  0  0  0  0  0  0  0  0  0
  1  2  2  0
  2  3  1  0
  3  4  1  0
  4  5  1  0
  5  6  1  0
  5  7  1  0
  6  1  1  0
  7  3  1  0
  1  8  1  0
  2  9  1  0
  3 10  1  0
  4 11  1  0
  4 12  1  0
  5 13  1  0
  6 14  1  0
  6 15  1  0
  7 16  1  0
  7 17  1  0
M  END
