
     RDKit          3D

 19 21  0  0  0  0  0  0  0  0999 V2000
    0.7179    1.7047    0.3259 C   0  0  0  0  0  0  0  0  0  0  0  0
    1.6742    1.1620   -0.4100 C   0  0  0  0  0  0  0  0  0  0  0  0
    1.4943   -0.2989   -0.4792 C   0  0  0  0  0  0  0  0  0  0  0  0
    0.5417   -0.7531   -1.3730 O   0  0  0  0  0  0  0  0  0  0  0  0
   -0.1023   -1.4499   -0.3376 C   0  0  0  0  0  0  0  0  0  0  0  0
   -1.5468   -1.0053   -0.2623 C   0  0  0  0  0  0  0  0  0  0  0  0
   -1.4368    0.4924   -0.0146 C   0  0  0  0  0  0  0  0  0  0  0  0
   -0.2208    0.6614    0.8393 C   0  0  0  0  0  0  0  0  0  0  0  0
    0.5803   -0.5889    0.6585 C   0  0  0  0  0  0  0  0  0  0  0  0
    0.6424    2.7872    0.5218 H   0  0  0  0  0  0  0  0  0  0  0  0
    2.4964    1.6803   -0.9118 H   0  0  0  0  0  0  0  0  0  0  0  0
    2.4359   -0.8903   -0.5156 H   0  0  0  0  0  0  0  0  0  0  0  0
    0.0642   -2.5216   -0.3022 H   0  0  0  0  0  0  0  0  0  0  0  0
   -1.9820   -1.2003   -1.2788 H   0  0  0  0  0  0  0  0  0  0  0  0
   -2.1155   -1.5032    0.5290 H   0  0  0  0  0  0  0  0  0  0  0  0
   -2.3560    0.8540    0.5344 H   0  0  0  0  0  0  0  0  0  0  0  0
   -1.3722    1.0684   -0.9495 H   0  0  0  0  0  0  0  0  0  0  0  0
   -0.5310    0.8481    1.8807 H   0  0  0  0  0  0  0  0  0  0  0  0
    1.0161   -1.0470    1.5450 H   0  0  0  0  0  0  0  0  0  0  0  0
  1  2  2  0
  2  3  1  0
  3  4  1  0
  4  5  1  0
  5  6  1  0
  6  7  1  0
  7  8  1  0
  8  9  1  0
  8  1  1  0
  9  3  1  0
  9  5  1  0
  1 10  1  0
  2 11  1  0
  3 12  1  0
  5 13  1  0
  6 14  1  0
  6 15  1  0
  7 16  1  0
  7 17  1  0
  8 18  1  0
  9 19  1  0
M  END
