
     RDKit          3D

 19 21  0  0  0  0  0  0  0  0999 V2000
   -0.4445    1.4438    0.5460 C   0  0  0  0  0  0  0  0  0  0  0  0
    0.6777    0.7371    0.3939 C   0  0  0  0  0  0  0  0  0  0  0  0
    2.1621    0.5280    0.5858 C   0  0  0  0  0  0  0  0  0  0  0  0
    1.9671   -0.7981   -0.1565 C   0  0  0  0  0  0  0  0  0  0  0  0
    1.1552   -1.6716    0.5638 O   0  0  0  0  0  0  0  0  0  0  0  0
    0.6839   -0.5551   -0.3065 C   0  0  0  0  0  0  0  0  0  0  0  0
   -0.5529   -0.9568   -0.9477 C   0  0  0  0  0  0  0  0  0  0  0  0
   -1.6796   -0.5928    0.0148 C   0  0  0  0  0  0  0  0  0  0  0  0
   -1.7379    0.9392    0.0069 C   0  0  0  0  0  0  0  0  0  0  0  0
   -0.3481    2.3853    1.0756 H   0  0  0  0  0  0  0  0  0  0  0  0
    2.7261    1.2840    0.0163 H   0  0  0  0  0  0  0  0  0  0  0  0
    2.4166    0.4192    1.6509 H   0  0  0  0  0  0  0  0  0  0  0  0
    2.8266   -1.2157   -0.6857 H   0  0  0  0  0  0  0  0  0  0  0  0
   -0.5966   -2.0219   -1.1820 H   0  0  0  0  0  0  0  0  0  0  0  0
   -0.7933   -0.3834   -1.8903 H   0  0  0  0  0  0  0  0  0  0  0  0
   -2.6421   -1.0273   -0.2967 H   0  0  0  0  0  0  0  0  0  0  0  0
   -1.3800   -0.9734    1.0139 H   0  0  0  0  0  0  0  0  0  0  0  0
   -2.6006    1.2164    0.6427 H   0  0  0  0  0  0  0  0  0  0  0  0
   -1.8397    1.2433   -1.0451 H   0  0  0  0  0  0  0  0  0  0  0  0
  1  2  2  0
  2  3  1  0
  3  4  1  0
  4  5  1  0
  5  6  1  0
  6  7  1  0
  7  8  1  0
  8  9  1  0
  9  1  1  0
  6  2  1  0
  6  4  1  0
  1 10  1  0
  3 11  1  0
  3 12  1  0
  4 13  1  0
  7 14  1  0
  7 15  1  0
  8 16  1  0
  8 17  1  0
  9 18  1  0
  9 19  1  0
M  END
