
     RDKit          3D

 21 23  0  0  0  0  0  0  0  0999 V2000
    1.5950    1.0929    0.1135 C   0  0  0  0  0  0  0  0  0  0  0  0
    2.0098   -0.1516    0.2215 C   0  0  0  0  0  0  0  0  0  0  0  0
    1.0604   -1.1083   -0.3688 C   0  0  0  0  0  0  0  0  0  0  0  0
    0.0046   -1.5368    0.6003 C   0  0  0  0  0  0  0  0  0  0  0  0
   -1.0232   -0.8873   -0.3333 C   0  0  0  0  0  0  0  0  0  0  0  0
   -1.7436    0.2114    0.3770 C   0  0  0  0  0  0  0  0  0  0  0  0
   -0.8522    1.4174    0.3866 C   0  0  0  0  0  0  0  0  0  0  0  0
    0.2845    1.1398   -0.5779 C   0  0  0  0  0  0  0  0  0  0  0  0
    0.0909   -0.2342   -1.1203 C   0  0  0  0  0  0  0  0  0  0  0  0
    2.1417    1.9538    0.4814 H   0  0  0  0  0  0  0  0  0  0  0  0
    2.9545   -0.4475    0.6963 H   0  0  0  0  0  0  0  0  0  0  0  0
    1.4858   -1.9315   -0.9674 H   0  0  0  0  0  0  0  0  0  0  0  0
   -0.2184   -2.6217    0.6450 H   0  0  0  0  0  0  0  0  0  0  0  0
    0.0441   -1.0933    1.6098 H   0  0  0  0  0  0  0  0  0  0  0  0
   -1.6005   -1.5762   -0.9425 H   0  0  0  0  0  0  0  0  0  0  0  0
   -2.7443    0.3987   -0.0528 H   0  0  0  0  0  0  0  0  0  0  0  0
   -1.8826   -0.1281    1.4437 H   0  0  0  0  0  0  0  0  0  0  0  0
   -1.4438    2.2897    0.0146 H   0  0  0  0  0  0  0  0  0  0  0  0
   -0.4828    1.6823    1.3776 H   0  0  0  0  0  0  0  0  0  0  0  0
    0.2759    1.8940   -1.4018 H   0  0  0  0  0  0  0  0  0  0  0  0
    0.0441   -0.3635   -2.2024 H   0  0  0  0  0  0  0  0  0  0  0  0
  1  2  2  0
  2  3  1  0
  3  4  1  0
  4  5  1  0
  5  6  1  0
  6  7  1  0
  7  8  1  0
  8  9  1  0
  8  1  1  0
  9  3  1  0
  9  5  1  0
  1 10  1  0
  2 11  1  0
  3 12  1  0
  4 13  1  0
  4 14  1  0
  5 15  1  0
  6 16  1  0
  6 17  1  0
  7 18  1  0
  7 19  1  0
  8 20  1  0
  9 21  1  0
M  END
