
     RDKit          3D

 19 21  0  0  0  0  0  0  0  0999 V2000
   -1.1873   -1.0079    0.8436 C   0  0  0  0  0  0  0  0  0  0  0  0
   -1.3297    0.2445    1.2587 C   0  0  0  0  0  0  0  0  0  0  0  0
   -0.6953    1.1037    0.2934 C   0  0  0  0  0  0  0  0  0  0  0  0
   -0.9393    0.3689   -0.9960 C   0  0  0  0  0  0  0  0  0  0  0  0
   -0.5044   -1.0208   -0.5044 C   0  0  0  0  0  0  0  0  0  0  0  0
    0.9855   -0.9639   -0.3872 C   0  0  0  0  0  0  0  0  0  0  0  0
    1.5257    0.4692   -0.4189 C   0  0  0  0  0  0  0  0  0  0  0  0
    0.8074    1.2507    0.5907 C   0  0  0  0  0  0  0  0  0  0  0  0
   -0.0711    2.2537    0.4053 O   0  0  0  0  0  0  0  0  0  0  0  0
   -1.4857   -1.9413    1.3320 H   0  0  0  0  0  0  0  0  0  0  0  0
   -1.8400    0.5092    2.1665 H   0  0  0  0  0  0  0  0  0  0  0  0
   -0.3894    0.7157   -1.8554 H   0  0  0  0  0  0  0  0  0  0  0  0
   -2.0111    0.3964   -1.1967 H   0  0  0  0  0  0  0  0  0  0  0  0
   -0.8814   -1.8164   -1.1475 H   0  0  0  0  0  0  0  0  0  0  0  0
    1.2394   -1.3268    0.6527 H   0  0  0  0  0  0  0  0  0  0  0  0
    1.4271   -1.5932   -1.1633 H   0  0  0  0  0  0  0  0  0  0  0  0
    2.6006    0.3580   -0.0794 H   0  0  0  0  0  0  0  0  0  0  0  0
    1.5912    0.8762   -1.4289 H   0  0  0  0  0  0  0  0  0  0  0  0
    1.1578    1.1242    1.6348 H   0  0  0  0  0  0  0  0  0  0  0  0
  1  2  2  0
  2  3  1  0
  3  4  1  0
  4  5  1  0
  5  6  1  0
  6  7  1  0
  7  8  1  0
  8  9  1  0
  5  1  1  0
  8  3  1  0
  9  3  1  0
  1 10  1  0
  2 11  1  0
  4 12  1  0
  4 13  1  0
  5 14  1  0
  6 15  1  0
  6 16  1  0
  7 17  1  0
  7 18  1  0
  8 19  1  0
M  END
