
     RDKit          3D

 19 22  0  0  0  0  0  0  0  0999 V2000
   -0.0280    1.4922    0.2587 C   0  0  0  0  0  0  0  0  0  0  0  0
    1.0657    0.8620   -0.0781 C   0  0  0  0  0  0  0  0  0  0  0  0
    2.2565    0.1029   -0.4339 C   0  0  0  0  0  0  0  0  0  0  0  0
    1.3325   -1.1879   -0.4573 C   0  0  0  0  0  0  0  0  0  0  0  0
    0.8091   -0.5508    0.6061 C   0  0  0  0  0  0  0  0  0  0  0  0
   -0.1077   -1.0517   -0.5151 C   0  0  0  0  0  0  0  0  0  0  0  0
   -1.3155   -0.6956    0.2243 C   0  0  0  0  0  0  0  0  0  0  0  0
   -2.3074    0.3239   -0.0634 C   0  0  0  0  0  0  0  0  0  0  0  0
   -1.2123    0.7293    0.8244 C   0  0  0  0  0  0  0  0  0  0  0  0
   -0.0297    2.5650    0.1034 H   0  0  0  0  0  0  0  0  0  0  0  0
    2.6923    0.2699   -1.4381 H   0  0  0  0  0  0  0  0  0  0  0  0
    2.9938    0.0385    0.3877 H   0  0  0  0  0  0  0  0  0  0  0  0
    1.9014   -2.1086   -0.5054 H   0  0  0  0  0  0  0  0  0  0  0  0
    0.7096   -0.6339    1.6193 H   0  0  0  0  0  0  0  0  0  0  0  0
   -0.2300   -0.5734   -1.5123 H   0  0  0  0  0  0  0  0  0  0  0  0
   -1.6330   -1.4684    0.9976 H   0  0  0  0  0  0  0  0  0  0  0  0
   -3.3003    0.2459    0.3628 H   0  0  0  0  0  0  0  0  0  0  0  0
   -2.2946    0.7919   -1.0900 H   0  0  0  0  0  0  0  0  0  0  0  0
   -1.3024    0.8486    1.9062 H   0  0  0  0  0  0  0  0  0  0  0  0
  1  2  2  0
  2  3  1  0
  3  4  1  0
  4  5  1  0
  5  6  1  0
  6  7  1  0
  7  8  1  0
  8  9  1  0
  9  1  1  0
  5  2  1  0
  9  7  1  0
  6  4  1  0
  1 10  1  0
  3 11  1  0
  3 12  1  0
  4 13  1  0
  5 14  1  0
  6 15  1  0
  7 16  1  0
  8 17  1  0
  8 18  1  0
  9 19  1  0
M  END
