
     RDKit          3D

 21 22  0  0  0  0  0  0  0  0999 V2000
   -2.6860   -0.0253    0.9229 C   0  0  0  0  0  0  0  0  0  0  0  0
   -2.7016    1.0649    0.1855 C   0  0  0  0  0  0  0  0  0  0  0  0
   -1.5012    1.0648   -0.6657 C   0  0  0  0  0  0  0  0  0  0  0  0
   -0.5243    0.2414    0.1235 C   0  0  0  0  0  0  0  0  0  0  0  0
    0.4683   -0.2836   -0.6970 O   0  0  0  0  0  0  0  0  0  0  0  0
    1.6884    0.0199   -0.1469 C   0  0  0  0  0  0  0  0  0  0  0  0
    2.6507   -1.1903   -0.1796 C   0  0  0  0  0  0  0  0  0  0  0  0
    2.9355    0.0691   -0.9370 C   0  0  0  0  0  0  0  0  0  0  0  0
   -1.4624   -0.8585    0.6292 C   0  0  0  0  0  0  0  0  0  0  0  0
   -3.4300   -0.3379    1.6631 H   0  0  0  0  0  0  0  0  0  0  0  0
   -3.4924    1.8277    0.2227 H   0  0  0  0  0  0  0  0  0  0  0  0
   -1.1307    2.0840   -0.8858 H   0  0  0  0  0  0  0  0  0  0  0  0
   -1.7398    0.4902   -1.5842 H   0  0  0  0  0  0  0  0  0  0  0  0
   -0.1214    0.7700    1.0090 H   0  0  0  0  0  0  0  0  0  0  0  0
    1.6518    0.5953    0.7969 H   0  0  0  0  0  0  0  0  0  0  0  0
    3.1304   -1.3924    0.7739 H   0  0  0  0  0  0  0  0  0  0  0  0
    2.3929   -2.0504   -0.8167 H   0  0  0  0  0  0  0  0  0  0  0  0
    2.9057    0.0888   -2.0403 H   0  0  0  0  0  0  0  0  0  0  0  0
    3.7633    0.6707   -0.5168 H   0  0  0  0  0  0  0  0  0  0  0  0
   -1.1210   -1.2702    1.5792 H   0  0  0  0  0  0  0  0  0  0  0  0
   -1.6763   -1.5780   -0.1601 H   0  0  0  0  0  0  0  0  0  0  0  0
  1  2  2  0
  2  3  1  0
  3  4  1  0
  4  5  1  0
  5  6  1  0
  6  7  1  0
  7  8  1  0
  4  9  1  0
  9  1  1  0
  8  6  1  0
  1 10  1  0
  2 11  1  0
  3 12  1  0
  3 13  1  0
  4 14  1  0
  6 15  1  0
  7 16  1  0
  7 17  1  0
  8 18  1  0
  8 19  1  0
  9 20  1  0
  9 21  1  0
M  END
