
     RDKit          3D

 21 23  0  0  0  0  0  0  0  0999 V2000
    2.2040    0.2352    0.3360 C   0  0  0  0  0  0  0  0  0  0  0  0
    1.2795    1.1151    0.7296 C   0  0  0  0  0  0  0  0  0  0  0  0
    0.0331    0.6475    0.3401 C   0  0  0  0  0  0  0  0  0  0  0  0
   -0.7922   -0.2636    1.2284 C   0  0  0  0  0  0  0  0  0  0  0  0
   -1.7479   -0.1440    0.0282 C   0  0  0  0  0  0  0  0  0  0  0  0
   -0.9448   -0.9506   -0.9742 C   0  0  0  0  0  0  0  0  0  0  0  0
    0.3405   -0.1976   -0.9199 C   0  0  0  0  0  0  0  0  0  0  0  0
    1.5408   -0.9101   -0.3704 C   0  0  0  0  0  0  0  0  0  0  0  0
   -1.1925    1.2925   -0.0506 C   0  0  0  0  0  0  0  0  0  0  0  0
    3.2679    0.3266    0.4975 H   0  0  0  0  0  0  0  0  0  0  0  0
    1.5526    2.0381    1.2715 H   0  0  0  0  0  0  0  0  0  0  0  0
   -0.4427   -1.2886    1.3263 H   0  0  0  0  0  0  0  0  0  0  0  0
   -1.1173    0.2793    2.1110 H   0  0  0  0  0  0  0  0  0  0  0  0
   -2.7698   -0.2926    0.1692 H   0  0  0  0  0  0  0  0  0  0  0  0
   -0.8450   -1.9954   -0.5692 H   0  0  0  0  0  0  0  0  0  0  0  0
   -1.3997   -0.9921   -1.9662 H   0  0  0  0  0  0  0  0  0  0  0  0
    0.5462    0.4374   -1.7753 H   0  0  0  0  0  0  0  0  0  0  0  0
    1.2610   -1.7232    0.2924 H   0  0  0  0  0  0  0  0  0  0  0  0
    2.1532   -1.2348   -1.2534 H   0  0  0  0  0  0  0  0  0  0  0  0
   -1.7448    1.9272    0.6358 H   0  0  0  0  0  0  0  0  0  0  0  0
   -1.1820    1.6937   -1.0870 H   0  0  0  0  0  0  0  0  0  0  0  0
  1  2  2  0
  2  3  1  0
  3  4  1  0
  4  5  1  0
  5  6  1  0
  6  7  1  0
  7  8  1  0
  5  9  1  0
  8  1  1  0
  7  3  1  0
  9  3  1  0
  1 10  1  0
  2 11  1  0
  4 12  1  0
  4 13  1  0
  5 14  1  0
  6 15  1  0
  6 16  1  0
  7 17  1  0
  8 18  1  0
  8 19  1  0
  9 20  1  0
  9 21  1  0
M  END
