
     RDKit          3D

 21 23  0  0  0  0  0  0  0  0999 V2000
    0.0060   -1.9179   -0.2921 C   0  0  0  0  0  0  0  0  0  0  0  0
    0.9465   -1.0199   -0.0754 C   0  0  0  0  0  0  0  0  0  0  0  0
    2.1988   -0.2221    0.1176 C   0  0  0  0  0  0  0  0  0  0  0  0
    1.3279    0.6637    1.0562 C   0  0  0  0  0  0  0  0  0  0  0  0
    0.2489    0.2615    0.1812 C   0  0  0  0  0  0  0  0  0  0  0  0
   -0.1641    1.0903   -0.9761 C   0  0  0  0  0  0  0  0  0  0  0  0
   -1.5252    1.1972   -0.2552 C   0  0  0  0  0  0  0  0  0  0  0  0
   -1.1271   -0.0299    0.5875 C   0  0  0  0  0  0  0  0  0  0  0  0
   -1.3707   -1.3452   -0.1526 C   0  0  0  0  0  0  0  0  0  0  0  0
    0.1587   -2.9618   -0.5449 H   0  0  0  0  0  0  0  0  0  0  0  0
    3.0050   -0.7394    0.6344 H   0  0  0  0  0  0  0  0  0  0  0  0
    2.4417    0.3691   -0.7752 H   0  0  0  0  0  0  0  0  0  0  0  0
    1.3192    0.3072    2.0980 H   0  0  0  0  0  0  0  0  0  0  0  0
    1.6073    1.7208    1.0172 H   0  0  0  0  0  0  0  0  0  0  0  0
    0.3787    2.0473   -1.0205 H   0  0  0  0  0  0  0  0  0  0  0  0
   -0.2135    0.5068   -1.9150 H   0  0  0  0  0  0  0  0  0  0  0  0
   -2.3879    1.0173   -0.9151 H   0  0  0  0  0  0  0  0  0  0  0  0
   -1.6569    2.1043    0.3317 H   0  0  0  0  0  0  0  0  0  0  0  0
   -1.4224   -0.0022    1.6335 H   0  0  0  0  0  0  0  0  0  0  0  0
   -1.7256   -1.0762   -1.1634 H   0  0  0  0  0  0  0  0  0  0  0  0
   -2.0453   -1.9711    0.4282 H   0  0  0  0  0  0  0  0  0  0  0  0
  1  2  2  0
  2  3  1  0
  3  4  1  0
  4  5  1  0
  5  6  1  0
  6  7  1  0
  7  8  1  0
  8  9  1  0
  9  1  1  0
  5  2  1  0
  8  5  1  0
  1 10  1  0
  3 11  1  0
  3 12  1  0
  4 13  1  0
  4 14  1  0
  6 15  1  0
  6 16  1  0
  7 17  1  0
  7 18  1  0
  8 19  1  0
  9 20  1  0
  9 21  1  0
M  END
