
     RDKit          3D

 19 20  0  0  0  0  0  0  0  0999 V2000
    1.3347    0.4068    0.7858 C   0  0  0  0  0  0  0  0  0  0  0  0
    0.2280    0.9767    1.2524 C   0  0  0  0  0  0  0  0  0  0  0  0
   -1.1378    0.7714    0.6426 C   0  0  0  0  0  0  0  0  0  0  0  0
   -1.0779    1.0913   -0.8184 C   0  0  0  0  0  0  0  0  0  0  0  0
   -0.3914    0.2001   -1.5880 O   0  0  0  0  0  0  0  0  0  0  0  0
    0.2045   -0.8409   -0.9362 C   0  0  0  0  0  0  0  0  0  0  0  0
    1.5932   -0.4658   -0.3959 C   0  0  0  0  0  0  0  0  0  0  0  0
   -0.6220   -1.4384    0.1624 C   0  0  0  0  0  0  0  0  0  0  0  0
   -1.4835   -0.5654    0.7748 O   0  0  0  0  0  0  0  0  0  0  0  0
    2.2217    0.6269    1.3941 H   0  0  0  0  0  0  0  0  0  0  0  0
    0.2909    1.6231    2.1114 H   0  0  0  0  0  0  0  0  0  0  0  0
   -1.8817    1.3892    1.1414 H   0  0  0  0  0  0  0  0  0  0  0  0
   -2.1468    1.1889   -1.1689 H   0  0  0  0  0  0  0  0  0  0  0  0
   -0.6396    2.1003   -0.9732 H   0  0  0  0  0  0  0  0  0  0  0  0
    0.4040   -1.6458   -1.6869 H   0  0  0  0  0  0  0  0  0  0  0  0
    2.1284    0.1634   -1.1358 H   0  0  0  0  0  0  0  0  0  0  0  0
    2.1840   -1.3525   -0.1634 H   0  0  0  0  0  0  0  0  0  0  0  0
   -1.2529   -2.2602   -0.2869 H   0  0  0  0  0  0  0  0  0  0  0  0
    0.0443   -1.9693    0.8889 H   0  0  0  0  0  0  0  0  0  0  0  0
  1  2  2  0
  2  3  1  0
  3  4  1  0
  4  5  1  0
  5  6  1  0
  6  7  1  0
  6  8  1  0
  8  9  1  0
  7  1  1  0
  9  3  1  0
  1 10  1  0
  2 11  1  0
  3 12  1  0
  4 13  1  0
  4 14  1  0
  6 15  1  0
  7 16  1  0
  7 17  1  0
  8 18  1  0
  8 19  1  0
M  END
