
     RDKit          3D

 19 21  0  0  0  0  0  0  0  0999 V2000
    0.1991   -1.7107   -0.7462 C   0  0  0  0  0  0  0  0  0  0  0  0
    1.2571   -0.9728   -0.4905 C   0  0  0  0  0  0  0  0  0  0  0  0
    2.5351   -0.2529   -0.2916 C   0  0  0  0  0  0  0  0  0  0  0  0
    1.7369    0.9316   -0.3198 O   0  0  0  0  0  0  0  0  0  0  0  0
    0.8265    0.1904    0.4023 C   0  0  0  0  0  0  0  0  0  0  0  0
   -0.6231    0.3221    0.1413 C   0  0  0  0  0  0  0  0  0  0  0  0
   -1.0425   -1.1209   -0.1147 C   0  0  0  0  0  0  0  0  0  0  0  0
   -1.5525    1.1177    0.9531 C   0  0  0  0  0  0  0  0  0  0  0  0
   -1.2866    1.4581   -0.4802 C   0  0  0  0  0  0  0  0  0  0  0  0
    0.2194   -2.6165   -1.3301 H   0  0  0  0  0  0  0  0  0  0  0  0
    2.9164   -0.4467    0.7470 H   0  0  0  0  0  0  0  0  0  0  0  0
    3.2720   -0.3119   -1.0926 H   0  0  0  0  0  0  0  0  0  0  0  0
    1.1495    0.0042    1.4401 H   0  0  0  0  0  0  0  0  0  0  0  0
   -1.1940   -1.6292    0.8574 H   0  0  0  0  0  0  0  0  0  0  0  0
   -1.8996   -1.2136   -0.7771 H   0  0  0  0  0  0  0  0  0  0  0  0
   -1.1810    1.7949    1.7606 H   0  0  0  0  0  0  0  0  0  0  0  0
   -2.5586    0.7076    1.2013 H   0  0  0  0  0  0  0  0  0  0  0  0
   -0.6774    2.3779   -0.6287 H   0  0  0  0  0  0  0  0  0  0  0  0
   -2.0966    1.3707   -1.2317 H   0  0  0  0  0  0  0  0  0  0  0  0
  1  2  2  0
  2  3  1  0
  3  4  1  0
  4  5  1  0
  5  6  1  0
  6  7  1  0
  6  8  1  0
  8  9  1  0
  7  1  1  0
  5  2  1  0
  9  6  1  0
  1 10  1  0
  3 11  1  0
  3 12  1  0
  5 13  1  0
  7 14  1  0
  7 15  1  0
  8 16  1  0
  8 17  1  0
  9 18  1  0
  9 19  1  0
M  END
