
     RDKit          3D

 21 23  0  0  0  0  0  0  0  0999 V2000
    1.8954    0.7790    0.9102 C   0  0  0  0  0  0  0  0  0  0  0  0
    0.6569    0.9966    0.5264 C   0  0  0  0  0  0  0  0  0  0  0  0
   -0.7413    1.5595    0.3612 C   0  0  0  0  0  0  0  0  0  0  0  0
   -1.0770    0.1873   -0.1852 C   0  0  0  0  0  0  0  0  0  0  0  0
   -1.9822   -0.7470    0.4333 C   0  0  0  0  0  0  0  0  0  0  0  0
   -2.2756   -0.1205   -0.9367 C   0  0  0  0  0  0  0  0  0  0  0  0
    0.3189   -0.0057   -0.5799 C   0  0  0  0  0  0  0  0  0  0  0  0
    1.1311   -1.1608   -0.1520 C   0  0  0  0  0  0  0  0  0  0  0  0
    2.4589   -0.4158    0.1666 C   0  0  0  0  0  0  0  0  0  0  0  0
    2.4897    1.3203    1.6356 H   0  0  0  0  0  0  0  0  0  0  0  0
   -0.7204    2.2941   -0.4688 H   0  0  0  0  0  0  0  0  0  0  0  0
   -1.2304    1.8603    1.2855 H   0  0  0  0  0  0  0  0  0  0  0  0
   -1.6996   -1.8157    0.4572 H   0  0  0  0  0  0  0  0  0  0  0  0
   -2.7169   -0.4790    1.2126 H   0  0  0  0  0  0  0  0  0  0  0  0
   -3.0658    0.6490   -0.9992 H   0  0  0  0  0  0  0  0  0  0  0  0
   -2.1811   -0.7557   -1.8331 H   0  0  0  0  0  0  0  0  0  0  0  0
    0.5681    0.3871   -1.5819 H   0  0  0  0  0  0  0  0  0  0  0  0
    1.3318   -1.8189   -1.0245 H   0  0  0  0  0  0  0  0  0  0  0  0
    0.7899   -1.6789    0.7373 H   0  0  0  0  0  0  0  0  0  0  0  0
    2.9212   -0.0177   -0.7396 H   0  0  0  0  0  0  0  0  0  0  0  0
    3.1282   -1.0177    0.7749 H   0  0  0  0  0  0  0  0  0  0  0  0
  1  2  2  0
  2  3  1  0
  3  4  1  0
  4  5  1  0
  5  6  1  0
  4  7  1  0
  7  8  1  0
  8  9  1  0
  9  1  1  0
  7  2  1  0
  6  4  1  0
  1 10  1  0
  3 11  1  0
  3 12  1  0
  5 13  1  0
  5 14  1  0
  6 15  1  0
  6 16  1  0
  7 17  1  0
  8 18  1  0
  8 19  1  0
  9 20  1  0
  9 21  1  0
M  END
