
     RDKit          3D

 17 19  0  0  0  0  0  0  0  0999 V2000
    0.4289    1.6301   -0.2816 C   0  0  0  0  0  0  0  0  0  0  0  0
   -0.6700    1.1587   -0.8578 C   0  0  0  0  0  0  0  0  0  0  0  0
   -1.4001   -0.0133   -0.2638 C   0  0  0  0  0  0  0  0  0  0  0  0
   -0.7106   -1.3043   -0.0433 C   0  0  0  0  0  0  0  0  0  0  0  0
    0.6946   -1.3952   -0.4882 C   0  0  0  0  0  0  0  0  0  0  0  0
    1.5495   -0.4682   -0.1211 C   0  0  0  0  0  0  0  0  0  0  0  0
    1.0917    0.7058    0.6877 C   0  0  0  0  0  0  0  0  0  0  0  0
    0.1394    0.2853    1.5777 O   0  0  0  0  0  0  0  0  0  0  0  0
   -0.9404   -0.3740    1.0775 C   0  0  0  0  0  0  0  0  0  0  0  0
    0.8583    2.6083   -0.4651 H   0  0  0  0  0  0  0  0  0  0  0  0
   -1.0168    1.6416   -1.7570 H   0  0  0  0  0  0  0  0  0  0  0  0
   -2.4745   -0.0642   -0.5204 H   0  0  0  0  0  0  0  0  0  0  0  0
   -1.3114   -2.2242   -0.1008 H   0  0  0  0  0  0  0  0  0  0  0  0
    0.9987   -2.2163   -1.1050 H   0  0  0  0  0  0  0  0  0  0  0  0
    2.5788   -0.5477   -0.3986 H   0  0  0  0  0  0  0  0  0  0  0  0
    1.9074    1.1784    1.2354 H   0  0  0  0  0  0  0  0  0  0  0  0
   -1.7234   -0.6007    1.8242 H   0  0  0  0  0  0  0  0  0  0  0  0
  1  2  2  0
  2  3  1  0
  3  4  1  0
  4  5  1  0
  5  6  2  0
  6  7  1  0
  7  8  1  0
  8  9  1  0
  7  1  1  0
  9  3  1  0
  9  4  1  0
  1 10  1  0
  2 11  1  0
  3 12  1  0
  4 13  1  0
  5 14  1  0
  6 15  1  0
  7 16  1  0
  9 17  1  0
M  END
