
     RDKit          3D

 19 21  0  0  0  0  0  0  0  0999 V2000
   -1.2080    1.4640    0.1805 C   0  0  0  0  0  0  0  0  0  0  0  0
    0.0822    1.6938   -0.0198 C   0  0  0  0  0  0  0  0  0  0  0  0
    0.8506    0.5593   -0.4833 C   0  0  0  0  0  0  0  0  0  0  0  0
    2.1575    0.1122   -0.1333 C   0  0  0  0  0  0  0  0  0  0  0  0
    1.1068   -0.4576    0.6795 C   0  0  0  0  0  0  0  0  0  0  0  0
    0.1586   -1.5217    0.3192 C   0  0  0  0  0  0  0  0  0  0  0  0
   -0.7714   -0.8463   -0.6613 C   0  0  0  0  0  0  0  0  0  0  0  0
   -1.7568    0.0865   -0.0696 C   0  0  0  0  0  0  0  0  0  0  0  0
    0.1492   -0.1632   -1.4432 O   0  0  0  0  0  0  0  0  0  0  0  0
   -1.9067    2.2155    0.5183 H   0  0  0  0  0  0  0  0  0  0  0  0
    0.5052    2.6544    0.1542 H   0  0  0  0  0  0  0  0  0  0  0  0
    2.8683    0.8068    0.3372 H   0  0  0  0  0  0  0  0  0  0  0  0
    2.6808   -0.5640   -0.8667 H   0  0  0  0  0  0  0  0  0  0  0  0
    1.0168   -0.0853    1.7178 H   0  0  0  0  0  0  0  0  0  0  0  0
    0.6043   -2.4110   -0.1670 H   0  0  0  0  0  0  0  0  0  0  0  0
   -0.4237   -1.8825    1.1771 H   0  0  0  0  0  0  0  0  0  0  0  0
   -1.2819   -1.5851   -1.3059 H   0  0  0  0  0  0  0  0  0  0  0  0
   -2.5873    0.2235   -0.7958 H   0  0  0  0  0  0  0  0  0  0  0  0
   -2.2445   -0.2995    0.8620 H   0  0  0  0  0  0  0  0  0  0  0  0
  1  2  2  0
  2  3  1  0
  3  4  1  0
  4  5  1  0
  5  6  1  0
  6  7  1  0
  7  8  1  0
  7  9  1  0
  8  1  1  0
  5  3  1  0
  9  3  1  0
  1 10  1  0
  2 11  1  0
  4 12  1  0
  4 13  1  0
  5 14  1  0
  6 15  1  0
  6 16  1  0
  7 17  1  0
  8 18  1  0
  8 19  1  0
M  END
