
     RDKit          3D

 19 20  0  0  0  0  0  0  0  0999 V2000
    2.0474    0.1374    0.4031 C   0  0  0  0  0  0  0  0  0  0  0  0
    1.5362   -1.0468    0.0953 C   0  0  0  0  0  0  0  0  0  0  0  0
    0.1823   -1.1990   -0.5084 C   0  0  0  0  0  0  0  0  0  0  0  0
   -0.5574    0.0901   -0.3199 C   0  0  0  0  0  0  0  0  0  0  0  0
   -1.3718    0.0716    0.9317 C   0  0  0  0  0  0  0  0  0  0  0  0
   -2.3559    0.7951    0.2826 O   0  0  0  0  0  0  0  0  0  0  0  0
   -1.9370    0.1595   -0.9071 C   0  0  0  0  0  0  0  0  0  0  0  0
    0.1665    1.2106   -0.6008 O   0  0  0  0  0  0  0  0  0  0  0  0
    1.2905    1.3902    0.1605 C   0  0  0  0  0  0  0  0  0  0  0  0
    3.0368    0.1981    0.8406 H   0  0  0  0  0  0  0  0  0  0  0  0
    2.1688   -1.9260    0.3100 H   0  0  0  0  0  0  0  0  0  0  0  0
   -0.3316   -2.0054    0.0391 H   0  0  0  0  0  0  0  0  0  0  0  0
    0.2456   -1.4963   -1.5725 H   0  0  0  0  0  0  0  0  0  0  0  0
   -0.9355    0.5097    1.8322 H   0  0  0  0  0  0  0  0  0  0  0  0
   -1.7298   -0.9697    1.1325 H   0  0  0  0  0  0  0  0  0  0  0  0
   -2.0157    0.8810   -1.7442 H   0  0  0  0  0  0  0  0  0  0  0  0
   -2.4390   -0.7988   -1.0708 H   0  0  0  0  0  0  0  0  0  0  0  0
    1.9896    2.0800   -0.3956 H   0  0  0  0  0  0  0  0  0  0  0  0
    1.0100    1.9186    1.0915 H   0  0  0  0  0  0  0  0  0  0  0  0
  1  2  2  0
  2  3  1  0
  3  4  1  0
  4  5  1  0
  5  6  1  0
  6  7  1  0
  4  8  1  0
  8  9  1  0
  9  1  1  0
  7  4  1  0
  1 10  1  0
  2 11  1  0
  3 12  1  0
  3 13  1  0
  5 14  1  0
  5 15  1  0
  7 16  1  0
  7 17  1  0
  9 18  1  0
  9 19  1  0
M  END
