
     RDKit          3D

 19 21  0  0  0  0  0  0  0  0999 V2000
    1.4329    1.0667   -0.5968 C   0  0  0  0  0  0  0  0  0  0  0  0
    1.9847   -0.1083   -0.2429 C   0  0  0  0  0  0  0  0  0  0  0  0
    0.9416   -1.0663    0.2627 C   0  0  0  0  0  0  0  0  0  0  0  0
    0.1346   -0.1976    1.2524 C   0  0  0  0  0  0  0  0  0  0  0  0
   -0.8146    0.3417    0.2685 C   0  0  0  0  0  0  0  0  0  0  0  0
   -0.0148    1.2510   -0.6464 C   0  0  0  0  0  0  0  0  0  0  0  0
   -2.0763   -0.0473   -0.2072 C   0  0  0  0  0  0  0  0  0  0  0  0
   -1.1499   -1.0986   -0.2970 C   0  0  0  0  0  0  0  0  0  0  0  0
    0.0813   -1.2462   -0.8512 O   0  0  0  0  0  0  0  0  0  0  0  0
    2.0742    1.9016   -0.8531 H   0  0  0  0  0  0  0  0  0  0  0  0
    3.0274   -0.3232   -0.3150 H   0  0  0  0  0  0  0  0  0  0  0  0
    1.3188   -1.9688    0.6855 H   0  0  0  0  0  0  0  0  0  0  0  0
   -0.3901   -0.9013    1.9340 H   0  0  0  0  0  0  0  0  0  0  0  0
    0.7673    0.5254    1.7600 H   0  0  0  0  0  0  0  0  0  0  0  0
   -0.2417    2.2866   -0.2998 H   0  0  0  0  0  0  0  0  0  0  0  0
   -0.3857    1.2104   -1.7009 H   0  0  0  0  0  0  0  0  0  0  0  0
   -2.4770    0.3938   -1.1627 H   0  0  0  0  0  0  0  0  0  0  0  0
   -2.9289   -0.1037    0.5297 H   0  0  0  0  0  0  0  0  0  0  0  0
   -1.2838   -1.9161    0.4802 H   0  0  0  0  0  0  0  0  0  0  0  0
  1  2  2  0
  2  3  1  0
  3  4  1  0
  4  5  1  0
  5  6  1  0
  5  7  1  0
  7  8  1  0
  8  9  1  0
  6  1  1  0
  9  3  1  0
  8  5  1  0
  1 10  1  0
  2 11  1  0
  3 12  1  0
  4 13  1  0
  4 14  1  0
  6 15  1  0
  6 16  1  0
  7 17  1  0
  7 18  1  0
  8 19  1  0
M  END
