
     RDKit          3D

 19 20  0  0  0  0  0  0  0  0999 V2000
   -0.9059    1.4756   -0.2503 C   0  0  0  0  0  0  0  0  0  0  0  0
    0.4109    1.4197   -0.4374 C   0  0  0  0  0  0  0  0  0  0  0  0
    1.3419    0.3064   -0.5428 C   0  0  0  0  0  0  0  0  0  0  0  0
    2.3543   -0.0998    0.4020 C   0  0  0  0  0  0  0  0  0  0  0  0
    1.0124   -0.6059    0.6626 C   0  0  0  0  0  0  0  0  0  0  0  0
    0.4776   -1.7549    0.1422 O   0  0  0  0  0  0  0  0  0  0  0  0
   -0.9212   -1.6378    0.0655 C   0  0  0  0  0  0  0  0  0  0  0  0
   -1.4125   -0.5577    0.7416 O   0  0  0  0  0  0  0  0  0  0  0  0
   -1.9649    0.4251   -0.0723 C   0  0  0  0  0  0  0  0  0  0  0  0
   -1.3089    2.4986   -0.2183 H   0  0  0  0  0  0  0  0  0  0  0  0
    0.8418    2.4302   -0.5245 H   0  0  0  0  0  0  0  0  0  0  0  0
    1.3398   -0.1768   -1.5597 H   0  0  0  0  0  0  0  0  0  0  0  0
    3.1080   -0.8324    0.0486 H   0  0  0  0  0  0  0  0  0  0  0  0
    2.7851    0.6149    1.1346 H   0  0  0  0  0  0  0  0  0  0  0  0
    0.4653   -0.1838    1.5087 H   0  0  0  0  0  0  0  0  0  0  0  0
   -1.2889   -1.7350   -0.9763 H   0  0  0  0  0  0  0  0  0  0  0  0
   -1.3046   -2.5603    0.5953 H   0  0  0  0  0  0  0  0  0  0  0  0
   -2.1828    0.0569   -1.0974 H   0  0  0  0  0  0  0  0  0  0  0  0
   -2.8474    0.9170    0.3778 H   0  0  0  0  0  0  0  0  0  0  0  0
  1  2  2  3
  2  3  1  0
  3  4  1  0
  4  5  1  0
  5  6  1  0
  6  7  1  0
  7  8  1  0
  8  9  1  0
  9  1  1  0
  5  3  1  0
  1 10  1  0
  2 11  1  0
  3 12  1  0
  4 13  1  0
  4 14  1  0
  5 15  1  0
  7 16  1  0
  7 17  1  0
  9 18  1  0
  9 19  1  0
M  END
