
     RDKit          3D

 15 16  0  0  0  0  0  0  0  0999 V2000
    1.5928    0.0534    0.2584 C   0  0  0  0  0  0  0  0  0  0  0  0
    1.0429   -1.0595   -0.1611 C   0  0  0  0  0  0  0  0  0  0  0  0
   -0.2940   -0.8813   -0.7412 C   0  0  0  0  0  0  0  0  0  0  0  0
   -1.2702   -1.3859    0.1052 O   0  0  0  0  0  0  0  0  0  0  0  0
   -1.4294   -0.1500    0.7420 C   0  0  0  0  0  0  0  0  0  0  0  0
   -0.6805    0.5260   -0.3462 C   0  0  0  0  0  0  0  0  0  0  0  0
    0.6363    1.1425   -0.0102 C   0  0  0  0  0  0  0  0  0  0  0  0
    2.5759    0.2030    0.7282 H   0  0  0  0  0  0  0  0  0  0  0  0
    1.5375   -2.0306   -0.0844 H   0  0  0  0  0  0  0  0  0  0  0  0
   -0.4223   -1.0411   -1.8085 H   0  0  0  0  0  0  0  0  0  0  0  0
   -2.5265    0.1064    0.7318 H   0  0  0  0  0  0  0  0  0  0  0  0
   -1.0099   -0.1135    1.7585 H   0  0  0  0  0  0  0  0  0  0  0  0
   -1.3205    1.0672   -1.0661 H   0  0  0  0  0  0  0  0  0  0  0  0
    0.5843    1.8693    0.8214 H   0  0  0  0  0  0  0  0  0  0  0  0
    0.9836    1.6943   -0.9278 H   0  0  0  0  0  0  0  0  0  0  0  0
  1  2  2  0
  2  3  1  0
  3  4  1  0
  4  5  1  0
  5  6  1  0
  6  7  1  0
  7  1  1  0
  6  3  1  0
  1  8  1  0
  2  9  1  0
  3 10  1  0
  5 11  1  0
  5 12  1  0
  6 13  1  0
  7 14  1  0
  7 15  1  0
M  END
