
     RDKit          3D

 20 21  0  0  0  0  0  0  0  0999 V2000
    1.8790    0.0720    0.9035 C   0  0  0  0  0  0  0  0  0  0  0  0
    0.5981   -0.0765    1.2303 C   0  0  0  0  0  0  0  0  0  0  0  0
   -0.1796   -0.2117    0.0067 C   0  0  0  0  0  0  0  0  0  0  0  0
    0.7770   -0.6963   -1.0108 C   0  0  0  0  0  0  0  0  0  0  0  0
    2.0516    0.0463   -0.5786 C   0  0  0  0  0  0  0  0  0  0  0  0
   -0.8925    1.0932   -0.3216 C   0  0  0  0  0  0  0  0  0  0  0  0
   -2.0811    0.5106    0.4288 C   0  0  0  0  0  0  0  0  0  0  0  0
   -1.5191   -0.8624    0.0853 C   0  0  0  0  0  0  0  0  0  0  0  0
    2.6533    0.1919    1.6557 H   0  0  0  0  0  0  0  0  0  0  0  0
    0.1713   -0.0973    2.2420 H   0  0  0  0  0  0  0  0  0  0  0  0
    0.5559   -0.4194   -2.0466 H   0  0  0  0  0  0  0  0  0  0  0  0
    0.9202   -1.7988   -0.8855 H   0  0  0  0  0  0  0  0  0  0  0  0
    2.9575   -0.4694   -0.9039 H   0  0  0  0  0  0  0  0  0  0  0  0
    2.0016    1.0721   -1.0090 H   0  0  0  0  0  0  0  0  0  0  0  0
   -0.4101    1.9545    0.1473 H   0  0  0  0  0  0  0  0  0  0  0  0
   -1.0278    1.1454   -1.4265 H   0  0  0  0  0  0  0  0  0  0  0  0
   -1.9491    0.6900    1.5064 H   0  0  0  0  0  0  0  0  0  0  0  0
   -3.0605    0.7395    0.0022 H   0  0  0  0  0  0  0  0  0  0  0  0
   -1.8402   -1.2653   -0.8896 H   0  0  0  0  0  0  0  0  0  0  0  0
   -1.6054   -1.6185    0.8641 H   0  0  0  0  0  0  0  0  0  0  0  0
  1  2  2  0
  2  3  1  0
  3  4  1  0
  4  5  1  0
  3  6  1  0
  6  7  1  0
  7  8  1  0
  5  1  1  0
  8  3  1  0
  1  9  1  0
  2 10  1  0
  4 11  1  0
  4 12  1  0
  5 13  1  0
  5 14  1  0
  6 15  1  0
  6 16  1  0
  7 17  1  0
  7 18  1  0
  8 19  1  0
  8 20  1  0
M  END
