
     RDKit          3D

 19 21  0  0  0  0  0  0  0  0999 V2000
    1.9788   -0.0543   -0.0718 C   0  0  0  0  0  0  0  0  0  0  0  0
    1.1450   -1.0456   -0.3803 C   0  0  0  0  0  0  0  0  0  0  0  0
   -0.0968   -1.0492    0.3885 C   0  0  0  0  0  0  0  0  0  0  0  0
   -1.4033   -1.2578   -0.2192 C   0  0  0  0  0  0  0  0  0  0  0  0
   -1.7897    0.0640    0.4785 C   0  0  0  0  0  0  0  0  0  0  0  0
   -1.2855    1.2148   -0.2573 C   0  0  0  0  0  0  0  0  0  0  0  0
   -0.4091    0.4138    0.5549 C   0  0  0  0  0  0  0  0  0  0  0  0
    0.4076    0.9082    1.4861 O   0  0  0  0  0  0  0  0  0  0  0  0
    1.6973    0.9747    0.9611 C   0  0  0  0  0  0  0  0  0  0  0  0
    2.9389    0.0504   -0.5816 H   0  0  0  0  0  0  0  0  0  0  0  0
    1.4381   -1.7455   -1.1459 H   0  0  0  0  0  0  0  0  0  0  0  0
   -0.0154   -1.5588    1.3819 H   0  0  0  0  0  0  0  0  0  0  0  0
   -2.0078   -2.1053    0.1772 H   0  0  0  0  0  0  0  0  0  0  0  0
   -1.4789   -1.1684   -1.3418 H   0  0  0  0  0  0  0  0  0  0  0  0
   -2.4396    0.0538    1.3309 H   0  0  0  0  0  0  0  0  0  0  0  0
   -1.3476    1.1626   -1.3784 H   0  0  0  0  0  0  0  0  0  0  0  0
   -1.5268    2.2253    0.1105 H   0  0  0  0  0  0  0  0  0  0  0  0
    1.7634    1.9858    0.4620 H   0  0  0  0  0  0  0  0  0  0  0  0
    2.4313    0.9314    1.8025 H   0  0  0  0  0  0  0  0  0  0  0  0
  1  2  2  0
  2  3  1  0
  3  4  1  0
  4  5  1  0
  5  6  1  0
  6  7  1  0
  7  8  1  0
  8  9  1  0
  9  1  1  0
  7  3  1  0
  7  5  1  0
  1 10  1  0
  2 11  1  0
  3 12  1  0
  4 13  1  0
  4 14  1  0
  5 15  1  0
  6 16  1  0
  6 17  1  0
  9 18  1  0
  9 19  1  0
M  END
