
     RDKit          3D

 21 23  0  0  0  0  0  0  0  0999 V2000
   -0.9873    1.6387   -0.0557 C   0  0  0  0  0  0  0  0  0  0  0  0
   -1.7077    0.5427    0.0463 C   0  0  0  0  0  0  0  0  0  0  0  0
   -1.1697   -0.7769    0.4734 C   0  0  0  0  0  0  0  0  0  0  0  0
   -0.4603   -1.4415   -0.7129 C   0  0  0  0  0  0  0  0  0  0  0  0
    0.6807   -0.5604   -1.0311 C   0  0  0  0  0  0  0  0  0  0  0  0
    1.9552   -0.5056   -0.3545 C   0  0  0  0  0  0  0  0  0  0  0  0
    0.9087    0.2204    0.2772 C   0  0  0  0  0  0  0  0  0  0  0  0
    0.5107    1.6390    0.1503 C   0  0  0  0  0  0  0  0  0  0  0  0
    0.0509   -0.4560    1.3180 C   0  0  0  0  0  0  0  0  0  0  0  0
   -1.4514    2.5759   -0.2916 H   0  0  0  0  0  0  0  0  0  0  0  0
   -2.7562    0.6088   -0.1961 H   0  0  0  0  0  0  0  0  0  0  0  0
   -1.8898   -1.4231    0.9581 H   0  0  0  0  0  0  0  0  0  0  0  0
   -0.1822   -2.4728   -0.4555 H   0  0  0  0  0  0  0  0  0  0  0  0
   -1.2003   -1.4843   -1.5284 H   0  0  0  0  0  0  0  0  0  0  0  0
    0.5777    0.0147   -1.9791 H   0  0  0  0  0  0  0  0  0  0  0  0
    2.7969   -0.0021   -0.8680 H   0  0  0  0  0  0  0  0  0  0  0  0
    2.3143   -1.4424    0.1668 H   0  0  0  0  0  0  0  0  0  0  0  0
    0.7847    2.2528    1.0285 H   0  0  0  0  0  0  0  0  0  0  0  0
    0.9423    2.0823   -0.7670 H   0  0  0  0  0  0  0  0  0  0  0  0
    0.5092   -1.3383    1.7667 H   0  0  0  0  0  0  0  0  0  0  0  0
   -0.2263    0.3282    2.0545 H   0  0  0  0  0  0  0  0  0  0  0  0
  1  2  2  0
  2  3  1  0
  3  4  1  0
  4  5  1  0
  5  6  1  0
  6  7  1  0
  7  8  1  0
  7  9  1  0
  8  1  1  0
  9  3  1  0
  7  5  1  0
  1 10  1  0
  2 11  1  0
  3 12  1  0
  4 13  1  0
  4 14  1  0
  5 15  1  0
  6 16  1  0
  6 17  1  0
  8 18  1  0
  8 19  1  0
  9 20  1  0
  9 21  1  0
M  END
