
     RDKit          3D

 17 20  0  0  0  0  0  0  0  0999 V2000
    1.5662   -0.7330    0.2731 C   0  0  0  0  0  0  0  0  0  0  0  0
    1.6191    0.5747   -0.0524 C   0  0  0  0  0  0  0  0  0  0  0  0
    0.2833    0.9978   -0.5897 C   0  0  0  0  0  0  0  0  0  0  0  0
   -0.1631   -0.3354   -1.2142 C   0  0  0  0  0  0  0  0  0  0  0  0
   -1.5184   -0.3258   -1.1687 O   0  0  0  0  0  0  0  0  0  0  0  0
   -1.7742    0.1076    0.1547 C   0  0  0  0  0  0  0  0  0  0  0  0
   -0.7065   -0.4201    0.9992 C   0  0  0  0  0  0  0  0  0  0  0  0
    0.1916   -1.1643    0.0310 C   0  0  0  0  0  0  0  0  0  0  0  0
   -0.6834    1.0363    0.5364 C   0  0  0  0  0  0  0  0  0  0  0  0
    2.3921   -1.3289    0.6402 H   0  0  0  0  0  0  0  0  0  0  0  0
    2.4947    1.2042    0.0624 H   0  0  0  0  0  0  0  0  0  0  0  0
    0.3042    1.8147   -1.2723 H   0  0  0  0  0  0  0  0  0  0  0  0
    0.3461   -0.6096   -2.0947 H   0  0  0  0  0  0  0  0  0  0  0  0
   -2.7982    0.2179    0.4941 H   0  0  0  0  0  0  0  0  0  0  0  0
   -0.7627   -0.6716    2.0402 H   0  0  0  0  0  0  0  0  0  0  0  0
   -0.0004   -2.2080   -0.0718 H   0  0  0  0  0  0  0  0  0  0  0  0
   -0.7901    1.8435    1.2325 H   0  0  0  0  0  0  0  0  0  0  0  0
  1  2  2  0
  2  3  1  0
  3  4  1  0
  4  5  1  0
  5  6  1  0
  6  7  1  0
  7  8  1  0
  7  9  1  0
  8  1  1  0
  9  3  1  0
  8  4  1  0
  9  6  1  0
  1 10  1  0
  2 11  1  0
  3 12  1  0
  4 13  1  0
  6 14  1  0
  7 15  1  0
  8 16  1  0
  9 17  1  0
M  END
