
     RDKit          3D

 17 19  0  0  0  0  0  0  0  0999 V2000
    1.9072    0.1201   -0.2311 C   0  0  0  0  0  0  0  0  0  0  0  0
    1.2815   -1.0518   -0.3207 C   0  0  0  0  0  0  0  0  0  0  0  0
    0.0141   -0.8584    0.3383 C   0  0  0  0  0  0  0  0  0  0  0  0
   -1.2721   -1.4032    0.0902 C   0  0  0  0  0  0  0  0  0  0  0  0
   -1.0221   -0.1542   -0.6037 C   0  0  0  0  0  0  0  0  0  0  0  0
   -1.1348    1.2126   -0.0401 C   0  0  0  0  0  0  0  0  0  0  0  0
    0.1604    1.7597   -0.0195 O   0  0  0  0  0  0  0  0  0  0  0  0
    1.0622    0.9936    0.6667 C   0  0  0  0  0  0  0  0  0  0  0  0
    0.3323    0.0180    1.3783 O   0  0  0  0  0  0  0  0  0  0  0  0
    2.8275    0.4726   -0.6681 H   0  0  0  0  0  0  0  0  0  0  0  0
    1.6907   -1.9247   -0.7988 H   0  0  0  0  0  0  0  0  0  0  0  0
   -1.3823   -2.3175   -0.5031 H   0  0  0  0  0  0  0  0  0  0  0  0
   -2.0230   -1.3612    0.9340 H   0  0  0  0  0  0  0  0  0  0  0  0
   -0.8376   -0.1987   -1.6881 H   0  0  0  0  0  0  0  0  0  0  0  0
   -1.6419    1.2899    0.9230 H   0  0  0  0  0  0  0  0  0  0  0  0
   -1.7030    1.8436   -0.7774 H   0  0  0  0  0  0  0  0  0  0  0  0
    1.7411    1.5597    1.3202 H   0  0  0  0  0  0  0  0  0  0  0  0
  1  2  2  0
  2  3  1  0
  3  4  1  0
  4  5  1  0
  5  6  1  0
  6  7  1  0
  7  8  1  0
  8  9  1  0
  8  1  1  0
  5  3  1  0
  9  3  1  0
  1 10  1  0
  2 11  1  0
  4 12  1  0
  4 13  1  0
  5 14  1  0
  6 15  1  0
  6 16  1  0
  8 17  1  0
M  END
