
     RDKit          3D

 19 20  0  0  0  0  0  0  0  0999 V2000
    1.8561   -0.8809    0.5138 C   0  0  0  0  0  0  0  0  0  0  0  0
    0.7056   -1.4904    0.2893 C   0  0  0  0  0  0  0  0  0  0  0  0
   -0.1439   -0.6141   -0.5467 C   0  0  0  0  0  0  0  0  0  0  0  0
   -1.6036   -0.7680   -0.2838 C   0  0  0  0  0  0  0  0  0  0  0  0
   -2.1503    0.1561    0.5612 O   0  0  0  0  0  0  0  0  0  0  0  0
   -1.5228    1.3700    0.6009 C   0  0  0  0  0  0  0  0  0  0  0  0
   -0.1453    1.2627    0.8507 O   0  0  0  0  0  0  0  0  0  0  0  0
    0.4030    0.7411   -0.3220 C   0  0  0  0  0  0  0  0  0  0  0  0
    1.8891    0.4726   -0.1538 C   0  0  0  0  0  0  0  0  0  0  0  0
    2.6760   -1.3160    1.1125 H   0  0  0  0  0  0  0  0  0  0  0  0
    0.4600   -2.4966    0.6841 H   0  0  0  0  0  0  0  0  0  0  0  0
    0.0749   -0.8944   -1.6189 H   0  0  0  0  0  0  0  0  0  0  0  0
   -1.7483   -1.7806    0.1933 H   0  0  0  0  0  0  0  0  0  0  0  0
   -2.1417   -0.7146   -1.2516 H   0  0  0  0  0  0  0  0  0  0  0  0
   -2.0190    1.9868    1.3826 H   0  0  0  0  0  0  0  0  0  0  0  0
   -1.6297    1.9458   -0.3478 H   0  0  0  0  0  0  0  0  0  0  0  0
    0.2662    1.4572   -1.1464 H   0  0  0  0  0  0  0  0  0  0  0  0
    2.3579    1.1497    0.5892 H   0  0  0  0  0  0  0  0  0  0  0  0
    2.4159    0.4134   -1.1065 H   0  0  0  0  0  0  0  0  0  0  0  0
  1  2  2  0
  2  3  1  0
  3  4  1  0
  4  5  1  0
  5  6  1  0
  6  7  1  0
  7  8  1  0
  8  9  1  0
  9  1  1  0
  8  3  1  0
  1 10  1  0
  2 11  1  0
  3 12  1  0
  4 13  1  0
  4 14  1  0
  6 15  1  0
  6 16  1  0
  8 17  1  0
  9 18  1  0
  9 19  1  0
M  END
