
     RDKit          3D

 21 23  0  0  0  0  0  0  0  0999 V2000
   -1.9497    0.9539    0.7591 C   0  0  0  0  0  0  0  0  0  0  0  0
   -2.3133    0.1964   -0.2786 C   0  0  0  0  0  0  0  0  0  0  0  0
   -0.9971   -0.4057   -0.7024 C   0  0  0  0  0  0  0  0  0  0  0  0
   -0.1221    0.8444   -0.6420 C   0  0  0  0  0  0  0  0  0  0  0  0
    1.2854    0.5667   -1.0006 C   0  0  0  0  0  0  0  0  0  0  0  0
    1.9438   -0.2640    0.0570 C   0  0  0  0  0  0  0  0  0  0  0  0
    0.9635   -1.2986    0.5765 C   0  0  0  0  0  0  0  0  0  0  0  0
   -0.4140   -0.7543    0.6418 C   0  0  0  0  0  0  0  0  0  0  0  0
   -0.4894    0.7707    0.8232 C   0  0  0  0  0  0  0  0  0  0  0  0
   -2.5627    1.5592    1.4044 H   0  0  0  0  0  0  0  0  0  0  0  0
   -3.2939    0.0435   -0.7149 H   0  0  0  0  0  0  0  0  0  0  0  0
   -0.9481   -1.0473   -1.5177 H   0  0  0  0  0  0  0  0  0  0  0  0
   -0.6278    1.6901   -1.1548 H   0  0  0  0  0  0  0  0  0  0  0  0
    1.8359    1.4875   -1.1856 H   0  0  0  0  0  0  0  0  0  0  0  0
    1.2899   -0.0233   -1.9630 H   0  0  0  0  0  0  0  0  0  0  0  0
    2.7529   -0.8578   -0.4615 H   0  0  0  0  0  0  0  0  0  0  0  0
    2.3520    0.3459    0.8762 H   0  0  0  0  0  0  0  0  0  0  0  0
    1.0158   -2.2424    0.0049 H   0  0  0  0  0  0  0  0  0  0  0  0
    1.2893   -1.5422    1.6093 H   0  0  0  0  0  0  0  0  0  0  0  0
   -1.1167   -1.2449    1.3153 H   0  0  0  0  0  0  0  0  0  0  0  0
    0.1062    1.2222    1.5534 H   0  0  0  0  0  0  0  0  0  0  0  0
  1  2  2  0
  2  3  1  0
  3  4  1  0
  4  5  1  0
  5  6  1  0
  6  7  1  0
  7  8  1  0
  8  9  1  0
  9  1  1  0
  8  3  1  0
  9  4  1  0
  1 10  1  0
  2 11  1  0
  3 12  1  0
  4 13  1  0
  5 14  1  0
  5 15  1  0
  6 16  1  0
  6 17  1  0
  7 18  1  0
  7 19  1  0
  8 20  1  0
  9 21  1  0
M  END
