
     RDKit          3D

 21 23  0  0  0  0  0  0  0  0999 V2000
   -1.8131    0.7703   -1.3363 C   0  0  0  0  0  0  0  0  0  0  0  0
   -0.7021    0.0908   -1.5204 C   0  0  0  0  0  0  0  0  0  0  0  0
   -0.0533   -0.2160   -0.2450 C   0  0  0  0  0  0  0  0  0  0  0  0
   -1.1294   -0.0845    0.7763 C   0  0  0  0  0  0  0  0  0  0  0  0
   -2.0104    0.9844    0.1366 C   0  0  0  0  0  0  0  0  0  0  0  0
    0.7449   -1.4939   -0.2031 C   0  0  0  0  0  0  0  0  0  0  0  0
    1.9664   -0.7817    0.2704 C   0  0  0  0  0  0  0  0  0  0  0  0
    1.9130    0.2761    1.3084 C   0  0  0  0  0  0  0  0  0  0  0  0
    1.2214    0.5470    0.0419 C   0  0  0  0  0  0  0  0  0  0  0  0
   -2.5296    1.1535   -2.0671 H   0  0  0  0  0  0  0  0  0  0  0  0
   -0.3002   -0.2139   -2.4918 H   0  0  0  0  0  0  0  0  0  0  0  0
   -0.7856    0.1879    1.7727 H   0  0  0  0  0  0  0  0  0  0  0  0
   -1.6934   -1.0513    0.8236 H   0  0  0  0  0  0  0  0  0  0  0  0
   -1.6350    1.9735    0.4004 H   0  0  0  0  0  0  0  0  0  0  0  0
   -3.0373    0.8324    0.4582 H   0  0  0  0  0  0  0  0  0  0  0  0
    0.8447   -1.9076   -1.2355 H   0  0  0  0  0  0  0  0  0  0  0  0
    0.3430   -2.2799    0.4684 H   0  0  0  0  0  0  0  0  0  0  0  0
    2.9045   -0.9374   -0.2865 H   0  0  0  0  0  0  0  0  0  0  0  0
    2.8529    0.8160    1.4928 H   0  0  0  0  0  0  0  0  0  0  0  0
    1.2615    0.1794    2.2062 H   0  0  0  0  0  0  0  0  0  0  0  0
    1.6371    1.1548   -0.7702 H   0  0  0  0  0  0  0  0  0  0  0  0
  1  2  2  0
  2  3  1  0
  3  4  1  0
  4  5  1  0
  3  6  1  0
  6  7  1  0
  7  8  1  0
  8  9  1  0
  5  1  1  0
  9  7  1  0
  9  3  1  0
  1 10  1  0
  2 11  1  0
  4 12  1  0
  4 13  1  0
  5 14  1  0
  5 15  1  0
  6 16  1  0
  6 17  1  0
  7 18  1  0
  8 19  1  0
  8 20  1  0
  9 21  1  0
M  END
