
     RDKit          3D

 21 22  0  0  0  0  0  0  0  0999 V2000
   -1.7050    0.4643   -1.2531 C   0  0  0  0  0  0  0  0  0  0  0  0
   -0.3711    0.4271   -1.4610 C   0  0  0  0  0  0  0  0  0  0  0  0
    0.4164    0.3010   -0.1782 C   0  0  0  0  0  0  0  0  0  0  0  0
    1.8676    0.3118   -0.5355 C   0  0  0  0  0  0  0  0  0  0  0  0
    2.7891    0.1910    0.6662 C   0  0  0  0  0  0  0  0  0  0  0  0
    2.6583   -0.8062   -0.2991 O   0  0  0  0  0  0  0  0  0  0  0  0
   -0.0502   -0.9876    0.4469 C   0  0  0  0  0  0  0  0  0  0  0  0
   -1.4683   -0.7432    0.9192 C   0  0  0  0  0  0  0  0  0  0  0  0
   -2.1373    0.3773    0.1543 C   0  0  0  0  0  0  0  0  0  0  0  0
   -2.3436    0.5527   -2.1075 H   0  0  0  0  0  0  0  0  0  0  0  0
    0.0789    0.4805   -2.4205 H   0  0  0  0  0  0  0  0  0  0  0  0
    0.1196    1.1619    0.4488 H   0  0  0  0  0  0  0  0  0  0  0  0
    2.1543    0.9507   -1.3713 H   0  0  0  0  0  0  0  0  0  0  0  0
    2.3609   -0.0502    1.6463 H   0  0  0  0  0  0  0  0  0  0  0  0
    3.6588    0.8792    0.6138 H   0  0  0  0  0  0  0  0  0  0  0  0
    0.6045   -1.2451    1.3127 H   0  0  0  0  0  0  0  0  0  0  0  0
   -0.0177   -1.7964   -0.3160 H   0  0  0  0  0  0  0  0  0  0  0  0
   -2.0818   -1.6668    0.8852 H   0  0  0  0  0  0  0  0  0  0  0  0
   -1.3763   -0.4199    1.9941 H   0  0  0  0  0  0  0  0  0  0  0  0
   -1.8998    1.3690    0.6380 H   0  0  0  0  0  0  0  0  0  0  0  0
   -3.2573    0.2491    0.2166 H   0  0  0  0  0  0  0  0  0  0  0  0
  1  2  2  0
  2  3  1  0
  3  4  1  0
  4  5  1  0
  5  6  1  0
  3  7  1  0
  7  8  1  0
  8  9  1  0
  9  1  1  0
  6  4  1  0
  1 10  1  0
  2 11  1  0
  3 12  1  0
  4 13  1  0
  5 14  1  0
  5 15  1  0
  7 16  1  0
  7 17  1  0
  8 18  1  0
  8 19  1  0
  9 20  1  0
  9 21  1  0
M  END
