
     RDKit          3D

 19 21  0  0  0  0  0  0  0  0999 V2000
    1.9807    0.3981   -0.1560 C   0  0  0  0  0  0  0  0  0  0  0  0
    1.0716    1.3794   -0.1052 C   0  0  0  0  0  0  0  0  0  0  0  0
   -0.2982    1.0417   -0.1886 C   0  0  0  0  0  0  0  0  0  0  0  0
   -0.6190    0.6801   -1.6198 O   0  0  0  0  0  0  0  0  0  0  0  0
   -1.4987    1.1257   -0.6492 C   0  0  0  0  0  0  0  0  0  0  0  0
   -1.9962   -0.0973    0.1581 C   0  0  0  0  0  0  0  0  0  0  0  0
   -0.6128   -0.0904    0.7673 C   0  0  0  0  0  0  0  0  0  0  0  0
    0.2526   -1.2653    0.5825 C   0  0  0  0  0  0  0  0  0  0  0  0
    1.4265   -0.9763   -0.2990 C   0  0  0  0  0  0  0  0  0  0  0  0
    3.0489    0.6050   -0.0958 H   0  0  0  0  0  0  0  0  0  0  0  0
    1.4510    2.3855   -0.0018 H   0  0  0  0  0  0  0  0  0  0  0  0
   -2.2639    1.8929   -0.9117 H   0  0  0  0  0  0  0  0  0  0  0  0
   -2.8213    0.1776    0.8487 H   0  0  0  0  0  0  0  0  0  0  0  0
   -2.2049   -0.9756   -0.4787 H   0  0  0  0  0  0  0  0  0  0  0  0
   -0.6701    0.3211    1.7885 H   0  0  0  0  0  0  0  0  0  0  0  0
    0.6479   -1.5946    1.5888 H   0  0  0  0  0  0  0  0  0  0  0  0
   -0.2554   -2.1655    0.1755 H   0  0  0  0  0  0  0  0  0  0  0  0
    1.0883   -1.1633   -1.3576 H   0  0  0  0  0  0  0  0  0  0  0  0
    2.2728   -1.6789   -0.0458 H   0  0  0  0  0  0  0  0  0  0  0  0
  1  2  2  0
  2  3  1  0
  3  4  1  0
  4  5  1  0
  5  6  1  0
  6  7  1  0
  7  8  1  0
  8  9  1  0
  9  1  1  0
  5  3  1  0
  7  3  1  0
  1 10  1  0
  2 11  1  0
  5 12  1  0
  6 13  1  0
  6 14  1  0
  7 15  1  0
  8 16  1  0
  8 17  1  0
  9 18  1  0
  9 19  1  0
M  END
