
     RDKit          3D

 21 23  0  0  0  0  0  0  0  0999 V2000
    0.5322    1.5509   -0.2743 C   0  0  0  0  0  0  0  0  0  0  0  0
   -0.6691    1.3343   -0.7292 C   0  0  0  0  0  0  0  0  0  0  0  0
   -1.5965    0.1844   -0.4931 C   0  0  0  0  0  0  0  0  0  0  0  0
   -1.4731   -0.2579    0.9376 C   0  0  0  0  0  0  0  0  0  0  0  0
   -0.4233   -1.1609    0.4707 C   0  0  0  0  0  0  0  0  0  0  0  0
    0.5277   -0.9826   -0.6473 C   0  0  0  0  0  0  0  0  0  0  0  0
    1.6807   -0.6402    0.0915 C   0  0  0  0  0  0  0  0  0  0  0  0
    1.4414    0.7890    0.6232 C   0  0  0  0  0  0  0  0  0  0  0  0
   -0.8462   -1.1404   -0.7839 C   0  0  0  0  0  0  0  0  0  0  0  0
    0.9548    2.5049   -0.6388 H   0  0  0  0  0  0  0  0  0  0  0  0
   -1.0919    2.0859   -1.3840 H   0  0  0  0  0  0  0  0  0  0  0  0
   -2.5794    0.2566   -0.9301 H   0  0  0  0  0  0  0  0  0  0  0  0
   -2.3994   -0.8334    1.2383 H   0  0  0  0  0  0  0  0  0  0  0  0
   -1.2824    0.5005    1.6891 H   0  0  0  0  0  0  0  0  0  0  0  0
   -0.2845   -2.1437    1.0129 H   0  0  0  0  0  0  0  0  0  0  0  0
    0.5950   -0.2713   -1.5291 H   0  0  0  0  0  0  0  0  0  0  0  0
    2.0304   -1.2584    0.9716 H   0  0  0  0  0  0  0  0  0  0  0  0
    2.6162   -0.6497   -0.5332 H   0  0  0  0  0  0  0  0  0  0  0  0
    1.0988    0.7640    1.6708 H   0  0  0  0  0  0  0  0  0  0  0  0
    2.4458    1.2628    0.6416 H   0  0  0  0  0  0  0  0  0  0  0  0
   -1.2771   -1.8948   -1.4044 H   0  0  0  0  0  0  0  0  0  0  0  0
  1  2  2  0
  2  3  1  0
  3  4  1  0
  4  5  1  0
  5  6  1  0
  6  7  1  0
  7  8  1  0
  6  9  1  0
  8  1  1  0
  9  3  1  0
  9  5  1  0
  1 10  1  0
  2 11  1  0
  3 12  1  0
  4 13  1  0
  4 14  1  0
  5 15  1  0
  6 16  1  0
  7 17  1  0
  7 18  1  0
  8 19  1  0
  8 20  1  0
  9 21  1  0
M  END
