
     RDKit          3D

 16 18  0  0  0  0  0  0  0  0999 V2000
   -1.4074    0.9890   -0.2564 C   0  0  0  0  0  0  0  0  0  0  0  0
   -0.1977    1.4783   -0.0330 C   0  0  0  0  0  0  0  0  0  0  0  0
    0.6627    0.5513    0.6905 C   0  0  0  0  0  0  0  0  0  0  0  0
    1.7892   -0.1230   -0.1021 C   0  0  0  0  0  0  0  0  0  0  0  0
    0.7523   -1.1704   -0.4561 C   0  0  0  0  0  0  0  0  0  0  0  0
   -0.1430   -0.7468    0.6394 C   0  0  0  0  0  0  0  0  0  0  0  0
   -1.5474   -0.3708    0.2948 C   0  0  0  0  0  0  0  0  0  0  0  0
    0.3027   -0.1390    1.7967 O   0  0  0  0  0  0  0  0  0  0  0  0
   -2.1878    1.5176   -0.7743 H   0  0  0  0  0  0  0  0  0  0  0  0
    0.1072    2.4658   -0.3594 H   0  0  0  0  0  0  0  0  0  0  0  0
    2.1002    0.5360   -0.9168 H   0  0  0  0  0  0  0  0  0  0  0  0
    2.5973   -0.5175    0.5575 H   0  0  0  0  0  0  0  0  0  0  0  0
    0.3151   -0.9065   -1.4616 H   0  0  0  0  0  0  0  0  0  0  0  0
    1.1071   -2.2004   -0.4849 H   0  0  0  0  0  0  0  0  0  0  0  0
   -2.1807   -0.2861    1.2245 H   0  0  0  0  0  0  0  0  0  0  0  0
   -2.0697   -1.0775   -0.3589 H   0  0  0  0  0  0  0  0  0  0  0  0
  1  2  2  0
  2  3  1  0
  3  4  1  0
  4  5  1  0
  5  6  1  0
  6  7  1  0
  6  8  1  0
  7  1  1  0
  6  3  1  0
  8  3  1  0
  1  9  1  0
  2 10  1  0
  4 11  1  0
  4 12  1  0
  5 13  1  0
  5 14  1  0
  7 15  1  0
  7 16  1  0
M  END
