
     RDKit          3D

 21 22  0  0  0  0  0  0  0  0999 V2000
   -0.7864   -1.0850   -0.7519 C   0  0  0  0  0  0  0  0  0  0  0  0
    0.3579   -0.5174   -0.4637 C   0  0  0  0  0  0  0  0  0  0  0  0
    1.7894   -0.8138   -0.8928 C   0  0  0  0  0  0  0  0  0  0  0  0
    2.5381   -0.0958    0.2195 C   0  0  0  0  0  0  0  0  0  0  0  0
    1.5899    0.2352    1.2028 O   0  0  0  0  0  0  0  0  0  0  0  0
    0.5139    0.6368    0.4168 C   0  0  0  0  0  0  0  0  0  0  0  0
   -0.7017    1.0305    1.1763 C   0  0  0  0  0  0  0  0  0  0  0  0
   -1.9848    0.7364    0.4497 C   0  0  0  0  0  0  0  0  0  0  0  0
   -2.0405   -0.5921   -0.1910 C   0  0  0  0  0  0  0  0  0  0  0  0
   -0.7606   -1.9629   -1.4469 H   0  0  0  0  0  0  0  0  0  0  0  0
    1.9960   -1.8910   -0.8039 H   0  0  0  0  0  0  0  0  0  0  0  0
    1.9985   -0.3866   -1.8818 H   0  0  0  0  0  0  0  0  0  0  0  0
    3.3397   -0.7473    0.6335 H   0  0  0  0  0  0  0  0  0  0  0  0
    2.9420    0.8897   -0.1339 H   0  0  0  0  0  0  0  0  0  0  0  0
    0.8962    1.4910   -0.2106 H   0  0  0  0  0  0  0  0  0  0  0  0
   -0.6927    0.5351    2.1688 H   0  0  0  0  0  0  0  0  0  0  0  0
   -0.6647    2.1244    1.3617 H   0  0  0  0  0  0  0  0  0  0  0  0
   -2.2614    1.5479   -0.2729 H   0  0  0  0  0  0  0  0  0  0  0  0
   -2.8008    0.7775    1.2304 H   0  0  0  0  0  0  0  0  0  0  0  0
   -2.8293   -0.5496   -0.9869 H   0  0  0  0  0  0  0  0  0  0  0  0
   -2.4387   -1.3632    0.5210 H   0  0  0  0  0  0  0  0  0  0  0  0
  1  2  2  0
  2  3  1  0
  3  4  1  0
  4  5  1  0
  5  6  1  0
  6  7  1  0
  7  8  1  0
  8  9  1  0
  9  1  1  0
  6  2  1  0
  1 10  1  0
  3 11  1  0
  3 12  1  0
  4 13  1  0
  4 14  1  0
  6 15  1  0
  7 16  1  0
  7 17  1  0
  8 18  1  0
  8 19  1  0
  9 20  1  0
  9 21  1  0
M  END
