
     RDKit          2D

 19 21  0  0  0  0  0  0  0  0999 V2000
    1.5000    1.0607    0.0000 C   0  0  0  0  0  0  0  0  0  0  0  0
    2.2500   -0.2384    0.0000 C   0  0  0  0  0  0  0  0  0  0  0  0
    1.5000   -1.5374    0.0000 C   0  0  0  0  0  0  0  0  0  0  0  0
    0.9752   -2.9445    0.0000 C   0  0  0  0  0  0  0  0  0  0  0  0
   -0.4544   -2.4902    0.0000 C   0  0  0  0  0  0  0  0  0  0  0  0
   -0.0000   -1.0607    0.0000 C   0  0  0  0  0  0  0  0  0  0  0  0
    1.0607    0.0000    0.0000 C   0  0  0  0  0  0  0  0  0  0  0  0
    0.0000    1.0607    0.0000 C   0  0  0  0  0  0  0  0  0  0  0  0
   -1.0607    0.0000    0.0000 O   0  0  0  0  0  0  0  0  0  0  0  0
    2.2500    2.3597    0.0000 H   0  0  0  0  0  0  0  0  0  0  0  0
    3.7500   -0.2384    0.0000 H   0  0  0  0  0  0  0  0  0  0  0  0
    2.9489   -1.9256    0.0000 H   0  0  0  0  0  0  0  0  0  0  0  0
    0.5208   -4.3741    0.0000 H   0  0  0  0  0  0  0  0  0  0  0  0
    2.4047   -3.3989    0.0000 H   0  0  0  0  0  0  0  0  0  0  0  0
   -1.8839   -2.0358    0.0000 H   0  0  0  0  0  0  0  0  0  0  0  0
   -0.9087   -3.9197    0.0000 H   0  0  0  0  0  0  0  0  0  0  0  0
    2.3465    0.7725    0.0000 H   0  0  0  0  0  0  0  0  0  0  0  0
    1.7440   -0.4105    0.0000 H   0  0  0  0  0  0  0  0  0  0  0  0
    0.0000    2.5607    0.0000 H   0  0  0  0  0  0  0  0  0  0  0  0
  1  2  2  0
  2  3  1  0
  3  4  1  0
  4  5  1  0
  5  6  1  0
  6  7  1  0
  7  8  1  0
  8  9  1  0
  8  1  1  0
  6  3  1  0
  9  6  1  0
  1 10  1  0
  2 11  1  0
  3 12  1  0
  4 13  1  0
  4 14  1  0
  5 15  1  0
  5 16  1  0
  7 17  1  0
  7 18  1  0
  8 19  1  0
M  END
