
     RDKit          3D

 19 20  0  0  0  0  0  0  0  0999 V2000
   -1.9375   -0.4789    0.6075 C   0  0  0  0  0  0  0  0  0  0  0  0
   -1.7636    0.8289    0.5513 C   0  0  0  0  0  0  0  0  0  0  0  0
   -0.7545    1.5076   -0.3020 C   0  0  0  0  0  0  0  0  0  0  0  0
    0.4580    0.6672   -0.5617 C   0  0  0  0  0  0  0  0  0  0  0  0
    1.5832    1.1189    0.1401 O   0  0  0  0  0  0  0  0  0  0  0  0
    2.4093    0.0097    0.1782 C   0  0  0  0  0  0  0  0  0  0  0  0
    1.4811   -1.1198    0.3461 C   0  0  0  0  0  0  0  0  0  0  0  0
    0.2989   -0.7450   -0.0948 C   0  0  0  0  0  0  0  0  0  0  0  0
   -1.0652   -1.3261   -0.2396 C   0  0  0  0  0  0  0  0  0  0  0  0
   -2.6714   -0.9618    1.2290 H   0  0  0  0  0  0  0  0  0  0  0  0
   -2.4095    1.4368    1.1770 H   0  0  0  0  0  0  0  0  0  0  0  0
   -1.2331    1.7962   -1.2426 H   0  0  0  0  0  0  0  0  0  0  0  0
   -0.4349    2.4335    0.2287 H   0  0  0  0  0  0  0  0  0  0  0  0
    0.7494    0.5980   -1.6279 H   0  0  0  0  0  0  0  0  0  0  0  0
    3.1647    0.0623    0.9860 H   0  0  0  0  0  0  0  0  0  0  0  0
    2.8848   -0.1090   -0.8262 H   0  0  0  0  0  0  0  0  0  0  0  0
    1.6796   -2.1141    0.7564 H   0  0  0  0  0  0  0  0  0  0  0  0
   -1.1051   -2.3955    0.0252 H   0  0  0  0  0  0  0  0  0  0  0  0
   -1.3340   -1.2092   -1.3305 H   0  0  0  0  0  0  0  0  0  0  0  0
  1  2  2  0
  2  3  1  0
  3  4  1  0
  4  5  1  0
  5  6  1  0
  6  7  1  0
  7  8  2  0
  8  9  1  0
  9  1  1  0
  8  4  1  0
  1 10  1  0
  2 11  1  0
  3 12  1  0
  3 13  1  0
  4 14  1  0
  6 15  1  0
  6 16  1  0
  7 17  1  0
  9 18  1  0
  9 19  1  0
M  END
