
     RDKit          3D

 19 20  0  0  0  0  0  0  0  0999 V2000
   -1.5886    0.1466   -0.6152 C   0  0  0  0  0  0  0  0  0  0  0  0
   -0.8564    1.2440   -0.6161 C   0  0  0  0  0  0  0  0  0  0  0  0
    0.3130    1.3474    0.2589 C   0  0  0  0  0  0  0  0  0  0  0  0
    0.1323    0.3441    1.4074 C   0  0  0  0  0  0  0  0  0  0  0  0
    0.0572   -1.0046    0.7573 C   0  0  0  0  0  0  0  0  0  0  0  0
   -0.9594   -1.1446   -0.3131 C   0  0  0  0  0  0  0  0  0  0  0  0
    1.3170   -1.2243    0.1868 O   0  0  0  0  0  0  0  0  0  0  0  0
    1.6373   -0.2695   -0.7474 C   0  0  0  0  0  0  0  0  0  0  0  0
    1.5059    1.0239   -0.3524 O   0  0  0  0  0  0  0  0  0  0  0  0
   -2.6510    0.1589   -0.8314 H   0  0  0  0  0  0  0  0  0  0  0  0
   -1.1446    2.0508   -1.2723 H   0  0  0  0  0  0  0  0  0  0  0  0
    0.4311    2.3752    0.6784 H   0  0  0  0  0  0  0  0  0  0  0  0
   -0.7453    0.6142    1.9969 H   0  0  0  0  0  0  0  0  0  0  0  0
    1.0911    0.3774    1.9802 H   0  0  0  0  0  0  0  0  0  0  0  0
   -0.1316   -1.7535    1.5358 H   0  0  0  0  0  0  0  0  0  0  0  0
   -1.7360   -1.9210   -0.0489 H   0  0  0  0  0  0  0  0  0  0  0  0
   -0.5273   -1.5290   -1.2821 H   0  0  0  0  0  0  0  0  0  0  0  0
    1.1238   -0.4198   -1.7335 H   0  0  0  0  0  0  0  0  0  0  0  0
    2.7317   -0.4162   -0.9891 H   0  0  0  0  0  0  0  0  0  0  0  0
  1  2  2  0
  2  3  1  0
  3  4  1  0
  4  5  1  0
  5  6  1  0
  5  7  1  0
  7  8  1  0
  8  9  1  0
  6  1  1  0
  9  3  1  0
  1 10  1  0
  2 11  1  0
  3 12  1  0
  4 13  1  0
  4 14  1  0
  5 15  1  0
  6 16  1  0
  6 17  1  0
  8 18  1  0
  8 19  1  0
M  END
