
     RDKit          3D

 19 20  0  0  0  0  0  0  0  0999 V2000
   -2.0515    0.5987   -0.1516 C   0  0  0  0  0  0  0  0  0  0  0  0
   -1.0246    1.3305    0.2273 C   0  0  0  0  0  0  0  0  0  0  0  0
    0.3587    0.8086    0.2230 C   0  0  0  0  0  0  0  0  0  0  0  0
    1.5425    1.2098    0.6155 C   0  0  0  0  0  0  0  0  0  0  0  0
    2.5567    0.1668    0.3069 C   0  0  0  0  0  0  0  0  0  0  0  0
    1.7775   -0.9905    0.1416 O   0  0  0  0  0  0  0  0  0  0  0  0
    0.5849   -0.5602   -0.3781 C   0  0  0  0  0  0  0  0  0  0  0  0
   -0.6318   -1.3690    0.0579 C   0  0  0  0  0  0  0  0  0  0  0  0
   -1.8429   -0.7886   -0.6002 C   0  0  0  0  0  0  0  0  0  0  0  0
   -3.0787    1.0015   -0.1423 H   0  0  0  0  0  0  0  0  0  0  0  0
   -1.1874    2.3419    0.5527 H   0  0  0  0  0  0  0  0  0  0  0  0
    1.7449    2.1601    1.0924 H   0  0  0  0  0  0  0  0  0  0  0  0
    3.1662    0.3906   -0.5675 H   0  0  0  0  0  0  0  0  0  0  0  0
    3.1522    0.0173    1.2313 H   0  0  0  0  0  0  0  0  0  0  0  0
    0.5398   -0.5258   -1.4832 H   0  0  0  0  0  0  0  0  0  0  0  0
   -0.4834   -2.4351   -0.1566 H   0  0  0  0  0  0  0  0  0  0  0  0
   -0.7316   -1.1787    1.1616 H   0  0  0  0  0  0  0  0  0  0  0  0
   -2.7597   -1.3897   -0.4227 H   0  0  0  0  0  0  0  0  0  0  0  0
   -1.6320   -0.7883   -1.7079 H   0  0  0  0  0  0  0  0  0  0  0  0
  1  2  2  0
  2  3  1  0
  3  4  2  0
  4  5  1  0
  5  6  1  0
  6  7  1  0
  7  8  1  0
  8  9  1  0
  9  1  1  0
  7  3  1  0
  1 10  1  0
  2 11  1  0
  4 12  1  0
  5 13  1  0
  5 14  1  0
  7 15  1  0
  8 16  1  0
  8 17  1  0
  9 18  1  0
  9 19  1  0
M  END
