
     RDKit          3D

 22 22  0  0  0  0  0  0  0  0999 V2000
   -0.9011    1.6954    0.1033 C   0  0  0  0  0  0  0  0  0  0  0  0
    0.4278    1.7884    0.1272 C   0  0  0  0  0  0  0  0  0  0  0  0
    1.5088    0.8205    0.4113 C   0  0  0  0  0  0  0  0  0  0  0  0
    1.5492   -0.2362   -0.6359 C   0  0  0  0  0  0  0  0  0  0  0  0
    0.9303   -1.5352   -0.2464 C   0  0  0  0  0  0  0  0  0  0  0  0
   -0.4092   -1.4067    0.4136 C   0  0  0  0  0  0  0  0  0  0  0  0
   -1.4121   -0.6450   -0.3772 C   0  0  0  0  0  0  0  0  0  0  0  0
   -1.8763    0.6266    0.3397 C   0  0  0  0  0  0  0  0  0  0  0  0
   -1.3573    2.6454   -0.1539 H   0  0  0  0  0  0  0  0  0  0  0  0
    0.7405    2.7952   -0.1171 H   0  0  0  0  0  0  0  0  0  0  0  0
    2.4688    1.4087    0.3972 H   0  0  0  0  0  0  0  0  0  0  0  0
    1.4493    0.4084    1.4492 H   0  0  0  0  0  0  0  0  0  0  0  0
    2.6337   -0.4484   -0.8703 H   0  0  0  0  0  0  0  0  0  0  0  0
    1.1117    0.1424   -1.5845 H   0  0  0  0  0  0  0  0  0  0  0  0
    1.5943   -2.0789    0.4825 H   0  0  0  0  0  0  0  0  0  0  0  0
    0.8665   -2.1801   -1.1405 H   0  0  0  0  0  0  0  0  0  0  0  0
   -0.8006   -2.4584    0.5313 H   0  0  0  0  0  0  0  0  0  0  0  0
   -0.2819   -1.0111    1.4539 H   0  0  0  0  0  0  0  0  0  0  0  0
   -2.3638   -1.2298   -0.5322 H   0  0  0  0  0  0  0  0  0  0  0  0
   -1.0375   -0.4239   -1.3939 H   0  0  0  0  0  0  0  0  0  0  0  0
   -2.8680    0.9459   -0.0598 H   0  0  0  0  0  0  0  0  0  0  0  0
   -1.9731    0.3770    1.4025 H   0  0  0  0  0  0  0  0  0  0  0  0
  1  2  2  3
  2  3  1  0
  3  4  1  0
  4  5  1  0
  5  6  1  0
  6  7  1  0
  7  8  1  0
  8  1  1  0
  1  9  1  0
  2 10  1  0
  3 11  1  0
  3 12  1  0
  4 13  1  0
  4 14  1  0
  5 15  1  0
  5 16  1  0
  6 17  1  0
  6 18  1  0
  7 19  1  0
  7 20  1  0
  8 21  1  0
  8 22  1  0
M  END
