
     RDKit          3D

 18 20  0  0  0  0  0  0  0  0999 V2000
   -1.4100   -0.5933   -0.7594 C   0  0  0  0  0  0  0  0  0  0  0  0
   -1.5049    0.7238   -0.7359 C   0  0  0  0  0  0  0  0  0  0  0  0
   -0.6639    1.3590    0.2710 C   0  0  0  0  0  0  0  0  0  0  0  0
    0.7105    1.0117    0.6003 C   0  0  0  0  0  0  0  0  0  0  0  0
    1.5832    0.1611   -0.2569 C   0  0  0  0  0  0  0  0  0  0  0  0
    0.9073   -1.1647   -0.3864 C   0  0  0  0  0  0  0  0  0  0  0  0
   -0.4511   -1.0114    0.2738 C   0  0  0  0  0  0  0  0  0  0  0  0
   -0.3299    0.1574    1.1713 C   0  0  0  0  0  0  0  0  0  0  0  0
   -1.9359   -1.3022   -1.4186 H   0  0  0  0  0  0  0  0  0  0  0  0
   -2.1681    1.2538   -1.4281 H   0  0  0  0  0  0  0  0  0  0  0  0
   -1.0814    2.2730    0.7929 H   0  0  0  0  0  0  0  0  0  0  0  0
    1.2617    1.6733    1.2859 H   0  0  0  0  0  0  0  0  0  0  0  0
    2.5633   -0.0122    0.2462 H   0  0  0  0  0  0  0  0  0  0  0  0
    1.8023    0.5892   -1.2510 H   0  0  0  0  0  0  0  0  0  0  0  0
    1.4372   -1.9983    0.0813 H   0  0  0  0  0  0  0  0  0  0  0  0
    0.7832   -1.4176   -1.4610 H   0  0  0  0  0  0  0  0  0  0  0  0
   -0.7535   -1.9286    0.8149 H   0  0  0  0  0  0  0  0  0  0  0  0
   -0.7499    0.2260    2.1596 H   0  0  0  0  0  0  0  0  0  0  0  0
  1  2  2  0
  2  3  1  0
  3  4  1  0
  4  5  1  0
  5  6  1  0
  6  7  1  0
  7  8  1  0
  7  1  1  0
  8  3  1  0
  8  4  1  0
  1  9  1  0
  2 10  1  0
  3 11  1  0
  4 12  1  0
  5 13  1  0
  5 14  1  0
  6 15  1  0
  6 16  1  0
  7 17  1  0
  8 18  1  0
M  END
