
     RDKit          3D

 15 16  0  0  0  0  0  0  0  0999 V2000
    1.1045   -0.6267    0.9024 C   0  0  0  0  0  0  0  0  0  0  0  0
    0.8943    0.6709    1.0760 C   0  0  0  0  0  0  0  0  0  0  0  0
    0.2536    1.2651   -0.1269 C   0  0  0  0  0  0  0  0  0  0  0  0
   -0.4031    0.0354   -0.7005 C   0  0  0  0  0  0  0  0  0  0  0  0
    0.6096   -0.9986   -0.4556 C   0  0  0  0  0  0  0  0  0  0  0  0
   -1.8345   -0.2626   -0.3312 C   0  0  0  0  0  0  0  0  0  0  0  0
   -1.3507    0.0609   -1.6353 O   0  0  0  0  0  0  0  0  0  0  0  0
    1.5500   -1.3478    1.5803 H   0  0  0  0  0  0  0  0  0  0  0  0
    1.1505    1.2179    1.9614 H   0  0  0  0  0  0  0  0  0  0  0  0
   -0.4357    2.0815    0.0946 H   0  0  0  0  0  0  0  0  0  0  0  0
    1.0918    1.5658   -0.8164 H   0  0  0  0  0  0  0  0  0  0  0  0
    0.2666   -2.0402   -0.5091 H   0  0  0  0  0  0  0  0  0  0  0  0
    1.4880   -0.8103   -1.1393 H   0  0  0  0  0  0  0  0  0  0  0  0
   -2.0650   -1.3323   -0.1482 H   0  0  0  0  0  0  0  0  0  0  0  0
   -2.3201    0.5209    0.2477 H   0  0  0  0  0  0  0  0  0  0  0  0
  1  2  2  0
  2  3  1  0
  3  4  1  0
  4  5  1  0
  4  6  1  0
  6  7  1  0
  5  1  1  0
  7  4  1  0
  1  8  1  0
  2  9  1  0
  3 10  1  0
  3 11  1  0
  5 12  1  0
  5 13  1  0
  6 14  1  0
  6 15  1  0
M  END
