
     RDKit          3D

 16 17  0  0  0  0  0  0  0  0999 V2000
    1.4205    0.4131    0.2502 C   0  0  0  0  0  0  0  0  0  0  0  0
    1.2260   -0.8891    0.1950 C   0  0  0  0  0  0  0  0  0  0  0  0
    0.0133   -1.4517   -0.4174 C   0  0  0  0  0  0  0  0  0  0  0  0
   -1.0013   -1.4634    0.5422 O   0  0  0  0  0  0  0  0  0  0  0  0
   -1.3047   -0.1122    0.6471 C   0  0  0  0  0  0  0  0  0  0  0  0
   -0.8216    0.5258   -0.6278 C   0  0  0  0  0  0  0  0  0  0  0  0
    0.3892    1.3712   -0.2746 C   0  0  0  0  0  0  0  0  0  0  0  0
   -0.4381   -0.5761   -1.4005 O   0  0  0  0  0  0  0  0  0  0  0  0
    2.3280    0.7939    0.6759 H   0  0  0  0  0  0  0  0  0  0  0  0
    1.9628   -1.5608    0.6030 H   0  0  0  0  0  0  0  0  0  0  0  0
    0.1231   -2.4698   -0.7914 H   0  0  0  0  0  0  0  0  0  0  0  0
   -0.7843    0.2927    1.5546 H   0  0  0  0  0  0  0  0  0  0  0  0
   -2.3772    0.0933    0.7556 H   0  0  0  0  0  0  0  0  0  0  0  0
   -1.5874    1.0727   -1.1785 H   0  0  0  0  0  0  0  0  0  0  0  0
    0.0964    2.0037    0.5907 H   0  0  0  0  0  0  0  0  0  0  0  0
    0.7552    1.9567   -1.1240 H   0  0  0  0  0  0  0  0  0  0  0  0
  1  2  2  0
  2  3  1  0
  3  4  1  0
  4  5  1  0
  5  6  1  0
  6  7  1  0
  6  8  1  0
  7  1  1  0
  8  3  1  0
  1  9  1  0
  2 10  1  0
  3 11  1  0
  5 12  1  0
  5 13  1  0
  6 14  1  0
  7 15  1  0
  7 16  1  0
M  END
