
     RDKit          3D

 15 18  0  0  0  0  0  0  0  0999 V2000
   -1.6362    0.0176    0.5308 C   0  0  0  0  0  0  0  0  0  0  0  0
   -0.9409    1.1328    0.3961 C   0  0  0  0  0  0  0  0  0  0  0  0
    0.2361    0.9728   -0.4563 C   0  0  0  0  0  0  0  0  0  0  0  0
    0.0351    0.5146   -1.7404 O   0  0  0  0  0  0  0  0  0  0  0  0
    0.2142   -0.4921   -0.8290 C   0  0  0  0  0  0  0  0  0  0  0  0
   -1.0056   -1.1028   -0.2415 C   0  0  0  0  0  0  0  0  0  0  0  0
    1.5510   -0.6325   -0.1495 C   0  0  0  0  0  0  0  0  0  0  0  0
    2.5734    0.1444   -0.6334 O   0  0  0  0  0  0  0  0  0  0  0  0
    1.6065    0.7909    0.0891 C   0  0  0  0  0  0  0  0  0  0  0  0
   -2.5420   -0.0604    1.1254 H   0  0  0  0  0  0  0  0  0  0  0  0
   -1.2077    2.0744    0.8654 H   0  0  0  0  0  0  0  0  0  0  0  0
   -1.6769   -1.4038   -1.0879 H   0  0  0  0  0  0  0  0  0  0  0  0
   -0.8256   -1.9376    0.4405 H   0  0  0  0  0  0  0  0  0  0  0  0
    1.6624   -1.3073    0.6915 H   0  0  0  0  0  0  0  0  0  0  0  0
    1.9561    1.2890    0.9992 H   0  0  0  0  0  0  0  0  0  0  0  0
  1  2  2  0
  2  3  1  0
  3  4  1  0
  4  5  1  0
  5  6  1  0
  5  7  1  0
  7  8  1  0
  8  9  1  0
  6  1  1  0
  9  7  1  0
  5  3  1  0
  9  3  1  0
  1 10  1  0
  2 11  1  0
  6 12  1  0
  6 13  1  0
  7 14  1  0
  9 15  1  0
M  END
