
     RDKit          3D

 19 21  0  0  0  0  0  0  0  0999 V2000
    2.1067    0.2203   -0.1230 C   0  0  0  0  0  0  0  0  0  0  0  0
    1.3427    1.2923   -0.0845 C   0  0  0  0  0  0  0  0  0  0  0  0
   -0.0559    0.9166   -0.2255 C   0  0  0  0  0  0  0  0  0  0  0  0
   -0.7937    0.7459    1.1070 C   0  0  0  0  0  0  0  0  0  0  0  0
   -2.0416    0.0309    0.6145 C   0  0  0  0  0  0  0  0  0  0  0  0
   -1.0144   -1.0408    0.4742 C   0  0  0  0  0  0  0  0  0  0  0  0
   -0.3886   -0.4750    1.6127 O   0  0  0  0  0  0  0  0  0  0  0  0
   -0.0585   -0.5681   -0.6012 C   0  0  0  0  0  0  0  0  0  0  0  0
    1.3167   -0.9955   -0.2927 C   0  0  0  0  0  0  0  0  0  0  0  0
    3.2065    0.1945   -0.0416 H   0  0  0  0  0  0  0  0  0  0  0  0
    1.7241    2.2981    0.0354 H   0  0  0  0  0  0  0  0  0  0  0  0
   -0.6427    1.5158   -0.9398 H   0  0  0  0  0  0  0  0  0  0  0  0
   -0.8995    1.5931    1.7355 H   0  0  0  0  0  0  0  0  0  0  0  0
   -2.3900    0.5158   -0.3197 H   0  0  0  0  0  0  0  0  0  0  0  0
   -2.7959   -0.1930    1.3663 H   0  0  0  0  0  0  0  0  0  0  0  0
   -1.2802   -2.0684    0.5195 H   0  0  0  0  0  0  0  0  0  0  0  0
   -0.4127   -0.7379   -1.6139 H   0  0  0  0  0  0  0  0  0  0  0  0
    1.3253   -1.5403    0.7021 H   0  0  0  0  0  0  0  0  0  0  0  0
    1.7516   -1.7040   -1.0377 H   0  0  0  0  0  0  0  0  0  0  0  0
  1  2  2  0
  2  3  1  0
  3  4  1  0
  4  5  1  0
  5  6  1  0
  6  7  1  0
  6  8  1  0
  8  9  1  0
  9  1  1  0
  8  3  1  0
  7  4  1  0
  1 10  1  0
  2 11  1  0
  3 12  1  0
  4 13  1  0
  5 14  1  0
  5 15  1  0
  6 16  1  0
  8 17  1  0
  9 18  1  0
  9 19  1  0
M  END
