
     RDKit          3D

 21 22  0  0  0  0  0  0  0  0999 V2000
   -1.5782    1.3468    0.5251 C   0  0  0  0  0  0  0  0  0  0  0  0
   -0.3560    1.7284    0.2127 C   0  0  0  0  0  0  0  0  0  0  0  0
    0.6289    0.8341   -0.4025 C   0  0  0  0  0  0  0  0  0  0  0  0
    1.6280    0.2676    0.6025 C   0  0  0  0  0  0  0  0  0  0  0  0
    2.0798   -0.9980   -0.0798 C   0  0  0  0  0  0  0  0  0  0  0  0
    1.1728   -1.3841   -0.9492 C   0  0  0  0  0  0  0  0  0  0  0  0
    0.0446   -0.4408   -0.9395 C   0  0  0  0  0  0  0  0  0  0  0  0
   -0.9524   -0.9543    0.0808 C   0  0  0  0  0  0  0  0  0  0  0  0
   -2.1070   -0.0295    0.2940 C   0  0  0  0  0  0  0  0  0  0  0  0
   -2.2347    2.1024    0.9835 H   0  0  0  0  0  0  0  0  0  0  0  0
   -0.0488    2.7578    0.4164 H   0  0  0  0  0  0  0  0  0  0  0  0
    1.2328    1.3011   -1.2036 H   0  0  0  0  0  0  0  0  0  0  0  0
    1.1794    0.0643    1.5796 H   0  0  0  0  0  0  0  0  0  0  0  0
    2.5132    0.9176    0.6948 H   0  0  0  0  0  0  0  0  0  0  0  0
    3.0362   -1.4486    0.1822 H   0  0  0  0  0  0  0  0  0  0  0  0
    1.2958   -2.2844   -1.5615 H   0  0  0  0  0  0  0  0  0  0  0  0
   -0.4208   -0.3085   -1.9386 H   0  0  0  0  0  0  0  0  0  0  0  0
   -0.3947   -1.1079    1.0271 H   0  0  0  0  0  0  0  0  0  0  0  0
   -1.2922   -1.9598   -0.2557 H   0  0  0  0  0  0  0  0  0  0  0  0
   -2.8355   -0.0753   -0.5334 H   0  0  0  0  0  0  0  0  0  0  0  0
   -2.5912   -0.3289    1.2649 H   0  0  0  0  0  0  0  0  0  0  0  0
  1  2  2  0
  2  3  1  0
  3  4  1  0
  4  5  1  0
  5  6  2  0
  6  7  1  0
  7  8  1  0
  8  9  1  0
  9  1  1  0
  7  3  1  0
  1 10  1  0
  2 11  1  0
  3 12  1  0
  4 13  1  0
  4 14  1  0
  5 15  1  0
  6 16  1  0
  7 17  1  0
  8 18  1  0
  8 19  1  0
  9 20  1  0
  9 21  1  0
M  END
