
     RDKit          3D

 19 20  0  0  0  0  0  0  0  0999 V2000
   -1.3734   -0.5434   -0.8966 C   0  0  0  0  0  0  0  0  0  0  0  0
   -1.4547    0.7503   -0.6273 C   0  0  0  0  0  0  0  0  0  0  0  0
   -0.2112    1.3402   -0.0074 C   0  0  0  0  0  0  0  0  0  0  0  0
    0.0663    0.5626    1.2313 C   0  0  0  0  0  0  0  0  0  0  0  0
    0.0599   -0.9236    1.0645 C   0  0  0  0  0  0  0  0  0  0  0  0
   -0.1785   -1.2648   -0.3964 C   0  0  0  0  0  0  0  0  0  0  0  0
    0.9501   -1.0392   -1.1590 O   0  0  0  0  0  0  0  0  0  0  0  0
    1.5782    0.1635   -0.8944 C   0  0  0  0  0  0  0  0  0  0  0  0
    0.7699    1.2627   -0.9663 O   0  0  0  0  0  0  0  0  0  0  0  0
   -2.1745   -0.9907   -1.4588 H   0  0  0  0  0  0  0  0  0  0  0  0
   -2.3196    1.3525   -0.8230 H   0  0  0  0  0  0  0  0  0  0  0  0
   -0.3816    2.3930    0.2450 H   0  0  0  0  0  0  0  0  0  0  0  0
   -0.7445    0.8122    1.9678 H   0  0  0  0  0  0  0  0  0  0  0  0
    1.0108    0.8709    1.7364 H   0  0  0  0  0  0  0  0  0  0  0  0
   -0.7495   -1.4216    1.6579 H   0  0  0  0  0  0  0  0  0  0  0  0
    1.0444   -1.3957    1.3382 H   0  0  0  0  0  0  0  0  0  0  0  0
   -0.3742   -2.3631   -0.4260 H   0  0  0  0  0  0  0  0  0  0  0  0
    2.3685    0.2781   -1.6694 H   0  0  0  0  0  0  0  0  0  0  0  0
    2.1135    0.1562    0.0832 H   0  0  0  0  0  0  0  0  0  0  0  0
  1  2  2  0
  2  3  1  0
  3  4  1  0
  4  5  1  0
  5  6  1  0
  6  7  1  0
  7  8  1  0
  8  9  1  0
  6  1  1  0
  9  3  1  0
  1 10  1  0
  2 11  1  0
  3 12  1  0
  4 13  1  0
  4 14  1  0
  5 15  1  0
  5 16  1  0
  6 17  1  0
  8 18  1  0
  8 19  1  0
M  END
