
     RDKit          3D

 17 19  0  0  0  0  0  0  0  0999 V2000
    1.2557    1.2084   -0.4103 C   0  0  0  0  0  0  0  0  0  0  0  0
    0.0488    0.7838   -0.0628 C   0  0  0  0  0  0  0  0  0  0  0  0
    0.2477   -0.5999    0.5008 C   0  0  0  0  0  0  0  0  0  0  0  0
   -0.8406   -1.3274   -0.2444 C   0  0  0  0  0  0  0  0  0  0  0  0
   -2.0149   -0.3864   -0.0057 C   0  0  0  0  0  0  0  0  0  0  0  0
   -2.2703    0.5944   -0.9351 O   0  0  0  0  0  0  0  0  0  0  0  0
   -1.4110    1.0132    0.0402 C   0  0  0  0  0  0  0  0  0  0  0  0
    1.5095   -0.9939    0.1450 O   0  0  0  0  0  0  0  0  0  0  0  0
    2.2623    0.1582   -0.1004 C   0  0  0  0  0  0  0  0  0  0  0  0
    1.4625    2.1633   -0.8466 H   0  0  0  0  0  0  0  0  0  0  0  0
    0.0746   -0.5177    1.5756 H   0  0  0  0  0  0  0  0  0  0  0  0
   -0.5744   -1.2732   -1.3309 H   0  0  0  0  0  0  0  0  0  0  0  0
   -1.0502   -2.3271    0.1132 H   0  0  0  0  0  0  0  0  0  0  0  0
   -2.7040   -0.6379    0.7953 H   0  0  0  0  0  0  0  0  0  0  0  0
   -1.7526    1.6590    0.8689 H   0  0  0  0  0  0  0  0  0  0  0  0
    2.8008    0.4618    0.8289 H   0  0  0  0  0  0  0  0  0  0  0  0
    2.9562    0.0214   -0.9316 H   0  0  0  0  0  0  0  0  0  0  0  0
  1  2  2  0
  2  3  1  0
  3  4  1  0
  4  5  1  0
  5  6  1  0
  6  7  1  0
  3  8  1  0
  8  9  1  0
  9  1  1  0
  7  2  1  0
  7  5  1  0
  1 10  1  0
  3 11  1  0
  4 12  1  0
  4 13  1  0
  5 14  1  0
  7 15  1  0
  9 16  1  0
  9 17  1  0
M  END
