
     RDKit          3D

 19 21  0  0  0  0  0  0  0  0999 V2000
    1.3209    1.3146   -0.2766 C   0  0  0  0  0  0  0  0  0  0  0  0
    0.1024    0.7924   -0.2958 C   0  0  0  0  0  0  0  0  0  0  0  0
   -1.3395    1.0383   -0.5613 C   0  0  0  0  0  0  0  0  0  0  0  0
   -2.0712   -0.0740    0.1031 C   0  0  0  0  0  0  0  0  0  0  0  0
   -1.1128   -1.2002    0.3391 C   0  0  0  0  0  0  0  0  0  0  0  0
    0.2222   -0.6142    0.1158 C   0  0  0  0  0  0  0  0  0  0  0  0
    0.9905   -1.4558   -0.8458 O   0  0  0  0  0  0  0  0  0  0  0  0
    1.4915   -0.9235    0.3585 C   0  0  0  0  0  0  0  0  0  0  0  0
    2.3214    0.3208    0.1390 C   0  0  0  0  0  0  0  0  0  0  0  0
    1.4931    2.3814   -0.5531 H   0  0  0  0  0  0  0  0  0  0  0  0
   -1.5441    1.1386   -1.6485 H   0  0  0  0  0  0  0  0  0  0  0  0
   -1.6919    1.9991   -0.0936 H   0  0  0  0  0  0  0  0  0  0  0  0
   -2.4943    0.2043    1.1074 H   0  0  0  0  0  0  0  0  0  0  0  0
   -2.9442   -0.3693   -0.5309 H   0  0  0  0  0  0  0  0  0  0  0  0
   -1.1964   -1.6303    1.3731 H   0  0  0  0  0  0  0  0  0  0  0  0
   -1.3934   -2.0252   -0.3478 H   0  0  0  0  0  0  0  0  0  0  0  0
    1.9382   -1.6656    1.0828 H   0  0  0  0  0  0  0  0  0  0  0  0
    2.7722    0.6011    1.1249 H   0  0  0  0  0  0  0  0  0  0  0  0
    3.1353    0.1675   -0.5903 H   0  0  0  0  0  0  0  0  0  0  0  0
  1  2  2  0
  2  3  1  0
  3  4  1  0
  4  5  1  0
  5  6  1  0
  6  7  1  0
  7  8  1  0
  8  9  1  0
  9  1  1  0
  6  2  1  0
  8  6  1  0
  1 10  1  0
  3 11  1  0
  3 12  1  0
  4 13  1  0
  4 14  1  0
  5 15  1  0
  5 16  1  0
  8 17  1  0
  9 18  1  0
  9 19  1  0
M  END
