
     RDKit          3D

 19 21  0  0  0  0  0  0  0  0999 V2000
    1.8691    0.7748    0.3505 C   0  0  0  0  0  0  0  0  0  0  0  0
    0.6695    1.1269    0.7784 C   0  0  0  0  0  0  0  0  0  0  0  0
   -0.4723    0.2341    0.5848 C   0  0  0  0  0  0  0  0  0  0  0  0
   -1.7372    0.8253   -0.0027 C   0  0  0  0  0  0  0  0  0  0  0  0
   -1.5233   -0.0753   -1.2051 C   0  0  0  0  0  0  0  0  0  0  0  0
   -0.3621   -0.7279   -0.5133 C   0  0  0  0  0  0  0  0  0  0  0  0
   -0.4906   -1.1945    0.8805 C   0  0  0  0  0  0  0  0  0  0  0  0
    0.8590   -0.8467   -1.1186 O   0  0  0  0  0  0  0  0  0  0  0  0
    1.9406   -0.5536   -0.3148 C   0  0  0  0  0  0  0  0  0  0  0  0
    2.7505    1.4115    0.4741 H   0  0  0  0  0  0  0  0  0  0  0  0
    0.5175    2.0782    1.2764 H   0  0  0  0  0  0  0  0  0  0  0  0
   -1.6149    1.8948   -0.1894 H   0  0  0  0  0  0  0  0  0  0  0  0
   -2.6755    0.5460    0.5012 H   0  0  0  0  0  0  0  0  0  0  0  0
   -1.2423    0.5193   -2.0862 H   0  0  0  0  0  0  0  0  0  0  0  0
   -2.3311   -0.8187   -1.3821 H   0  0  0  0  0  0  0  0  0  0  0  0
    0.3557   -1.6829    1.3573 H   0  0  0  0  0  0  0  0  0  0  0  0
   -1.5059   -1.6207    1.1363 H   0  0  0  0  0  0  0  0  0  0  0  0
    2.1481   -1.3118    0.4623 H   0  0  0  0  0  0  0  0  0  0  0  0
    2.8451   -0.5787   -0.9895 H   0  0  0  0  0  0  0  0  0  0  0  0
  1  2  2  0
  2  3  1  0
  3  4  1  0
  4  5  1  0
  5  6  1  0
  6  7  1  0
  6  8  1  0
  8  9  1  0
  9  1  1  0
  6  3  1  0
  7  3  1  0
  1 10  1  0
  2 11  1  0
  4 12  1  0
  4 13  1  0
  5 14  1  0
  5 15  1  0
  7 16  1  0
  7 17  1  0
  9 18  1  0
  9 19  1  0
M  END
