
     RDKit          3D

 21 22  0  0  0  0  0  0  0  0999 V2000
    0.1990   -0.8555   -0.5320 C   0  0  0  0  0  0  0  0  0  0  0  0
    0.6162    0.2806    0.0059 C   0  0  0  0  0  0  0  0  0  0  0  0
    2.0402    0.4092    0.3784 C   0  0  0  0  0  0  0  0  0  0  0  0
    2.9558   -0.6825    0.1361 C   0  0  0  0  0  0  0  0  0  0  0  0
    3.0138    0.5985   -0.5979 O   0  0  0  0  0  0  0  0  0  0  0  0
   -0.3829    1.3618    0.2065 C   0  0  0  0  0  0  0  0  0  0  0  0
   -1.7214    0.8831    0.6263 C   0  0  0  0  0  0  0  0  0  0  0  0
   -2.1887   -0.3807    0.0302 C   0  0  0  0  0  0  0  0  0  0  0  0
   -1.2269   -1.0371   -0.9258 C   0  0  0  0  0  0  0  0  0  0  0  0
    0.8725   -1.6873   -0.7033 H   0  0  0  0  0  0  0  0  0  0  0  0
    2.1967    0.9974    1.3133 H   0  0  0  0  0  0  0  0  0  0  0  0
    3.8290   -0.7876    0.8397 H   0  0  0  0  0  0  0  0  0  0  0  0
    2.8579   -1.4698   -0.6293 H   0  0  0  0  0  0  0  0  0  0  0  0
    0.0082    2.0579    0.9967 H   0  0  0  0  0  0  0  0  0  0  0  0
   -0.4930    1.9495   -0.7368 H   0  0  0  0  0  0  0  0  0  0  0  0
   -2.4719    1.6879    0.3690 H   0  0  0  0  0  0  0  0  0  0  0  0
   -1.7449    0.8575    1.7554 H   0  0  0  0  0  0  0  0  0  0  0  0
   -3.1701   -0.2950   -0.4898 H   0  0  0  0  0  0  0  0  0  0  0  0
   -2.3554   -1.1207    0.8620 H   0  0  0  0  0  0  0  0  0  0  0  0
   -1.4429   -2.1219   -0.9583 H   0  0  0  0  0  0  0  0  0  0  0  0
   -1.3911   -0.6452   -1.9461 H   0  0  0  0  0  0  0  0  0  0  0  0
  1  2  2  0
  2  3  1  0
  3  4  1  0
  4  5  1  0
  2  6  1  0
  6  7  1  0
  7  8  1  0
  8  9  1  0
  9  1  1  0
  5  3  1  0
  1 10  1  0
  3 11  1  0
  4 12  1  0
  4 13  1  0
  6 14  1  0
  6 15  1  0
  7 16  1  0
  7 17  1  0
  8 18  1  0
  8 19  1  0
  9 20  1  0
  9 21  1  0
M  END
