
     RDKit          2D

 19 21  0  0  0  0  0  0  0  0999 V2000
   -2.1625   -2.1625    0.0000 C   0  0  0  0  0  0  0  0  0  0  0  0
   -2.3972   -0.6810    0.0000 C   0  0  0  0  0  0  0  0  0  0  0  0
   -1.0607    0.0000    0.0000 C   0  0  0  0  0  0  0  0  0  0  0  0
    0.4209   -0.2347    0.0000 C   0  0  0  0  0  0  0  0  0  0  0  0
    0.6555   -1.7162    0.0000 C   0  0  0  0  0  0  0  0  0  0  0  0
   -0.6810   -2.3972    0.0000 C   0  0  0  0  0  0  0  0  0  0  0  0
   -0.0000   -1.0607    0.0000 C   0  0  0  0  0  0  0  0  0  0  0  0
   -0.0441   -1.0165    0.0000 C   0  0  0  0  0  0  0  0  0  0  0  0
   -1.0165   -0.0441    0.0000 O   0  0  0  0  0  0  0  0  0  0  0  0
   -3.2232   -3.2232    0.0000 H   0  0  0  0  0  0  0  0  0  0  0  0
   -3.7337    0.0000    0.0000 H   0  0  0  0  0  0  0  0  0  0  0  0
    0.8595    1.1998    0.0000 H   0  0  0  0  0  0  0  0  0  0  0  0
    1.9188   -0.1561    0.0000 H   0  0  0  0  0  0  0  0  0  0  0  0
    2.1409   -1.5075    0.0000 H   0  0  0  0  0  0  0  0  0  0  0  0
    1.1931   -3.1166    0.0000 H   0  0  0  0  0  0  0  0  0  0  0  0
   -0.0000   -3.7337    0.0000 H   0  0  0  0  0  0  0  0  0  0  0  0
    1.3908   -1.6225    0.0000 H   0  0  0  0  0  0  0  0  0  0  0  0
    2.1213    1.0607    0.0000 H   0  0  0  0  0  0  0  0  0  0  0  0
    2.2427   -0.9235    0.0000 H   0  0  0  0  0  0  0  0  0  0  0  0
  1  2  2  0
  2  3  1  0
  3  4  1  0
  4  5  1  0
  5  6  1  0
  6  7  1  0
  7  8  1  0
  8  9  1  0
  6  1  1  0
  7  3  1  0
  9  3  1  0
  1 10  1  0
  2 11  1  0
  4 12  1  0
  4 13  1  0
  5 14  1  0
  5 15  1  0
  6 16  1  0
  7 17  1  0
  8 18  1  0
  8 19  1  0
M  END
