
     RDKit          3D

 14 15  0  0  0  0  0  0  0  0999 V2000
    1.4658    0.3374   -0.3194 C   0  0  0  0  0  0  0  0  0  0  0  0
    0.5201    1.2617   -0.2640 C   0  0  0  0  0  0  0  0  0  0  0  0
   -0.7566    0.5801   -0.2731 C   0  0  0  0  0  0  0  0  0  0  0  0
   -1.5837   -0.1134    0.6142 C   0  0  0  0  0  0  0  0  0  0  0  0
   -0.2839   -0.6111    0.6377 C   0  0  0  0  0  0  0  0  0  0  0  0
    0.7631   -1.0012   -0.3600 C   0  0  0  0  0  0  0  0  0  0  0  0
    2.5113    0.4802   -0.3335 H   0  0  0  0  0  0  0  0  0  0  0  0
    0.7304    2.3448   -0.2203 H   0  0  0  0  0  0  0  0  0  0  0  0
   -0.9505    0.3075   -1.3697 H   0  0  0  0  0  0  0  0  0  0  0  0
   -2.4071   -0.7766    0.2354 H   0  0  0  0  0  0  0  0  0  0  0  0
   -2.0019    0.4706    1.4879 H   0  0  0  0  0  0  0  0  0  0  0  0
    0.2884   -0.3213    1.5773 H   0  0  0  0  0  0  0  0  0  0  0  0
    0.3018   -1.1392   -1.3524 H   0  0  0  0  0  0  0  0  0  0  0  0
    1.4027   -1.8195   -0.0602 H   0  0  0  0  0  0  0  0  0  0  0  0
  1  2  2  0
  2  3  1  0
  3  4  1  0
  4  5  1  0
  5  6  1  0
  6  1  1  0
  5  3  1  0
  1  7  1  0
  2  8  1  0
  3  9  1  0
  4 10  1  0
  4 11  1  0
  5 12  1  0
  6 13  1  0
  6 14  1  0
M  END
