
     RDKit          3D

 19 21  0  0  0  0  0  0  0  0999 V2000
    2.1140   -0.1415   -0.3735 C   0  0  0  0  0  0  0  0  0  0  0  0
    1.7435    0.9030    0.3634 C   0  0  0  0  0  0  0  0  0  0  0  0
    0.2934    0.8195    0.5865 C   0  0  0  0  0  0  0  0  0  0  0  0
   -0.4937    0.9439   -0.7141 C   0  0  0  0  0  0  0  0  0  0  0  0
   -1.8114    0.3165   -0.2884 C   0  0  0  0  0  0  0  0  0  0  0  0
   -1.3341   -0.8687    0.5564 C   0  0  0  0  0  0  0  0  0  0  0  0
    0.1353   -0.7196    0.6411 C   0  0  0  0  0  0  0  0  0  0  0  0
    0.8334   -0.8751   -0.7074 C   0  0  0  0  0  0  0  0  0  0  0  0
    0.1311   -0.0101   -1.5298 O   0  0  0  0  0  0  0  0  0  0  0  0
    3.0756   -0.4715   -0.7069 H   0  0  0  0  0  0  0  0  0  0  0  0
    2.4278    1.6631    0.7179 H   0  0  0  0  0  0  0  0  0  0  0  0
   -0.1193    1.3227    1.4267 H   0  0  0  0  0  0  0  0  0  0  0  0
   -0.5582    1.9282   -1.1146 H   0  0  0  0  0  0  0  0  0  0  0  0
   -2.2735   -0.0954   -1.1869 H   0  0  0  0  0  0  0  0  0  0  0  0
   -2.4212    1.0175    0.2756 H   0  0  0  0  0  0  0  0  0  0  0  0
   -1.5973   -1.8392    0.0709 H   0  0  0  0  0  0  0  0  0  0  0  0
   -1.7612   -0.8552    1.5586 H   0  0  0  0  0  0  0  0  0  0  0  0
    0.6489   -1.1645    1.4662 H   0  0  0  0  0  0  0  0  0  0  0  0
    0.9669   -1.8737   -1.0415 H   0  0  0  0  0  0  0  0  0  0  0  0
  1  2  2  0
  2  3  1  0
  3  4  1  0
  4  5  1  0
  5  6  1  0
  6  7  1  0
  7  8  1  0
  8  9  1  0
  8  1  1  0
  7  3  1  0
  9  4  1  0
  1 10  1  0
  2 11  1  0
  3 12  1  0
  4 13  1  0
  5 14  1  0
  5 15  1  0
  6 16  1  0
  6 17  1  0
  7 18  1  0
  8 19  1  0
M  END
