
     RDKit          3D

 19 21  0  0  0  0  0  0  0  0999 V2000
    2.2745   -1.0348    0.4982 C   0  0  0  0  0  0  0  0  0  0  0  0
    1.3012   -0.8501    1.3911 C   0  0  0  0  0  0  0  0  0  0  0  0
    0.4718    0.2165    0.9031 C   0  0  0  0  0  0  0  0  0  0  0  0
    0.5385   -0.2124   -0.5991 C   0  0  0  0  0  0  0  0  0  0  0  0
    2.0283   -0.0184   -0.6223 C   0  0  0  0  0  0  0  0  0  0  0  0
   -0.5527    0.4326   -0.0185 C   0  0  0  0  0  0  0  0  0  0  0  0
   -1.8784   -0.3229    0.1536 C   0  0  0  0  0  0  0  0  0  0  0  0
   -2.9721   -0.1065   -0.8114 C   0  0  0  0  0  0  0  0  0  0  0  0
   -2.1263   -1.2061   -1.0122 O   0  0  0  0  0  0  0  0  0  0  0  0
    3.0925   -1.7472    0.5216 H   0  0  0  0  0  0  0  0  0  0  0  0
    1.2651   -1.4739    2.2902 H   0  0  0  0  0  0  0  0  0  0  0  0
    1.0254    1.1851    1.1704 H   0  0  0  0  0  0  0  0  0  0  0  0
    0.3578   -1.3132   -0.8169 H   0  0  0  0  0  0  0  0  0  0  0  0
    2.5101   -0.3260   -1.5449 H   0  0  0  0  0  0  0  0  0  0  0  0
    2.2912    0.9503   -0.2158 H   0  0  0  0  0  0  0  0  0  0  0  0
   -0.7968    1.4687   -0.3930 H   0  0  0  0  0  0  0  0  0  0  0  0
   -2.0043   -0.9374    1.0584 H   0  0  0  0  0  0  0  0  0  0  0  0
   -2.8430    0.7875   -1.4764 H   0  0  0  0  0  0  0  0  0  0  0  0
   -3.9827   -0.3925   -0.4762 H   0  0  0  0  0  0  0  0  0  0  0  0
  1  2  2  0
  2  3  1  0
  3  4  1  0
  4  5  1  0
  4  6  1  0
  6  7  1  0
  7  8  1  0
  8  9  1  0
  5  1  1  0
  9  7  1  0
  6  3  1  0
  1 10  1  0
  2 11  1  0
  3 12  1  0
  4 13  1  0
  5 14  1  0
  5 15  1  0
  6 16  1  0
  7 17  1  0
  8 18  1  0
  8 19  1  0
M  END
