
     RDKit          3D

 21 22  0  0  0  0  0  0  0  0999 V2000
   -1.2293    1.8542    0.1133 C   0  0  0  0  0  0  0  0  0  0  0  0
   -2.0940    0.8651   -0.0348 C   0  0  0  0  0  0  0  0  0  0  0  0
   -1.7395   -0.5302   -0.4898 C   0  0  0  0  0  0  0  0  0  0  0  0
   -0.7847   -1.1386    0.4648 C   0  0  0  0  0  0  0  0  0  0  0  0
    0.5846   -0.6683    0.5444 C   0  0  0  0  0  0  0  0  0  0  0  0
    1.6199   -1.1707   -0.4482 C   0  0  0  0  0  0  0  0  0  0  0  0
    2.3324    0.1395   -0.0358 C   0  0  0  0  0  0  0  0  0  0  0  0
    0.9256    0.6781    0.0647 C   0  0  0  0  0  0  0  0  0  0  0  0
    0.2295    1.7940   -0.1313 C   0  0  0  0  0  0  0  0  0  0  0  0
   -1.6091    2.8039    0.4380 H   0  0  0  0  0  0  0  0  0  0  0  0
   -3.1359    1.0626    0.1844 H   0  0  0  0  0  0  0  0  0  0  0  0
   -2.6755   -1.1226   -0.4922 H   0  0  0  0  0  0  0  0  0  0  0  0
   -1.3510   -0.5107   -1.5261 H   0  0  0  0  0  0  0  0  0  0  0  0
   -1.2539   -1.1063    1.4857 H   0  0  0  0  0  0  0  0  0  0  0  0
   -0.7570   -2.2568    0.2553 H   0  0  0  0  0  0  0  0  0  0  0  0
    0.9884   -0.7821    1.5944 H   0  0  0  0  0  0  0  0  0  0  0  0
    1.2922   -1.0649   -1.4911 H   0  0  0  0  0  0  0  0  0  0  0  0
    2.1659   -2.0672   -0.1625 H   0  0  0  0  0  0  0  0  0  0  0  0
    2.9435    0.5831   -0.8127 H   0  0  0  0  0  0  0  0  0  0  0  0
    2.8124   -0.0378    0.9468 H   0  0  0  0  0  0  0  0  0  0  0  0
    0.7354    2.6757   -0.4673 H   0  0  0  0  0  0  0  0  0  0  0  0
  1  2  2  0
  2  3  1  0
  3  4  1  0
  4  5  1  0
  5  6  1  0
  6  7  1  0
  7  8  1  0
  8  9  2  0
  9  1  1  0
  8  5  1  0
  1 10  1  0
  2 11  1  0
  3 12  1  0
  3 13  1  0
  4 14  1  0
  4 15  1  0
  5 16  1  0
  6 17  1  0
  6 18  1  0
  7 19  1  0
  7 20  1  0
  9 21  1  0
M  END
