
     RDKit          3D

 21 22  0  0  0  0  0  0  0  0999 V2000
   -2.2610    0.8720   -0.4202 C   0  0  0  0  0  0  0  0  0  0  0  0
   -1.2132    1.6093   -0.0828 C   0  0  0  0  0  0  0  0  0  0  0  0
   -0.0941    0.7506    0.3750 C   0  0  0  0  0  0  0  0  0  0  0  0
    1.0271    0.8244   -0.6371 C   0  0  0  0  0  0  0  0  0  0  0  0
    2.0638   -0.2077   -0.2793 C   0  0  0  0  0  0  0  0  0  0  0  0
    1.4615   -1.5040    0.1563 C   0  0  0  0  0  0  0  0  0  0  0  0
    0.1098   -1.6088   -0.0976 O   0  0  0  0  0  0  0  0  0  0  0  0
   -0.6570   -0.6459    0.5050 C   0  0  0  0  0  0  0  0  0  0  0  0
   -1.9772   -0.5665   -0.2320 C   0  0  0  0  0  0  0  0  0  0  0  0
   -3.2021    1.2648   -0.7855 H   0  0  0  0  0  0  0  0  0  0  0  0
   -1.1847    2.6868   -0.1359 H   0  0  0  0  0  0  0  0  0  0  0  0
    0.2545    1.1406    1.3633 H   0  0  0  0  0  0  0  0  0  0  0  0
    0.6078    0.6805   -1.6543 H   0  0  0  0  0  0  0  0  0  0  0  0
    1.4891    1.8316   -0.5291 H   0  0  0  0  0  0  0  0  0  0  0  0
    2.7513   -0.3059   -1.1368 H   0  0  0  0  0  0  0  0  0  0  0  0
    2.6716    0.1987    0.5713 H   0  0  0  0  0  0  0  0  0  0  0  0
    1.9628   -2.3171   -0.4268 H   0  0  0  0  0  0  0  0  0  0  0  0
    1.6994   -1.7470    1.2325 H   0  0  0  0  0  0  0  0  0  0  0  0
   -0.8406   -0.8404    1.5877 H   0  0  0  0  0  0  0  0  0  0  0  0
   -1.8858   -1.0137   -1.2571 H   0  0  0  0  0  0  0  0  0  0  0  0
   -2.7828   -1.1023    0.3195 H   0  0  0  0  0  0  0  0  0  0  0  0
  1  2  2  0
  2  3  1  0
  3  4  1  0
  4  5  1  0
  5  6  1  0
  6  7  1  0
  7  8  1  0
  8  9  1  0
  9  1  1  0
  8  3  1  0
  1 10  1  0
  2 11  1  0
  3 12  1  0
  4 13  1  0
  4 14  1  0
  5 15  1  0
  5 16  1  0
  6 17  1  0
  6 18  1  0
  8 19  1  0
  9 20  1  0
  9 21  1  0
M  END
