
     RDKit          3D

 19 21  0  0  0  0  0  0  0  0999 V2000
    0.3288   -1.9440   -0.0635 C   0  0  0  0  0  0  0  0  0  0  0  0
   -0.5466   -1.5061   -0.9638 C   0  0  0  0  0  0  0  0  0  0  0  0
   -0.9251   -0.1234   -0.6753 C   0  0  0  0  0  0  0  0  0  0  0  0
    0.2040    0.8643   -0.8861 C   0  0  0  0  0  0  0  0  0  0  0  0
   -0.2507    1.9665    0.0332 C   0  0  0  0  0  0  0  0  0  0  0  0
   -0.7486    1.3122    1.1076 C   0  0  0  0  0  0  0  0  0  0  0  0
   -0.7464   -0.1327    0.8664 C   0  0  0  0  0  0  0  0  0  0  0  0
    0.6410   -0.7325    0.7885 C   0  0  0  0  0  0  0  0  0  0  0  0
    1.3724    0.2038   -0.1578 C   0  0  0  0  0  0  0  0  0  0  0  0
    0.7577   -2.9279    0.0791 H   0  0  0  0  0  0  0  0  0  0  0  0
   -0.9112   -2.1042   -1.7822 H   0  0  0  0  0  0  0  0  0  0  0  0
   -1.8956    0.2074   -0.9781 H   0  0  0  0  0  0  0  0  0  0  0  0
    0.3955    1.1587   -1.8889 H   0  0  0  0  0  0  0  0  0  0  0  0
   -0.2161    3.0228   -0.0782 H   0  0  0  0  0  0  0  0  0  0  0  0
   -1.1072    1.7905    2.0363 H   0  0  0  0  0  0  0  0  0  0  0  0
   -1.4855   -0.7212    1.3654 H   0  0  0  0  0  0  0  0  0  0  0  0
    1.1226   -0.9455    1.7081 H   0  0  0  0  0  0  0  0  0  0  0  0
    2.0105   -0.3256   -0.8779 H   0  0  0  0  0  0  0  0  0  0  0  0
    2.0008    0.9368    0.3672 H   0  0  0  0  0  0  0  0  0  0  0  0
  1  2  2  0
  2  3  1  0
  3  4  1  0
  4  5  1  0
  5  6  2  0
  6  7  1  0
  7  8  1  0
  8  9  1  0
  8  1  1  0
  7  3  1  0
  9  4  1  0
  1 10  1  0
  2 11  1  0
  3 12  1  0
  4 13  1  0
  5 14  1  0
  6 15  1  0
  7 16  1  0
  8 17  1  0
  9 18  1  0
  9 19  1  0
M  END
