
     RDKit          3D

 19 20  0  0  0  0  0  0  0  0999 V2000
    2.0388   -0.2831   -0.7103 C   0  0  0  0  0  0  0  0  0  0  0  0
    1.8954    0.9049   -0.1375 C   0  0  0  0  0  0  0  0  0  0  0  0
    0.6723    0.9270    0.7116 C   0  0  0  0  0  0  0  0  0  0  0  0
   -0.1463   -0.1485    0.0366 C   0  0  0  0  0  0  0  0  0  0  0  0
    0.9134   -1.1598   -0.2870 C   0  0  0  0  0  0  0  0  0  0  0  0
   -1.2618   -0.6697    0.8644 C   0  0  0  0  0  0  0  0  0  0  0  0
   -2.3287   -0.6804   -0.0649 O   0  0  0  0  0  0  0  0  0  0  0  0
   -2.0461    0.4881   -0.7721 C   0  0  0  0  0  0  0  0  0  0  0  0
   -0.6977    0.3137   -1.1338 O   0  0  0  0  0  0  0  0  0  0  0  0
    2.8276   -0.6012   -1.3793 H   0  0  0  0  0  0  0  0  0  0  0  0
    2.5627    1.7458   -0.2601 H   0  0  0  0  0  0  0  0  0  0  0  0
    0.9788    0.5574    1.7164 H   0  0  0  0  0  0  0  0  0  0  0  0
    0.1553    1.8834    0.7199 H   0  0  0  0  0  0  0  0  0  0  0  0
    0.6162   -1.8789   -1.0707 H   0  0  0  0  0  0  0  0  0  0  0  0
    1.2646   -1.7014    0.6245 H   0  0  0  0  0  0  0  0  0  0  0  0
   -1.5753    0.0124    1.6834 H   0  0  0  0  0  0  0  0  0  0  0  0
   -1.1158   -1.6978    1.1994 H   0  0  0  0  0  0  0  0  0  0  0  0
   -2.6908    0.6264   -1.6543 H   0  0  0  0  0  0  0  0  0  0  0  0
   -2.0624    1.3617   -0.0863 H   0  0  0  0  0  0  0  0  0  0  0  0
  1  2  2  0
  2  3  1  0
  3  4  1  0
  4  5  1  0
  4  6  1  0
  6  7  1  0
  7  8  1  0
  8  9  1  0
  5  1  1  0
  9  4  1  0
  1 10  1  0
  2 11  1  0
  3 12  1  0
  3 13  1  0
  5 14  1  0
  5 15  1  0
  6 16  1  0
  6 17  1  0
  8 18  1  0
  8 19  1  0
M  END
