
     RDKit          3D

 17 19  0  0  0  0  0  0  0  0999 V2000
   -2.0959    0.1975   -0.1457 C   0  0  0  0  0  0  0  0  0  0  0  0
   -1.2280    1.2064   -0.1764 C   0  0  0  0  0  0  0  0  0  0  0  0
    0.0708    0.6969    0.0869 C   0  0  0  0  0  0  0  0  0  0  0  0
    0.5682    0.8259    1.4287 O   0  0  0  0  0  0  0  0  0  0  0  0
    1.3605    0.9827    0.1714 C   0  0  0  0  0  0  0  0  0  0  0  0
    2.0959   -0.3614   -0.0235 C   0  0  0  0  0  0  0  0  0  0  0  0
    1.0617   -1.3058    0.2083 O   0  0  0  0  0  0  0  0  0  0  0  0
   -0.0155   -0.7578   -0.4224 C   0  0  0  0  0  0  0  0  0  0  0  0
   -1.3649   -1.0908    0.1557 C   0  0  0  0  0  0  0  0  0  0  0  0
   -3.1664    0.2256   -0.3025 H   0  0  0  0  0  0  0  0  0  0  0  0
   -1.5261    2.2318   -0.3760 H   0  0  0  0  0  0  0  0  0  0  0  0
    2.0248    1.8332    0.3169 H   0  0  0  0  0  0  0  0  0  0  0  0
    2.9071   -0.4801    0.6910 H   0  0  0  0  0  0  0  0  0  0  0  0
    2.3891   -0.3866   -1.0845 H   0  0  0  0  0  0  0  0  0  0  0  0
    0.0170   -0.7377   -1.5047 H   0  0  0  0  0  0  0  0  0  0  0  0
   -1.2493   -1.1226    1.2588 H   0  0  0  0  0  0  0  0  0  0  0  0
   -1.8489   -1.9574   -0.2820 H   0  0  0  0  0  0  0  0  0  0  0  0
  1  2  2  0
  2  3  1  0
  3  4  1  0
  4  5  1  0
  5  6  1  0
  6  7  1  0
  7  8  1  0
  8  9  1  0
  9  1  1  0
  5  3  1  0
  8  3  1  0
  1 10  1  0
  2 11  1  0
  5 12  1  0
  6 13  1  0
  6 14  1  0
  8 15  1  0
  9 16  1  0
  9 17  1  0
M  END
