
     RDKit          3D

 19 20  0  0  0  0  0  0  0  0999 V2000
    2.1403   -0.8004   -0.4475 C   0  0  0  0  0  0  0  0  0  0  0  0
    0.8434   -1.0616   -0.4956 C   0  0  0  0  0  0  0  0  0  0  0  0
    0.1337    0.1737   -0.1622 C   0  0  0  0  0  0  0  0  0  0  0  0
   -0.6442    0.0638    1.1178 C   0  0  0  0  0  0  0  0  0  0  0  0
   -2.0510   -0.2082    0.6128 C   0  0  0  0  0  0  0  0  0  0  0  0
   -1.8487   -0.3241   -0.8773 C   0  0  0  0  0  0  0  0  0  0  0  0
   -0.7918    0.5432   -1.1459 O   0  0  0  0  0  0  0  0  0  0  0  0
    1.0681    1.1938   -0.0836 O   0  0  0  0  0  0  0  0  0  0  0  0
    2.3300    0.6489   -0.0721 C   0  0  0  0  0  0  0  0  0  0  0  0
    2.9913   -1.4447   -0.6288 H   0  0  0  0  0  0  0  0  0  0  0  0
    0.3892   -2.0083   -0.7358 H   0  0  0  0  0  0  0  0  0  0  0  0
   -0.5826    0.9677    1.7342 H   0  0  0  0  0  0  0  0  0  0  0  0
   -0.2934   -0.7839    1.7650 H   0  0  0  0  0  0  0  0  0  0  0  0
   -2.7398    0.6219    0.8220 H   0  0  0  0  0  0  0  0  0  0  0  0
   -2.4116   -1.1789    1.0241 H   0  0  0  0  0  0  0  0  0  0  0  0
   -1.4988   -1.3395   -1.1271 H   0  0  0  0  0  0  0  0  0  0  0  0
   -2.7702   -0.0444   -1.4455 H   0  0  0  0  0  0  0  0  0  0  0  0
    2.7216    0.6886    0.9672 H   0  0  0  0  0  0  0  0  0  0  0  0
    3.0144    1.0681   -0.8216 H   0  0  0  0  0  0  0  0  0  0  0  0
  1  2  2  0
  2  3  1  0
  3  4  1  0
  4  5  1  0
  5  6  1  0
  6  7  1  0
  3  8  1  0
  8  9  1  0
  9  1  1  0
  7  3  1  0
  1 10  1  0
  2 11  1  0
  4 12  1  0
  4 13  1  0
  5 14  1  0
  5 15  1  0
  6 16  1  0
  6 17  1  0
  9 18  1  0
  9 19  1  0
M  END
