
     RDKit          3D

 23 24  0  0  0  0  0  0  0  0999 V2000
   -0.9223   -0.5434    1.4856 C   0  0  0  0  0  0  0  0  0  0  0  0
    0.2582   -0.0001    1.7264 C   0  0  0  0  0  0  0  0  0  0  0  0
    1.1732    0.5928    0.7040 C   0  0  0  0  0  0  0  0  0  0  0  0
    1.6188   -0.5219   -0.2086 C   0  0  0  0  0  0  0  0  0  0  0  0
    0.4713   -1.2216   -0.8787 C   0  0  0  0  0  0  0  0  0  0  0  0
   -0.7702   -0.4055   -0.9649 C   0  0  0  0  0  0  0  0  0  0  0  0
   -1.6983   -0.6912    0.2031 C   0  0  0  0  0  0  0  0  0  0  0  0
   -0.5406    1.0680   -1.0717 C   0  0  0  0  0  0  0  0  0  0  0  0
    0.3747    1.6338   -0.0445 C   0  0  0  0  0  0  0  0  0  0  0  0
   -1.4552   -0.9653    2.3251 H   0  0  0  0  0  0  0  0  0  0  0  0
    0.6426    0.0453    2.7294 H   0  0  0  0  0  0  0  0  0  0  0  0
    2.0623    1.0519    1.1433 H   0  0  0  0  0  0  0  0  0  0  0  0
    2.1251   -1.2798    0.4551 H   0  0  0  0  0  0  0  0  0  0  0  0
    2.4069   -0.1873   -0.9111 H   0  0  0  0  0  0  0  0  0  0  0  0
    0.2132   -2.1717   -0.3407 H   0  0  0  0  0  0  0  0  0  0  0  0
    0.7913   -1.5605   -1.9008 H   0  0  0  0  0  0  0  0  0  0  0  0
   -1.3194   -0.7185   -1.8932 H   0  0  0  0  0  0  0  0  0  0  0  0
   -2.4987    0.0764    0.1618 H   0  0  0  0  0  0  0  0  0  0  0  0
   -2.0985   -1.7183    0.0868 H   0  0  0  0  0  0  0  0  0  0  0  0
   -0.1569    1.3734   -2.0752 H   0  0  0  0  0  0  0  0  0  0  0  0
   -1.5447    1.5625   -0.9900 H   0  0  0  0  0  0  0  0  0  0  0  0
    1.0905    2.3848   -0.4723 H   0  0  0  0  0  0  0  0  0  0  0  0
   -0.2233    2.1963    0.7312 H   0  0  0  0  0  0  0  0  0  0  0  0
  1  2  2  0
  2  3  1  0
  3  4  1  0
  4  5  1  0
  5  6  1  0
  6  7  1  0
  6  8  1  0
  8  9  1  0
  7  1  1  0
  9  3  1  0
  1 10  1  0
  2 11  1  0
  3 12  1  0
  4 13  1  0
  4 14  1  0
  5 15  1  0
  5 16  1  0
  6 17  1  0
  7 18  1  0
  7 19  1  0
  8 20  1  0
  8 21  1  0
  9 22  1  0
  9 23  1  0
M  END
