
     RDKit          3D

 19 21  0  0  0  0  0  0  0  0999 V2000
    1.4247   -0.9119    0.6600 C   0  0  0  0  0  0  0  0  0  0  0  0
    0.1676   -1.0615    0.2974 C   0  0  0  0  0  0  0  0  0  0  0  0
   -1.2911   -1.3884    0.0081 C   0  0  0  0  0  0  0  0  0  0  0  0
   -1.4433    0.0817   -0.4231 C   0  0  0  0  0  0  0  0  0  0  0  0
   -1.2223    1.0208    0.7114 C   0  0  0  0  0  0  0  0  0  0  0  0
    0.1270    1.3315    0.8062 O   0  0  0  0  0  0  0  0  0  0  0  0
    0.7639    1.0551   -0.3760 C   0  0  0  0  0  0  0  0  0  0  0  0
    2.0677    0.2487   -0.0683 C   0  0  0  0  0  0  0  0  0  0  0  0
   -0.0184   -0.1021   -0.8949 C   0  0  0  0  0  0  0  0  0  0  0  0
    1.9000   -1.5648    1.3951 H   0  0  0  0  0  0  0  0  0  0  0  0
   -1.4151   -2.0229   -0.8810 H   0  0  0  0  0  0  0  0  0  0  0  0
   -1.8765   -1.5949    0.9020 H   0  0  0  0  0  0  0  0  0  0  0  0
   -2.1781    0.2894   -1.1827 H   0  0  0  0  0  0  0  0  0  0  0  0
   -1.8364    1.9415    0.6470 H   0  0  0  0  0  0  0  0  0  0  0  0
   -1.5206    0.5459    1.6924 H   0  0  0  0  0  0  0  0  0  0  0  0
    0.9509    1.8792   -1.0484 H   0  0  0  0  0  0  0  0  0  0  0  0
    2.6839    0.8319    0.6165 H   0  0  0  0  0  0  0  0  0  0  0  0
    2.5428   -0.0555   -1.0055 H   0  0  0  0  0  0  0  0  0  0  0  0
    0.1733   -0.5239   -1.8563 H   0  0  0  0  0  0  0  0  0  0  0  0
  1  2  2  0
  2  3  1  0
  3  4  1  0
  4  5  1  0
  5  6  1  0
  6  7  1  0
  7  8  1  0
  7  9  1  0
  8  1  1  0
  9  2  1  0
  9  4  1  0
  1 10  1  0
  3 11  1  0
  3 12  1  0
  4 13  1  0
  5 14  1  0
  5 15  1  0
  7 16  1  0
  8 17  1  0
  8 18  1  0
  9 19  1  0
M  END
