
     RDKit          3D

 19 21  0  0  0  0  0  0  0  0999 V2000
    2.0038    0.6951    0.5266 C   0  0  0  0  0  0  0  0  0  0  0  0
    1.8853   -0.6464    0.4219 C   0  0  0  0  0  0  0  0  0  0  0  0
    0.8460   -1.4789   -0.3039 C   0  0  0  0  0  0  0  0  0  0  0  0
   -0.5670   -1.2034    0.0982 C   0  0  0  0  0  0  0  0  0  0  0  0
   -1.5979   -0.4356   -0.5788 C   0  0  0  0  0  0  0  0  0  0  0  0
   -1.7038    1.1379   -0.6358 C   0  0  0  0  0  0  0  0  0  0  0  0
   -0.3013    1.1858   -0.3078 C   0  0  0  0  0  0  0  0  0  0  0  0
    0.9590    1.5076   -0.1716 C   0  0  0  0  0  0  0  0  0  0  0  0
   -0.8253    0.0508    0.6988 C   0  0  0  0  0  0  0  0  0  0  0  0
    2.7693    1.1895    1.0199 H   0  0  0  0  0  0  0  0  0  0  0  0
    2.6615   -1.1656    0.9392 H   0  0  0  0  0  0  0  0  0  0  0  0
    0.9393   -1.2326   -1.3863 H   0  0  0  0  0  0  0  0  0  0  0  0
    1.1626   -2.5281   -0.1983 H   0  0  0  0  0  0  0  0  0  0  0  0
   -0.9390   -2.0797    0.7317 H   0  0  0  0  0  0  0  0  0  0  0  0
   -2.6539   -0.8024   -0.4105 H   0  0  0  0  0  0  0  0  0  0  0  0
   -2.1008    1.5059   -1.5698 H   0  0  0  0  0  0  0  0  0  0  0  0
   -2.3288    1.4649    0.2168 H   0  0  0  0  0  0  0  0  0  0  0  0
    1.2106    2.4469   -0.5953 H   0  0  0  0  0  0  0  0  0  0  0  0
   -1.4197    0.3882    1.5049 H   0  0  0  0  0  0  0  0  0  0  0  0
  1  2  2  0
  2  3  1  0
  3  4  1  0
  4  5  1  0
  5  6  1  0
  6  7  1  0
  7  8  2  0
  7  9  1  0
  8  1  1  0
  9  4  1  0
  9  5  1  0
  1 10  1  0
  2 11  1  0
  3 12  1  0
  3 13  1  0
  4 14  1  0
  5 15  1  0
  6 16  1  0
  6 17  1  0
  8 18  1  0
  9 19  1  0
M  END
