
     RDKit          3D

 18 19  0  0  0  0  0  0  0  0999 V2000
   -0.6762   -0.9413   -0.9911 C   0  0  0  0  0  0  0  0  0  0  0  0
    0.2146   -0.3908   -0.1623 C   0  0  0  0  0  0  0  0  0  0  0  0
    1.5976   -0.8537    0.1453 C   0  0  0  0  0  0  0  0  0  0  0  0
    2.6593    0.1717   -0.2010 C   0  0  0  0  0  0  0  0  0  0  0  0
    2.5048   -1.0480   -0.8637 O   0  0  0  0  0  0  0  0  0  0  0  0
   -0.3720    0.8266    0.4657 C   0  0  0  0  0  0  0  0  0  0  0  0
   -1.8551    0.4669    0.4342 C   0  0  0  0  0  0  0  0  0  0  0  0
   -1.9391   -0.1221   -0.9774 C   0  0  0  0  0  0  0  0  0  0  0  0
   -0.4747   -1.8339   -1.5594 H   0  0  0  0  0  0  0  0  0  0  0  0
    1.7192   -1.2998    1.1412 H   0  0  0  0  0  0  0  0  0  0  0  0
    3.5106    0.3094    0.4900 H   0  0  0  0  0  0  0  0  0  0  0  0
    2.3916    1.0388   -0.8219 H   0  0  0  0  0  0  0  0  0  0  0  0
   -0.1518    1.6691   -0.2207 H   0  0  0  0  0  0  0  0  0  0  0  0
   -0.0349    0.9893    1.4882 H   0  0  0  0  0  0  0  0  0  0  0  0
   -1.9945   -0.3160    1.2034 H   0  0  0  0  0  0  0  0  0  0  0  0
   -2.4804    1.3466    0.5548 H   0  0  0  0  0  0  0  0  0  0  0  0
   -2.8318   -0.7210   -1.1273 H   0  0  0  0  0  0  0  0  0  0  0  0
   -1.7872    0.7083   -1.6707 H   0  0  0  0  0  0  0  0  0  0  0  0
  1  2  2  0
  2  3  1  0
  3  4  1  0
  4  5  1  0
  2  6  1  0
  6  7  1  0
  7  8  1  0
  8  1  1  0
  5  3  1  0
  1  9  1  0
  3 10  1  0
  4 11  1  0
  4 12  1  0
  6 13  1  0
  6 14  1  0
  7 15  1  0
  7 16  1  0
  8 17  1  0
  8 18  1  0
M  END
