
     RDKit          3D

 23 24  0  0  0  0  0  0  0  0999 V2000
    1.9914    1.0059   -0.5164 C   0  0  0  0  0  0  0  0  0  0  0  0
    0.7747    1.5165   -0.6677 C   0  0  0  0  0  0  0  0  0  0  0  0
   -0.3620    0.5598   -0.6346 C   0  0  0  0  0  0  0  0  0  0  0  0
   -1.6187    1.1207   -0.0808 C   0  0  0  0  0  0  0  0  0  0  0  0
   -2.2278    0.0241    0.8040 C   0  0  0  0  0  0  0  0  0  0  0  0
   -1.2810   -1.1737    0.6450 C   0  0  0  0  0  0  0  0  0  0  0  0
    0.0134   -0.4815    0.4237 C   0  0  0  0  0  0  0  0  0  0  0  0
    1.1048   -1.3040   -0.1442 C   0  0  0  0  0  0  0  0  0  0  0  0
    2.3177   -0.4159   -0.3194 C   0  0  0  0  0  0  0  0  0  0  0  0
    2.8131    1.7156   -0.5423 H   0  0  0  0  0  0  0  0  0  0  0  0
    0.6204    2.5970   -0.8106 H   0  0  0  0  0  0  0  0  0  0  0  0
   -0.4526    0.1023   -1.6362 H   0  0  0  0  0  0  0  0  0  0  0  0
   -1.5224    2.0727    0.4519 H   0  0  0  0  0  0  0  0  0  0  0  0
   -2.3516    1.2515   -0.9297 H   0  0  0  0  0  0  0  0  0  0  0  0
   -2.1741    0.3466    1.8607 H   0  0  0  0  0  0  0  0  0  0  0  0
   -3.2514   -0.2130    0.5308 H   0  0  0  0  0  0  0  0  0  0  0  0
   -1.5461   -1.7494   -0.2592 H   0  0  0  0  0  0  0  0  0  0  0  0
   -1.2311   -1.7758    1.5648 H   0  0  0  0  0  0  0  0  0  0  0  0
    0.3835    0.0556    1.3073 H   0  0  0  0  0  0  0  0  0  0  0  0
    1.3279   -2.1482    0.5729 H   0  0  0  0  0  0  0  0  0  0  0  0
    0.8235   -1.8113   -1.0931 H   0  0  0  0  0  0  0  0  0  0  0  0
    2.9404   -0.8133   -1.1680 H   0  0  0  0  0  0  0  0  0  0  0  0
    2.9080   -0.4822    0.6410 H   0  0  0  0  0  0  0  0  0  0  0  0
  1  2  2  0
  2  3  1  0
  3  4  1  0
  4  5  1  0
  5  6  1  0
  6  7  1  0
  7  8  1  0
  8  9  1  0
  9  1  1  0
  7  3  1  0
  1 10  1  0
  2 11  1  0
  3 12  1  0
  4 13  1  0
  4 14  1  0
  5 15  1  0
  5 16  1  0
  6 17  1  0
  6 18  1  0
  7 19  1  0
  8 20  1  0
  8 21  1  0
  9 22  1  0
  9 23  1  0
M  END
