
     RDKit          3D

 19 20  0  0  0  0  0  0  0  0999 V2000
   -1.0088    0.9876    0.3313 C   0  0  0  0  0  0  0  0  0  0  0  0
   -0.6235   -0.2425    0.0515 C   0  0  0  0  0  0  0  0  0  0  0  0
    0.7250   -0.7198   -0.3234 C   0  0  0  0  0  0  0  0  0  0  0  0
    1.7440    0.3579   -0.3864 C   0  0  0  0  0  0  0  0  0  0  0  0
    3.1255    0.0944   -0.7297 C   0  0  0  0  0  0  0  0  0  0  0  0
    2.7591    0.1776    0.6779 O   0  0  0  0  0  0  0  0  0  0  0  0
   -1.8620   -1.1163    0.1754 C   0  0  0  0  0  0  0  0  0  0  0  0
   -2.8800   -0.1772   -0.0936 O   0  0  0  0  0  0  0  0  0  0  0  0
   -2.4595    0.9203    0.6441 C   0  0  0  0  0  0  0  0  0  0  0  0
   -0.3845    1.9083    0.3388 H   0  0  0  0  0  0  0  0  0  0  0  0
    0.6456   -1.2886   -1.2870 H   0  0  0  0  0  0  0  0  0  0  0  0
    1.0050   -1.4605    0.4703 H   0  0  0  0  0  0  0  0  0  0  0  0
    1.3568    1.3958   -0.4247 H   0  0  0  0  0  0  0  0  0  0  0  0
    3.7761    0.9387   -0.9799 H   0  0  0  0  0  0  0  0  0  0  0  0
    3.3971   -0.9086   -1.0869 H   0  0  0  0  0  0  0  0  0  0  0  0
   -1.7960   -1.8219   -0.6639 H   0  0  0  0  0  0  0  0  0  0  0  0
   -1.9498   -1.5590    1.1679 H   0  0  0  0  0  0  0  0  0  0  0  0
   -2.9995    1.8467    0.3843 H   0  0  0  0  0  0  0  0  0  0  0  0
   -2.5704    0.6671    1.7339 H   0  0  0  0  0  0  0  0  0  0  0  0
  1  2  2  0
  2  3  1  0
  3  4  1  0
  4  5  1  0
  5  6  1  0
  2  7  1  0
  7  8  1  0
  8  9  1  0
  9  1  1  0
  6  4  1  0
  1 10  1  0
  3 11  1  0
  3 12  1  0
  4 13  1  0
  5 14  1  0
  5 15  1  0
  7 16  1  0
  7 17  1  0
  9 18  1  0
  9 19  1  0
M  END
