
     RDKit          3D

 17 20  0  0  0  0  0  0  0  0999 V2000
   -1.6995    0.1505    0.6525 C   0  0  0  0  0  0  0  0  0  0  0  0
   -0.6294    0.2955    1.4207 C   0  0  0  0  0  0  0  0  0  0  0  0
    0.6141    0.3614    0.6547 C   0  0  0  0  0  0  0  0  0  0  0  0
    0.8425    1.3364   -0.4308 C   0  0  0  0  0  0  0  0  0  0  0  0
    0.1554    0.0743   -0.8148 C   0  0  0  0  0  0  0  0  0  0  0  0
   -1.3334    0.0959   -0.7692 C   0  0  0  0  0  0  0  0  0  0  0  0
    0.8942   -1.2375   -0.6675 C   0  0  0  0  0  0  0  0  0  0  0  0
    2.2915   -1.0486   -0.5327 O   0  0  0  0  0  0  0  0  0  0  0  0
    1.3934   -0.9368    0.5490 C   0  0  0  0  0  0  0  0  0  0  0  0
   -2.7404    0.0771    0.9998 H   0  0  0  0  0  0  0  0  0  0  0  0
   -0.6902    0.3565    2.4966 H   0  0  0  0  0  0  0  0  0  0  0  0
    0.2415    2.2538   -0.4627 H   0  0  0  0  0  0  0  0  0  0  0  0
    1.8881    1.4307   -0.7806 H   0  0  0  0  0  0  0  0  0  0  0  0
   -1.8268   -0.6960   -1.3390 H   0  0  0  0  0  0  0  0  0  0  0  0
   -1.6612    1.0769   -1.2234 H   0  0  0  0  0  0  0  0  0  0  0  0
    0.5482   -2.1220   -1.1942 H   0  0  0  0  0  0  0  0  0  0  0  0
    1.7119   -1.4684    1.4416 H   0  0  0  0  0  0  0  0  0  0  0  0
  1  2  2  0
  2  3  1  0
  3  4  1  0
  4  5  1  0
  5  6  1  0
  5  7  1  0
  7  8  1  0
  8  9  1  0
  6  1  1  0
  9  7  1  0
  5  3  1  0
  9  3  1  0
  1 10  1  0
  2 11  1  0
  4 12  1  0
  4 13  1  0
  6 14  1  0
  6 15  1  0
  7 16  1  0
  9 17  1  0
M  END
