
     RDKit          3D

 19 21  0  0  0  0  0  0  0  0999 V2000
    1.7918    0.1714    0.4488 C   0  0  0  0  0  0  0  0  0  0  0  0
    1.6945   -1.0909    0.1006 C   0  0  0  0  0  0  0  0  0  0  0  0
    0.3418   -1.5706   -0.3057 C   0  0  0  0  0  0  0  0  0  0  0  0
   -0.8453   -1.1447    0.3556 C   0  0  0  0  0  0  0  0  0  0  0  0
   -2.0889   -0.6551    0.0599 O   0  0  0  0  0  0  0  0  0  0  0  0
   -1.8044    0.7455    0.0696 C   0  0  0  0  0  0  0  0  0  0  0  0
   -0.3986    0.8499   -0.5651 C   0  0  0  0  0  0  0  0  0  0  0  0
    0.6664    1.1397    0.4660 C   0  0  0  0  0  0  0  0  0  0  0  0
   -0.2879   -0.5381   -1.0010 C   0  0  0  0  0  0  0  0  0  0  0  0
    2.7839    0.5215    0.7467 H   0  0  0  0  0  0  0  0  0  0  0  0
    2.5278   -1.7442    0.1052 H   0  0  0  0  0  0  0  0  0  0  0  0
    0.3767   -2.5854   -0.7697 H   0  0  0  0  0  0  0  0  0  0  0  0
   -0.5567   -0.6044    1.3125 H   0  0  0  0  0  0  0  0  0  0  0  0
   -1.7101    1.0170    1.1204 H   0  0  0  0  0  0  0  0  0  0  0  0
   -2.5409    1.3032   -0.5097 H   0  0  0  0  0  0  0  0  0  0  0  0
   -0.3999    1.5711   -1.4010 H   0  0  0  0  0  0  0  0  0  0  0  0
    0.2312    1.2691    1.4808 H   0  0  0  0  0  0  0  0  0  0  0  0
    1.0958    2.1310    0.1965 H   0  0  0  0  0  0  0  0  0  0  0  0
   -0.8772   -0.7858   -1.9106 H   0  0  0  0  0  0  0  0  0  0  0  0
  1  2  2  0
  2  3  1  0
  3  4  1  0
  4  5  1  0
  5  6  1  0
  6  7  1  0
  7  8  1  0
  7  9  1  0
  8  1  1  0
  9  3  1  0
  9  4  1  0
  1 10  1  0
  2 11  1  0
  3 12  1  0
  4 13  1  0
  6 14  1  0
  6 15  1  0
  7 16  1  0
  8 17  1  0
  8 18  1  0
  9 19  1  0
M  END
