
     RDKit          3D

 18 19  0  0  0  0  0  0  0  0999 V2000
    0.5035    1.4749   -0.2644 C   0  0  0  0  0  0  0  0  0  0  0  0
   -0.7392    1.3784    0.2168 C   0  0  0  0  0  0  0  0  0  0  0  0
   -1.1664   -0.0352    0.5191 C   0  0  0  0  0  0  0  0  0  0  0  0
   -1.1602   -0.7780   -0.7800 C   0  0  0  0  0  0  0  0  0  0  0  0
   -0.0564   -1.6156   -0.7858 O   0  0  0  0  0  0  0  0  0  0  0  0
    0.9056   -0.9686    0.0184 C   0  0  0  0  0  0  0  0  0  0  0  0
    1.3621    0.3214   -0.5740 C   0  0  0  0  0  0  0  0  0  0  0  0
    0.0461   -0.6343    1.2386 C   0  0  0  0  0  0  0  0  0  0  0  0
    0.9132    2.4696   -0.4411 H   0  0  0  0  0  0  0  0  0  0  0  0
   -1.3895    2.2065    0.3815 H   0  0  0  0  0  0  0  0  0  0  0  0
   -2.0764   -0.0934    1.0937 H   0  0  0  0  0  0  0  0  0  0  0  0
   -2.0712   -1.3667   -0.9612 H   0  0  0  0  0  0  0  0  0  0  0  0
   -1.0297   -0.0946   -1.6701 H   0  0  0  0  0  0  0  0  0  0  0  0
    1.6903   -1.6856    0.2377 H   0  0  0  0  0  0  0  0  0  0  0  0
    1.4718    0.2616   -1.6957 H   0  0  0  0  0  0  0  0  0  0  0  0
    2.3936    0.5261   -0.1642 H   0  0  0  0  0  0  0  0  0  0  0  0
   -0.2038   -1.5052    1.8346 H   0  0  0  0  0  0  0  0  0  0  0  0
    0.6066    0.1389    1.7962 H   0  0  0  0  0  0  0  0  0  0  0  0
  1  2  2  0
  2  3  1  0
  3  4  1  0
  4  5  1  0
  5  6  1  0
  6  7  1  0
  6  8  1  0
  7  1  1  0
  8  3  1  0
  1  9  1  0
  2 10  1  0
  3 11  1  0
  4 12  1  0
  4 13  1  0
  6 14  1  0
  7 15  1  0
  7 16  1  0
  8 17  1  0
  8 18  1  0
M  END
