
     RDKit          3D

 18 19  0  0  0  0  0  0  0  0999 V2000
    0.6333    0.8882    1.0376 C   0  0  0  0  0  0  0  0  0  0  0  0
    0.7834   -0.4063    1.2977 C   0  0  0  0  0  0  0  0  0  0  0  0
    0.7515   -1.1922    0.0204 C   0  0  0  0  0  0  0  0  0  0  0  0
    1.1637   -0.0964   -0.9704 C   0  0  0  0  0  0  0  0  0  0  0  0
    0.3093    1.0330   -0.4091 C   0  0  0  0  0  0  0  0  0  0  0  0
   -1.1741    0.6947   -0.5505 C   0  0  0  0  0  0  0  0  0  0  0  0
   -1.4653   -0.6535    0.0114 C   0  0  0  0  0  0  0  0  0  0  0  0
   -0.5429   -1.6199   -0.2726 O   0  0  0  0  0  0  0  0  0  0  0  0
    0.7328    1.6881    1.7642 H   0  0  0  0  0  0  0  0  0  0  0  0
    0.9116   -0.8356    2.2998 H   0  0  0  0  0  0  0  0  0  0  0  0
    1.4748   -2.0006    0.0753 H   0  0  0  0  0  0  0  0  0  0  0  0
    2.2098    0.1490   -0.7709 H   0  0  0  0  0  0  0  0  0  0  0  0
    0.9201   -0.3487   -1.9943 H   0  0  0  0  0  0  0  0  0  0  0  0
    0.5508    2.0054   -0.8191 H   0  0  0  0  0  0  0  0  0  0  0  0
   -1.7006    1.4468    0.1073 H   0  0  0  0  0  0  0  0  0  0  0  0
   -1.5281    0.8174   -1.5783 H   0  0  0  0  0  0  0  0  0  0  0  0
   -1.5681   -0.5956    1.1219 H   0  0  0  0  0  0  0  0  0  0  0  0
   -2.4622   -0.9737   -0.3703 H   0  0  0  0  0  0  0  0  0  0  0  0
  1  2  2  0
  2  3  1  0
  3  4  1  0
  4  5  1  0
  5  6  1  0
  6  7  1  0
  7  8  1  0
  5  1  1  0
  8  3  1  0
  1  9  1  0
  2 10  1  0
  3 11  1  0
  4 12  1  0
  4 13  1  0
  5 14  1  0
  6 15  1  0
  6 16  1  0
  7 17  1  0
  7 18  1  0
M  END
