
     RDKit          3D

 19 21  0  0  0  0  0  0  0  0999 V2000
   -0.8850    0.5541    1.4421 C   0  0  0  0  0  0  0  0  0  0  0  0
    0.3789    0.2031    1.3989 C   0  0  0  0  0  0  0  0  0  0  0  0
    1.0602   -0.1434    0.1476 C   0  0  0  0  0  0  0  0  0  0  0  0
    2.5053   -0.3943    0.2140 C   0  0  0  0  0  0  0  0  0  0  0  0
    1.5383   -1.4900    0.0126 O   0  0  0  0  0  0  0  0  0  0  0  0
    0.4698    0.4986   -1.0653 C   0  0  0  0  0  0  0  0  0  0  0  0
   -1.0111    0.6151   -1.0501 C   0  0  0  0  0  0  0  0  0  0  0  0
   -1.7595   -0.6311   -0.5865 C   0  0  0  0  0  0  0  0  0  0  0  0
   -1.6928    0.6191    0.2245 C   0  0  0  0  0  0  0  0  0  0  0  0
   -1.3561    0.8070    2.4150 H   0  0  0  0  0  0  0  0  0  0  0  0
    0.9067    0.1842    2.3742 H   0  0  0  0  0  0  0  0  0  0  0  0
    2.9870   -0.5573    1.2155 H   0  0  0  0  0  0  0  0  0  0  0  0
    3.1807   -0.2383   -0.6487 H   0  0  0  0  0  0  0  0  0  0  0  0
    0.9000    1.5167   -1.1888 H   0  0  0  0  0  0  0  0  0  0  0  0
    0.7967   -0.0810   -1.9532 H   0  0  0  0  0  0  0  0  0  0  0  0
   -1.4757    1.1024   -1.9212 H   0  0  0  0  0  0  0  0  0  0  0  0
   -2.7451   -0.8513   -1.0512 H   0  0  0  0  0  0  0  0  0  0  0  0
   -1.1771   -1.5111   -0.2943 H   0  0  0  0  0  0  0  0  0  0  0  0
   -2.6210    1.2585    0.3150 H   0  0  0  0  0  0  0  0  0  0  0  0
  1  2  2  0
  2  3  1  0
  3  4  1  0
  4  5  1  0
  3  6  1  0
  6  7  1  0
  7  8  1  0
  8  9  1  0
  9  1  1  0
  5  3  1  0
  9  7  1  0
  1 10  1  0
  2 11  1  0
  4 12  1  0
  4 13  1  0
  6 14  1  0
  6 15  1  0
  7 16  1  0
  8 17  1  0
  8 18  1  0
  9 19  1  0
M  END
