
     RDKit          3D

 17 18  0  0  0  0  0  0  0  0999 V2000
   -1.0583    1.2832    0.2335 C   0  0  0  0  0  0  0  0  0  0  0  0
    0.2534    1.4840    0.5117 C   0  0  0  0  0  0  0  0  0  0  0  0
    0.9506    0.2111    0.6930 C   0  0  0  0  0  0  0  0  0  0  0  0
    1.9303   -0.4842   -0.0399 C   0  0  0  0  0  0  0  0  0  0  0  0
    0.7007   -0.4144   -0.7327 C   0  0  0  0  0  0  0  0  0  0  0  0
   -0.5962   -1.0574   -0.5921 C   0  0  0  0  0  0  0  0  0  0  0  0
   -1.5120   -0.1280    0.1721 C   0  0  0  0  0  0  0  0  0  0  0  0
   -1.7436    2.1174    0.0637 H   0  0  0  0  0  0  0  0  0  0  0  0
    0.6500    2.4671    0.5734 H   0  0  0  0  0  0  0  0  0  0  0  0
    0.4818   -0.3493    1.5579 H   0  0  0  0  0  0  0  0  0  0  0  0
    2.2628   -1.4967    0.3361 H   0  0  0  0  0  0  0  0  0  0  0  0
    2.8366    0.0253   -0.4694 H   0  0  0  0  0  0  0  0  0  0  0  0
    0.6915    0.3173   -1.5999 H   0  0  0  0  0  0  0  0  0  0  0  0
   -1.1049   -1.2089   -1.5934 H   0  0  0  0  0  0  0  0  0  0  0  0
   -0.5866   -2.0671   -0.1100 H   0  0  0  0  0  0  0  0  0  0  0  0
   -2.5573   -0.1753   -0.2207 H   0  0  0  0  0  0  0  0  0  0  0  0
   -1.5989   -0.5240    1.2166 H   0  0  0  0  0  0  0  0  0  0  0  0
  1  2  2  0
  2  3  1  0
  3  4  1  0
  4  5  1  0
  5  6  1  0
  6  7  1  0
  7  1  1  0
  5  3  1  0
  1  8  1  0
  2  9  1  0
  3 10  1  0
  4 11  1  0
  4 12  1  0
  5 13  1  0
  6 14  1  0
  6 15  1  0
  7 16  1  0
  7 17  1  0
M  END
