
     RDKit          3D

 21 23  0  0  0  0  0  0  0  0999 V2000
   -2.0430   -0.0787    0.0750 C   0  0  0  0  0  0  0  0  0  0  0  0
   -1.4092    0.8724   -0.5791 C   0  0  0  0  0  0  0  0  0  0  0  0
   -0.0585    1.2669   -0.1898 C   0  0  0  0  0  0  0  0  0  0  0  0
    1.0888    0.5929   -0.9017 C   0  0  0  0  0  0  0  0  0  0  0  0
    0.6836   -0.8468   -0.8789 C   0  0  0  0  0  0  0  0  0  0  0  0
    0.1605   -0.9303    0.5704 C   0  0  0  0  0  0  0  0  0  0  0  0
   -1.2878   -1.2780    0.5109 C   0  0  0  0  0  0  0  0  0  0  0  0
    0.4289    0.4769    1.0059 C   0  0  0  0  0  0  0  0  0  0  0  0
    1.8285    0.7120    0.4414 C   0  0  0  0  0  0  0  0  0  0  0  0
   -3.1244   -0.0082    0.3057 H   0  0  0  0  0  0  0  0  0  0  0  0
   -1.9115    1.3616   -1.4116 H   0  0  0  0  0  0  0  0  0  0  0  0
    0.0639    2.3746   -0.0836 H   0  0  0  0  0  0  0  0  0  0  0  0
    1.5283    1.0369   -1.7517 H   0  0  0  0  0  0  0  0  0  0  0  0
    1.5920   -1.5001   -0.9756 H   0  0  0  0  0  0  0  0  0  0  0  0
   -0.0927   -1.1195   -1.6017 H   0  0  0  0  0  0  0  0  0  0  0  0
    0.7268   -1.6657    1.1570 H   0  0  0  0  0  0  0  0  0  0  0  0
   -1.4403   -2.0444   -0.3057 H   0  0  0  0  0  0  0  0  0  0  0  0
   -1.6762   -1.6952    1.4628 H   0  0  0  0  0  0  0  0  0  0  0  0
    0.2113    0.8055    1.9802 H   0  0  0  0  0  0  0  0  0  0  0  0
    2.5493   -0.0843    0.6315 H   0  0  0  0  0  0  0  0  0  0  0  0
    2.1814    1.7513    0.5386 H   0  0  0  0  0  0  0  0  0  0  0  0
  1  2  2  0
  2  3  1  0
  3  4  1  0
  4  5  1  0
  5  6  1  0
  6  7  1  0
  6  8  1  0
  8  9  1  0
  7  1  1  0
  8  3  1  0
  9  4  1  0
  1 10  1  0
  2 11  1  0
  3 12  1  0
  4 13  1  0
  5 14  1  0
  5 15  1  0
  6 16  1  0
  7 17  1  0
  7 18  1  0
  8 19  1  0
  9 20  1  0
  9 21  1  0
M  END
