
     RDKit          3D

 19 21  0  0  0  0  0  0  0  0999 V2000
    1.4099    1.0834    0.6607 C   0  0  0  0  0  0  0  0  0  0  0  0
    0.1305    1.2892    0.3656 C   0  0  0  0  0  0  0  0  0  0  0  0
   -0.6939    0.1108    0.0792 C   0  0  0  0  0  0  0  0  0  0  0  0
   -1.9499    0.1331   -0.6521 C   0  0  0  0  0  0  0  0  0  0  0  0
   -1.9635   -0.0068    0.8363 C   0  0  0  0  0  0  0  0  0  0  0  0
    0.2144   -1.0745   -0.1206 C   0  0  0  0  0  0  0  0  0  0  0  0
    1.3545   -0.6569   -1.0087 C   0  0  0  0  0  0  0  0  0  0  0  0
    1.9286   -0.3001    0.3458 C   0  0  0  0  0  0  0  0  0  0  0  0
    1.1005   -1.2570    0.9099 O   0  0  0  0  0  0  0  0  0  0  0  0
    2.0580    1.8290    1.0942 H   0  0  0  0  0  0  0  0  0  0  0  0
   -0.2687    2.2925    0.3424 H   0  0  0  0  0  0  0  0  0  0  0  0
   -2.3298    1.0676   -1.1049 H   0  0  0  0  0  0  0  0  0  0  0  0
   -2.2425   -0.8181   -1.1841 H   0  0  0  0  0  0  0  0  0  0  0  0
   -2.1937   -0.9487    1.3346 H   0  0  0  0  0  0  0  0  0  0  0  0
   -2.3248    0.9121    1.3835 H   0  0  0  0  0  0  0  0  0  0  0  0
   -0.2698   -1.9791   -0.5383 H   0  0  0  0  0  0  0  0  0  0  0  0
    1.8612   -1.4560   -1.5523 H   0  0  0  0  0  0  0  0  0  0  0  0
    1.1767    0.2093   -1.6627 H   0  0  0  0  0  0  0  0  0  0  0  0
    3.0021   -0.4297    0.4716 H   0  0  0  0  0  0  0  0  0  0  0  0
  1  2  2  0
  2  3  1  0
  3  4  1  0
  4  5  1  0
  3  6  1  0
  6  7  1  0
  7  8  1  0
  8  9  1  0
  8  1  1  0
  5  3  1  0
  9  6  1  0
  1 10  1  0
  2 11  1  0
  4 12  1  0
  4 13  1  0
  5 14  1  0
  5 15  1  0
  6 16  1  0
  7 17  1  0
  7 18  1  0
  8 19  1  0
M  END
