
     RDKit          3D

 21 22  0  0  0  0  0  0  0  0999 V2000
   -1.6579   -0.6192    0.4639 C   0  0  0  0  0  0  0  0  0  0  0  0
   -1.4093    0.6500    0.7226 C   0  0  0  0  0  0  0  0  0  0  0  0
   -0.6711    1.6389   -0.0718 C   0  0  0  0  0  0  0  0  0  0  0  0
    0.6602    1.1757   -0.5625 C   0  0  0  0  0  0  0  0  0  0  0  0
    1.5443    0.6007    0.4880 C   0  0  0  0  0  0  0  0  0  0  0  0
    1.2594   -0.8992    0.4186 C   0  0  0  0  0  0  0  0  0  0  0  0
    0.4368   -1.0260   -0.8173 C   0  0  0  0  0  0  0  0  0  0  0  0
   -0.9865   -1.4599   -0.5578 C   0  0  0  0  0  0  0  0  0  0  0  0
    0.4762    0.1675   -1.5008 O   0  0  0  0  0  0  0  0  0  0  0  0
   -2.4159   -1.1197    1.0330 H   0  0  0  0  0  0  0  0  0  0  0  0
   -1.8446    0.9571    1.6916 H   0  0  0  0  0  0  0  0  0  0  0  0
   -0.5945    2.5722    0.5245 H   0  0  0  0  0  0  0  0  0  0  0  0
   -1.2804    1.9051   -0.9783 H   0  0  0  0  0  0  0  0  0  0  0  0
    1.1803    2.0603   -1.0029 H   0  0  0  0  0  0  0  0  0  0  0  0
    2.6104    0.7520    0.1483 H   0  0  0  0  0  0  0  0  0  0  0  0
    1.3668    1.0151    1.4819 H   0  0  0  0  0  0  0  0  0  0  0  0
    0.7467   -1.2520    1.3225 H   0  0  0  0  0  0  0  0  0  0  0  0
    2.2239   -1.4608    0.3429 H   0  0  0  0  0  0  0  0  0  0  0  0
    0.8964   -1.8176   -1.4526 H   0  0  0  0  0  0  0  0  0  0  0  0
   -1.5488   -1.3375   -1.5045 H   0  0  0  0  0  0  0  0  0  0  0  0
   -0.9922   -2.5026   -0.1892 H   0  0  0  0  0  0  0  0  0  0  0  0
  1  2  2  0
  2  3  1  0
  3  4  1  0
  4  5  1  0
  5  6  1  0
  6  7  1  0
  7  8  1  0
  7  9  1  0
  8  1  1  0
  9  4  1  0
  1 10  1  0
  2 11  1  0
  3 12  1  0
  3 13  1  0
  4 14  1  0
  5 15  1  0
  5 16  1  0
  6 17  1  0
  6 18  1  0
  7 19  1  0
  8 20  1  0
  8 21  1  0
M  END
