
     RDKit          3D

 19 20  0  0  0  0  0  0  0  0999 V2000
    1.9569    0.6460    0.4252 C   0  0  0  0  0  0  0  0  0  0  0  0
    0.7835    1.2913    0.2436 C   0  0  0  0  0  0  0  0  0  0  0  0
   -0.2629    0.5279   -0.4397 C   0  0  0  0  0  0  0  0  0  0  0  0
   -1.6464    0.7047    0.1503 C   0  0  0  0  0  0  0  0  0  0  0  0
   -2.2552   -0.6207   -0.3304 C   0  0  0  0  0  0  0  0  0  0  0  0
   -1.2085   -1.5048   -0.4976 O   0  0  0  0  0  0  0  0  0  0  0  0
   -0.0616   -0.9411   -0.0270 C   0  0  0  0  0  0  0  0  0  0  0  0
    1.1085   -1.3515   -0.5969 O   0  0  0  0  0  0  0  0  0  0  0  0
    2.1880   -0.7392   -0.0289 C   0  0  0  0  0  0  0  0  0  0  0  0
    2.7800    1.1465    0.9238 H   0  0  0  0  0  0  0  0  0  0  0  0
    0.7115    2.3019    0.6106 H   0  0  0  0  0  0  0  0  0  0  0  0
   -0.2724    0.6275   -1.5361 H   0  0  0  0  0  0  0  0  0  0  0  0
   -2.1837    1.5698   -0.2299 H   0  0  0  0  0  0  0  0  0  0  0  0
   -1.5645    0.6664    1.2544 H   0  0  0  0  0  0  0  0  0  0  0  0
   -2.6361   -0.3879   -1.3683 H   0  0  0  0  0  0  0  0  0  0  0  0
   -3.0481   -0.9642    0.3361 H   0  0  0  0  0  0  0  0  0  0  0  0
   -0.0293   -0.9282    1.0929 H   0  0  0  0  0  0  0  0  0  0  0  0
    3.0035   -0.7099   -0.7999 H   0  0  0  0  0  0  0  0  0  0  0  0
    2.6370   -1.3344    0.8178 H   0  0  0  0  0  0  0  0  0  0  0  0
  1  2  2  0
  2  3  1  0
  3  4  1  0
  4  5  1  0
  5  6  1  0
  6  7  1  0
  7  8  1  0
  8  9  1  0
  9  1  1  0
  7  3  1  0
  1 10  1  0
  2 11  1  0
  3 12  1  0
  4 13  1  0
  4 14  1  0
  5 15  1  0
  5 16  1  0
  7 17  1  0
  9 18  1  0
  9 19  1  0
M  END
