
     RDKit          3D

 19 21  0  0  0  0  0  0  0  0999 V2000
    0.7229    1.4344   -0.4359 C   0  0  0  0  0  0  0  0  0  0  0  0
   -0.6212    1.4063   -0.3918 C   0  0  0  0  0  0  0  0  0  0  0  0
   -1.5680    0.2760   -0.4622 C   0  0  0  0  0  0  0  0  0  0  0  0
   -1.9676   -0.4870    0.7460 C   0  0  0  0  0  0  0  0  0  0  0  0
   -1.1071   -1.0560   -0.4154 C   0  0  0  0  0  0  0  0  0  0  0  0
    0.1002   -1.4766   -0.0476 O   0  0  0  0  0  0  0  0  0  0  0  0
    0.9869   -0.7008    0.5660 C   0  0  0  0  0  0  0  0  0  0  0  0
    2.3809   -0.4430    0.3491 C   0  0  0  0  0  0  0  0  0  0  0  0
    1.5330    0.2302   -0.5747 C   0  0  0  0  0  0  0  0  0  0  0  0
    1.1853    2.4189   -0.3614 H   0  0  0  0  0  0  0  0  0  0  0  0
   -1.0511    2.3995   -0.2893 H   0  0  0  0  0  0  0  0  0  0  0  0
   -2.4331    0.5080   -1.1517 H   0  0  0  0  0  0  0  0  0  0  0  0
   -1.4718   -0.3429    1.7183 H   0  0  0  0  0  0  0  0  0  0  0  0
   -3.0034   -0.8608    0.8429 H   0  0  0  0  0  0  0  0  0  0  0  0
   -1.6762   -1.8395   -1.0090 H   0  0  0  0  0  0  0  0  0  0  0  0
    0.5432   -0.1723    1.4642 H   0  0  0  0  0  0  0  0  0  0  0  0
    3.0140   -1.2786   -0.0240 H   0  0  0  0  0  0  0  0  0  0  0  0
    2.9521    0.1658    1.0898 H   0  0  0  0  0  0  0  0  0  0  0  0
    1.4810   -0.1816   -1.6132 H   0  0  0  0  0  0  0  0  0  0  0  0
  1  2  2  0
  2  3  1  0
  3  4  1  0
  4  5  1  0
  5  6  1  0
  6  7  1  0
  7  8  1  0
  8  9  1  0
  9  1  1  0
  5  3  1  0
  9  7  1  0
  1 10  1  0
  2 11  1  0
  3 12  1  0
  4 13  1  0
  4 14  1  0
  5 15  1  0
  7 16  1  0
  8 17  1  0
  8 18  1  0
  9 19  1  0
M  END
