
     RDKit          3D

 17 20  0  0  0  0  0  0  0  0999 V2000
    1.2807    1.1056   -0.0144 C   0  0  0  0  0  0  0  0  0  0  0  0
    1.7584   -0.1564   -0.0680 C   0  0  0  0  0  0  0  0  0  0  0  0
    0.7434   -1.2089   -0.1807 C   0  0  0  0  0  0  0  0  0  0  0  0
   -0.4855   -0.9123   -0.8545 C   0  0  0  0  0  0  0  0  0  0  0  0
   -1.0042    0.4933   -0.8283 C   0  0  0  0  0  0  0  0  0  0  0  0
   -1.9720    0.5622    0.2163 O   0  0  0  0  0  0  0  0  0  0  0  0
   -0.8421    0.3191    1.0473 C   0  0  0  0  0  0  0  0  0  0  0  0
   -0.1442    1.2674    0.1208 C   0  0  0  0  0  0  0  0  0  0  0  0
   -0.4001   -1.0805    0.7104 C   0  0  0  0  0  0  0  0  0  0  0  0
    1.9644    1.9458   -0.0730 H   0  0  0  0  0  0  0  0  0  0  0  0
    2.8035   -0.3726   -0.0308 H   0  0  0  0  0  0  0  0  0  0  0  0
    1.1440   -2.2338   -0.3011 H   0  0  0  0  0  0  0  0  0  0  0  0
   -1.0610   -1.6545   -1.3940 H   0  0  0  0  0  0  0  0  0  0  0  0
   -1.3001    0.9554   -1.7592 H   0  0  0  0  0  0  0  0  0  0  0  0
   -0.9578    0.5875    2.0825 H   0  0  0  0  0  0  0  0  0  0  0  0
   -0.5191    2.2839    0.2496 H   0  0  0  0  0  0  0  0  0  0  0  0
   -1.0081   -1.9011    1.0771 H   0  0  0  0  0  0  0  0  0  0  0  0
  1  2  2  0
  2  3  1  0
  3  4  1  0
  4  5  1  0
  5  6  1  0
  6  7  1  0
  7  8  1  0
  7  9  1  0
  8  1  1  0
  9  3  1  0
  9  4  1  0
  8  5  1  0
  1 10  1  0
  2 11  1  0
  3 12  1  0
  4 13  1  0
  5 14  1  0
  7 15  1  0
  8 16  1  0
  9 17  1  0
M  END
