
     RDKit          3D

 19 21  0  0  0  0  0  0  0  0999 V2000
   -1.2890   -1.1656    0.7339 C   0  0  0  0  0  0  0  0  0  0  0  0
   -0.0491   -1.5314    0.4381 C   0  0  0  0  0  0  0  0  0  0  0  0
    0.8798   -0.7263   -0.3629 C   0  0  0  0  0  0  0  0  0  0  0  0
    1.9894   -0.0469    0.4539 C   0  0  0  0  0  0  0  0  0  0  0  0
    1.3815    1.2782   -0.0283 C   0  0  0  0  0  0  0  0  0  0  0  0
    1.2166    1.4432   -1.4084 O   0  0  0  0  0  0  0  0  0  0  0  0
    0.3850    0.6528   -0.6682 C   0  0  0  0  0  0  0  0  0  0  0  0
   -1.0726    0.7875   -0.7973 C   0  0  0  0  0  0  0  0  0  0  0  0
   -1.8722    0.1233    0.2736 C   0  0  0  0  0  0  0  0  0  0  0  0
   -1.9399   -1.8058    1.3359 H   0  0  0  0  0  0  0  0  0  0  0  0
    0.2945   -2.4879    0.8152 H   0  0  0  0  0  0  0  0  0  0  0  0
    1.2724   -1.2318   -1.2733 H   0  0  0  0  0  0  0  0  0  0  0  0
    2.9927   -0.2522    0.0547 H   0  0  0  0  0  0  0  0  0  0  0  0
    1.8536   -0.1142    1.5425 H   0  0  0  0  0  0  0  0  0  0  0  0
    1.5804    2.1909    0.5091 H   0  0  0  0  0  0  0  0  0  0  0  0
   -1.3848    0.3166   -1.7759 H   0  0  0  0  0  0  0  0  0  0  0  0
   -1.3472    1.8519   -0.8415 H   0  0  0  0  0  0  0  0  0  0  0  0
   -2.8805   -0.0952   -0.1259 H   0  0  0  0  0  0  0  0  0  0  0  0
   -2.0107    0.8127    1.1249 H   0  0  0  0  0  0  0  0  0  0  0  0
  1  2  2  0
  2  3  1  0
  3  4  1  0
  4  5  1  0
  5  6  1  0
  6  7  1  0
  7  8  1  0
  8  9  1  0
  9  1  1  0
  7  3  1  0
  7  5  1  0
  1 10  1  0
  2 11  1  0
  3 12  1  0
  4 13  1  0
  4 14  1  0
  5 15  1  0
  8 16  1  0
  8 17  1  0
  9 18  1  0
  9 19  1  0
M  END
