
     RDKit          3D

 17 19  0  0  0  0  0  0  0  0999 V2000
   -1.7947    0.0852    0.1224 C   0  0  0  0  0  0  0  0  0  0  0  0
   -0.6028    0.6369    0.0822 C   0  0  0  0  0  0  0  0  0  0  0  0
    0.2298    1.8297    0.1947 C   0  0  0  0  0  0  0  0  0  0  0  0
    1.4667    1.5570   -0.3688 O   0  0  0  0  0  0  0  0  0  0  0  0
    1.5073    0.2201   -0.7374 C   0  0  0  0  0  0  0  0  0  0  0  0
    1.5610   -0.7312    0.4865 C   0  0  0  0  0  0  0  0  0  0  0  0
    0.3302   -0.4749   -0.2316 C   0  0  0  0  0  0  0  0  0  0  0  0
   -0.4411   -1.3879   -0.8994 O   0  0  0  0  0  0  0  0  0  0  0  0
   -1.6159   -1.3631   -0.1496 C   0  0  0  0  0  0  0  0  0  0  0  0
   -2.7711    0.5689    0.3179 H   0  0  0  0  0  0  0  0  0  0  0  0
    0.3257    2.1506    1.2482 H   0  0  0  0  0  0  0  0  0  0  0  0
   -0.1881    2.7069   -0.3549 H   0  0  0  0  0  0  0  0  0  0  0  0
    2.0820   -0.0832   -1.6229 H   0  0  0  0  0  0  0  0  0  0  0  0
    2.0356   -1.7198    0.3300 H   0  0  0  0  0  0  0  0  0  0  0  0
    1.8023   -0.2869    1.4639 H   0  0  0  0  0  0  0  0  0  0  0  0
   -1.4580   -1.8961    0.8110 H   0  0  0  0  0  0  0  0  0  0  0  0
   -2.4691   -1.8120   -0.6925 H   0  0  0  0  0  0  0  0  0  0  0  0
  1  2  2  0
  2  3  1  0
  3  4  1  0
  4  5  1  0
  5  6  1  0
  6  7  1  0
  7  8  1  0
  8  9  1  0
  9  1  1  0
  7  2  1  0
  7  5  1  0
  1 10  1  0
  3 11  1  0
  3 12  1  0
  5 13  1  0
  6 14  1  0
  6 15  1  0
  9 16  1  0
  9 17  1  0
M  END
