
     RDKit          3D

 19 21  0  0  0  0  0  0  0  0999 V2000
    0.0305   -1.5307    0.8563 C   0  0  0  0  0  0  0  0  0  0  0  0
   -0.8397   -1.6100   -0.1378 C   0  0  0  0  0  0  0  0  0  0  0  0
   -0.7926   -0.4396   -1.0633 C   0  0  0  0  0  0  0  0  0  0  0  0
    0.5125   -0.3184   -1.5389 O   0  0  0  0  0  0  0  0  0  0  0  0
    1.4727   -0.2414   -0.5658 C   0  0  0  0  0  0  0  0  0  0  0  0
    0.8581   -0.2891    0.8332 C   0  0  0  0  0  0  0  0  0  0  0  0
   -0.1473    0.8614    0.9250 C   0  0  0  0  0  0  0  0  0  0  0  0
   -0.1989    1.9005   -0.1022 C   0  0  0  0  0  0  0  0  0  0  0  0
   -1.1490    0.7690   -0.1888 C   0  0  0  0  0  0  0  0  0  0  0  0
    0.1856   -2.2484    1.6414 H   0  0  0  0  0  0  0  0  0  0  0  0
   -1.5408   -2.4016   -0.3277 H   0  0  0  0  0  0  0  0  0  0  0  0
   -1.4677   -0.5687   -1.9044 H   0  0  0  0  0  0  0  0  0  0  0  0
    2.1928   -1.1093   -0.6135 H   0  0  0  0  0  0  0  0  0  0  0  0
    2.1071    0.6587   -0.6945 H   0  0  0  0  0  0  0  0  0  0  0  0
    1.6108   -0.2369    1.6091 H   0  0  0  0  0  0  0  0  0  0  0  0
   -0.5795    0.9908    1.9252 H   0  0  0  0  0  0  0  0  0  0  0  0
   -0.6435    2.8763    0.2114 H   0  0  0  0  0  0  0  0  0  0  0  0
    0.6051    2.0307   -0.8455 H   0  0  0  0  0  0  0  0  0  0  0  0
   -2.2162    0.9070   -0.0193 H   0  0  0  0  0  0  0  0  0  0  0  0
  1  2  2  0
  2  3  1  0
  3  4  1  0
  4  5  1  0
  5  6  1  0
  6  7  1  0
  7  8  1  0
  8  9  1  0
  6  1  1  0
  9  7  1  0
  9  3  1  0
  1 10  1  0
  2 11  1  0
  3 12  1  0
  5 13  1  0
  5 14  1  0
  6 15  1  0
  7 16  1  0
  8 17  1  0
  8 18  1  0
  9 19  1  0
M  END
