
     RDKit          3D

 19 21  0  0  0  0  0  0  0  0999 V2000
    1.2393    1.1416    0.5608 C   0  0  0  0  0  0  0  0  0  0  0  0
   -0.0136    1.4190    0.2312 C   0  0  0  0  0  0  0  0  0  0  0  0
   -0.8499    0.5876   -0.6603 C   0  0  0  0  0  0  0  0  0  0  0  0
   -2.0311   -0.0542    0.1004 C   0  0  0  0  0  0  0  0  0  0  0  0
   -1.6448   -1.4204    0.2369 O   0  0  0  0  0  0  0  0  0  0  0  0
   -0.3167   -1.2556    0.5072 C   0  0  0  0  0  0  0  0  0  0  0  0
    0.9199   -1.1849   -0.1824 C   0  0  0  0  0  0  0  0  0  0  0  0
    1.9649   -0.0709    0.0568 C   0  0  0  0  0  0  0  0  0  0  0  0
   -0.1040   -0.6467   -0.9429 C   0  0  0  0  0  0  0  0  0  0  0  0
    1.7685    1.8154    1.2224 H   0  0  0  0  0  0  0  0  0  0  0  0
   -0.4343    2.3191    0.6537 H   0  0  0  0  0  0  0  0  0  0  0  0
   -1.2291    1.1134   -1.5442 H   0  0  0  0  0  0  0  0  0  0  0  0
   -2.9670    0.0541   -0.4332 H   0  0  0  0  0  0  0  0  0  0  0  0
   -2.0561    0.3188    1.1538 H   0  0  0  0  0  0  0  0  0  0  0  0
   -0.2764   -0.5220    1.3746 H   0  0  0  0  0  0  0  0  0  0  0  0
    1.4241   -2.1131   -0.4990 H   0  0  0  0  0  0  0  0  0  0  0  0
    2.4717    0.1953   -0.8920 H   0  0  0  0  0  0  0  0  0  0  0  0
    2.6534   -0.4476    0.8340 H   0  0  0  0  0  0  0  0  0  0  0  0
   -0.5188   -1.2489   -1.7779 H   0  0  0  0  0  0  0  0  0  0  0  0
  1  2  2  0
  2  3  1  0
  3  4  1  0
  4  5  1  0
  5  6  1  0
  6  7  1  0
  7  8  1  0
  7  9  1  0
  8  1  1  0
  9  3  1  0
  9  6  1  0
  1 10  1  0
  2 11  1  0
  3 12  1  0
  4 13  1  0
  4 14  1  0
  6 15  1  0
  7 16  1  0
  8 17  1  0
  8 18  1  0
  9 19  1  0
M  END
