
     RDKit          3D

 17 19  0  0  0  0  0  0  0  0999 V2000
    1.4421    0.5712    0.1385 C   0  0  0  0  0  0  0  0  0  0  0  0
    0.3635    1.3827   -0.0044 C   0  0  0  0  0  0  0  0  0  0  0  0
   -0.9871    1.0638   -0.5378 C   0  0  0  0  0  0  0  0  0  0  0  0
   -2.0199    0.8802    0.4161 O   0  0  0  0  0  0  0  0  0  0  0  0
   -1.7796   -0.5295    0.5723 C   0  0  0  0  0  0  0  0  0  0  0  0
   -0.4136   -0.8679    0.7710 C   0  0  0  0  0  0  0  0  0  0  0  0
    0.5615   -1.6892    0.3401 O   0  0  0  0  0  0  0  0  0  0  0  0
    1.5914   -0.8717   -0.1944 C   0  0  0  0  0  0  0  0  0  0  0  0
   -1.0182   -0.4361   -0.5945 C   0  0  0  0  0  0  0  0  0  0  0  0
    2.3121    1.0618    0.5566 H   0  0  0  0  0  0  0  0  0  0  0  0
    0.5650    2.3962    0.3317 H   0  0  0  0  0  0  0  0  0  0  0  0
   -1.2928    1.6069   -1.4347 H   0  0  0  0  0  0  0  0  0  0  0  0
   -2.6571   -1.1738    0.6664 H   0  0  0  0  0  0  0  0  0  0  0  0
    0.0898   -0.0965    1.4358 H   0  0  0  0  0  0  0  0  0  0  0  0
    1.6498   -1.0548   -1.2764 H   0  0  0  0  0  0  0  0  0  0  0  0
    2.5213   -1.2332    0.2887 H   0  0  0  0  0  0  0  0  0  0  0  0
   -0.9285   -1.0101   -1.4748 H   0  0  0  0  0  0  0  0  0  0  0  0
  1  2  2  0
  2  3  1  0
  3  4  1  0
  4  5  1  0
  5  6  1  0
  6  7  1  0
  7  8  1  0
  6  9  1  0
  8  1  1  0
  9  3  1  0
  9  5  1  0
  1 10  1  0
  2 11  1  0
  3 12  1  0
  5 13  1  0
  6 14  1  0
  8 15  1  0
  8 16  1  0
  9 17  1  0
M  END
