
     RDKit          3D

 19 20  0  0  0  0  0  0  0  0999 V2000
   -0.7762    1.5165    0.2384 C   0  0  0  0  0  0  0  0  0  0  0  0
    0.2407    0.7063    0.0348 C   0  0  0  0  0  0  0  0  0  0  0  0
    1.7204    0.8056    0.0014 C   0  0  0  0  0  0  0  0  0  0  0  0
    2.1520   -0.5850    0.3893 C   0  0  0  0  0  0  0  0  0  0  0  0
    1.0166   -1.4147   -0.0400 C   0  0  0  0  0  0  0  0  0  0  0  0
   -0.0645   -0.6906   -0.2413 C   0  0  0  0  0  0  0  0  0  0  0  0
   -1.4429   -1.0767   -0.6765 C   0  0  0  0  0  0  0  0  0  0  0  0
   -2.1108    0.0962   -1.0040 O   0  0  0  0  0  0  0  0  0  0  0  0
   -2.1370    0.8804    0.1571 C   0  0  0  0  0  0  0  0  0  0  0  0
   -0.6016    2.5440    0.4433 H   0  0  0  0  0  0  0  0  0  0  0  0
    2.0534    1.0670   -1.0245 H   0  0  0  0  0  0  0  0  0  0  0  0
    2.1139    1.5583    0.7170 H   0  0  0  0  0  0  0  0  0  0  0  0
    2.2427   -0.6515    1.4866 H   0  0  0  0  0  0  0  0  0  0  0  0
    3.0926   -0.8126   -0.1331 H   0  0  0  0  0  0  0  0  0  0  0  0
    1.0907   -2.4978   -0.1678 H   0  0  0  0  0  0  0  0  0  0  0  0
   -2.0044   -1.5168    0.1916 H   0  0  0  0  0  0  0  0  0  0  0  0
   -1.4214   -1.7680   -1.5374 H   0  0  0  0  0  0  0  0  0  0  0  0
   -2.2253    0.2166    1.0411 H   0  0  0  0  0  0  0  0  0  0  0  0
   -2.9388    1.6228    0.1241 H   0  0  0  0  0  0  0  0  0  0  0  0
  1  2  2  0
  2  3  1  0
  3  4  1  0
  4  5  1  0
  5  6  2  0
  6  7  1  0
  7  8  1  0
  8  9  1  0
  9  1  1  0
  6  2  1  0
  1 10  1  0
  3 11  1  0
  3 12  1  0
  4 13  1  0
  4 14  1  0
  5 15  1  0
  7 16  1  0
  7 17  1  0
  9 18  1  0
  9 19  1  0
M  END
