
     RDKit          3D

 19 21  0  0  0  0  0  0  0  0999 V2000
   -0.8338    1.6703   -0.1338 C   0  0  0  0  0  0  0  0  0  0  0  0
    0.4046    1.4352    0.2969 C   0  0  0  0  0  0  0  0  0  0  0  0
    0.5319   -0.0832    0.3890 C   0  0  0  0  0  0  0  0  0  0  0  0
    0.8895   -0.7835   -0.8577 C   0  0  0  0  0  0  0  0  0  0  0  0
    2.2451   -0.7866   -0.1585 C   0  0  0  0  0  0  0  0  0  0  0  0
    1.6142   -0.5371    1.0692 O   0  0  0  0  0  0  0  0  0  0  0  0
   -0.8433   -0.2867    0.9422 C   0  0  0  0  0  0  0  0  0  0  0  0
   -2.1079   -0.5896    0.4325 C   0  0  0  0  0  0  0  0  0  0  0  0
   -1.4698    0.3961   -0.3181 C   0  0  0  0  0  0  0  0  0  0  0  0
   -1.2176    2.7063   -0.2928 H   0  0  0  0  0  0  0  0  0  0  0  0
    1.2190    2.0943    0.5540 H   0  0  0  0  0  0  0  0  0  0  0  0
    0.8716   -0.2211   -1.8072 H   0  0  0  0  0  0  0  0  0  0  0  0
    0.4126   -1.7784   -0.9287 H   0  0  0  0  0  0  0  0  0  0  0  0
    2.7725   -1.7449   -0.2315 H   0  0  0  0  0  0  0  0  0  0  0  0
    2.8219    0.1037   -0.5435 H   0  0  0  0  0  0  0  0  0  0  0  0
   -0.8803    0.3116    1.9101 H   0  0  0  0  0  0  0  0  0  0  0  0
   -3.0450   -0.2936    0.9888 H   0  0  0  0  0  0  0  0  0  0  0  0
   -2.2841   -1.6180    0.0198 H   0  0  0  0  0  0  0  0  0  0  0  0
   -1.1011    0.0053   -1.3309 H   0  0  0  0  0  0  0  0  0  0  0  0
  1  2  2  0
  2  3  1  0
  3  4  1  0
  4  5  1  0
  5  6  1  0
  3  7  1  0
  7  8  1  0
  8  9  1  0
  9  1  1  0
  6  3  1  0
  9  7  1  0
  1 10  1  0
  2 11  1  0
  4 12  1  0
  4 13  1  0
  5 14  1  0
  5 15  1  0
  7 16  1  0
  8 17  1  0
  8 18  1  0
  9 19  1  0
M  END
