
     RDKit          3D

 21 22  0  0  0  0  0  0  0  0999 V2000
    2.2269   -0.4318   -0.2319 C   0  0  0  0  0  0  0  0  0  0  0  0
    1.1784   -1.1367   -0.5869 C   0  0  0  0  0  0  0  0  0  0  0  0
   -0.0968   -0.4159   -0.7042 C   0  0  0  0  0  0  0  0  0  0  0  0
   -1.3132   -1.1521   -0.2616 C   0  0  0  0  0  0  0  0  0  0  0  0
   -2.0933   -0.2455    0.6679 C   0  0  0  0  0  0  0  0  0  0  0  0
   -1.4261    1.1050    0.4308 C   0  0  0  0  0  0  0  0  0  0  0  0
   -0.0077    0.6863    0.3702 C   0  0  0  0  0  0  0  0  0  0  0  0
    0.9209    1.5723   -0.0537 O   0  0  0  0  0  0  0  0  0  0  0  0
    2.1764    1.0302    0.0491 C   0  0  0  0  0  0  0  0  0  0  0  0
    3.1883   -0.9407   -0.1365 H   0  0  0  0  0  0  0  0  0  0  0  0
    1.2502   -2.1764   -0.7794 H   0  0  0  0  0  0  0  0  0  0  0  0
   -0.2139    0.1240   -1.6616 H   0  0  0  0  0  0  0  0  0  0  0  0
   -1.0879   -2.1431    0.2193 H   0  0  0  0  0  0  0  0  0  0  0  0
   -1.9709   -1.3158   -1.1636 H   0  0  0  0  0  0  0  0  0  0  0  0
   -3.1643   -0.2349    0.4660 H   0  0  0  0  0  0  0  0  0  0  0  0
   -1.8411   -0.5951    1.7095 H   0  0  0  0  0  0  0  0  0  0  0  0
   -1.6784    1.8385    1.1975 H   0  0  0  0  0  0  0  0  0  0  0  0
   -1.7497    1.4302   -0.5996 H   0  0  0  0  0  0  0  0  0  0  0  0
    0.2733    0.2286    1.3477 H   0  0  0  0  0  0  0  0  0  0  0  0
    2.8901    1.5653   -0.6203 H   0  0  0  0  0  0  0  0  0  0  0  0
    2.5388    1.2076    1.1004 H   0  0  0  0  0  0  0  0  0  0  0  0
  1  2  2  0
  2  3  1  0
  3  4  1  0
  4  5  1  0
  5  6  1  0
  6  7  1  0
  7  8  1  0
  8  9  1  0
  9  1  1  0
  7  3  1  0
  1 10  1  0
  2 11  1  0
  3 12  1  0
  4 13  1  0
  4 14  1  0
  5 15  1  0
  5 16  1  0
  6 17  1  0
  6 18  1  0
  7 19  1  0
  9 20  1  0
  9 21  1  0
M  END
