
     RDKit          2D

 19 21  0  0  0  0  0  0  0  0999 V2000
   -2.8539   -2.8539    0.0000 C   0  0  0  0  0  0  0  0  0  0  0  0
   -1.4380   -3.3493    0.0000 C   0  0  0  0  0  0  0  0  0  0  0  0
   -0.1679   -2.5512    0.0000 C   0  0  0  0  0  0  0  0  0  0  0  0
   -0.0000   -1.0607    0.0000 C   0  0  0  0  0  0  0  0  0  0  0  0
    1.0607    0.0000    0.0000 O   0  0  0  0  0  0  0  0  0  0  0  0
    0.0000    1.0607    0.0000 C   0  0  0  0  0  0  0  0  0  0  0  0
   -1.0607    0.0000    0.0000 C   0  0  0  0  0  0  0  0  0  0  0  0
   -2.5512   -0.1679    0.0000 C   0  0  0  0  0  0  0  0  0  0  0  0
   -3.3493   -1.4380    0.0000 C   0  0  0  0  0  0  0  0  0  0  0  0
   -3.9145   -3.9145    0.0000 H   0  0  0  0  0  0  0  0  0  0  0  0
   -1.2701   -4.8398    0.0000 H   0  0  0  0  0  0  0  0  0  0  0  0
    1.1021   -3.3493    0.0000 H   0  0  0  0  0  0  0  0  0  0  0  0
    1.3515   -1.7115    0.0000 H   0  0  0  0  0  0  0  0  0  0  0  0
    0.0000    2.5607    0.0000 H   0  0  0  0  0  0  0  0  0  0  0  0
   -1.5419    1.4207    0.0000 H   0  0  0  0  0  0  0  0  0  0  0  0
   -3.8961    0.4964    0.0000 H   0  0  0  0  0  0  0  0  0  0  0  0
   -2.5662    1.3320    0.0000 H   0  0  0  0  0  0  0  0  0  0  0  0
   -4.6194   -2.2361    0.0000 H   0  0  0  0  0  0  0  0  0  0  0  0
   -4.5313   -0.5146    0.0000 H   0  0  0  0  0  0  0  0  0  0  0  0
  1  2  2  0
  2  3  1  0
  3  4  1  0
  4  5  1  0
  5  6  1  0
  6  7  1  0
  7  8  1  0
  8  9  1  0
  9  1  1  0
  6  3  1  0
  7  4  1  0
  1 10  1  0
  2 11  1  0
  3 12  1  0
  4 13  1  0
  6 14  1  0
  7 15  1  0
  8 16  1  0
  8 17  1  0
  9 18  1  0
  9 19  1  0
M  END
