
     RDKit          3D

 18 19  0  0  0  0  0  0  0  0999 V2000
    0.9367    0.5249   -0.8254 C   0  0  0  0  0  0  0  0  0  0  0  0
    0.2981    0.0639    0.2346 C   0  0  0  0  0  0  0  0  0  0  0  0
   -1.1562    0.0756    0.5440 C   0  0  0  0  0  0  0  0  0  0  0  0
   -2.0605   -0.8378   -0.1763 C   0  0  0  0  0  0  0  0  0  0  0  0
   -2.1192    0.6677   -0.4118 C   0  0  0  0  0  0  0  0  0  0  0  0
    1.3196   -0.5072    1.1456 C   0  0  0  0  0  0  0  0  0  0  0  0
    2.3028   -0.9059    0.2452 O   0  0  0  0  0  0  0  0  0  0  0  0
    2.3852    0.2366   -0.5865 C   0  0  0  0  0  0  0  0  0  0  0  0
    0.4499    0.9988   -1.6527 H   0  0  0  0  0  0  0  0  0  0  0  0
   -1.3794    0.2765    1.6127 H   0  0  0  0  0  0  0  0  0  0  0  0
   -1.6074   -1.4673   -0.9796 H   0  0  0  0  0  0  0  0  0  0  0  0
   -2.9623   -1.2742    0.2881 H   0  0  0  0  0  0  0  0  0  0  0  0
   -3.0080    1.2007   -0.0216 H   0  0  0  0  0  0  0  0  0  0  0  0
   -1.8305    0.9687   -1.4301 H   0  0  0  0  0  0  0  0  0  0  0  0
    0.9152   -1.3472    1.7394 H   0  0  0  0  0  0  0  0  0  0  0  0
    1.7318    0.3117    1.7897 H   0  0  0  0  0  0  0  0  0  0  0  0
    2.8792    1.0337   -0.0015 H   0  0  0  0  0  0  0  0  0  0  0  0
    2.9050   -0.0191   -1.5136 H   0  0  0  0  0  0  0  0  0  0  0  0
  1  2  2  0
  2  3  1  0
  3  4  1  0
  4  5  1  0
  2  6  1  0
  6  7  1  0
  7  8  1  0
  8  1  1  0
  5  3  1  0
  1  9  1  0
  3 10  1  0
  4 11  1  0
  4 12  1  0
  5 13  1  0
  5 14  1  0
  6 15  1  0
  6 16  1  0
  8 17  1  0
  8 18  1  0
M  END
