
     RDKit          3D

 17 19  0  0  0  0  0  0  0  0999 V2000
   -0.9363    1.3069    0.1408 C   0  0  0  0  0  0  0  0  0  0  0  0
    0.3620    1.3804    0.4107 C   0  0  0  0  0  0  0  0  0  0  0  0
    1.4693    0.4209    0.2910 C   0  0  0  0  0  0  0  0  0  0  0  0
    1.2390   -0.5195   -0.8620 C   0  0  0  0  0  0  0  0  0  0  0  0
   -0.0371   -0.5431   -1.3344 O   0  0  0  0  0  0  0  0  0  0  0  0
   -0.8692   -1.0703   -0.3540 C   0  0  0  0  0  0  0  0  0  0  0  0
   -1.7839    0.0837    0.0809 C   0  0  0  0  0  0  0  0  0  0  0  0
   -0.0949   -1.3657    0.7458 O   0  0  0  0  0  0  0  0  0  0  0  0
    1.1850   -0.9742    0.5288 C   0  0  0  0  0  0  0  0  0  0  0  0
   -1.5058    2.2044   -0.0696 H   0  0  0  0  0  0  0  0  0  0  0  0
    0.6379    2.3667    0.8002 H   0  0  0  0  0  0  0  0  0  0  0  0
    2.4793    0.7961    0.4792 H   0  0  0  0  0  0  0  0  0  0  0  0
    2.1140   -0.6440   -1.5137 H   0  0  0  0  0  0  0  0  0  0  0  0
   -1.4815   -1.8916   -0.7290 H   0  0  0  0  0  0  0  0  0  0  0  0
   -2.1828   -0.0808    1.0959 H   0  0  0  0  0  0  0  0  0  0  0  0
   -2.5700    0.1521   -0.6912 H   0  0  0  0  0  0  0  0  0  0  0  0
    1.9748   -1.6216    0.9806 H   0  0  0  0  0  0  0  0  0  0  0  0
  1  2  2  0
  2  3  1  0
  3  4  1  0
  4  5  1  0
  5  6  1  0
  6  7  1  0
  6  8  1  0
  8  9  1  0
  7  1  1  0
  9  3  1  0
  9  4  1  0
  1 10  1  0
  2 11  1  0
  3 12  1  0
  4 13  1  0
  6 14  1  0
  7 15  1  0
  7 16  1  0
  9 17  1  0
M  END
