
     RDKit          3D

 21 23  0  0  0  0  0  0  0  0999 V2000
   -0.6862    1.5970    0.5175 C   0  0  0  0  0  0  0  0  0  0  0  0
    0.5206    1.1262    0.7374 C   0  0  0  0  0  0  0  0  0  0  0  0
    0.9839   -0.1217    0.1033 C   0  0  0  0  0  0  0  0  0  0  0  0
    2.1161   -0.0118   -0.8328 C   0  0  0  0  0  0  0  0  0  0  0  0
    2.2940   -0.7289    0.4814 C   0  0  0  0  0  0  0  0  0  0  0  0
   -0.1389   -1.0923   -0.0949 C   0  0  0  0  0  0  0  0  0  0  0  0
   -1.3593   -0.4802   -0.7104 C   0  0  0  0  0  0  0  0  0  0  0  0
   -2.5136   -0.1868    0.2282 C   0  0  0  0  0  0  0  0  0  0  0  0
   -1.6313    0.9132   -0.3633 C   0  0  0  0  0  0  0  0  0  0  0  0
   -1.0256    2.5391    1.0013 H   0  0  0  0  0  0  0  0  0  0  0  0
    1.1896    1.6747    1.4045 H   0  0  0  0  0  0  0  0  0  0  0  0
    2.1719   -0.5652   -1.7845 H   0  0  0  0  0  0  0  0  0  0  0  0
    2.6513    0.9669   -0.8780 H   0  0  0  0  0  0  0  0  0  0  0  0
    2.9223   -0.2860    1.2739 H   0  0  0  0  0  0  0  0  0  0  0  0
    2.4099   -1.8166    0.3834 H   0  0  0  0  0  0  0  0  0  0  0  0
    0.2452   -1.9456   -0.6996 H   0  0  0  0  0  0  0  0  0  0  0  0
   -0.4344   -1.5215    0.8840 H   0  0  0  0  0  0  0  0  0  0  0  0
   -1.6399   -0.8898   -1.6869 H   0  0  0  0  0  0  0  0  0  0  0  0
   -2.3759   -0.4045    1.3147 H   0  0  0  0  0  0  0  0  0  0  0  0
   -3.5442   -0.2870   -0.1399 H   0  0  0  0  0  0  0  0  0  0  0  0
   -2.1553    1.5209   -1.1394 H   0  0  0  0  0  0  0  0  0  0  0  0
  1  2  2  0
  2  3  1  0
  3  4  1  0
  4  5  1  0
  3  6  1  0
  6  7  1  0
  7  8  1  0
  8  9  1  0
  9  1  1  0
  5  3  1  0
  9  7  1  0
  1 10  1  0
  2 11  1  0
  4 12  1  0
  4 13  1  0
  5 14  1  0
  5 15  1  0
  6 16  1  0
  6 17  1  0
  7 18  1  0
  8 19  1  0
  8 20  1  0
  9 21  1  0
M  END
