
     RDKit          3D

 19 22  0  0  0  0  0  0  0  0999 V2000
   -1.3062   -1.1454    0.6443 C   0  0  0  0  0  0  0  0  0  0  0  0
   -2.0239   -0.0827    0.2395 C   0  0  0  0  0  0  0  0  0  0  0  0
   -1.2577    1.0258   -0.3360 C   0  0  0  0  0  0  0  0  0  0  0  0
    0.0214    1.3304    0.2658 C   0  0  0  0  0  0  0  0  0  0  0  0
    0.7709    0.2216    0.9264 C   0  0  0  0  0  0  0  0  0  0  0  0
    1.8615   -0.2411   -0.0683 C   0  0  0  0  0  0  0  0  0  0  0  0
    0.5957   -0.5951   -0.8862 C   0  0  0  0  0  0  0  0  0  0  0  0
    0.1220   -1.0872    0.4841 C   0  0  0  0  0  0  0  0  0  0  0  0
   -0.1184    0.6848   -1.1631 C   0  0  0  0  0  0  0  0  0  0  0  0
   -1.7775   -2.0220    1.0782 H   0  0  0  0  0  0  0  0  0  0  0  0
   -3.0995   -0.0496    0.3336 H   0  0  0  0  0  0  0  0  0  0  0  0
   -1.8634    1.8909   -0.6703 H   0  0  0  0  0  0  0  0  0  0  0  0
    0.4680    2.3138    0.2461 H   0  0  0  0  0  0  0  0  0  0  0  0
    1.0740    0.3033    1.9473 H   0  0  0  0  0  0  0  0  0  0  0  0
    2.3841   -1.1170    0.3198 H   0  0  0  0  0  0  0  0  0  0  0  0
    2.4490    0.5716   -0.4943 H   0  0  0  0  0  0  0  0  0  0  0  0
    0.7236   -1.3269   -1.6523 H   0  0  0  0  0  0  0  0  0  0  0  0
    0.7283   -1.9428    0.7829 H   0  0  0  0  0  0  0  0  0  0  0  0
    0.2483    1.2675   -1.9977 H   0  0  0  0  0  0  0  0  0  0  0  0
  1  2  2  0
  2  3  1  0
  3  4  1  0
  4  5  1  0
  5  6  1  0
  6  7  1  0
  7  8  1  0
  7  9  1  0
  8  1  1  0
  9  3  1  0
  9  4  1  0
  8  5  1  0
  1 10  1  0
  2 11  1  0
  3 12  1  0
  4 13  1  0
  5 14  1  0
  6 15  1  0
  6 16  1  0
  7 17  1  0
  8 18  1  0
  9 19  1  0
M  END
