
     RDKit          3D

 19 21  0  0  0  0  0  0  0  0999 V2000
    0.3737    1.4350    0.7383 C   0  0  0  0  0  0  0  0  0  0  0  0
   -0.6091    1.6450   -0.1085 C   0  0  0  0  0  0  0  0  0  0  0  0
   -1.0559    0.3589   -0.6609 C   0  0  0  0  0  0  0  0  0  0  0  0
   -2.0275   -0.3009    0.2932 C   0  0  0  0  0  0  0  0  0  0  0  0
   -1.2284   -1.4428    0.3383 O   0  0  0  0  0  0  0  0  0  0  0  0
   -0.1938   -0.7097   -0.1028 C   0  0  0  0  0  0  0  0  0  0  0  0
    0.9249   -1.2470   -0.8393 C   0  0  0  0  0  0  0  0  0  0  0  0
    1.8615   -0.3587   -0.0479 C   0  0  0  0  0  0  0  0  0  0  0  0
    0.6975   -0.0059    0.8509 C   0  0  0  0  0  0  0  0  0  0  0  0
    0.8829    2.2092    1.2841 H   0  0  0  0  0  0  0  0  0  0  0  0
   -1.0194    2.5981   -0.3571 H   0  0  0  0  0  0  0  0  0  0  0  0
   -1.3186    0.3266   -1.7202 H   0  0  0  0  0  0  0  0  0  0  0  0
   -3.0417   -0.4518   -0.1189 H   0  0  0  0  0  0  0  0  0  0  0  0
   -2.0676    0.1572    1.3033 H   0  0  0  0  0  0  0  0  0  0  0  0
    1.1505   -2.3111   -0.5927 H   0  0  0  0  0  0  0  0  0  0  0  0
    0.9697   -1.1203   -1.9390 H   0  0  0  0  0  0  0  0  0  0  0  0
    2.7023   -0.8784    0.4495 H   0  0  0  0  0  0  0  0  0  0  0  0
    2.2484    0.5030   -0.6508 H   0  0  0  0  0  0  0  0  0  0  0  0
    0.7508   -0.4064    1.8805 H   0  0  0  0  0  0  0  0  0  0  0  0
  1  2  2  0
  2  3  1  0
  3  4  1  0
  4  5  1  0
  5  6  1  0
  6  7  1  0
  7  8  1  0
  8  9  1  0
  9  1  1  0
  6  3  1  0
  9  6  1  0
  1 10  1  0
  2 11  1  0
  3 12  1  0
  4 13  1  0
  4 14  1  0
  7 15  1  0
  7 16  1  0
  8 17  1  0
  8 18  1  0
  9 19  1  0
M  END
