
     RDKit          3D

 19 21  0  0  0  0  0  0  0  0999 V2000
    0.8825    1.5033    0.2982 C   0  0  0  0  0  0  0  0  0  0  0  0
   -0.4726    1.4517    0.3322 C   0  0  0  0  0  0  0  0  0  0  0  0
   -1.2804    0.4287   -0.3385 C   0  0  0  0  0  0  0  0  0  0  0  0
   -1.9374   -0.5763    0.6158 C   0  0  0  0  0  0  0  0  0  0  0  0
   -1.5190   -1.6453   -0.1650 O   0  0  0  0  0  0  0  0  0  0  0  0
   -0.5082   -0.8595   -0.6607 C   0  0  0  0  0  0  0  0  0  0  0  0
    0.7148   -0.8168    0.1377 C   0  0  0  0  0  0  0  0  0  0  0  0
    2.0940   -0.8062   -0.1513 C   0  0  0  0  0  0  0  0  0  0  0  0
    1.4611    0.4111   -0.4919 C   0  0  0  0  0  0  0  0  0  0  0  0
    1.4474    2.2634    0.7982 H   0  0  0  0  0  0  0  0  0  0  0  0
   -1.0015    2.2156    0.8918 H   0  0  0  0  0  0  0  0  0  0  0  0
   -1.9626    0.7599   -1.1297 H   0  0  0  0  0  0  0  0  0  0  0  0
   -1.5556   -0.5458    1.6406 H   0  0  0  0  0  0  0  0  0  0  0  0
   -3.0438   -0.5281    0.6060 H   0  0  0  0  0  0  0  0  0  0  0  0
   -0.3766   -0.8850   -1.7761 H   0  0  0  0  0  0  0  0  0  0  0  0
    0.4456   -0.7407    1.2362 H   0  0  0  0  0  0  0  0  0  0  0  0
    2.4929   -1.4481   -0.9586 H   0  0  0  0  0  0  0  0  0  0  0  0
    2.8346   -0.7842    0.6992 H   0  0  0  0  0  0  0  0  0  0  0  0
    1.2849    0.6021   -1.5837 H   0  0  0  0  0  0  0  0  0  0  0  0
  1  2  2  0
  2  3  1  0
  3  4  1  0
  4  5  1  0
  5  6  1  0
  6  7  1  0
  7  8  1  0
  8  9  1  0
  9  1  1  0
  6  3  1  0
  9  7  1  0
  1 10  1  0
  2 11  1  0
  3 12  1  0
  4 13  1  0
  4 14  1  0
  6 15  1  0
  7 16  1  0
  8 17  1  0
  8 18  1  0
  9 19  1  0
M  END
