
     RDKit          3D

 19 21  0  0  0  0  0  0  0  0999 V2000
   -0.8093    1.4288   -0.9118 C   0  0  0  0  0  0  0  0  0  0  0  0
    0.1151    0.8673   -0.1852 C   0  0  0  0  0  0  0  0  0  0  0  0
    1.5604    0.9004    0.2884 C   0  0  0  0  0  0  0  0  0  0  0  0
    1.8766   -0.5875    0.2614 C   0  0  0  0  0  0  0  0  0  0  0  0
    0.6040   -1.3667    0.4074 C   0  0  0  0  0  0  0  0  0  0  0  0
   -0.4619   -0.3008    0.5300 C   0  0  0  0  0  0  0  0  0  0  0  0
   -1.7621   -0.5828   -0.0890 C   0  0  0  0  0  0  0  0  0  0  0  0
   -1.9897   -0.5640   -1.4606 O   0  0  0  0  0  0  0  0  0  0  0  0
   -2.0851    0.6749   -0.8119 C   0  0  0  0  0  0  0  0  0  0  0  0
   -0.6633    2.3355   -1.5151 H   0  0  0  0  0  0  0  0  0  0  0  0
    1.5792    1.3308    1.2914 H   0  0  0  0  0  0  0  0  0  0  0  0
    2.1909    1.4857   -0.3780 H   0  0  0  0  0  0  0  0  0  0  0  0
    2.3108   -0.7951   -0.7292 H   0  0  0  0  0  0  0  0  0  0  0  0
    2.6437   -0.8623    1.0105 H   0  0  0  0  0  0  0  0  0  0  0  0
    0.4567   -2.0372   -0.4441 H   0  0  0  0  0  0  0  0  0  0  0  0
    0.6852   -1.9811    1.3315 H   0  0  0  0  0  0  0  0  0  0  0  0
   -0.6434   -0.0425    1.6115 H   0  0  0  0  0  0  0  0  0  0  0  0
   -2.5629   -1.0893    0.5220 H   0  0  0  0  0  0  0  0  0  0  0  0
   -3.0448    1.1860   -0.7292 H   0  0  0  0  0  0  0  0  0  0  0  0
  1  2  2  0
  2  3  1  0
  3  4  1  0
  4  5  1  0
  5  6  1  0
  6  7  1  0
  7  8  1  0
  8  9  1  0
  9  1  1  0
  6  2  1  0
  9  7  1  0
  1 10  1  0
  3 11  1  0
  3 12  1  0
  4 13  1  0
  4 14  1  0
  5 15  1  0
  5 16  1  0
  6 17  1  0
  7 18  1  0
  9 19  1  0
M  END
