
     RDKit          3D

 20 21  0  0  0  0  0  0  0  0999 V2000
    1.4601    1.1144   -0.0217 C   0  0  0  0  0  0  0  0  0  0  0  0
    0.3318    1.7844    0.1414 C   0  0  0  0  0  0  0  0  0  0  0  0
   -1.0761    1.3175    0.0130 C   0  0  0  0  0  0  0  0  0  0  0  0
   -1.1665   -0.0143    0.6357 C   0  0  0  0  0  0  0  0  0  0  0  0
   -1.8514   -1.1895    0.2131 C   0  0  0  0  0  0  0  0  0  0  0  0
   -0.5991   -0.9808   -0.4572 C   0  0  0  0  0  0  0  0  0  0  0  0
    0.7701   -1.3071   -0.0096 C   0  0  0  0  0  0  0  0  0  0  0  0
    1.7782   -0.2629   -0.3705 C   0  0  0  0  0  0  0  0  0  0  0  0
    2.3468    1.7530    0.1472 H   0  0  0  0  0  0  0  0  0  0  0  0
    0.4293    2.8235    0.4068 H   0  0  0  0  0  0  0  0  0  0  0  0
   -1.7925    2.0582    0.4145 H   0  0  0  0  0  0  0  0  0  0  0  0
   -1.2807    1.2927   -1.0987 H   0  0  0  0  0  0  0  0  0  0  0  0
   -0.6551   -0.0479    1.6398 H   0  0  0  0  0  0  0  0  0  0  0  0
   -1.9435   -2.0370    0.9379 H   0  0  0  0  0  0  0  0  0  0  0  0
   -2.7860   -1.0889   -0.3810 H   0  0  0  0  0  0  0  0  0  0  0  0
   -0.6379   -0.6293   -1.5143 H   0  0  0  0  0  0  0  0  0  0  0  0
    1.1007   -2.2588   -0.4741 H   0  0  0  0  0  0  0  0  0  0  0  0
    0.7866   -1.4738    1.0845 H   0  0  0  0  0  0  0  0  0  0  0  0
    2.0484   -0.3054   -1.4601 H   0  0  0  0  0  0  0  0  0  0  0  0
    2.7368   -0.5480    0.1537 H   0  0  0  0  0  0  0  0  0  0  0  0
  1  2  2  0
  2  3  1  0
  3  4  1  0
  4  5  1  0
  5  6  1  0
  6  7  1  0
  7  8  1  0
  8  1  1  0
  6  4  1  0
  1  9  1  0
  2 10  1  0
  3 11  1  0
  3 12  1  0
  4 13  1  0
  5 14  1  0
  5 15  1  0
  6 16  1  0
  7 17  1  0
  7 18  1  0
  8 19  1  0
  8 20  1  0
M  END
