
     RDKit          3D

 18 19  0  0  0  0  0  0  0  0999 V2000
   -1.9218    0.6652   -0.5098 C   0  0  0  0  0  0  0  0  0  0  0  0
   -1.8616    0.1356    0.7049 C   0  0  0  0  0  0  0  0  0  0  0  0
   -0.6284   -0.6891    0.8464 C   0  0  0  0  0  0  0  0  0  0  0  0
    0.2404   -0.0007   -0.1817 C   0  0  0  0  0  0  0  0  0  0  0  0
   -0.7225    0.2301   -1.2790 C   0  0  0  0  0  0  0  0  0  0  0  0
    1.5710   -0.5369   -0.4372 C   0  0  0  0  0  0  0  0  0  0  0  0
    1.8997    0.4305    0.6999 C   0  0  0  0  0  0  0  0  0  0  0  0
    0.7632    1.1730    0.3146 O   0  0  0  0  0  0  0  0  0  0  0  0
   -2.6880    1.3084   -0.9202 H   0  0  0  0  0  0  0  0  0  0  0  0
   -2.5858    0.2672    1.4923 H   0  0  0  0  0  0  0  0  0  0  0  0
   -0.1950   -0.6583    1.8444 H   0  0  0  0  0  0  0  0  0  0  0  0
   -0.8866   -1.7221    0.5523 H   0  0  0  0  0  0  0  0  0  0  0  0
   -1.0228   -0.7165   -1.8034 H   0  0  0  0  0  0  0  0  0  0  0  0
   -0.4081    0.9652   -2.0399 H   0  0  0  0  0  0  0  0  0  0  0  0
    1.7856   -1.5943   -0.1485 H   0  0  0  0  0  0  0  0  0  0  0  0
    2.0211   -0.1942   -1.3648 H   0  0  0  0  0  0  0  0  0  0  0  0
    1.8197   -0.0706    1.6681 H   0  0  0  0  0  0  0  0  0  0  0  0
    2.8198    1.0074    0.5617 H   0  0  0  0  0  0  0  0  0  0  0  0
  1  2  2  0
  2  3  1  0
  3  4  1  0
  4  5  1  0
  4  6  1  0
  6  7  1  0
  7  8  1  0
  5  1  1  0
  8  4  1  0
  1  9  1  0
  2 10  1  0
  3 11  1  0
  3 12  1  0
  5 13  1  0
  5 14  1  0
  6 15  1  0
  6 16  1  0
  7 17  1  0
  7 18  1  0
M  END
