
     RDKit          3D

 19 20  0  0  0  0  0  0  0  0999 V2000
   -0.6909    1.5962    0.4248 C   0  0  0  0  0  0  0  0  0  0  0  0
   -1.2099    0.5458    1.0495 C   0  0  0  0  0  0  0  0  0  0  0  0
   -1.1258   -0.6739    0.1986 C   0  0  0  0  0  0  0  0  0  0  0  0
   -0.8390   -0.1044   -1.1550 C   0  0  0  0  0  0  0  0  0  0  0  0
   -0.0016    1.1233   -0.8046 C   0  0  0  0  0  0  0  0  0  0  0  0
    1.3205    0.8231   -0.6212 O   0  0  0  0  0  0  0  0  0  0  0  0
    1.5809   -0.0440    0.4094 C   0  0  0  0  0  0  0  0  0  0  0  0
    1.0580   -1.4423    0.1769 C   0  0  0  0  0  0  0  0  0  0  0  0
   -0.2210   -1.5932    0.6437 O   0  0  0  0  0  0  0  0  0  0  0  0
   -0.7421    2.6451    0.7329 H   0  0  0  0  0  0  0  0  0  0  0  0
   -1.6351    0.5890    2.0492 H   0  0  0  0  0  0  0  0  0  0  0  0
   -2.1409   -1.1576    0.1927 H   0  0  0  0  0  0  0  0  0  0  0  0
   -0.3438   -0.7760   -1.8503 H   0  0  0  0  0  0  0  0  0  0  0  0
   -1.8124    0.2878   -1.5615 H   0  0  0  0  0  0  0  0  0  0  0  0
   -0.0888    1.8569   -1.6155 H   0  0  0  0  0  0  0  0  0  0  0  0
    1.2879    0.3469    1.4059 H   0  0  0  0  0  0  0  0  0  0  0  0
    2.7046   -0.1482    0.4641 H   0  0  0  0  0  0  0  0  0  0  0  0
    1.2004   -1.6949   -0.8849 H   0  0  0  0  0  0  0  0  0  0  0  0
    1.6989   -2.1795    0.7454 H   0  0  0  0  0  0  0  0  0  0  0  0
  1  2  2  0
  2  3  1  0
  3  4  1  0
  4  5  1  0
  5  6  1  0
  6  7  1  0
  7  8  1  0
  8  9  1  0
  5  1  1  0
  9  3  1  0
  1 10  1  0
  2 11  1  0
  3 12  1  0
  4 13  1  0
  4 14  1  0
  5 15  1  0
  7 16  1  0
  7 17  1  0
  8 18  1  0
  8 19  1  0
M  END
