
     RDKit          3D

 19 21  0  0  0  0  0  0  0  0999 V2000
   -0.0218   -0.0268   -1.2222 C   0  0  0  0  0  0  0  0  0  0  0  0
    1.2354    0.0870   -0.8885 C   0  0  0  0  0  0  0  0  0  0  0  0
    2.6819    0.2252   -0.6420 C   0  0  0  0  0  0  0  0  0  0  0  0
    2.4671   -0.6578    0.4610 O   0  0  0  0  0  0  0  0  0  0  0  0
    1.2963    0.0665    0.6385 C   0  0  0  0  0  0  0  0  0  0  0  0
    0.0544   -0.6999    1.0251 C   0  0  0  0  0  0  0  0  0  0  0  0
   -0.9028   -0.1843   -0.0384 C   0  0  0  0  0  0  0  0  0  0  0  0
   -1.9556    0.7864    0.2446 C   0  0  0  0  0  0  0  0  0  0  0  0
   -2.2604   -0.7007   -0.1207 C   0  0  0  0  0  0  0  0  0  0  0  0
   -0.3869   -0.0087   -2.2506 H   0  0  0  0  0  0  0  0  0  0  0  0
    2.9332    1.2127   -0.2257 H   0  0  0  0  0  0  0  0  0  0  0  0
    3.3564   -0.1870   -1.4066 H   0  0  0  0  0  0  0  0  0  0  0  0
    1.3998    1.0649    1.0636 H   0  0  0  0  0  0  0  0  0  0  0  0
   -0.2675   -0.4285    2.0488 H   0  0  0  0  0  0  0  0  0  0  0  0
    0.1898   -1.7886    0.9928 H   0  0  0  0  0  0  0  0  0  0  0  0
   -2.2276    1.0700    1.2715 H   0  0  0  0  0  0  0  0  0  0  0  0
   -2.2222    1.5278   -0.5366 H   0  0  0  0  0  0  0  0  0  0  0  0
   -2.7149   -0.8505   -1.1355 H   0  0  0  0  0  0  0  0  0  0  0  0
   -2.6545   -1.3215    0.7207 H   0  0  0  0  0  0  0  0  0  0  0  0
  1  2  2  0
  2  3  1  0
  3  4  1  0
  4  5  1  0
  5  6  1  0
  6  7  1  0
  7  8  1  0
  8  9  1  0
  7  1  1  0
  5  2  1  0
  9  7  1  0
  1 10  1  0
  3 11  1  0
  3 12  1  0
  5 13  1  0
  6 14  1  0
  6 15  1  0
  8 16  1  0
  8 17  1  0
  9 18  1  0
  9 19  1  0
M  END
