
     RDKit          3D

 17 19  0  0  0  0  0  0  0  0999 V2000
   -0.7777    1.3223    0.8319 C   0  0  0  0  0  0  0  0  0  0  0  0
    0.4526    0.9238    1.0926 C   0  0  0  0  0  0  0  0  0  0  0  0
    0.9047   -0.0260    0.0824 C   0  0  0  0  0  0  0  0  0  0  0  0
    2.1931   -0.2924   -0.3647 C   0  0  0  0  0  0  0  0  0  0  0  0
    1.5676   -1.1938    0.4639 O   0  0  0  0  0  0  0  0  0  0  0  0
   -0.2850   -0.2747   -0.7743 C   0  0  0  0  0  0  0  0  0  0  0  0
   -1.2461   -1.2344   -0.1102 C   0  0  0  0  0  0  0  0  0  0  0  0
   -2.2783   -0.2940   -0.1525 O   0  0  0  0  0  0  0  0  0  0  0  0
   -1.3256    0.7058   -0.3770 C   0  0  0  0  0  0  0  0  0  0  0  0
   -1.3791    2.0436    1.4291 H   0  0  0  0  0  0  0  0  0  0  0  0
    0.9829    1.3162    1.9817 H   0  0  0  0  0  0  0  0  0  0  0  0
    2.3979   -0.5504   -1.4301 H   0  0  0  0  0  0  0  0  0  0  0  0
    3.0883    0.2111    0.0994 H   0  0  0  0  0  0  0  0  0  0  0  0
   -0.1053   -0.4388   -1.8460 H   0  0  0  0  0  0  0  0  0  0  0  0
   -1.0150   -1.4811    0.9295 H   0  0  0  0  0  0  0  0  0  0  0  0
   -1.4918   -2.1439   -0.6974 H   0  0  0  0  0  0  0  0  0  0  0  0
   -1.6833    1.4069   -1.1583 H   0  0  0  0  0  0  0  0  0  0  0  0
  1  2  2  0
  2  3  1  0
  3  4  1  0
  4  5  1  0
  3  6  1  0
  6  7  1  0
  7  8  1  0
  8  9  1  0
  9  1  1  0
  5  3  1  0
  9  6  1  0
  1 10  1  0
  2 11  1  0
  4 12  1  0
  4 13  1  0
  6 14  1  0
  7 15  1  0
  7 16  1  0
  9 17  1  0
M  END
