
     RDKit          3D

 19 21  0  0  0  0  0  0  0  0999 V2000
    0.8368   -1.4494    0.3451 C   0  0  0  0  0  0  0  0  0  0  0  0
   -0.2733   -0.7664    0.1630 C   0  0  0  0  0  0  0  0  0  0  0  0
   -1.7547   -0.8463    0.1498 C   0  0  0  0  0  0  0  0  0  0  0  0
   -2.1479    0.5613    0.5335 C   0  0  0  0  0  0  0  0  0  0  0  0
   -1.0223    1.3723    0.4414 O   0  0  0  0  0  0  0  0  0  0  0  0
   -0.0282    0.6561   -0.1587 C   0  0  0  0  0  0  0  0  0  0  0  0
    0.8258    1.1563   -1.2106 C   0  0  0  0  0  0  0  0  0  0  0  0
    1.4202    0.8007    0.1232 C   0  0  0  0  0  0  0  0  0  0  0  0
    2.0024   -0.5785    0.1686 C   0  0  0  0  0  0  0  0  0  0  0  0
    0.9293   -2.5201    0.5949 H   0  0  0  0  0  0  0  0  0  0  0  0
   -2.1740   -1.5722    0.8421 H   0  0  0  0  0  0  0  0  0  0  0  0
   -2.0520   -1.0815   -0.8965 H   0  0  0  0  0  0  0  0  0  0  0  0
   -2.5282    0.5359    1.5950 H   0  0  0  0  0  0  0  0  0  0  0  0
   -2.9290    0.9065   -0.1748 H   0  0  0  0  0  0  0  0  0  0  0  0
    0.7842    2.2474   -1.4033 H   0  0  0  0  0  0  0  0  0  0  0  0
    1.1318    0.5664   -2.1028 H   0  0  0  0  0  0  0  0  0  0  0  0
    1.6985    1.5661    0.8443 H   0  0  0  0  0  0  0  0  0  0  0  0
    2.7804   -0.7051    0.9448 H   0  0  0  0  0  0  0  0  0  0  0  0
    2.5003   -0.8496   -0.7992 H   0  0  0  0  0  0  0  0  0  0  0  0
  1  2  2  0
  2  3  1  0
  3  4  1  0
  4  5  1  0
  5  6  1  0
  6  7  1  0
  7  8  1  0
  8  9  1  0
  9  1  1  0
  6  2  1  0
  8  6  1  0
  1 10  1  0
  3 11  1  0
  3 12  1  0
  4 13  1  0
  4 14  1  0
  7 15  1  0
  7 16  1  0
  8 17  1  0
  9 18  1  0
  9 19  1  0
M  END
