
     RDKit          3D

 19 21  0  0  0  0  0  0  0  0999 V2000
   -0.4484   -1.3248    0.5732 C   0  0  0  0  0  0  0  0  0  0  0  0
    0.7276   -0.8270    0.3737 C   0  0  0  0  0  0  0  0  0  0  0  0
    2.1052   -0.4817    0.3683 C   0  0  0  0  0  0  0  0  0  0  0  0
    1.4289    0.9579    0.3319 C   0  0  0  0  0  0  0  0  0  0  0  0
    0.4252    1.4101   -0.6204 C   0  0  0  0  0  0  0  0  0  0  0  0
   -0.9217    1.4591   -0.5513 O   0  0  0  0  0  0  0  0  0  0  0  0
   -1.7474    0.6654    0.0730 C   0  0  0  0  0  0  0  0  0  0  0  0
   -1.7253   -0.8479   -0.1647 C   0  0  0  0  0  0  0  0  0  0  0  0
    0.8646    0.1204   -0.8545 C   0  0  0  0  0  0  0  0  0  0  0  0
   -0.6011   -2.1123    1.2770 H   0  0  0  0  0  0  0  0  0  0  0  0
    2.7288   -0.6495   -0.5302 H   0  0  0  0  0  0  0  0  0  0  0  0
    2.7129   -0.5611    1.2816 H   0  0  0  0  0  0  0  0  0  0  0  0
    0.8757    0.9314    1.3248 H   0  0  0  0  0  0  0  0  0  0  0  0
    0.8258    2.2291   -1.3055 H   0  0  0  0  0  0  0  0  0  0  0  0
   -2.8044    0.9428   -0.2506 H   0  0  0  0  0  0  0  0  0  0  0  0
   -1.8273    0.7766    1.1909 H   0  0  0  0  0  0  0  0  0  0  0  0
   -2.5815   -1.3251    0.2636 H   0  0  0  0  0  0  0  0  0  0  0  0
   -1.5725   -1.1208   -1.1984 H   0  0  0  0  0  0  0  0  0  0  0  0
    1.5348   -0.2427   -1.5822 H   0  0  0  0  0  0  0  0  0  0  0  0
  1  2  2  0
  2  3  1  0
  3  4  1  0
  4  5  1  0
  5  6  1  0
  6  7  1  0
  7  8  1  0
  5  9  1  0
  8  1  1  0
  9  2  1  0
  9  4  1  0
  1 10  1  0
  3 11  1  0
  3 12  1  0
  4 13  1  0
  5 14  1  0
  7 15  1  0
  7 16  1  0
  8 17  1  0
  8 18  1  0
  9 19  1  0
M  END
