
     RDKit          3D

 21 22  0  0  0  0  0  0  0  0999 V2000
    1.2598    1.1354    0.3522 C   0  0  0  0  0  0  0  0  0  0  0  0
    0.0040    1.5834    0.2497 C   0  0  0  0  0  0  0  0  0  0  0  0
   -1.3261    0.9544    0.1453 C   0  0  0  0  0  0  0  0  0  0  0  0
   -1.2355   -0.4537    0.6596 C   0  0  0  0  0  0  0  0  0  0  0  0
   -0.8518   -0.9058   -0.7101 C   0  0  0  0  0  0  0  0  0  0  0  0
   -1.5356    0.3608   -1.2462 C   0  0  0  0  0  0  0  0  0  0  0  0
    0.4748   -0.7994   -1.0134 O   0  0  0  0  0  0  0  0  0  0  0  0
    1.3452   -1.3142   -0.0999 C   0  0  0  0  0  0  0  0  0  0  0  0
    1.8924   -0.1734    0.7317 C   0  0  0  0  0  0  0  0  0  0  0  0
    1.9447    1.9229    0.0957 H   0  0  0  0  0  0  0  0  0  0  0  0
   -0.0947    2.6684    0.2376 H   0  0  0  0  0  0  0  0  0  0  0  0
   -2.1676    1.5619    0.5160 H   0  0  0  0  0  0  0  0  0  0  0  0
   -2.2598   -0.8340    0.9140 H   0  0  0  0  0  0  0  0  0  0  0  0
   -0.5618   -0.6527    1.4824 H   0  0  0  0  0  0  0  0  0  0  0  0
   -1.3313   -1.8406   -1.0020 H   0  0  0  0  0  0  0  0  0  0  0  0
   -2.5708    0.1951   -1.5375 H   0  0  0  0  0  0  0  0  0  0  0  0
   -0.9376    0.8997   -1.9903 H   0  0  0  0  0  0  0  0  0  0  0  0
    2.2088   -1.7597   -0.6748 H   0  0  0  0  0  0  0  0  0  0  0  0
    0.9503   -2.1415    0.5128 H   0  0  0  0  0  0  0  0  0  0  0  0
    1.7974   -0.3653    1.8216 H   0  0  0  0  0  0  0  0  0  0  0  0
    2.9953   -0.0420    0.5558 H   0  0  0  0  0  0  0  0  0  0  0  0
  1  2  2  3
  2  3  1  0
  3  4  1  0
  4  5  1  0
  5  6  1  0
  5  7  1  0
  7  8  1  0
  8  9  1  0
  9  1  1  0
  6  3  1  0
  1 10  1  0
  2 11  1  0
  3 12  1  0
  4 13  1  0
  4 14  1  0
  5 15  1  0
  6 16  1  0
  6 17  1  0
  8 18  1  0
  8 19  1  0
  9 20  1  0
  9 21  1  0
M  END
