
     RDKit          3D

 19 20  0  0  0  0  0  0  0  0999 V2000
    1.2632    1.0680   -0.1666 C   0  0  0  0  0  0  0  0  0  0  0  0
    0.0007    1.4788   -0.2612 C   0  0  0  0  0  0  0  0  0  0  0  0
   -1.2065    0.5702   -0.3092 C   0  0  0  0  0  0  0  0  0  0  0  0
   -0.8146   -0.6096   -1.2053 C   0  0  0  0  0  0  0  0  0  0  0  0
   -0.1138   -1.5761   -0.5446 O   0  0  0  0  0  0  0  0  0  0  0  0
    0.6108   -1.1787    0.5392 C   0  0  0  0  0  0  0  0  0  0  0  0
    1.8094   -0.2943    0.1666 C   0  0  0  0  0  0  0  0  0  0  0  0
   -0.1028   -0.4745    1.4941 O   0  0  0  0  0  0  0  0  0  0  0  0
   -1.3328   -0.0323    1.0802 C   0  0  0  0  0  0  0  0  0  0  0  0
    2.0592    1.8083   -0.3535 H   0  0  0  0  0  0  0  0  0  0  0  0
   -0.2245    2.5156   -0.3095 H   0  0  0  0  0  0  0  0  0  0  0  0
   -2.1030    1.0821   -0.6502 H   0  0  0  0  0  0  0  0  0  0  0  0
   -1.7107   -1.0365   -1.7010 H   0  0  0  0  0  0  0  0  0  0  0  0
   -0.2014   -0.1556   -2.0345 H   0  0  0  0  0  0  0  0  0  0  0  0
    1.0031   -2.0915    1.0431 H   0  0  0  0  0  0  0  0  0  0  0  0
    2.3300   -0.7475   -0.7026 H   0  0  0  0  0  0  0  0  0  0  0  0
    2.4646   -0.2442    1.0616 H   0  0  0  0  0  0  0  0  0  0  0  0
   -1.6598    0.7813    1.7640 H   0  0  0  0  0  0  0  0  0  0  0  0
   -2.0713   -0.8635    1.0895 H   0  0  0  0  0  0  0  0  0  0  0  0
  1  2  2  0
  2  3  1  0
  3  4  1  0
  4  5  1  0
  5  6  1  0
  6  7  1  0
  6  8  1  0
  8  9  1  0
  7  1  1  0
  9  3  1  0
  1 10  1  0
  2 11  1  0
  3 12  1  0
  4 13  1  0
  4 14  1  0
  6 15  1  0
  7 16  1  0
  7 17  1  0
  9 18  1  0
  9 19  1  0
M  END
