
     RDKit          3D

 21 22  0  0  0  0  0  0  0  0999 V2000
    1.7746   -1.0885    0.9213 C   0  0  0  0  0  0  0  0  0  0  0  0
    0.4782   -0.8126    1.0084 C   0  0  0  0  0  0  0  0  0  0  0  0
   -0.0967    0.3844    0.3349 C   0  0  0  0  0  0  0  0  0  0  0  0
   -1.1984    0.0271   -0.6229 C   0  0  0  0  0  0  0  0  0  0  0  0
   -2.4245   -0.6617   -0.1538 C   0  0  0  0  0  0  0  0  0  0  0  0
   -2.4777    0.7933   -0.4344 C   0  0  0  0  0  0  0  0  0  0  0  0
    0.9881    1.0596   -0.4799 C   0  0  0  0  0  0  0  0  0  0  0  0
    2.1992    1.0889    0.2130 O   0  0  0  0  0  0  0  0  0  0  0  0
    2.7205   -0.2206    0.1493 C   0  0  0  0  0  0  0  0  0  0  0  0
    2.1656   -1.9702    1.4242 H   0  0  0  0  0  0  0  0  0  0  0  0
   -0.1369   -1.4907    1.5858 H   0  0  0  0  0  0  0  0  0  0  0  0
   -0.4252    1.1211    1.1021 H   0  0  0  0  0  0  0  0  0  0  0  0
   -0.8606   -0.1517   -1.6708 H   0  0  0  0  0  0  0  0  0  0  0  0
   -2.8521   -1.4090   -0.8543 H   0  0  0  0  0  0  0  0  0  0  0  0
   -2.4963   -0.9675    0.9207 H   0  0  0  0  0  0  0  0  0  0  0  0
   -3.0216    1.1823   -1.3285 H   0  0  0  0  0  0  0  0  0  0  0  0
   -2.5908    1.4717    0.4467 H   0  0  0  0  0  0  0  0  0  0  0  0
    1.1464    0.4227   -1.3819 H   0  0  0  0  0  0  0  0  0  0  0  0
    0.6705    2.0754   -0.8012 H   0  0  0  0  0  0  0  0  0  0  0  0
    3.7388   -0.2579    0.5772 H   0  0  0  0  0  0  0  0  0  0  0  0
    2.6990   -0.5962   -0.8957 H   0  0  0  0  0  0  0  0  0  0  0  0
  1  2  2  0
  2  3  1  0
  3  4  1  0
  4  5  1  0
  5  6  1  0
  3  7  1  0
  7  8  1  0
  8  9  1  0
  9  1  1  0
  6  4  1  0
  1 10  1  0
  2 11  1  0
  3 12  1  0
  4 13  1  0
  5 14  1  0
  5 15  1  0
  6 16  1  0
  6 17  1  0
  7 18  1  0
  7 19  1  0
  9 20  1  0
  9 21  1  0
M  END
