
     RDKit          3D

 19 20  0  0  0  0  0  0  0  0999 V2000
    1.4659    1.3855   -0.2869 C   0  0  0  0  0  0  0  0  0  0  0  0
    2.0191    0.1873   -0.1811 C   0  0  0  0  0  0  0  0  0  0  0  0
    1.4644   -1.0764    0.2461 C   0  0  0  0  0  0  0  0  0  0  0  0
    0.0996   -1.4469   -0.1330 C   0  0  0  0  0  0  0  0  0  0  0  0
   -1.0198   -0.5710   -0.1623 C   0  0  0  0  0  0  0  0  0  0  0  0
   -1.9520   -0.5870    0.9102 O   0  0  0  0  0  0  0  0  0  0  0  0
   -2.3953    0.6254    0.3113 C   0  0  0  0  0  0  0  0  0  0  0  0
   -0.9385    0.8558    0.0756 C   0  0  0  0  0  0  0  0  0  0  0  0
    0.0713    1.6979    0.0322 C   0  0  0  0  0  0  0  0  0  0  0  0
    2.0486    2.2277   -0.6305 H   0  0  0  0  0  0  0  0  0  0  0  0
    3.0566    0.1840   -0.4659 H   0  0  0  0  0  0  0  0  0  0  0  0
    1.5591   -1.0927    1.3788 H   0  0  0  0  0  0  0  0  0  0  0  0
    2.1935   -1.8627   -0.0567 H   0  0  0  0  0  0  0  0  0  0  0  0
    0.1798   -1.9887   -1.1266 H   0  0  0  0  0  0  0  0  0  0  0  0
   -0.1983   -2.3162    0.5439 H   0  0  0  0  0  0  0  0  0  0  0  0
   -1.6798   -0.7243   -1.0741 H   0  0  0  0  0  0  0  0  0  0  0  0
   -2.8750    1.3143    1.0170 H   0  0  0  0  0  0  0  0  0  0  0  0
   -2.9008    0.4806   -0.6578 H   0  0  0  0  0  0  0  0  0  0  0  0
   -0.1985    2.7074    0.2599 H   0  0  0  0  0  0  0  0  0  0  0  0
  1  2  2  0
  2  3  1  0
  3  4  1  0
  4  5  1  0
  5  6  1  0
  6  7  1  0
  7  8  1  0
  8  9  2  0
  9  1  1  0
  8  5  1  0
  1 10  1  0
  2 11  1  0
  3 12  1  0
  3 13  1  0
  4 14  1  0
  4 15  1  0
  5 16  1  0
  7 17  1  0
  7 18  1  0
  9 19  1  0
M  END
