
     RDKit          3D

 21 23  0  0  0  0  0  0  0  0999 V2000
    2.1947   -0.0496   -0.2242 C   0  0  0  0  0  0  0  0  0  0  0  0
    1.6945    1.1795   -0.3541 C   0  0  0  0  0  0  0  0  0  0  0  0
    0.2540    1.2265   -0.4816 C   0  0  0  0  0  0  0  0  0  0  0  0
   -0.9450    1.3500    0.2710 C   0  0  0  0  0  0  0  0  0  0  0  0
   -2.0955    0.3356    0.0324 C   0  0  0  0  0  0  0  0  0  0  0  0
   -1.3081   -0.9455   -0.3130 C   0  0  0  0  0  0  0  0  0  0  0  0
   -0.0544   -0.9117    0.5346 C   0  0  0  0  0  0  0  0  0  0  0  0
    1.2195   -1.1843   -0.2299 C   0  0  0  0  0  0  0  0  0  0  0  0
   -0.0169    0.5136    0.8974 C   0  0  0  0  0  0  0  0  0  0  0  0
    3.2807   -0.2260   -0.1160 H   0  0  0  0  0  0  0  0  0  0  0  0
    2.3535    2.0141   -0.3563 H   0  0  0  0  0  0  0  0  0  0  0  0
    0.0153    0.6530   -1.4328 H   0  0  0  0  0  0  0  0  0  0  0  0
   -1.3385    2.2547    0.7776 H   0  0  0  0  0  0  0  0  0  0  0  0
   -2.6924    0.2101    0.9378 H   0  0  0  0  0  0  0  0  0  0  0  0
   -2.6751    0.6674   -0.8568 H   0  0  0  0  0  0  0  0  0  0  0  0
   -1.1030   -1.0436   -1.3742 H   0  0  0  0  0  0  0  0  0  0  0  0
   -1.9045   -1.8167    0.0389 H   0  0  0  0  0  0  0  0  0  0  0  0
   -0.1466   -1.5435    1.4403 H   0  0  0  0  0  0  0  0  0  0  0  0
    1.0216   -1.5365   -1.2646 H   0  0  0  0  0  0  0  0  0  0  0  0
    1.7479   -2.0299    0.2892 H   0  0  0  0  0  0  0  0  0  0  0  0
    0.4983    0.8830    1.7840 H   0  0  0  0  0  0  0  0  0  0  0  0
  1  2  2  0
  2  3  1  0
  3  4  1  0
  4  5  1  0
  5  6  1  0
  6  7  1  0
  7  8  1  0
  7  9  1  0
  8  1  1  0
  9  3  1  0
  9  4  1  0
  1 10  1  0
  2 11  1  0
  3 12  1  0
  4 13  1  0
  5 14  1  0
  5 15  1  0
  6 16  1  0
  6 17  1  0
  7 18  1  0
  8 19  1  0
  8 20  1  0
  9 21  1  0
M  END
