
     RDKit          3D

 19 21  0  0  0  0  0  0  0  0999 V2000
    1.7767   -0.2850    0.4141 C   0  0  0  0  0  0  0  0  0  0  0  0
    1.6090    0.9840    0.7268 C   0  0  0  0  0  0  0  0  0  0  0  0
    0.4190    1.5333   -0.0067 C   0  0  0  0  0  0  0  0  0  0  0  0
   -0.8177    0.8339    0.1553 C   0  0  0  0  0  0  0  0  0  0  0  0
   -1.9420    0.1961   -0.5101 C   0  0  0  0  0  0  0  0  0  0  0  0
   -1.6279   -1.1884   -0.5594 O   0  0  0  0  0  0  0  0  0  0  0  0
   -0.4083   -1.5142    0.0324 C   0  0  0  0  0  0  0  0  0  0  0  0
    0.7722   -0.7954   -0.5508 C   0  0  0  0  0  0  0  0  0  0  0  0
    0.2134    0.5292   -0.9611 C   0  0  0  0  0  0  0  0  0  0  0  0
    2.5660   -0.9035    0.8155 H   0  0  0  0  0  0  0  0  0  0  0  0
    2.1992    1.5801    1.3940 H   0  0  0  0  0  0  0  0  0  0  0  0
    0.4875    2.6027   -0.2983 H   0  0  0  0  0  0  0  0  0  0  0  0
   -0.7751    0.3135    1.1597 H   0  0  0  0  0  0  0  0  0  0  0  0
   -2.1187    0.5326   -1.5460 H   0  0  0  0  0  0  0  0  0  0  0  0
   -2.8916    0.3674    0.0395 H   0  0  0  0  0  0  0  0  0  0  0  0
   -0.4241   -1.6278    1.1129 H   0  0  0  0  0  0  0  0  0  0  0  0
   -0.2659   -2.5915   -0.3278 H   0  0  0  0  0  0  0  0  0  0  0  0
    1.2455   -1.3441   -1.3937 H   0  0  0  0  0  0  0  0  0  0  0  0
   -0.0169    0.7769   -1.9833 H   0  0  0  0  0  0  0  0  0  0  0  0
  1  2  2  0
  2  3  1  0
  3  4  1  0
  4  5  1  0
  5  6  1  0
  6  7  1  0
  7  8  1  0
  8  9  1  0
  8  1  1  0
  9  3  1  0
  9  4  1  0
  1 10  1  0
  2 11  1  0
  3 12  1  0
  4 13  1  0
  5 14  1  0
  5 15  1  0
  7 16  1  0
  7 17  1  0
  8 18  1  0
  9 19  1  0
M  END
