
     RDKit          3D

 18 19  0  0  0  0  0  0  0  0999 V2000
   -1.8480    0.1437   -0.4517 C   0  0  0  0  0  0  0  0  0  0  0  0
   -1.0911    1.2183   -0.3202 C   0  0  0  0  0  0  0  0  0  0  0  0
    0.2644    1.2169    0.2876 C   0  0  0  0  0  0  0  0  0  0  0  0
    1.3154    1.3685   -0.6251 O   0  0  0  0  0  0  0  0  0  0  0  0
    2.0481    0.4401    0.1056 C   0  0  0  0  0  0  0  0  0  0  0  0
    0.7753   -0.1673    0.5672 C   0  0  0  0  0  0  0  0  0  0  0  0
    0.1437   -1.1991   -0.3187 C   0  0  0  0  0  0  0  0  0  0  0  0
   -1.3540   -1.1639    0.0225 C   0  0  0  0  0  0  0  0  0  0  0  0
   -2.8140    0.2328   -0.9019 H   0  0  0  0  0  0  0  0  0  0  0  0
   -1.4504    2.1892   -0.6690 H   0  0  0  0  0  0  0  0  0  0  0  0
    0.3520    1.9467    1.1032 H   0  0  0  0  0  0  0  0  0  0  0  0
    2.7243   -0.2081   -0.4521 H   0  0  0  0  0  0  0  0  0  0  0  0
    2.6110    0.8909    0.9699 H   0  0  0  0  0  0  0  0  0  0  0  0
    0.7700   -0.4915    1.6188 H   0  0  0  0  0  0  0  0  0  0  0  0
    0.3091   -1.0448   -1.3866 H   0  0  0  0  0  0  0  0  0  0  0  0
    0.5372   -2.1930   -0.0024 H   0  0  0  0  0  0  0  0  0  0  0  0
   -1.8758   -2.0290   -0.4045 H   0  0  0  0  0  0  0  0  0  0  0  0
   -1.4170   -1.1505    1.1368 H   0  0  0  0  0  0  0  0  0  0  0  0
  1  2  2  0
  2  3  1  0
  3  4  1  0
  4  5  1  0
  5  6  1  0
  6  7  1  0
  7  8  1  0
  8  1  1  0
  6  3  1  0
  1  9  1  0
  2 10  1  0
  3 11  1  0
  5 12  1  0
  5 13  1  0
  6 14  1  0
  7 15  1  0
  7 16  1  0
  8 17  1  0
  8 18  1  0
M  END
