
     RDKit          3D

 19 21  0  0  0  0  0  0  0  0999 V2000
   -2.0311   -0.4192    0.6841 C   0  0  0  0  0  0  0  0  0  0  0  0
   -2.0993   -0.0680   -0.5981 C   0  0  0  0  0  0  0  0  0  0  0  0
   -0.6536    0.1008   -0.9672 C   0  0  0  0  0  0  0  0  0  0  0  0
   -0.1495    0.8385    0.2553 C   0  0  0  0  0  0  0  0  0  0  0  0
    1.3169    1.0176    0.3067 C   0  0  0  0  0  0  0  0  0  0  0  0
    2.0335   -0.1687   -0.2493 C   0  0  0  0  0  0  0  0  0  0  0  0
    1.2746   -1.2709   -0.4519 O   0  0  0  0  0  0  0  0  0  0  0  0
   -0.0692   -1.1317   -0.3157 C   0  0  0  0  0  0  0  0  0  0  0  0
   -0.5829   -0.4688    0.9449 C   0  0  0  0  0  0  0  0  0  0  0  0
   -2.8133   -0.6266    1.3952 H   0  0  0  0  0  0  0  0  0  0  0  0
   -2.9233    0.0813   -1.2755 H   0  0  0  0  0  0  0  0  0  0  0  0
   -0.3805    0.3929   -1.9289 H   0  0  0  0  0  0  0  0  0  0  0  0
   -0.7926    1.6824    0.4862 H   0  0  0  0  0  0  0  0  0  0  0  0
    1.6230    1.1262    1.3888 H   0  0  0  0  0  0  0  0  0  0  0  0
    1.6094    1.9761   -0.1678 H   0  0  0  0  0  0  0  0  0  0  0  0
    2.5162    0.1663   -1.2135 H   0  0  0  0  0  0  0  0  0  0  0  0
    2.8990   -0.4506    0.4037 H   0  0  0  0  0  0  0  0  0  0  0  0
   -0.5966   -2.0765   -0.5761 H   0  0  0  0  0  0  0  0  0  0  0  0
   -0.1806   -0.7010    1.8793 H   0  0  0  0  0  0  0  0  0  0  0  0
  1  2  2  0
  2  3  1  0
  3  4  1  0
  4  5  1  0
  5  6  1  0
  6  7  1  0
  7  8  1  0
  8  9  1  0
  9  1  1  0
  8  3  1  0
  9  4  1  0
  1 10  1  0
  2 11  1  0
  3 12  1  0
  4 13  1  0
  5 14  1  0
  5 15  1  0
  6 16  1  0
  6 17  1  0
  8 18  1  0
  9 19  1  0
M  END
