
     RDKit          3D

 21 22  0  0  0  0  0  0  0  0999 V2000
    2.6483    0.6865    0.4189 C   0  0  0  0  0  0  0  0  0  0  0  0
    1.4342    1.1790    0.3163 C   0  0  0  0  0  0  0  0  0  0  0  0
    0.4767    0.1412   -0.0911 C   0  0  0  0  0  0  0  0  0  0  0  0
   -0.8216    0.1975    0.0598 C   0  0  0  0  0  0  0  0  0  0  0  0
   -1.8243    1.1315    0.6045 C   0  0  0  0  0  0  0  0  0  0  0  0
   -2.7180   -0.0852    0.8453 C   0  0  0  0  0  0  0  0  0  0  0  0
   -1.9260   -0.7243   -0.2778 C   0  0  0  0  0  0  0  0  0  0  0  0
    1.3145   -0.9386   -0.6901 C   0  0  0  0  0  0  0  0  0  0  0  0
    2.5981   -0.7477    0.0823 C   0  0  0  0  0  0  0  0  0  0  0  0
    3.5059    1.2814    0.7068 H   0  0  0  0  0  0  0  0  0  0  0  0
    1.1185    2.2174    0.4980 H   0  0  0  0  0  0  0  0  0  0  0  0
   -2.2879    1.7705   -0.2021 H   0  0  0  0  0  0  0  0  0  0  0  0
   -1.5470    1.6760    1.5203 H   0  0  0  0  0  0  0  0  0  0  0  0
   -2.5255   -0.5217    1.8437 H   0  0  0  0  0  0  0  0  0  0  0  0
   -3.7830    0.1017    0.6013 H   0  0  0  0  0  0  0  0  0  0  0  0
   -1.7022   -1.7998   -0.1419 H   0  0  0  0  0  0  0  0  0  0  0  0
   -2.3670   -0.4504   -1.2537 H   0  0  0  0  0  0  0  0  0  0  0  0
    1.4376   -0.8325   -1.7757 H   0  0  0  0  0  0  0  0  0  0  0  0
    0.9112   -1.9470   -0.4097 H   0  0  0  0  0  0  0  0  0  0  0  0
    2.5662   -1.3238    1.0337 H   0  0  0  0  0  0  0  0  0  0  0  0
    3.4911   -1.0117   -0.5242 H   0  0  0  0  0  0  0  0  0  0  0  0
  1  2  2  0
  2  3  1  0
  3  4  2  3
  4  5  1  0
  5  6  1  0
  6  7  1  0
  3  8  1  0
  8  9  1  0
  9  1  1  0
  7  4  1  0
  1 10  1  0
  2 11  1  0
  5 12  1  0
  5 13  1  0
  6 14  1  0
  6 15  1  0
  7 16  1  0
  7 17  1  0
  8 18  1  0
  8 19  1  0
  9 20  1  0
  9 21  1  0
M  END
