
     RDKit          2D

 17 20  0  0  0  0  0  0  0  0999 V2000
   -2.5981    2.5607    0.0000 C   0  0  0  0  0  0  0  0  0  0  0  0
   -2.1213    1.0607    0.0000 C   0  0  0  0  0  0  0  0  0  0  0  0
   -1.0607    2.1213    0.0000 C   0  0  0  0  0  0  0  0  0  0  0  0
   -0.0000   -1.0607    0.0000 C   0  0  0  0  0  0  0  0  0  0  0  0
    1.0607    0.0000    0.0000 O   0  0  0  0  0  0  0  0  0  0  0  0
    0.0000    1.0607    0.0000 C   0  0  0  0  0  0  0  0  0  0  0  0
   -0.0000    2.5607    0.0000 C   0  0  0  0  0  0  0  0  0  0  0  0
   -1.2990    3.3107    0.0000 C   0  0  0  0  0  0  0  0  0  0  0  0
   -1.0607    0.0000    0.0000 C   0  0  0  0  0  0  0  0  0  0  0  0
   -3.8971    3.3107    0.0000 H   0  0  0  0  0  0  0  0  0  0  0  0
   -1.2536    2.8948    0.0000 H   0  0  0  0  0  0  0  0  0  0  0  0
   -0.0000   -2.5607    0.0000 H   0  0  0  0  0  0  0  0  0  0  0  0
    1.4772    2.3002    0.0000 H   0  0  0  0  0  0  0  0  0  0  0  0
    0.5130    3.9702    0.0000 H   0  0  0  0  0  0  0  0  0  0  0  0
   -0.3349    4.4597    0.0000 H   0  0  0  0  0  0  0  0  0  0  0  0
   -2.2632    4.4597    0.0000 H   0  0  0  0  0  0  0  0  0  0  0  0
   -2.1213   -1.0607    0.0000 H   0  0  0  0  0  0  0  0  0  0  0  0
  1  2  2  0
  2  3  1  0
  3  4  1  0
  4  5  1  0
  5  6  1  0
  6  7  1  0
  7  8  1  0
  6  9  1  0
  8  1  1  0
  9  2  1  0
  6  3  1  0
  9  4  1  0
  1 10  1  0
  3 11  1  0
  4 12  1  0
  7 13  1  0
  7 14  1  0
  8 15  1  0
  8 16  1  0
  9 17  1  0
M  END
