
     RDKit          3D

 19 20  0  0  0  0  0  0  0  0999 V2000
   -2.0648    1.3338    0.3041 C   0  0  0  0  0  0  0  0  0  0  0  0
   -2.2711    0.6661   -0.8259 C   0  0  0  0  0  0  0  0  0  0  0  0
   -1.3433   -0.5049   -0.9055 C   0  0  0  0  0  0  0  0  0  0  0  0
   -0.2845   -0.0996    0.0531 C   0  0  0  0  0  0  0  0  0  0  0  0
    0.9974   -0.3634    0.0119 C   0  0  0  0  0  0  0  0  0  0  0  0
    2.0519   -1.0510   -0.7717 C   0  0  0  0  0  0  0  0  0  0  0  0
    2.9316   -0.0462   -0.3464 O   0  0  0  0  0  0  0  0  0  0  0  0
    2.1818   -0.0563    0.8511 C   0  0  0  0  0  0  0  0  0  0  0  0
   -0.9833    0.6862    1.0984 C   0  0  0  0  0  0  0  0  0  0  0  0
   -2.6194    2.2363    0.6022 H   0  0  0  0  0  0  0  0  0  0  0  0
   -2.9961    0.8946   -1.6124 H   0  0  0  0  0  0  0  0  0  0  0  0
   -0.9510   -0.5265   -1.9623 H   0  0  0  0  0  0  0  0  0  0  0  0
   -1.8208   -1.4536   -0.6710 H   0  0  0  0  0  0  0  0  0  0  0  0
    1.8970   -1.1146   -1.8538 H   0  0  0  0  0  0  0  0  0  0  0  0
    2.3219   -2.0029   -0.2644 H   0  0  0  0  0  0  0  0  0  0  0  0
    2.5033   -0.9472    1.4379 H   0  0  0  0  0  0  0  0  0  0  0  0
    2.1868    0.8952    1.3707 H   0  0  0  0  0  0  0  0  0  0  0  0
   -0.3242    1.4290    1.5874 H   0  0  0  0  0  0  0  0  0  0  0  0
   -1.4133    0.0249    1.8966 H   0  0  0  0  0  0  0  0  0  0  0  0
  1  2  2  0
  2  3  1  0
  3  4  1  0
  4  5  2  3
  5  6  1  0
  6  7  1  0
  7  8  1  0
  4  9  1  0
  9  1  1  0
  8  5  1  0
  1 10  1  0
  2 11  1  0
  3 12  1  0
  3 13  1  0
  6 14  1  0
  6 15  1  0
  8 16  1  0
  8 17  1  0
  9 18  1  0
  9 19  1  0
M  END
