
     RDKit          3D

 19 20  0  0  0  0  0  0  0  0999 V2000
    0.8228    1.3255   -0.6644 C   0  0  0  0  0  0  0  0  0  0  0  0
    1.2765    0.1542   -1.0873 C   0  0  0  0  0  0  0  0  0  0  0  0
    0.8965   -1.0372   -0.2853 C   0  0  0  0  0  0  0  0  0  0  0  0
    0.9539   -0.5831    1.1720 C   0  0  0  0  0  0  0  0  0  0  0  0
    0.0909    0.4407    1.4477 O   0  0  0  0  0  0  0  0  0  0  0  0
   -0.2716    1.2112    0.3734 C   0  0  0  0  0  0  0  0  0  0  0  0
   -1.4770    0.5584   -0.2785 C   0  0  0  0  0  0  0  0  0  0  0  0
   -1.4018   -0.9141   -0.0257 C   0  0  0  0  0  0  0  0  0  0  0  0
   -0.3368   -1.5445   -0.6243 O   0  0  0  0  0  0  0  0  0  0  0  0
    1.1860    2.2861   -1.0145 H   0  0  0  0  0  0  0  0  0  0  0  0
    1.8894    0.0574   -1.9649 H   0  0  0  0  0  0  0  0  0  0  0  0
    1.6351   -1.8603   -0.3698 H   0  0  0  0  0  0  0  0  0  0  0  0
    0.8806   -1.4257    1.8749 H   0  0  0  0  0  0  0  0  0  0  0  0
    2.0008   -0.1800    1.2984 H   0  0  0  0  0  0  0  0  0  0  0  0
   -0.5231    2.2457    0.6735 H   0  0  0  0  0  0  0  0  0  0  0  0
   -1.4959    0.7616   -1.3794 H   0  0  0  0  0  0  0  0  0  0  0  0
   -2.4024    0.9346    0.2031 H   0  0  0  0  0  0  0  0  0  0  0  0
   -2.3303   -1.3726   -0.4367 H   0  0  0  0  0  0  0  0  0  0  0  0
   -1.3935   -1.0580    1.0876 H   0  0  0  0  0  0  0  0  0  0  0  0
  1  2  2  0
  2  3  1  0
  3  4  1  0
  4  5  1  0
  5  6  1  0
  6  7  1  0
  7  8  1  0
  8  9  1  0
  6  1  1  0
  9  3  1  0
  1 10  1  0
  2 11  1  0
  3 12  1  0
  4 13  1  0
  4 14  1  0
  6 15  1  0
  7 16  1  0
  7 17  1  0
  8 18  1  0
  8 19  1  0
M  END
