
     RDKit          3D

 21 22  0  0  0  0  0  0  0  0999 V2000
   -0.5526    1.4655   -0.4141 C   0  0  0  0  0  0  0  0  0  0  0  0
    0.5428    0.8597   -0.0773 C   0  0  0  0  0  0  0  0  0  0  0  0
    1.9572    1.2125   -0.1717 C   0  0  0  0  0  0  0  0  0  0  0  0
    2.5725    0.0233   -0.5205 O   0  0  0  0  0  0  0  0  0  0  0  0
    1.8095   -1.0378   -0.0993 C   0  0  0  0  0  0  0  0  0  0  0  0
    0.5478   -0.4645    0.5415 C   0  0  0  0  0  0  0  0  0  0  0  0
   -0.6610   -1.2891    0.3471 C   0  0  0  0  0  0  0  0  0  0  0  0
   -1.9017   -0.6229   -0.0592 C   0  0  0  0  0  0  0  0  0  0  0  0
   -1.8925    0.8551   -0.1962 C   0  0  0  0  0  0  0  0  0  0  0  0
   -0.5702    2.4731   -0.8826 H   0  0  0  0  0  0  0  0  0  0  0  0
    2.3132    1.4567    0.8638 H   0  0  0  0  0  0  0  0  0  0  0  0
    2.1728    2.0352   -0.8767 H   0  0  0  0  0  0  0  0  0  0  0  0
    1.5359   -1.6621   -0.9685 H   0  0  0  0  0  0  0  0  0  0  0  0
    2.3739   -1.6637    0.6246 H   0  0  0  0  0  0  0  0  0  0  0  0
    0.8237   -0.3320    1.6303 H   0  0  0  0  0  0  0  0  0  0  0  0
   -0.8444   -1.8184    1.3297 H   0  0  0  0  0  0  0  0  0  0  0  0
   -0.3806   -2.1273   -0.3518 H   0  0  0  0  0  0  0  0  0  0  0  0
   -2.2265   -1.0451   -1.0585 H   0  0  0  0  0  0  0  0  0  0  0  0
   -2.7689   -0.8864    0.6192 H   0  0  0  0  0  0  0  0  0  0  0  0
   -2.2879    1.3666    0.7315 H   0  0  0  0  0  0  0  0  0  0  0  0
   -2.5629    1.2014   -1.0111 H   0  0  0  0  0  0  0  0  0  0  0  0
  1  2  2  0
  2  3  1  0
  3  4  1  0
  4  5  1  0
  5  6  1  0
  6  7  1  0
  7  8  1  0
  8  9  1  0
  9  1  1  0
  6  2  1  0
  1 10  1  0
  3 11  1  0
  3 12  1  0
  5 13  1  0
  5 14  1  0
  6 15  1  0
  7 16  1  0
  7 17  1  0
  8 18  1  0
  8 19  1  0
  9 20  1  0
  9 21  1  0
M  END
