
     RDKit          3D

 19 21  0  0  0  0  0  0  0  0999 V2000
    1.6240   -1.0367    0.8840 C   0  0  0  0  0  0  0  0  0  0  0  0
    0.3319   -1.0022    0.6093 C   0  0  0  0  0  0  0  0  0  0  0  0
   -1.1584   -1.1868    0.4996 C   0  0  0  0  0  0  0  0  0  0  0  0
   -1.0433   -0.4377   -0.8148 C   0  0  0  0  0  0  0  0  0  0  0  0
   -1.6777    0.9153   -0.7185 C   0  0  0  0  0  0  0  0  0  0  0  0
   -0.4539    1.3505    0.0907 C   0  0  0  0  0  0  0  0  0  0  0  0
    0.2213    0.1161   -0.3671 C   0  0  0  0  0  0  0  0  0  0  0  0
    1.3769    0.1470   -1.0189 O   0  0  0  0  0  0  0  0  0  0  0  0
    2.3283    0.0129    0.0425 C   0  0  0  0  0  0  0  0  0  0  0  0
    2.1159   -1.7003    1.5920 H   0  0  0  0  0  0  0  0  0  0  0  0
   -1.4936   -2.2233    0.4267 H   0  0  0  0  0  0  0  0  0  0  0  0
   -1.7546   -0.6331    1.2283 H   0  0  0  0  0  0  0  0  0  0  0  0
   -1.1491   -1.0029   -1.7203 H   0  0  0  0  0  0  0  0  0  0  0  0
   -2.5691    0.9989   -0.0616 H   0  0  0  0  0  0  0  0  0  0  0  0
   -1.8019    1.4562   -1.6781 H   0  0  0  0  0  0  0  0  0  0  0  0
   -0.6292    1.4914    1.1529 H   0  0  0  0  0  0  0  0  0  0  0  0
   -0.0040    2.2458   -0.3892 H   0  0  0  0  0  0  0  0  0  0  0  0
    3.2580   -0.4562   -0.3344 H   0  0  0  0  0  0  0  0  0  0  0  0
    2.4786    0.9451    0.5771 H   0  0  0  0  0  0  0  0  0  0  0  0
  1  2  2  0
  2  3  1  0
  3  4  1  0
  4  5  1  0
  5  6  1  0
  6  7  1  0
  7  8  1  0
  8  9  1  0
  9  1  1  0
  7  2  1  0
  7  4  1  0
  1 10  1  0
  3 11  1  0
  3 12  1  0
  4 13  1  0
  5 14  1  0
  5 15  1  0
  6 16  1  0
  6 17  1  0
  9 18  1  0
  9 19  1  0
M  END
