
     RDKit          3D

 17 19  0  0  0  0  0  0  0  0999 V2000
   -0.9556    1.0357    0.9880 C   0  0  0  0  0  0  0  0  0  0  0  0
    0.1544    1.4385    0.3819 C   0  0  0  0  0  0  0  0  0  0  0  0
    0.8990    0.4516   -0.4116 C   0  0  0  0  0  0  0  0  0  0  0  0
    1.9797   -0.3727    0.1476 C   0  0  0  0  0  0  0  0  0  0  0  0
    2.1844    0.6356   -0.8032 O   0  0  0  0  0  0  0  0  0  0  0  0
   -0.1048   -0.2520   -1.2950 C   0  0  0  0  0  0  0  0  0  0  0  0
   -1.0742   -0.9676   -0.4198 C   0  0  0  0  0  0  0  0  0  0  0  0
   -0.5014   -1.3999    0.8910 O   0  0  0  0  0  0  0  0  0  0  0  0
   -1.4139   -0.3511    0.8630 C   0  0  0  0  0  0  0  0  0  0  0  0
   -1.5657    1.7192    1.5995 H   0  0  0  0  0  0  0  0  0  0  0  0
    0.4385    2.4735    0.5134 H   0  0  0  0  0  0  0  0  0  0  0  0
    2.0487   -1.4344   -0.2010 H   0  0  0  0  0  0  0  0  0  0  0  0
    2.2962   -0.1799    1.1928 H   0  0  0  0  0  0  0  0  0  0  0  0
   -0.5935    0.5342   -1.9077 H   0  0  0  0  0  0  0  0  0  0  0  0
    0.3557   -0.9604   -2.0023 H   0  0  0  0  0  0  0  0  0  0  0  0
   -1.7514   -1.7394   -0.8328 H   0  0  0  0  0  0  0  0  0  0  0  0
   -2.3961   -0.6308    1.2963 H   0  0  0  0  0  0  0  0  0  0  0  0
  1  2  2  0
  2  3  1  0
  3  4  1  0
  4  5  1  0
  3  6  1  0
  6  7  1  0
  7  8  1  0
  8  9  1  0
  9  1  1  0
  5  3  1  0
  9  7  1  0
  1 10  1  0
  2 11  1  0
  4 12  1  0
  4 13  1  0
  6 14  1  0
  6 15  1  0
  7 16  1  0
  9 17  1  0
M  END
