
     RDKit          3D

 19 21  0  0  0  0  0  0  0  0999 V2000
   -1.6918    0.9051    0.9557 C   0  0  0  0  0  0  0  0  0  0  0  0
   -0.3923    0.9433    0.8565 C   0  0  0  0  0  0  0  0  0  0  0  0
    0.0245   -0.1005   -0.1082 C   0  0  0  0  0  0  0  0  0  0  0  0
   -1.1662   -0.2720   -0.9677 C   0  0  0  0  0  0  0  0  0  0  0  0
   -2.2845   -0.1560    0.0790 C   0  0  0  0  0  0  0  0  0  0  0  0
    0.4613   -1.2287    0.5732 O   0  0  0  0  0  0  0  0  0  0  0  0
    1.7555   -1.0718    0.1565 C   0  0  0  0  0  0  0  0  0  0  0  0
    2.4881    0.2062    0.2375 C   0  0  0  0  0  0  0  0  0  0  0  0
    1.3506    0.1074   -0.7567 C   0  0  0  0  0  0  0  0  0  0  0  0
   -2.3100    1.5483    1.5873 H   0  0  0  0  0  0  0  0  0  0  0  0
    0.2930    1.5979    1.3646 H   0  0  0  0  0  0  0  0  0  0  0  0
   -1.2280   -1.1920   -1.5422 H   0  0  0  0  0  0  0  0  0  0  0  0
   -1.2760    0.6474   -1.5994 H   0  0  0  0  0  0  0  0  0  0  0  0
   -2.2736   -1.0942    0.6361 H   0  0  0  0  0  0  0  0  0  0  0  0
   -3.2321    0.1412   -0.3564 H   0  0  0  0  0  0  0  0  0  0  0  0
    2.1999   -1.9592   -0.3281 H   0  0  0  0  0  0  0  0  0  0  0  0
    2.2226    0.8511    1.1254 H   0  0  0  0  0  0  0  0  0  0  0  0
    3.5238    0.2017   -0.1043 H   0  0  0  0  0  0  0  0  0  0  0  0
    1.5352   -0.0753   -1.8091 H   0  0  0  0  0  0  0  0  0  0  0  0
  1  2  2  0
  2  3  1  0
  3  4  1  0
  4  5  1  0
  3  6  1  0
  6  7  1  0
  7  8  1  0
  8  9  1  0
  5  1  1  0
  9  7  1  0
  9  3  1  0
  1 10  1  0
  2 11  1  0
  4 12  1  0
  4 13  1  0
  5 14  1  0
  5 15  1  0
  7 16  1  0
  8 17  1  0
  8 18  1  0
  9 19  1  0
M  END
