
     RDKit          3D

 21 23  0  0  0  0  0  0  0  0999 V2000
    2.1879   -0.0158    0.1790 C   0  0  0  0  0  0  0  0  0  0  0  0
    1.5578   -1.0337   -0.3763 C   0  0  0  0  0  0  0  0  0  0  0  0
    0.2727   -0.6070   -0.8540 C   0  0  0  0  0  0  0  0  0  0  0  0
   -0.9596   -1.3639   -0.4572 C   0  0  0  0  0  0  0  0  0  0  0  0
   -1.7190   -0.2481    0.2280 C   0  0  0  0  0  0  0  0  0  0  0  0
   -0.6542    0.1120    1.2794 C   0  0  0  0  0  0  0  0  0  0  0  0
    0.0388    0.6312    0.0368 C   0  0  0  0  0  0  0  0  0  0  0  0
    1.3186    1.2263    0.1067 C   0  0  0  0  0  0  0  0  0  0  0  0
   -1.2499    1.0591   -0.4451 C   0  0  0  0  0  0  0  0  0  0  0  0
    3.1654   -0.0450    0.6188 H   0  0  0  0  0  0  0  0  0  0  0  0
    1.9811   -2.0205   -0.4405 H   0  0  0  0  0  0  0  0  0  0  0  0
    0.2381   -0.2472   -1.9006 H   0  0  0  0  0  0  0  0  0  0  0  0
   -0.7109   -2.1066    0.3448 H   0  0  0  0  0  0  0  0  0  0  0  0
   -1.5074   -1.8127   -1.2971 H   0  0  0  0  0  0  0  0  0  0  0  0
   -2.7151   -0.3455    0.5198 H   0  0  0  0  0  0  0  0  0  0  0  0
   -1.0251    0.9427    1.8736 H   0  0  0  0  0  0  0  0  0  0  0  0
   -0.1962   -0.7411    1.7735 H   0  0  0  0  0  0  0  0  0  0  0  0
    1.5880    1.8714   -0.7276 H   0  0  0  0  0  0  0  0  0  0  0  0
    1.4705    1.8115    1.0465 H   0  0  0  0  0  0  0  0  0  0  0  0
   -1.3879    1.0156   -1.5512 H   0  0  0  0  0  0  0  0  0  0  0  0
   -1.6936    1.9172    0.0428 H   0  0  0  0  0  0  0  0  0  0  0  0
  1  2  2  0
  2  3  1  0
  3  4  1  0
  4  5  1  0
  5  6  1  0
  6  7  1  0
  7  8  1  0
  7  9  1  0
  8  1  1  0
  7  3  1  0
  9  5  1  0
  1 10  1  0
  2 11  1  0
  3 12  1  0
  4 13  1  0
  4 14  1  0
  5 15  1  0
  6 16  1  0
  6 17  1  0
  8 18  1  0
  8 19  1  0
  9 20  1  0
  9 21  1  0
M  END
