
     RDKit          3D

 21 23  0  0  0  0  0  0  0  0999 V2000
   -1.9524   -0.7029   -0.8466 C   0  0  0  0  0  0  0  0  0  0  0  0
   -2.0173   -1.1354    0.4049 C   0  0  0  0  0  0  0  0  0  0  0  0
   -1.0158   -0.4960    1.2724 C   0  0  0  0  0  0  0  0  0  0  0  0
   -0.9263    0.9731    1.4052 C   0  0  0  0  0  0  0  0  0  0  0  0
   -0.1757    0.3473    0.2770 C   0  0  0  0  0  0  0  0  0  0  0  0
    1.2968    0.0950    0.3636 C   0  0  0  0  0  0  0  0  0  0  0  0
    2.2622    0.7919   -0.4922 C   0  0  0  0  0  0  0  0  0  0  0  0
    1.9493   -0.6796   -0.7036 C   0  0  0  0  0  0  0  0  0  0  0  0
   -0.8953    0.2993   -1.0259 C   0  0  0  0  0  0  0  0  0  0  0  0
   -2.5911   -1.0246   -1.6879 H   0  0  0  0  0  0  0  0  0  0  0  0
   -2.7293   -1.8744    0.7397 H   0  0  0  0  0  0  0  0  0  0  0  0
   -0.4529   -1.1026    2.0129 H   0  0  0  0  0  0  0  0  0  0  0  0
   -0.3683    1.3689    2.2622 H   0  0  0  0  0  0  0  0  0  0  0  0
   -1.8000    1.6273    1.1297 H   0  0  0  0  0  0  0  0  0  0  0  0
    1.6533   -0.1105    1.4101 H   0  0  0  0  0  0  0  0  0  0  0  0
    3.3013    0.9673   -0.1230 H   0  0  0  0  0  0  0  0  0  0  0  0
    1.9145    1.5292   -1.2389 H   0  0  0  0  0  0  0  0  0  0  0  0
    1.4871   -0.8861   -1.6742 H   0  0  0  0  0  0  0  0  0  0  0  0
    2.7128   -1.4322   -0.4118 H   0  0  0  0  0  0  0  0  0  0  0  0
   -0.2577    0.1501   -1.9038 H   0  0  0  0  0  0  0  0  0  0  0  0
   -1.3952    1.2946   -1.1699 H   0  0  0  0  0  0  0  0  0  0  0  0
  1  2  2  0
  2  3  1  0
  3  4  1  0
  4  5  1  0
  5  6  1  0
  6  7  1  0
  7  8  1  0
  5  9  1  0
  9  1  1  0
  5  3  1  0
  8  6  1  0
  1 10  1  0
  2 11  1  0
  3 12  1  0
  4 13  1  0
  4 14  1  0
  6 15  1  0
  7 16  1  0
  7 17  1  0
  8 18  1  0
  8 19  1  0
  9 20  1  0
  9 21  1  0
M  END
