
     RDKit          3D

 21 22  0  0  0  0  0  0  0  0999 V2000
    0.4770    1.7568    0.1025 C   0  0  0  0  0  0  0  0  0  0  0  0
   -0.8327    1.5761    0.2272 C   0  0  0  0  0  0  0  0  0  0  0  0
   -1.7140    0.3910    0.5369 C   0  0  0  0  0  0  0  0  0  0  0  0
   -1.5644   -0.6022   -0.5889 C   0  0  0  0  0  0  0  0  0  0  0  0
   -0.7138   -1.3135    0.3755 C   0  0  0  0  0  0  0  0  0  0  0  0
    0.7160   -1.4242    0.1060 C   0  0  0  0  0  0  0  0  0  0  0  0
    1.3697   -0.3496   -0.6690 C   0  0  0  0  0  0  0  0  0  0  0  0
    1.6692    0.8756    0.2055 C   0  0  0  0  0  0  0  0  0  0  0  0
   -1.0171   -0.4245    1.4271 O   0  0  0  0  0  0  0  0  0  0  0  0
    0.7715    2.7744   -0.1277 H   0  0  0  0  0  0  0  0  0  0  0  0
   -1.4325    2.4758    0.0756 H   0  0  0  0  0  0  0  0  0  0  0  0
   -2.7275    0.6734    0.8180 H   0  0  0  0  0  0  0  0  0  0  0  0
   -2.5558   -1.0987   -0.8055 H   0  0  0  0  0  0  0  0  0  0  0  0
   -1.1548   -0.2213   -1.5152 H   0  0  0  0  0  0  0  0  0  0  0  0
   -1.1545   -2.3247    0.6240 H   0  0  0  0  0  0  0  0  0  0  0  0
    1.2663   -1.5113    1.0898 H   0  0  0  0  0  0  0  0  0  0  0  0
    0.9375   -2.4028   -0.4051 H   0  0  0  0  0  0  0  0  0  0  0  0
    2.3919   -0.7259   -0.9702 H   0  0  0  0  0  0  0  0  0  0  0  0
    0.8740   -0.0248   -1.5746 H   0  0  0  0  0  0  0  0  0  0  0  0
    1.8234    0.5169    1.2397 H   0  0  0  0  0  0  0  0  0  0  0  0
    2.5706    1.3837   -0.1717 H   0  0  0  0  0  0  0  0  0  0  0  0
  1  2  2  3
  2  3  1  0
  3  4  1  0
  4  5  1  0
  5  6  1  0
  6  7  1  0
  7  8  1  0
  5  9  1  0
  8  1  1  0
  9  3  1  0
  1 10  1  0
  2 11  1  0
  3 12  1  0
  4 13  1  0
  4 14  1  0
  5 15  1  0
  6 16  1  0
  6 17  1  0
  7 18  1  0
  7 19  1  0
  8 20  1  0
  8 21  1  0
M  END
