
     RDKit          3D

 17 19  0  0  0  0  0  0  0  0999 V2000
   -0.9967   -1.3074    0.0075 C   0  0  0  0  0  0  0  0  0  0  0  0
    0.1677   -1.3076   -0.6352 C   0  0  0  0  0  0  0  0  0  0  0  0
    0.9850   -0.0958   -0.5410 C   0  0  0  0  0  0  0  0  0  0  0  0
    1.8968   -0.0730    0.6867 C   0  0  0  0  0  0  0  0  0  0  0  0
    2.3570   -0.1491   -0.6862 O   0  0  0  0  0  0  0  0  0  0  0  0
    0.2103    1.1277   -0.8580 C   0  0  0  0  0  0  0  0  0  0  0  0
   -1.0533    0.9538   -1.5174 O   0  0  0  0  0  0  0  0  0  0  0  0
   -1.0512    1.1723   -0.1106 C   0  0  0  0  0  0  0  0  0  0  0  0
   -1.3146   -0.0415    0.7522 C   0  0  0  0  0  0  0  0  0  0  0  0
   -1.6727   -2.1580   -0.0016 H   0  0  0  0  0  0  0  0  0  0  0  0
    0.4621   -2.1695   -1.1855 H   0  0  0  0  0  0  0  0  0  0  0  0
    2.0394   -0.9984    1.2524 H   0  0  0  0  0  0  0  0  0  0  0  0
    2.0187    0.9118    1.1664 H   0  0  0  0  0  0  0  0  0  0  0  0
    0.7101    2.0819   -1.1105 H   0  0  0  0  0  0  0  0  0  0  0  0
   -1.5912    2.0728    0.1714 H   0  0  0  0  0  0  0  0  0  0  0  0
   -2.4103   -0.0729    0.9239 H   0  0  0  0  0  0  0  0  0  0  0  0
   -0.7570    0.0528    1.6855 H   0  0  0  0  0  0  0  0  0  0  0  0
  1  2  2  0
  2  3  1  0
  3  4  1  0
  4  5  1  0
  3  6  1  0
  6  7  1  0
  7  8  1  0
  8  9  1  0
  9  1  1  0
  5  3  1  0
  8  6  1  0
  1 10  1  0
  2 11  1  0
  4 12  1  0
  4 13  1  0
  6 14  1  0
  8 15  1  0
  9 16  1  0
  9 17  1  0
M  END
