
     RDKit          3D

 17 19  0  0  0  0  0  0  0  0999 V2000
   -1.5711    1.0400   -0.2911 C   0  0  0  0  0  0  0  0  0  0  0  0
   -0.3193    1.3776    0.0205 C   0  0  0  0  0  0  0  0  0  0  0  0
    0.5390    0.3459    0.6574 C   0  0  0  0  0  0  0  0  0  0  0  0
    0.2326   -1.0466    0.1853 C   0  0  0  0  0  0  0  0  0  0  0  0
   -0.9239   -1.1676   -0.5339 O   0  0  0  0  0  0  0  0  0  0  0  0
   -1.9393   -0.3815    0.0603 C   0  0  0  0  0  0  0  0  0  0  0  0
    1.5147   -0.9508   -0.6536 C   0  0  0  0  0  0  0  0  0  0  0  0
    2.6529   -0.8782    0.1179 O   0  0  0  0  0  0  0  0  0  0  0  0
    1.8651    0.2385   -0.0834 C   0  0  0  0  0  0  0  0  0  0  0  0
   -2.2427    1.7265   -0.7489 H   0  0  0  0  0  0  0  0  0  0  0  0
    0.0185    2.3861   -0.2028 H   0  0  0  0  0  0  0  0  0  0  0  0
    0.6293    0.4835    1.7492 H   0  0  0  0  0  0  0  0  0  0  0  0
    0.3679   -1.8535    0.9224 H   0  0  0  0  0  0  0  0  0  0  0  0
   -2.9332   -0.6527   -0.2889 H   0  0  0  0  0  0  0  0  0  0  0  0
   -1.7970   -0.4522    1.1592 H   0  0  0  0  0  0  0  0  0  0  0  0
    1.5160   -1.3495   -1.6647 H   0  0  0  0  0  0  0  0  0  0  0  0
    2.3904    1.1344   -0.4049 H   0  0  0  0  0  0  0  0  0  0  0  0
  1  2  2  0
  2  3  1  0
  3  4  1  0
  4  5  1  0
  5  6  1  0
  4  7  1  0
  7  8  1  0
  8  9  1  0
  6  1  1  0
  9  7  1  0
  9  3  1  0
  1 10  1  0
  2 11  1  0
  3 12  1  0
  4 13  1  0
  6 14  1  0
  6 15  1  0
  7 16  1  0
  9 17  1  0
M  END
