
     RDKit          3D

 12 13  0  0  0  0  0  0  0  0999 V2000
    0.2900    1.1864   -0.3203 C   0  0  0  0  0  0  0  0  0  0  0  0
   -0.9646    0.8107   -0.3577 C   0  0  0  0  0  0  0  0  0  0  0  0
   -1.0884   -0.6075    0.0317 C   0  0  0  0  0  0  0  0  0  0  0  0
   -0.8235   -0.8202    1.3872 O   0  0  0  0  0  0  0  0  0  0  0  0
    0.2416   -1.0188    0.5217 C   0  0  0  0  0  0  0  0  0  0  0  0
    1.1470    0.0716    0.0946 C   0  0  0  0  0  0  0  0  0  0  0  0
    0.6647    2.2223   -0.5710 H   0  0  0  0  0  0  0  0  0  0  0  0
   -1.7943    1.4425   -0.6331 H   0  0  0  0  0  0  0  0  0  0  0  0
   -1.7612   -1.2852   -0.5119 H   0  0  0  0  0  0  0  0  0  0  0  0
    0.5200   -2.0769    0.3160 H   0  0  0  0  0  0  0  0  0  0  0  0
    1.8838    0.3539    0.8793 H   0  0  0  0  0  0  0  0  0  0  0  0
    1.6848   -0.2787   -0.8365 H   0  0  0  0  0  0  0  0  0  0  0  0
  1  2  2  0
  2  3  1  0
  3  4  1  0
  4  5  1  0
  5  6  1  0
  6  1  1  0
  5  3  1  0
  1  7  1  0
  2  8  1  0
  3  9  1  0
  5 10  1  0
  6 11  1  0
  6 12  1  0
M  END
