
     RDKit          3D

 19 20  0  0  0  0  0  0  0  0999 V2000
    2.0046    0.2595    0.2708 C   0  0  0  0  0  0  0  0  0  0  0  0
    1.0587    1.1757    0.1410 C   0  0  0  0  0  0  0  0  0  0  0  0
   -0.2139    0.7360   -0.4125 C   0  0  0  0  0  0  0  0  0  0  0  0
   -1.4586    1.3303    0.1262 C   0  0  0  0  0  0  0  0  0  0  0  0
   -2.4326    0.3774   -0.2481 O   0  0  0  0  0  0  0  0  0  0  0  0
   -1.8278   -0.8774   -0.2084 C   0  0  0  0  0  0  0  0  0  0  0  0
   -0.4004   -0.6970    0.1417 C   0  0  0  0  0  0  0  0  0  0  0  0
    0.5150   -1.4685   -0.4944 O   0  0  0  0  0  0  0  0  0  0  0  0
    1.8038   -1.1689   -0.1245 C   0  0  0  0  0  0  0  0  0  0  0  0
    2.9824    0.5012    0.6743 H   0  0  0  0  0  0  0  0  0  0  0  0
    1.2143    2.1957    0.4276 H   0  0  0  0  0  0  0  0  0  0  0  0
   -0.2165    0.6653   -1.5238 H   0  0  0  0  0  0  0  0  0  0  0  0
   -1.7159    2.3048   -0.2939 H   0  0  0  0  0  0  0  0  0  0  0  0
   -1.4273    1.3005    1.2302 H   0  0  0  0  0  0  0  0  0  0  0  0
   -1.9448   -1.3937   -1.2024 H   0  0  0  0  0  0  0  0  0  0  0  0
   -2.3570   -1.4552    0.5753 H   0  0  0  0  0  0  0  0  0  0  0  0
   -0.2532   -0.6177    1.2462 H   0  0  0  0  0  0  0  0  0  0  0  0
    2.2068   -1.8057    0.6875 H   0  0  0  0  0  0  0  0  0  0  0  0
    2.4623   -1.3621   -1.0130 H   0  0  0  0  0  0  0  0  0  0  0  0
  1  2  2  0
  2  3  1  0
  3  4  1  0
  4  5  1  0
  5  6  1  0
  6  7  1  0
  7  8  1  0
  8  9  1  0
  9  1  1  0
  7  3  1  0
  1 10  1  0
  2 11  1  0
  3 12  1  0
  4 13  1  0
  4 14  1  0
  6 15  1  0
  6 16  1  0
  7 17  1  0
  9 18  1  0
  9 19  1  0
M  END
