
     RDKit          3D

 17 19  0  0  0  0  0  0  0  0999 V2000
    1.1628    1.1544    0.3723 C   0  0  0  0  0  0  0  0  0  0  0  0
    0.6890    1.0641   -0.8662 C   0  0  0  0  0  0  0  0  0  0  0  0
    0.1844   -0.3374   -1.1189 C   0  0  0  0  0  0  0  0  0  0  0  0
    0.8897   -1.0941   -0.1013 C   0  0  0  0  0  0  0  0  0  0  0  0
    0.6903   -0.0988    1.0604 C   0  0  0  0  0  0  0  0  0  0  0  0
   -0.6055    0.0574    1.4168 O   0  0  0  0  0  0  0  0  0  0  0  0
   -1.5057    0.3113    0.3984 C   0  0  0  0  0  0  0  0  0  0  0  0
   -1.2860   -0.6246   -0.7091 C   0  0  0  0  0  0  0  0  0  0  0  0
   -0.8080   -0.4587   -1.9266 O   0  0  0  0  0  0  0  0  0  0  0  0
    1.7539    1.9159    0.8451 H   0  0  0  0  0  0  0  0  0  0  0  0
    0.6798    1.8997   -1.5741 H   0  0  0  0  0  0  0  0  0  0  0  0
    0.4579   -2.0814    0.1630 H   0  0  0  0  0  0  0  0  0  0  0  0
    1.9735   -1.1367   -0.3154 H   0  0  0  0  0  0  0  0  0  0  0  0
    1.2896   -0.3608    1.9219 H   0  0  0  0  0  0  0  0  0  0  0  0
   -2.5290    0.1174    0.8367 H   0  0  0  0  0  0  0  0  0  0  0  0
   -1.4993    1.3584    0.0457 H   0  0  0  0  0  0  0  0  0  0  0  0
   -1.5373   -1.6862   -0.4489 H   0  0  0  0  0  0  0  0  0  0  0  0
  1  2  2  0
  2  3  1  0
  3  4  1  0
  4  5  1  0
  5  6  1  0
  6  7  1  0
  7  8  1  0
  8  9  1  0
  5  1  1  0
  8  3  1  0
  9  3  1  0
  1 10  1  0
  2 11  1  0
  4 12  1  0
  4 13  1  0
  5 14  1  0
  7 15  1  0
  7 16  1  0
  8 17  1  0
M  END
