
     RDKit          3D

 17 20  0  0  0  0  0  0  0  0999 V2000
    1.9022    0.1734    0.6531 C   0  0  0  0  0  0  0  0  0  0  0  0
    1.2752    1.1234   -0.0222 C   0  0  0  0  0  0  0  0  0  0  0  0
    0.0775    0.5370   -0.7018 C   0  0  0  0  0  0  0  0  0  0  0  0
    0.4381   -0.9136   -0.7458 C   0  0  0  0  0  0  0  0  0  0  0  0
    1.2018   -1.1286    0.4989 C   0  0  0  0  0  0  0  0  0  0  0  0
   -0.3108   -1.1360    0.4967 C   0  0  0  0  0  0  0  0  0  0  0  0
   -0.9497    0.1911    0.3387 C   0  0  0  0  0  0  0  0  0  0  0  0
   -2.2414    0.6172    0.4505 C   0  0  0  0  0  0  0  0  0  0  0  0
   -1.1671    1.0120    1.4116 O   0  0  0  0  0  0  0  0  0  0  0  0
    2.7960    0.3430    1.2287 H   0  0  0  0  0  0  0  0  0  0  0  0
    1.5470    2.1627   -0.0982 H   0  0  0  0  0  0  0  0  0  0  0  0
   -0.2546    1.0205   -1.6102 H   0  0  0  0  0  0  0  0  0  0  0  0
    0.4433   -1.5247   -1.6194 H   0  0  0  0  0  0  0  0  0  0  0  0
    1.7525   -2.0579    0.6580 H   0  0  0  0  0  0  0  0  0  0  0  0
   -0.8594   -2.0372    0.7490 H   0  0  0  0  0  0  0  0  0  0  0  0
   -3.0246    0.1084    1.0074 H   0  0  0  0  0  0  0  0  0  0  0  0
   -2.6261    1.5093   -0.1169 H   0  0  0  0  0  0  0  0  0  0  0  0
  1  2  2  0
  2  3  1  0
  3  4  1  0
  4  5  1  0
  5  6  1  0
  6  7  1  0
  7  8  1  0
  8  9  1  0
  5  1  1  0
  9  7  1  0
  7  3  1  0
  6  4  1  0
  1 10  1  0
  2 11  1  0
  3 12  1  0
  4 13  1  0
  5 14  1  0
  6 15  1  0
  8 16  1  0
  8 17  1  0
M  END
