
     RDKit          3D

 21 23  0  0  0  0  0  0  0  0999 V2000
   -1.0652    1.6638    0.2257 C   0  0  0  0  0  0  0  0  0  0  0  0
   -1.8612    0.6528    0.5775 C   0  0  0  0  0  0  0  0  0  0  0  0
   -1.6605   -0.7087    0.0271 C   0  0  0  0  0  0  0  0  0  0  0  0
   -0.8528   -1.6307    0.9438 C   0  0  0  0  0  0  0  0  0  0  0  0
   -0.2844   -1.0696   -0.2938 C   0  0  0  0  0  0  0  0  0  0  0  0
    0.6729    0.0761   -0.3005 C   0  0  0  0  0  0  0  0  0  0  0  0
    0.0198    1.3541   -0.7360 C   0  0  0  0  0  0  0  0  0  0  0  0
    1.8657    0.0785    0.5637 C   0  0  0  0  0  0  0  0  0  0  0  0
    2.0436   -0.1471   -0.9394 C   0  0  0  0  0  0  0  0  0  0  0  0
   -1.1714    2.6719    0.5992 H   0  0  0  0  0  0  0  0  0  0  0  0
   -2.6529    0.8859    1.2813 H   0  0  0  0  0  0  0  0  0  0  0  0
   -2.4899   -1.1706   -0.5676 H   0  0  0  0  0  0  0  0  0  0  0  0
   -0.5846   -1.2591    1.9535 H   0  0  0  0  0  0  0  0  0  0  0  0
   -1.2102   -2.6721    0.9478 H   0  0  0  0  0  0  0  0  0  0  0  0
   -0.1306   -1.8116   -1.1246 H   0  0  0  0  0  0  0  0  0  0  0  0
    0.7524    2.1581   -0.8557 H   0  0  0  0  0  0  0  0  0  0  0  0
   -0.4376    1.1697   -1.7326 H   0  0  0  0  0  0  0  0  0  0  0  0
    2.1069   -0.8140    1.1613 H   0  0  0  0  0  0  0  0  0  0  0  0
    2.1600    1.0289    1.0044 H   0  0  0  0  0  0  0  0  0  0  0  0
    2.5393    0.7095   -1.4326 H   0  0  0  0  0  0  0  0  0  0  0  0
    2.2407   -1.1658   -1.3024 H   0  0  0  0  0  0  0  0  0  0  0  0
  1  2  2  0
  2  3  1  0
  3  4  1  0
  4  5  1  0
  5  6  1  0
  6  7  1  0
  6  8  1  0
  8  9  1  0
  7  1  1  0
  5  3  1  0
  9  6  1  0
  1 10  1  0
  2 11  1  0
  3 12  1  0
  4 13  1  0
  4 14  1  0
  5 15  1  0
  7 16  1  0
  7 17  1  0
  8 18  1  0
  8 19  1  0
  9 20  1  0
  9 21  1  0
M  END
