
     RDKit          3D

 19 21  0  0  0  0  0  0  0  0999 V2000
   -1.5802   -0.9656   -0.7911 C   0  0  0  0  0  0  0  0  0  0  0  0
   -2.0112    0.1907   -0.3130 C   0  0  0  0  0  0  0  0  0  0  0  0
   -1.0440    0.7147    0.7073 C   0  0  0  0  0  0  0  0  0  0  0  0
    0.2102   -0.0046    0.2685 C   0  0  0  0  0  0  0  0  0  0  0  0
   -0.2910   -1.3013   -0.1255 C   0  0  0  0  0  0  0  0  0  0  0  0
    0.9773    0.8678   -0.6893 C   0  0  0  0  0  0  0  0  0  0  0  0
    2.1391    0.0450   -0.2140 C   0  0  0  0  0  0  0  0  0  0  0  0
    2.6584   -0.0972    0.9803 O   0  0  0  0  0  0  0  0  0  0  0  0
    1.3821    0.1950    1.1421 C   0  0  0  0  0  0  0  0  0  0  0  0
   -2.0522   -1.5816   -1.5307 H   0  0  0  0  0  0  0  0  0  0  0  0
   -2.9131    0.7239   -0.5787 H   0  0  0  0  0  0  0  0  0  0  0  0
   -1.3612    0.3029    1.6822 H   0  0  0  0  0  0  0  0  0  0  0  0
   -0.9468    1.8039    0.6803 H   0  0  0  0  0  0  0  0  0  0  0  0
   -0.5916   -1.8549    0.8161 H   0  0  0  0  0  0  0  0  0  0  0  0
    0.3274   -1.9861   -0.7162 H   0  0  0  0  0  0  0  0  0  0  0  0
    0.9763    1.9324   -0.4177 H   0  0  0  0  0  0  0  0  0  0  0  0
    0.7170    0.7244   -1.7299 H   0  0  0  0  0  0  0  0  0  0  0  0
    2.0723   -0.9759   -0.7025 H   0  0  0  0  0  0  0  0  0  0  0  0
    1.3313    1.2667    1.5317 H   0  0  0  0  0  0  0  0  0  0  0  0
  1  2  2  0
  2  3  1  0
  3  4  1  0
  4  5  1  0
  4  6  1  0
  6  7  1  0
  7  8  1  0
  8  9  1  0
  5  1  1  0
  9  7  1  0
  9  4  1  0
  1 10  1  0
  2 11  1  0
  3 12  1  0
  3 13  1  0
  5 14  1  0
  5 15  1  0
  6 16  1  0
  6 17  1  0
  7 18  1  0
  9 19  1  0
M  END
