
     RDKit          3D

 21 22  0  0  0  0  0  0  0  0999 V2000
   -1.9574    0.8286    0.7169 C   0  0  0  0  0  0  0  0  0  0  0  0
   -0.6759    1.1369    0.7490 C   0  0  0  0  0  0  0  0  0  0  0  0
    0.1103    0.1659   -0.0992 C   0  0  0  0  0  0  0  0  0  0  0  0
    0.5670   -1.0263    0.6717 C   0  0  0  0  0  0  0  0  0  0  0  0
    2.0443   -0.8774    0.6688 C   0  0  0  0  0  0  0  0  0  0  0  0
    2.4349    0.1225   -0.0983 C   0  0  0  0  0  0  0  0  0  0  0  0
    1.2908    0.8118   -0.7379 C   0  0  0  0  0  0  0  0  0  0  0  0
   -0.9626   -0.2492   -1.0968 C   0  0  0  0  0  0  0  0  0  0  0  0
   -2.1278   -0.3594   -0.1440 C   0  0  0  0  0  0  0  0  0  0  0  0
   -2.8001    1.3226    1.2161 H   0  0  0  0  0  0  0  0  0  0  0  0
   -0.2524    1.9641    1.3023 H   0  0  0  0  0  0  0  0  0  0  0  0
    0.3219   -1.9973    0.1895 H   0  0  0  0  0  0  0  0  0  0  0  0
    0.1329   -0.9831    1.6874 H   0  0  0  0  0  0  0  0  0  0  0  0
    2.7046   -1.5250    1.2373 H   0  0  0  0  0  0  0  0  0  0  0  0
    3.4722    0.4031   -0.2408 H   0  0  0  0  0  0  0  0  0  0  0  0
    1.3007    1.8910   -0.4903 H   0  0  0  0  0  0  0  0  0  0  0  0
    1.3373    0.6185   -1.8188 H   0  0  0  0  0  0  0  0  0  0  0  0
   -1.1323    0.5929   -1.7864 H   0  0  0  0  0  0  0  0  0  0  0  0
   -0.7235   -1.2025   -1.5983 H   0  0  0  0  0  0  0  0  0  0  0  0
   -2.0351   -1.3134    0.4254 H   0  0  0  0  0  0  0  0  0  0  0  0
   -3.0499   -0.3244   -0.7536 H   0  0  0  0  0  0  0  0  0  0  0  0
  1  2  2  0
  2  3  1  0
  3  4  1  0
  4  5  1  0
  5  6  2  0
  6  7  1  0
  3  8  1  0
  8  9  1  0
  9  1  1  0
  7  3  1  0
  1 10  1  0
  2 11  1  0
  4 12  1  0
  4 13  1  0
  5 14  1  0
  6 15  1  0
  7 16  1  0
  7 17  1  0
  8 18  1  0
  8 19  1  0
  9 20  1  0
  9 21  1  0
M  END
