
     RDKit          3D

 19 21  0  0  0  0  0  0  0  0999 V2000
    1.9451    0.7121   -0.3754 C   0  0  0  0  0  0  0  0  0  0  0  0
    1.0381    1.4852    0.2550 C   0  0  0  0  0  0  0  0  0  0  0  0
   -0.1214    0.7401    0.4264 C   0  0  0  0  0  0  0  0  0  0  0  0
   -1.2065    0.7100   -0.6252 C   0  0  0  0  0  0  0  0  0  0  0  0
   -1.7836   -0.1104    0.4959 C   0  0  0  0  0  0  0  0  0  0  0  0
   -0.9191   -1.3731    0.3673 C   0  0  0  0  0  0  0  0  0  0  0  0
    0.4038   -0.7116    0.5213 C   0  0  0  0  0  0  0  0  0  0  0  0
    1.3238   -0.6506   -0.6357 C   0  0  0  0  0  0  0  0  0  0  0  0
   -1.0584    0.7528    1.3574 O   0  0  0  0  0  0  0  0  0  0  0  0
    2.9452    1.0448   -0.6370 H   0  0  0  0  0  0  0  0  0  0  0  0
    1.2549    2.5245    0.5524 H   0  0  0  0  0  0  0  0  0  0  0  0
   -1.6806    1.6886   -0.6913 H   0  0  0  0  0  0  0  0  0  0  0  0
   -0.9831    0.1871   -1.5527 H   0  0  0  0  0  0  0  0  0  0  0  0
   -2.8209   -0.2101    0.6276 H   0  0  0  0  0  0  0  0  0  0  0  0
   -1.0929   -1.8804   -0.5735 H   0  0  0  0  0  0  0  0  0  0  0  0
   -1.1807   -1.9833    1.2735 H   0  0  0  0  0  0  0  0  0  0  0  0
    0.9196   -0.8897    1.4518 H   0  0  0  0  0  0  0  0  0  0  0  0
    2.1490   -1.3722   -0.6187 H   0  0  0  0  0  0  0  0  0  0  0  0
    0.8680   -0.6637   -1.6191 H   0  0  0  0  0  0  0  0  0  0  0  0
  1  2  2  0
  2  3  1  0
  3  4  1  0
  4  5  1  0
  5  6  1  0
  6  7  1  0
  7  8  1  0
  5  9  1  0
  8  1  1  0
  7  3  1  0
  9  3  1  0
  1 10  1  0
  2 11  1  0
  4 12  1  0
  4 13  1  0
  5 14  1  0
  6 15  1  0
  6 16  1  0
  7 17  1  0
  8 18  1  0
  8 19  1  0
M  END
