
     RDKit          3D

 17 19  0  0  0  0  0  0  0  0999 V2000
    0.3848    1.5832    0.1854 C   0  0  0  0  0  0  0  0  0  0  0  0
    1.4887    0.8685    0.1816 C   0  0  0  0  0  0  0  0  0  0  0  0
    1.4017   -0.5638   -0.1526 C   0  0  0  0  0  0  0  0  0  0  0  0
    0.7850   -1.2400    0.9265 O   0  0  0  0  0  0  0  0  0  0  0  0
   -0.4643   -1.2526    0.3600 C   0  0  0  0  0  0  0  0  0  0  0  0
   -1.3709   -0.1020    0.6238 C   0  0  0  0  0  0  0  0  0  0  0  0
   -0.8957    0.9627   -0.3254 C   0  0  0  0  0  0  0  0  0  0  0  0
   -0.5042    0.2106   -1.4435 O   0  0  0  0  0  0  0  0  0  0  0  0
    0.1663   -0.8845   -0.9639 C   0  0  0  0  0  0  0  0  0  0  0  0
    0.3639    2.6156    0.5475 H   0  0  0  0  0  0  0  0  0  0  0  0
    2.4255    1.3181    0.4157 H   0  0  0  0  0  0  0  0  0  0  0  0
    2.3209   -1.0402   -0.5151 H   0  0  0  0  0  0  0  0  0  0  0  0
   -0.9085   -2.2650    0.4010 H   0  0  0  0  0  0  0  0  0  0  0  0
   -2.3974   -0.3989    0.2757 H   0  0  0  0  0  0  0  0  0  0  0  0
   -1.3836    0.2408    1.6761 H   0  0  0  0  0  0  0  0  0  0  0  0
   -1.6413    1.7079   -0.5882 H   0  0  0  0  0  0  0  0  0  0  0  0
    0.2291   -1.7605   -1.6049 H   0  0  0  0  0  0  0  0  0  0  0  0
  1  2  2  0
  2  3  1  0
  3  4  1  0
  4  5  1  0
  5  6  1  0
  6  7  1  0
  7  8  1  0
  8  9  1  0
  7  1  1  0
  9  3  1  0
  9  5  1  0
  1 10  1  0
  2 11  1  0
  3 12  1  0
  5 13  1  0
  6 14  1  0
  6 15  1  0
  7 16  1  0
  9 17  1  0
M  END
