
     RDKit          3D

 19 20  0  0  0  0  0  0  0  0999 V2000
   -2.0109   -0.6996   -0.3394 C   0  0  0  0  0  0  0  0  0  0  0  0
   -0.8444   -1.2872   -0.5450 C   0  0  0  0  0  0  0  0  0  0  0  0
    0.2108   -0.3755   -0.0989 C   0  0  0  0  0  0  0  0  0  0  0  0
   -0.4213    0.7454    0.6440 C   0  0  0  0  0  0  0  0  0  0  0  0
   -1.8767    0.6353    0.2512 C   0  0  0  0  0  0  0  0  0  0  0  0
    1.1253    0.0849   -1.2169 C   0  0  0  0  0  0  0  0  0  0  0  0
    2.2387    0.5047   -0.5137 O   0  0  0  0  0  0  0  0  0  0  0  0
    2.1431    0.0155    0.7738 C   0  0  0  0  0  0  0  0  0  0  0  0
    1.1478   -0.9848    0.7497 O   0  0  0  0  0  0  0  0  0  0  0  0
   -2.9635   -1.1622   -0.5843 H   0  0  0  0  0  0  0  0  0  0  0  0
   -0.6420   -2.2684   -0.9657 H   0  0  0  0  0  0  0  0  0  0  0  0
   -0.0218    1.7389    0.3990 H   0  0  0  0  0  0  0  0  0  0  0  0
   -0.3253    0.5909    1.7575 H   0  0  0  0  0  0  0  0  0  0  0  0
   -2.1657    1.4455   -0.4666 H   0  0  0  0  0  0  0  0  0  0  0  0
   -2.5049    0.6656    1.1752 H   0  0  0  0  0  0  0  0  0  0  0  0
    1.4328   -0.8515   -1.7607 H   0  0  0  0  0  0  0  0  0  0  0  0
    0.6813    0.8300   -1.8709 H   0  0  0  0  0  0  0  0  0  0  0  0
    3.0697   -0.4293    1.1447 H   0  0  0  0  0  0  0  0  0  0  0  0
    1.7269    0.8018    1.4669 H   0  0  0  0  0  0  0  0  0  0  0  0
  1  2  2  0
  2  3  1  0
  3  4  1  0
  4  5  1  0
  3  6  1  0
  6  7  1  0
  7  8  1  0
  8  9  1  0
  5  1  1  0
  9  3  1  0
  1 10  1  0
  2 11  1  0
  4 12  1  0
  4 13  1  0
  5 14  1  0
  5 15  1  0
  6 16  1  0
  6 17  1  0
  8 18  1  0
  8 19  1  0
M  END
