
     RDKit          3D

 19 21  0  0  0  0  0  0  0  0999 V2000
    1.9015    0.6145   -0.6874 C   0  0  0  0  0  0  0  0  0  0  0  0
    1.9960    0.3986    0.6094 C   0  0  0  0  0  0  0  0  0  0  0  0
    0.9784   -0.5990    1.0083 C   0  0  0  0  0  0  0  0  0  0  0  0
   -0.0647    0.0334    1.6791 O   0  0  0  0  0  0  0  0  0  0  0  0
   -0.8393   -0.1060    0.5700 C   0  0  0  0  0  0  0  0  0  0  0  0
   -2.2777   -0.2773    0.5435 C   0  0  0  0  0  0  0  0  0  0  0  0
   -1.5979    0.9321   -0.0921 C   0  0  0  0  0  0  0  0  0  0  0  0
    0.1457   -0.9011   -0.1815 C   0  0  0  0  0  0  0  0  0  0  0  0
    0.8279   -0.1974   -1.3064 C   0  0  0  0  0  0  0  0  0  0  0  0
    2.5368    1.3050   -1.2289 H   0  0  0  0  0  0  0  0  0  0  0  0
    2.6855    0.8494    1.3122 H   0  0  0  0  0  0  0  0  0  0  0  0
    1.3957   -1.4891    1.5093 H   0  0  0  0  0  0  0  0  0  0  0  0
   -2.7055   -1.0548   -0.0928 H   0  0  0  0  0  0  0  0  0  0  0  0
   -2.8970    0.0005    1.4155 H   0  0  0  0  0  0  0  0  0  0  0  0
   -1.7262    0.9535   -1.1975 H   0  0  0  0  0  0  0  0  0  0  0  0
   -1.6910    1.9109    0.3754 H   0  0  0  0  0  0  0  0  0  0  0  0
   -0.1260   -1.9575   -0.3558 H   0  0  0  0  0  0  0  0  0  0  0  0
    1.3011   -0.9055   -2.0141 H   0  0  0  0  0  0  0  0  0  0  0  0
    0.1567    0.4899   -1.8664 H   0  0  0  0  0  0  0  0  0  0  0  0
  1  2  2  0
  2  3  1  0
  3  4  1  0
  4  5  1  0
  5  6  1  0
  6  7  1  0
  5  8  1  0
  8  9  1  0
  9  1  1  0
  8  3  1  0
  7  5  1  0
  1 10  1  0
  2 11  1  0
  3 12  1  0
  6 13  1  0
  6 14  1  0
  7 15  1  0
  7 16  1  0
  8 17  1  0
  9 18  1  0
  9 19  1  0
M  END
