
     RDKit          3D

 21 23  0  0  0  0  0  0  0  0999 V2000
    0.5075    1.6727    0.0974 C   0  0  0  0  0  0  0  0  0  0  0  0
   -0.6998    1.4049    0.6358 C   0  0  0  0  0  0  0  0  0  0  0  0
   -1.5088    0.2121    0.7554 C   0  0  0  0  0  0  0  0  0  0  0  0
   -2.1202   -0.2499   -0.5900 C   0  0  0  0  0  0  0  0  0  0  0  0
   -1.1580   -1.0508    0.2097 C   0  0  0  0  0  0  0  0  0  0  0  0
    0.2059   -1.3688   -0.2766 C   0  0  0  0  0  0  0  0  0  0  0  0
    1.2489   -0.5557    0.3587 C   0  0  0  0  0  0  0  0  0  0  0  0
    2.4821   -0.0343   -0.1210 C   0  0  0  0  0  0  0  0  0  0  0  0
    1.3500    0.7009   -0.5551 C   0  0  0  0  0  0  0  0  0  0  0  0
    0.8120    2.7082    0.1928 H   0  0  0  0  0  0  0  0  0  0  0  0
   -1.1694    2.3059    1.0786 H   0  0  0  0  0  0  0  0  0  0  0  0
   -2.2781    0.2449    1.5905 H   0  0  0  0  0  0  0  0  0  0  0  0
   -1.8145    0.2764   -1.5087 H   0  0  0  0  0  0  0  0  0  0  0  0
   -3.1974   -0.5115   -0.5895 H   0  0  0  0  0  0  0  0  0  0  0  0
   -1.6488   -1.9556    0.6928 H   0  0  0  0  0  0  0  0  0  0  0  0
    0.4891   -2.4527   -0.1358 H   0  0  0  0  0  0  0  0  0  0  0  0
    0.1746   -1.2711   -1.4044 H   0  0  0  0  0  0  0  0  0  0  0  0
    1.0088   -0.3651    1.4490 H   0  0  0  0  0  0  0  0  0  0  0  0
    3.2163    0.3661    0.6363 H   0  0  0  0  0  0  0  0  0  0  0  0
    3.0538   -0.6378   -0.8770 H   0  0  0  0  0  0  0  0  0  0  0  0
    1.0459    0.5610   -1.6388 H   0  0  0  0  0  0  0  0  0  0  0  0
  1  2  2  0
  2  3  1  0
  3  4  1  0
  4  5  1  0
  5  6  1  0
  6  7  1  0
  7  8  1  0
  8  9  1  0
  9  1  1  0
  5  3  1  0
  9  7  1  0
  1 10  1  0
  2 11  1  0
  3 12  1  0
  4 13  1  0
  4 14  1  0
  5 15  1  0
  6 16  1  0
  6 17  1  0
  7 18  1  0
  8 19  1  0
  8 20  1  0
  9 21  1  0
M  END
