
     RDKit          3D

 19 20  0  0  0  0  0  0  0  0999 V2000
    2.2099    0.6803    0.3838 C   0  0  0  0  0  0  0  0  0  0  0  0
    1.1082    1.3431    0.6978 C   0  0  0  0  0  0  0  0  0  0  0  0
   -0.1474    0.6949    0.3530 C   0  0  0  0  0  0  0  0  0  0  0  0
   -1.3338    1.1615   -0.0199 C   0  0  0  0  0  0  0  0  0  0  0  0
   -2.2632    0.0028   -0.2459 C   0  0  0  0  0  0  0  0  0  0  0  0
   -1.2641   -1.0870   -0.5836 C   0  0  0  0  0  0  0  0  0  0  0  0
   -0.1702   -0.7829    0.4235 C   0  0  0  0  0  0  0  0  0  0  0  0
    1.0123   -1.3797    0.1558 O   0  0  0  0  0  0  0  0  0  0  0  0
    2.0539   -0.6191   -0.2701 C   0  0  0  0  0  0  0  0  0  0  0  0
    3.1854    1.1192    0.6198 H   0  0  0  0  0  0  0  0  0  0  0  0
    1.1198    2.3299    1.1890 H   0  0  0  0  0  0  0  0  0  0  0  0
   -1.5420    2.2107   -0.1252 H   0  0  0  0  0  0  0  0  0  0  0  0
   -2.9581    0.2062   -1.0797 H   0  0  0  0  0  0  0  0  0  0  0  0
   -2.7446   -0.1967    0.7157 H   0  0  0  0  0  0  0  0  0  0  0  0
   -1.7341   -2.0552   -0.4183 H   0  0  0  0  0  0  0  0  0  0  0  0
   -0.8883   -0.9196   -1.6046 H   0  0  0  0  0  0  0  0  0  0  0  0
   -0.5797   -1.1246    1.4038 H   0  0  0  0  0  0  0  0  0  0  0  0
    1.9028   -0.4293   -1.3738 H   0  0  0  0  0  0  0  0  0  0  0  0
    3.0331   -1.1544   -0.2208 H   0  0  0  0  0  0  0  0  0  0  0  0
  1  2  2  0
  2  3  1  0
  3  4  2  0
  4  5  1  0
  5  6  1  0
  6  7  1  0
  7  8  1  0
  8  9  1  0
  9  1  1  0
  7  3  1  0
  1 10  1  0
  2 11  1  0
  4 12  1  0
  5 13  1  0
  5 14  1  0
  6 15  1  0
  6 16  1  0
  7 17  1  0
  9 18  1  0
  9 19  1  0
M  END
