
     RDKit          3D

 19 21  0  0  0  0  0  0  0  0999 V2000
   -1.8291    0.9820    0.5248 C   0  0  0  0  0  0  0  0  0  0  0  0
   -1.9934   -0.2099   -0.0206 C   0  0  0  0  0  0  0  0  0  0  0  0
   -0.8119   -0.6151   -0.8211 C   0  0  0  0  0  0  0  0  0  0  0  0
    0.1202   -1.4940    0.0265 C   0  0  0  0  0  0  0  0  0  0  0  0
    1.1201   -0.4154   -0.0292 C   0  0  0  0  0  0  0  0  0  0  0  0
    2.2658   -0.1621    0.6578 C   0  0  0  0  0  0  0  0  0  0  0  0
    2.3491   -0.7420   -0.7115 O   0  0  0  0  0  0  0  0  0  0  0  0
    0.1840    0.5252   -0.6971 C   0  0  0  0  0  0  0  0  0  0  0  0
   -0.5028    1.5383    0.1581 C   0  0  0  0  0  0  0  0  0  0  0  0
   -2.5362    1.4912    1.1442 H   0  0  0  0  0  0  0  0  0  0  0  0
   -2.8743   -0.8298    0.0912 H   0  0  0  0  0  0  0  0  0  0  0  0
   -0.9929   -0.9735   -1.8304 H   0  0  0  0  0  0  0  0  0  0  0  0
   -0.3065   -1.7704    0.9973 H   0  0  0  0  0  0  0  0  0  0  0  0
    0.3400   -2.4193   -0.5513 H   0  0  0  0  0  0  0  0  0  0  0  0
    2.7429    0.8423    0.6604 H   0  0  0  0  0  0  0  0  0  0  0  0
    2.7024   -0.8300    1.4265 H   0  0  0  0  0  0  0  0  0  0  0  0
    0.5966    0.8782   -1.6610 H   0  0  0  0  0  0  0  0  0  0  0  0
    0.0841    1.7355    1.0699 H   0  0  0  0  0  0  0  0  0  0  0  0
   -0.6580    2.4689   -0.4345 H   0  0  0  0  0  0  0  0  0  0  0  0
  1  2  2  0
  2  3  1  0
  3  4  1  0
  4  5  1  0
  5  6  1  0
  6  7  1  0
  5  8  1  0
  8  9  1  0
  9  1  1  0
  8  3  1  0
  7  5  1  0
  1 10  1  0
  2 11  1  0
  3 12  1  0
  4 13  1  0
  4 14  1  0
  6 15  1  0
  6 16  1  0
  8 17  1  0
  9 18  1  0
  9 19  1  0
M  END
