
     RDKit          3D

 21 23  0  0  0  0  0  0  0  0999 V2000
    1.3310   -1.2160    0.6676 C   0  0  0  0  0  0  0  0  0  0  0  0
    0.1299   -0.8086    0.4155 C   0  0  0  0  0  0  0  0  0  0  0  0
   -1.3168   -0.9668    0.2711 C   0  0  0  0  0  0  0  0  0  0  0  0
   -1.3953   -0.4337   -1.2056 C   0  0  0  0  0  0  0  0  0  0  0  0
   -1.0401    0.8707   -0.5409 C   0  0  0  0  0  0  0  0  0  0  0  0
   -1.9976    0.3136    0.5728 C   0  0  0  0  0  0  0  0  0  0  0  0
    0.2268    0.7056    0.1273 C   0  0  0  0  0  0  0  0  0  0  0  0
    1.5510    0.8372   -0.4817 C   0  0  0  0  0  0  0  0  0  0  0  0
    2.3326   -0.1065    0.5109 C   0  0  0  0  0  0  0  0  0  0  0  0
    1.6205   -2.2182    0.9572 H   0  0  0  0  0  0  0  0  0  0  0  0
   -1.7816   -1.9089    0.4211 H   0  0  0  0  0  0  0  0  0  0  0  0
   -2.4330   -0.5606   -1.5261 H   0  0  0  0  0  0  0  0  0  0  0  0
   -0.6014   -0.8705   -1.8058 H   0  0  0  0  0  0  0  0  0  0  0  0
   -1.3781    1.7841   -0.9880 H   0  0  0  0  0  0  0  0  0  0  0  0
   -3.0350    0.3513    0.2353 H   0  0  0  0  0  0  0  0  0  0  0  0
   -1.7976    0.7629    1.5493 H   0  0  0  0  0  0  0  0  0  0  0  0
    0.1929    1.2298    1.1199 H   0  0  0  0  0  0  0  0  0  0  0  0
    2.0028    1.8299   -0.2956 H   0  0  0  0  0  0  0  0  0  0  0  0
    1.6777    0.4536   -1.4894 H   0  0  0  0  0  0  0  0  0  0  0  0
    2.4733    0.3821    1.4724 H   0  0  0  0  0  0  0  0  0  0  0  0
    3.2378   -0.4311    0.0127 H   0  0  0  0  0  0  0  0  0  0  0  0
  1  2  2  0
  2  3  1  0
  3  4  1  0
  4  5  1  0
  5  6  1  0
  5  7  1  0
  7  8  1  0
  8  9  1  0
  9  1  1  0
  7  2  1  0
  6  3  1  0
  1 10  1  0
  3 11  1  0
  4 12  1  0
  4 13  1  0
  5 14  1  0
  6 15  1  0
  6 16  1  0
  7 17  1  0
  8 18  1  0
  8 19  1  0
  9 20  1  0
  9 21  1  0
M  END
