
     RDKit          3D

 18 19  0  0  0  0  0  0  0  0999 V2000
   -1.4323    1.0424    0.8050 C   0  0  0  0  0  0  0  0  0  0  0  0
   -0.1833    0.6913    0.9472 C   0  0  0  0  0  0  0  0  0  0  0  0
    0.1206   -0.5270    0.1970 C   0  0  0  0  0  0  0  0  0  0  0  0
    1.3594   -0.2702   -0.6378 C   0  0  0  0  0  0  0  0  0  0  0  0
    2.5886    0.0921    0.1231 C   0  0  0  0  0  0  0  0  0  0  0  0
    1.9017    1.0105   -0.6671 O   0  0  0  0  0  0  0  0  0  0  0  0
   -1.0345   -0.7279   -0.7622 C   0  0  0  0  0  0  0  0  0  0  0  0
   -2.1122    0.0727   -0.0761 C   0  0  0  0  0  0  0  0  0  0  0  0
   -1.8771    1.9378    1.2868 H   0  0  0  0  0  0  0  0  0  0  0  0
    0.5463    1.2272    1.5436 H   0  0  0  0  0  0  0  0  0  0  0  0
    0.2122   -1.4387    0.8024 H   0  0  0  0  0  0  0  0  0  0  0  0
    1.4070   -0.8681   -1.5540 H   0  0  0  0  0  0  0  0  0  0  0  0
    3.5316   -0.3496   -0.2512 H   0  0  0  0  0  0  0  0  0  0  0  0
    2.5385    0.2748    1.1969 H   0  0  0  0  0  0  0  0  0  0  0  0
   -0.8125   -0.3316   -1.7799 H   0  0  0  0  0  0  0  0  0  0  0  0
   -1.3045   -1.8092   -0.8676 H   0  0  0  0  0  0  0  0  0  0  0  0
   -2.7422   -0.5879    0.5679 H   0  0  0  0  0  0  0  0  0  0  0  0
   -2.7074    0.5613   -0.8740 H   0  0  0  0  0  0  0  0  0  0  0  0
  1  2  2  0
  2  3  1  0
  3  4  1  0
  4  5  1  0
  5  6  1  0
  3  7  1  0
  7  8  1  0
  8  1  1  0
  6  4  1  0
  1  9  1  0
  2 10  1  0
  3 11  1  0
  4 12  1  0
  5 13  1  0
  5 14  1  0
  7 15  1  0
  7 16  1  0
  8 17  1  0
  8 18  1  0
M  END
