
     RDKit          3D

 20 21  0  0  0  0  0  0  0  0999 V2000
    2.2318    0.8882    0.7814 C   0  0  0  0  0  0  0  0  0  0  0  0
    2.3624   -0.3878    0.4395 C   0  0  0  0  0  0  0  0  0  0  0  0
    1.1325   -0.8410   -0.2732 C   0  0  0  0  0  0  0  0  0  0  0  0
    0.0885    0.0995    0.3464 C   0  0  0  0  0  0  0  0  0  0  0  0
   -1.1439    0.1962   -0.4920 C   0  0  0  0  0  0  0  0  0  0  0  0
   -1.8818   -1.0709   -0.7293 C   0  0  0  0  0  0  0  0  0  0  0  0
   -2.4948    0.0672    0.0636 C   0  0  0  0  0  0  0  0  0  0  0  0
    0.9089    1.3922    0.3275 C   0  0  0  0  0  0  0  0  0  0  0  0
    2.9663    1.4807    1.3084 H   0  0  0  0  0  0  0  0  0  0  0  0
    3.2119   -1.0339    0.6292 H   0  0  0  0  0  0  0  0  0  0  0  0
    1.1626   -0.5484   -1.3511 H   0  0  0  0  0  0  0  0  0  0  0  0
    0.8897   -1.8878   -0.1086 H   0  0  0  0  0  0  0  0  0  0  0  0
   -0.0782   -0.2650    1.3712 H   0  0  0  0  0  0  0  0  0  0  0  0
   -1.0398    0.8547   -1.3819 H   0  0  0  0  0  0  0  0  0  0  0  0
   -2.3138   -1.3112   -1.7189 H   0  0  0  0  0  0  0  0  0  0  0  0
   -1.5776   -1.9881   -0.1648 H   0  0  0  0  0  0  0  0  0  0  0  0
   -2.5791   -0.0987    1.1616 H   0  0  0  0  0  0  0  0  0  0  0  0
   -3.3310    0.6152   -0.4389 H   0  0  0  0  0  0  0  0  0  0  0  0
    1.0013    1.6800   -0.7414 H   0  0  0  0  0  0  0  0  0  0  0  0
    0.4843    2.1587    0.9714 H   0  0  0  0  0  0  0  0  0  0  0  0
  1  2  2  0
  2  3  1  0
  3  4  1  0
  4  5  1  0
  5  6  1  0
  6  7  1  0
  4  8  1  0
  8  1  1  0
  7  5  1  0
  1  9  1  0
  2 10  1  0
  3 11  1  0
  3 12  1  0
  4 13  1  0
  5 14  1  0
  6 15  1  0
  6 16  1  0
  7 17  1  0
  7 18  1  0
  8 19  1  0
  8 20  1  0
M  END
