
     RDKit          3D

 17 19  0  0  0  0  0  0  0  0999 V2000
    0.5617   -1.2214    0.7348 C   0  0  0  0  0  0  0  0  0  0  0  0
    1.6010   -0.5774    0.2252 C   0  0  0  0  0  0  0  0  0  0  0  0
    1.4928    0.7609   -0.4134 C   0  0  0  0  0  0  0  0  0  0  0  0
    1.2778    1.8784    0.4088 O   0  0  0  0  0  0  0  0  0  0  0  0
    0.2018    1.3278   -0.4583 C   0  0  0  0  0  0  0  0  0  0  0  0
   -0.8851    0.7774    0.3747 C   0  0  0  0  0  0  0  0  0  0  0  0
   -2.0098    0.4778   -0.4314 O   0  0  0  0  0  0  0  0  0  0  0  0
   -1.4131   -0.7720   -0.6559 C   0  0  0  0  0  0  0  0  0  0  0  0
   -0.8132   -0.6592    0.7129 C   0  0  0  0  0  0  0  0  0  0  0  0
    0.6654   -2.1982    1.1963 H   0  0  0  0  0  0  0  0  0  0  0  0
    2.5704   -1.0547    0.2804 H   0  0  0  0  0  0  0  0  0  0  0  0
    2.1958    0.9955   -1.2563 H   0  0  0  0  0  0  0  0  0  0  0  0
   -0.0776    2.0421   -1.2750 H   0  0  0  0  0  0  0  0  0  0  0  0
   -1.1474    1.4757    1.2022 H   0  0  0  0  0  0  0  0  0  0  0  0
   -2.1339   -1.6070   -0.7585 H   0  0  0  0  0  0  0  0  0  0  0  0
   -0.6486   -0.6947   -1.4465 H   0  0  0  0  0  0  0  0  0  0  0  0
   -1.4380   -0.9509    1.5600 H   0  0  0  0  0  0  0  0  0  0  0  0
  1  2  2  0
  2  3  1  0
  3  4  1  0
  4  5  1  0
  5  6  1  0
  6  7  1  0
  7  8  1  0
  8  9  1  0
  9  1  1  0
  5  3  1  0
  9  6  1  0
  1 10  1  0
  2 11  1  0
  3 12  1  0
  5 13  1  0
  6 14  1  0
  8 15  1  0
  8 16  1  0
  9 17  1  0
M  END
