
     RDKit          3D

 19 21  0  0  0  0  0  0  0  0999 V2000
    1.4262    1.4140   -0.3232 C   0  0  0  0  0  0  0  0  0  0  0  0
    2.1570    0.3138   -0.0039 C   0  0  0  0  0  0  0  0  0  0  0  0
    1.2066   -0.8252    0.2303 C   0  0  0  0  0  0  0  0  0  0  0  0
    0.0426   -0.6039    1.1787 C   0  0  0  0  0  0  0  0  0  0  0  0
   -0.8753   -1.0414    0.0162 C   0  0  0  0  0  0  0  0  0  0  0  0
   -1.9957   -0.0427   -0.3288 C   0  0  0  0  0  0  0  0  0  0  0  0
   -1.2154    1.2257   -0.1108 C   0  0  0  0  0  0  0  0  0  0  0  0
    0.0423    1.0084   -0.2900 C   0  0  0  0  0  0  0  0  0  0  0  0
    0.1770   -0.4280   -0.8308 C   0  0  0  0  0  0  0  0  0  0  0  0
    1.8236    2.3854   -0.5415 H   0  0  0  0  0  0  0  0  0  0  0  0
    3.2158    0.2117    0.0818 H   0  0  0  0  0  0  0  0  0  0  0  0
    1.6175   -1.8187    0.1548 H   0  0  0  0  0  0  0  0  0  0  0  0
   -0.1090    0.3980    1.5340 H   0  0  0  0  0  0  0  0  0  0  0  0
   -0.0508   -1.3845    1.9699 H   0  0  0  0  0  0  0  0  0  0  0  0
   -1.1101   -2.0832   -0.0295 H   0  0  0  0  0  0  0  0  0  0  0  0
   -2.2140   -0.1482   -1.3900 H   0  0  0  0  0  0  0  0  0  0  0  0
   -2.8166   -0.1819    0.3630 H   0  0  0  0  0  0  0  0  0  0  0  0
   -1.6578    2.1777    0.1548 H   0  0  0  0  0  0  0  0  0  0  0  0
    0.3360   -0.5769   -1.8349 H   0  0  0  0  0  0  0  0  0  0  0  0
  1  2  2  0
  2  3  1  0
  3  4  1  0
  4  5  1  0
  5  6  1  0
  6  7  1  0
  7  8  2  0
  8  9  1  0
  8  1  1  0
  9  3  1  0
  9  5  1  0
  1 10  1  0
  2 11  1  0
  3 12  1  0
  4 13  1  0
  4 14  1  0
  5 15  1  0
  6 16  1  0
  6 17  1  0
  7 18  1  0
  9 19  1  0
M  END
