
     RDKit          3D

 17 19  0  0  0  0  0  0  0  0999 V2000
   -0.8576    1.4174   -0.1518 C   0  0  0  0  0  0  0  0  0  0  0  0
    0.3351    0.9404   -0.0975 C   0  0  0  0  0  0  0  0  0  0  0  0
    1.7739    0.8821   -0.1727 C   0  0  0  0  0  0  0  0  0  0  0  0
    1.7402   -0.3014   -1.0628 O   0  0  0  0  0  0  0  0  0  0  0  0
    0.9133   -1.2153   -0.4936 C   0  0  0  0  0  0  0  0  0  0  0  0
   -0.5058   -1.3359   -0.2467 C   0  0  0  0  0  0  0  0  0  0  0  0
   -1.5404   -0.6186   -0.8166 O   0  0  0  0  0  0  0  0  0  0  0  0
   -1.9692    0.4008    0.1592 C   0  0  0  0  0  0  0  0  0  0  0  0
    0.2134   -0.4749    0.6614 C   0  0  0  0  0  0  0  0  0  0  0  0
   -1.0631    2.4151   -0.3890 H   0  0  0  0  0  0  0  0  0  0  0  0
    2.2679    1.6737   -0.7276 H   0  0  0  0  0  0  0  0  0  0  0  0
    2.2254    0.5975    0.7675 H   0  0  0  0  0  0  0  0  0  0  0  0
    1.4834   -2.1676   -0.1429 H   0  0  0  0  0  0  0  0  0  0  0  0
   -0.8858   -2.3109    0.1755 H   0  0  0  0  0  0  0  0  0  0  0  0
   -1.8865   -0.0544    1.1102 H   0  0  0  0  0  0  0  0  0  0  0  0
   -2.9320    0.7183   -0.1564 H   0  0  0  0  0  0  0  0  0  0  0  0
    0.6878   -0.5664    1.5838 H   0  0  0  0  0  0  0  0  0  0  0  0
  1  2  2  0
  2  3  1  0
  3  4  1  0
  4  5  1  0
  5  6  1  0
  6  7  1  0
  7  8  1  0
  6  9  1  0
  8  1  1  0
  9  2  1  0
  9  5  1  0
  1 10  1  0
  3 11  1  0
  3 12  1  0
  5 13  1  0
  6 14  1  0
  8 15  1  0
  8 16  1  0
  9 17  1  0
M  END
