
     RDKit          3D

 19 20  0  0  0  0  0  0  0  0999 V2000
    1.6853   -0.8155    0.4022 C   0  0  0  0  0  0  0  0  0  0  0  0
    2.1353    0.3957    0.0745 C   0  0  0  0  0  0  0  0  0  0  0  0
    0.9426    1.0526   -0.5895 C   0  0  0  0  0  0  0  0  0  0  0  0
    0.1618    1.5075    0.4012 O   0  0  0  0  0  0  0  0  0  0  0  0
   -1.1549    1.2845    0.4105 C   0  0  0  0  0  0  0  0  0  0  0  0
   -1.6580   -0.0313   -0.0392 C   0  0  0  0  0  0  0  0  0  0  0  0
   -0.7611   -1.1939    0.2786 C   0  0  0  0  0  0  0  0  0  0  0  0
    0.5165   -1.1255   -0.4891 C   0  0  0  0  0  0  0  0  0  0  0  0
    0.4715   -0.0108   -1.3242 O   0  0  0  0  0  0  0  0  0  0  0  0
    2.1005   -1.4621    1.1838 H   0  0  0  0  0  0  0  0  0  0  0  0
    3.1095    0.8054    0.2420 H   0  0  0  0  0  0  0  0  0  0  0  0
    1.3362    1.8068   -1.2983 H   0  0  0  0  0  0  0  0  0  0  0  0
   -1.6791    2.0836   -0.1757 H   0  0  0  0  0  0  0  0  0  0  0  0
   -1.5354    1.4321    1.4664 H   0  0  0  0  0  0  0  0  0  0  0  0
   -1.7808   -0.0082   -1.1457 H   0  0  0  0  0  0  0  0  0  0  0  0
   -2.6786   -0.1980    0.3706 H   0  0  0  0  0  0  0  0  0  0  0  0
   -0.6095   -1.3395    1.3671 H   0  0  0  0  0  0  0  0  0  0  0  0
   -1.3126   -2.1178   -0.0642 H   0  0  0  0  0  0  0  0  0  0  0  0
    0.7106   -2.0657   -1.0710 H   0  0  0  0  0  0  0  0  0  0  0  0
  1  2  2  0
  2  3  1  0
  3  4  1  0
  4  5  1  0
  5  6  1  0
  6  7  1  0
  7  8  1  0
  8  9  1  0
  8  1  1  0
  9  3  1  0
  1 10  1  0
  2 11  1  0
  3 12  1  0
  5 13  1  0
  5 14  1  0
  6 15  1  0
  6 16  1  0
  7 17  1  0
  7 18  1  0
  8 19  1  0
M  END
