
     RDKit          3D

 19 21  0  0  0  0  0  0  0  0999 V2000
   -2.0790   -0.3594    0.1194 C   0  0  0  0  0  0  0  0  0  0  0  0
   -1.5701    0.6139    0.8612 C   0  0  0  0  0  0  0  0  0  0  0  0
   -0.1728    0.8681    0.4859 C   0  0  0  0  0  0  0  0  0  0  0  0
    0.0915    1.4575   -0.8327 C   0  0  0  0  0  0  0  0  0  0  0  0
    0.1548   -0.0136   -0.6358 C   0  0  0  0  0  0  0  0  0  0  0  0
   -1.0697   -0.8655   -0.8396 C   0  0  0  0  0  0  0  0  0  0  0  0
    1.4648   -0.6299   -0.2725 C   0  0  0  0  0  0  0  0  0  0  0  0
    1.6595   -0.2267    1.1599 C   0  0  0  0  0  0  0  0  0  0  0  0
    0.7839    0.7664    1.4682 O   0  0  0  0  0  0  0  0  0  0  0  0
   -3.0870   -0.7537    0.1797 H   0  0  0  0  0  0  0  0  0  0  0  0
   -2.1347    1.1281    1.6281 H   0  0  0  0  0  0  0  0  0  0  0  0
   -0.7655    1.8312   -1.4171 H   0  0  0  0  0  0  0  0  0  0  0  0
    1.0695    1.9390   -1.0505 H   0  0  0  0  0  0  0  0  0  0  0  0
   -1.4125   -0.7091   -1.8997 H   0  0  0  0  0  0  0  0  0  0  0  0
   -0.8263   -1.9219   -0.7126 H   0  0  0  0  0  0  0  0  0  0  0  0
    2.2959   -0.3141   -0.9351 H   0  0  0  0  0  0  0  0  0  0  0  0
    1.3855   -1.7493   -0.3892 H   0  0  0  0  0  0  0  0  0  0  0  0
    1.4965   -1.1459    1.7866 H   0  0  0  0  0  0  0  0  0  0  0  0
    2.7156    0.0849    1.2957 H   0  0  0  0  0  0  0  0  0  0  0  0
  1  2  2  0
  2  3  1  0
  3  4  1  0
  4  5  1  0
  5  6  1  0
  5  7  1  0
  7  8  1  0
  8  9  1  0
  6  1  1  0
  5  3  1  0
  9  3  1  0
  1 10  1  0
  2 11  1  0
  4 12  1  0
  4 13  1  0
  6 14  1  0
  6 15  1  0
  7 16  1  0
  7 17  1  0
  8 18  1  0
  8 19  1  0
M  END
