
     RDKit          3D

 18 19  0  0  0  0  0  0  0  0999 V2000
   -2.0560    0.3903   -0.1812 C   0  0  0  0  0  0  0  0  0  0  0  0
   -1.1935    1.3017   -0.5347 C   0  0  0  0  0  0  0  0  0  0  0  0
    0.2455    0.9804   -0.6904 C   0  0  0  0  0  0  0  0  0  0  0  0
    0.5915   -0.2856    0.0616 C   0  0  0  0  0  0  0  0  0  0  0  0
    2.0330   -0.7480   -0.1055 C   0  0  0  0  0  0  0  0  0  0  0  0
    1.5467   -0.1478    1.1646 C   0  0  0  0  0  0  0  0  0  0  0  0
   -0.3158   -1.2782   -0.0747 O   0  0  0  0  0  0  0  0  0  0  0  0
   -1.6252   -0.9823    0.0729 C   0  0  0  0  0  0  0  0  0  0  0  0
   -3.1385    0.5939   -0.0551 H   0  0  0  0  0  0  0  0  0  0  0  0
   -1.5703    2.3149   -0.7128 H   0  0  0  0  0  0  0  0  0  0  0  0
    0.8115    1.8432   -0.2812 H   0  0  0  0  0  0  0  0  0  0  0  0
    0.5338    0.9126   -1.7654 H   0  0  0  0  0  0  0  0  0  0  0  0
    2.2531   -1.8361   -0.0472 H   0  0  0  0  0  0  0  0  0  0  0  0
    2.7038   -0.1882   -0.7566 H   0  0  0  0  0  0  0  0  0  0  0  0
    1.3742   -0.7584    2.0603 H   0  0  0  0  0  0  0  0  0  0  0  0
    1.9561    0.8598    1.3912 H   0  0  0  0  0  0  0  0  0  0  0  0
   -1.9441   -1.3311    1.0945 H   0  0  0  0  0  0  0  0  0  0  0  0
   -2.2057   -1.6412   -0.6402 H   0  0  0  0  0  0  0  0  0  0  0  0
  1  2  2  0
  2  3  1  0
  3  4  1  0
  4  5  1  0
  5  6  1  0
  4  7  1  0
  7  8  1  0
  8  1  1  0
  6  4  1  0
  1  9  1  0
  2 10  1  0
  3 11  1  0
  3 12  1  0
  5 13  1  0
  5 14  1  0
  6 15  1  0
  6 16  1  0
  8 17  1  0
  8 18  1  0
M  END
