
     RDKit          3D

 21 21  0  0  0  0  0  0  0  0999 V2000
   -1.6805    1.1374    0.3159 C   0  0  0  0  0  0  0  0  0  0  0  0
   -0.6373    1.8911    0.5781 C   0  0  0  0  0  0  0  0  0  0  0  0
    0.6972    1.4733    0.1052 C   0  0  0  0  0  0  0  0  0  0  0  0
    1.1413    0.4551    0.9159 O   0  0  0  0  0  0  0  0  0  0  0  0
    1.8358   -0.5348    0.2959 C   0  0  0  0  0  0  0  0  0  0  0  0
    1.0688   -1.3240   -0.7226 C   0  0  0  0  0  0  0  0  0  0  0  0
   -0.0209   -1.9864   -0.2561 O   0  0  0  0  0  0  0  0  0  0  0  0
   -0.9937   -1.2600    0.3503 C   0  0  0  0  0  0  0  0  0  0  0  0
   -1.5860   -0.1528   -0.4551 C   0  0  0  0  0  0  0  0  0  0  0  0
   -2.6562    1.4648    0.6746 H   0  0  0  0  0  0  0  0  0  0  0  0
   -0.7472    2.8002    1.1288 H   0  0  0  0  0  0  0  0  0  0  0  0
    0.6851    1.1886   -0.9828 H   0  0  0  0  0  0  0  0  0  0  0  0
    1.4236    2.3362    0.1434 H   0  0  0  0  0  0  0  0  0  0  0  0
    2.1784   -1.2543    1.0753 H   0  0  0  0  0  0  0  0  0  0  0  0
    2.7591   -0.1684   -0.1973 H   0  0  0  0  0  0  0  0  0  0  0  0
    0.8788   -0.7244   -1.6619 H   0  0  0  0  0  0  0  0  0  0  0  0
    1.7934   -2.1201   -1.0805 H   0  0  0  0  0  0  0  0  0  0  0  0
   -0.7090   -0.8907    1.3805 H   0  0  0  0  0  0  0  0  0  0  0  0
   -1.8425   -1.9780    0.5713 H   0  0  0  0  0  0  0  0  0  0  0  0
   -2.6141   -0.4070   -0.8492 H   0  0  0  0  0  0  0  0  0  0  0  0
   -0.9739    0.0542   -1.3297 H   0  0  0  0  0  0  0  0  0  0  0  0
  1  2  2  3
  2  3  1  0
  3  4  1  0
  4  5  1  0
  5  6  1  0
  6  7  1  0
  7  8  1  0
  8  9  1  0
  9  1  1  0
  1 10  1  0
  2 11  1  0
  3 12  1  0
  3 13  1  0
  5 14  1  0
  5 15  1  0
  6 16  1  0
  6 17  1  0
  8 18  1  0
  8 19  1  0
  9 20  1  0
  9 21  1  0
M  END
