
     RDKit          3D

 19 21  0  0  0  0  0  0  0  0999 V2000
   -1.5784    0.6270   -1.0840 C   0  0  0  0  0  0  0  0  0  0  0  0
   -1.7412    1.1142    0.1721 C   0  0  0  0  0  0  0  0  0  0  0  0
   -0.8199    0.2803    0.9655 C   0  0  0  0  0  0  0  0  0  0  0  0
   -1.1528   -1.1080    0.3858 C   0  0  0  0  0  0  0  0  0  0  0  0
   -0.5591   -0.4460   -0.8721 C   0  0  0  0  0  0  0  0  0  0  0  0
    0.3778    0.1923    0.0795 C   0  0  0  0  0  0  0  0  0  0  0  0
    1.5634   -0.5313    0.5457 C   0  0  0  0  0  0  0  0  0  0  0  0
    2.2064    0.4855   -0.4082 C   0  0  0  0  0  0  0  0  0  0  0  0
    1.0568    1.2976   -0.2566 O   0  0  0  0  0  0  0  0  0  0  0  0
   -2.0580    0.9335   -1.9948 H   0  0  0  0  0  0  0  0  0  0  0  0
   -2.3834    1.9137    0.5159 H   0  0  0  0  0  0  0  0  0  0  0  0
   -0.7417    0.3734    2.0091 H   0  0  0  0  0  0  0  0  0  0  0  0
   -0.5524   -1.9120    0.8031 H   0  0  0  0  0  0  0  0  0  0  0  0
   -2.2369   -1.2266    0.3466 H   0  0  0  0  0  0  0  0  0  0  0  0
   -0.2597   -1.0615   -1.6650 H   0  0  0  0  0  0  0  0  0  0  0  0
    1.7899   -0.2863    1.6235 H   0  0  0  0  0  0  0  0  0  0  0  0
    1.7090   -1.5752    0.2735 H   0  0  0  0  0  0  0  0  0  0  0  0
    3.1279    0.9141   -0.0212 H   0  0  0  0  0  0  0  0  0  0  0  0
    2.2523    0.0153   -1.4183 H   0  0  0  0  0  0  0  0  0  0  0  0
  1  2  2  0
  2  3  1  0
  3  4  1  0
  4  5  1  0
  5  6  1  0
  6  7  1  0
  7  8  1  0
  8  9  1  0
  5  1  1  0
  9  6  1  0
  6  3  1  0
  1 10  1  0
  2 11  1  0
  3 12  1  0
  4 13  1  0
  4 14  1  0
  5 15  1  0
  7 16  1  0
  7 17  1  0
  8 18  1  0
  8 19  1  0
M  END
