
     RDKit          2D

 15 18  0  0  0  0  0  0  0  0999 V2000
   -2.2786   -0.2249    0.0000 C   0  0  0  0  0  0  0  0  0  0  0  0
   -1.4429   -1.4706    0.0000 C   0  0  0  0  0  0  0  0  0  0  0  0
   -0.0000   -1.0607    0.0000 C   0  0  0  0  0  0  0  0  0  0  0  0
    1.0607    0.0000    0.0000 O   0  0  0  0  0  0  0  0  0  0  0  0
    0.0000    1.0607    0.0000 C   0  0  0  0  0  0  0  0  0  0  0  0
   -1.0607    0.0000    0.0000 C   0  0  0  0  0  0  0  0  0  0  0  0
   -2.3972    0.6810    0.0000 C   0  0  0  0  0  0  0  0  0  0  0  0
   -2.1625    2.1625    0.0000 C   0  0  0  0  0  0  0  0  0  0  0  0
   -0.6810    2.3972    0.0000 C   0  0  0  0  0  0  0  0  0  0  0  0
   -3.7732   -0.3520    0.0000 H   0  0  0  0  0  0  0  0  0  0  0  0
   -1.9594   -2.8788    0.0000 H   0  0  0  0  0  0  0  0  0  0  0  0
    1.2135    1.9423    0.0000 H   0  0  0  0  0  0  0  0  0  0  0  0
   -1.6713   -0.5124    0.0000 H   0  0  0  0  0  0  0  0  0  0  0  0
   -3.8067    0.1680    0.0000 H   0  0  0  0  0  0  0  0  0  0  0  0
    0.0000    3.7337    0.0000 H   0  0  0  0  0  0  0  0  0  0  0  0
  1  2  2  0
  2  3  1  0
  3  4  1  0
  4  5  1  0
  5  6  1  0
  6  7  1  0
  7  8  2  0
  8  9  1  0
  8  1  1  0
  6  3  1  0
  9  3  1  0
  9  5  1  0
  1 10  1  0
  2 11  1  0
  5 12  1  0
  6 13  1  0
  7 14  1  0
  9 15  1  0
M  END
