
     RDKit          3D

 19 20  0  0  0  0  0  0  0  0999 V2000
    2.4775   -0.2090   -0.4015 C   0  0  0  0  0  0  0  0  0  0  0  0
    1.7970    0.9213   -0.4770 C   0  0  0  0  0  0  0  0  0  0  0  0
    0.4489    0.8114    0.1223 C   0  0  0  0  0  0  0  0  0  0  0  0
   -0.5322    1.2810   -0.7495 O   0  0  0  0  0  0  0  0  0  0  0  0
   -1.7877    1.1460   -0.2388 C   0  0  0  0  0  0  0  0  0  0  0  0
   -2.1700   -0.2509    0.1507 C   0  0  0  0  0  0  0  0  0  0  0  0
   -0.9612   -1.1304    0.2263 C   0  0  0  0  0  0  0  0  0  0  0  0
    0.2764   -0.6620    0.2152 C   0  0  0  0  0  0  0  0  0  0  0  0
    1.6298   -1.2154    0.2751 C   0  0  0  0  0  0  0  0  0  0  0  0
    3.5074   -0.3978   -0.7731 H   0  0  0  0  0  0  0  0  0  0  0  0
    2.2053    1.8177   -0.9336 H   0  0  0  0  0  0  0  0  0  0  0  0
    0.3809    1.2647    1.1198 H   0  0  0  0  0  0  0  0  0  0  0  0
   -2.5042    1.5884   -0.9841 H   0  0  0  0  0  0  0  0  0  0  0  0
   -1.8927    1.7888    0.6826 H   0  0  0  0  0  0  0  0  0  0  0  0
   -2.8402   -0.6812   -0.6287 H   0  0  0  0  0  0  0  0  0  0  0  0
   -2.7044   -0.2797    1.1410 H   0  0  0  0  0  0  0  0  0  0  0  0
   -1.0536   -2.2098    0.2946 H   0  0  0  0  0  0  0  0  0  0  0  0
    1.9813   -1.4283    1.3052 H   0  0  0  0  0  0  0  0  0  0  0  0
    1.7416   -2.1548   -0.3468 H   0  0  0  0  0  0  0  0  0  0  0  0
  1  2  2  0
  2  3  1  0
  3  4  1  0
  4  5  1  0
  5  6  1  0
  6  7  1  0
  7  8  2  0
  8  9  1  0
  9  1  1  0
  8  3  1  0
  1 10  1  0
  2 11  1  0
  3 12  1  0
  5 13  1  0
  5 14  1  0
  6 15  1  0
  6 16  1  0
  7 17  1  0
  9 18  1  0
  9 19  1  0
M  END
