
     RDKit          3D

 19 21  0  0  0  0  0  0  0  0999 V2000
    0.1308    1.6496   -0.1077 C   0  0  0  0  0  0  0  0  0  0  0  0
    1.2328    0.9421    0.1048 C   0  0  0  0  0  0  0  0  0  0  0  0
    2.5419    0.2632    0.3721 C   0  0  0  0  0  0  0  0  0  0  0  0
    2.1219   -0.6315   -0.6600 O   0  0  0  0  0  0  0  0  0  0  0  0
    0.8819   -0.5325   -0.0528 C   0  0  0  0  0  0  0  0  0  0  0  0
   -0.3530   -0.5604   -0.8568 C   0  0  0  0  0  0  0  0  0  0  0  0
   -1.4621   -1.2868   -0.1113 C   0  0  0  0  0  0  0  0  0  0  0  0
   -1.6770    0.0333    0.6443 C   0  0  0  0  0  0  0  0  0  0  0  0
   -1.0202    0.7712   -0.4821 C   0  0  0  0  0  0  0  0  0  0  0  0
    0.0509    2.7182   -0.0272 H   0  0  0  0  0  0  0  0  0  0  0  0
    2.5071   -0.2560    1.3315 H   0  0  0  0  0  0  0  0  0  0  0  0
    3.4334    0.8328    0.1231 H   0  0  0  0  0  0  0  0  0  0  0  0
    0.8895   -1.0745    0.9090 H   0  0  0  0  0  0  0  0  0  0  0  0
   -0.2845   -0.7306   -1.9296 H   0  0  0  0  0  0  0  0  0  0  0  0
   -2.2780   -1.5095   -0.8254 H   0  0  0  0  0  0  0  0  0  0  0  0
   -1.1358   -2.1043    0.5307 H   0  0  0  0  0  0  0  0  0  0  0  0
   -2.7546    0.2604    0.6949 H   0  0  0  0  0  0  0  0  0  0  0  0
   -1.1612    0.0432    1.6054 H   0  0  0  0  0  0  0  0  0  0  0  0
   -1.6637    1.1721   -1.2629 H   0  0  0  0  0  0  0  0  0  0  0  0
  1  2  2  0
  2  3  1  0
  3  4  1  0
  4  5  1  0
  5  6  1  0
  6  7  1  0
  7  8  1  0
  8  9  1  0
  9  1  1  0
  5  2  1  0
  9  6  1  0
  1 10  1  0
  3 11  1  0
  3 12  1  0
  5 13  1  0
  6 14  1  0
  7 15  1  0
  7 16  1  0
  8 17  1  0
  8 18  1  0
  9 19  1  0
M  END
