
     RDKit          3D

 19 21  0  0  0  0  0  0  0  0999 V2000
    0.5663    1.4596    0.3077 C   0  0  0  0  0  0  0  0  0  0  0  0
    1.5516    0.7916    0.8914 C   0  0  0  0  0  0  0  0  0  0  0  0
    1.8305   -0.6389    0.5829 C   0  0  0  0  0  0  0  0  0  0  0  0
    0.9234   -1.5927    1.0544 O   0  0  0  0  0  0  0  0  0  0  0  0
    0.9945   -1.2513   -0.3825 C   0  0  0  0  0  0  0  0  0  0  0  0
   -0.2482   -0.6044   -0.8295 C   0  0  0  0  0  0  0  0  0  0  0  0
   -1.4552   -0.7484    0.0714 C   0  0  0  0  0  0  0  0  0  0  0  0
   -1.7422    0.7377   -0.0877 C   0  0  0  0  0  0  0  0  0  0  0  0
   -0.3439    0.8609   -0.6955 C   0  0  0  0  0  0  0  0  0  0  0  0
    0.3870    2.5006    0.5523 H   0  0  0  0  0  0  0  0  0  0  0  0
    2.1733    1.3007    1.6149 H   0  0  0  0  0  0  0  0  0  0  0  0
    2.8838   -0.9906    0.6471 H   0  0  0  0  0  0  0  0  0  0  0  0
    1.3805   -2.1110   -0.9862 H   0  0  0  0  0  0  0  0  0  0  0  0
   -0.5228   -0.9207   -1.8791 H   0  0  0  0  0  0  0  0  0  0  0  0
   -1.2666   -1.0388    1.0998 H   0  0  0  0  0  0  0  0  0  0  0  0
   -2.2646   -1.3760   -0.3720 H   0  0  0  0  0  0  0  0  0  0  0  0
   -2.5575    0.9358   -0.8204 H   0  0  0  0  0  0  0  0  0  0  0  0
   -1.8750    1.2417    0.8727 H   0  0  0  0  0  0  0  0  0  0  0  0
   -0.4149    1.4441   -1.6419 H   0  0  0  0  0  0  0  0  0  0  0  0
  1  2  2  0
  2  3  1  0
  3  4  1  0
  4  5  1  0
  5  6  1  0
  6  7  1  0
  7  8  1  0
  8  9  1  0
  9  1  1  0
  5  3  1  0
  9  6  1  0
  1 10  1  0
  2 11  1  0
  3 12  1  0
  5 13  1  0
  6 14  1  0
  7 15  1  0
  7 16  1  0
  8 17  1  0
  8 18  1  0
  9 19  1  0
M  END
