
     RDKit          3D

 14 14  0  0  0  0  0  0  0  0999 V2000
    0.0638    1.2646   -0.3297 C   0  0  0  0  0  0  0  0  0  0  0  0
    1.2291    0.6379   -0.2188 C   0  0  0  0  0  0  0  0  0  0  0  0
    1.1812   -0.8407   -0.1208 C   0  0  0  0  0  0  0  0  0  0  0  0
    0.1769   -1.3425    0.6584 O   0  0  0  0  0  0  0  0  0  0  0  0
   -0.9511   -0.5918    0.7957 C   0  0  0  0  0  0  0  0  0  0  0  0
   -1.1436    0.3933   -0.3407 C   0  0  0  0  0  0  0  0  0  0  0  0
   -0.0058    2.3351   -0.4068 H   0  0  0  0  0  0  0  0  0  0  0  0
    2.1853    1.1381   -0.1970 H   0  0  0  0  0  0  0  0  0  0  0  0
    1.1159   -1.2475   -1.1675 H   0  0  0  0  0  0  0  0  0  0  0  0
    2.1508   -1.2476    0.2881 H   0  0  0  0  0  0  0  0  0  0  0  0
   -1.8290   -1.2674    0.8086 H   0  0  0  0  0  0  0  0  0  0  0  0
   -0.9690   -0.0386    1.7663 H   0  0  0  0  0  0  0  0  0  0  0  0
   -1.1488   -0.1670   -1.2992 H   0  0  0  0  0  0  0  0  0  0  0  0
   -2.0557    0.9741   -0.2366 H   0  0  0  0  0  0  0  0  0  0  0  0
  1  2  2  0
  2  3  1  0
  3  4  1  0
  4  5  1  0
  5  6  1  0
  6  1  1  0
  1  7  1  0
  2  8  1  0
  3  9  1  0
  3 10  1  0
  5 11  1  0
  5 12  1  0
  6 13  1  0
  6 14  1  0
M  END
