
     RDKit          3D

 18 19  0  0  0  0  0  0  0  0999 V2000
   -1.2180    1.0539   -0.2066 C   0  0  0  0  0  0  0  0  0  0  0  0
   -0.0276    1.5039   -0.5911 C   0  0  0  0  0  0  0  0  0  0  0  0
    1.0572    0.4498   -0.5943 C   0  0  0  0  0  0  0  0  0  0  0  0
    0.4870   -0.6895   -1.3825 C   0  0  0  0  0  0  0  0  0  0  0  0
   -0.6655   -1.1604   -0.9084 C   0  0  0  0  0  0  0  0  0  0  0  0
   -1.2130   -0.3763    0.2629 C   0  0  0  0  0  0  0  0  0  0  0  0
   -0.1789   -0.4319    1.3751 C   0  0  0  0  0  0  0  0  0  0  0  0
    1.1864   -0.0721    0.8354 C   0  0  0  0  0  0  0  0  0  0  0  0
   -2.1335    1.5896   -0.2010 H   0  0  0  0  0  0  0  0  0  0  0  0
    0.2171    2.4937   -0.8829 H   0  0  0  0  0  0  0  0  0  0  0  0
    1.9974    0.8233   -0.9867 H   0  0  0  0  0  0  0  0  0  0  0  0
    1.0143   -1.0376   -2.2354 H   0  0  0  0  0  0  0  0  0  0  0  0
   -1.1741   -2.0192   -1.3102 H   0  0  0  0  0  0  0  0  0  0  0  0
   -2.1907   -0.7255    0.5777 H   0  0  0  0  0  0  0  0  0  0  0  0
   -0.1938   -1.4129    1.8900 H   0  0  0  0  0  0  0  0  0  0  0  0
   -0.4566    0.3999    2.0808 H   0  0  0  0  0  0  0  0  0  0  0  0
    1.7654   -1.0386    0.8001 H   0  0  0  0  0  0  0  0  0  0  0  0
    1.7267    0.6499    1.4771 H   0  0  0  0  0  0  0  0  0  0  0  0
  1  2  2  0
  2  3  1  0
  3  4  1  0
  4  5  2  0
  5  6  1  0
  6  7  1  0
  7  8  1  0
  6  1  1  0
  8  3  1  0
  1  9  1  0
  2 10  1  0
  3 11  1  0
  4 12  1  0
  5 13  1  0
  6 14  1  0
  7 15  1  0
  7 16  1  0
  8 17  1  0
  8 18  1  0
M  END
