
     RDKit          3D

 14 16  0  0  0  0  0  0  0  0999 V2000
   -1.4397    0.8381   -0.3565 C   0  0  0  0  0  0  0  0  0  0  0  0
   -1.4445   -0.4303   -0.7745 C   0  0  0  0  0  0  0  0  0  0  0  0
   -0.4377   -1.0435    0.1513 C   0  0  0  0  0  0  0  0  0  0  0  0
   -0.8470   -0.4481    1.3641 O   0  0  0  0  0  0  0  0  0  0  0  0
   -0.4067    0.7504    0.7482 C   0  0  0  0  0  0  0  0  0  0  0  0
    0.6496   -0.0392    0.1268 C   0  0  0  0  0  0  0  0  0  0  0  0
    1.9887   -0.0893    0.1496 C   0  0  0  0  0  0  0  0  0  0  0  0
    1.2241    0.4301   -1.0260 O   0  0  0  0  0  0  0  0  0  0  0  0
   -2.0029    1.6985   -0.6945 H   0  0  0  0  0  0  0  0  0  0  0  0
   -1.9936   -0.9353   -1.5525 H   0  0  0  0  0  0  0  0  0  0  0  0
   -0.2674   -2.0805    0.1229 H   0  0  0  0  0  0  0  0  0  0  0  0
   -0.2556    1.5976    1.3537 H   0  0  0  0  0  0  0  0  0  0  0  0
    2.6452    0.7039    0.5932 H   0  0  0  0  0  0  0  0  0  0  0  0
    2.5875   -0.9525   -0.2058 H   0  0  0  0  0  0  0  0  0  0  0  0
  1  2  2  0
  2  3  1  0
  3  4  1  0
  4  5  1  0
  5  6  1  0
  6  7  1  0
  7  8  1  0
  5  1  1  0
  8  6  1  0
  6  3  1  0
  1  9  1  0
  2 10  1  0
  3 11  1  0
  5 12  1  0
  7 13  1  0
  7 14  1  0
M  END
