
     RDKit          3D

 15 16  0  0  0  0  0  0  0  0999 V2000
    0.6842    1.2863    0.2035 C   0  0  0  0  0  0  0  0  0  0  0  0
   -0.6456    1.3233    0.2185 C   0  0  0  0  0  0  0  0  0  0  0  0
   -1.4120    0.0371    0.2963 C   0  0  0  0  0  0  0  0  0  0  0  0
   -0.7262   -1.0450   -0.4743 C   0  0  0  0  0  0  0  0  0  0  0  0
    0.0066   -2.0105    0.1945 O   0  0  0  0  0  0  0  0  0  0  0  0
    0.6923   -1.0267   -0.5728 C   0  0  0  0  0  0  0  0  0  0  0  0
    1.4296   -0.0099    0.2625 C   0  0  0  0  0  0  0  0  0  0  0  0
    1.2301    2.2092    0.1477 H   0  0  0  0  0  0  0  0  0  0  0  0
   -1.1225    2.2858    0.1736 H   0  0  0  0  0  0  0  0  0  0  0  0
   -2.4267    0.2682   -0.1414 H   0  0  0  0  0  0  0  0  0  0  0  0
   -1.6132   -0.2354    1.3566 H   0  0  0  0  0  0  0  0  0  0  0  0
   -1.3031   -1.4578   -1.3500 H   0  0  0  0  0  0  0  0  0  0  0  0
    1.2008   -1.3913   -1.4882 H   0  0  0  0  0  0  0  0  0  0  0  0
    1.5450   -0.3724    1.3008 H   0  0  0  0  0  0  0  0  0  0  0  0
    2.4608    0.1390   -0.1272 H   0  0  0  0  0  0  0  0  0  0  0  0
  1  2  2  0
  2  3  1  0
  3  4  1  0
  4  5  1  0
  5  6  1  0
  6  7  1  0
  7  1  1  0
  6  4  1  0
  1  8  1  0
  2  9  1  0
  3 10  1  0
  3 11  1  0
  4 12  1  0
  6 13  1  0
  7 14  1  0
  7 15  1  0
M  END
