
     RDKit          3D

 19 21  0  0  0  0  0  0  0  0999 V2000
    1.7825    0.5818    0.1886 C   0  0  0  0  0  0  0  0  0  0  0  0
    0.8864    1.3450   -0.4473 C   0  0  0  0  0  0  0  0  0  0  0  0
   -0.1970    0.6782   -1.2203 C   0  0  0  0  0  0  0  0  0  0  0  0
    0.1757   -0.6426   -1.5205 O   0  0  0  0  0  0  0  0  0  0  0  0
    0.1870   -1.2131   -0.2577 C   0  0  0  0  0  0  0  0  0  0  0  0
    1.3927   -0.8036    0.5109 C   0  0  0  0  0  0  0  0  0  0  0  0
   -1.1137   -0.8685    0.3379 C   0  0  0  0  0  0  0  0  0  0  0  0
   -1.4025    0.3714    1.0714 C   0  0  0  0  0  0  0  0  0  0  0  0
   -1.4453    0.4645   -0.4159 C   0  0  0  0  0  0  0  0  0  0  0  0
    2.7526    1.0091    0.4398 H   0  0  0  0  0  0  0  0  0  0  0  0
    0.9137    2.4115   -0.4251 H   0  0  0  0  0  0  0  0  0  0  0  0
   -0.3769    1.1994   -2.1677 H   0  0  0  0  0  0  0  0  0  0  0  0
    0.2605   -2.3264   -0.4240 H   0  0  0  0  0  0  0  0  0  0  0  0
    2.2580   -1.4622    0.2086 H   0  0  0  0  0  0  0  0  0  0  0  0
    1.2877   -0.9448    1.6042 H   0  0  0  0  0  0  0  0  0  0  0  0
   -1.9024   -1.6434    0.2683 H   0  0  0  0  0  0  0  0  0  0  0  0
   -2.3965    0.4238    1.5619 H   0  0  0  0  0  0  0  0  0  0  0  0
   -0.6323    0.9492    1.6184 H   0  0  0  0  0  0  0  0  0  0  0  0
   -2.4303    0.4706   -0.9314 H   0  0  0  0  0  0  0  0  0  0  0  0
  1  2  2  0
  2  3  1  0
  3  4  1  0
  4  5  1  0
  5  6  1  0
  5  7  1  0
  7  8  1  0
  8  9  1  0
  6  1  1  0
  9  7  1  0
  9  3  1  0
  1 10  1  0
  2 11  1  0
  3 12  1  0
  5 13  1  0
  6 14  1  0
  6 15  1  0
  7 16  1  0
  8 17  1  0
  8 18  1  0
  9 19  1  0
M  END
