
     RDKit          3D

 17 19  0  0  0  0  0  0  0  0999 V2000
    1.1955    1.2060   -0.0016 C   0  0  0  0  0  0  0  0  0  0  0  0
    1.8723    0.1997   -0.5056 C   0  0  0  0  0  0  0  0  0  0  0  0
    1.2662   -1.1212   -0.2902 C   0  0  0  0  0  0  0  0  0  0  0  0
    0.9904   -1.5822    0.9870 O   0  0  0  0  0  0  0  0  0  0  0  0
    0.0360   -0.7593    0.5081 C   0  0  0  0  0  0  0  0  0  0  0  0
   -1.3121   -1.1961    0.0630 C   0  0  0  0  0  0  0  0  0  0  0  0
   -2.0597   -0.0744   -0.1584 O   0  0  0  0  0  0  0  0  0  0  0  0
   -1.2815    1.0519   -0.0828 C   0  0  0  0  0  0  0  0  0  0  0  0
   -0.0132    0.6928    0.6533 C   0  0  0  0  0  0  0  0  0  0  0  0
    1.4802    2.2891   -0.0537 H   0  0  0  0  0  0  0  0  0  0  0  0
    2.8226    0.3383   -1.0486 H   0  0  0  0  0  0  0  0  0  0  0  0
    1.1203   -1.7985   -1.1564 H   0  0  0  0  0  0  0  0  0  0  0  0
   -1.2942   -1.8068   -0.8864 H   0  0  0  0  0  0  0  0  0  0  0  0
   -1.8507   -1.8382    0.8045 H   0  0  0  0  0  0  0  0  0  0  0  0
   -1.8402    1.8224    0.5080 H   0  0  0  0  0  0  0  0  0  0  0  0
   -1.0641    1.5256   -1.0624 H   0  0  0  0  0  0  0  0  0  0  0  0
   -0.0678    1.0509    1.7222 H   0  0  0  0  0  0  0  0  0  0  0  0
  1  2  2  0
  2  3  1  0
  3  4  1  0
  4  5  1  0
  5  6  1  0
  6  7  1  0
  7  8  1  0
  8  9  1  0
  9  1  1  0
  5  3  1  0
  9  5  1  0
  1 10  1  0
  2 11  1  0
  3 12  1  0
  6 13  1  0
  6 14  1  0
  8 15  1  0
  8 16  1  0
  9 17  1  0
M  END
