
     RDKit          3D

 21 22  0  0  0  0  0  0  0  0999 V2000
   -2.3091    0.6401   -0.3869 C   0  0  0  0  0  0  0  0  0  0  0  0
   -1.0919    0.7580   -0.8671 C   0  0  0  0  0  0  0  0  0  0  0  0
   -0.1888   -0.2107   -0.1556 C   0  0  0  0  0  0  0  0  0  0  0  0
    1.1405    0.4443    0.0004 C   0  0  0  0  0  0  0  0  0  0  0  0
    2.2030   -0.3566    0.6923 C   0  0  0  0  0  0  0  0  0  0  0  0
    3.0863    0.0245   -0.3444 O   0  0  0  0  0  0  0  0  0  0  0  0
    2.0073    0.1340   -1.2067 C   0  0  0  0  0  0  0  0  0  0  0  0
   -0.9222   -0.4057    1.1566 C   0  0  0  0  0  0  0  0  0  0  0  0
   -2.3613   -0.3982    0.6782 C   0  0  0  0  0  0  0  0  0  0  0  0
   -3.1711    1.2181   -0.7156 H   0  0  0  0  0  0  0  0  0  0  0  0
   -0.7600    1.4348   -1.6498 H   0  0  0  0  0  0  0  0  0  0  0  0
   -0.0785   -1.1555   -0.6904 H   0  0  0  0  0  0  0  0  0  0  0  0
    1.1485    1.5142    0.2788 H   0  0  0  0  0  0  0  0  0  0  0  0
    2.5931    0.0579    1.6361 H   0  0  0  0  0  0  0  0  0  0  0  0
    1.9953   -1.4586    0.7014 H   0  0  0  0  0  0  0  0  0  0  0  0
    1.7732   -0.8636   -1.6311 H   0  0  0  0  0  0  0  0  0  0  0  0
    2.0466    0.9656   -1.9306 H   0  0  0  0  0  0  0  0  0  0  0  0
   -0.6414   -1.3320    1.6680 H   0  0  0  0  0  0  0  0  0  0  0  0
   -0.7906    0.5061    1.7889 H   0  0  0  0  0  0  0  0  0  0  0  0
   -2.5997   -1.3717    0.1762 H   0  0  0  0  0  0  0  0  0  0  0  0
   -3.0792   -0.1451    1.4695 H   0  0  0  0  0  0  0  0  0  0  0  0
  1  2  2  0
  2  3  1  0
  3  4  1  0
  4  5  1  0
  5  6  1  0
  6  7  1  0
  3  8  1  0
  8  9  1  0
  9  1  1  0
  7  4  1  0
  1 10  1  0
  2 11  1  0
  3 12  1  0
  4 13  1  0
  5 14  1  0
  5 15  1  0
  7 16  1  0
  7 17  1  0
  8 18  1  0
  8 19  1  0
  9 20  1  0
  9 21  1  0
M  END
