
     RDKit          3D

 19 21  0  0  0  0  0  0  0  0999 V2000
    1.7946    0.9378   -0.0869 C   0  0  0  0  0  0  0  0  0  0  0  0
    0.6618    1.5266    0.2807 C   0  0  0  0  0  0  0  0  0  0  0  0
   -0.6829    0.9850    0.0737 C   0  0  0  0  0  0  0  0  0  0  0  0
   -1.1028   -0.1054    1.0721 C   0  0  0  0  0  0  0  0  0  0  0  0
   -1.9051   -0.6483   -0.1219 C   0  0  0  0  0  0  0  0  0  0  0  0
   -0.6336   -0.2036   -0.8619 C   0  0  0  0  0  0  0  0  0  0  0  0
    0.3786   -1.0758   -0.1918 C   0  0  0  0  0  0  0  0  0  0  0  0
    1.7728   -0.5427   -0.2506 C   0  0  0  0  0  0  0  0  0  0  0  0
   -0.0659   -0.9905    1.1541 O   0  0  0  0  0  0  0  0  0  0  0  0
    2.7154    1.4900   -0.2678 H   0  0  0  0  0  0  0  0  0  0  0  0
    0.7881    2.5045    0.7803 H   0  0  0  0  0  0  0  0  0  0  0  0
   -1.5033    1.6786   -0.0711 H   0  0  0  0  0  0  0  0  0  0  0  0
   -1.6514    0.2017    1.9254 H   0  0  0  0  0  0  0  0  0  0  0  0
   -2.7880   -0.0368   -0.3718 H   0  0  0  0  0  0  0  0  0  0  0  0
   -2.0650   -1.7291   -0.1014 H   0  0  0  0  0  0  0  0  0  0  0  0
   -0.6736   -0.0732   -1.9000 H   0  0  0  0  0  0  0  0  0  0  0  0
    0.2913   -2.0866   -0.5888 H   0  0  0  0  0  0  0  0  0  0  0  0
    2.3550   -0.8809   -1.1254 H   0  0  0  0  0  0  0  0  0  0  0  0
    2.3141   -0.9513    0.6531 H   0  0  0  0  0  0  0  0  0  0  0  0
  1  2  2  0
  2  3  1  0
  3  4  1  0
  4  5  1  0
  5  6  1  0
  6  7  1  0
  7  8  1  0
  7  9  1  0
  8  1  1  0
  6  3  1  0
  9  4  1  0
  1 10  1  0
  2 11  1  0
  3 12  1  0
  4 13  1  0
  5 14  1  0
  5 15  1  0
  6 16  1  0
  7 17  1  0
  8 18  1  0
  8 19  1  0
M  END
