
     RDKit          3D

 21 22  0  0  0  0  0  0  0  0999 V2000
   -1.7849    1.1578   -0.7043 C   0  0  0  0  0  0  0  0  0  0  0  0
   -0.5222    1.6077   -0.8640 C   0  0  0  0  0  0  0  0  0  0  0  0
    0.5090    0.8884   -0.1198 C   0  0  0  0  0  0  0  0  0  0  0  0
    1.7712    0.9378   -0.6350 O   0  0  0  0  0  0  0  0  0  0  0  0
    2.4270   -0.0228    0.1364 C   0  0  0  0  0  0  0  0  0  0  0  0
    1.4648   -1.1936    0.2735 C   0  0  0  0  0  0  0  0  0  0  0  0
    0.1925   -0.6074   -0.2785 C   0  0  0  0  0  0  0  0  0  0  0  0
   -1.0136   -0.8587    0.5549 C   0  0  0  0  0  0  0  0  0  0  0  0
   -2.1422    0.0195    0.1545 C   0  0  0  0  0  0  0  0  0  0  0  0
   -2.5997    1.6563   -1.2362 H   0  0  0  0  0  0  0  0  0  0  0  0
   -0.3482    2.4488   -1.5130 H   0  0  0  0  0  0  0  0  0  0  0  0
    0.5225    1.1226    0.9633 H   0  0  0  0  0  0  0  0  0  0  0  0
    2.5389    0.4065    1.1529 H   0  0  0  0  0  0  0  0  0  0  0  0
    3.3904   -0.3274   -0.3108 H   0  0  0  0  0  0  0  0  0  0  0  0
    1.8106   -2.0739   -0.3045 H   0  0  0  0  0  0  0  0  0  0  0  0
    1.2927   -1.4728    1.3150 H   0  0  0  0  0  0  0  0  0  0  0  0
    0.0693   -0.8519   -1.3447 H   0  0  0  0  0  0  0  0  0  0  0  0
   -0.7131   -0.7009    1.6282 H   0  0  0  0  0  0  0  0  0  0  0  0
   -1.3039   -1.9279    0.4213 H   0  0  0  0  0  0  0  0  0  0  0  0
   -2.9147   -0.5764   -0.3924 H   0  0  0  0  0  0  0  0  0  0  0  0
   -2.6465    0.3683    1.1033 H   0  0  0  0  0  0  0  0  0  0  0  0
  1  2  2  0
  2  3  1  0
  3  4  1  0
  4  5  1  0
  5  6  1  0
  6  7  1  0
  7  8  1  0
  8  9  1  0
  9  1  1  0
  7  3  1  0
  1 10  1  0
  2 11  1  0
  3 12  1  0
  5 13  1  0
  5 14  1  0
  6 15  1  0
  6 16  1  0
  7 17  1  0
  8 18  1  0
  8 19  1  0
  9 20  1  0
  9 21  1  0
M  END
