
     RDKit          3D

 18 19  0  0  0  0  0  0  0  0999 V2000
   -1.6990   -0.7135    0.6229 C   0  0  0  0  0  0  0  0  0  0  0  0
   -0.7383   -1.4420    0.0751 C   0  0  0  0  0  0  0  0  0  0  0  0
    0.1127   -0.5897   -0.7806 C   0  0  0  0  0  0  0  0  0  0  0  0
    1.5682   -0.6597   -0.3968 C   0  0  0  0  0  0  0  0  0  0  0  0
    1.8290    0.5220    0.4654 C   0  0  0  0  0  0  0  0  0  0  0  0
    0.8020    1.3538    0.4364 C   0  0  0  0  0  0  0  0  0  0  0  0
   -0.2489    0.8332   -0.4351 C   0  0  0  0  0  0  0  0  0  0  0  0
   -1.5927    0.7068    0.1909 C   0  0  0  0  0  0  0  0  0  0  0  0
   -2.4520   -1.0958    1.2881 H   0  0  0  0  0  0  0  0  0  0  0  0
   -0.6116   -2.5050    0.2422 H   0  0  0  0  0  0  0  0  0  0  0  0
   -0.0801   -0.7905   -1.8337 H   0  0  0  0  0  0  0  0  0  0  0  0
    2.2595   -0.6473   -1.2347 H   0  0  0  0  0  0  0  0  0  0  0  0
    1.7038   -1.5917    0.1879 H   0  0  0  0  0  0  0  0  0  0  0  0
    2.7299    0.6844    1.0385 H   0  0  0  0  0  0  0  0  0  0  0  0
    0.7751    2.2774    0.9893 H   0  0  0  0  0  0  0  0  0  0  0  0
   -0.2432    1.4445   -1.3752 H   0  0  0  0  0  0  0  0  0  0  0  0
   -2.3876    0.8700   -0.5674 H   0  0  0  0  0  0  0  0  0  0  0  0
   -1.7269    1.3433    1.0866 H   0  0  0  0  0  0  0  0  0  0  0  0
  1  2  2  0
  2  3  1  0
  3  4  1  0
  4  5  1  0
  5  6  2  0
  6  7  1  0
  7  8  1  0
  8  1  1  0
  7  3  1  0
  1  9  1  0
  2 10  1  0
  3 11  1  0
  4 12  1  0
  4 13  1  0
  5 14  1  0
  6 15  1  0
  7 16  1  0
  8 17  1  0
  8 18  1  0
M  END
