
     RDKit          3D

 21 23  0  0  0  0  0  0  0  0999 V2000
   -0.0701    1.5795   -0.3756 C   0  0  0  0  0  0  0  0  0  0  0  0
   -1.2107    1.1823   -0.8881 C   0  0  0  0  0  0  0  0  0  0  0  0
   -1.7546   -0.1384   -0.5809 C   0  0  0  0  0  0  0  0  0  0  0  0
   -2.0395   -0.5885    0.8018 C   0  0  0  0  0  0  0  0  0  0  0  0
   -0.8577   -1.1357   -0.0210 C   0  0  0  0  0  0  0  0  0  0  0  0
    0.4515   -0.7050    0.4890 C   0  0  0  0  0  0  0  0  0  0  0  0
    1.6575   -0.8652   -0.4108 C   0  0  0  0  0  0  0  0  0  0  0  0
    2.1541    0.4903    0.0783 C   0  0  0  0  0  0  0  0  0  0  0  0
    0.7161    0.7472    0.5171 C   0  0  0  0  0  0  0  0  0  0  0  0
    0.3087    2.5774   -0.6278 H   0  0  0  0  0  0  0  0  0  0  0  0
   -1.7967    1.8332   -1.5670 H   0  0  0  0  0  0  0  0  0  0  0  0
   -2.5030   -0.5336   -1.3325 H   0  0  0  0  0  0  0  0  0  0  0  0
   -2.8069   -1.3317    0.9970 H   0  0  0  0  0  0  0  0  0  0  0  0
   -1.8419    0.1274    1.6056 H   0  0  0  0  0  0  0  0  0  0  0  0
   -0.9179   -2.1741   -0.3791 H   0  0  0  0  0  0  0  0  0  0  0  0
    0.6685   -1.1730    1.4901 H   0  0  0  0  0  0  0  0  0  0  0  0
    1.4422   -0.8704   -1.4794 H   0  0  0  0  0  0  0  0  0  0  0  0
    2.3024   -1.7190   -0.1091 H   0  0  0  0  0  0  0  0  0  0  0  0
    2.5349    1.1598   -0.6995 H   0  0  0  0  0  0  0  0  0  0  0  0
    2.8309    0.3305    0.9447 H   0  0  0  0  0  0  0  0  0  0  0  0
    0.7322    1.2071    1.5473 H   0  0  0  0  0  0  0  0  0  0  0  0
  1  2  2  0
  2  3  1  0
  3  4  1  0
  4  5  1  0
  5  6  1  0
  6  7  1  0
  7  8  1  0
  8  9  1  0
  9  1  1  0
  5  3  1  0
  9  6  1  0
  1 10  1  0
  2 11  1  0
  3 12  1  0
  4 13  1  0
  4 14  1  0
  5 15  1  0
  6 16  1  0
  7 17  1  0
  7 18  1  0
  8 19  1  0
  8 20  1  0
  9 21  1  0
M  END
