
     RDKit          3D

 18 19  0  0  0  0  0  0  0  0999 V2000
    0.7091   -1.3806    0.4247 C   0  0  0  0  0  0  0  0  0  0  0  0
   -0.3717   -0.7998   -0.0121 C   0  0  0  0  0  0  0  0  0  0  0  0
   -1.8241   -0.8873   -0.2265 C   0  0  0  0  0  0  0  0  0  0  0  0
   -2.2798    0.4205   -0.3950 O   0  0  0  0  0  0  0  0  0  0  0  0
   -1.2406    1.2718    0.0580 C   0  0  0  0  0  0  0  0  0  0  0  0
   -0.0415    0.5663   -0.5366 C   0  0  0  0  0  0  0  0  0  0  0  0
    1.2748    0.9210    0.0936 C   0  0  0  0  0  0  0  0  0  0  0  0
    1.8864   -0.4624    0.2357 C   0  0  0  0  0  0  0  0  0  0  0  0
    0.8307   -2.3881    0.8779 H   0  0  0  0  0  0  0  0  0  0  0  0
   -2.0055   -1.5139   -1.1295 H   0  0  0  0  0  0  0  0  0  0  0  0
   -2.3690   -1.3951    0.5992 H   0  0  0  0  0  0  0  0  0  0  0  0
   -1.1712    1.1585    1.1538 H   0  0  0  0  0  0  0  0  0  0  0  0
   -1.3737    2.2826   -0.3000 H   0  0  0  0  0  0  0  0  0  0  0  0
   -0.0383    0.6159   -1.6254 H   0  0  0  0  0  0  0  0  0  0  0  0
    1.8914    1.4667   -0.6505 H   0  0  0  0  0  0  0  0  0  0  0  0
    1.1962    1.4576    1.0373 H   0  0  0  0  0  0  0  0  0  0  0  0
    2.5596   -0.5449    1.1025 H   0  0  0  0  0  0  0  0  0  0  0  0
    2.3672   -0.7887   -0.7068 H   0  0  0  0  0  0  0  0  0  0  0  0
  1  2  2  0
  2  3  1  0
  3  4  1  0
  4  5  1  0
  5  6  1  0
  6  7  1  0
  7  8  1  0
  8  1  1  0
  6  2  1  0
  1  9  1  0
  3 10  1  0
  3 11  1  0
  5 12  1  0
  5 13  1  0
  6 14  1  0
  7 15  1  0
  7 16  1  0
  8 17  1  0
  8 18  1  0
M  END
