
     RDKit          3D

 25 25  0  0  0  0  0  0  0  0999 V2000
    1.8238    0.5105    0.5381 C   0  0  0  0  0  0  0  0  0  0  0  0
    0.8889    1.4518    0.4768 C   0  0  0  0  0  0  0  0  0  0  0  0
   -0.0914    1.5629   -0.6435 C   0  0  0  0  0  0  0  0  0  0  0  0
   -1.4958    1.5467   -0.1034 C   0  0  0  0  0  0  0  0  0  0  0  0
   -1.9264    0.2353    0.4504 C   0  0  0  0  0  0  0  0  0  0  0  0
   -1.2875   -0.9602   -0.1372 C   0  0  0  0  0  0  0  0  0  0  0  0
   -0.0637   -1.4362    0.6168 C   0  0  0  0  0  0  0  0  0  0  0  0
    1.0704   -1.6880   -0.3604 C   0  0  0  0  0  0  0  0  0  0  0  0
    2.0019   -0.5364   -0.4966 C   0  0  0  0  0  0  0  0  0  0  0  0
    2.4973    0.5032    1.3912 H   0  0  0  0  0  0  0  0  0  0  0  0
    0.8224    2.1853    1.2763 H   0  0  0  0  0  0  0  0  0  0  0  0
    0.0505    2.5877   -1.0987 H   0  0  0  0  0  0  0  0  0  0  0  0
    0.0894    0.8577   -1.4486 H   0  0  0  0  0  0  0  0  0  0  0  0
   -1.5499    2.3091    0.7018 H   0  0  0  0  0  0  0  0  0  0  0  0
   -2.2325    1.8637   -0.8702 H   0  0  0  0  0  0  0  0  0  0  0  0
   -3.0134    0.1552    0.3718 H   0  0  0  0  0  0  0  0  0  0  0  0
   -1.7015    0.2307    1.5570 H   0  0  0  0  0  0  0  0  0  0  0  0
   -2.0178   -1.7965   -0.1147 H   0  0  0  0  0  0  0  0  0  0  0  0
   -1.0372   -0.8270   -1.2203 H   0  0  0  0  0  0  0  0  0  0  0  0
   -0.2480   -2.4045    1.1378 H   0  0  0  0  0  0  0  0  0  0  0  0
    0.2347   -0.7255    1.4270 H   0  0  0  0  0  0  0  0  0  0  0  0
    1.6435   -2.6174   -0.0696 H   0  0  0  0  0  0  0  0  0  0  0  0
    0.6049   -1.9704   -1.3508 H   0  0  0  0  0  0  0  0  0  0  0  0
    3.0612   -0.9188   -0.4951 H   0  0  0  0  0  0  0  0  0  0  0  0
    1.8763   -0.1188   -1.5357 H   0  0  0  0  0  0  0  0  0  0  0  0
  1  2  2  3
  2  3  1  0
  3  4  1  0
  4  5  1  0
  5  6  1  0
  6  7  1  0
  7  8  1  0
  8  9  1  0
  9  1  1  0
  1 10  1  0
  2 11  1  0
  3 12  1  0
  3 13  1  0
  4 14  1  0
  4 15  1  0
  5 16  1  0
  5 17  1  0
  6 18  1  0
  6 19  1  0
  7 20  1  0
  7 21  1  0
  8 22  1  0
  8 23  1  0
  9 24  1  0
  9 25  1  0
M  END
