
     RDKit          3D

 17 19  0  0  0  0  0  0  0  0999 V2000
   -1.7229    0.5248   -0.1525 C   0  0  0  0  0  0  0  0  0  0  0  0
   -0.7517    1.4238    0.0262 C   0  0  0  0  0  0  0  0  0  0  0  0
    0.5348    0.9285    0.5151 C   0  0  0  0  0  0  0  0  0  0  0  0
    1.6903    1.4253   -0.0249 O   0  0  0  0  0  0  0  0  0  0  0  0
    2.1747    0.0911   -0.0230 C   0  0  0  0  0  0  0  0  0  0  0  0
    0.8197   -0.3519   -0.2494 C   0  0  0  0  0  0  0  0  0  0  0  0
    0.2590   -0.5722   -1.4820 O   0  0  0  0  0  0  0  0  0  0  0  0
   -0.0519   -1.3143   -0.2051 C   0  0  0  0  0  0  0  0  0  0  0  0
   -1.5009   -0.9328    0.1370 C   0  0  0  0  0  0  0  0  0  0  0  0
   -2.7132    0.7802   -0.5096 H   0  0  0  0  0  0  0  0  0  0  0  0
   -0.9892    2.4551   -0.2046 H   0  0  0  0  0  0  0  0  0  0  0  0
    0.5576    0.8105    1.6245 H   0  0  0  0  0  0  0  0  0  0  0  0
    2.5721   -0.1169    0.9885 H   0  0  0  0  0  0  0  0  0  0  0  0
    2.9205   -0.1184   -0.7912 H   0  0  0  0  0  0  0  0  0  0  0  0
    0.0363   -2.3918   -0.4323 H   0  0  0  0  0  0  0  0  0  0  0  0
   -2.2054   -1.5612   -0.4394 H   0  0  0  0  0  0  0  0  0  0  0  0
   -1.6299   -1.0799    1.2228 H   0  0  0  0  0  0  0  0  0  0  0  0
  1  2  2  0
  2  3  1  0
  3  4  1  0
  4  5  1  0
  5  6  1  0
  6  7  1  0
  7  8  1  0
  8  9  1  0
  9  1  1  0
  6  3  1  0
  8  6  1  0
  1 10  1  0
  2 11  1  0
  3 12  1  0
  5 13  1  0
  5 14  1  0
  8 15  1  0
  9 16  1  0
  9 17  1  0
M  END
