
     RDKit          3D

 16 17  0  0  0  0  0  0  0  0999 V2000
   -1.2548   -0.0146   -1.0798 C   0  0  0  0  0  0  0  0  0  0  0  0
   -0.9224    1.1351   -0.5010 C   0  0  0  0  0  0  0  0  0  0  0  0
   -0.1693    0.9090    0.7521 C   0  0  0  0  0  0  0  0  0  0  0  0
   -0.4586   -0.5761    0.9970 C   0  0  0  0  0  0  0  0  0  0  0  0
   -0.3304   -1.0372   -0.4563 C   0  0  0  0  0  0  0  0  0  0  0  0
    0.9198   -0.7659   -0.9608 O   0  0  0  0  0  0  0  0  0  0  0  0
    1.7360   -0.0226   -0.1804 C   0  0  0  0  0  0  0  0  0  0  0  0
    1.1853    1.0021    0.5192 O   0  0  0  0  0  0  0  0  0  0  0  0
   -1.9887   -0.2529   -1.8202 H   0  0  0  0  0  0  0  0  0  0  0  0
   -1.1719    2.0939   -0.8976 H   0  0  0  0  0  0  0  0  0  0  0  0
   -0.4765    1.5363    1.5841 H   0  0  0  0  0  0  0  0  0  0  0  0
    0.2724   -1.0427    1.6469 H   0  0  0  0  0  0  0  0  0  0  0  0
   -1.5006   -0.6402    1.3097 H   0  0  0  0  0  0  0  0  0  0  0  0
   -0.6835   -2.0537   -0.5907 H   0  0  0  0  0  0  0  0  0  0  0  0
    2.3028   -0.6912    0.5186 H   0  0  0  0  0  0  0  0  0  0  0  0
    2.5403    0.4208   -0.8408 H   0  0  0  0  0  0  0  0  0  0  0  0
  1  2  2  0
  2  3  1  0
  3  4  1  0
  4  5  1  0
  5  6  1  0
  6  7  1  0
  7  8  1  0
  5  1  1  0
  8  3  1  0
  1  9  1  0
  2 10  1  0
  3 11  1  0
  4 12  1  0
  4 13  1  0
  5 14  1  0
  7 15  1  0
  7 16  1  0
M  END
