
     RDKit          3D

 18 19  0  0  0  0  0  0  0  0999 V2000
    1.8221    0.4118   -0.4123 C   0  0  0  0  0  0  0  0  0  0  0  0
    1.0110    1.4252   -0.2264 C   0  0  0  0  0  0  0  0  0  0  0  0
   -0.4437    1.3021    0.0457 C   0  0  0  0  0  0  0  0  0  0  0  0
   -0.9031   -0.0869    0.3227 C   0  0  0  0  0  0  0  0  0  0  0  0
    0.2451   -0.9466    0.7740 C   0  0  0  0  0  0  0  0  0  0  0  0
    1.2779   -0.9569   -0.3521 C   0  0  0  0  0  0  0  0  0  0  0  0
   -2.0854   -0.5845   -0.3003 C   0  0  0  0  0  0  0  0  0  0  0  0
   -2.0662   -0.3037    1.0609 O   0  0  0  0  0  0  0  0  0  0  0  0
    2.8596    0.5683   -0.6043 H   0  0  0  0  0  0  0  0  0  0  0  0
    1.4123    2.4315   -0.2707 H   0  0  0  0  0  0  0  0  0  0  0  0
   -1.0262    1.6877   -0.8327 H   0  0  0  0  0  0  0  0  0  0  0  0
   -0.6487    1.9312    0.9569 H   0  0  0  0  0  0  0  0  0  0  0  0
   -0.0448   -1.9452    1.0875 H   0  0  0  0  0  0  0  0  0  0  0  0
    0.7108   -0.4485    1.6684 H   0  0  0  0  0  0  0  0  0  0  0  0
    0.7038   -1.2120   -1.2743 H   0  0  0  0  0  0  0  0  0  0  0  0
    2.0409   -1.7220   -0.1115 H   0  0  0  0  0  0  0  0  0  0  0  0
   -2.1517   -1.6486   -0.6277 H   0  0  0  0  0  0  0  0  0  0  0  0
   -2.7138    0.0970   -0.9039 H   0  0  0  0  0  0  0  0  0  0  0  0
  1  2  2  0
  2  3  1  0
  3  4  1  0
  4  5  1  0
  5  6  1  0
  4  7  1  0
  7  8  1  0
  6  1  1  0
  8  4  1  0
  1  9  1  0
  2 10  1  0
  3 11  1  0
  3 12  1  0
  5 13  1  0
  5 14  1  0
  6 15  1  0
  6 16  1  0
  7 17  1  0
  7 18  1  0
M  END
