
     RDKit          3D

 23 23  0  0  0  0  0  0  0  0999 V2000
    1.2014    1.1647   -0.7341 C   0  0  0  0  0  0  0  0  0  0  0  0
    1.7134   -0.0389   -0.6965 C   0  0  0  0  0  0  0  0  0  0  0  0
    1.6837   -0.9687    0.4492 C   0  0  0  0  0  0  0  0  0  0  0  0
    0.2470   -1.2959    0.7841 C   0  0  0  0  0  0  0  0  0  0  0  0
   -0.5487   -1.3666   -0.4887 C   0  0  0  0  0  0  0  0  0  0  0  0
   -1.4021   -0.1719   -0.7316 C   0  0  0  0  0  0  0  0  0  0  0  0
   -1.7059    0.6628    0.4592 C   0  0  0  0  0  0  0  0  0  0  0  0
   -0.7004    1.6879    0.8067 C   0  0  0  0  0  0  0  0  0  0  0  0
    0.4904    1.8800    0.3050 C   0  0  0  0  0  0  0  0  0  0  0  0
    1.3661    1.6823   -1.7150 H   0  0  0  0  0  0  0  0  0  0  0  0
    2.2321   -0.4603   -1.5862 H   0  0  0  0  0  0  0  0  0  0  0  0
    2.2748   -1.8705    0.3238 H   0  0  0  0  0  0  0  0  0  0  0  0
    2.1135   -0.4658    1.3696 H   0  0  0  0  0  0  0  0  0  0  0  0
   -0.1605   -0.5808    1.5334 H   0  0  0  0  0  0  0  0  0  0  0  0
    0.2220   -2.3414    1.2326 H   0  0  0  0  0  0  0  0  0  0  0  0
   -1.1247   -2.3224   -0.5211 H   0  0  0  0  0  0  0  0  0  0  0  0
    0.1854   -1.4260   -1.3406 H   0  0  0  0  0  0  0  0  0  0  0  0
   -2.3554   -0.5772   -1.1993 H   0  0  0  0  0  0  0  0  0  0  0  0
   -0.9695    0.4761   -1.5135 H   0  0  0  0  0  0  0  0  0  0  0  0
   -2.6901    1.1935    0.1934 H   0  0  0  0  0  0  0  0  0  0  0  0
   -2.0276    0.0394    1.3421 H   0  0  0  0  0  0  0  0  0  0  0  0
   -1.0830    2.3505    1.6164 H   0  0  0  0  0  0  0  0  0  0  0  0
    1.0380    2.7494    0.7382 H   0  0  0  0  0  0  0  0  0  0  0  0
  1  2  2  3
  2  3  1  0
  3  4  1  0
  4  5  1  0
  5  6  1  0
  6  7  1  0
  7  8  1  0
  8  9  2  3
  9  1  1  0
  1 10  1  0
  2 11  1  0
  3 12  1  0
  3 13  1  0
  4 14  1  0
  4 15  1  0
  5 16  1  0
  5 17  1  0
  6 18  1  0
  6 19  1  0
  7 20  1  0
  7 21  1  0
  8 22  1  0
  9 23  1  0
M  END
