
     RDKit          3D

 21 23  0  0  0  0  0  0  0  0999 V2000
    2.2454    0.5743    0.0772 C   0  0  0  0  0  0  0  0  0  0  0  0
    1.2979    1.3959   -0.3118 C   0  0  0  0  0  0  0  0  0  0  0  0
    0.0651    0.6984   -0.4430 C   0  0  0  0  0  0  0  0  0  0  0  0
   -0.6330    0.7079    0.9008 C   0  0  0  0  0  0  0  0  0  0  0  0
   -1.9156   -0.0235    0.7922 C   0  0  0  0  0  0  0  0  0  0  0  0
   -1.6626   -1.0030   -0.2977 C   0  0  0  0  0  0  0  0  0  0  0  0
   -0.6352   -0.2528   -1.1472 C   0  0  0  0  0  0  0  0  0  0  0  0
    0.6944   -0.6296   -0.9692 C   0  0  0  0  0  0  0  0  0  0  0  0
    1.6004   -0.7889    0.2124 C   0  0  0  0  0  0  0  0  0  0  0  0
    3.2646    0.7941    0.2660 H   0  0  0  0  0  0  0  0  0  0  0  0
    1.4665    2.4547   -0.4983 H   0  0  0  0  0  0  0  0  0  0  0  0
   -0.9081    1.8056    1.0130 H   0  0  0  0  0  0  0  0  0  0  0  0
   -0.0114    0.5081    1.7611 H   0  0  0  0  0  0  0  0  0  0  0  0
   -2.1835   -0.5210    1.7574 H   0  0  0  0  0  0  0  0  0  0  0  0
   -2.7441    0.6328    0.4809 H   0  0  0  0  0  0  0  0  0  0  0  0
   -1.2131   -1.9152    0.1659 H   0  0  0  0  0  0  0  0  0  0  0  0
   -2.5427   -1.3198   -0.8536 H   0  0  0  0  0  0  0  0  0  0  0  0
   -1.0367   -0.0521   -2.1593 H   0  0  0  0  0  0  0  0  0  0  0  0
    1.3610   -0.4780   -1.8832 H   0  0  0  0  0  0  0  0  0  0  0  0
    1.1581   -0.9989    1.1632 H   0  0  0  0  0  0  0  0  0  0  0  0
    2.3327   -1.5892   -0.0267 H   0  0  0  0  0  0  0  0  0  0  0  0
  1  2  2  0
  2  3  1  0
  3  4  1  0
  4  5  1  0
  5  6  1  0
  6  7  1  0
  7  8  1  0
  8  9  1  0
  9  1  1  0
  7  3  1  0
  8  3  1  0
  1 10  1  0
  2 11  1  0
  4 12  1  0
  4 13  1  0
  5 14  1  0
  5 15  1  0
  6 16  1  0
  6 17  1  0
  7 18  1  0
  8 19  1  0
  9 20  1  0
  9 21  1  0
M  END
