
     RDKit          3D

 17 19  0  0  0  0  0  0  0  0999 V2000
   -2.1166    0.1920    0.4156 C   0  0  0  0  0  0  0  0  0  0  0  0
   -1.2473    1.1874    0.3067 C   0  0  0  0  0  0  0  0  0  0  0  0
   -0.0647    0.6582   -0.3439 C   0  0  0  0  0  0  0  0  0  0  0  0
    0.5490    1.2081   -1.4125 O   0  0  0  0  0  0  0  0  0  0  0  0
    1.2463    1.1175   -0.2098 C   0  0  0  0  0  0  0  0  0  0  0  0
    2.0992   -0.1382    0.0010 C   0  0  0  0  0  0  0  0  0  0  0  0
    1.1004   -1.2566    0.1037 C   0  0  0  0  0  0  0  0  0  0  0  0
   -0.1108   -0.8194   -0.0864 C   0  0  0  0  0  0  0  0  0  0  0  0
   -1.5602   -1.0687   -0.1608 C   0  0  0  0  0  0  0  0  0  0  0  0
   -3.1185    0.2845    0.8722 H   0  0  0  0  0  0  0  0  0  0  0  0
   -1.4074    2.1953    0.6444 H   0  0  0  0  0  0  0  0  0  0  0  0
    1.5238    2.0586    0.2462 H   0  0  0  0  0  0  0  0  0  0  0  0
    2.6063    0.0162    0.9779 H   0  0  0  0  0  0  0  0  0  0  0  0
    2.8040   -0.2968   -0.8369 H   0  0  0  0  0  0  0  0  0  0  0  0
    1.4218   -2.2720    0.3119 H   0  0  0  0  0  0  0  0  0  0  0  0
   -1.8864   -1.9575    0.4048 H   0  0  0  0  0  0  0  0  0  0  0  0
   -1.8388   -1.1085   -1.2341 H   0  0  0  0  0  0  0  0  0  0  0  0
  1  2  2  0
  2  3  1  0
  3  4  1  0
  4  5  1  0
  5  6  1  0
  6  7  1  0
  7  8  2  0
  8  9  1  0
  9  1  1  0
  5  3  1  0
  8  3  1  0
  1 10  1  0
  2 11  1  0
  5 12  1  0
  6 13  1  0
  6 14  1  0
  7 15  1  0
  9 16  1  0
  9 17  1  0
M  END
