
     RDKit          3D

 19 20  0  0  0  0  0  0  0  0999 V2000
   -1.8837    0.2445    0.4635 C   0  0  0  0  0  0  0  0  0  0  0  0
   -1.0862    1.2834    0.2608 C   0  0  0  0  0  0  0  0  0  0  0  0
    0.0970    1.3068   -0.6115 C   0  0  0  0  0  0  0  0  0  0  0  0
    1.0835    0.2383   -0.4740 C   0  0  0  0  0  0  0  0  0  0  0  0
    1.7421    0.2247    0.9160 C   0  0  0  0  0  0  0  0  0  0  0  0
    1.0848   -0.9820    1.1371 O   0  0  0  0  0  0  0  0  0  0  0  0
    0.7558   -1.1452   -0.2356 C   0  0  0  0  0  0  0  0  0  0  0  0
   -0.5945   -1.6638   -0.4317 C   0  0  0  0  0  0  0  0  0  0  0  0
   -1.7448   -1.0878   -0.1395 C   0  0  0  0  0  0  0  0  0  0  0  0
   -2.7476    0.3656    1.1402 H   0  0  0  0  0  0  0  0  0  0  0  0
   -1.3548    2.1944    0.8037 H   0  0  0  0  0  0  0  0  0  0  0  0
    0.6530    2.2856   -0.5234 H   0  0  0  0  0  0  0  0  0  0  0  0
   -0.2822    1.2825   -1.6794 H   0  0  0  0  0  0  0  0  0  0  0  0
    1.9215    0.4304   -1.2260 H   0  0  0  0  0  0  0  0  0  0  0  0
    2.8317    0.1228    0.9084 H   0  0  0  0  0  0  0  0  0  0  0  0
    1.3349    1.0280    1.5683 H   0  0  0  0  0  0  0  0  0  0  0  0
    1.5683   -1.8299   -0.6473 H   0  0  0  0  0  0  0  0  0  0  0  0
   -0.6918   -2.6703   -0.8830 H   0  0  0  0  0  0  0  0  0  0  0  0
   -2.6870   -1.6283   -0.3466 H   0  0  0  0  0  0  0  0  0  0  0  0
  1  2  2  0
  2  3  1  0
  3  4  1  0
  4  5  1  0
  5  6  1  0
  6  7  1  0
  7  8  1  0
  8  9  2  0
  9  1  1  0
  7  4  1  0
  1 10  1  0
  2 11  1  0
  3 12  1  0
  3 13  1  0
  4 14  1  0
  5 15  1  0
  5 16  1  0
  7 17  1  0
  8 18  1  0
  9 19  1  0
M  END
