
     RDKit          3D

 23 23  0  0  0  0  0  0  0  0999 V2000
    0.4009    2.0029   -0.0568 C   0  0  0  0  0  0  0  0  0  0  0  0
   -0.8500    1.9363   -0.4108 C   0  0  0  0  0  0  0  0  0  0  0  0
   -1.7980    0.8216   -0.1790 C   0  0  0  0  0  0  0  0  0  0  0  0
   -1.4668   -0.0333    0.8365 O   0  0  0  0  0  0  0  0  0  0  0  0
   -1.3404   -1.3582    0.4320 C   0  0  0  0  0  0  0  0  0  0  0  0
    0.1254   -1.7826    0.5347 C   0  0  0  0  0  0  0  0  0  0  0  0
    0.8490   -1.1677   -0.6137 C   0  0  0  0  0  0  0  0  0  0  0  0
    1.7732   -0.0533   -0.2646 C   0  0  0  0  0  0  0  0  0  0  0  0
    1.1951    0.9750    0.6710 C   0  0  0  0  0  0  0  0  0  0  0  0
    0.9619    2.9229   -0.3181 H   0  0  0  0  0  0  0  0  0  0  0  0
   -1.2654    2.8146   -0.9512 H   0  0  0  0  0  0  0  0  0  0  0  0
   -1.9545    0.2088   -1.1094 H   0  0  0  0  0  0  0  0  0  0  0  0
   -2.8057    1.2308    0.0494 H   0  0  0  0  0  0  0  0  0  0  0  0
   -2.0089   -2.0487    0.9641 H   0  0  0  0  0  0  0  0  0  0  0  0
   -1.6465   -1.3846   -0.6451 H   0  0  0  0  0  0  0  0  0  0  0  0
    0.1794   -2.9124    0.5099 H   0  0  0  0  0  0  0  0  0  0  0  0
    0.4635   -1.4921    1.5258 H   0  0  0  0  0  0  0  0  0  0  0  0
    0.1835   -0.8200   -1.4381 H   0  0  0  0  0  0  0  0  0  0  0  0
    1.4873   -1.9642   -1.1016 H   0  0  0  0  0  0  0  0  0  0  0  0
    2.7692   -0.3926    0.0879 H   0  0  0  0  0  0  0  0  0  0  0  0
    1.9943    0.5007   -1.2260 H   0  0  0  0  0  0  0  0  0  0  0  0
    2.0926    1.4613    1.1642 H   0  0  0  0  0  0  0  0  0  0  0  0
    0.6608    0.5349    1.5388 H   0  0  0  0  0  0  0  0  0  0  0  0
  1  2  2  3
  2  3  1  0
  3  4  1  0
  4  5  1  0
  5  6  1  0
  6  7  1  0
  7  8  1  0
  8  9  1  0
  9  1  1  0
  1 10  1  0
  2 11  1  0
  3 12  1  0
  3 13  1  0
  5 14  1  0
  5 15  1  0
  6 16  1  0
  6 17  1  0
  7 18  1  0
  7 19  1  0
  8 20  1  0
  8 21  1  0
  9 22  1  0
  9 23  1  0
M  END
