
     RDKit          3D

 18 19  0  0  0  0  0  0  0  0999 V2000
   -1.7376    0.6773   -0.4284 C   0  0  0  0  0  0  0  0  0  0  0  0
   -0.4547    0.6324   -0.7575 C   0  0  0  0  0  0  0  0  0  0  0  0
    0.2903   -0.0600    0.2901 C   0  0  0  0  0  0  0  0  0  0  0  0
   -0.7254   -0.9194    0.9609 C   0  0  0  0  0  0  0  0  0  0  0  0
   -1.9534   -0.0003    0.8997 C   0  0  0  0  0  0  0  0  0  0  0  0
    1.5787   -0.7192   -0.1119 C   0  0  0  0  0  0  0  0  0  0  0  0
    2.0771    0.6726    0.2357 C   0  0  0  0  0  0  0  0  0  0  0  0
    1.0132    0.7652    1.1611 O   0  0  0  0  0  0  0  0  0  0  0  0
   -2.5477    1.1258   -1.0010 H   0  0  0  0  0  0  0  0  0  0  0  0
   -0.0243    1.0456   -1.6638 H   0  0  0  0  0  0  0  0  0  0  0  0
   -0.9032   -1.8133    0.3125 H   0  0  0  0  0  0  0  0  0  0  0  0
   -0.4422   -1.1674    1.9822 H   0  0  0  0  0  0  0  0  0  0  0  0
   -1.8846    0.6881    1.7394 H   0  0  0  0  0  0  0  0  0  0  0  0
   -2.8548   -0.6086    0.8435 H   0  0  0  0  0  0  0  0  0  0  0  0
    1.6863   -1.0164   -1.1533 H   0  0  0  0  0  0  0  0  0  0  0  0
    1.8982   -1.4351    0.6655 H   0  0  0  0  0  0  0  0  0  0  0  0
    1.9631    1.4186   -0.5560 H   0  0  0  0  0  0  0  0  0  0  0  0
    3.0209    0.7140    0.7835 H   0  0  0  0  0  0  0  0  0  0  0  0
  1  2  2  0
  2  3  1  0
  3  4  1  0
  4  5  1  0
  3  6  1  0
  6  7  1  0
  7  8  1  0
  5  1  1  0
  8  3  1  0
  1  9  1  0
  2 10  1  0
  4 11  1  0
  4 12  1  0
  5 13  1  0
  5 14  1  0
  6 15  1  0
  6 16  1  0
  7 17  1  0
  7 18  1  0
M  END
