
     RDKit          3D

 19 20  0  0  0  0  0  0  0  0999 V2000
   -0.0885    1.5888   -0.0930 C   0  0  0  0  0  0  0  0  0  0  0  0
    1.0808    1.1664   -0.5476 C   0  0  0  0  0  0  0  0  0  0  0  0
    1.6445   -0.1915   -0.3357 C   0  0  0  0  0  0  0  0  0  0  0  0
    1.0205   -1.1476   -1.1389 O   0  0  0  0  0  0  0  0  0  0  0  0
   -0.3575   -1.0134   -1.0704 C   0  0  0  0  0  0  0  0  0  0  0  0
   -0.8659   -0.6707    0.3163 C   0  0  0  0  0  0  0  0  0  0  0  0
   -1.3041    0.8014    0.2372 C   0  0  0  0  0  0  0  0  0  0  0  0
    0.1829   -0.8179    1.3614 C   0  0  0  0  0  0  0  0  0  0  0  0
    1.4706   -0.6061    0.9749 O   0  0  0  0  0  0  0  0  0  0  0  0
   -0.2246    2.6680    0.0795 H   0  0  0  0  0  0  0  0  0  0  0  0
    1.6579    1.8650   -1.1107 H   0  0  0  0  0  0  0  0  0  0  0  0
    2.7222   -0.2231   -0.5574 H   0  0  0  0  0  0  0  0  0  0  0  0
   -0.6430   -0.2613   -1.8315 H   0  0  0  0  0  0  0  0  0  0  0  0
   -0.8538   -1.9674   -1.4060 H   0  0  0  0  0  0  0  0  0  0  0  0
   -1.7540   -1.2684    0.5787 H   0  0  0  0  0  0  0  0  0  0  0  0
   -1.8013    1.1220    1.1570 H   0  0  0  0  0  0  0  0  0  0  0  0
   -1.9745    0.8647   -0.6589 H   0  0  0  0  0  0  0  0  0  0  0  0
   -0.0531   -0.0830    2.1843 H   0  0  0  0  0  0  0  0  0  0  0  0
    0.1408   -1.8259    1.8609 H   0  0  0  0  0  0  0  0  0  0  0  0
  1  2  2  0
  2  3  1  0
  3  4  1  0
  4  5  1  0
  5  6  1  0
  6  7  1  0
  6  8  1  0
  8  9  1  0
  7  1  1  0
  9  3  1  0
  1 10  1  0
  2 11  1  0
  3 12  1  0
  5 13  1  0
  5 14  1  0
  6 15  1  0
  7 16  1  0
  7 17  1  0
  8 18  1  0
  8 19  1  0
M  END
