
     RDKit          3D

 21 22  0  0  0  0  0  0  0  0999 V2000
    1.2053    1.3891   -0.1049 C   0  0  0  0  0  0  0  0  0  0  0  0
    0.1649    0.6912    0.2632 C   0  0  0  0  0  0  0  0  0  0  0  0
   -1.2481    1.0349    0.6816 C   0  0  0  0  0  0  0  0  0  0  0  0
   -2.1434    0.2778   -0.2773 C   0  0  0  0  0  0  0  0  0  0  0  0
   -1.7178   -1.1539   -0.3273 C   0  0  0  0  0  0  0  0  0  0  0  0
   -0.3992   -1.3467   -0.6798 O   0  0  0  0  0  0  0  0  0  0  0  0
    0.4364   -0.7796    0.2721 C   0  0  0  0  0  0  0  0  0  0  0  0
    1.8832   -0.8825   -0.0291 C   0  0  0  0  0  0  0  0  0  0  0  0
    2.3430    0.4883   -0.4025 C   0  0  0  0  0  0  0  0  0  0  0  0
    1.2535    2.4681   -0.1880 H   0  0  0  0  0  0  0  0  0  0  0  0
   -1.4197    2.1107    0.6845 H   0  0  0  0  0  0  0  0  0  0  0  0
   -1.3814    0.5825    1.6848 H   0  0  0  0  0  0  0  0  0  0  0  0
   -3.2067    0.3063    0.0163 H   0  0  0  0  0  0  0  0  0  0  0  0
   -1.9680    0.7220   -1.2822 H   0  0  0  0  0  0  0  0  0  0  0  0
   -2.3803   -1.6740   -1.0679 H   0  0  0  0  0  0  0  0  0  0  0  0
   -1.9615   -1.6092    0.6610 H   0  0  0  0  0  0  0  0  0  0  0  0
    0.1483   -1.1319    1.2912 H   0  0  0  0  0  0  0  0  0  0  0  0
    2.1308   -1.6183   -0.8303 H   0  0  0  0  0  0  0  0  0  0  0  0
    2.4125   -1.2310    0.8907 H   0  0  0  0  0  0  0  0  0  0  0  0
    3.2410    0.7570    0.2174 H   0  0  0  0  0  0  0  0  0  0  0  0
    2.6073    0.5993   -1.4734 H   0  0  0  0  0  0  0  0  0  0  0  0
  1  2  2  0
  2  3  1  0
  3  4  1  0
  4  5  1  0
  5  6  1  0
  6  7  1  0
  7  8  1  0
  8  9  1  0
  9  1  1  0
  7  2  1  0
  1 10  1  0
  3 11  1  0
  3 12  1  0
  4 13  1  0
  4 14  1  0
  5 15  1  0
  5 16  1  0
  7 17  1  0
  8 18  1  0
  8 19  1  0
  9 20  1  0
  9 21  1  0
M  END
