
     RDKit          3D

 19 20  0  0  0  0  0  0  0  0999 V2000
    0.7183   -0.3067    1.2161 C   0  0  0  0  0  0  0  0  0  0  0  0
    1.1151    0.8536    0.7282 C   0  0  0  0  0  0  0  0  0  0  0  0
    0.6564    1.1922   -0.6801 C   0  0  0  0  0  0  0  0  0  0  0  0
   -0.6598    1.7041   -0.5731 O   0  0  0  0  0  0  0  0  0  0  0  0
   -1.3595    0.9254    0.3394 C   0  0  0  0  0  0  0  0  0  0  0  0
   -1.3310   -0.5005   -0.1647 C   0  0  0  0  0  0  0  0  0  0  0  0
   -0.0295   -1.1585    0.2561 C   0  0  0  0  0  0  0  0  0  0  0  0
    0.8726   -1.1100   -0.9911 C   0  0  0  0  0  0  0  0  0  0  0  0
    0.7193    0.1353   -1.5406 O   0  0  0  0  0  0  0  0  0  0  0  0
    0.8902   -0.6520    2.1986 H   0  0  0  0  0  0  0  0  0  0  0  0
    1.7369    1.5651    1.2630 H   0  0  0  0  0  0  0  0  0  0  0  0
    1.2647    2.0324   -1.0751 H   0  0  0  0  0  0  0  0  0  0  0  0
   -0.8664    0.9520    1.3472 H   0  0  0  0  0  0  0  0  0  0  0  0
   -2.4099    1.2600    0.4294 H   0  0  0  0  0  0  0  0  0  0  0  0
   -2.2121   -1.0088    0.2575 H   0  0  0  0  0  0  0  0  0  0  0  0
   -1.4429   -0.4984   -1.2651 H   0  0  0  0  0  0  0  0  0  0  0  0
   -0.1819   -2.1848    0.6041 H   0  0  0  0  0  0  0  0  0  0  0  0
    0.5878   -1.9082   -1.6639 H   0  0  0  0  0  0  0  0  0  0  0  0
    1.9318   -1.2922   -0.6859 H   0  0  0  0  0  0  0  0  0  0  0  0
  1  2  2  0
  2  3  1  0
  3  4  1  0
  4  5  1  0
  5  6  1  0
  6  7  1  0
  7  8  1  0
  8  9  1  0
  7  1  1  0
  9  3  1  0
  1 10  1  0
  2 11  1  0
  3 12  1  0
  5 13  1  0
  5 14  1  0
  6 15  1  0
  6 16  1  0
  7 17  1  0
  8 18  1  0
  8 19  1  0
M  END
