
     RDKit          3D

 19 21  0  0  0  0  0  0  0  0999 V2000
    1.3685   -1.2655   -0.3671 C   0  0  0  0  0  0  0  0  0  0  0  0
    1.8954   -0.0573   -0.4821 C   0  0  0  0  0  0  0  0  0  0  0  0
    0.9569    0.9859    0.0438 C   0  0  0  0  0  0  0  0  0  0  0  0
    0.0301    1.3997   -0.8981 O   0  0  0  0  0  0  0  0  0  0  0  0
   -1.1679    0.7915   -0.6157 C   0  0  0  0  0  0  0  0  0  0  0  0
   -0.9946   -0.6958   -0.8216 C   0  0  0  0  0  0  0  0  0  0  0  0
    0.0303   -1.1027    0.2480 C   0  0  0  0  0  0  0  0  0  0  0  0
    0.1750    0.1261    1.0487 C   0  0  0  0  0  0  0  0  0  0  0  0
   -1.1611    0.8162    0.9235 C   0  0  0  0  0  0  0  0  0  0  0  0
    1.7708   -2.2387   -0.6443 H   0  0  0  0  0  0  0  0  0  0  0  0
    2.8738    0.1452   -0.9007 H   0  0  0  0  0  0  0  0  0  0  0  0
    1.4716    1.8194    0.5287 H   0  0  0  0  0  0  0  0  0  0  0  0
   -2.0394    1.2270   -1.0480 H   0  0  0  0  0  0  0  0  0  0  0  0
   -1.8907   -1.2812   -0.6346 H   0  0  0  0  0  0  0  0  0  0  0  0
   -0.5708   -0.8295   -1.8454 H   0  0  0  0  0  0  0  0  0  0  0  0
   -0.3050   -1.9964    0.7987 H   0  0  0  0  0  0  0  0  0  0  0  0
    0.6009    0.0782    2.0155 H   0  0  0  0  0  0  0  0  0  0  0  0
   -1.0499    1.8314    1.3087 H   0  0  0  0  0  0  0  0  0  0  0  0
   -1.9940    0.2464    1.3421 H   0  0  0  0  0  0  0  0  0  0  0  0
  1  2  2  0
  2  3  1  0
  3  4  1  0
  4  5  1  0
  5  6  1  0
  6  7  1  0
  7  8  1  0
  8  9  1  0
  7  1  1  0
  8  3  1  0
  9  5  1  0
  1 10  1  0
  2 11  1  0
  3 12  1  0
  5 13  1  0
  6 14  1  0
  6 15  1  0
  7 16  1  0
  8 17  1  0
  9 18  1  0
  9 19  1  0
M  END
