
     RDKit          3D

 17 18  0  0  0  0  0  0  0  0999 V2000
    1.3908   -1.0302   -0.1127 C   0  0  0  0  0  0  0  0  0  0  0  0
    0.2323   -1.5319   -0.5061 C   0  0  0  0  0  0  0  0  0  0  0  0
   -1.0403   -0.7680   -0.5442 C   0  0  0  0  0  0  0  0  0  0  0  0
   -1.3459   -0.1750    0.8183 C   0  0  0  0  0  0  0  0  0  0  0  0
   -1.4709    1.1943    0.5925 O   0  0  0  0  0  0  0  0  0  0  0  0
   -0.5032    1.4059   -0.3844 C   0  0  0  0  0  0  0  0  0  0  0  0
    0.8698    1.3882    0.1321 C   0  0  0  0  0  0  0  0  0  0  0  0
    1.7302    0.3807    0.2120 C   0  0  0  0  0  0  0  0  0  0  0  0
   -0.7702    0.3912   -1.2908 O   0  0  0  0  0  0  0  0  0  0  0  0
    2.1885   -1.7445   -0.0174 H   0  0  0  0  0  0  0  0  0  0  0  0
    0.1695   -2.5560   -0.8261 H   0  0  0  0  0  0  0  0  0  0  0  0
   -1.8843   -1.3429   -0.9462 H   0  0  0  0  0  0  0  0  0  0  0  0
   -2.2977   -0.5442    1.2413 H   0  0  0  0  0  0  0  0  0  0  0  0
   -0.4774   -0.3144    1.4906 H   0  0  0  0  0  0  0  0  0  0  0  0
   -0.7627    2.3638   -0.8836 H   0  0  0  0  0  0  0  0  0  0  0  0
    1.2328    2.3239    0.4986 H   0  0  0  0  0  0  0  0  0  0  0  0
    2.7387    0.5592    0.5261 H   0  0  0  0  0  0  0  0  0  0  0  0
  1  2  2  0
  2  3  1  0
  3  4  1  0
  4  5  1  0
  5  6  1  0
  6  7  1  0
  7  8  2  0
  6  9  1  0
  8  1  1  0
  9  3  1  0
  1 10  1  0
  2 11  1  0
  3 12  1  0
  4 13  1  0
  4 14  1  0
  6 15  1  0
  7 16  1  0
  8 17  1  0
M  END
