
     RDKit          3D

 17 19  0  0  0  0  0  0  0  0999 V2000
    1.7323    0.1275    0.7890 C   0  0  0  0  0  0  0  0  0  0  0  0
    0.5517    0.6835    1.0036 C   0  0  0  0  0  0  0  0  0  0  0  0
   -0.3301    0.1214   -0.0978 C   0  0  0  0  0  0  0  0  0  0  0  0
   -1.6068    0.8252   -0.3363 C   0  0  0  0  0  0  0  0  0  0  0  0
   -2.2474   -0.1437    0.4466 O   0  0  0  0  0  0  0  0  0  0  0  0
   -1.1626   -1.0186    0.2131 C   0  0  0  0  0  0  0  0  0  0  0  0
    0.6822    0.1480   -1.1781 C   0  0  0  0  0  0  0  0  0  0  0  0
    1.6148   -0.6333   -1.6446 O   0  0  0  0  0  0  0  0  0  0  0  0
    1.6419   -0.7343   -0.3510 C   0  0  0  0  0  0  0  0  0  0  0  0
    2.5940    0.3422    1.4257 H   0  0  0  0  0  0  0  0  0  0  0  0
    0.1947    1.3737    1.7425 H   0  0  0  0  0  0  0  0  0  0  0  0
   -1.6065    1.8397    0.0884 H   0  0  0  0  0  0  0  0  0  0  0  0
   -1.9563    0.7890   -1.3801 H   0  0  0  0  0  0  0  0  0  0  0  0
   -1.3765   -1.6966   -0.6142 H   0  0  0  0  0  0  0  0  0  0  0  0
   -0.9361   -1.5228    1.1969 H   0  0  0  0  0  0  0  0  0  0  0  0
    1.0119    1.2376   -1.2876 H   0  0  0  0  0  0  0  0  0  0  0  0
    1.1987   -1.7385   -0.0160 H   0  0  0  0  0  0  0  0  0  0  0  0
  1  2  2  0
  2  3  1  0
  3  4  1  0
  4  5  1  0
  5  6  1  0
  3  7  1  0
  7  8  1  0
  8  9  1  0
  9  1  1  0
  6  3  1  0
  9  7  1  0
  1 10  1  0
  2 11  1  0
  4 12  1  0
  4 13  1  0
  6 14  1  0
  6 15  1  0
  7 16  1  0
  9 17  1  0
M  END
