
     RDKit          3D

 17 19  0  0  0  0  0  0  0  0999 V2000
    1.4194   -1.0972   -0.2439 C   0  0  0  0  0  0  0  0  0  0  0  0
    0.1133   -1.2783   -0.3560 C   0  0  0  0  0  0  0  0  0  0  0  0
   -0.8649   -0.1853   -0.6312 C   0  0  0  0  0  0  0  0  0  0  0  0
   -2.1390   -0.3233   -0.0629 C   0  0  0  0  0  0  0  0  0  0  0  0
   -1.3782    0.6417    0.6218 C   0  0  0  0  0  0  0  0  0  0  0  0
   -0.1372    0.6506    1.1867 O   0  0  0  0  0  0  0  0  0  0  0  0
    0.6363    1.1496    0.1058 C   0  0  0  0  0  0  0  0  0  0  0  0
    1.8887    0.2828    0.0967 C   0  0  0  0  0  0  0  0  0  0  0  0
   -0.1002    0.8452   -1.0679 O   0  0  0  0  0  0  0  0  0  0  0  0
    2.1410   -1.8976   -0.3876 H   0  0  0  0  0  0  0  0  0  0  0  0
   -0.2672   -2.2825   -0.2416 H   0  0  0  0  0  0  0  0  0  0  0  0
   -3.0352   -0.0123   -0.6613 H   0  0  0  0  0  0  0  0  0  0  0  0
   -2.3982   -1.2769    0.4848 H   0  0  0  0  0  0  0  0  0  0  0  0
   -1.6640    1.7187    0.3996 H   0  0  0  0  0  0  0  0  0  0  0  0
    0.8458    2.2124    0.2015 H   0  0  0  0  0  0  0  0  0  0  0  0
    2.6543    0.6444   -0.5948 H   0  0  0  0  0  0  0  0  0  0  0  0
    2.2853    0.2080    1.1503 H   0  0  0  0  0  0  0  0  0  0  0  0
  1  2  2  0
  2  3  1  0
  3  4  1  0
  4  5  1  0
  5  6  1  0
  6  7  1  0
  7  8  1  0
  7  9  1  0
  8  1  1  0
  5  3  1  0
  9  3  1  0
  1 10  1  0
  2 11  1  0
  4 12  1  0
  4 13  1  0
  5 14  1  0
  7 15  1  0
  8 16  1  0
  8 17  1  0
M  END
