
     RDKit          3D

 18 19  0  0  0  0  0  0  0  0999 V2000
    1.2725    1.2692   -0.0077 C   0  0  0  0  0  0  0  0  0  0  0  0
    1.8510    0.0804    0.0967 C   0  0  0  0  0  0  0  0  0  0  0  0
    0.9588   -1.0870    0.2949 C   0  0  0  0  0  0  0  0  0  0  0  0
   -0.1789   -0.9886   -0.6929 C   0  0  0  0  0  0  0  0  0  0  0  0
   -1.3244   -1.6998   -0.3371 O   0  0  0  0  0  0  0  0  0  0  0  0
   -1.7543   -0.5791    0.4082 C   0  0  0  0  0  0  0  0  0  0  0  0
   -0.9554    0.2780   -0.5061 C   0  0  0  0  0  0  0  0  0  0  0  0
   -0.1792    1.4061    0.0706 C   0  0  0  0  0  0  0  0  0  0  0  0
    1.8761    2.1634   -0.1528 H   0  0  0  0  0  0  0  0  0  0  0  0
    2.9479   -0.0313    0.0381 H   0  0  0  0  0  0  0  0  0  0  0  0
    0.5453   -1.0410    1.3266 H   0  0  0  0  0  0  0  0  0  0  0  0
    1.5122   -2.0243    0.1547 H   0  0  0  0  0  0  0  0  0  0  0  0
    0.1805   -1.1620   -1.7247 H   0  0  0  0  0  0  0  0  0  0  0  0
   -2.8442   -0.3851    0.2941 H   0  0  0  0  0  0  0  0  0  0  0  0
   -1.4536   -0.6547    1.4537 H   0  0  0  0  0  0  0  0  0  0  0  0
   -1.5172    0.5684   -1.4156 H   0  0  0  0  0  0  0  0  0  0  0  0
   -0.4703    2.3455   -0.4411 H   0  0  0  0  0  0  0  0  0  0  0  0
   -0.4667    1.5419    1.1404 H   0  0  0  0  0  0  0  0  0  0  0  0
  1  2  2  0
  2  3  1  0
  3  4  1  0
  4  5  1  0
  5  6  1  0
  6  7  1  0
  7  8  1  0
  8  1  1  0
  7  4  1  0
  1  9  1  0
  2 10  1  0
  3 11  1  0
  3 12  1  0
  4 13  1  0
  6 14  1  0
  6 15  1  0
  7 16  1  0
  8 17  1  0
  8 18  1  0
M  END
