
     RDKit          3D

 18 20  0  0  0  0  0  0  0  0999 V2000
    0.8683    1.6955    0.0554 C   0  0  0  0  0  0  0  0  0  0  0  0
   -0.3962    1.3997    0.0733 C   0  0  0  0  0  0  0  0  0  0  0  0
   -0.6135   -0.0241   -0.0215 C   0  0  0  0  0  0  0  0  0  0  0  0
   -1.4521   -0.6088    1.0767 C   0  0  0  0  0  0  0  0  0  0  0  0
   -1.8913   -0.6543   -0.3671 C   0  0  0  0  0  0  0  0  0  0  0  0
    0.6982   -0.6440   -0.2902 C   0  0  0  0  0  0  0  0  0  0  0  0
    1.6381   -0.6537    0.8652 C   0  0  0  0  0  0  0  0  0  0  0  0
    1.6825    0.4967   -0.0559 C   0  0  0  0  0  0  0  0  0  0  0  0
    1.2788    2.7066    0.1153 H   0  0  0  0  0  0  0  0  0  0  0  0
   -1.2480    2.1152    0.1504 H   0  0  0  0  0  0  0  0  0  0  0  0
   -1.9658    0.0602    1.7765 H   0  0  0  0  0  0  0  0  0  0  0  0
   -1.1167   -1.5690    1.5605 H   0  0  0  0  0  0  0  0  0  0  0  0
   -2.7751   -0.0650   -0.6075 H   0  0  0  0  0  0  0  0  0  0  0  0
   -1.8205   -1.6230   -0.9160 H   0  0  0  0  0  0  0  0  0  0  0  0
    0.8948   -1.2528   -1.1985 H   0  0  0  0  0  0  0  0  0  0  0  0
    2.4974   -1.3624    0.7711 H   0  0  0  0  0  0  0  0  0  0  0  0
    1.1982   -0.5980    1.8637 H   0  0  0  0  0  0  0  0  0  0  0  0
    2.5228    0.5813   -0.7871 H   0  0  0  0  0  0  0  0  0  0  0  0
  1  2  2  0
  2  3  1  0
  3  4  1  0
  4  5  1  0
  3  6  1  0
  6  7  1  0
  7  8  1  0
  8  1  1  0
  5  3  1  0
  8  6  1  0
  1  9  1  0
  2 10  1  0
  4 11  1  0
  4 12  1  0
  5 13  1  0
  5 14  1  0
  6 15  1  0
  7 16  1  0
  7 17  1  0
  8 18  1  0
M  END
