
     RDKit          3D

 19 21  0  0  0  0  0  0  0  0999 V2000
   -1.8696    0.1967    0.2469 C   0  0  0  0  0  0  0  0  0  0  0  0
   -1.7080   -0.9287   -0.4446 C   0  0  0  0  0  0  0  0  0  0  0  0
   -0.2846   -1.1195   -0.8757 C   0  0  0  0  0  0  0  0  0  0  0  0
    0.5221   -1.1553    0.4397 C   0  0  0  0  0  0  0  0  0  0  0  0
    1.5696   -0.1837    0.0396 C   0  0  0  0  0  0  0  0  0  0  0  0
    1.7136    1.2090    0.1259 C   0  0  0  0  0  0  0  0  0  0  0  0
    0.4574    0.8447   -0.4237 C   0  0  0  0  0  0  0  0  0  0  0  0
   -0.7242    1.0654    0.4835 C   0  0  0  0  0  0  0  0  0  0  0  0
    0.0582    0.1218   -1.4759 O   0  0  0  0  0  0  0  0  0  0  0  0
   -2.8511    0.4519    0.6241 H   0  0  0  0  0  0  0  0  0  0  0  0
   -2.5121   -1.5868   -0.6469 H   0  0  0  0  0  0  0  0  0  0  0  0
   -0.1118   -1.9714   -1.5074 H   0  0  0  0  0  0  0  0  0  0  0  0
    0.9470   -2.1670    0.5796 H   0  0  0  0  0  0  0  0  0  0  0  0
   -0.0495   -0.8183    1.2960 H   0  0  0  0  0  0  0  0  0  0  0  0
    2.1520   -0.6692   -0.8109 H   0  0  0  0  0  0  0  0  0  0  0  0
    1.7772    1.6890    1.1244 H   0  0  0  0  0  0  0  0  0  0  0  0
    2.4216    1.7503   -0.5712 H   0  0  0  0  0  0  0  0  0  0  0  0
   -1.0714    2.1179    0.2360 H   0  0  0  0  0  0  0  0  0  0  0  0
   -0.4361    1.1534    1.5605 H   0  0  0  0  0  0  0  0  0  0  0  0
  1  2  2  0
  2  3  1  0
  3  4  1  0
  4  5  1  0
  5  6  1  0
  6  7  1  0
  7  8  1  0
  7  9  1  0
  8  1  1  0
  9  3  1  0
  7  5  1  0
  1 10  1  0
  2 11  1  0
  3 12  1  0
  4 13  1  0
  4 14  1  0
  5 15  1  0
  6 16  1  0
  6 17  1  0
  8 18  1  0
  8 19  1  0
M  END
