
     RDKit          3D

 17 19  0  0  0  0  0  0  0  0999 V2000
    0.9576    1.5019   -0.2024 C   0  0  0  0  0  0  0  0  0  0  0  0
   -0.3428    1.7858   -0.1756 C   0  0  0  0  0  0  0  0  0  0  0  0
   -1.1351    0.4876   -0.2359 C   0  0  0  0  0  0  0  0  0  0  0  0
   -0.5672   -0.1312   -1.3831 O   0  0  0  0  0  0  0  0  0  0  0  0
    0.5080   -0.8149   -0.8126 C   0  0  0  0  0  0  0  0  0  0  0  0
   -0.3120   -1.6520    0.1910 C   0  0  0  0  0  0  0  0  0  0  0  0
   -0.7257   -0.3673    0.9454 C   0  0  0  0  0  0  0  0  0  0  0  0
    0.5529   -0.0373    1.4017 O   0  0  0  0  0  0  0  0  0  0  0  0
    1.2474    0.0821    0.1654 C   0  0  0  0  0  0  0  0  0  0  0  0
    1.7377    2.1911   -0.4546 H   0  0  0  0  0  0  0  0  0  0  0  0
   -0.7917    2.7464   -0.1217 H   0  0  0  0  0  0  0  0  0  0  0  0
   -2.1970    0.6559   -0.3290 H   0  0  0  0  0  0  0  0  0  0  0  0
    1.1108   -1.3906   -1.4688 H   0  0  0  0  0  0  0  0  0  0  0  0
   -1.1914   -2.0913   -0.2639 H   0  0  0  0  0  0  0  0  0  0  0  0
    0.3134   -2.2953    0.7964 H   0  0  0  0  0  0  0  0  0  0  0  0
   -1.4655   -0.5275    1.6889 H   0  0  0  0  0  0  0  0  0  0  0  0
    2.3007   -0.1433    0.2588 H   0  0  0  0  0  0  0  0  0  0  0  0
  1  2  2  0
  2  3  1  0
  3  4  1  0
  4  5  1  0
  5  6  1  0
  6  7  1  0
  7  8  1  0
  8  9  1  0
  9  1  1  0
  7  3  1  0
  9  5  1  0
  1 10  1  0
  2 11  1  0
  3 12  1  0
  5 13  1  0
  6 14  1  0
  6 15  1  0
  7 16  1  0
  9 17  1  0
M  END
