
     RDKit          3D

 19 21  0  0  0  0  0  0  0  0999 V2000
    2.1492    0.1466   -0.5117 C   0  0  0  0  0  0  0  0  0  0  0  0
    1.3200   -0.4924   -1.3318 C   0  0  0  0  0  0  0  0  0  0  0  0
    0.1036   -0.9397   -0.6688 C   0  0  0  0  0  0  0  0  0  0  0  0
    0.3315   -0.5898    0.8175 C   0  0  0  0  0  0  0  0  0  0  0  0
    1.5873    0.2200    0.8611 C   0  0  0  0  0  0  0  0  0  0  0  0
   -0.7958   -0.0803    0.0733 C   0  0  0  0  0  0  0  0  0  0  0  0
   -2.2193   -0.3511    0.3288 C   0  0  0  0  0  0  0  0  0  0  0  0
   -2.4451    1.0456    0.2689 O   0  0  0  0  0  0  0  0  0  0  0  0
   -1.1374    1.3119   -0.2057 C   0  0  0  0  0  0  0  0  0  0  0  0
    3.1180    0.5735   -0.7706 H   0  0  0  0  0  0  0  0  0  0  0  0
    1.5522   -0.6491   -2.3803 H   0  0  0  0  0  0  0  0  0  0  0  0
   -0.2560   -1.9896   -0.8762 H   0  0  0  0  0  0  0  0  0  0  0  0
    0.1744   -1.3941    1.5542 H   0  0  0  0  0  0  0  0  0  0  0  0
    2.2829   -0.2212    1.6128 H   0  0  0  0  0  0  0  0  0  0  0  0
    1.4114    1.2865    1.0906 H   0  0  0  0  0  0  0  0  0  0  0  0
   -2.4344   -0.6727    1.3837 H   0  0  0  0  0  0  0  0  0  0  0  0
   -2.8000   -0.9335   -0.3866 H   0  0  0  0  0  0  0  0  0  0  0  0
   -0.6978    2.1047    0.4188 H   0  0  0  0  0  0  0  0  0  0  0  0
   -1.2446    1.6248   -1.2779 H   0  0  0  0  0  0  0  0  0  0  0  0
  1  2  2  0
  2  3  1  0
  3  4  1  0
  4  5  1  0
  4  6  1  0
  6  7  1  0
  7  8  1  0
  8  9  1  0
  5  1  1  0
  9  6  1  0
  6  3  1  0
  1 10  1  0
  2 11  1  0
  3 12  1  0
  4 13  1  0
  5 14  1  0
  5 15  1  0
  7 16  1  0
  7 17  1  0
  9 18  1  0
  9 19  1  0
M  END
