
     RDKit          3D

 17 19  0  0  0  0  0  0  0  0999 V2000
   -1.3586    1.0599   -0.1513 C   0  0  0  0  0  0  0  0  0  0  0  0
   -0.1979    0.4704   -0.3662 C   0  0  0  0  0  0  0  0  0  0  0  0
   -0.4764   -1.0178   -0.1456 C   0  0  0  0  0  0  0  0  0  0  0  0
   -1.4886   -0.9473    0.7729 O   0  0  0  0  0  0  0  0  0  0  0  0
   -2.3841    0.0226    0.2085 C   0  0  0  0  0  0  0  0  0  0  0  0
    0.7304   -1.5341    0.2787 O   0  0  0  0  0  0  0  0  0  0  0  0
    1.4415   -0.4743    0.6733 C   0  0  0  0  0  0  0  0  0  0  0  0
    2.3960    0.3944    0.1126 C   0  0  0  0  0  0  0  0  0  0  0  0
    1.2355    0.3530   -0.6696 C   0  0  0  0  0  0  0  0  0  0  0  0
   -1.4553    2.1323   -0.2450 H   0  0  0  0  0  0  0  0  0  0  0  0
   -0.8009   -1.4643   -1.1178 H   0  0  0  0  0  0  0  0  0  0  0  0
   -3.0399    0.4600    0.9579 H   0  0  0  0  0  0  0  0  0  0  0  0
   -2.8788   -0.4273   -0.6461 H   0  0  0  0  0  0  0  0  0  0  0  0
    0.9305   -0.0447    1.5932 H   0  0  0  0  0  0  0  0  0  0  0  0
    2.6645    1.3480    0.6312 H   0  0  0  0  0  0  0  0  0  0  0  0
    3.3508   -0.0683   -0.2695 H   0  0  0  0  0  0  0  0  0  0  0  0
    1.3314   -0.2625   -1.6173 H   0  0  0  0  0  0  0  0  0  0  0  0
  1  2  2  0
  2  3  1  0
  3  4  1  0
  4  5  1  0
  3  6  1  0
  6  7  1  0
  7  8  1  0
  8  9  1  0
  5  1  1  0
  9  7  1  0
  9  2  1  0
  1 10  1  0
  3 11  1  0
  5 12  1  0
  5 13  1  0
  7 14  1  0
  8 15  1  0
  8 16  1  0
  9 17  1  0
M  END
