
     RDKit          3D

 21 21  0  0  0  0  0  0  0  0999 V2000
   -0.7258    1.6739   -0.9387 C   0  0  0  0  0  0  0  0  0  0  0  0
    0.5314    1.8314   -0.6212 C   0  0  0  0  0  0  0  0  0  0  0  0
    1.3777    1.0373    0.2794 C   0  0  0  0  0  0  0  0  0  0  0  0
    0.6432    0.4392    1.4463 C   0  0  0  0  0  0  0  0  0  0  0  0
    0.2617   -0.8256    1.4717 C   0  0  0  0  0  0  0  0  0  0  0  0
    0.5215   -1.7783    0.3468 C   0  0  0  0  0  0  0  0  0  0  0  0
   -0.2959   -1.3988   -0.8754 C   0  0  0  0  0  0  0  0  0  0  0  0
   -1.5192   -0.6301   -0.4465 C   0  0  0  0  0  0  0  0  0  0  0  0
   -1.6577    0.6604   -0.4894 C   0  0  0  0  0  0  0  0  0  0  0  0
   -1.1507    2.4225   -1.6567 H   0  0  0  0  0  0  0  0  0  0  0  0
    1.0680    2.6867   -1.0912 H   0  0  0  0  0  0  0  0  0  0  0  0
    2.2357    1.6657    0.6779 H   0  0  0  0  0  0  0  0  0  0  0  0
    1.9385    0.2260   -0.2775 H   0  0  0  0  0  0  0  0  0  0  0  0
    0.4521    1.1298    2.2650 H   0  0  0  0  0  0  0  0  0  0  0  0
   -0.2555   -1.1752    2.3398 H   0  0  0  0  0  0  0  0  0  0  0  0
    1.6044   -1.7440    0.1120 H   0  0  0  0  0  0  0  0  0  0  0  0
    0.2998   -2.8227    0.6402 H   0  0  0  0  0  0  0  0  0  0  0  0
   -0.5768   -2.3464   -1.3775 H   0  0  0  0  0  0  0  0  0  0  0  0
    0.2247   -0.7905   -1.6085 H   0  0  0  0  0  0  0  0  0  0  0  0
   -2.3307   -1.2806   -0.0736 H   0  0  0  0  0  0  0  0  0  0  0  0
   -2.6463    1.0193   -0.1226 H   0  0  0  0  0  0  0  0  0  0  0  0
  1  2  2  3
  2  3  1  0
  3  4  1  0
  4  5  2  3
  5  6  1  0
  6  7  1  0
  7  8  1  0
  8  9  2  3
  9  1  1  0
  1 10  1  0
  2 11  1  0
  3 12  1  0
  3 13  1  0
  4 14  1  0
  5 15  1  0
  6 16  1  0
  6 17  1  0
  7 18  1  0
  7 19  1  0
  8 20  1  0
  9 21  1  0
M  END
