
     RDKit          3D

 18 20  0  0  0  0  0  0  0  0999 V2000
   -1.9806    0.0123    0.5190 C   0  0  0  0  0  0  0  0  0  0  0  0
   -1.2570    1.1131    0.4119 C   0  0  0  0  0  0  0  0  0  0  0  0
   -0.0876    0.9067   -0.4984 C   0  0  0  0  0  0  0  0  0  0  0  0
   -0.0590   -0.5780   -0.6819 C   0  0  0  0  0  0  0  0  0  0  0  0
   -1.4171   -1.0643   -0.2832 C   0  0  0  0  0  0  0  0  0  0  0  0
    1.0186   -0.6403    0.3633 C   0  0  0  0  0  0  0  0  0  0  0  0
    2.3154   -0.0469   -0.0696 C   0  0  0  0  0  0  0  0  0  0  0  0
    1.2182    0.8648    0.2528 C   0  0  0  0  0  0  0  0  0  0  0  0
   -2.8956   -0.0657    1.1427 H   0  0  0  0  0  0  0  0  0  0  0  0
   -1.5120    2.0498    0.9416 H   0  0  0  0  0  0  0  0  0  0  0  0
   -0.0719    1.5257   -1.3983 H   0  0  0  0  0  0  0  0  0  0  0  0
    0.2547   -0.8878   -1.7047 H   0  0  0  0  0  0  0  0  0  0  0  0
   -2.0141   -1.1435   -1.2357 H   0  0  0  0  0  0  0  0  0  0  0  0
   -1.4023   -2.0515    0.2181 H   0  0  0  0  0  0  0  0  0  0  0  0
    0.8602   -1.0893    1.3364 H   0  0  0  0  0  0  0  0  0  0  0  0
    3.1721   -0.0473    0.6072 H   0  0  0  0  0  0  0  0  0  0  0  0
    2.5952   -0.2870   -1.1261 H   0  0  0  0  0  0  0  0  0  0  0  0
    1.2627    1.4292    1.2050 H   0  0  0  0  0  0  0  0  0  0  0  0
  1  2  2  0
  2  3  1  0
  3  4  1  0
  4  5  1  0
  4  6  1  0
  6  7  1  0
  7  8  1  0
  5  1  1  0
  8  6  1  0
  8  3  1  0
  1  9  1  0
  2 10  1  0
  3 11  1  0
  4 12  1  0
  5 13  1  0
  5 14  1  0
  6 15  1  0
  7 16  1  0
  7 17  1  0
  8 18  1  0
M  END
