
     RDKit          3D

 17 19  0  0  0  0  0  0  0  0999 V2000
   -0.2235    0.5233    0.8067 C   0  0  0  0  0  0  0  0  0  0  0  0
    0.1857    0.0724   -0.3806 C   0  0  0  0  0  0  0  0  0  0  0  0
    1.5432   -0.2756   -0.8691 C   0  0  0  0  0  0  0  0  0  0  0  0
    2.6517   -0.1113    0.0797 C   0  0  0  0  0  0  0  0  0  0  0  0
    2.4553    0.7780   -1.0695 O   0  0  0  0  0  0  0  0  0  0  0  0
   -1.1320    0.0089   -1.1124 C   0  0  0  0  0  0  0  0  0  0  0  0
   -2.0007   -0.6618   -0.0761 C   0  0  0  0  0  0  0  0  0  0  0  0
   -1.6869    0.6653    0.5703 C   0  0  0  0  0  0  0  0  0  0  0  0
   -1.7492    1.1980   -0.7382 O   0  0  0  0  0  0  0  0  0  0  0  0
    0.2908    0.7473    1.7246 H   0  0  0  0  0  0  0  0  0  0  0  0
    1.6349   -1.1026   -1.6018 H   0  0  0  0  0  0  0  0  0  0  0  0
    3.5142   -0.7846   -0.0043 H   0  0  0  0  0  0  0  0  0  0  0  0
    2.5285    0.4729    1.0171 H   0  0  0  0  0  0  0  0  0  0  0  0
   -1.1429   -0.3164   -2.1147 H   0  0  0  0  0  0  0  0  0  0  0  0
   -3.0390   -0.8079   -0.4096 H   0  0  0  0  0  0  0  0  0  0  0  0
   -1.5165   -1.4691    0.4721 H   0  0  0  0  0  0  0  0  0  0  0  0
   -2.3137    1.0633    1.3129 H   0  0  0  0  0  0  0  0  0  0  0  0
  1  2  2  0
  2  3  1  0
  3  4  1  0
  4  5  1  0
  2  6  1  0
  6  7  1  0
  7  8  1  0
  8  9  1  0
  8  1  1  0
  5  3  1  0
  9  6  1  0
  1 10  1  0
  3 11  1  0
  4 12  1  0
  4 13  1  0
  6 14  1  0
  7 15  1  0
  7 16  1  0
  8 17  1  0
M  END
