
     RDKit          3D

 19 20  0  0  0  0  0  0  0  0999 V2000
   -2.3899    0.4529   -0.1212 C   0  0  0  0  0  0  0  0  0  0  0  0
   -1.8529   -0.6562   -0.5839 C   0  0  0  0  0  0  0  0  0  0  0  0
   -0.4023   -0.4504   -0.7442 C   0  0  0  0  0  0  0  0  0  0  0  0
    0.3214   -0.9569    0.4879 C   0  0  0  0  0  0  0  0  0  0  0  0
    1.7994   -0.7922    0.4204 C   0  0  0  0  0  0  0  0  0  0  0  0
    2.4598    0.5077    0.2744 C   0  0  0  0  0  0  0  0  0  0  0  0
    2.2696   -0.0093    1.5954 O   0  0  0  0  0  0  0  0  0  0  0  0
   -0.2855    0.9280   -0.8643 O   0  0  0  0  0  0  0  0  0  0  0  0
   -1.2654    1.4305    0.0313 C   0  0  0  0  0  0  0  0  0  0  0  0
   -3.4212    0.6239    0.1018 H   0  0  0  0  0  0  0  0  0  0  0  0
   -2.4286   -1.5727   -0.8043 H   0  0  0  0  0  0  0  0  0  0  0  0
   -0.0686   -0.9829   -1.6581 H   0  0  0  0  0  0  0  0  0  0  0  0
   -0.1711   -0.4736    1.3556 H   0  0  0  0  0  0  0  0  0  0  0  0
    0.1060   -2.0624    0.5623 H   0  0  0  0  0  0  0  0  0  0  0  0
    2.4401   -1.7027    0.3861 H   0  0  0  0  0  0  0  0  0  0  0  0
    1.8420    1.3692   -0.0086 H   0  0  0  0  0  0  0  0  0  0  0  0
    3.5375    0.4938    0.0074 H   0  0  0  0  0  0  0  0  0  0  0  0
   -1.6502    2.4081   -0.3007 H   0  0  0  0  0  0  0  0  0  0  0  0
   -0.8400    1.4454    1.0346 H   0  0  0  0  0  0  0  0  0  0  0  0
  1  2  2  0
  2  3  1  0
  3  4  1  0
  4  5  1  0
  5  6  1  0
  6  7  1  0
  3  8  1  0
  8  9  1  0
  9  1  1  0
  7  5  1  0
  1 10  1  0
  2 11  1  0
  3 12  1  0
  4 13  1  0
  4 14  1  0
  5 15  1  0
  6 16  1  0
  6 17  1  0
  9 18  1  0
  9 19  1  0
M  END
