
     RDKit          3D

 21 22  0  0  0  0  0  0  0  0999 V2000
    1.3385    1.3092   -0.2526 C   0  0  0  0  0  0  0  0  0  0  0  0
    0.0882    0.8836   -0.1168 C   0  0  0  0  0  0  0  0  0  0  0  0
   -1.2369    1.4711   -0.4245 C   0  0  0  0  0  0  0  0  0  0  0  0
   -2.1901    0.5642   -0.7876 O   0  0  0  0  0  0  0  0  0  0  0  0
   -2.2162   -0.5727    0.0148 C   0  0  0  0  0  0  0  0  0  0  0  0
   -0.9074   -1.3015   -0.2387 C   0  0  0  0  0  0  0  0  0  0  0  0
    0.1407   -0.4852    0.4789 C   0  0  0  0  0  0  0  0  0  0  0  0
    1.5399   -0.9846    0.2280 C   0  0  0  0  0  0  0  0  0  0  0  0
    2.3111    0.3180    0.2170 C   0  0  0  0  0  0  0  0  0  0  0  0
    1.5901    2.2927   -0.6706 H   0  0  0  0  0  0  0  0  0  0  0  0
   -1.0951    2.1715   -1.3003 H   0  0  0  0  0  0  0  0  0  0  0  0
   -1.5117    2.1261    0.4258 H   0  0  0  0  0  0  0  0  0  0  0  0
   -3.0897   -1.1757   -0.2401 H   0  0  0  0  0  0  0  0  0  0  0  0
   -2.2250   -0.2878    1.0951 H   0  0  0  0  0  0  0  0  0  0  0  0
   -0.7450   -1.2307   -1.3539 H   0  0  0  0  0  0  0  0  0  0  0  0
   -0.9744   -2.3365    0.1101 H   0  0  0  0  0  0  0  0  0  0  0  0
   -0.1234   -0.4447    1.5336 H   0  0  0  0  0  0  0  0  0  0  0  0
    1.8584   -1.5287    1.1550 H   0  0  0  0  0  0  0  0  0  0  0  0
    1.6523   -1.5711   -0.6839 H   0  0  0  0  0  0  0  0  0  0  0  0
    2.6128    0.5938    1.2588 H   0  0  0  0  0  0  0  0  0  0  0  0
    3.1830    0.1890   -0.4483 H   0  0  0  0  0  0  0  0  0  0  0  0
  1  2  2  0
  2  3  1  0
  3  4  1  0
  4  5  1  0
  5  6  1  0
  6  7  1  0
  7  8  1  0
  8  9  1  0
  9  1  1  0
  7  2  1  0
  1 10  1  0
  3 11  1  0
  3 12  1  0
  5 13  1  0
  5 14  1  0
  6 15  1  0
  6 16  1  0
  7 17  1  0
  8 18  1  0
  8 19  1  0
  9 20  1  0
  9 21  1  0
M  END
