
     RDKit          3D

 21 23  0  0  0  0  0  0  0  0999 V2000
    0.4356   -1.6569    0.0647 C   0  0  0  0  0  0  0  0  0  0  0  0
   -0.6641   -0.9463    0.0566 C   0  0  0  0  0  0  0  0  0  0  0  0
   -2.1315   -0.7680    0.1170 C   0  0  0  0  0  0  0  0  0  0  0  0
   -1.8878    0.4776   -0.7883 C   0  0  0  0  0  0  0  0  0  0  0  0
   -0.5818    0.5027   -0.0700 C   0  0  0  0  0  0  0  0  0  0  0  0
   -0.1916    1.5039    0.8760 C   0  0  0  0  0  0  0  0  0  0  0  0
    0.6591    1.1081   -0.3810 C   0  0  0  0  0  0  0  0  0  0  0  0
    1.8792    0.3436    0.0129 C   0  0  0  0  0  0  0  0  0  0  0  0
    1.7971   -1.1384   -0.0571 C   0  0  0  0  0  0  0  0  0  0  0  0
    0.3641   -2.7628    0.1727 H   0  0  0  0  0  0  0  0  0  0  0  0
   -2.4295   -0.4844    1.1280 H   0  0  0  0  0  0  0  0  0  0  0  0
   -2.7392   -1.5232   -0.4077 H   0  0  0  0  0  0  0  0  0  0  0  0
   -1.8160    0.1563   -1.8407 H   0  0  0  0  0  0  0  0  0  0  0  0
   -2.5706    1.2930   -0.5478 H   0  0  0  0  0  0  0  0  0  0  0  0
    0.1810    1.2280    1.8573 H   0  0  0  0  0  0  0  0  0  0  0  0
   -0.6397    2.5137    0.8005 H   0  0  0  0  0  0  0  0  0  0  0  0
    0.7109    1.8722   -1.1814 H   0  0  0  0  0  0  0  0  0  0  0  0
    2.7085    0.7124   -0.6531 H   0  0  0  0  0  0  0  0  0  0  0  0
    2.1922    0.6121    1.0724 H   0  0  0  0  0  0  0  0  0  0  0  0
    2.4258   -1.5629    0.7811 H   0  0  0  0  0  0  0  0  0  0  0  0
    2.2982   -1.4807   -1.0123 H   0  0  0  0  0  0  0  0  0  0  0  0
  1  2  2  0
  2  3  1  0
  3  4  1  0
  4  5  1  0
  5  6  1  0
  6  7  1  0
  7  8  1  0
  8  9  1  0
  9  1  1  0
  5  2  1  0
  7  5  1  0
  1 10  1  0
  3 11  1  0
  3 12  1  0
  4 13  1  0
  4 14  1  0
  6 15  1  0
  6 16  1  0
  7 17  1  0
  8 18  1  0
  8 19  1  0
  9 20  1  0
  9 21  1  0
M  END
