
     RDKit          3D

 17 19  0  0  0  0  0  0  0  0999 V2000
    2.1095    0.0388    0.6730 C   0  0  0  0  0  0  0  0  0  0  0  0
    1.3822    1.1548    0.4380 C   0  0  0  0  0  0  0  0  0  0  0  0
    0.3487    0.7390   -0.5497 C   0  0  0  0  0  0  0  0  0  0  0  0
    1.0828   -0.2386   -1.2710 O   0  0  0  0  0  0  0  0  0  0  0  0
    1.4073   -1.0105   -0.1283 C   0  0  0  0  0  0  0  0  0  0  0  0
    0.1951   -1.2364    0.5173 O   0  0  0  0  0  0  0  0  0  0  0  0
   -0.6074   -0.1726    0.1436 C   0  0  0  0  0  0  0  0  0  0  0  0
   -1.8162    0.2398    0.8130 C   0  0  0  0  0  0  0  0  0  0  0  0
   -1.9142   -0.5523   -0.4275 C   0  0  0  0  0  0  0  0  0  0  0  0
    2.9825   -0.0842    1.2836 H   0  0  0  0  0  0  0  0  0  0  0  0
    1.5796    2.0949    0.9077 H   0  0  0  0  0  0  0  0  0  0  0  0
   -0.0577    1.5153   -1.1565 H   0  0  0  0  0  0  0  0  0  0  0  0
    1.9896   -1.8789   -0.3435 H   0  0  0  0  0  0  0  0  0  0  0  0
   -2.1082    1.3201    0.7234 H   0  0  0  0  0  0  0  0  0  0  0  0
   -2.1129   -0.1890    1.7844 H   0  0  0  0  0  0  0  0  0  0  0  0
   -2.2805   -1.6039   -0.2703 H   0  0  0  0  0  0  0  0  0  0  0  0
   -2.1802   -0.1364   -1.3987 H   0  0  0  0  0  0  0  0  0  0  0  0
  1  2  2  0
  2  3  1  0
  3  4  1  0
  4  5  1  0
  5  6  1  0
  6  7  1  0
  7  8  1  0
  8  9  1  0
  5  1  1  0
  9  7  1  0
  7  3  1  0
  1 10  1  0
  2 11  1  0
  3 12  1  0
  5 13  1  0
  8 14  1  0
  8 15  1  0
  9 16  1  0
  9 17  1  0
M  END
