
     RDKit          3D

 19 21  0  0  0  0  0  0  0  0999 V2000
   -2.0403    0.3494    0.2434 C   0  0  0  0  0  0  0  0  0  0  0  0
   -1.1088    1.0585    0.8720 C   0  0  0  0  0  0  0  0  0  0  0  0
    0.2318    0.4346    0.6672 C   0  0  0  0  0  0  0  0  0  0  0  0
    1.2039    1.1670   -0.1495 C   0  0  0  0  0  0  0  0  0  0  0  0
    1.7514    0.2173   -1.1324 C   0  0  0  0  0  0  0  0  0  0  0  0
    1.0687   -0.9054   -1.0824 C   0  0  0  0  0  0  0  0  0  0  0  0
   -0.0119   -0.8496   -0.0682 C   0  0  0  0  0  0  0  0  0  0  0  0
   -1.4388   -0.8226   -0.4503 C   0  0  0  0  0  0  0  0  0  0  0  0
    0.4668   -0.8702    1.3244 C   0  0  0  0  0  0  0  0  0  0  0  0
   -3.0810    0.6154    0.2550 H   0  0  0  0  0  0  0  0  0  0  0  0
   -1.2348    1.9602    1.4599 H   0  0  0  0  0  0  0  0  0  0  0  0
    0.6358    1.9467   -0.7468 H   0  0  0  0  0  0  0  0  0  0  0  0
    1.9994    1.6957    0.4226 H   0  0  0  0  0  0  0  0  0  0  0  0
    2.6149    0.4560   -1.7978 H   0  0  0  0  0  0  0  0  0  0  0  0
    1.2909   -1.7626   -1.7225 H   0  0  0  0  0  0  0  0  0  0  0  0
   -1.5341   -0.6193   -1.5418 H   0  0  0  0  0  0  0  0  0  0  0  0
   -2.0254   -1.7019   -0.1845 H   0  0  0  0  0  0  0  0  0  0  0  0
   -0.2732   -1.1720    2.0883 H   0  0  0  0  0  0  0  0  0  0  0  0
    1.4849   -1.1973    1.5432 H   0  0  0  0  0  0  0  0  0  0  0  0
  1  2  2  0
  2  3  1  0
  3  4  1  0
  4  5  1  0
  5  6  2  0
  6  7  1  0
  7  8  1  0
  7  9  1  0
  8  1  1  0
  7  3  1  0
  9  3  1  0
  1 10  1  0
  2 11  1  0
  4 12  1  0
  4 13  1  0
  5 14  1  0
  6 15  1  0
  8 16  1  0
  8 17  1  0
  9 18  1  0
  9 19  1  0
M  END
