
     RDKit          3D

 19 22  0  0  0  0  0  0  0  0999 V2000
    1.1134   -0.5303    1.4955 C   0  0  0  0  0  0  0  0  0  0  0  0
   -0.0471   -0.3529    1.0186 C   0  0  0  0  0  0  0  0  0  0  0  0
   -1.4891   -0.2185    0.7514 C   0  0  0  0  0  0  0  0  0  0  0  0
   -2.1563   -0.1816   -0.5258 C   0  0  0  0  0  0  0  0  0  0  0  0
   -1.2549    1.0160   -0.1593 C   0  0  0  0  0  0  0  0  0  0  0  0
    0.0825    0.8770   -0.8316 C   0  0  0  0  0  0  0  0  0  0  0  0
    1.3808    0.3903   -0.6101 C   0  0  0  0  0  0  0  0  0  0  0  0
    2.2088   -0.2708    0.4787 C   0  0  0  0  0  0  0  0  0  0  0  0
    0.2941   -0.5455   -0.5711 C   0  0  0  0  0  0  0  0  0  0  0  0
    1.3430   -0.8354    2.5162 H   0  0  0  0  0  0  0  0  0  0  0  0
   -2.1572   -0.0100    1.6411 H   0  0  0  0  0  0  0  0  0  0  0  0
   -3.2273    0.0818   -0.5332 H   0  0  0  0  0  0  0  0  0  0  0  0
   -1.8946   -0.8110   -1.3971 H   0  0  0  0  0  0  0  0  0  0  0  0
   -1.6785    1.9465    0.1737 H   0  0  0  0  0  0  0  0  0  0  0  0
   -0.1212    1.1660   -1.9397 H   0  0  0  0  0  0  0  0  0  0  0  0
    2.0474    0.3662   -1.5611 H   0  0  0  0  0  0  0  0  0  0  0  0
    2.8632    0.5006    0.9268 H   0  0  0  0  0  0  0  0  0  0  0  0
    2.6965   -1.1683    0.1305 H   0  0  0  0  0  0  0  0  0  0  0  0
   -0.0035   -1.4201   -1.0035 H   0  0  0  0  0  0  0  0  0  0  0  0
  1  2  2  0
  2  3  1  0
  3  4  1  0
  4  5  1  0
  5  6  1  0
  6  7  1  0
  7  8  1  0
  7  9  1  0
  8  1  1  0
  9  2  1  0
  5  3  1  0
  9  6  1  0
  1 10  1  0
  3 11  1  0
  4 12  1  0
  4 13  1  0
  5 14  1  0
  6 15  1  0
  7 16  1  0
  8 17  1  0
  8 18  1  0
  9 19  1  0
M  END
