
     RDKit          3D

 18 20  0  0  0  0  0  0  0  0999 V2000
    1.8773   -0.6106   -0.4852 C   0  0  0  0  0  0  0  0  0  0  0  0
    1.9601    0.3843    0.3961 C   0  0  0  0  0  0  0  0  0  0  0  0
    0.5437    0.7085    0.6654 C   0  0  0  0  0  0  0  0  0  0  0  0
   -0.0782   -0.6615    0.7546 C   0  0  0  0  0  0  0  0  0  0  0  0
   -1.5488   -0.4603    0.5655 C   0  0  0  0  0  0  0  0  0  0  0  0
   -1.5133    0.6371   -0.5177 C   0  0  0  0  0  0  0  0  0  0  0  0
   -0.0356    0.6833   -0.7537 C   0  0  0  0  0  0  0  0  0  0  0  0
    0.4260   -0.7553   -0.6907 C   0  0  0  0  0  0  0  0  0  0  0  0
    2.6533   -1.1932   -0.9570 H   0  0  0  0  0  0  0  0  0  0  0  0
    2.7994    0.8876    0.8518 H   0  0  0  0  0  0  0  0  0  0  0  0
    0.2608    1.4795    1.3168 H   0  0  0  0  0  0  0  0  0  0  0  0
    0.2928   -1.3673    1.4525 H   0  0  0  0  0  0  0  0  0  0  0  0
   -2.0816   -0.1149    1.4662 H   0  0  0  0  0  0  0  0  0  0  0  0
   -1.9645   -1.4042    0.1434 H   0  0  0  0  0  0  0  0  0  0  0  0
   -2.1088    0.3601   -1.3908 H   0  0  0  0  0  0  0  0  0  0  0  0
   -1.8848    1.5677   -0.0201 H   0  0  0  0  0  0  0  0  0  0  0  0
    0.3858    1.3388   -1.4723 H   0  0  0  0  0  0  0  0  0  0  0  0
    0.0163   -1.4796   -1.3249 H   0  0  0  0  0  0  0  0  0  0  0  0
  1  2  2  0
  2  3  1  0
  3  4  1  0
  4  5  1  0
  5  6  1  0
  6  7  1  0
  7  8  1  0
  8  1  1  0
  7  3  1  0
  8  4  1  0
  1  9  1  0
  2 10  1  0
  3 11  1  0
  4 12  1  0
  5 13  1  0
  5 14  1  0
  6 15  1  0
  6 16  1  0
  7 17  1  0
  8 18  1  0
M  END
