
     RDKit          3D

 21 22  0  0  0  0  0  0  0  0999 V2000
    2.1832    0.2070   -0.4460 C   0  0  0  0  0  0  0  0  0  0  0  0
    1.1451    1.0259   -0.5401 C   0  0  0  0  0  0  0  0  0  0  0  0
   -0.0139    0.3817    0.0658 C   0  0  0  0  0  0  0  0  0  0  0  0
    0.5570   -0.5726    1.0606 C   0  0  0  0  0  0  0  0  0  0  0  0
    1.7671   -1.0688    0.2490 C   0  0  0  0  0  0  0  0  0  0  0  0
   -0.8598   -0.3906   -0.9264 C   0  0  0  0  0  0  0  0  0  0  0  0
   -2.2105   -0.3325   -0.2674 C   0  0  0  0  0  0  0  0  0  0  0  0
   -2.1400    0.5363    0.7895 O   0  0  0  0  0  0  0  0  0  0  0  0
   -1.0221    1.3275    0.6480 C   0  0  0  0  0  0  0  0  0  0  0  0
    3.2093    0.3539   -0.7898 H   0  0  0  0  0  0  0  0  0  0  0  0
    1.2588    2.0015   -1.0157 H   0  0  0  0  0  0  0  0  0  0  0  0
    0.9194   -0.0991    1.9850 H   0  0  0  0  0  0  0  0  0  0  0  0
   -0.1553   -1.3718    1.2631 H   0  0  0  0  0  0  0  0  0  0  0  0
    1.4602   -1.8418   -0.4772 H   0  0  0  0  0  0  0  0  0  0  0  0
    2.5822   -1.3948    0.8877 H   0  0  0  0  0  0  0  0  0  0  0  0
   -0.8571    0.1872   -1.8666 H   0  0  0  0  0  0  0  0  0  0  0  0
   -0.4762   -1.4111   -1.0705 H   0  0  0  0  0  0  0  0  0  0  0  0
   -2.4788   -1.3690    0.0194 H   0  0  0  0  0  0  0  0  0  0  0  0
   -2.9439   -0.0124   -1.0214 H   0  0  0  0  0  0  0  0  0  0  0  0
   -1.2556    2.0902   -0.1326 H   0  0  0  0  0  0  0  0  0  0  0  0
   -0.6691    1.7532    1.5856 H   0  0  0  0  0  0  0  0  0  0  0  0
  1  2  2  0
  2  3  1  0
  3  4  1  0
  4  5  1  0
  3  6  1  0
  6  7  1  0
  7  8  1  0
  8  9  1  0
  5  1  1  0
  9  3  1  0
  1 10  1  0
  2 11  1  0
  4 12  1  0
  4 13  1  0
  5 14  1  0
  5 15  1  0
  6 16  1  0
  6 17  1  0
  7 18  1  0
  7 19  1  0
  9 20  1  0
  9 21  1  0
M  END
