
     RDKit          3D

 19 21  0  0  0  0  0  0  0  0999 V2000
   -0.9695    1.5054   -0.3241 C   0  0  0  0  0  0  0  0  0  0  0  0
    0.1840    0.8592   -0.2865 C   0  0  0  0  0  0  0  0  0  0  0  0
   -0.0972   -0.6030   -0.3366 C   0  0  0  0  0  0  0  0  0  0  0  0
   -1.4602   -0.7016    0.2687 C   0  0  0  0  0  0  0  0  0  0  0  0
   -2.1123    0.5284   -0.4003 C   0  0  0  0  0  0  0  0  0  0  0  0
    1.0035   -1.2409    0.4800 C   0  0  0  0  0  0  0  0  0  0  0  0
    2.1697   -0.2566    0.3486 C   0  0  0  0  0  0  0  0  0  0  0  0
    2.1691    0.8637    1.1939 O   0  0  0  0  0  0  0  0  0  0  0  0
    1.6792    0.9388   -0.2086 C   0  0  0  0  0  0  0  0  0  0  0  0
   -1.0698    2.5920   -0.3025 H   0  0  0  0  0  0  0  0  0  0  0  0
   -0.0929   -0.9567   -1.3846 H   0  0  0  0  0  0  0  0  0  0  0  0
   -2.0022   -1.6194    0.0317 H   0  0  0  0  0  0  0  0  0  0  0  0
   -1.3922   -0.4810    1.3581 H   0  0  0  0  0  0  0  0  0  0  0  0
   -2.3805    0.2903   -1.4497 H   0  0  0  0  0  0  0  0  0  0  0  0
   -2.9959    0.8656    0.1442 H   0  0  0  0  0  0  0  0  0  0  0  0
    0.7297   -1.4327    1.5156 H   0  0  0  0  0  0  0  0  0  0  0  0
    1.3141   -2.1538   -0.0705 H   0  0  0  0  0  0  0  0  0  0  0  0
    3.1572   -0.7004    0.2302 H   0  0  0  0  0  0  0  0  0  0  0  0
    2.1664    1.7027   -0.8075 H   0  0  0  0  0  0  0  0  0  0  0  0
  1  2  2  0
  2  3  1  0
  3  4  1  0
  4  5  1  0
  3  6  1  0
  6  7  1  0
  7  8  1  0
  8  9  1  0
  5  1  1  0
  9  7  1  0
  9  2  1  0
  1 10  1  0
  3 11  1  0
  4 12  1  0
  4 13  1  0
  5 14  1  0
  5 15  1  0
  6 16  1  0
  6 17  1  0
  7 18  1  0
  9 19  1  0
M  END
