
     RDKit          2D

 17 20  0  0  0  0  0  0  0  0999 V2000
   -0.9029    1.4266    0.0000 C   0  0  0  0  0  0  0  0  0  0  0  0
    0.5971    1.4266    0.0000 C   0  0  0  0  0  0  0  0  0  0  0  0
    1.0607    0.0000    0.0000 C   0  0  0  0  0  0  0  0  0  0  0  0
    2.3972   -0.6810    0.0000 C   0  0  0  0  0  0  0  0  0  0  0  0
    2.1625   -2.1625    0.0000 C   0  0  0  0  0  0  0  0  0  0  0  0
    0.6810   -2.3972    0.0000 C   0  0  0  0  0  0  0  0  0  0  0  0
   -0.0000   -1.0607    0.0000 C   0  0  0  0  0  0  0  0  0  0  0  0
   -1.0607    0.0000    0.0000 C   0  0  0  0  0  0  0  0  0  0  0  0
    0.0000    1.0607    0.0000 C   0  0  0  0  0  0  0  0  0  0  0  0
   -1.7845    2.6401    0.0000 H   0  0  0  0  0  0  0  0  0  0  0  0
    1.4788    2.6401    0.0000 H   0  0  0  0  0  0  0  0  0  0  0  0
    3.7337    0.0000    0.0000 H   0  0  0  0  0  0  0  0  0  0  0  0
    3.2232   -3.2232    0.0000 H   0  0  0  0  0  0  0  0  0  0  0  0
    0.0000   -3.7337    0.0000 H   0  0  0  0  0  0  0  0  0  0  0  0
   -1.2135   -1.9423    0.0000 H   0  0  0  0  0  0  0  0  0  0  0  0
   -2.5607    0.0000    0.0000 H   0  0  0  0  0  0  0  0  0  0  0  0
    0.0000    2.5607    0.0000 H   0  0  0  0  0  0  0  0  0  0  0  0
  1  2  2  0
  2  3  1  0
  3  4  1  0
  4  5  2  0
  5  6  1  0
  6  7  1  0
  7  8  1  0
  8  9  1  0
  8  1  1  0
  7  3  1  0
  9  3  1  0
  9  6  1  0
  1 10  1  0
  2 11  1  0
  4 12  1  0
  5 13  1  0
  6 14  1  0
  7 15  1  0
  8 16  1  0
  9 17  1  0
M  END
