
     RDKit          2D

 17 20  0  0  0  0  0  0  0  0999 V2000
   -3.2321    1.5000    0.0000 C   0  0  0  0  0  0  0  0  0  0  0  0
   -1.9330    0.7500    0.0000 C   0  0  0  0  0  0  0  0  0  0  0  0
   -1.9330   -0.7500    0.0000 C   0  0  0  0  0  0  0  0  0  0  0  0
   -3.2321   -1.5000    0.0000 C   0  0  0  0  0  0  0  0  0  0  0  0
   -4.5311   -0.7500    0.0000 O   0  0  0  0  0  0  0  0  0  0  0  0
   -4.5311    0.7500    0.0000 C   0  0  0  0  0  0  0  0  0  0  0  0
    0.8660    0.0000    0.0000 C   0  0  0  0  0  0  0  0  0  0  0  0
   -0.4330    0.7500    0.0000 C   0  0  0  0  0  0  0  0  0  0  0  0
   -0.4330   -0.7500    0.0000 C   0  0  0  0  0  0  0  0  0  0  0  0
   -3.2321    3.0000    0.0000 H   0  0  0  0  0  0  0  0  0  0  0  0
   -1.5448   -2.1989    0.0000 H   0  0  0  0  0  0  0  0  0  0  0  0
   -3.2321   -3.0000    0.0000 H   0  0  0  0  0  0  0  0  0  0  0  0
   -6.0083    0.4895    0.0000 H   0  0  0  0  0  0  0  0  0  0  0  0
   -5.0441    2.1595    0.0000 H   0  0  0  0  0  0  0  0  0  0  0  0
    2.3660    0.0000    0.0000 H   0  0  0  0  0  0  0  0  0  0  0  0
   -0.0448    2.1989    0.0000 H   0  0  0  0  0  0  0  0  0  0  0  0
   -0.0448   -2.1989    0.0000 H   0  0  0  0  0  0  0  0  0  0  0  0
  1  2  2  0
  2  3  1  0
  3  4  1  0
  4  5  1  0
  5  6  1  0
  4  7  1  0
  7  8  1  0
  8  9  1  0
  6  1  1  0
  9  7  1  0
  8  2  1  0
  9  3  1  0
  1 10  1  0
  3 11  1  0
  4 12  1  0
  6 13  1  0
  6 14  1  0
  7 15  1  0
  8 16  1  0
  9 17  1  0
M  END
