
     RDKit          3D

 17 19  0  0  0  0  0  0  0  0999 V2000
    1.8155   -0.4209    0.8318 C   0  0  0  0  0  0  0  0  0  0  0  0
    1.9731    0.7771    0.2162 C   0  0  0  0  0  0  0  0  0  0  0  0
    0.9174    0.6643   -0.8610 C   0  0  0  0  0  0  0  0  0  0  0  0
    1.1800   -0.6589   -1.2935 O   0  0  0  0  0  0  0  0  0  0  0  0
    0.7136   -1.0106   -0.0082 C   0  0  0  0  0  0  0  0  0  0  0  0
   -0.2293    0.1225   -0.1323 C   0  0  0  0  0  0  0  0  0  0  0  0
   -1.5336   -0.0541   -0.7486 C   0  0  0  0  0  0  0  0  0  0  0  0
   -1.9348    0.0624    0.7302 C   0  0  0  0  0  0  0  0  0  0  0  0
   -0.7090    0.7265    0.9789 O   0  0  0  0  0  0  0  0  0  0  0  0
    2.3333   -0.8276    1.6782 H   0  0  0  0  0  0  0  0  0  0  0  0
    2.6520    1.5778    0.4303 H   0  0  0  0  0  0  0  0  0  0  0  0
    0.8620    1.4268   -1.5871 H   0  0  0  0  0  0  0  0  0  0  0  0
    0.4087   -2.0007    0.1710 H   0  0  0  0  0  0  0  0  0  0  0  0
   -1.9109    0.8510   -1.2979 H   0  0  0  0  0  0  0  0  0  0  0  0
   -1.7934   -1.0175   -1.1852 H   0  0  0  0  0  0  0  0  0  0  0  0
   -2.7934    0.7221    0.9154 H   0  0  0  0  0  0  0  0  0  0  0  0
   -1.9513   -0.9402    1.1618 H   0  0  0  0  0  0  0  0  0  0  0  0
  1  2  2  0
  2  3  1  0
  3  4  1  0
  4  5  1  0
  5  6  1  0
  6  7  1  0
  7  8  1  0
  8  9  1  0
  5  1  1  0
  9  6  1  0
  6  3  1  0
  1 10  1  0
  2 11  1  0
  3 12  1  0
  5 13  1  0
  7 14  1  0
  7 15  1  0
  8 16  1  0
  8 17  1  0
M  END
