
     RDKit          3D

 21 22  0  0  0  0  0  0  0  0999 V2000
    1.6562    1.1804   -0.1141 C   0  0  0  0  0  0  0  0  0  0  0  0
    0.4156    1.4016    0.2742 C   0  0  0  0  0  0  0  0  0  0  0  0
   -0.6457    0.5798    0.8419 C   0  0  0  0  0  0  0  0  0  0  0  0
   -2.0011    0.8732    0.1845 C   0  0  0  0  0  0  0  0  0  0  0  0
   -1.9463   -0.4926   -0.4792 C   0  0  0  0  0  0  0  0  0  0  0  0
   -0.7825   -0.7993    0.4620 C   0  0  0  0  0  0  0  0  0  0  0  0
    0.2734   -1.4805   -0.2754 C   0  0  0  0  0  0  0  0  0  0  0  0
    1.5508   -1.2531   -0.5158 C   0  0  0  0  0  0  0  0  0  0  0  0
    2.3575   -0.1263   -0.0583 C   0  0  0  0  0  0  0  0  0  0  0  0
    2.1886    2.0474   -0.5049 H   0  0  0  0  0  0  0  0  0  0  0  0
    0.1124    2.4525    0.1368 H   0  0  0  0  0  0  0  0  0  0  0  0
   -0.7477    0.7848    1.9366 H   0  0  0  0  0  0  0  0  0  0  0  0
   -2.8471    0.8934    0.8841 H   0  0  0  0  0  0  0  0  0  0  0  0
   -1.9445    1.7113   -0.5295 H   0  0  0  0  0  0  0  0  0  0  0  0
   -1.6298   -0.4249   -1.5543 H   0  0  0  0  0  0  0  0  0  0  0  0
   -2.8299   -1.1237   -0.3462 H   0  0  0  0  0  0  0  0  0  0  0  0
   -1.1695   -1.4535    1.2824 H   0  0  0  0  0  0  0  0  0  0  0  0
   -0.0775   -2.3996   -0.7402 H   0  0  0  0  0  0  0  0  0  0  0  0
    2.0740   -1.9806   -1.1220 H   0  0  0  0  0  0  0  0  0  0  0  0
    2.7454   -0.3599    0.9519 H   0  0  0  0  0  0  0  0  0  0  0  0
    3.2475   -0.0304   -0.7144 H   0  0  0  0  0  0  0  0  0  0  0  0
  1  2  2  0
  2  3  1  0
  3  4  1  0
  4  5  1  0
  5  6  1  0
  6  7  1  0
  7  8  2  0
  8  9  1  0
  9  1  1  0
  6  3  1  0
  1 10  1  0
  2 11  1  0
  3 12  1  0
  4 13  1  0
  4 14  1  0
  5 15  1  0
  5 16  1  0
  6 17  1  0
  7 18  1  0
  8 19  1  0
  9 20  1  0
  9 21  1  0
M  END
