
     RDKit          3D

 19 22  0  0  0  0  0  0  0  0999 V2000
   -1.4804   -0.3255   -1.0881 C   0  0  0  0  0  0  0  0  0  0  0  0
   -1.9987    0.5781   -0.2646 C   0  0  0  0  0  0  0  0  0  0  0  0
   -1.2793    0.5675    1.0102 C   0  0  0  0  0  0  0  0  0  0  0  0
   -0.4098   -0.6034    0.9715 C   0  0  0  0  0  0  0  0  0  0  0  0
   -0.3522   -1.0401   -0.4469 C   0  0  0  0  0  0  0  0  0  0  0  0
    0.9112   -0.3835   -0.9571 C   0  0  0  0  0  0  0  0  0  0  0  0
    2.1053   -0.2947   -0.1251 C   0  0  0  0  0  0  0  0  0  0  0  0
    1.0496    0.8412   -0.1537 C   0  0  0  0  0  0  0  0  0  0  0  0
    0.1526    0.8271    1.0126 C   0  0  0  0  0  0  0  0  0  0  0  0
   -1.8220   -0.5260   -2.0922 H   0  0  0  0  0  0  0  0  0  0  0  0
   -2.8425    1.2518   -0.4740 H   0  0  0  0  0  0  0  0  0  0  0  0
   -1.8449    0.7840    1.9356 H   0  0  0  0  0  0  0  0  0  0  0  0
   -0.0995   -1.2091    1.8081 H   0  0  0  0  0  0  0  0  0  0  0  0
   -0.3721   -2.1199   -0.5533 H   0  0  0  0  0  0  0  0  0  0  0  0
    0.9568   -0.3162   -2.0558 H   0  0  0  0  0  0  0  0  0  0  0  0
    3.0663   -0.0847   -0.6729 H   0  0  0  0  0  0  0  0  0  0  0  0
    2.2002   -0.8919    0.7872 H   0  0  0  0  0  0  0  0  0  0  0  0
    1.4305    1.7831   -0.6042 H   0  0  0  0  0  0  0  0  0  0  0  0
    0.6288    1.1621    1.9625 H   0  0  0  0  0  0  0  0  0  0  0  0
  1  2  2  0
  2  3  1  0
  3  4  1  0
  4  5  1  0
  5  6  1  0
  6  7  1  0
  7  8  1  0
  8  9  1  0
  5  1  1  0
  8  6  1  0
  9  3  1  0
  9  4  1  0
  1 10  1  0
  2 11  1  0
  3 12  1  0
  4 13  1  0
  5 14  1  0
  6 15  1  0
  7 16  1  0
  7 17  1  0
  8 18  1  0
  9 19  1  0
M  END
