
     RDKit          3D

 23 24  0  0  0  0  0  0  0  0999 V2000
    1.3828    1.3241   -0.0792 C   0  0  0  0  0  0  0  0  0  0  0  0
    0.0750    1.6880    0.0658 C   0  0  0  0  0  0  0  0  0  0  0  0
   -1.0976    0.9209    0.5683 C   0  0  0  0  0  0  0  0  0  0  0  0
   -1.9632    0.2501   -0.5117 C   0  0  0  0  0  0  0  0  0  0  0  0
   -1.2973   -1.1505   -0.7568 C   0  0  0  0  0  0  0  0  0  0  0  0
    0.0077   -0.7683   -0.3350 C   0  0  0  0  0  0  0  0  0  0  0  0
    1.3193   -1.2207   -0.1751 C   0  0  0  0  0  0  0  0  0  0  0  0
    2.0676    0.0524    0.3068 C   0  0  0  0  0  0  0  0  0  0  0  0
   -0.4455   -0.3548    1.0839 C   0  0  0  0  0  0  0  0  0  0  0  0
    1.9482    2.1215   -0.5499 H   0  0  0  0  0  0  0  0  0  0  0  0
   -0.1594    2.7056   -0.2326 H   0  0  0  0  0  0  0  0  0  0  0  0
   -1.6855    1.4344    1.3128 H   0  0  0  0  0  0  0  0  0  0  0  0
   -2.9544    0.1142   -0.0695 H   0  0  0  0  0  0  0  0  0  0  0  0
   -1.9389    0.8133   -1.4512 H   0  0  0  0  0  0  0  0  0  0  0  0
   -1.4621   -1.4470   -1.8025 H   0  0  0  0  0  0  0  0  0  0  0  0
   -1.7738   -1.8702   -0.0468 H   0  0  0  0  0  0  0  0  0  0  0  0
    0.1647    0.0895   -1.0691 H   0  0  0  0  0  0  0  0  0  0  0  0
    1.7647   -1.6136   -1.1136 H   0  0  0  0  0  0  0  0  0  0  0  0
    1.4502   -2.0248    0.5810 H   0  0  0  0  0  0  0  0  0  0  0  0
    3.0260    0.0494   -0.2930 H   0  0  0  0  0  0  0  0  0  0  0  0
    2.3668   -0.0103    1.3444 H   0  0  0  0  0  0  0  0  0  0  0  0
    0.3727   -0.0614    1.7219 H   0  0  0  0  0  0  0  0  0  0  0  0
   -1.1681   -1.0417    1.5014 H   0  0  0  0  0  0  0  0  0  0  0  0
  1  2  2  0
  2  3  1  0
  3  4  1  0
  4  5  1  0
  5  6  1  0
  6  7  1  0
  7  8  1  0
  6  9  1  0
  8  1  1  0
  9  3  1  0
  1 10  1  0
  2 11  1  0
  3 12  1  0
  4 13  1  0
  4 14  1  0
  5 15  1  0
  5 16  1  0
  6 17  1  0
  7 18  1  0
  7 19  1  0
  8 20  1  0
  8 21  1  0
  9 22  1  0
  9 23  1  0
M  END
