
     RDKit          3D

 18 20  0  0  0  0  0  0  0  0999 V2000
   -0.3236   -1.4153    0.6951 C   0  0  0  0  0  0  0  0  0  0  0  0
    0.7453   -0.6896    0.5263 C   0  0  0  0  0  0  0  0  0  0  0  0
    2.0630   -0.0222    0.5198 C   0  0  0  0  0  0  0  0  0  0  0  0
    1.1895    1.2430    0.2254 C   0  0  0  0  0  0  0  0  0  0  0  0
    0.4860    0.2561   -0.6479 C   0  0  0  0  0  0  0  0  0  0  0  0
   -0.9384    0.2517   -0.9104 C   0  0  0  0  0  0  0  0  0  0  0  0
   -2.0387    0.3675    0.0413 C   0  0  0  0  0  0  0  0  0  0  0  0
   -1.4361   -0.9674   -0.1848 C   0  0  0  0  0  0  0  0  0  0  0  0
   -0.4215   -2.2484    1.3832 H   0  0  0  0  0  0  0  0  0  0  0  0
    2.6291   -0.2715   -0.3813 H   0  0  0  0  0  0  0  0  0  0  0  0
    2.5948    0.0470    1.4703 H   0  0  0  0  0  0  0  0  0  0  0  0
    0.6298    1.5035    1.1551 H   0  0  0  0  0  0  0  0  0  0  0  0
    1.7532    2.0423   -0.2518 H   0  0  0  0  0  0  0  0  0  0  0  0
    1.1439    0.0065   -1.5135 H   0  0  0  0  0  0  0  0  0  0  0  0
   -1.1840    0.1875   -2.0325 H   0  0  0  0  0  0  0  0  0  0  0  0
   -1.8518    0.9509    0.9637 H   0  0  0  0  0  0  0  0  0  0  0  0
   -3.0571    0.5203   -0.3699 H   0  0  0  0  0  0  0  0  0  0  0  0
   -1.9834   -1.7618   -0.6882 H   0  0  0  0  0  0  0  0  0  0  0  0
  1  2  2  0
  2  3  1  0
  3  4  1  0
  4  5  1  0
  5  6  1  0
  6  7  1  0
  7  8  1  0
  8  1  1  0
  5  2  1  0
  8  6  1  0
  1  9  1  0
  3 10  1  0
  3 11  1  0
  4 12  1  0
  4 13  1  0
  5 14  1  0
  6 15  1  0
  7 16  1  0
  7 17  1  0
  8 18  1  0
M  END
