
     RDKit          3D

 19 20  0  0  0  0  0  0  0  0999 V2000
    0.4815    1.6233    0.1388 C   0  0  0  0  0  0  0  0  0  0  0  0
   -0.7619    1.3648   -0.2257 C   0  0  0  0  0  0  0  0  0  0  0  0
   -1.3862    0.0314   -0.3776 C   0  0  0  0  0  0  0  0  0  0  0  0
   -0.5740   -0.7347   -1.3633 C   0  0  0  0  0  0  0  0  0  0  0  0
    0.6270   -1.1063   -0.9439 C   0  0  0  0  0  0  0  0  0  0  0  0
    1.0640   -0.7150    0.4375 C   0  0  0  0  0  0  0  0  0  0  0  0
    1.6223    0.7101    0.4473 C   0  0  0  0  0  0  0  0  0  0  0  0
    0.0711   -0.7805    1.3712 O   0  0  0  0  0  0  0  0  0  0  0  0
   -1.2178   -0.7746    0.9230 C   0  0  0  0  0  0  0  0  0  0  0  0
    0.7530    2.6786    0.2409 H   0  0  0  0  0  0  0  0  0  0  0  0
   -1.3757    2.2211   -0.4311 H   0  0  0  0  0  0  0  0  0  0  0  0
   -2.4447    0.0643   -0.6226 H   0  0  0  0  0  0  0  0  0  0  0  0
   -0.9868   -0.9393   -2.3265 H   0  0  0  0  0  0  0  0  0  0  0  0
    1.2824   -1.6821   -1.5854 H   0  0  0  0  0  0  0  0  0  0  0  0
    1.8649   -1.4333    0.7335 H   0  0  0  0  0  0  0  0  0  0  0  0
    1.9104    0.9047    1.5017 H   0  0  0  0  0  0  0  0  0  0  0  0
    2.4653    0.8268   -0.2533 H   0  0  0  0  0  0  0  0  0  0  0  0
   -1.4843   -1.8262    0.6433 H   0  0  0  0  0  0  0  0  0  0  0  0
   -1.9104   -0.4332    1.6921 H   0  0  0  0  0  0  0  0  0  0  0  0
  1  2  2  0
  2  3  1  0
  3  4  1  0
  4  5  2  0
  5  6  1  0
  6  7  1  0
  6  8  1  0
  8  9  1  0
  7  1  1  0
  9  3  1  0
  1 10  1  0
  2 11  1  0
  3 12  1  0
  4 13  1  0
  5 14  1  0
  6 15  1  0
  7 16  1  0
  7 17  1  0
  9 18  1  0
  9 19  1  0
M  END
