
     RDKit          3D

 17 19  0  0  0  0  0  0  0  0999 V2000
   -1.7206   -0.4482    0.8618 C   0  0  0  0  0  0  0  0  0  0  0  0
   -0.5565   -1.1620    0.8478 C   0  0  0  0  0  0  0  0  0  0  0  0
    0.1729   -0.7335   -0.3009 C   0  0  0  0  0  0  0  0  0  0  0  0
   -0.2475    0.7538   -0.1908 C   0  0  0  0  0  0  0  0  0  0  0  0
    0.8565    1.3672    0.0556 C   0  0  0  0  0  0  0  0  0  0  0  0
    2.0065    0.5081    0.1667 C   0  0  0  0  0  0  0  0  0  0  0  0
    2.7467   -0.3608   -0.4354 O   0  0  0  0  0  0  0  0  0  0  0  0
    1.4793   -0.6000   -0.7365 C   0  0  0  0  0  0  0  0  0  0  0  0
   -1.7039    0.5007   -0.3703 C   0  0  0  0  0  0  0  0  0  0  0  0
   -2.4770   -0.5291    1.5704 H   0  0  0  0  0  0  0  0  0  0  0  0
   -0.3315   -1.8780    1.5975 H   0  0  0  0  0  0  0  0  0  0  0  0
   -0.4694   -1.1206   -1.2420 H   0  0  0  0  0  0  0  0  0  0  0  0
    0.9187    2.4797    0.1748 H   0  0  0  0  0  0  0  0  0  0  0  0
    2.0942    0.2332    1.3090 H   0  0  0  0  0  0  0  0  0  0  0  0
    1.4440   -0.2677   -1.8805 H   0  0  0  0  0  0  0  0  0  0  0  0
   -1.8891   -0.1035   -1.2496 H   0  0  0  0  0  0  0  0  0  0  0  0
   -2.3234    1.3607   -0.1778 H   0  0  0  0  0  0  0  0  0  0  0  0
  1  2  2  0
  2  3  1  0
  3  4  1  0
  4  5  2  0
  5  6  1  0
  6  7  1  0
  7  8  1  0
  4  9  1  0
  9  1  1  0
  8  3  1  0
  8  6  1  0
  1 10  1  0
  2 11  1  0
  3 12  1  0
  5 13  1  0
  6 14  1  0
  8 15  1  0
  9 16  1  0
  9 17  1  0
M  END
