
     RDKit          3D

 17 19  0  0  0  0  0  0  0  0999 V2000
    1.8419    0.2989    0.0933 C   0  0  0  0  0  0  0  0  0  0  0  0
    1.2330    1.1301   -0.7379 C   0  0  0  0  0  0  0  0  0  0  0  0
   -0.2463    1.1706   -0.8933 C   0  0  0  0  0  0  0  0  0  0  0  0
   -0.7837    1.4517    0.4904 O   0  0  0  0  0  0  0  0  0  0  0  0
   -0.9010    0.2785   -0.1699 C   0  0  0  0  0  0  0  0  0  0  0  0
   -2.0545   -0.5594   -0.0157 C   0  0  0  0  0  0  0  0  0  0  0  0
   -1.3217   -1.3471    0.9114 O   0  0  0  0  0  0  0  0  0  0  0  0
   -0.1970   -0.9797    0.2254 C   0  0  0  0  0  0  0  0  0  0  0  0
    1.0526   -0.6738    0.9467 C   0  0  0  0  0  0  0  0  0  0  0  0
    2.9093    0.3198    0.1582 H   0  0  0  0  0  0  0  0  0  0  0  0
    1.8289    1.7980   -1.3196 H   0  0  0  0  0  0  0  0  0  0  0  0
   -0.6418    1.8893   -1.6221 H   0  0  0  0  0  0  0  0  0  0  0  0
   -2.9206   -0.1186    0.5173 H   0  0  0  0  0  0  0  0  0  0  0  0
   -2.4006   -1.1308   -0.8905 H   0  0  0  0  0  0  0  0  0  0  0  0
   -0.0031   -1.6043   -0.6717 H   0  0  0  0  0  0  0  0  0  0  0  0
    0.9420   -0.3060    1.9760 H   0  0  0  0  0  0  0  0  0  0  0  0
    1.6626   -1.6170    1.0020 H   0  0  0  0  0  0  0  0  0  0  0  0
  1  2  2  0
  2  3  1  0
  3  4  1  0
  4  5  1  0
  5  6  1  0
  6  7  1  0
  7  8  1  0
  8  9  1  0
  9  1  1  0
  5  3  1  0
  8  5  1  0
  1 10  1  0
  2 11  1  0
  3 12  1  0
  6 13  1  0
  6 14  1  0
  8 15  1  0
  9 16  1  0
  9 17  1  0
M  END
