
     RDKit          3D

 17 19  0  0  0  0  0  0  0  0999 V2000
   -1.4797   -1.0735    0.6426 C   0  0  0  0  0  0  0  0  0  0  0  0
   -0.1905   -1.3989    0.6975 C   0  0  0  0  0  0  0  0  0  0  0  0
    0.5128   -0.7069   -0.3823 C   0  0  0  0  0  0  0  0  0  0  0  0
    1.8168   -0.1248   -0.0828 C   0  0  0  0  0  0  0  0  0  0  0  0
    1.7590    1.1885    0.0255 C   0  0  0  0  0  0  0  0  0  0  0  0
    0.3433    1.6100   -0.2029 C   0  0  0  0  0  0  0  0  0  0  0  0
   -0.3950    1.1942    0.8987 O   0  0  0  0  0  0  0  0  0  0  0  0
   -0.3799    0.5528   -0.4774 C   0  0  0  0  0  0  0  0  0  0  0  0
   -1.6953   -0.1176   -0.5153 C   0  0  0  0  0  0  0  0  0  0  0  0
   -2.2613   -1.4160    1.2972 H   0  0  0  0  0  0  0  0  0  0  0  0
    0.2910   -2.0612    1.4081 H   0  0  0  0  0  0  0  0  0  0  0  0
    0.4573   -1.2231   -1.3575 H   0  0  0  0  0  0  0  0  0  0  0  0
    2.7208   -0.6914    0.0368 H   0  0  0  0  0  0  0  0  0  0  0  0
    2.5747    1.8284    0.2381 H   0  0  0  0  0  0  0  0  0  0  0  0
    0.2508    2.7011   -0.4336 H   0  0  0  0  0  0  0  0  0  0  0  0
   -1.7538   -0.7654   -1.4145 H   0  0  0  0  0  0  0  0  0  0  0  0
   -2.5711    0.5037   -0.3781 H   0  0  0  0  0  0  0  0  0  0  0  0
  1  2  2  0
  2  3  1  0
  3  4  1  0
  4  5  2  0
  5  6  1  0
  6  7  1  0
  7  8  1  0
  8  9  1  0
  9  1  1  0
  8  3  1  0
  8  6  1  0
  1 10  1  0
  2 11  1  0
  3 12  1  0
  4 13  1  0
  5 14  1  0
  6 15  1  0
  9 16  1  0
  9 17  1  0
M  END
