
     RDKit          3D

 19 21  0  0  0  0  0  0  0  0999 V2000
   -2.2528   -0.3106   -0.6975 C   0  0  0  0  0  0  0  0  0  0  0  0
   -2.1527    0.7909    0.0415 C   0  0  0  0  0  0  0  0  0  0  0  0
   -0.8476    0.8217    0.7542 C   0  0  0  0  0  0  0  0  0  0  0  0
   -0.0144   -0.0913   -0.1159 C   0  0  0  0  0  0  0  0  0  0  0  0
   -0.9947   -1.1287   -0.5382 C   0  0  0  0  0  0  0  0  0  0  0  0
    0.6194    0.6292   -1.0992 O   0  0  0  0  0  0  0  0  0  0  0  0
    1.7043    0.7229   -0.2001 C   0  0  0  0  0  0  0  0  0  0  0  0
    2.5667   -0.4655   -0.1517 C   0  0  0  0  0  0  0  0  0  0  0  0
    1.2579   -0.5349    0.4975 C   0  0  0  0  0  0  0  0  0  0  0  0
   -3.1103   -0.5427   -1.2976 H   0  0  0  0  0  0  0  0  0  0  0  0
   -2.9071    1.5609    0.1200 H   0  0  0  0  0  0  0  0  0  0  0  0
   -0.3930    1.8238    0.7834 H   0  0  0  0  0  0  0  0  0  0  0  0
   -0.9314    0.3746    1.7711 H   0  0  0  0  0  0  0  0  0  0  0  0
   -0.7766   -1.6117   -1.5038 H   0  0  0  0  0  0  0  0  0  0  0  0
   -1.1918   -1.8212    0.2890 H   0  0  0  0  0  0  0  0  0  0  0  0
    1.8809    1.6438    0.3435 H   0  0  0  0  0  0  0  0  0  0  0  0
    3.4754   -0.3501    0.5083 H   0  0  0  0  0  0  0  0  0  0  0  0
    2.8134   -0.9317   -1.1101 H   0  0  0  0  0  0  0  0  0  0  0  0
    1.2545   -0.5793    1.6054 H   0  0  0  0  0  0  0  0  0  0  0  0
  1  2  2  0
  2  3  1  0
  3  4  1  0
  4  5  1  0
  4  6  1  0
  6  7  1  0
  7  8  1  0
  8  9  1  0
  5  1  1  0
  9  7  1  0
  9  4  1  0
  1 10  1  0
  2 11  1  0
  3 12  1  0
  3 13  1  0
  5 14  1  0
  5 15  1  0
  7 16  1  0
  8 17  1  0
  8 18  1  0
  9 19  1  0
M  END
