
     RDKit          3D

 23 24  0  0  0  0  0  0  0  0999 V2000
   -0.9660   -0.9297    0.6781 C   0  0  0  0  0  0  0  0  0  0  0  0
   -0.3956    0.1730    0.2347 C   0  0  0  0  0  0  0  0  0  0  0  0
    1.0275    0.5427    0.2602 C   0  0  0  0  0  0  0  0  0  0  0  0
    1.7698    0.2897   -1.0566 C   0  0  0  0  0  0  0  0  0  0  0  0
    2.9679   -0.0720   -0.1983 C   0  0  0  0  0  0  0  0  0  0  0  0
    1.9618   -0.4697    0.8734 C   0  0  0  0  0  0  0  0  0  0  0  0
   -1.4590    1.0697   -0.3416 C   0  0  0  0  0  0  0  0  0  0  0  0
   -2.6945    0.2395   -0.4743 C   0  0  0  0  0  0  0  0  0  0  0  0
   -2.4364   -0.9127    0.4622 C   0  0  0  0  0  0  0  0  0  0  0  0
   -0.4411   -1.7500    1.1421 H   0  0  0  0  0  0  0  0  0  0  0  0
    1.2406    1.5532    0.6491 H   0  0  0  0  0  0  0  0  0  0  0  0
    1.9007    1.1943   -1.6706 H   0  0  0  0  0  0  0  0  0  0  0  0
    1.3953   -0.6048   -1.5596 H   0  0  0  0  0  0  0  0  0  0  0  0
    3.5902   -0.8954   -0.5775 H   0  0  0  0  0  0  0  0  0  0  0  0
    3.5200    0.8698    0.0443 H   0  0  0  0  0  0  0  0  0  0  0  0
    1.6655   -1.5351    0.7222 H   0  0  0  0  0  0  0  0  0  0  0  0
    2.2800   -0.2738    1.9045 H   0  0  0  0  0  0  0  0  0  0  0  0
   -1.5984    1.8948    0.3879 H   0  0  0  0  0  0  0  0  0  0  0  0
   -1.1254    1.5039   -1.3121 H   0  0  0  0  0  0  0  0  0  0  0  0
   -2.8844   -0.1103   -1.5196 H   0  0  0  0  0  0  0  0  0  0  0  0
   -3.5536    0.8690   -0.0974 H   0  0  0  0  0  0  0  0  0  0  0  0
   -2.7920   -1.8776    0.0044 H   0  0  0  0  0  0  0  0  0  0  0  0
   -2.9727   -0.7686    1.4445 H   0  0  0  0  0  0  0  0  0  0  0  0
  1  2  2  0
  2  3  1  0
  3  4  1  0
  4  5  1  0
  5  6  1  0
  2  7  1  0
  7  8  1  0
  8  9  1  0
  9  1  1  0
  6  3  1  0
  1 10  1  0
  3 11  1  0
  4 12  1  0
  4 13  1  0
  5 14  1  0
  5 15  1  0
  6 16  1  0
  6 17  1  0
  7 18  1  0
  7 19  1  0
  8 20  1  0
  8 21  1  0
  9 22  1  0
  9 23  1  0
M  END
