
     RDKit          3D

 17 19  0  0  0  0  0  0  0  0999 V2000
   -1.9527    0.0296    0.1473 C   0  0  0  0  0  0  0  0  0  0  0  0
   -1.3616   -1.0581   -0.3685 C   0  0  0  0  0  0  0  0  0  0  0  0
   -0.1076   -0.5585   -0.9869 C   0  0  0  0  0  0  0  0  0  0  0  0
   -0.5406    0.7225   -1.4210 O   0  0  0  0  0  0  0  0  0  0  0  0
   -1.0342    1.1530   -0.1646 C   0  0  0  0  0  0  0  0  0  0  0  0
    0.2087    1.0241    0.6963 C   0  0  0  0  0  0  0  0  0  0  0  0
    0.8684   -0.1605    0.0762 C   0  0  0  0  0  0  0  0  0  0  0  0
    2.1008   -0.7330    0.3813 C   0  0  0  0  0  0  0  0  0  0  0  0
    2.1360    0.2447   -0.5906 O   0  0  0  0  0  0  0  0  0  0  0  0
   -2.9058    0.0264    0.6733 H   0  0  0  0  0  0  0  0  0  0  0  0
   -1.7744   -2.0596   -0.3069 H   0  0  0  0  0  0  0  0  0  0  0  0
    0.2833   -1.1656   -1.7879 H   0  0  0  0  0  0  0  0  0  0  0  0
   -1.4774    2.1290   -0.1834 H   0  0  0  0  0  0  0  0  0  0  0  0
    0.8125    1.9315    0.7235 H   0  0  0  0  0  0  0  0  0  0  0  0
   -0.1579    0.8108    1.7323 H   0  0  0  0  0  0  0  0  0  0  0  0
    2.3280   -1.7703    0.0064 H   0  0  0  0  0  0  0  0  0  0  0  0
    2.5744   -0.5660    1.3732 H   0  0  0  0  0  0  0  0  0  0  0  0
  1  2  2  0
  2  3  1  0
  3  4  1  0
  4  5  1  0
  5  6  1  0
  6  7  1  0
  7  8  1  0
  8  9  1  0
  5  1  1  0
  9  7  1  0
  7  3  1  0
  1 10  1  0
  2 11  1  0
  3 12  1  0
  5 13  1  0
  6 14  1  0
  6 15  1  0
  8 16  1  0
  8 17  1  0
M  END
