
     RDKit          3D

 19 21  0  0  0  0  0  0  0  0999 V2000
    2.3169    0.2456   -0.1757 C   0  0  0  0  0  0  0  0  0  0  0  0
    1.5815    1.3570   -0.2877 C   0  0  0  0  0  0  0  0  0  0  0  0
    0.1726    0.9750   -0.3898 C   0  0  0  0  0  0  0  0  0  0  0  0
   -1.0491    1.2788   -0.7763 C   0  0  0  0  0  0  0  0  0  0  0  0
   -2.0181    0.2115   -0.4696 C   0  0  0  0  0  0  0  0  0  0  0  0
   -1.1975   -0.9283    0.1010 C   0  0  0  0  0  0  0  0  0  0  0  0
   -0.5435   -0.6412    1.4937 C   0  0  0  0  0  0  0  0  0  0  0  0
    0.1284   -0.3744    0.2356 C   0  0  0  0  0  0  0  0  0  0  0  0
    1.4150   -0.9616   -0.1979 C   0  0  0  0  0  0  0  0  0  0  0  0
    3.3791    0.1619   -0.0821 H   0  0  0  0  0  0  0  0  0  0  0  0
    1.9401    2.3877   -0.3042 H   0  0  0  0  0  0  0  0  0  0  0  0
   -1.3091    2.2062   -1.2629 H   0  0  0  0  0  0  0  0  0  0  0  0
   -2.5412   -0.1794   -1.3482 H   0  0  0  0  0  0  0  0  0  0  0  0
   -2.7688    0.5827    0.2359 H   0  0  0  0  0  0  0  0  0  0  0  0
   -1.4606   -1.9651   -0.1121 H   0  0  0  0  0  0  0  0  0  0  0  0
   -0.2641   -1.5212    2.0701 H   0  0  0  0  0  0  0  0  0  0  0  0
   -0.9758    0.2553    2.0252 H   0  0  0  0  0  0  0  0  0  0  0  0
    1.4430   -1.3439   -1.2291 H   0  0  0  0  0  0  0  0  0  0  0  0
    1.7511   -1.7466    0.4740 H   0  0  0  0  0  0  0  0  0  0  0  0
  1  2  2  0
  2  3  1  0
  3  4  2  0
  4  5  1  0
  5  6  1  0
  6  7  1  0
  7  8  1  0
  8  9  1  0
  9  1  1  0
  8  3  1  0
  8  6  1  0
  1 10  1  0
  2 11  1  0
  4 12  1  0
  5 13  1  0
  5 14  1  0
  6 15  1  0
  7 16  1  0
  7 17  1  0
  9 18  1  0
  9 19  1  0
M  END
