
     RDKit          3D

 19 21  0  0  0  0  0  0  0  0999 V2000
   -1.0677   -0.9028    1.1575 C   0  0  0  0  0  0  0  0  0  0  0  0
    0.0823   -0.6226    0.5803 C   0  0  0  0  0  0  0  0  0  0  0  0
    1.5651   -0.8459    0.5537 C   0  0  0  0  0  0  0  0  0  0  0  0
    2.1069    0.0727   -0.4889 C   0  0  0  0  0  0  0  0  0  0  0  0
    0.9040    0.6210   -1.2507 C   0  0  0  0  0  0  0  0  0  0  0  0
   -0.0175   -0.2437   -1.7825 O   0  0  0  0  0  0  0  0  0  0  0  0
   -0.1940    0.3038   -0.5245 C   0  0  0  0  0  0  0  0  0  0  0  0
   -1.4211    1.0200   -0.1368 C   0  0  0  0  0  0  0  0  0  0  0  0
   -2.1975   -0.1617    0.4786 C   0  0  0  0  0  0  0  0  0  0  0  0
   -1.2346   -1.5568    1.9932 H   0  0  0  0  0  0  0  0  0  0  0  0
    1.7709   -1.8872    0.2650 H   0  0  0  0  0  0  0  0  0  0  0  0
    1.9480   -0.5888    1.5727 H   0  0  0  0  0  0  0  0  0  0  0  0
    2.5918    0.9522   -0.0154 H   0  0  0  0  0  0  0  0  0  0  0  0
    2.8496   -0.3843   -1.1621 H   0  0  0  0  0  0  0  0  0  0  0  0
    1.0443    1.5859   -1.7937 H   0  0  0  0  0  0  0  0  0  0  0  0
   -1.1962    1.7183    0.7015 H   0  0  0  0  0  0  0  0  0  0  0  0
   -1.9913    1.4857   -0.9544 H   0  0  0  0  0  0  0  0  0  0  0  0
   -2.5919   -0.7374   -0.3837 H   0  0  0  0  0  0  0  0  0  0  0  0
   -2.9511    0.1717    1.1901 H   0  0  0  0  0  0  0  0  0  0  0  0
  1  2  2  0
  2  3  1  0
  3  4  1  0
  4  5  1  0
  5  6  1  0
  6  7  1  0
  7  8  1  0
  8  9  1  0
  9  1  1  0
  7  2  1  0
  7  5  1  0
  1 10  1  0
  3 11  1  0
  3 12  1  0
  4 13  1  0
  4 14  1  0
  5 15  1  0
  8 16  1  0
  8 17  1  0
  9 18  1  0
  9 19  1  0
M  END
