
     RDKit          3D

 21 23  0  0  0  0  0  0  0  0999 V2000
   -0.8089    1.5326    0.2537 C   0  0  0  0  0  0  0  0  0  0  0  0
    0.5075    1.5722    0.1756 C   0  0  0  0  0  0  0  0  0  0  0  0
    1.5381    0.5155    0.2442 C   0  0  0  0  0  0  0  0  0  0  0  0
    1.8023   -0.1733   -1.0894 C   0  0  0  0  0  0  0  0  0  0  0  0
    1.1315   -0.8524    0.0418 C   0  0  0  0  0  0  0  0  0  0  0  0
   -0.2880   -1.2313    0.0445 C   0  0  0  0  0  0  0  0  0  0  0  0
   -1.0075   -0.6498    1.2566 C   0  0  0  0  0  0  0  0  0  0  0  0
   -1.6507    0.3321    0.2923 C   0  0  0  0  0  0  0  0  0  0  0  0
   -1.1981   -0.5303   -0.8894 C   0  0  0  0  0  0  0  0  0  0  0  0
   -1.3045    2.4767    0.2924 H   0  0  0  0  0  0  0  0  0  0  0  0
    0.9444    2.5685    0.0323 H   0  0  0  0  0  0  0  0  0  0  0  0
    2.4281    0.7775    0.8647 H   0  0  0  0  0  0  0  0  0  0  0  0
    1.2661    0.1828   -1.9830 H   0  0  0  0  0  0  0  0  0  0  0  0
    2.8763   -0.3737   -1.2934 H   0  0  0  0  0  0  0  0  0  0  0  0
    1.7935   -1.6198    0.5552 H   0  0  0  0  0  0  0  0  0  0  0  0
   -0.4434   -2.3278    0.0541 H   0  0  0  0  0  0  0  0  0  0  0  0
   -0.3294   -0.1888    2.0025 H   0  0  0  0  0  0  0  0  0  0  0  0
   -1.7501   -1.3206    1.7214 H   0  0  0  0  0  0  0  0  0  0  0  0
   -2.7205    0.4514    0.4052 H   0  0  0  0  0  0  0  0  0  0  0  0
   -2.0386   -1.1791   -1.2611 H   0  0  0  0  0  0  0  0  0  0  0  0
   -0.7481    0.0376   -1.7204 H   0  0  0  0  0  0  0  0  0  0  0  0
  1  2  2  0
  2  3  1  0
  3  4  1  0
  4  5  1  0
  5  6  1  0
  6  7  1  0
  7  8  1  0
  8  9  1  0
  8  1  1  0
  5  3  1  0
  9  6  1  0
  1 10  1  0
  2 11  1  0
  3 12  1  0
  4 13  1  0
  4 14  1  0
  5 15  1  0
  6 16  1  0
  7 17  1  0
  7 18  1  0
  8 19  1  0
  9 20  1  0
  9 21  1  0
M  END
