
     RDKit          3D

 19 20  0  0  0  0  0  0  0  0999 V2000
    1.6742    1.0074    0.1637 C   0  0  0  0  0  0  0  0  0  0  0  0
    0.5569    1.6392   -0.1629 C   0  0  0  0  0  0  0  0  0  0  0  0
   -0.6997    1.0186   -0.6606 C   0  0  0  0  0  0  0  0  0  0  0  0
   -1.5692    0.4986    0.4532 C   0  0  0  0  0  0  0  0  0  0  0  0
   -1.1065   -0.9067    0.6387 C   0  0  0  0  0  0  0  0  0  0  0  0
   -0.3511   -1.1924   -0.6407 C   0  0  0  0  0  0  0  0  0  0  0  0
    1.0971   -1.3979   -0.3612 C   0  0  0  0  0  0  0  0  0  0  0  0
    1.9178   -0.4512    0.0897 C   0  0  0  0  0  0  0  0  0  0  0  0
   -0.4633   -0.0951   -1.4513 O   0  0  0  0  0  0  0  0  0  0  0  0
    2.4927    1.6271    0.5218 H   0  0  0  0  0  0  0  0  0  0  0  0
    0.6014    2.7131   -0.0422 H   0  0  0  0  0  0  0  0  0  0  0  0
   -1.2768    1.7616   -1.2408 H   0  0  0  0  0  0  0  0  0  0  0  0
   -2.6351    0.5288    0.1631 H   0  0  0  0  0  0  0  0  0  0  0  0
   -1.4888    1.1230    1.3759 H   0  0  0  0  0  0  0  0  0  0  0  0
   -0.4354   -1.0166    1.5325 H   0  0  0  0  0  0  0  0  0  0  0  0
   -1.9697   -1.5731    0.7926 H   0  0  0  0  0  0  0  0  0  0  0  0
   -0.7430   -2.1284   -1.0835 H   0  0  0  0  0  0  0  0  0  0  0  0
    1.5331   -2.3735   -0.5284 H   0  0  0  0  0  0  0  0  0  0  0  0
    2.8655   -0.7825    0.4403 H   0  0  0  0  0  0  0  0  0  0  0  0
  1  2  2  0
  2  3  1  0
  3  4  1  0
  4  5  1  0
  5  6  1  0
  6  7  1  0
  7  8  2  0
  6  9  1  0
  8  1  1  0
  9  3  1  0
  1 10  1  0
  2 11  1  0
  3 12  1  0
  4 13  1  0
  4 14  1  0
  5 15  1  0
  5 16  1  0
  6 17  1  0
  7 18  1  0
  8 19  1  0
M  END
