
     RDKit          3D

 20 21  0  0  0  0  0  0  0  0999 V2000
    1.8868    0.2314   -0.6973 C   0  0  0  0  0  0  0  0  0  0  0  0
    1.1758    1.1796   -0.1263 C   0  0  0  0  0  0  0  0  0  0  0  0
    0.2643    0.5956    0.8615 C   0  0  0  0  0  0  0  0  0  0  0  0
   -1.1531    1.1075    0.7433 C   0  0  0  0  0  0  0  0  0  0  0  0
   -1.8082    0.2313   -0.3068 C   0  0  0  0  0  0  0  0  0  0  0  0
   -0.8796   -0.9189   -0.5869 C   0  0  0  0  0  0  0  0  0  0  0  0
    0.2025   -0.8624    0.4886 C   0  0  0  0  0  0  0  0  0  0  0  0
    1.5476   -1.1089   -0.1707 C   0  0  0  0  0  0  0  0  0  0  0  0
    2.6636    0.3641   -1.4869 H   0  0  0  0  0  0  0  0  0  0  0  0
    1.2894    2.2541   -0.3919 H   0  0  0  0  0  0  0  0  0  0  0  0
    0.6132    0.7306    1.9087 H   0  0  0  0  0  0  0  0  0  0  0  0
   -1.2147    2.1764    0.5138 H   0  0  0  0  0  0  0  0  0  0  0  0
   -1.6347    0.9428    1.7312 H   0  0  0  0  0  0  0  0  0  0  0  0
   -2.0595    0.7898   -1.2266 H   0  0  0  0  0  0  0  0  0  0  0  0
   -2.7579   -0.2069    0.1039 H   0  0  0  0  0  0  0  0  0  0  0  0
   -1.3909   -1.9061   -0.5667 H   0  0  0  0  0  0  0  0  0  0  0  0
   -0.4421   -0.7816   -1.5936 H   0  0  0  0  0  0  0  0  0  0  0  0
   -0.0054   -1.5346    1.3221 H   0  0  0  0  0  0  0  0  0  0  0  0
    1.4067   -1.7756   -1.0575 H   0  0  0  0  0  0  0  0  0  0  0  0
    2.2962   -1.5082    0.5380 H   0  0  0  0  0  0  0  0  0  0  0  0
  1  2  2  0
  2  3  1  0
  3  4  1  0
  4  5  1  0
  5  6  1  0
  6  7  1  0
  7  8  1  0
  8  1  1  0
  7  3  1  0
  1  9  1  0
  2 10  1  0
  3 11  1  0
  4 12  1  0
  4 13  1  0
  5 14  1  0
  5 15  1  0
  6 16  1  0
  6 17  1  0
  7 18  1  0
  8 19  1  0
  8 20  1  0
M  END
