
     RDKit          3D

 21 23  0  0  0  0  0  0  0  0999 V2000
   -0.7232    1.8644    0.2268 C   0  0  0  0  0  0  0  0  0  0  0  0
    0.5197    1.4354    0.0675 C   0  0  0  0  0  0  0  0  0  0  0  0
    0.8488   -0.0184   -0.0020 C   0  0  0  0  0  0  0  0  0  0  0  0
    1.8242   -0.5776    0.9218 C   0  0  0  0  0  0  0  0  0  0  0  0
    2.3007   -0.2869   -0.4515 C   0  0  0  0  0  0  0  0  0  0  0  0
   -0.2115   -0.7924   -0.6959 C   0  0  0  0  0  0  0  0  0  0  0  0
   -1.2402   -1.5821   -0.0117 C   0  0  0  0  0  0  0  0  0  0  0  0
   -1.5638   -0.2399   -0.6385 C   0  0  0  0  0  0  0  0  0  0  0  0
   -1.8045    0.8556    0.3372 C   0  0  0  0  0  0  0  0  0  0  0  0
   -0.9670    2.9205    0.2778 H   0  0  0  0  0  0  0  0  0  0  0  0
    1.2880    2.2073   -0.0098 H   0  0  0  0  0  0  0  0  0  0  0  0
    1.8598   -1.6122    1.2586 H   0  0  0  0  0  0  0  0  0  0  0  0
    2.2193    0.1383    1.7019 H   0  0  0  0  0  0  0  0  0  0  0  0
    2.9328    0.5707   -0.6978 H   0  0  0  0  0  0  0  0  0  0  0  0
    2.4516   -1.1618   -1.1245 H   0  0  0  0  0  0  0  0  0  0  0  0
    0.1000   -1.1919   -1.7056 H   0  0  0  0  0  0  0  0  0  0  0  0
   -1.7119   -2.4322   -0.5273 H   0  0  0  0  0  0  0  0  0  0  0  0
   -1.2439   -1.6571    1.1123 H   0  0  0  0  0  0  0  0  0  0  0  0
   -2.2033   -0.2289   -1.5679 H   0  0  0  0  0  0  0  0  0  0  0  0
   -1.8715    0.4786    1.3964 H   0  0  0  0  0  0  0  0  0  0  0  0
   -2.8041    1.3106    0.1321 H   0  0  0  0  0  0  0  0  0  0  0  0
  1  2  2  0
  2  3  1  0
  3  4  1  0
  4  5  1  0
  3  6  1  0
  6  7  1  0
  7  8  1  0
  8  9  1  0
  9  1  1  0
  5  3  1  0
  8  6  1  0
  1 10  1  0
  2 11  1  0
  4 12  1  0
  4 13  1  0
  5 14  1  0
  5 15  1  0
  6 16  1  0
  7 17  1  0
  7 18  1  0
  8 19  1  0
  9 20  1  0
  9 21  1  0
M  END
