
     RDKit          3D

 21 23  0  0  0  0  0  0  0  0999 V2000
    1.2656    1.3502    0.5991 C   0  0  0  0  0  0  0  0  0  0  0  0
    0.2030    1.0395   -0.0241 C   0  0  0  0  0  0  0  0  0  0  0  0
   -1.1584    1.2678   -0.4979 C   0  0  0  0  0  0  0  0  0  0  0  0
   -1.9791   -0.0029   -0.2431 C   0  0  0  0  0  0  0  0  0  0  0  0
   -1.2732   -1.2804   -0.0247 C   0  0  0  0  0  0  0  0  0  0  0  0
    0.0887   -1.1555    0.5278 C   0  0  0  0  0  0  0  0  0  0  0  0
    1.4593   -0.9918    0.1810 C   0  0  0  0  0  0  0  0  0  0  0  0
    2.3165    0.2499    0.5118 C   0  0  0  0  0  0  0  0  0  0  0  0
    0.5847   -0.2992   -0.6588 C   0  0  0  0  0  0  0  0  0  0  0  0
    1.4218    2.3080    1.1483 H   0  0  0  0  0  0  0  0  0  0  0  0
   -1.6495    2.1473   -0.0501 H   0  0  0  0  0  0  0  0  0  0  0  0
   -1.1397    1.4251   -1.5900 H   0  0  0  0  0  0  0  0  0  0  0  0
   -2.7220   -0.0679   -1.0624 H   0  0  0  0  0  0  0  0  0  0  0  0
   -2.5713    0.2302    0.6789 H   0  0  0  0  0  0  0  0  0  0  0  0
   -1.8642   -1.9249    0.6978 H   0  0  0  0  0  0  0  0  0  0  0  0
   -1.3074   -1.9084   -0.9688 H   0  0  0  0  0  0  0  0  0  0  0  0
   -0.0461   -0.7093    1.5601 H   0  0  0  0  0  0  0  0  0  0  0  0
    2.1250   -1.7819   -0.2452 H   0  0  0  0  0  0  0  0  0  0  0  0
    2.9894    0.4853   -0.3410 H   0  0  0  0  0  0  0  0  0  0  0  0
    2.8269    0.1413    1.4712 H   0  0  0  0  0  0  0  0  0  0  0  0
    0.4302   -0.5225   -1.6699 H   0  0  0  0  0  0  0  0  0  0  0  0
  1  2  2  0
  2  3  1  0
  3  4  1  0
  4  5  1  0
  5  6  1  0
  6  7  1  0
  7  8  1  0
  7  9  1  0
  8  1  1  0
  9  2  1  0
  9  6  1  0
  1 10  1  0
  3 11  1  0
  3 12  1  0
  4 13  1  0
  4 14  1  0
  5 15  1  0
  5 16  1  0
  6 17  1  0
  7 18  1  0
  8 19  1  0
  8 20  1  0
  9 21  1  0
M  END
