
     RDKit          3D

 19 21  0  0  0  0  0  0  0  0999 V2000
   -1.5566   -1.2224   -0.1492 C   0  0  0  0  0  0  0  0  0  0  0  0
   -1.3945   -0.2405   -1.0315 C   0  0  0  0  0  0  0  0  0  0  0  0
   -0.6342    0.8897   -0.4442 C   0  0  0  0  0  0  0  0  0  0  0  0
    0.8822    0.7550   -0.5603 C   0  0  0  0  0  0  0  0  0  0  0  0
    1.3065   -0.6859   -0.6786 C   0  0  0  0  0  0  0  0  0  0  0  0
    0.7138   -1.4976    0.2392 O   0  0  0  0  0  0  0  0  0  0  0  0
   -0.4216   -1.0296    0.8269 C   0  0  0  0  0  0  0  0  0  0  0  0
   -0.4505    0.4709    0.9940 C   0  0  0  0  0  0  0  0  0  0  0  0
    0.9286    1.1318    0.9271 C   0  0  0  0  0  0  0  0  0  0  0  0
   -2.3278   -1.9860   -0.1355 H   0  0  0  0  0  0  0  0  0  0  0  0
   -1.7922   -0.3006   -2.0604 H   0  0  0  0  0  0  0  0  0  0  0  0
   -1.0027    1.8878   -0.6313 H   0  0  0  0  0  0  0  0  0  0  0  0
    1.3747    1.4382   -1.2331 H   0  0  0  0  0  0  0  0  0  0  0  0
    1.2144   -1.0216   -1.7313 H   0  0  0  0  0  0  0  0  0  0  0  0
    2.4165   -0.6977   -0.4704 H   0  0  0  0  0  0  0  0  0  0  0  0
   -0.6248   -1.5208    1.7914 H   0  0  0  0  0  0  0  0  0  0  0  0
   -1.1329    0.8683    1.7260 H   0  0  0  0  0  0  0  0  0  0  0  0
    0.8378    2.2017    1.1199 H   0  0  0  0  0  0  0  0  0  0  0  0
    1.6634    0.5590    1.5013 H   0  0  0  0  0  0  0  0  0  0  0  0
  1  2  2  0
  2  3  1  0
  3  4  1  0
  4  5  1  0
  5  6  1  0
  6  7  1  0
  7  8  1  0
  8  9  1  0
  7  1  1  0
  8  3  1  0
  9  4  1  0
  1 10  1  0
  2 11  1  0
  3 12  1  0
  4 13  1  0
  5 14  1  0
  5 15  1  0
  7 16  1  0
  8 17  1  0
  9 18  1  0
  9 19  1  0
M  END
