
     RDKit          3D

 21 22  0  0  0  0  0  0  0  0999 V2000
   -1.0496    0.7187   -1.3490 C   0  0  0  0  0  0  0  0  0  0  0  0
    0.2454    0.7027   -1.1226 C   0  0  0  0  0  0  0  0  0  0  0  0
    0.9798    0.2748    0.1163 C   0  0  0  0  0  0  0  0  0  0  0  0
    2.2567   -0.3968   -0.0616 C   0  0  0  0  0  0  0  0  0  0  0  0
    2.3071    1.0410    0.3309 C   0  0  0  0  0  0  0  0  0  0  0  0
    0.1913    0.2322    1.2141 O   0  0  0  0  0  0  0  0  0  0  0  0
   -0.6607   -0.8334    1.3325 C   0  0  0  0  0  0  0  0  0  0  0  0
   -1.6257   -1.0181    0.2225 C   0  0  0  0  0  0  0  0  0  0  0  0
   -2.1074    0.2976   -0.3828 C   0  0  0  0  0  0  0  0  0  0  0  0
   -1.4239    1.0583   -2.3024 H   0  0  0  0  0  0  0  0  0  0  0  0
    0.8735    1.0349   -1.9140 H   0  0  0  0  0  0  0  0  0  0  0  0
    2.6550   -1.1722    0.6339 H   0  0  0  0  0  0  0  0  0  0  0  0
    2.5889   -0.5934   -1.1151 H   0  0  0  0  0  0  0  0  0  0  0  0
    2.5571    1.8335   -0.3935 H   0  0  0  0  0  0  0  0  0  0  0  0
    2.6170    1.2186    1.3803 H   0  0  0  0  0  0  0  0  0  0  0  0
   -0.1140   -1.7863    1.4894 H   0  0  0  0  0  0  0  0  0  0  0  0
   -1.2502   -0.6759    2.2757 H   0  0  0  0  0  0  0  0  0  0  0  0
   -2.5590   -1.5080    0.6259 H   0  0  0  0  0  0  0  0  0  0  0  0
   -1.2709   -1.7083   -0.5743 H   0  0  0  0  0  0  0  0  0  0  0  0
   -2.1124    1.0615    0.4217 H   0  0  0  0  0  0  0  0  0  0  0  0
   -3.0980    0.2185   -0.8279 H   0  0  0  0  0  0  0  0  0  0  0  0
  1  2  2  0
  2  3  1  0
  3  4  1  0
  4  5  1  0
  3  6  1  0
  6  7  1  0
  7  8  1  0
  8  9  1  0
  9  1  1  0
  5  3  1  0
  1 10  1  0
  2 11  1  0
  4 12  1  0
  4 13  1  0
  5 14  1  0
  5 15  1  0
  7 16  1  0
  7 17  1  0
  8 18  1  0
  8 19  1  0
  9 20  1  0
  9 21  1  0
M  END
