
     RDKit          3D

 16 18  0  0  0  0  0  0  0  0999 V2000
    1.6659    0.2743   -0.6048 C   0  0  0  0  0  0  0  0  0  0  0  0
    0.8470    1.3027   -0.4726 C   0  0  0  0  0  0  0  0  0  0  0  0
   -0.3719    0.9721    0.2614 C   0  0  0  0  0  0  0  0  0  0  0  0
   -0.0873   -0.3757    0.8874 C   0  0  0  0  0  0  0  0  0  0  0  0
    1.0525   -0.8886    0.0511 C   0  0  0  0  0  0  0  0  0  0  0  0
   -1.4477   -0.8783    0.4730 C   0  0  0  0  0  0  0  0  0  0  0  0
   -2.5412   -0.0630    0.3869 O   0  0  0  0  0  0  0  0  0  0  0  0
   -1.5089    0.3361   -0.4519 C   0  0  0  0  0  0  0  0  0  0  0  0
    2.6444    0.3222   -1.1296 H   0  0  0  0  0  0  0  0  0  0  0  0
    1.0397    2.3158   -0.8661 H   0  0  0  0  0  0  0  0  0  0  0  0
   -0.6464    1.7625    0.9959 H   0  0  0  0  0  0  0  0  0  0  0  0
    0.0986   -0.3364    1.9759 H   0  0  0  0  0  0  0  0  0  0  0  0
    1.7648   -1.4602    0.6770 H   0  0  0  0  0  0  0  0  0  0  0  0
    0.6039   -1.5881   -0.7120 H   0  0  0  0  0  0  0  0  0  0  0  0
   -1.5684   -1.8819    0.0511 H   0  0  0  0  0  0  0  0  0  0  0  0
   -1.5449    0.1866   -1.5227 H   0  0  0  0  0  0  0  0  0  0  0  0
  1  2  2  0
  2  3  1  0
  3  4  1  0
  4  5  1  0
  4  6  1  0
  6  7  1  0
  7  8  1  0
  5  1  1  0
  8  6  1  0
  8  3  1  0
  1  9  1  0
  2 10  1  0
  3 11  1  0
  4 12  1  0
  5 13  1  0
  5 14  1  0
  6 15  1  0
  8 16  1  0
M  END
