
     RDKit          3D

 21 23  0  0  0  0  0  0  0  0999 V2000
   -1.6980   -1.2038    0.0797 C   0  0  0  0  0  0  0  0  0  0  0  0
   -0.3781   -1.2088    0.0922 C   0  0  0  0  0  0  0  0  0  0  0  0
    1.0723   -1.5356    0.1730 C   0  0  0  0  0  0  0  0  0  0  0  0
    1.3536   -0.2386   -0.5752 C   0  0  0  0  0  0  0  0  0  0  0  0
    1.9794    0.7760    0.3631 C   0  0  0  0  0  0  0  0  0  0  0  0
    0.6014    0.9646    0.9681 C   0  0  0  0  0  0  0  0  0  0  0  0
    0.0474    0.1952   -0.1698 C   0  0  0  0  0  0  0  0  0  0  0  0
   -1.0167    0.7493   -0.9851 C   0  0  0  0  0  0  0  0  0  0  0  0
   -2.2302    0.1782   -0.2158 C   0  0  0  0  0  0  0  0  0  0  0  0
   -2.3668   -2.0360    0.2492 H   0  0  0  0  0  0  0  0  0  0  0  0
    1.4233   -1.5376    1.2275 H   0  0  0  0  0  0  0  0  0  0  0  0
    1.3962   -2.4344   -0.3646 H   0  0  0  0  0  0  0  0  0  0  0  0
    1.7101   -0.3006   -1.5808 H   0  0  0  0  0  0  0  0  0  0  0  0
    2.6952    0.3365    1.1053 H   0  0  0  0  0  0  0  0  0  0  0  0
    2.3647    1.6162   -0.2253 H   0  0  0  0  0  0  0  0  0  0  0  0
    0.3183    2.0337    0.9566 H   0  0  0  0  0  0  0  0  0  0  0  0
    0.4237    0.4640    1.9254 H   0  0  0  0  0  0  0  0  0  0  0  0
   -1.1038    0.4259   -2.0176 H   0  0  0  0  0  0  0  0  0  0  0  0
   -1.1314    1.8676   -0.8881 H   0  0  0  0  0  0  0  0  0  0  0  0
   -2.3512    0.7304    0.7360 H   0  0  0  0  0  0  0  0  0  0  0  0
   -3.1092    0.1577   -0.8538 H   0  0  0  0  0  0  0  0  0  0  0  0
  1  2  2  0
  2  3  1  0
  3  4  1  0
  4  5  1  0
  5  6  1  0
  6  7  1  0
  7  8  1  0
  8  9  1  0
  9  1  1  0
  7  2  1  0
  7  4  1  0
  1 10  1  0
  3 11  1  0
  3 12  1  0
  4 13  1  0
  5 14  1  0
  5 15  1  0
  6 16  1  0
  6 17  1  0
  8 18  1  0
  8 19  1  0
  9 20  1  0
  9 21  1  0
M  END
