
     RDKit          3D

 18 19  0  0  0  0  0  0  0  0999 V2000
    1.5599    0.7804   -0.6154 C   0  0  0  0  0  0  0  0  0  0  0  0
    0.4754    1.5356   -0.4800 C   0  0  0  0  0  0  0  0  0  0  0  0
   -0.6593    1.1198    0.3944 C   0  0  0  0  0  0  0  0  0  0  0  0
   -1.5627    0.1278   -0.2757 C   0  0  0  0  0  0  0  0  0  0  0  0
   -0.9675   -1.1997    0.1885 C   0  0  0  0  0  0  0  0  0  0  0  0
    0.3297   -0.7668    0.8761 C   0  0  0  0  0  0  0  0  0  0  0  0
    1.4501   -0.6171   -0.1097 C   0  0  0  0  0  0  0  0  0  0  0  0
   -0.0604    0.4182    1.4661 O   0  0  0  0  0  0  0  0  0  0  0  0
    2.4879    1.1200   -1.0603 H   0  0  0  0  0  0  0  0  0  0  0  0
    0.4601    2.4719   -1.0405 H   0  0  0  0  0  0  0  0  0  0  0  0
   -1.1919    1.9783    0.8276 H   0  0  0  0  0  0  0  0  0  0  0  0
   -1.5372    0.2024   -1.3862 H   0  0  0  0  0  0  0  0  0  0  0  0
   -2.6110    0.2524    0.1177 H   0  0  0  0  0  0  0  0  0  0  0  0
   -1.6389   -1.7329    0.8610 H   0  0  0  0  0  0  0  0  0  0  0  0
   -0.6874   -1.8362   -0.6911 H   0  0  0  0  0  0  0  0  0  0  0  0
    0.5372   -1.5642    1.6306 H   0  0  0  0  0  0  0  0  0  0  0  0
    1.1992   -1.2889   -0.9814 H   0  0  0  0  0  0  0  0  0  0  0  0
    2.4168   -1.0008    0.2782 H   0  0  0  0  0  0  0  0  0  0  0  0
  1  2  2  0
  2  3  1  0
  3  4  1  0
  4  5  1  0
  5  6  1  0
  6  7  1  0
  6  8  1  0
  7  1  1  0
  8  3  1  0
  1  9  1  0
  2 10  1  0
  3 11  1  0
  4 12  1  0
  4 13  1  0
  5 14  1  0
  5 15  1  0
  6 16  1  0
  7 17  1  0
  7 18  1  0
M  END
