
     RDKit          3D

 19 21  0  0  0  0  0  0  0  0999 V2000
   -1.6134    0.8333    0.4809 C   0  0  0  0  0  0  0  0  0  0  0  0
   -1.8191   -0.4812    0.6797 C   0  0  0  0  0  0  0  0  0  0  0  0
   -0.6687   -1.1858    0.0394 C   0  0  0  0  0  0  0  0  0  0  0  0
   -0.4687   -0.2725   -1.1864 C   0  0  0  0  0  0  0  0  0  0  0  0
   -0.3788    1.0034   -0.3289 C   0  0  0  0  0  0  0  0  0  0  0  0
    0.7857    0.6418    0.5592 C   0  0  0  0  0  0  0  0  0  0  0  0
    2.0339    0.3430   -0.2013 C   0  0  0  0  0  0  0  0  0  0  0  0
    1.7280   -1.0242   -0.0800 O   0  0  0  0  0  0  0  0  0  0  0  0
    0.6091   -0.8726    0.7618 C   0  0  0  0  0  0  0  0  0  0  0  0
   -2.2289    1.6392    0.8402 H   0  0  0  0  0  0  0  0  0  0  0  0
   -2.6699   -0.8510    1.2055 H   0  0  0  0  0  0  0  0  0  0  0  0
   -0.8402   -2.2103   -0.2145 H   0  0  0  0  0  0  0  0  0  0  0  0
   -1.3245   -0.2714   -1.8456 H   0  0  0  0  0  0  0  0  0  0  0  0
    0.4960   -0.5353   -1.6275 H   0  0  0  0  0  0  0  0  0  0  0  0
   -0.2949    1.9030   -0.8898 H   0  0  0  0  0  0  0  0  0  0  0  0
    0.8763    1.2093    1.4920 H   0  0  0  0  0  0  0  0  0  0  0  0
    2.9870    0.6413    0.2948 H   0  0  0  0  0  0  0  0  0  0  0  0
    2.0678    0.7111   -1.2511 H   0  0  0  0  0  0  0  0  0  0  0  0
    0.7231   -1.2211    1.7775 H   0  0  0  0  0  0  0  0  0  0  0  0
  1  2  2  0
  2  3  1  0
  3  4  1  0
  4  5  1  0
  5  6  1  0
  6  7  1  0
  7  8  1  0
  8  9  1  0
  5  1  1  0
  9  6  1  0
  9  3  1  0
  1 10  1  0
  2 11  1  0
  3 12  1  0
  4 13  1  0
  4 14  1  0
  5 15  1  0
  6 16  1  0
  7 17  1  0
  7 18  1  0
  9 19  1  0
M  END
