
     RDKit          3D

 19 20  0  0  0  0  0  0  0  0999 V2000
   -0.5002   -1.5190   -0.4723 C   0  0  0  0  0  0  0  0  0  0  0  0
    0.7964   -1.4567   -0.2795 C   0  0  0  0  0  0  0  0  0  0  0  0
    1.5932   -0.2814    0.1509 C   0  0  0  0  0  0  0  0  0  0  0  0
    1.3191    0.8786   -0.7794 C   0  0  0  0  0  0  0  0  0  0  0  0
    0.0888    1.3816   -0.7603 C   0  0  0  0  0  0  0  0  0  0  0  0
   -0.8747    0.7713    0.1948 C   0  0  0  0  0  0  0  0  0  0  0  0
   -1.5353   -0.4585   -0.3848 C   0  0  0  0  0  0  0  0  0  0  0  0
   -0.1553    0.5154    1.4759 C   0  0  0  0  0  0  0  0  0  0  0  0
    1.1410    0.1161    1.3933 O   0  0  0  0  0  0  0  0  0  0  0  0
   -0.8773   -2.4885   -0.7353 H   0  0  0  0  0  0  0  0  0  0  0  0
    1.3611   -2.3528   -0.4489 H   0  0  0  0  0  0  0  0  0  0  0  0
    2.6629   -0.4611    0.1978 H   0  0  0  0  0  0  0  0  0  0  0  0
    2.1037    1.2635   -1.4210 H   0  0  0  0  0  0  0  0  0  0  0  0
   -0.2350    2.1981   -1.3958 H   0  0  0  0  0  0  0  0  0  0  0  0
   -1.7064    1.4904    0.4128 H   0  0  0  0  0  0  0  0  0  0  0  0
   -1.7921   -0.1891   -1.4512 H   0  0  0  0  0  0  0  0  0  0  0  0
   -2.4440   -0.7483    0.1293 H   0  0  0  0  0  0  0  0  0  0  0  0
   -0.7888   -0.1549    2.1293 H   0  0  0  0  0  0  0  0  0  0  0  0
   -0.1571    1.4954    2.0443 H   0  0  0  0  0  0  0  0  0  0  0  0
  1  2  2  0
  2  3  1  0
  3  4  1  0
  4  5  2  0
  5  6  1  0
  6  7  1  0
  6  8  1  0
  8  9  1  0
  7  1  1  0
  9  3  1  0
  1 10  1  0
  2 11  1  0
  3 12  1  0
  4 13  1  0
  5 14  1  0
  6 15  1  0
  7 16  1  0
  7 17  1  0
  8 18  1  0
  8 19  1  0
M  END
