
     RDKit          3D

 19 21  0  0  0  0  0  0  0  0999 V2000
    0.8302    0.7029   -1.4439 C   0  0  0  0  0  0  0  0  0  0  0  0
   -0.3958    0.9728   -1.0316 C   0  0  0  0  0  0  0  0  0  0  0  0
   -0.7672    0.0754    0.0703 C   0  0  0  0  0  0  0  0  0  0  0  0
   -2.1148   -0.5757    0.1253 C   0  0  0  0  0  0  0  0  0  0  0  0
   -1.7349    0.5099    1.0616 C   0  0  0  0  0  0  0  0  0  0  0  0
    0.3777   -0.8403    0.3335 C   0  0  0  0  0  0  0  0  0  0  0  0
    1.1906   -0.5662    1.3992 O   0  0  0  0  0  0  0  0  0  0  0  0
    2.1759   -0.0282    0.5628 C   0  0  0  0  0  0  0  0  0  0  0  0
    1.4153   -0.3968   -0.6719 C   0  0  0  0  0  0  0  0  0  0  0  0
    1.3245    1.2273   -2.2420 H   0  0  0  0  0  0  0  0  0  0  0  0
   -1.0129    1.7477   -1.4617 H   0  0  0  0  0  0  0  0  0  0  0  0
   -2.1996   -1.5851    0.6011 H   0  0  0  0  0  0  0  0  0  0  0  0
   -2.7499   -0.4139   -0.7474 H   0  0  0  0  0  0  0  0  0  0  0  0
   -2.2506    1.4919    0.8520 H   0  0  0  0  0  0  0  0  0  0  0  0
   -1.5894    0.3359    2.1245 H   0  0  0  0  0  0  0  0  0  0  0  0
    0.1887   -1.9298    0.2010 H   0  0  0  0  0  0  0  0  0  0  0  0
    3.1232   -0.5855    0.7275 H   0  0  0  0  0  0  0  0  0  0  0  0
    2.2732    1.0565    0.7736 H   0  0  0  0  0  0  0  0  0  0  0  0
    1.9158   -1.1987   -1.2338 H   0  0  0  0  0  0  0  0  0  0  0  0
  1  2  2  0
  2  3  1  0
  3  4  1  0
  4  5  1  0
  3  6  1  0
  6  7  1  0
  7  8  1  0
  8  9  1  0
  9  1  1  0
  5  3  1  0
  9  6  1  0
  1 10  1  0
  2 11  1  0
  4 12  1  0
  4 13  1  0
  5 14  1  0
  5 15  1  0
  6 16  1  0
  8 17  1  0
  8 18  1  0
  9 19  1  0
M  END
