
     RDKit          3D

 18 19  0  0  0  0  0  0  0  0999 V2000
   -0.3406    1.5606   -0.0755 C   0  0  0  0  0  0  0  0  0  0  0  0
   -1.5030    0.9024   -0.1761 C   0  0  0  0  0  0  0  0  0  0  0  0
   -1.6909   -0.4859    0.2487 C   0  0  0  0  0  0  0  0  0  0  0  0
   -1.9459   -1.5856   -0.4338 O   0  0  0  0  0  0  0  0  0  0  0  0
   -0.6835   -1.2430   -0.6525 C   0  0  0  0  0  0  0  0  0  0  0  0
    0.5191   -1.3755    0.1814 C   0  0  0  0  0  0  0  0  0  0  0  0
    1.4392   -0.1909   -0.1466 C   0  0  0  0  0  0  0  0  0  0  0  0
    0.9706    1.0908    0.4551 C   0  0  0  0  0  0  0  0  0  0  0  0
   -0.3852    2.6001   -0.4458 H   0  0  0  0  0  0  0  0  0  0  0  0
   -2.3055    1.4785   -0.6001 H   0  0  0  0  0  0  0  0  0  0  0  0
   -1.5834   -0.6134    1.3490 H   0  0  0  0  0  0  0  0  0  0  0  0
   -0.4868   -0.8369   -1.6683 H   0  0  0  0  0  0  0  0  0  0  0  0
    0.3615   -1.3617    1.2717 H   0  0  0  0  0  0  0  0  0  0  0  0
    1.0945   -2.2814   -0.1522 H   0  0  0  0  0  0  0  0  0  0  0  0
    1.4776   -0.0497   -1.2530 H   0  0  0  0  0  0  0  0  0  0  0  0
    2.4451   -0.4041    0.2508 H   0  0  0  0  0  0  0  0  0  0  0  0
    0.8945    0.9408    1.5729 H   0  0  0  0  0  0  0  0  0  0  0  0
    1.7226    1.8548    0.2743 H   0  0  0  0  0  0  0  0  0  0  0  0
  1  2  2  0
  2  3  1  0
  3  4  1  0
  4  5  1  0
  5  6  1  0
  6  7  1  0
  7  8  1  0
  8  1  1  0
  5  3  1  0
  1  9  1  0
  2 10  1  0
  3 11  1  0
  5 12  1  0
  6 13  1  0
  6 14  1  0
  7 15  1  0
  7 16  1  0
  8 17  1  0
  8 18  1  0
M  END
