
     RDKit          3D

 18 20  0  0  0  0  0  0  0  0999 V2000
    1.8130    0.2338    0.0413 C   0  0  0  0  0  0  0  0  0  0  0  0
    1.1706    1.4026    0.1261 C   0  0  0  0  0  0  0  0  0  0  0  0
   -0.2636    1.4096   -0.1565 C   0  0  0  0  0  0  0  0  0  0  0  0
   -1.4741    0.6319    0.0148 C   0  0  0  0  0  0  0  0  0  0  0  0
   -1.5079   -0.8245   -0.4831 C   0  0  0  0  0  0  0  0  0  0  0  0
   -0.2806   -1.0387    0.3947 C   0  0  0  0  0  0  0  0  0  0  0  0
    1.0517   -1.0195   -0.3356 C   0  0  0  0  0  0  0  0  0  0  0  0
   -0.5028    0.3637    0.8773 C   0  0  0  0  0  0  0  0  0  0  0  0
    2.8700    0.2317    0.2494 H   0  0  0  0  0  0  0  0  0  0  0  0
    1.6392    2.3221    0.3862 H   0  0  0  0  0  0  0  0  0  0  0  0
   -0.2404    1.3910   -1.2594 H   0  0  0  0  0  0  0  0  0  0  0  0
   -2.3947    1.1772    0.1465 H   0  0  0  0  0  0  0  0  0  0  0  0
   -2.3976   -1.3811   -0.2039 H   0  0  0  0  0  0  0  0  0  0  0  0
   -1.2780   -0.8002   -1.5733 H   0  0  0  0  0  0  0  0  0  0  0  0
   -0.3850   -1.7598    1.2002 H   0  0  0  0  0  0  0  0  0  0  0  0
    1.6365   -1.8690    0.0854 H   0  0  0  0  0  0  0  0  0  0  0  0
    0.9603   -1.1380   -1.4137 H   0  0  0  0  0  0  0  0  0  0  0  0
   -0.4165    0.6674    1.9036 H   0  0  0  0  0  0  0  0  0  0  0  0
  1  2  2  0
  2  3  1  0
  3  4  1  0
  4  5  1  0
  5  6  1  0
  6  7  1  0
  6  8  1  0
  7  1  1  0
  8  3  1  0
  8  4  1  0
  1  9  1  0
  2 10  1  0
  3 11  1  0
  4 12  1  0
  5 13  1  0
  5 14  1  0
  6 15  1  0
  7 16  1  0
  7 17  1  0
  8 18  1  0
M  END
