
     RDKit          3D

 15 16  0  0  0  0  0  0  0  0999 V2000
    0.8151    0.9188    0.7043 C   0  0  0  0  0  0  0  0  0  0  0  0
    1.3345   -0.2957    0.6100 C   0  0  0  0  0  0  0  0  0  0  0  0
    0.4809   -1.1049   -0.2977 C   0  0  0  0  0  0  0  0  0  0  0  0
    0.0344    0.0230   -1.2557 C   0  0  0  0  0  0  0  0  0  0  0  0
   -0.4529    0.8904   -0.0812 C   0  0  0  0  0  0  0  0  0  0  0  0
   -1.3332   -0.1350    0.5936 C   0  0  0  0  0  0  0  0  0  0  0  0
   -0.7411   -1.3742    0.3152 O   0  0  0  0  0  0  0  0  0  0  0  0
    1.1693    1.7959    1.2187 H   0  0  0  0  0  0  0  0  0  0  0  0
    2.2207   -0.6504    1.0998 H   0  0  0  0  0  0  0  0  0  0  0  0
    0.9398   -1.9268   -0.7883 H   0  0  0  0  0  0  0  0  0  0  0  0
    0.9388    0.4081   -1.7103 H   0  0  0  0  0  0  0  0  0  0  0  0
   -0.7681   -0.2867   -1.9081 H   0  0  0  0  0  0  0  0  0  0  0  0
   -0.8828    1.8138   -0.3467 H   0  0  0  0  0  0  0  0  0  0  0  0
   -1.3971    0.0768    1.6704 H   0  0  0  0  0  0  0  0  0  0  0  0
   -2.3583   -0.1532    0.1759 H   0  0  0  0  0  0  0  0  0  0  0  0
  1  2  2  0
  2  3  1  0
  3  4  1  0
  4  5  1  0
  5  6  1  0
  6  7  1  0
  5  1  1  0
  7  3  1  0
  1  8  1  0
  2  9  1  0
  3 10  1  0
  4 11  1  0
  4 12  1  0
  5 13  1  0
  6 14  1  0
  6 15  1  0
M  END
