
     RDKit          3D

 17 19  0  0  0  0  0  0  0  0999 V2000
    1.9696   -0.0092   -0.0444 C   0  0  0  0  0  0  0  0  0  0  0  0
    1.3881    0.7779    0.8523 C   0  0  0  0  0  0  0  0  0  0  0  0
   -0.0622    0.7150    0.6893 C   0  0  0  0  0  0  0  0  0  0  0  0
   -0.6328   -0.6662    0.9494 C   0  0  0  0  0  0  0  0  0  0  0  0
   -1.8857   -0.5676    0.1165 C   0  0  0  0  0  0  0  0  0  0  0  0
   -1.5196    0.0943   -0.9765 C   0  0  0  0  0  0  0  0  0  0  0  0
   -0.1234    0.5014   -0.8493 C   0  0  0  0  0  0  0  0  0  0  0  0
    0.8256   -0.6835   -0.7712 C   0  0  0  0  0  0  0  0  0  0  0  0
    0.2239   -1.4912    0.1971 O   0  0  0  0  0  0  0  0  0  0  0  0
    3.0317   -0.1466   -0.2252 H   0  0  0  0  0  0  0  0  0  0  0  0
    1.9187    1.3621    1.5765 H   0  0  0  0  0  0  0  0  0  0  0  0
   -0.6525    1.5368    1.0196 H   0  0  0  0  0  0  0  0  0  0  0  0
   -0.7771   -0.9390    1.9615 H   0  0  0  0  0  0  0  0  0  0  0  0
   -2.8442   -0.9748    0.4129 H   0  0  0  0  0  0  0  0  0  0  0  0
   -2.1683    0.2901   -1.8165 H   0  0  0  0  0  0  0  0  0  0  0  0
    0.2230    1.3418   -1.4026 H   0  0  0  0  0  0  0  0  0  0  0  0
    1.0852   -1.1411   -1.6892 H   0  0  0  0  0  0  0  0  0  0  0  0
  1  2  2  0
  2  3  1  0
  3  4  1  0
  4  5  1  0
  5  6  2  0
  6  7  1  0
  7  8  1  0
  8  9  1  0
  8  1  1  0
  7  3  1  0
  9  4  1  0
  1 10  1  0
  2 11  1  0
  3 12  1  0
  4 13  1  0
  5 14  1  0
  6 15  1  0
  7 16  1  0
  8 17  1  0
M  END
