
     RDKit          3D

 19 21  0  0  0  0  0  0  0  0999 V2000
   -2.4302    0.3432    0.4310 C   0  0  0  0  0  0  0  0  0  0  0  0
   -1.3237    1.0427    0.2647 C   0  0  0  0  0  0  0  0  0  0  0  0
   -0.1900    0.1663   -0.1553 C   0  0  0  0  0  0  0  0  0  0  0  0
    0.9623    0.3371    0.7886 C   0  0  0  0  0  0  0  0  0  0  0  0
    2.2250   -0.3951    0.6359 C   0  0  0  0  0  0  0  0  0  0  0  0
    2.1816    1.0140    0.1849 C   0  0  0  0  0  0  0  0  0  0  0  0
   -0.7402   -1.2372   -0.1554 C   0  0  0  0  0  0  0  0  0  0  0  0
   -1.3326   -1.7340    0.9991 O   0  0  0  0  0  0  0  0  0  0  0  0
   -2.1973   -1.0808    0.1499 C   0  0  0  0  0  0  0  0  0  0  0  0
   -3.3888    0.7505    0.7339 H   0  0  0  0  0  0  0  0  0  0  0  0
   -1.1971    2.1110    0.4004 H   0  0  0  0  0  0  0  0  0  0  0  0
    0.0929    0.4141   -1.1819 H   0  0  0  0  0  0  0  0  0  0  0  0
    0.6575    0.6227    1.8208 H   0  0  0  0  0  0  0  0  0  0  0  0
    2.3718   -1.1492   -0.1807 H   0  0  0  0  0  0  0  0  0  0  0  0
    2.7968   -0.6567    1.5534 H   0  0  0  0  0  0  0  0  0  0  0  0
    2.5847    1.8364    0.8068 H   0  0  0  0  0  0  0  0  0  0  0  0
    2.1868    1.2412   -0.8910 H   0  0  0  0  0  0  0  0  0  0  0  0
   -0.3779   -1.9740   -0.8738 H   0  0  0  0  0  0  0  0  0  0  0  0
   -2.8813   -1.6521   -0.5052 H   0  0  0  0  0  0  0  0  0  0  0  0
  1  2  2  0
  2  3  1  0
  3  4  1  0
  4  5  1  0
  5  6  1  0
  3  7  1  0
  7  8  1  0
  8  9  1  0
  9  1  1  0
  6  4  1  0
  9  7  1  0
  1 10  1  0
  2 11  1  0
  3 12  1  0
  4 13  1  0
  5 14  1  0
  5 15  1  0
  6 16  1  0
  6 17  1  0
  7 18  1  0
  9 19  1  0
M  END
