
     RDKit          3D

 21 22  0  0  0  0  0  0  0  0999 V2000
   -2.5264   -0.1310   -0.2646 C   0  0  0  0  0  0  0  0  0  0  0  0
   -1.7302   -1.1105    0.1248 C   0  0  0  0  0  0  0  0  0  0  0  0
   -0.6401   -0.5460    0.9674 C   0  0  0  0  0  0  0  0  0  0  0  0
    0.6852   -0.7012    0.2788 C   0  0  0  0  0  0  0  0  0  0  0  0
    1.8009   -0.1228    1.1473 C   0  0  0  0  0  0  0  0  0  0  0  0
    2.4792    0.2025   -0.1896 C   0  0  0  0  0  0  0  0  0  0  0  0
    1.0399    0.3952   -0.7005 C   0  0  0  0  0  0  0  0  0  0  0  0
   -0.9961    0.7574    1.1930 O   0  0  0  0  0  0  0  0  0  0  0  0
   -1.9846    1.1216    0.3119 C   0  0  0  0  0  0  0  0  0  0  0  0
   -3.3864   -0.2687   -0.8794 H   0  0  0  0  0  0  0  0  0  0  0  0
   -1.7945   -2.1791   -0.0931 H   0  0  0  0  0  0  0  0  0  0  0  0
   -0.6664   -1.0882    1.9347 H   0  0  0  0  0  0  0  0  0  0  0  0
    0.8740   -1.7319   -0.0826 H   0  0  0  0  0  0  0  0  0  0  0  0
    2.3219   -0.8485    1.7660 H   0  0  0  0  0  0  0  0  0  0  0  0
    1.4432    0.7947    1.6363 H   0  0  0  0  0  0  0  0  0  0  0  0
    3.0329    1.1379   -0.2135 H   0  0  0  0  0  0  0  0  0  0  0  0
    2.9723   -0.6934   -0.6080 H   0  0  0  0  0  0  0  0  0  0  0  0
    0.8958    0.1736   -1.7549 H   0  0  0  0  0  0  0  0  0  0  0  0
    0.6824    1.3691   -0.3204 H   0  0  0  0  0  0  0  0  0  0  0  0
   -2.8392    1.6159    0.8458 H   0  0  0  0  0  0  0  0  0  0  0  0
   -1.6639    1.8532   -0.4582 H   0  0  0  0  0  0  0  0  0  0  0  0
  1  2  2  0
  2  3  1  0
  3  4  1  0
  4  5  1  0
  5  6  1  0
  6  7  1  0
  3  8  1  0
  8  9  1  0
  9  1  1  0
  7  4  1  0
  1 10  1  0
  2 11  1  0
  3 12  1  0
  4 13  1  0
  5 14  1  0
  5 15  1  0
  6 16  1  0
  6 17  1  0
  7 18  1  0
  7 19  1  0
  9 20  1  0
  9 21  1  0
M  END
