
     RDKit          3D

 16 18  0  0  0  0  0  0  0  0999 V2000
    1.1299    0.7835   -0.8152 C   0  0  0  0  0  0  0  0  0  0  0  0
    1.4634   -0.4531   -0.4606 C   0  0  0  0  0  0  0  0  0  0  0  0
    0.7713   -0.6903    0.8349 C   0  0  0  0  0  0  0  0  0  0  0  0
    0.8116    0.6186    1.3807 O   0  0  0  0  0  0  0  0  0  0  0  0
    0.2407    1.2807    0.2652 C   0  0  0  0  0  0  0  0  0  0  0  0
   -1.1037    0.5984    0.2065 C   0  0  0  0  0  0  0  0  0  0  0  0
   -1.3023   -0.5651   -0.7117 C   0  0  0  0  0  0  0  0  0  0  0  0
   -0.7041   -0.8494    0.6061 C   0  0  0  0  0  0  0  0  0  0  0  0
    1.4574    1.2915   -1.7129 H   0  0  0  0  0  0  0  0  0  0  0  0
    2.0903   -1.1852   -0.9479 H   0  0  0  0  0  0  0  0  0  0  0  0
    1.2315   -1.4299    1.4696 H   0  0  0  0  0  0  0  0  0  0  0  0
    0.2082    2.3532    0.3769 H   0  0  0  0  0  0  0  0  0  0  0  0
   -1.9308    1.0564    0.7492 H   0  0  0  0  0  0  0  0  0  0  0  0
   -0.7170   -0.6425   -1.6596 H   0  0  0  0  0  0  0  0  0  0  0  0
   -2.3584   -0.8503   -0.8507 H   0  0  0  0  0  0  0  0  0  0  0  0
   -1.2881   -1.3165    1.4029 H   0  0  0  0  0  0  0  0  0  0  0  0
  1  2  2  0
  2  3  1  0
  3  4  1  0
  4  5  1  0
  5  6  1  0
  6  7  1  0
  7  8  1  0
  5  1  1  0
  8  6  1  0
  8  3  1  0
  1  9  1  0
  2 10  1  0
  3 11  1  0
  5 12  1  0
  6 13  1  0
  7 14  1  0
  7 15  1  0
  8 16  1  0
M  END
