
     RDKit          3D

 14 16  0  0  0  0  0  0  0  0999 V2000
    1.1236   -0.8417    0.6824 C   0  0  0  0  0  0  0  0  0  0  0  0
   -0.1513   -0.6659    0.4274 C   0  0  0  0  0  0  0  0  0  0  0  0
   -0.1904    0.5543   -0.4859 C   0  0  0  0  0  0  0  0  0  0  0  0
    0.8819    1.2556   -0.0307 O   0  0  0  0  0  0  0  0  0  0  0  0
    1.9236    0.2373   -0.0286 C   0  0  0  0  0  0  0  0  0  0  0  0
   -1.5824    0.7483   -0.1058 C   0  0  0  0  0  0  0  0  0  0  0  0
   -2.2224    0.3633    1.0443 O   0  0  0  0  0  0  0  0  0  0  0  0
   -1.6474   -0.6435    0.2745 C   0  0  0  0  0  0  0  0  0  0  0  0
    1.5350   -1.6259    1.2976 H   0  0  0  0  0  0  0  0  0  0  0  0
   -0.1073    0.2434   -1.5668 H   0  0  0  0  0  0  0  0  0  0  0  0
    2.1883   -0.0552   -1.0338 H   0  0  0  0  0  0  0  0  0  0  0  0
    2.7451    0.6209    0.5665 H   0  0  0  0  0  0  0  0  0  0  0  0
   -2.3012    1.2379   -0.8364 H   0  0  0  0  0  0  0  0  0  0  0  0
   -2.1951   -1.4288   -0.2046 H   0  0  0  0  0  0  0  0  0  0  0  0
  1  2  2  0
  2  3  1  0
  3  4  1  0
  4  5  1  0
  3  6  1  0
  6  7  1  0
  7  8  1  0
  5  1  1  0
  8  6  1  0
  8  2  1  0
  1  9  1  0
  3 10  1  0
  5 11  1  0
  5 12  1  0
  6 13  1  0
  8 14  1  0
M  END
