
     RDKit          3D

 21 22  0  0  0  0  0  0  0  0999 V2000
   -1.6019    0.8562    0.2809 C   0  0  0  0  0  0  0  0  0  0  0  0
   -0.4642    1.5401    0.2006 C   0  0  0  0  0  0  0  0  0  0  0  0
    0.8259    1.3057   -0.4530 C   0  0  0  0  0  0  0  0  0  0  0  0
    1.3615   -0.1405   -0.1497 C   0  0  0  0  0  0  0  0  0  0  0  0
    0.2210   -0.9684   -0.0739 C   0  0  0  0  0  0  0  0  0  0  0  0
   -1.0395   -1.5806    0.0275 C   0  0  0  0  0  0  0  0  0  0  0  0
   -2.0671   -0.4285   -0.2462 C   0  0  0  0  0  0  0  0  0  0  0  0
    2.5548   -0.2615    0.5815 C   0  0  0  0  0  0  0  0  0  0  0  0
    2.4848   -0.5207   -0.8206 O   0  0  0  0  0  0  0  0  0  0  0  0
   -2.3757    1.3731    0.8822 H   0  0  0  0  0  0  0  0  0  0  0  0
   -0.5065    2.4991    0.7513 H   0  0  0  0  0  0  0  0  0  0  0  0
    0.6938    1.2847   -1.5633 H   0  0  0  0  0  0  0  0  0  0  0  0
    1.5785    1.9974   -0.1187 H   0  0  0  0  0  0  0  0  0  0  0  0
   -0.0546   -0.3268    0.8256 H   0  0  0  0  0  0  0  0  0  0  0  0
    0.0031   -0.6651   -1.1373 H   0  0  0  0  0  0  0  0  0  0  0  0
   -1.2389   -2.3990   -0.7102 H   0  0  0  0  0  0  0  0  0  0  0  0
   -1.3114   -2.0886    0.9959 H   0  0  0  0  0  0  0  0  0  0  0  0
   -2.0623   -0.3457   -1.3709 H   0  0  0  0  0  0  0  0  0  0  0  0
   -3.0365   -0.6978    0.1197 H   0  0  0  0  0  0  0  0  0  0  0  0
    2.8935   -1.1038    1.1893 H   0  0  0  0  0  0  0  0  0  0  0  0
    3.1417    0.6708    0.7893 H   0  0  0  0  0  0  0  0  0  0  0  0
  1  2  2  0
  2  3  1  0
  3  4  1  0
  4  5  1  0
  5  6  1  0
  6  7  1  0
  4  8  1  0
  8  9  1  0
  7  1  1  0
  9  4  1  0
  1 10  1  0
  2 11  1  0
  3 12  1  0
  3 13  1  0
  5 14  1  0
  5 15  1  0
  6 16  1  0
  6 17  1  0
  7 18  1  0
  7 19  1  0
  8 20  1  0
  8 21  1  0
M  END
