
     RDKit          3D

 19 20  0  0  0  0  0  0  0  0999 V2000
    0.9295    1.1306    0.4939 C   0  0  0  0  0  0  0  0  0  0  0  0
   -0.3465    1.4108    0.4655 C   0  0  0  0  0  0  0  0  0  0  0  0
   -1.5782    1.0919   -0.3129 C   0  0  0  0  0  0  0  0  0  0  0  0
   -2.6163    0.6163    0.5051 O   0  0  0  0  0  0  0  0  0  0  0  0
   -1.9856   -0.3167   -0.2703 C   0  0  0  0  0  0  0  0  0  0  0  0
   -0.8504   -1.1505    0.2917 C   0  0  0  0  0  0  0  0  0  0  0  0
    0.0709   -1.3327   -0.7090 O   0  0  0  0  0  0  0  0  0  0  0  0
    1.3777   -1.1733   -0.3448 C   0  0  0  0  0  0  0  0  0  0  0  0
    1.8211    0.2849   -0.3143 C   0  0  0  0  0  0  0  0  0  0  0  0
    1.4260    1.6597    1.3180 H   0  0  0  0  0  0  0  0  0  0  0  0
   -0.6233    2.1090    1.2717 H   0  0  0  0  0  0  0  0  0  0  0  0
   -1.8219    1.6751   -1.2123 H   0  0  0  0  0  0  0  0  0  0  0  0
   -2.4454   -0.7369   -1.1789 H   0  0  0  0  0  0  0  0  0  0  0  0
   -0.4619   -0.7653    1.2316 H   0  0  0  0  0  0  0  0  0  0  0  0
   -1.3125   -2.1536    0.5327 H   0  0  0  0  0  0  0  0  0  0  0  0
    1.6734   -1.6999    0.5782 H   0  0  0  0  0  0  0  0  0  0  0  0
    2.0017   -1.6442   -1.1623 H   0  0  0  0  0  0  0  0  0  0  0  0
    1.9083    0.6939   -1.3380 H   0  0  0  0  0  0  0  0  0  0  0  0
    2.8333    0.3008    0.1545 H   0  0  0  0  0  0  0  0  0  0  0  0
  1  2  2  3
  2  3  1  0
  3  4  1  0
  4  5  1  0
  5  6  1  0
  6  7  1  0
  7  8  1  0
  8  9  1  0
  9  1  1  0
  5  3  1  0
  1 10  1  0
  2 11  1  0
  3 12  1  0
  5 13  1  0
  6 14  1  0
  6 15  1  0
  8 16  1  0
  8 17  1  0
  9 18  1  0
  9 19  1  0
M  END
