
     RDKit          3D

 21 23  0  0  0  0  0  0  0  0999 V2000
   -1.9371   -0.6409   -0.9485 C   0  0  0  0  0  0  0  0  0  0  0  0
   -0.6183   -0.8684   -0.9262 C   0  0  0  0  0  0  0  0  0  0  0  0
   -0.1671    0.0418    0.1757 C   0  0  0  0  0  0  0  0  0  0  0  0
    1.2020    0.1128    0.5688 C   0  0  0  0  0  0  0  0  0  0  0  0
    2.3090    0.5224   -0.3599 C   0  0  0  0  0  0  0  0  0  0  0  0
    2.2049   -0.9010    0.0137 C   0  0  0  0  0  0  0  0  0  0  0  0
   -0.9591    1.2913   -0.1580 C   0  0  0  0  0  0  0  0  0  0  0  0
   -2.1399    0.3450    0.1188 C   0  0  0  0  0  0  0  0  0  0  0  0
   -1.2459   -0.2202    1.2085 C   0  0  0  0  0  0  0  0  0  0  0  0
   -2.7194   -1.0459   -1.5695 H   0  0  0  0  0  0  0  0  0  0  0  0
   -0.0363   -1.5391   -1.5480 H   0  0  0  0  0  0  0  0  0  0  0  0
    1.4149    0.3623    1.6470 H   0  0  0  0  0  0  0  0  0  0  0  0
    3.1752    1.1100    0.0438 H   0  0  0  0  0  0  0  0  0  0  0  0
    2.0641    0.8335   -1.3991 H   0  0  0  0  0  0  0  0  0  0  0  0
    2.9916   -1.2942    0.6784 H   0  0  0  0  0  0  0  0  0  0  0  0
    1.8083   -1.6598   -0.6884 H   0  0  0  0  0  0  0  0  0  0  0  0
   -0.8867    1.5548   -1.2207 H   0  0  0  0  0  0  0  0  0  0  0  0
   -0.8671    2.1228    0.5307 H   0  0  0  0  0  0  0  0  0  0  0  0
   -3.0721    0.7558    0.3545 H   0  0  0  0  0  0  0  0  0  0  0  0
   -1.3841   -1.2961    1.3727 H   0  0  0  0  0  0  0  0  0  0  0  0
   -1.1369    0.4132    2.1057 H   0  0  0  0  0  0  0  0  0  0  0  0
  1  2  2  0
  2  3  1  0
  3  4  1  0
  4  5  1  0
  5  6  1  0
  3  7  1  0
  7  8  1  0
  8  9  1  0
  8  1  1  0
  9  3  1  0
  6  4  1  0
  1 10  1  0
  2 11  1  0
  4 12  1  0
  5 13  1  0
  5 14  1  0
  6 15  1  0
  6 16  1  0
  7 17  1  0
  7 18  1  0
  8 19  1  0
  9 20  1  0
  9 21  1  0
M  END
