
     RDKit          3D

 19 20  0  0  0  0  0  0  0  0999 V2000
   -1.4624    1.4116   -0.1728 C   0  0  0  0  0  0  0  0  0  0  0  0
   -0.2223    1.0982   -0.5114 C   0  0  0  0  0  0  0  0  0  0  0  0
    0.0462   -0.2703   -0.0920 C   0  0  0  0  0  0  0  0  0  0  0  0
    1.0361   -0.9826   -0.9250 C   0  0  0  0  0  0  0  0  0  0  0  0
    2.2281   -0.7099   -0.3882 C   0  0  0  0  0  0  0  0  0  0  0  0
    1.9629    0.1765    0.7825 C   0  0  0  0  0  0  0  0  0  0  0  0
    0.6765   -0.2467    1.1500 O   0  0  0  0  0  0  0  0  0  0  0  0
   -1.2849   -0.9248   -0.0256 C   0  0  0  0  0  0  0  0  0  0  0  0
   -2.1272    0.2442    0.5139 C   0  0  0  0  0  0  0  0  0  0  0  0
   -1.9338    2.3703   -0.3617 H   0  0  0  0  0  0  0  0  0  0  0  0
    0.5091    1.7306   -1.0206 H   0  0  0  0  0  0  0  0  0  0  0  0
    0.9165   -1.6063   -1.7913 H   0  0  0  0  0  0  0  0  0  0  0  0
    3.2165   -1.0352   -0.6943 H   0  0  0  0  0  0  0  0  0  0  0  0
    2.6620    0.0205    1.6103 H   0  0  0  0  0  0  0  0  0  0  0  0
    1.8536    1.2349    0.4695 H   0  0  0  0  0  0  0  0  0  0  0  0
   -1.2936   -1.7789    0.6498 H   0  0  0  0  0  0  0  0  0  0  0  0
   -1.6678   -1.1379   -1.0408 H   0  0  0  0  0  0  0  0  0  0  0  0
   -3.1815    0.1479    0.2415 H   0  0  0  0  0  0  0  0  0  0  0  0
   -1.9340    0.2579    1.6063 H   0  0  0  0  0  0  0  0  0  0  0  0
  1  2  2  0
  2  3  1  0
  3  4  1  0
  4  5  2  0
  5  6  1  0
  6  7  1  0
  3  8  1  0
  8  9  1  0
  9  1  1  0
  7  3  1  0
  1 10  1  0
  2 11  1  0
  4 12  1  0
  5 13  1  0
  6 14  1  0
  6 15  1  0
  8 16  1  0
  8 17  1  0
  9 18  1  0
  9 19  1  0
M  END
