
     RDKit          3D

 19 20  0  0  0  0  0  0  0  0999 V2000
    1.3454    0.4897   -1.4293 C   0  0  0  0  0  0  0  0  0  0  0  0
    0.0793    0.5657   -1.0822 C   0  0  0  0  0  0  0  0  0  0  0  0
   -0.3450    0.3172    0.3138 C   0  0  0  0  0  0  0  0  0  0  0  0
   -1.3990   -0.7689    0.3024 C   0  0  0  0  0  0  0  0  0  0  0  0
   -2.6219   -0.5880   -0.4113 C   0  0  0  0  0  0  0  0  0  0  0  0
   -2.5805   -0.3297    1.0709 O   0  0  0  0  0  0  0  0  0  0  0  0
    0.7893   -0.0299    1.2131 C   0  0  0  0  0  0  0  0  0  0  0  0
    1.8269   -0.6834    0.5811 O   0  0  0  0  0  0  0  0  0  0  0  0
    2.3629    0.1512   -0.4132 C   0  0  0  0  0  0  0  0  0  0  0  0
    1.6359    0.6785   -2.4723 H   0  0  0  0  0  0  0  0  0  0  0  0
   -0.7142    0.8158   -1.8096 H   0  0  0  0  0  0  0  0  0  0  0  0
   -0.7603    1.2925    0.7117 H   0  0  0  0  0  0  0  0  0  0  0  0
   -1.0214   -1.7612    0.6201 H   0  0  0  0  0  0  0  0  0  0  0  0
   -2.7937    0.3648   -0.9591 H   0  0  0  0  0  0  0  0  0  0  0  0
   -3.3308   -1.4109   -0.5614 H   0  0  0  0  0  0  0  0  0  0  0  0
    0.3988   -0.6642    2.0365 H   0  0  0  0  0  0  0  0  0  0  0  0
    1.2253    0.8747    1.7259 H   0  0  0  0  0  0  0  0  0  0  0  0
    3.1936   -0.4094   -0.9161 H   0  0  0  0  0  0  0  0  0  0  0  0
    2.7094    1.0957    0.0413 H   0  0  0  0  0  0  0  0  0  0  0  0
  1  2  2  0
  2  3  1  0
  3  4  1  0
  4  5  1  0
  5  6  1  0
  3  7  1  0
  7  8  1  0
  8  9  1  0
  9  1  1  0
  6  4  1  0
  1 10  1  0
  2 11  1  0
  3 12  1  0
  4 13  1  0
  5 14  1  0
  5 15  1  0
  7 16  1  0
  7 17  1  0
  9 18  1  0
  9 19  1  0
M  END
