
     RDKit          3D

 19 21  0  0  0  0  0  0  0  0999 V2000
   -1.3187    1.2885   -0.4806 C   0  0  0  0  0  0  0  0  0  0  0  0
   -0.0446    1.4763   -0.1471 C   0  0  0  0  0  0  0  0  0  0  0  0
    0.6245    0.1752   -0.0353 C   0  0  0  0  0  0  0  0  0  0  0  0
    2.0013   -0.0426    0.3154 C   0  0  0  0  0  0  0  0  0  0  0  0
    1.6054   -0.1147   -1.1601 C   0  0  0  0  0  0  0  0  0  0  0  0
   -0.5061   -0.7533    0.2144 C   0  0  0  0  0  0  0  0  0  0  0  0
   -1.5894   -0.1922   -0.6167 C   0  0  0  0  0  0  0  0  0  0  0  0
   -0.9349   -1.0889    1.6240 C   0  0  0  0  0  0  0  0  0  0  0  0
   -0.4170   -1.9893    0.7033 O   0  0  0  0  0  0  0  0  0  0  0  0
   -2.0192    2.0934   -0.6228 H   0  0  0  0  0  0  0  0  0  0  0  0
    0.4161    2.4449    0.0143 H   0  0  0  0  0  0  0  0  0  0  0  0
    2.6950    0.7508    0.6007 H   0  0  0  0  0  0  0  0  0  0  0  0
    2.2646   -1.0344    0.7797 H   0  0  0  0  0  0  0  0  0  0  0  0
    1.5883   -1.0860   -1.6543 H   0  0  0  0  0  0  0  0  0  0  0  0
    1.9315    0.7333   -1.8028 H   0  0  0  0  0  0  0  0  0  0  0  0
   -2.6076   -0.4513   -0.3228 H   0  0  0  0  0  0  0  0  0  0  0  0
   -1.3691   -0.4240   -1.6895 H   0  0  0  0  0  0  0  0  0  0  0  0
   -0.3078   -0.6534    2.4068 H   0  0  0  0  0  0  0  0  0  0  0  0
   -2.0123   -1.1323    1.8732 H   0  0  0  0  0  0  0  0  0  0  0  0
  1  2  2  0
  2  3  1  0
  3  4  1  0
  4  5  1  0
  3  6  1  0
  6  7  1  0
  6  8  1  0
  8  9  1  0
  7  1  1  0
  5  3  1  0
  9  6  1  0
  1 10  1  0
  2 11  1  0
  4 12  1  0
  4 13  1  0
  5 14  1  0
  5 15  1  0
  7 16  1  0
  7 17  1  0
  8 18  1  0
  8 19  1  0
M  END
