
     RDKit          3D

 19 21  0  0  0  0  0  0  0  0999 V2000
    1.5342    0.8455    0.3890 C   0  0  0  0  0  0  0  0  0  0  0  0
    0.3630    1.4517    0.5116 C   0  0  0  0  0  0  0  0  0  0  0  0
   -0.6667    0.7131   -0.3119 C   0  0  0  0  0  0  0  0  0  0  0  0
    0.1827    0.0920   -1.3097 C   0  0  0  0  0  0  0  0  0  0  0  0
    1.2772   -0.4204   -0.3449 C   0  0  0  0  0  0  0  0  0  0  0  0
    0.6946   -1.4409    0.6151 C   0  0  0  0  0  0  0  0  0  0  0  0
   -0.4157   -0.8992    1.3116 O   0  0  0  0  0  0  0  0  0  0  0  0
   -1.3234   -0.5413    0.3750 C   0  0  0  0  0  0  0  0  0  0  0  0
   -1.9879    0.6903    0.1198 C   0  0  0  0  0  0  0  0  0  0  0  0
    2.4934    1.1824    0.7420 H   0  0  0  0  0  0  0  0  0  0  0  0
    0.0981    2.3304    1.0818 H   0  0  0  0  0  0  0  0  0  0  0  0
   -0.2263   -0.7158   -1.9133 H   0  0  0  0  0  0  0  0  0  0  0  0
    0.7058    0.8846   -1.9122 H   0  0  0  0  0  0  0  0  0  0  0  0
    2.1224   -0.8422   -0.8567 H   0  0  0  0  0  0  0  0  0  0  0  0
    1.4626   -1.6485    1.3665 H   0  0  0  0  0  0  0  0  0  0  0  0
    0.3597   -2.3135    0.0367 H   0  0  0  0  0  0  0  0  0  0  0  0
   -1.5779   -1.4001   -0.3159 H   0  0  0  0  0  0  0  0  0  0  0  0
   -2.2573    1.3291    1.0160 H   0  0  0  0  0  0  0  0  0  0  0  0
   -2.8386    0.7029   -0.6005 H   0  0  0  0  0  0  0  0  0  0  0  0
  1  2  2  0
  2  3  1  0
  3  4  1  0
  4  5  1  0
  5  6  1  0
  6  7  1  0
  7  8  1  0
  8  9  1  0
  5  1  1  0
  8  3  1  0
  9  3  1  0
  1 10  1  0
  2 11  1  0
  4 12  1  0
  4 13  1  0
  5 14  1  0
  6 15  1  0
  6 16  1  0
  8 17  1  0
  9 18  1  0
  9 19  1  0
M  END
