
     RDKit          3D

 19 20  0  0  0  0  0  0  0  0999 V2000
   -1.8634    0.2120   -0.4975 C   0  0  0  0  0  0  0  0  0  0  0  0
   -0.9613    1.1835   -0.4442 C   0  0  0  0  0  0  0  0  0  0  0  0
    0.2764    1.2964    0.3517 C   0  0  0  0  0  0  0  0  0  0  0  0
    1.0294   -0.0052    0.3708 C   0  0  0  0  0  0  0  0  0  0  0  0
    0.3454   -1.0746   -0.4457 C   0  0  0  0  0  0  0  0  0  0  0  0
   -0.6437   -1.7011    0.2717 O   0  0  0  0  0  0  0  0  0  0  0  0
   -1.8613   -1.0647    0.2602 C   0  0  0  0  0  0  0  0  0  0  0  0
    2.5364    0.0916    0.3535 C   0  0  0  0  0  0  0  0  0  0  0  0
    1.8024   -0.3669    1.4407 O   0  0  0  0  0  0  0  0  0  0  0  0
   -2.6895    0.3838   -1.1750 H   0  0  0  0  0  0  0  0  0  0  0  0
   -1.1411    2.0531   -1.0845 H   0  0  0  0  0  0  0  0  0  0  0  0
   -0.0376    1.5557    1.3963 H   0  0  0  0  0  0  0  0  0  0  0  0
    0.9293    2.0970   -0.0173 H   0  0  0  0  0  0  0  0  0  0  0  0
    0.0255   -0.6990   -1.4284 H   0  0  0  0  0  0  0  0  0  0  0  0
    1.1358   -1.8552   -0.6518 H   0  0  0  0  0  0  0  0  0  0  0  0
   -2.2200   -0.8575    1.3113 H   0  0  0  0  0  0  0  0  0  0  0  0
   -2.6626   -1.7176   -0.1729 H   0  0  0  0  0  0  0  0  0  0  0  0
    3.0142   -0.6323   -0.3286 H   0  0  0  0  0  0  0  0  0  0  0  0
    2.9856    1.1012    0.4897 H   0  0  0  0  0  0  0  0  0  0  0  0
  1  2  2  0
  2  3  1  0
  3  4  1  0
  4  5  1  0
  5  6  1  0
  6  7  1  0
  4  8  1  0
  8  9  1  0
  7  1  1  0
  9  4  1  0
  1 10  1  0
  2 11  1  0
  3 12  1  0
  3 13  1  0
  5 14  1  0
  5 15  1  0
  7 16  1  0
  7 17  1  0
  8 18  1  0
  8 19  1  0
M  END
