
     RDKit          3D

 21 23  0  0  0  0  0  0  0  0999 V2000
    1.0290   -1.3723    0.3937 C   0  0  0  0  0  0  0  0  0  0  0  0
   -0.2788   -1.0940    0.3099 C   0  0  0  0  0  0  0  0  0  0  0  0
   -1.7337   -1.3898    0.3701 C   0  0  0  0  0  0  0  0  0  0  0  0
   -1.9579   -0.0758   -0.3556 C   0  0  0  0  0  0  0  0  0  0  0  0
   -1.6744    1.1040    0.5187 C   0  0  0  0  0  0  0  0  0  0  0  0
   -0.5968    0.3084   -0.0445 C   0  0  0  0  0  0  0  0  0  0  0  0
    0.4137    0.9030   -0.9613 C   0  0  0  0  0  0  0  0  0  0  0  0
    1.7091    0.9417   -0.1463 C   0  0  0  0  0  0  0  0  0  0  0  0
    2.1258   -0.4426    0.1680 C   0  0  0  0  0  0  0  0  0  0  0  0
    1.2711   -2.4167    0.6619 H   0  0  0  0  0  0  0  0  0  0  0  0
   -2.0445   -2.2951   -0.1876 H   0  0  0  0  0  0  0  0  0  0  0  0
   -2.0811   -1.3278    1.4077 H   0  0  0  0  0  0  0  0  0  0  0  0
   -2.4668   -0.0195   -1.3096 H   0  0  0  0  0  0  0  0  0  0  0  0
   -1.9829    1.0834    1.5827 H   0  0  0  0  0  0  0  0  0  0  0  0
   -1.8398    2.0943    0.0476 H   0  0  0  0  0  0  0  0  0  0  0  0
    0.5707    0.2974   -1.8849 H   0  0  0  0  0  0  0  0  0  0  0  0
    0.1101    1.9472   -1.1800 H   0  0  0  0  0  0  0  0  0  0  0  0
    1.4155    1.4384    0.8248 H   0  0  0  0  0  0  0  0  0  0  0  0
    2.4685    1.5657   -0.6092 H   0  0  0  0  0  0  0  0  0  0  0  0
    2.7512   -0.8308   -0.6892 H   0  0  0  0  0  0  0  0  0  0  0  0
    2.7920   -0.4191    1.0832 H   0  0  0  0  0  0  0  0  0  0  0  0
  1  2  2  0
  2  3  1  0
  3  4  1  0
  4  5  1  0
  5  6  1  0
  6  7  1  0
  7  8  1  0
  8  9  1  0
  9  1  1  0
  6  2  1  0
  6  4  1  0
  1 10  1  0
  3 11  1  0
  3 12  1  0
  4 13  1  0
  5 14  1  0
  5 15  1  0
  7 16  1  0
  7 17  1  0
  8 18  1  0
  8 19  1  0
  9 20  1  0
  9 21  1  0
M  END
