
     RDKit          3D

 21 22  0  0  0  0  0  0  0  0999 V2000
   -1.9848    0.6041   -0.7718 C   0  0  0  0  0  0  0  0  0  0  0  0
   -2.2184   -0.6608   -0.4602 C   0  0  0  0  0  0  0  0  0  0  0  0
   -1.1014   -1.1942    0.3941 C   0  0  0  0  0  0  0  0  0  0  0  0
   -0.0165   -0.2268    0.1515 C   0  0  0  0  0  0  0  0  0  0  0  0
   -0.7060    1.0491   -0.1699 C   0  0  0  0  0  0  0  0  0  0  0  0
    0.9048    0.0019    1.3249 C   0  0  0  0  0  0  0  0  0  0  0  0
    1.9577    0.8162    0.6609 C   0  0  0  0  0  0  0  0  0  0  0  0
    2.0198    0.4495   -0.6131 C   0  0  0  0  0  0  0  0  0  0  0  0
    1.0034   -0.6393   -0.8762 C   0  0  0  0  0  0  0  0  0  0  0  0
   -2.6041    1.2757   -1.3793 H   0  0  0  0  0  0  0  0  0  0  0  0
   -3.0809   -1.2363   -0.7681 H   0  0  0  0  0  0  0  0  0  0  0  0
   -0.8547   -2.2285    0.0738 H   0  0  0  0  0  0  0  0  0  0  0  0
   -1.3894   -1.1512    1.4647 H   0  0  0  0  0  0  0  0  0  0  0  0
   -0.9305    1.6402    0.7449 H   0  0  0  0  0  0  0  0  0  0  0  0
   -0.1234    1.7012   -0.8581 H   0  0  0  0  0  0  0  0  0  0  0  0
    1.3302   -0.9729    1.6432 H   0  0  0  0  0  0  0  0  0  0  0  0
    0.4102    0.5397    2.1544 H   0  0  0  0  0  0  0  0  0  0  0  0
    2.5988    1.5888    1.0806 H   0  0  0  0  0  0  0  0  0  0  0  0
    2.6760    0.8443   -1.3609 H   0  0  0  0  0  0  0  0  0  0  0  0
    1.4711   -1.5733   -0.5396 H   0  0  0  0  0  0  0  0  0  0  0  0
    0.6381   -0.6273   -1.8959 H   0  0  0  0  0  0  0  0  0  0  0  0
  1  2  2  0
  2  3  1  0
  3  4  1  0
  4  5  1  0
  4  6  1  0
  6  7  1  0
  7  8  2  0
  8  9  1  0
  5  1  1  0
  9  4  1  0
  1 10  1  0
  2 11  1  0
  3 12  1  0
  3 13  1  0
  5 14  1  0
  5 15  1  0
  6 16  1  0
  6 17  1  0
  7 18  1  0
  8 19  1  0
  9 20  1  0
  9 21  1  0
M  END
