
     RDKit          3D

 19 21  0  0  0  0  0  0  0  0999 V2000
   -0.7923    1.3151    0.6483 C   0  0  0  0  0  0  0  0  0  0  0  0
    0.4177    0.9985    0.2740 C   0  0  0  0  0  0  0  0  0  0  0  0
    1.9037    0.7923   -0.0157 C   0  0  0  0  0  0  0  0  0  0  0  0
    1.4863   -0.6533   -0.4472 C   0  0  0  0  0  0  0  0  0  0  0  0
    1.0504   -1.4465    0.5709 O   0  0  0  0  0  0  0  0  0  0  0  0
   -0.3011   -1.3183    0.7889 C   0  0  0  0  0  0  0  0  0  0  0  0
   -0.9295   -0.7086   -0.4541 C   0  0  0  0  0  0  0  0  0  0  0  0
   -1.8497    0.4820   -0.0373 C   0  0  0  0  0  0  0  0  0  0  0  0
    0.2433    0.0571   -0.9471 C   0  0  0  0  0  0  0  0  0  0  0  0
   -0.9813    2.1127    1.3895 H   0  0  0  0  0  0  0  0  0  0  0  0
    2.2736    1.4031   -0.8378 H   0  0  0  0  0  0  0  0  0  0  0  0
    2.5284    0.7206    0.8846 H   0  0  0  0  0  0  0  0  0  0  0  0
    2.1180   -1.0678   -1.2363 H   0  0  0  0  0  0  0  0  0  0  0  0
   -0.4439   -0.5901    1.6053 H   0  0  0  0  0  0  0  0  0  0  0  0
   -0.7240   -2.3153    1.0151 H   0  0  0  0  0  0  0  0  0  0  0  0
   -1.4149   -1.3962   -1.1187 H   0  0  0  0  0  0  0  0  0  0  0  0
   -2.2793    0.9489   -0.9117 H   0  0  0  0  0  0  0  0  0  0  0  0
   -2.5629    0.1163    0.7207 H   0  0  0  0  0  0  0  0  0  0  0  0
    0.2576    0.5496   -1.8913 H   0  0  0  0  0  0  0  0  0  0  0  0
  1  2  2  0
  2  3  1  0
  3  4  1  0
  4  5  1  0
  5  6  1  0
  6  7  1  0
  7  8  1  0
  7  9  1  0
  8  1  1  0
  9  2  1  0
  9  4  1  0
  1 10  1  0
  3 11  1  0
  3 12  1  0
  4 13  1  0
  6 14  1  0
  6 15  1  0
  7 16  1  0
  8 17  1  0
  8 18  1  0
  9 19  1  0
M  END
