
     RDKit          3D

 20 21  0  0  0  0  0  0  0  0999 V2000
    0.6191    1.4303    0.0726 C   0  0  0  0  0  0  0  0  0  0  0  0
   -0.5433    0.8722    0.2891 C   0  0  0  0  0  0  0  0  0  0  0  0
   -1.9853    0.8639    0.5553 C   0  0  0  0  0  0  0  0  0  0  0  0
   -1.9841   -0.3997   -0.3322 C   0  0  0  0  0  0  0  0  0  0  0  0
   -0.6398   -0.6331    0.3169 C   0  0  0  0  0  0  0  0  0  0  0  0
    0.4421   -1.2300   -0.5460 C   0  0  0  0  0  0  0  0  0  0  0  0
    1.7528   -0.7596    0.0999 C   0  0  0  0  0  0  0  0  0  0  0  0
    1.8826    0.6955   -0.1596 C   0  0  0  0  0  0  0  0  0  0  0  0
    0.7399    2.5386    0.0463 H   0  0  0  0  0  0  0  0  0  0  0  0
   -2.5805    1.6903    0.1317 H   0  0  0  0  0  0  0  0  0  0  0  0
   -2.1968    0.5647    1.5873 H   0  0  0  0  0  0  0  0  0  0  0  0
   -1.8559   -0.1088   -1.4040 H   0  0  0  0  0  0  0  0  0  0  0  0
   -2.7683   -1.1122   -0.1078 H   0  0  0  0  0  0  0  0  0  0  0  0
   -0.7421   -1.0514    1.3200 H   0  0  0  0  0  0  0  0  0  0  0  0
    0.3712   -0.8199   -1.5648 H   0  0  0  0  0  0  0  0  0  0  0  0
    0.4312   -2.3144   -0.4801 H   0  0  0  0  0  0  0  0  0  0  0  0
    2.6042   -1.3412   -0.2572 H   0  0  0  0  0  0  0  0  0  0  0  0
    1.5963   -0.8961    1.2029 H   0  0  0  0  0  0  0  0  0  0  0  0
    2.1932    0.8218   -1.2385 H   0  0  0  0  0  0  0  0  0  0  0  0
    2.6634    1.1892    0.4682 H   0  0  0  0  0  0  0  0  0  0  0  0
  1  2  2  0
  2  3  1  0
  3  4  1  0
  4  5  1  0
  5  6  1  0
  6  7  1  0
  7  8  1  0
  8  1  1  0
  5  2  1  0
  1  9  1  0
  3 10  1  0
  3 11  1  0
  4 12  1  0
  4 13  1  0
  5 14  1  0
  6 15  1  0
  6 16  1  0
  7 17  1  0
  7 18  1  0
  8 19  1  0
  8 20  1  0
M  END
