
     RDKit          3D

 21 23  0  0  0  0  0  0  0  0999 V2000
    0.1488   -0.5261    1.5932 C   0  0  0  0  0  0  0  0  0  0  0  0
    0.1568    0.8133    1.4808 C   0  0  0  0  0  0  0  0  0  0  0  0
   -0.1218    1.2847    0.0723 C   0  0  0  0  0  0  0  0  0  0  0  0
   -1.4756    0.7267   -0.3577 C   0  0  0  0  0  0  0  0  0  0  0  0
   -1.5428   -0.7735   -0.1878 C   0  0  0  0  0  0  0  0  0  0  0  0
   -0.1708   -1.2393    0.3153 C   0  0  0  0  0  0  0  0  0  0  0  0
    0.8188   -0.8222   -0.7612 C   0  0  0  0  0  0  0  0  0  0  0  0
    2.0355   -0.0915   -0.4130 C   0  0  0  0  0  0  0  0  0  0  0  0
    0.8827    0.7043   -0.8861 C   0  0  0  0  0  0  0  0  0  0  0  0
    0.3558   -1.0317    2.5270 H   0  0  0  0  0  0  0  0  0  0  0  0
    0.3398    1.4770    2.2962 H   0  0  0  0  0  0  0  0  0  0  0  0
   -0.1729    2.3727    0.0334 H   0  0  0  0  0  0  0  0  0  0  0  0
   -2.3159    1.2509    0.1276 H   0  0  0  0  0  0  0  0  0  0  0  0
   -1.5537    0.9755   -1.4535 H   0  0  0  0  0  0  0  0  0  0  0  0
   -2.3439   -1.0809    0.5062 H   0  0  0  0  0  0  0  0  0  0  0  0
   -1.7120   -1.2966   -1.1618 H   0  0  0  0  0  0  0  0  0  0  0  0
   -0.1138   -2.3207    0.4052 H   0  0  0  0  0  0  0  0  0  0  0  0
    0.6517   -1.3390   -1.7182 H   0  0  0  0  0  0  0  0  0  0  0  0
    2.8826   -0.1614   -1.1503 H   0  0  0  0  0  0  0  0  0  0  0  0
    2.3920   -0.0687    0.6245 H   0  0  0  0  0  0  0  0  0  0  0  0
    0.8587    1.1463   -1.8920 H   0  0  0  0  0  0  0  0  0  0  0  0
  1  2  2  0
  2  3  1  0
  3  4  1  0
  4  5  1  0
  5  6  1  0
  6  7  1  0
  7  8  1  0
  8  9  1  0
  6  1  1  0
  9  7  1  0
  9  3  1  0
  1 10  1  0
  2 11  1  0
  3 12  1  0
  4 13  1  0
  4 14  1  0
  5 15  1  0
  5 16  1  0
  6 17  1  0
  7 18  1  0
  8 19  1  0
  8 20  1  0
  9 21  1  0
M  END
