
     RDKit          3D

 19 21  0  0  0  0  0  0  0  0999 V2000
   -1.0339   -1.3666    0.0207 C   0  0  0  0  0  0  0  0  0  0  0  0
   -0.9601   -0.6596    1.1590 C   0  0  0  0  0  0  0  0  0  0  0  0
    0.0100    0.4587    1.0051 C   0  0  0  0  0  0  0  0  0  0  0  0
   -0.6645    1.5086    0.1595 C   0  0  0  0  0  0  0  0  0  0  0  0
   -0.9200    0.7348   -1.1361 C   0  0  0  0  0  0  0  0  0  0  0  0
   -0.1844   -0.5922   -0.9546 C   0  0  0  0  0  0  0  0  0  0  0  0
    0.9380   -0.1670   -0.0512 C   0  0  0  0  0  0  0  0  0  0  0  0
    2.1131   -0.7510    0.2610 C   0  0  0  0  0  0  0  0  0  0  0  0
    2.0223    0.5284   -0.4994 O   0  0  0  0  0  0  0  0  0  0  0  0
   -1.5629   -2.2740   -0.1849 H   0  0  0  0  0  0  0  0  0  0  0  0
   -1.5387   -0.9018    2.0362 H   0  0  0  0  0  0  0  0  0  0  0  0
    0.5033    0.7885    1.8862 H   0  0  0  0  0  0  0  0  0  0  0  0
   -1.5948    1.8948    0.5913 H   0  0  0  0  0  0  0  0  0  0  0  0
    0.0620    2.3072   -0.0776 H   0  0  0  0  0  0  0  0  0  0  0  0
   -0.5200    1.2707   -2.0088 H   0  0  0  0  0  0  0  0  0  0  0  0
   -1.9981    0.4944   -1.2393 H   0  0  0  0  0  0  0  0  0  0  0  0
    0.0667   -1.1050   -1.8475 H   0  0  0  0  0  0  0  0  0  0  0  0
    2.6259   -1.5452   -0.3555 H   0  0  0  0  0  0  0  0  0  0  0  0
    2.6360   -0.6237    1.2361 H   0  0  0  0  0  0  0  0  0  0  0  0
  1  2  2  0
  2  3  1  0
  3  4  1  0
  4  5  1  0
  5  6  1  0
  6  7  1  0
  7  8  1  0
  8  9  1  0
  6  1  1  0
  9  7  1  0
  7  3  1  0
  1 10  1  0
  2 11  1  0
  3 12  1  0
  4 13  1  0
  4 14  1  0
  5 15  1  0
  5 16  1  0
  6 17  1  0
  8 18  1  0
  8 19  1  0
M  END
