
     RDKit          3D

 21 22  0  0  0  0  0  0  0  0999 V2000
    0.5184    1.0723    0.0286 C   0  0  0  0  0  0  0  0  0  0  0  0
   -0.0581   -0.1051    0.1137 C   0  0  0  0  0  0  0  0  0  0  0  0
   -1.4419   -0.1602    0.6763 C   0  0  0  0  0  0  0  0  0  0  0  0
   -2.4193    0.7418    0.0058 C   0  0  0  0  0  0  0  0  0  0  0  0
   -2.5482   -0.7114   -0.1981 C   0  0  0  0  0  0  0  0  0  0  0  0
    0.5974   -1.3299   -0.3146 C   0  0  0  0  0  0  0  0  0  0  0  0
    1.9315   -1.3281   -0.4453 O   0  0  0  0  0  0  0  0  0  0  0  0
    2.6288   -0.1734   -0.3608 C   0  0  0  0  0  0  0  0  0  0  0  0
    1.8894    1.0962   -0.5329 C   0  0  0  0  0  0  0  0  0  0  0  0
    0.0096    1.9825    0.3558 H   0  0  0  0  0  0  0  0  0  0  0  0
   -1.5266   -0.4436    1.7278 H   0  0  0  0  0  0  0  0  0  0  0  0
   -2.0921    1.3418   -0.8483 H   0  0  0  0  0  0  0  0  0  0  0  0
   -3.1981    1.2309    0.6518 H   0  0  0  0  0  0  0  0  0  0  0  0
   -3.4032   -1.2239    0.2751 H   0  0  0  0  0  0  0  0  0  0  0  0
   -2.1674   -1.2178   -1.1094 H   0  0  0  0  0  0  0  0  0  0  0  0
    0.1109   -1.6559   -1.2817 H   0  0  0  0  0  0  0  0  0  0  0  0
    0.3074   -2.1451    0.4133 H   0  0  0  0  0  0  0  0  0  0  0  0
    3.4568   -0.1962   -1.1200 H   0  0  0  0  0  0  0  0  0  0  0  0
    3.1576   -0.1483    0.6259 H   0  0  0  0  0  0  0  0  0  0  0  0
    1.8060    1.4385   -1.5999 H   0  0  0  0  0  0  0  0  0  0  0  0
    2.4412    1.9348   -0.0174 H   0  0  0  0  0  0  0  0  0  0  0  0
  1  2  2  0
  2  3  1  0
  3  4  1  0
  4  5  1  0
  2  6  1  0
  6  7  1  0
  7  8  1  0
  8  9  1  0
  9  1  1  0
  5  3  1  0
  1 10  1  0
  3 11  1  0
  4 12  1  0
  4 13  1  0
  5 14  1  0
  5 15  1  0
  6 16  1  0
  6 17  1  0
  8 18  1  0
  8 19  1  0
  9 20  1  0
  9 21  1  0
M  END
