
     RDKit          3D

 19 21  0  0  0  0  0  0  0  0999 V2000
    2.0922    0.9872   -0.1480 C   0  0  0  0  0  0  0  0  0  0  0  0
    0.8188    0.8852   -0.4726 C   0  0  0  0  0  0  0  0  0  0  0  0
   -0.5987    1.0653   -0.9454 C   0  0  0  0  0  0  0  0  0  0  0  0
   -0.9353   -0.0900   -0.0398 C   0  0  0  0  0  0  0  0  0  0  0  0
   -1.8337   -0.0379    1.0785 C   0  0  0  0  0  0  0  0  0  0  0  0
   -2.1312   -0.9112   -0.1845 C   0  0  0  0  0  0  0  0  0  0  0  0
    0.4560   -0.5428   -0.0824 C   0  0  0  0  0  0  0  0  0  0  0  0
    1.2249   -0.6720    1.0372 O   0  0  0  0  0  0  0  0  0  0  0  0
    2.4842   -0.3227    0.4638 C   0  0  0  0  0  0  0  0  0  0  0  0
    2.7565    1.8241   -0.2777 H   0  0  0  0  0  0  0  0  0  0  0  0
   -1.0510    2.0270   -0.7207 H   0  0  0  0  0  0  0  0  0  0  0  0
   -0.7588    0.7833   -2.0051 H   0  0  0  0  0  0  0  0  0  0  0  0
   -2.5835    0.7349    1.2435 H   0  0  0  0  0  0  0  0  0  0  0  0
   -1.6172   -0.6479    1.9958 H   0  0  0  0  0  0  0  0  0  0  0  0
   -2.0047   -2.0070   -0.0496 H   0  0  0  0  0  0  0  0  0  0  0  0
   -2.9194   -0.5567   -0.8538 H   0  0  0  0  0  0  0  0  0  0  0  0
    0.6545   -1.2733   -0.8841 H   0  0  0  0  0  0  0  0  0  0  0  0
    2.6844   -1.0084   -0.3677 H   0  0  0  0  0  0  0  0  0  0  0  0
    3.2621   -0.2372    1.2127 H   0  0  0  0  0  0  0  0  0  0  0  0
  1  2  2  0
  2  3  1  0
  3  4  1  0
  4  5  1  0
  5  6  1  0
  4  7  1  0
  7  8  1  0
  8  9  1  0
  9  1  1  0
  7  2  1  0
  6  4  1  0
  1 10  1  0
  3 11  1  0
  3 12  1  0
  5 13  1  0
  5 14  1  0
  6 15  1  0
  6 16  1  0
  7 17  1  0
  9 18  1  0
  9 19  1  0
M  END
