
     RDKit          3D

 19 21  0  0  0  0  0  0  0  0999 V2000
   -1.7618   -0.1303    0.3047 C   0  0  0  0  0  0  0  0  0  0  0  0
   -1.0178   -1.1921    0.5624 C   0  0  0  0  0  0  0  0  0  0  0  0
    0.2920   -1.3565   -0.0368 C   0  0  0  0  0  0  0  0  0  0  0  0
    1.4393   -0.5986    0.5509 C   0  0  0  0  0  0  0  0  0  0  0  0
    0.9847    0.8394    0.7008 C   0  0  0  0  0  0  0  0  0  0  0  0
    0.2384    0.9470   -0.6448 C   0  0  0  0  0  0  0  0  0  0  0  0
   -1.2135    1.0757   -0.3243 C   0  0  0  0  0  0  0  0  0  0  0  0
    0.6124   -0.4372   -1.1592 C   0  0  0  0  0  0  0  0  0  0  0  0
    1.9650   -0.5664   -0.7605 O   0  0  0  0  0  0  0  0  0  0  0  0
   -2.8319   -0.1238    0.5604 H   0  0  0  0  0  0  0  0  0  0  0  0
   -1.4114   -1.9388    1.2338 H   0  0  0  0  0  0  0  0  0  0  0  0
    0.5995   -2.3925   -0.2693 H   0  0  0  0  0  0  0  0  0  0  0  0
    2.0423   -1.0319    1.3141 H   0  0  0  0  0  0  0  0  0  0  0  0
    1.8255    1.5480    0.6388 H   0  0  0  0  0  0  0  0  0  0  0  0
    0.3211    0.9953    1.5488 H   0  0  0  0  0  0  0  0  0  0  0  0
    0.6316    1.7460   -1.2676 H   0  0  0  0  0  0  0  0  0  0  0  0
   -1.3066    1.9087    0.4333 H   0  0  0  0  0  0  0  0  0  0  0  0
   -1.7806    1.3927   -1.2206 H   0  0  0  0  0  0  0  0  0  0  0  0
    0.3718   -0.6847   -2.1649 H   0  0  0  0  0  0  0  0  0  0  0  0
  1  2  2  0
  2  3  1  0
  3  4  1  0
  4  5  1  0
  5  6  1  0
  6  7  1  0
  6  8  1  0
  8  9  1  0
  7  1  1  0
  8  3  1  0
  9  4  1  0
  1 10  1  0
  2 11  1  0
  3 12  1  0
  4 13  1  0
  5 14  1  0
  5 15  1  0
  6 16  1  0
  7 17  1  0
  7 18  1  0
  8 19  1  0
M  END
