
     RDKit          3D

 19 20  0  0  0  0  0  0  0  0999 V2000
   -0.8266    1.4681   -0.1042 C   0  0  0  0  0  0  0  0  0  0  0  0
    0.4661    1.2006   -0.2099 C   0  0  0  0  0  0  0  0  0  0  0  0
    1.1520   -0.0380    0.2481 C   0  0  0  0  0  0  0  0  0  0  0  0
    0.4208   -1.2801   -0.1868 C   0  0  0  0  0  0  0  0  0  0  0  0
   -0.8010   -1.4450    0.4309 O   0  0  0  0  0  0  0  0  0  0  0  0
   -1.8344   -0.7535   -0.1845 C   0  0  0  0  0  0  0  0  0  0  0  0
   -1.8930    0.6199    0.4839 C   0  0  0  0  0  0  0  0  0  0  0  0
    2.6339   -0.0968    0.1856 C   0  0  0  0  0  0  0  0  0  0  0  0
    1.9245   -0.0312    1.3816 O   0  0  0  0  0  0  0  0  0  0  0  0
   -1.1757    2.4151   -0.4857 H   0  0  0  0  0  0  0  0  0  0  0  0
    1.1060    1.9685   -0.6841 H   0  0  0  0  0  0  0  0  0  0  0  0
    0.3040   -1.3514   -1.2846 H   0  0  0  0  0  0  0  0  0  0  0  0
    1.0625   -2.1464    0.1239 H   0  0  0  0  0  0  0  0  0  0  0  0
   -2.7978   -1.2746   -0.1571 H   0  0  0  0  0  0  0  0  0  0  0  0
   -1.4896   -0.5530   -1.2368 H   0  0  0  0  0  0  0  0  0  0  0  0
   -2.8870    1.0508    0.4216 H   0  0  0  0  0  0  0  0  0  0  0  0
   -1.6196    0.4713    1.5622 H   0  0  0  0  0  0  0  0  0  0  0  0
    3.1294   -1.0514   -0.1014 H   0  0  0  0  0  0  0  0  0  0  0  0
    3.1255    0.8274   -0.2026 H   0  0  0  0  0  0  0  0  0  0  0  0
  1  2  2  0
  2  3  1  0
  3  4  1  0
  4  5  1  0
  5  6  1  0
  6  7  1  0
  3  8  1  0
  8  9  1  0
  7  1  1  0
  9  3  1  0
  1 10  1  0
  2 11  1  0
  4 12  1  0
  4 13  1  0
  6 14  1  0
  6 15  1  0
  7 16  1  0
  7 17  1  0
  8 18  1  0
  8 19  1  0
M  END
