
     RDKit          3D

 19 21  0  0  0  0  0  0  0  0999 V2000
    1.6612   -1.0795    0.3153 C   0  0  0  0  0  0  0  0  0  0  0  0
    0.5232   -1.6825    0.0265 C   0  0  0  0  0  0  0  0  0  0  0  0
   -0.7847   -1.0390   -0.2110 C   0  0  0  0  0  0  0  0  0  0  0  0
   -1.2725   -0.1687    0.9317 C   0  0  0  0  0  0  0  0  0  0  0  0
   -1.3799    0.9673   -0.0566 C   0  0  0  0  0  0  0  0  0  0  0  0
   -0.1402    1.3496   -0.7423 C   0  0  0  0  0  0  0  0  0  0  0  0
    1.1059    1.3232    0.0092 C   0  0  0  0  0  0  0  0  0  0  0  0
    1.8803    0.3596    0.4647 C   0  0  0  0  0  0  0  0  0  0  0  0
   -0.7406    0.0962   -1.1586 C   0  0  0  0  0  0  0  0  0  0  0  0
    2.5171   -1.7269    0.4546 H   0  0  0  0  0  0  0  0  0  0  0  0
    0.5765   -2.7554   -0.0379 H   0  0  0  0  0  0  0  0  0  0  0  0
   -1.5778   -1.7676   -0.4792 H   0  0  0  0  0  0  0  0  0  0  0  0
   -2.2306   -0.4889    1.3752 H   0  0  0  0  0  0  0  0  0  0  0  0
   -0.5117    0.0745    1.6937 H   0  0  0  0  0  0  0  0  0  0  0  0
   -2.3592    1.4203   -0.2674 H   0  0  0  0  0  0  0  0  0  0  0  0
   -0.2465    2.1873   -1.4661 H   0  0  0  0  0  0  0  0  0  0  0  0
    1.4911    2.3086    0.2535 H   0  0  0  0  0  0  0  0  0  0  0  0
    2.7793    0.6261    1.0090 H   0  0  0  0  0  0  0  0  0  0  0  0
   -1.2909   -0.0044   -2.1141 H   0  0  0  0  0  0  0  0  0  0  0  0
  1  2  2  0
  2  3  1  0
  3  4  1  0
  4  5  1  0
  5  6  1  0
  6  7  1  0
  7  8  2  0
  6  9  1  0
  8  1  1  0
  9  3  1  0
  9  5  1  0
  1 10  1  0
  2 11  1  0
  3 12  1  0
  4 13  1  0
  4 14  1  0
  5 15  1  0
  6 16  1  0
  7 17  1  0
  8 18  1  0
  9 19  1  0
M  END
