
     RDKit          3D

 20 21  0  0  0  0  0  0  0  0999 V2000
    1.0709    0.9426   -1.0910 C   0  0  0  0  0  0  0  0  0  0  0  0
    1.1938   -0.3779   -1.1307 C   0  0  0  0  0  0  0  0  0  0  0  0
    0.5699   -1.2123   -0.0675 C   0  0  0  0  0  0  0  0  0  0  0  0
   -0.9282   -1.3332   -0.3401 C   0  0  0  0  0  0  0  0  0  0  0  0
   -1.5525   -0.0958    0.2400 C   0  0  0  0  0  0  0  0  0  0  0  0
   -0.4225    0.6873    0.8821 C   0  0  0  0  0  0  0  0  0  0  0  0
    0.2188    1.6520   -0.1095 C   0  0  0  0  0  0  0  0  0  0  0  0
    0.6224   -0.3692    1.2107 C   0  0  0  0  0  0  0  0  0  0  0  0
    1.6205    1.5348   -1.8117 H   0  0  0  0  0  0  0  0  0  0  0  0
    1.7386   -0.8808   -1.9184 H   0  0  0  0  0  0  0  0  0  0  0  0
    1.0302   -2.1900    0.0579 H   0  0  0  0  0  0  0  0  0  0  0  0
   -1.3532   -2.2660    0.0263 H   0  0  0  0  0  0  0  0  0  0  0  0
   -1.0356   -1.2721   -1.4585 H   0  0  0  0  0  0  0  0  0  0  0  0
   -2.0064    0.5556   -0.5315 H   0  0  0  0  0  0  0  0  0  0  0  0
   -2.3271   -0.3368    0.9995 H   0  0  0  0  0  0  0  0  0  0  0  0
   -0.7516    1.2398    1.7756 H   0  0  0  0  0  0  0  0  0  0  0  0
    0.8601    2.3309    0.5005 H   0  0  0  0  0  0  0  0  0  0  0  0
   -0.5572    2.2601   -0.6117 H   0  0  0  0  0  0  0  0  0  0  0  0
    0.3763   -0.9522    2.0940 H   0  0  0  0  0  0  0  0  0  0  0  0
    1.6330    0.0831    1.2841 H   0  0  0  0  0  0  0  0  0  0  0  0
  1  2  2  0
  2  3  1  0
  3  4  1  0
  4  5  1  0
  5  6  1  0
  6  7  1  0
  6  8  1  0
  7  1  1  0
  8  3  1  0
  1  9  1  0
  2 10  1  0
  3 11  1  0
  4 12  1  0
  4 13  1  0
  5 14  1  0
  5 15  1  0
  6 16  1  0
  7 17  1  0
  7 18  1  0
  8 19  1  0
  8 20  1  0
M  END
