
     RDKit          3D

 21 22  0  0  0  0  0  0  0  0999 V2000
   -1.8979    0.3202   -0.2495 C   0  0  0  0  0  0  0  0  0  0  0  0
   -1.1717    1.2779    0.2878 C   0  0  0  0  0  0  0  0  0  0  0  0
    0.1218    1.0074    0.9473 C   0  0  0  0  0  0  0  0  0  0  0  0
    1.2135    1.2911   -0.0723 C   0  0  0  0  0  0  0  0  0  0  0  0
    1.7598   -0.0075   -0.5670 C   0  0  0  0  0  0  0  0  0  0  0  0
    0.6904   -1.0631   -0.7764 C   0  0  0  0  0  0  0  0  0  0  0  0
   -0.1436   -1.2261    0.4479 C   0  0  0  0  0  0  0  0  0  0  0  0
   -1.6208   -1.0822    0.1870 C   0  0  0  0  0  0  0  0  0  0  0  0
    0.2081   -0.3012    1.4260 O   0  0  0  0  0  0  0  0  0  0  0  0
   -2.6808    0.4942   -0.9870 H   0  0  0  0  0  0  0  0  0  0  0  0
   -1.5232    2.2915    0.2502 H   0  0  0  0  0  0  0  0  0  0  0  0
    0.2253    1.6890    1.7984 H   0  0  0  0  0  0  0  0  0  0  0  0
    0.8394    1.9607   -0.8726 H   0  0  0  0  0  0  0  0  0  0  0  0
    2.0399    1.8189    0.4591 H   0  0  0  0  0  0  0  0  0  0  0  0
    2.4287   -0.4149    0.2425 H   0  0  0  0  0  0  0  0  0  0  0  0
    2.3190    0.1495   -1.5098 H   0  0  0  0  0  0  0  0  0  0  0  0
    0.1097   -0.9056   -1.6903 H   0  0  0  0  0  0  0  0  0  0  0  0
    1.2558   -2.0276   -0.9346 H   0  0  0  0  0  0  0  0  0  0  0  0
   -0.0069   -2.2363    0.9217 H   0  0  0  0  0  0  0  0  0  0  0  0
   -2.0335   -1.8365   -0.4802 H   0  0  0  0  0  0  0  0  0  0  0  0
   -2.1329   -1.1995    1.1717 H   0  0  0  0  0  0  0  0  0  0  0  0
  1  2  2  0
  2  3  1  0
  3  4  1  0
  4  5  1  0
  5  6  1  0
  6  7  1  0
  7  8  1  0
  7  9  1  0
  8  1  1  0
  9  3  1  0
  1 10  1  0
  2 11  1  0
  3 12  1  0
  4 13  1  0
  4 14  1  0
  5 15  1  0
  5 16  1  0
  6 17  1  0
  6 18  1  0
  7 19  1  0
  8 20  1  0
  8 21  1  0
M  END
