
     RDKit          3D

 19 21  0  0  0  0  0  0  0  0999 V2000
   -0.4883    1.5927    0.0112 C   0  0  0  0  0  0  0  0  0  0  0  0
    0.8095    1.3720   -0.0289 C   0  0  0  0  0  0  0  0  0  0  0  0
    1.6254    0.1597    0.0219 C   0  0  0  0  0  0  0  0  0  0  0  0
    1.0001   -0.9623   -0.7034 C   0  0  0  0  0  0  0  0  0  0  0  0
   -0.4612   -0.8459   -0.9602 C   0  0  0  0  0  0  0  0  0  0  0  0
   -1.0794   -0.7068    0.4127 C   0  0  0  0  0  0  0  0  0  0  0  0
   -1.5588    0.7421    0.5939 C   0  0  0  0  0  0  0  0  0  0  0  0
   -0.1013   -0.9053    1.3450 O   0  0  0  0  0  0  0  0  0  0  0  0
    1.1168   -0.9789    0.7666 C   0  0  0  0  0  0  0  0  0  0  0  0
   -0.8859    2.5079   -0.4277 H   0  0  0  0  0  0  0  0  0  0  0  0
    1.3852    2.2952   -0.1191 H   0  0  0  0  0  0  0  0  0  0  0  0
    2.7208    0.2587   -0.0672 H   0  0  0  0  0  0  0  0  0  0  0  0
    1.6428   -1.5687   -1.3612 H   0  0  0  0  0  0  0  0  0  0  0  0
   -0.7272    0.0091   -1.6183 H   0  0  0  0  0  0  0  0  0  0  0  0
   -0.8024   -1.7785   -1.4534 H   0  0  0  0  0  0  0  0  0  0  0  0
   -1.9428   -1.3927    0.4833 H   0  0  0  0  0  0  0  0  0  0  0  0
   -2.5388    0.9030    0.1485 H   0  0  0  0  0  0  0  0  0  0  0  0
   -1.5597    0.9547    1.6987 H   0  0  0  0  0  0  0  0  0  0  0  0
    1.8453   -1.6561    1.2575 H   0  0  0  0  0  0  0  0  0  0  0  0
  1  2  2  0
  2  3  1  0
  3  4  1  0
  4  5  1  0
  5  6  1  0
  6  7  1  0
  6  8  1  0
  8  9  1  0
  7  1  1  0
  9  3  1  0
  9  4  1  0
  1 10  1  0
  2 11  1  0
  3 12  1  0
  4 13  1  0
  5 14  1  0
  5 15  1  0
  6 16  1  0
  7 17  1  0
  7 18  1  0
  9 19  1  0
M  END
