
     RDKit          3D

 20 21  0  0  0  0  0  0  0  0999 V2000
    1.6666    0.8623    0.5448 C   0  0  0  0  0  0  0  0  0  0  0  0
    0.6778    1.5201   -0.0452 C   0  0  0  0  0  0  0  0  0  0  0  0
   -0.5653    0.9378   -0.5650 C   0  0  0  0  0  0  0  0  0  0  0  0
   -1.6323    0.6452    0.4512 C   0  0  0  0  0  0  0  0  0  0  0  0
   -1.5728   -0.8305    0.1162 C   0  0  0  0  0  0  0  0  0  0  0  0
   -0.4828   -0.5317   -0.8517 C   0  0  0  0  0  0  0  0  0  0  0  0
    0.8620   -1.1258   -0.5609 C   0  0  0  0  0  0  0  0  0  0  0  0
    1.4909   -0.6085    0.6902 C   0  0  0  0  0  0  0  0  0  0  0  0
    2.5698    1.3647    0.9100 H   0  0  0  0  0  0  0  0  0  0  0  0
    0.8073    2.6050   -0.1510 H   0  0  0  0  0  0  0  0  0  0  0  0
   -0.9516    1.5366   -1.4312 H   0  0  0  0  0  0  0  0  0  0  0  0
   -2.5856    1.1280    0.1970 H   0  0  0  0  0  0  0  0  0  0  0  0
   -1.2990    0.8259    1.5000 H   0  0  0  0  0  0  0  0  0  0  0  0
   -1.3244   -1.4889    0.9666 H   0  0  0  0  0  0  0  0  0  0  0  0
   -2.5461   -1.1597   -0.3515 H   0  0  0  0  0  0  0  0  0  0  0  0
   -0.7742   -0.7489   -1.8975 H   0  0  0  0  0  0  0  0  0  0  0  0
    1.5354   -0.8232   -1.4120 H   0  0  0  0  0  0  0  0  0  0  0  0
    0.8064   -2.2129   -0.5500 H   0  0  0  0  0  0  0  0  0  0  0  0
    2.4464   -1.1292    0.8478 H   0  0  0  0  0  0  0  0  0  0  0  0
    0.8714   -0.7661    1.5922 H   0  0  0  0  0  0  0  0  0  0  0  0
  1  2  2  0
  2  3  1  0
  3  4  1  0
  4  5  1  0
  5  6  1  0
  6  7  1  0
  7  8  1  0
  8  1  1  0
  6  3  1  0
  1  9  1  0
  2 10  1  0
  3 11  1  0
  4 12  1  0
  4 13  1  0
  5 14  1  0
  5 15  1  0
  6 16  1  0
  7 17  1  0
  7 18  1  0
  8 19  1  0
  8 20  1  0
M  END
