
     RDKit          3D

 18 20  0  0  0  0  0  0  0  0999 V2000
   -1.2948    0.5728    1.0696 C   0  0  0  0  0  0  0  0  0  0  0  0
   -0.9209    1.4921    0.1949 C   0  0  0  0  0  0  0  0  0  0  0  0
   -0.1388    0.8223   -0.8778 C   0  0  0  0  0  0  0  0  0  0  0  0
   -0.8920   -0.5190   -0.9019 C   0  0  0  0  0  0  0  0  0  0  0  0
   -0.7375   -0.7471    0.6105 C   0  0  0  0  0  0  0  0  0  0  0  0
    0.7393   -0.6696    0.7784 C   0  0  0  0  0  0  0  0  0  0  0  0
    1.7076   -0.9366   -0.2829 C   0  0  0  0  0  0  0  0  0  0  0  0
    1.1614    0.4130   -0.2721 C   0  0  0  0  0  0  0  0  0  0  0  0
   -1.8917    0.7739    1.9421 H   0  0  0  0  0  0  0  0  0  0  0  0
   -1.1297    2.5428    0.2268 H   0  0  0  0  0  0  0  0  0  0  0  0
   -0.1095    1.3188   -1.8191 H   0  0  0  0  0  0  0  0  0  0  0  0
   -0.4278   -1.2711   -1.5107 H   0  0  0  0  0  0  0  0  0  0  0  0
   -1.9316   -0.2679   -1.1469 H   0  0  0  0  0  0  0  0  0  0  0  0
   -1.2426   -1.6056    0.9794 H   0  0  0  0  0  0  0  0  0  0  0  0
    1.0726   -0.4530    1.8322 H   0  0  0  0  0  0  0  0  0  0  0  0
    1.5022   -1.6993   -1.0474 H   0  0  0  0  0  0  0  0  0  0  0  0
    2.7776   -1.0133    0.0717 H   0  0  0  0  0  0  0  0  0  0  0  0
    1.7562    1.2469    0.1534 H   0  0  0  0  0  0  0  0  0  0  0  0
  1  2  2  0
  2  3  1  0
  3  4  1  0
  4  5  1  0
  5  6  1  0
  6  7  1  0
  7  8  1  0
  5  1  1  0
  8  6  1  0
  8  3  1  0
  1  9  1  0
  2 10  1  0
  3 11  1  0
  4 12  1  0
  4 13  1  0
  5 14  1  0
  6 15  1  0
  7 16  1  0
  7 17  1  0
  8 18  1  0
M  END
