
     RDKit          3D

 21 22  0  0  0  0  0  0  0  0999 V2000
   -2.0967   -0.6971    0.7749 C   0  0  0  0  0  0  0  0  0  0  0  0
   -0.9665   -1.3599    0.9811 C   0  0  0  0  0  0  0  0  0  0  0  0
    0.1449   -0.4984    0.6364 C   0  0  0  0  0  0  0  0  0  0  0  0
    1.3082   -1.1628   -0.0545 C   0  0  0  0  0  0  0  0  0  0  0  0
    1.9544   -0.0369   -0.8797 C   0  0  0  0  0  0  0  0  0  0  0  0
    1.7616    1.2077   -0.2743 O   0  0  0  0  0  0  0  0  0  0  0  0
    0.4490    1.6663   -0.3981 C   0  0  0  0  0  0  0  0  0  0  0  0
   -0.4377    0.4690   -0.3742 C   0  0  0  0  0  0  0  0  0  0  0  0
   -1.7966    0.6944    0.2608 C   0  0  0  0  0  0  0  0  0  0  0  0
   -3.1237   -1.0560    0.9369 H   0  0  0  0  0  0  0  0  0  0  0  0
   -0.9452   -2.4025    1.3578 H   0  0  0  0  0  0  0  0  0  0  0  0
    0.4766    0.0553    1.5384 H   0  0  0  0  0  0  0  0  0  0  0  0
    2.0131   -1.5875    0.6703 H   0  0  0  0  0  0  0  0  0  0  0  0
    0.9530   -1.9059   -0.7782 H   0  0  0  0  0  0  0  0  0  0  0  0
    3.0406   -0.2325   -0.8599 H   0  0  0  0  0  0  0  0  0  0  0  0
    1.6320   -0.0599   -1.9242 H   0  0  0  0  0  0  0  0  0  0  0  0
    0.3208    2.2921   -1.3066 H   0  0  0  0  0  0  0  0  0  0  0  0
    0.2236    2.2905    0.4899 H   0  0  0  0  0  0  0  0  0  0  0  0
   -0.5427   -0.0155   -1.3483 H   0  0  0  0  0  0  0  0  0  0  0  0
   -1.7960    1.4422    1.0556 H   0  0  0  0  0  0  0  0  0  0  0  0
   -2.5731    0.8975   -0.5043 H   0  0  0  0  0  0  0  0  0  0  0  0
  1  2  2  0
  2  3  1  0
  3  4  1  0
  4  5  1  0
  5  6  1  0
  6  7  1  0
  7  8  1  0
  8  9  1  0
  9  1  1  0
  8  3  1  0
  1 10  1  0
  2 11  1  0
  3 12  1  0
  4 13  1  0
  4 14  1  0
  5 15  1  0
  5 16  1  0
  7 17  1  0
  7 18  1  0
  8 19  1  0
  9 20  1  0
  9 21  1  0
M  END
