
     RDKit          3D

 23 24  0  0  0  0  0  0  0  0999 V2000
    0.1225   -1.5575   -0.5646 C   0  0  0  0  0  0  0  0  0  0  0  0
    0.9638   -0.6450   -0.0948 C   0  0  0  0  0  0  0  0  0  0  0  0
    2.3637   -0.2218   -0.1115 C   0  0  0  0  0  0  0  0  0  0  0  0
    2.0662    0.8452    0.8737 C   0  0  0  0  0  0  0  0  0  0  0  0
    0.6376    0.4823    0.8031 C   0  0  0  0  0  0  0  0  0  0  0  0
   -0.2811    1.3965    0.0171 C   0  0  0  0  0  0  0  0  0  0  0  0
   -1.6812    0.8182    0.1364 C   0  0  0  0  0  0  0  0  0  0  0  0
   -1.9387   -0.3355   -0.7640 C   0  0  0  0  0  0  0  0  0  0  0  0
   -1.3549   -1.6446   -0.2852 C   0  0  0  0  0  0  0  0  0  0  0  0
    0.5831   -2.2808   -1.1987 H   0  0  0  0  0  0  0  0  0  0  0  0
    2.7246    0.2397   -1.0674 H   0  0  0  0  0  0  0  0  0  0  0  0
    3.1159   -0.9811    0.1853 H   0  0  0  0  0  0  0  0  0  0  0  0
    2.4871    0.5592    1.8789 H   0  0  0  0  0  0  0  0  0  0  0  0
    2.3315    1.8835    0.5908 H   0  0  0  0  0  0  0  0  0  0  0  0
    0.1650    0.1851    1.7719 H   0  0  0  0  0  0  0  0  0  0  0  0
   -0.0329    1.3645   -1.0743 H   0  0  0  0  0  0  0  0  0  0  0  0
   -0.2516    2.4315    0.3607 H   0  0  0  0  0  0  0  0  0  0  0  0
   -2.3816    1.6349   -0.1368 H   0  0  0  0  0  0  0  0  0  0  0  0
   -1.8437    0.5867    1.2170 H   0  0  0  0  0  0  0  0  0  0  0  0
   -3.0330   -0.4761   -0.8483 H   0  0  0  0  0  0  0  0  0  0  0  0
   -1.4904   -0.1179   -1.7507 H   0  0  0  0  0  0  0  0  0  0  0  0
   -1.8120   -2.5014   -0.7555 H   0  0  0  0  0  0  0  0  0  0  0  0
   -1.4598   -1.6657    0.8171 H   0  0  0  0  0  0  0  0  0  0  0  0
  1  2  2  0
  2  3  1  0
  3  4  1  0
  4  5  1  0
  5  6  1  0
  6  7  1  0
  7  8  1  0
  8  9  1  0
  9  1  1  0
  5  2  1  0
  1 10  1  0
  3 11  1  0
  3 12  1  0
  4 13  1  0
  4 14  1  0
  5 15  1  0
  6 16  1  0
  6 17  1  0
  7 18  1  0
  7 19  1  0
  8 20  1  0
  8 21  1  0
  9 22  1  0
  9 23  1  0
M  END
