
     RDKit          3D

 23 24  0  0  0  0  0  0  0  0999 V2000
    2.1844    1.0231    0.2439 C   0  0  0  0  0  0  0  0  0  0  0  0
    2.5454   -0.1516   -0.1988 C   0  0  0  0  0  0  0  0  0  0  0  0
    1.3823   -0.9043   -0.7169 C   0  0  0  0  0  0  0  0  0  0  0  0
    0.2096   -0.1634   -0.1815 C   0  0  0  0  0  0  0  0  0  0  0  0
    0.7285    1.2230    0.0847 C   0  0  0  0  0  0  0  0  0  0  0  0
   -0.4658   -0.7985    0.9826 C   0  0  0  0  0  0  0  0  0  0  0  0
   -1.9321   -0.3948    0.8787 C   0  0  0  0  0  0  0  0  0  0  0  0
   -2.0353    0.4701   -0.3608 C   0  0  0  0  0  0  0  0  0  0  0  0
   -0.9156   -0.1233   -1.2185 C   0  0  0  0  0  0  0  0  0  0  0  0
    2.8431    1.8084    0.6912 H   0  0  0  0  0  0  0  0  0  0  0  0
    3.6035   -0.4980   -0.1692 H   0  0  0  0  0  0  0  0  0  0  0  0
    1.3906   -0.7813   -1.8272 H   0  0  0  0  0  0  0  0  0  0  0  0
    1.3890   -1.9697   -0.4198 H   0  0  0  0  0  0  0  0  0  0  0  0
    0.5597    1.9156   -0.7592 H   0  0  0  0  0  0  0  0  0  0  0  0
    0.3218    1.6623    1.0176 H   0  0  0  0  0  0  0  0  0  0  0  0
   -0.0307   -0.5381    1.9666 H   0  0  0  0  0  0  0  0  0  0  0  0
   -0.4453   -1.9080    0.8340 H   0  0  0  0  0  0  0  0  0  0  0  0
   -2.6006   -1.2472    0.7407 H   0  0  0  0  0  0  0  0  0  0  0  0
   -2.1667    0.1638    1.7999 H   0  0  0  0  0  0  0  0  0  0  0  0
   -1.7558    1.4915   -0.0665 H   0  0  0  0  0  0  0  0  0  0  0  0
   -3.0063    0.3861   -0.8687 H   0  0  0  0  0  0  0  0  0  0  0  0
   -1.1325   -1.1646   -1.4855 H   0  0  0  0  0  0  0  0  0  0  0  0
   -0.6712    0.4990   -2.0762 H   0  0  0  0  0  0  0  0  0  0  0  0
  1  2  2  0
  2  3  1  0
  3  4  1  0
  4  5  1  0
  4  6  1  0
  6  7  1  0
  7  8  1  0
  8  9  1  0
  5  1  1  0
  9  4  1  0
  1 10  1  0
  2 11  1  0
  3 12  1  0
  3 13  1  0
  5 14  1  0
  5 15  1  0
  6 16  1  0
  6 17  1  0
  7 18  1  0
  7 19  1  0
  8 20  1  0
  8 21  1  0
  9 22  1  0
  9 23  1  0
M  END
