
     RDKit          3D

 19 21  0  0  0  0  0  0  0  0999 V2000
    0.9544    1.4598   -0.0810 C   0  0  0  0  0  0  0  0  0  0  0  0
   -0.3475    1.4561   -0.3245 C   0  0  0  0  0  0  0  0  0  0  0  0
   -1.2400    0.3843    0.1168 C   0  0  0  0  0  0  0  0  0  0  0  0
   -1.2334   -0.8067   -0.8483 C   0  0  0  0  0  0  0  0  0  0  0  0
    0.1375   -1.3376   -0.8118 C   0  0  0  0  0  0  0  0  0  0  0  0
    0.6801   -2.1043    0.1645 O   0  0  0  0  0  0  0  0  0  0  0  0
    0.6823   -0.8245    0.5173 C   0  0  0  0  0  0  0  0  0  0  0  0
    1.7051    0.2087    0.3221 C   0  0  0  0  0  0  0  0  0  0  0  0
   -0.5158   -0.3085    1.2871 C   0  0  0  0  0  0  0  0  0  0  0  0
    1.5619    2.3702   -0.1579 H   0  0  0  0  0  0  0  0  0  0  0  0
   -0.7568    2.2876   -0.8746 H   0  0  0  0  0  0  0  0  0  0  0  0
   -2.2419    0.6872    0.3999 H   0  0  0  0  0  0  0  0  0  0  0  0
   -1.4840   -0.4962   -1.8787 H   0  0  0  0  0  0  0  0  0  0  0  0
   -1.9647   -1.5282   -0.4224 H   0  0  0  0  0  0  0  0  0  0  0  0
    0.7688   -1.2430   -1.7292 H   0  0  0  0  0  0  0  0  0  0  0  0
    2.3187    0.4600    1.2044 H   0  0  0  0  0  0  0  0  0  0  0  0
    2.3994    0.0134   -0.5218 H   0  0  0  0  0  0  0  0  0  0  0  0
   -1.1606   -1.1182    1.6119 H   0  0  0  0  0  0  0  0  0  0  0  0
   -0.2634    0.4398    2.0262 H   0  0  0  0  0  0  0  0  0  0  0  0
  1  2  2  0
  2  3  1  0
  3  4  1  0
  4  5  1  0
  5  6  1  0
  6  7  1  0
  7  8  1  0
  7  9  1  0
  8  1  1  0
  9  3  1  0
  7  5  1  0
  1 10  1  0
  2 11  1  0
  3 12  1  0
  4 13  1  0
  4 14  1  0
  5 15  1  0
  8 16  1  0
  8 17  1  0
  9 18  1  0
  9 19  1  0
M  END
