
     RDKit          3D

 17 19  0  0  0  0  0  0  0  0999 V2000
   -1.7336   -1.0940    0.0371 C   0  0  0  0  0  0  0  0  0  0  0  0
   -0.7161   -1.4041    0.8088 C   0  0  0  0  0  0  0  0  0  0  0  0
    0.2667   -0.3124    0.8908 C   0  0  0  0  0  0  0  0  0  0  0  0
    1.5890   -0.3838    0.2631 C   0  0  0  0  0  0  0  0  0  0  0  0
    1.8032    0.8707   -0.4733 C   0  0  0  0  0  0  0  0  0  0  0  0
    0.6873    1.5635   -0.5026 C   0  0  0  0  0  0  0  0  0  0  0  0
   -0.3937    0.8592    0.2055 C   0  0  0  0  0  0  0  0  0  0  0  0
   -1.5366    0.2652   -0.4915 C   0  0  0  0  0  0  0  0  0  0  0  0
   -0.2089    0.7860    1.5755 O   0  0  0  0  0  0  0  0  0  0  0  0
   -2.6140   -1.7561   -0.1857 H   0  0  0  0  0  0  0  0  0  0  0  0
   -0.6168   -2.3594    1.3253 H   0  0  0  0  0  0  0  0  0  0  0  0
    1.5427   -1.2070   -0.5150 H   0  0  0  0  0  0  0  0  0  0  0  0
    2.4274   -0.5895    0.9700 H   0  0  0  0  0  0  0  0  0  0  0  0
    2.7801    1.1782   -0.9361 H   0  0  0  0  0  0  0  0  0  0  0  0
    0.5575    2.5272   -0.9790 H   0  0  0  0  0  0  0  0  0  0  0  0
   -2.4959    0.8183   -0.3826 H   0  0  0  0  0  0  0  0  0  0  0  0
   -1.3383    0.2380   -1.6103 H   0  0  0  0  0  0  0  0  0  0  0  0
  1  2  2  0
  2  3  1  0
  3  4  1  0
  4  5  1  0
  5  6  2  0
  6  7  1  0
  7  8  1  0
  7  9  1  0
  8  1  1  0
  7  3  1  0
  9  3  1  0
  1 10  1  0
  2 11  1  0
  4 12  1  0
  4 13  1  0
  5 14  1  0
  6 15  1  0
  8 16  1  0
  8 17  1  0
M  END
