
     RDKit          3D

 19 19  0  0  0  0  0  0  0  0999 V2000
    0.3990    1.7550   -0.2039 C   0  0  0  0  0  0  0  0  0  0  0  0
   -0.9001    1.7176   -0.1838 C   0  0  0  0  0  0  0  0  0  0  0  0
   -1.8475    0.8230    0.4372 C   0  0  0  0  0  0  0  0  0  0  0  0
   -1.7584   -0.4766    0.6157 C   0  0  0  0  0  0  0  0  0  0  0  0
   -0.6410   -1.3260    0.2093 C   0  0  0  0  0  0  0  0  0  0  0  0
   -0.2407   -0.9028   -1.0592 O   0  0  0  0  0  0  0  0  0  0  0  0
    1.1458   -1.1305   -1.0219 C   0  0  0  0  0  0  0  0  0  0  0  0
    1.7492   -0.3365    0.0840 C   0  0  0  0  0  0  0  0  0  0  0  0
    1.4012    0.8937    0.3997 C   0  0  0  0  0  0  0  0  0  0  0  0
    0.8478    2.6210   -0.7743 H   0  0  0  0  0  0  0  0  0  0  0  0
   -1.4289    2.5254   -0.7547 H   0  0  0  0  0  0  0  0  0  0  0  0
   -2.8154    1.2168    0.8478 H   0  0  0  0  0  0  0  0  0  0  0  0
   -2.5833   -1.0355    1.1201 H   0  0  0  0  0  0  0  0  0  0  0  0
   -0.8714   -2.4099    0.2273 H   0  0  0  0  0  0  0  0  0  0  0  0
    0.1629   -1.1977    0.9777 H   0  0  0  0  0  0  0  0  0  0  0  0
    1.2398   -2.2146   -0.8074 H   0  0  0  0  0  0  0  0  0  0  0  0
    1.6295   -0.9578   -1.9919 H   0  0  0  0  0  0  0  0  0  0  0  0
    2.5204   -0.8710    0.6256 H   0  0  0  0  0  0  0  0  0  0  0  0
    1.9910    1.3066    1.2527 H   0  0  0  0  0  0  0  0  0  0  0  0
  1  2  2  3
  2  3  1  0
  3  4  2  3
  4  5  1  0
  5  6  1  0
  6  7  1  0
  7  8  1  0
  8  9  2  3
  9  1  1  0
  1 10  1  0
  2 11  1  0
  3 12  1  0
  4 13  1  0
  5 14  1  0
  5 15  1  0
  7 16  1  0
  7 17  1  0
  8 18  1  0
  9 19  1  0
M  END
