
     RDKit          3D

 21 22  0  0  0  0  0  0  0  0999 V2000
    2.4250    0.2705    0.1926 C   0  0  0  0  0  0  0  0  0  0  0  0
    2.0185   -0.9825    0.0113 C   0  0  0  0  0  0  0  0  0  0  0  0
    0.5734   -1.3208   -0.2379 C   0  0  0  0  0  0  0  0  0  0  0  0
   -0.3232   -0.2101    0.1396 C   0  0  0  0  0  0  0  0  0  0  0  0
   -1.6339   -0.5955    0.8075 C   0  0  0  0  0  0  0  0  0  0  0  0
   -2.1948    0.6683    0.1383 C   0  0  0  0  0  0  0  0  0  0  0  0
   -1.1926    0.3615   -0.9855 C   0  0  0  0  0  0  0  0  0  0  0  0
    0.2715    0.8217    0.8325 O   0  0  0  0  0  0  0  0  0  0  0  0
    1.3693    1.3301    0.1362 C   0  0  0  0  0  0  0  0  0  0  0  0
    3.4770    0.5177    0.3741 H   0  0  0  0  0  0  0  0  0  0  0  0
    2.7726   -1.7512    0.0504 H   0  0  0  0  0  0  0  0  0  0  0  0
    0.3433   -2.1943    0.4412 H   0  0  0  0  0  0  0  0  0  0  0  0
    0.4268   -1.7153   -1.2648 H   0  0  0  0  0  0  0  0  0  0  0  0
   -2.1477   -1.4670    0.3562 H   0  0  0  0  0  0  0  0  0  0  0  0
   -1.5658   -0.5522    1.8915 H   0  0  0  0  0  0  0  0  0  0  0  0
   -3.2389    0.6182   -0.1457 H   0  0  0  0  0  0  0  0  0  0  0  0
   -1.8356    1.5397    0.6977 H   0  0  0  0  0  0  0  0  0  0  0  0
   -1.5584   -0.4001   -1.7036 H   0  0  0  0  0  0  0  0  0  0  0  0
   -0.8360    1.3002   -1.4148 H   0  0  0  0  0  0  0  0  0  0  0  0
    1.1408    1.4867   -0.9469 H   0  0  0  0  0  0  0  0  0  0  0  0
    1.7085    2.2743    0.6302 H   0  0  0  0  0  0  0  0  0  0  0  0
  1  2  2  0
  2  3  1  0
  3  4  1  0
  4  5  1  0
  5  6  1  0
  6  7  1  0
  4  8  1  0
  8  9  1  0
  9  1  1  0
  7  4  1  0
  1 10  1  0
  2 11  1  0
  3 12  1  0
  3 13  1  0
  5 14  1  0
  5 15  1  0
  6 16  1  0
  6 17  1  0
  7 18  1  0
  7 19  1  0
  9 20  1  0
  9 21  1  0
M  END
