
     RDKit          3D

 17 19  0  0  0  0  0  0  0  0999 V2000
    0.7123   -1.3726   -0.1910 C   0  0  0  0  0  0  0  0  0  0  0  0
   -0.4492   -0.7493   -0.1304 C   0  0  0  0  0  0  0  0  0  0  0  0
   -1.9582   -0.7031   -0.0787 C   0  0  0  0  0  0  0  0  0  0  0  0
   -1.7496    0.7875    0.2694 C   0  0  0  0  0  0  0  0  0  0  0  0
   -1.3497    1.4679   -0.8843 O   0  0  0  0  0  0  0  0  0  0  0  0
   -0.4785    0.7249   -0.0971 C   0  0  0  0  0  0  0  0  0  0  0  0
    0.8453    1.3206    0.2338 C   0  0  0  0  0  0  0  0  0  0  0  0
    1.8049    0.6774   -0.5865 O   0  0  0  0  0  0  0  0  0  0  0  0
    1.9755   -0.6314   -0.2041 C   0  0  0  0  0  0  0  0  0  0  0  0
    0.6658   -2.4715   -0.2305 H   0  0  0  0  0  0  0  0  0  0  0  0
   -2.3398   -0.8579   -1.1070 H   0  0  0  0  0  0  0  0  0  0  0  0
   -2.4086   -1.2834    0.7227 H   0  0  0  0  0  0  0  0  0  0  0  0
   -2.4034    1.2522    1.0001 H   0  0  0  0  0  0  0  0  0  0  0  0
    1.0961    1.1671    1.2972 H   0  0  0  0  0  0  0  0  0  0  0  0
    0.8392    2.3900   -0.0420 H   0  0  0  0  0  0  0  0  0  0  0  0
    2.4266   -0.5904    0.8292 H   0  0  0  0  0  0  0  0  0  0  0  0
    2.7713   -1.1282   -0.8006 H   0  0  0  0  0  0  0  0  0  0  0  0
  1  2  2  0
  2  3  1  0
  3  4  1  0
  4  5  1  0
  5  6  1  0
  6  7  1  0
  7  8  1  0
  8  9  1  0
  9  1  1  0
  6  2  1  0
  6  4  1  0
  1 10  1  0
  3 11  1  0
  3 12  1  0
  4 13  1  0
  7 14  1  0
  7 15  1  0
  9 16  1  0
  9 17  1  0
M  END
