
     RDKit          3D

 18 19  0  0  0  0  0  0  0  0999 V2000
    1.3388    1.3365   -0.2429 C   0  0  0  0  0  0  0  0  0  0  0  0
    0.1430    0.7661   -0.1262 C   0  0  0  0  0  0  0  0  0  0  0  0
   -1.3245    0.9327   -0.2065 C   0  0  0  0  0  0  0  0  0  0  0  0
   -1.8702   -0.4155    0.0956 C   0  0  0  0  0  0  0  0  0  0  0  0
   -0.7678   -1.4040   -0.2280 C   0  0  0  0  0  0  0  0  0  0  0  0
    0.4271   -0.6471    0.2642 C   0  0  0  0  0  0  0  0  0  0  0  0
    1.6124   -0.8800   -0.3977 O   0  0  0  0  0  0  0  0  0  0  0  0
    2.3490    0.2500    0.0607 C   0  0  0  0  0  0  0  0  0  0  0  0
    1.5134    2.3576   -0.5005 H   0  0  0  0  0  0  0  0  0  0  0  0
   -1.6130    1.6820    0.5641 H   0  0  0  0  0  0  0  0  0  0  0  0
   -1.6618    1.3474   -1.1765 H   0  0  0  0  0  0  0  0  0  0  0  0
   -2.8150   -0.6469   -0.4305 H   0  0  0  0  0  0  0  0  0  0  0  0
   -2.0192   -0.4791    1.2068 H   0  0  0  0  0  0  0  0  0  0  0  0
   -0.9194   -2.3201    0.4026 H   0  0  0  0  0  0  0  0  0  0  0  0
   -0.7291   -1.6865   -1.2763 H   0  0  0  0  0  0  0  0  0  0  0  0
    0.6051   -0.7676    1.3420 H   0  0  0  0  0  0  0  0  0  0  0  0
    2.4661    0.1763    1.1533 H   0  0  0  0  0  0  0  0  0  0  0  0
    3.2648    0.3979   -0.5043 H   0  0  0  0  0  0  0  0  0  0  0  0
  1  2  2  0
  2  3  1  0
  3  4  1  0
  4  5  1  0
  5  6  1  0
  6  7  1  0
  7  8  1  0
  8  1  1  0
  6  2  1  0
  1  9  1  0
  3 10  1  0
  3 11  1  0
  4 12  1  0
  4 13  1  0
  5 14  1  0
  5 15  1  0
  6 16  1  0
  8 17  1  0
  8 18  1  0
M  END
