
     RDKit          3D

 21 22  0  0  0  0  0  0  0  0999 V2000
   -1.5393   -1.2281    0.6104 C   0  0  0  0  0  0  0  0  0  0  0  0
   -0.2199   -1.0860    0.5551 C   0  0  0  0  0  0  0  0  0  0  0  0
    0.3889    0.1939    0.1016 C   0  0  0  0  0  0  0  0  0  0  0  0
    1.3595   -0.0245   -1.0636 C   0  0  0  0  0  0  0  0  0  0  0  0
    2.4888    0.0565   -0.0813 C   0  0  0  0  0  0  0  0  0  0  0  0
    1.5457    0.6752    0.9221 C   0  0  0  0  0  0  0  0  0  0  0  0
   -0.5246    1.1839   -0.1169 O   0  0  0  0  0  0  0  0  0  0  0  0
   -1.6898    0.7673   -0.7385 C   0  0  0  0  0  0  0  0  0  0  0  0
   -2.4438   -0.1178    0.2228 C   0  0  0  0  0  0  0  0  0  0  0  0
   -1.9422   -2.1978    0.9537 H   0  0  0  0  0  0  0  0  0  0  0  0
    0.4029   -1.9352    0.8521 H   0  0  0  0  0  0  0  0  0  0  0  0
    1.1714   -0.9919   -1.5351 H   0  0  0  0  0  0  0  0  0  0  0  0
    1.3736    0.8514   -1.7628 H   0  0  0  0  0  0  0  0  0  0  0  0
    2.8841   -0.9374    0.2601 H   0  0  0  0  0  0  0  0  0  0  0  0
    3.2836    0.7950   -0.3350 H   0  0  0  0  0  0  0  0  0  0  0  0
    1.6227    1.7896    0.9960 H   0  0  0  0  0  0  0  0  0  0  0  0
    1.6609    0.2411    1.9229 H   0  0  0  0  0  0  0  0  0  0  0  0
   -1.4649    0.2990   -1.6960 H   0  0  0  0  0  0  0  0  0  0  0  0
   -2.3016    1.6706   -0.9343 H   0  0  0  0  0  0  0  0  0  0  0  0
   -3.3680   -0.5206   -0.2498 H   0  0  0  0  0  0  0  0  0  0  0  0
   -2.6878    0.5159    1.1167 H   0  0  0  0  0  0  0  0  0  0  0  0
  1  2  2  0
  2  3  1  0
  3  4  1  0
  4  5  1  0
  5  6  1  0
  3  7  1  0
  7  8  1  0
  8  9  1  0
  9  1  1  0
  6  3  1  0
  1 10  1  0
  2 11  1  0
  4 12  1  0
  4 13  1  0
  5 14  1  0
  5 15  1  0
  6 16  1  0
  6 17  1  0
  8 18  1  0
  8 19  1  0
  9 20  1  0
  9 21  1  0
M  END
