
     RDKit          3D

 16 18  0  0  0  0  0  0  0  0999 V2000
    0.6451    1.5179    0.4557 C   0  0  0  0  0  0  0  0  0  0  0  0
   -0.5985    1.1293    0.6375 C   0  0  0  0  0  0  0  0  0  0  0  0
   -0.8001   -0.1958    0.0611 C   0  0  0  0  0  0  0  0  0  0  0  0
   -2.1031   -0.6705   -0.2133 C   0  0  0  0  0  0  0  0  0  0  0  0
   -1.3385   -1.2035    0.8720 O   0  0  0  0  0  0  0  0  0  0  0  0
    0.4392   -0.5063   -0.7012 C   0  0  0  0  0  0  0  0  0  0  0  0
    1.6335   -0.8632    0.1456 C   0  0  0  0  0  0  0  0  0  0  0  0
    1.4695    0.5437   -0.2566 C   0  0  0  0  0  0  0  0  0  0  0  0
    1.0123    2.4857    0.8120 H   0  0  0  0  0  0  0  0  0  0  0  0
   -1.4089    1.6995    1.1513 H   0  0  0  0  0  0  0  0  0  0  0  0
   -2.2897   -1.3832   -1.0485 H   0  0  0  0  0  0  0  0  0  0  0  0
   -2.9891   -0.1156    0.1231 H   0  0  0  0  0  0  0  0  0  0  0  0
    0.4012   -0.7906   -1.7595 H   0  0  0  0  0  0  0  0  0  0  0  0
    1.4425   -1.1757    1.1864 H   0  0  0  0  0  0  0  0  0  0  0  0
    2.4344   -1.4226   -0.3604 H   0  0  0  0  0  0  0  0  0  0  0  0
    2.0503    0.9509   -1.1053 H   0  0  0  0  0  0  0  0  0  0  0  0
  1  2  2  0
  2  3  1  0
  3  4  1  0
  4  5  1  0
  3  6  1  0
  6  7  1  0
  7  8  1  0
  8  1  1  0
  5  3  1  0
  8  6  1  0
  1  9  1  0
  2 10  1  0
  4 11  1  0
  4 12  1  0
  6 13  1  0
  7 14  1  0
  7 15  1  0
  8 16  1  0
M  END
