
     RDKit          3D

 13 14  0  0  0  0  0  0  0  0999 V2000
    1.2264    0.6599    0.3317 C   0  0  0  0  0  0  0  0  0  0  0  0
    1.1551   -0.6691    0.3950 C   0  0  0  0  0  0  0  0  0  0  0  0
    0.0336   -1.0492   -0.4844 C   0  0  0  0  0  0  0  0  0  0  0  0
   -1.2237   -0.6853    0.2091 C   0  0  0  0  0  0  0  0  0  0  0  0
   -1.2331    0.6502    0.2337 C   0  0  0  0  0  0  0  0  0  0  0  0
    0.0149    1.0454   -0.4800 C   0  0  0  0  0  0  0  0  0  0  0  0
    0.0912    0.0022   -1.4368 O   0  0  0  0  0  0  0  0  0  0  0  0
    1.9758    1.3026    0.7615 H   0  0  0  0  0  0  0  0  0  0  0  0
    1.8105   -1.2988    0.9867 H   0  0  0  0  0  0  0  0  0  0  0  0
    0.0701   -2.0260   -0.9167 H   0  0  0  0  0  0  0  0  0  0  0  0
   -2.0158   -1.2887    0.6339 H   0  0  0  0  0  0  0  0  0  0  0  0
   -1.9432    1.3299    0.6528 H   0  0  0  0  0  0  0  0  0  0  0  0
    0.0384    2.0268   -0.8864 H   0  0  0  0  0  0  0  0  0  0  0  0
  1  2  2  0
  2  3  1  0
  3  4  1  0
  4  5  2  0
  5  6  1  0
  6  7  1  0
  6  1  1  0
  7  3  1  0
  1  8  1  0
  2  9  1  0
  3 10  1  0
  4 11  1  0
  5 12  1  0
  6 13  1  0
M  END
