
     RDKit          3D

 16 17  0  0  0  0  0  0  0  0999 V2000
    1.2287    0.9453    0.0098 C   0  0  0  0  0  0  0  0  0  0  0  0
    1.6384   -0.3019   -0.1828 C   0  0  0  0  0  0  0  0  0  0  0  0
    0.5375   -1.0075   -0.9280 C   0  0  0  0  0  0  0  0  0  0  0  0
   -0.2904   -1.6242   -0.0315 O   0  0  0  0  0  0  0  0  0  0  0  0
   -0.9020   -0.8012    0.8758 C   0  0  0  0  0  0  0  0  0  0  0  0
   -1.2006    0.5770    0.3717 C   0  0  0  0  0  0  0  0  0  0  0  0
   -0.1243    1.0352   -0.5728 C   0  0  0  0  0  0  0  0  0  0  0  0
   -0.0571    0.0618   -1.5954 O   0  0  0  0  0  0  0  0  0  0  0  0
    1.7811    1.7352    0.4978 H   0  0  0  0  0  0  0  0  0  0  0  0
    2.5944   -0.6815    0.1555 H   0  0  0  0  0  0  0  0  0  0  0  0
    0.9097   -1.7258   -1.6541 H   0  0  0  0  0  0  0  0  0  0  0  0
   -0.3542   -0.7822    1.8620 H   0  0  0  0  0  0  0  0  0  0  0  0
   -1.8953   -1.2676    1.1315 H   0  0  0  0  0  0  0  0  0  0  0  0
   -1.3350    1.2417    1.2405 H   0  0  0  0  0  0  0  0  0  0  0  0
   -2.1561    0.5862   -0.1921 H   0  0  0  0  0  0  0  0  0  0  0  0
   -0.3748    2.0094   -0.9879 H   0  0  0  0  0  0  0  0  0  0  0  0
  1  2  2  0
  2  3  1  0
  3  4  1  0
  4  5  1  0
  5  6  1  0
  6  7  1  0
  7  8  1  0
  7  1  1  0
  8  3  1  0
  1  9  1  0
  2 10  1  0
  3 11  1  0
  5 12  1  0
  5 13  1  0
  6 14  1  0
  6 15  1  0
  7 16  1  0
M  END
