
     RDKit          2D

 17 20  0  0  0  0  0  0  0  0999 V2000
    1.5816    0.8610    0.0000 C   0  0  0  0  0  0  0  0  0  0  0  0
    1.4025    2.3503    0.0000 C   0  0  0  0  0  0  0  0  0  0  0  0
   -0.0692    2.6401    0.0000 C   0  0  0  0  0  0  0  0  0  0  0  0
   -1.4958    2.1766    0.0000 C   0  0  0  0  0  0  0  0  0  0  0  0
   -1.0323    0.7500    0.0000 C   0  0  0  0  0  0  0  0  0  0  0  0
    0.3943    1.2135    0.0000 C   0  0  0  0  0  0  0  0  0  0  0  0
    1.2760    0.0000    0.0000 O   0  0  0  0  0  0  0  0  0  0  0  0
    0.3943   -1.2135    0.0000 C   0  0  0  0  0  0  0  0  0  0  0  0
   -1.0323   -0.7500    0.0000 C   0  0  0  0  0  0  0  0  0  0  0  0
    2.8918    0.1306    0.0000 H   0  0  0  0  0  0  0  0  0  0  0  0
    2.5021    3.3706    0.0000 H   0  0  0  0  0  0  0  0  0  0  0  0
   -2.9224    1.7131    0.0000 H   0  0  0  0  0  0  0  0  0  0  0  0
   -1.9593    3.6032    0.0000 H   0  0  0  0  0  0  0  0  0  0  0  0
   -2.5138    0.5153    0.0000 H   0  0  0  0  0  0  0  0  0  0  0  0
    1.1710    1.3928    0.0000 H   0  0  0  0  0  0  0  0  0  0  0  0
    0.8578   -2.6401    0.0000 H   0  0  0  0  0  0  0  0  0  0  0  0
   -2.2458   -1.6317    0.0000 H   0  0  0  0  0  0  0  0  0  0  0  0
  1  2  2  0
  2  3  1  0
  3  4  1  0
  4  5  1  0
  5  6  1  0
  6  7  1  0
  7  8  1  0
  8  9  1  0
  8  1  1  0
  6  3  1  0
  9  3  1  0
  9  5  1  0
  1 10  1  0
  2 11  1  0
  4 12  1  0
  4 13  1  0
  5 14  1  0
  6 15  1  0
  8 16  1  0
  9 17  1  0
M  END
