
     RDKit          3D

 19 21  0  0  0  0  0  0  0  0999 V2000
    1.0233    1.6959    0.3354 C   0  0  0  0  0  0  0  0  0  0  0  0
    1.5342    0.8595   -0.5472 C   0  0  0  0  0  0  0  0  0  0  0  0
    0.7559   -0.3987   -0.5251 C   0  0  0  0  0  0  0  0  0  0  0  0
    1.4453   -1.6189   -0.2383 C   0  0  0  0  0  0  0  0  0  0  0  0
    0.9145   -1.3509   -1.4856 O   0  0  0  0  0  0  0  0  0  0  0  0
   -0.5567    0.0219    0.0168 C   0  0  0  0  0  0  0  0  0  0  0  0
   -0.1464    1.0788    1.0339 C   0  0  0  0  0  0  0  0  0  0  0  0
   -1.6546   -0.8635    0.3626 C   0  0  0  0  0  0  0  0  0  0  0  0
   -1.7819    0.1509   -0.7634 C   0  0  0  0  0  0  0  0  0  0  0  0
    1.3624    2.7031    0.5656 H   0  0  0  0  0  0  0  0  0  0  0  0
    2.3926    1.1138   -1.1633 H   0  0  0  0  0  0  0  0  0  0  0  0
    2.5738   -1.5928   -0.2277 H   0  0  0  0  0  0  0  0  0  0  0  0
    1.0146   -2.3717    0.4237 H   0  0  0  0  0  0  0  0  0  0  0  0
   -0.9421    1.7949    1.2515 H   0  0  0  0  0  0  0  0  0  0  0  0
    0.1740    0.5046    1.9419 H   0  0  0  0  0  0  0  0  0  0  0  0
   -2.2775   -0.6389    1.2664 H   0  0  0  0  0  0  0  0  0  0  0  0
   -1.5739   -1.9374    0.1072 H   0  0  0  0  0  0  0  0  0  0  0  0
   -1.8504   -0.2075   -1.8010 H   0  0  0  0  0  0  0  0  0  0  0  0
   -2.4069    1.0568   -0.5534 H   0  0  0  0  0  0  0  0  0  0  0  0
  1  2  2  0
  2  3  1  0
  3  4  1  0
  4  5  1  0
  3  6  1  0
  6  7  1  0
  6  8  1  0
  8  9  1  0
  7  1  1  0
  5  3  1  0
  9  6  1  0
  1 10  1  0
  2 11  1  0
  4 12  1  0
  4 13  1  0
  7 14  1  0
  7 15  1  0
  8 16  1  0
  8 17  1  0
  9 18  1  0
  9 19  1  0
M  END
