
     RDKit          3D

 19 20  0  0  0  0  0  0  0  0999 V2000
    1.8661   -0.2577   -0.1479 C   0  0  0  0  0  0  0  0  0  0  0  0
    1.0839   -1.3121   -0.2882 C   0  0  0  0  0  0  0  0  0  0  0  0
   -0.4011   -1.3002   -0.2090 C   0  0  0  0  0  0  0  0  0  0  0  0
   -0.8042   -0.9012    1.1746 C   0  0  0  0  0  0  0  0  0  0  0  0
   -1.3215    0.3175    1.1801 C   0  0  0  0  0  0  0  0  0  0  0  0
   -1.0372    0.9554   -0.1299 C   0  0  0  0  0  0  0  0  0  0  0  0
    0.2887    1.6354    0.0004 C   0  0  0  0  0  0  0  0  0  0  0  0
    1.4913    1.1390    0.0624 C   0  0  0  0  0  0  0  0  0  0  0  0
   -0.9111   -0.1971   -1.1062 C   0  0  0  0  0  0  0  0  0  0  0  0
    2.9193   -0.5089   -0.2027 H   0  0  0  0  0  0  0  0  0  0  0  0
    1.5108   -2.2757   -0.4758 H   0  0  0  0  0  0  0  0  0  0  0  0
   -0.8351   -2.2866   -0.4654 H   0  0  0  0  0  0  0  0  0  0  0  0
   -0.6743   -1.5501    2.0327 H   0  0  0  0  0  0  0  0  0  0  0  0
   -1.8701    0.7678    2.0273 H   0  0  0  0  0  0  0  0  0  0  0  0
   -1.8214    1.6623   -0.3763 H   0  0  0  0  0  0  0  0  0  0  0  0
    0.2307    2.7022    0.0500 H   0  0  0  0  0  0  0  0  0  0  0  0
    2.3151    1.8153    0.2928 H   0  0  0  0  0  0  0  0  0  0  0  0
   -0.1654    0.0909   -1.8791 H   0  0  0  0  0  0  0  0  0  0  0  0
   -1.8644   -0.4961   -1.5399 H   0  0  0  0  0  0  0  0  0  0  0  0
  1  2  2  0
  2  3  1  0
  3  4  1  0
  4  5  2  0
  5  6  1  0
  6  7  1  0
  7  8  2  0
  6  9  1  0
  8  1  1  0
  9  3  1  0
  1 10  1  0
  2 11  1  0
  3 12  1  0
  4 13  1  0
  5 14  1  0
  6 15  1  0
  7 16  1  0
  8 17  1  0
  9 18  1  0
  9 19  1  0
M  END
