
     RDKit          2D

 19 21  0  0  0  0  0  0  0  0999 V2000
   -3.3689    0.7500    0.0000 C   0  0  0  0  0  0  0  0  0  0  0  0
   -3.3689   -0.7500    0.0000 C   0  0  0  0  0  0  0  0  0  0  0  0
   -1.9423   -1.2135    0.0000 C   0  0  0  0  0  0  0  0  0  0  0  0
   -1.0607    0.0000    0.0000 C   0  0  0  0  0  0  0  0  0  0  0  0
   -1.9423    1.2135    0.0000 C   0  0  0  0  0  0  0  0  0  0  0  0
   -0.0000   -1.0607    0.0000 C   0  0  0  0  0  0  0  0  0  0  0  0
    0.3607    0.0000    0.0000 C   0  0  0  0  0  0  0  0  0  0  0  0
    0.0000    1.0607    0.0000 C   0  0  0  0  0  0  0  0  0  0  0  0
    0.3393   -0.0000    0.0000 O   0  0  0  0  0  0  0  0  0  0  0  0
   -4.5824    1.6317    0.0000 H   0  0  0  0  0  0  0  0  0  0  0  0
   -4.5824   -1.6317    0.0000 H   0  0  0  0  0  0  0  0  0  0  0  0
   -0.7444   -2.1163    0.0000 H   0  0  0  0  0  0  0  0  0  0  0  0
   -2.5524   -2.5838    0.0000 H   0  0  0  0  0  0  0  0  0  0  0  0
   -2.5524    2.5838    0.0000 H   0  0  0  0  0  0  0  0  0  0  0  0
   -0.7444    2.1163    0.0000 H   0  0  0  0  0  0  0  0  0  0  0  0
    0.1828   -2.5495    0.0000 H   0  0  0  0  0  0  0  0  0  0  0  0
    2.1213    1.0607    0.0000 H   0  0  0  0  0  0  0  0  0  0  0  0
    2.1213   -1.0607    0.0000 H   0  0  0  0  0  0  0  0  0  0  0  0
    0.1828    2.5495    0.0000 H   0  0  0  0  0  0  0  0  0  0  0  0
  1  2  2  0
  2  3  1  0
  3  4  1  0
  4  5  1  0
  4  6  1  0
  6  7  1  0
  7  8  1  0
  8  9  1  0
  5  1  1  0
  9  6  1  0
  8  4  1  0
  1 10  1  0
  2 11  1  0
  3 12  1  0
  3 13  1  0
  5 14  1  0
  5 15  1  0
  6 16  1  0
  7 17  1  0
  7 18  1  0
  8 19  1  0
M  END
