
     RDKit          3D

 19 21  0  0  0  0  0  0  0  0999 V2000
   -1.2739   -1.2826   -0.1734 C   0  0  0  0  0  0  0  0  0  0  0  0
   -0.0331   -1.5039    0.2397 C   0  0  0  0  0  0  0  0  0  0  0  0
    0.9332   -0.3736    0.4494 C   0  0  0  0  0  0  0  0  0  0  0  0
    2.3665   -0.7534    0.1836 C   0  0  0  0  0  0  0  0  0  0  0  0
    1.8366   -0.3725    1.4322 O   0  0  0  0  0  0  0  0  0  0  0  0
    0.4143    0.7766   -0.2897 C   0  0  0  0  0  0  0  0  0  0  0  0
   -0.1264    2.0344    0.0725 C   0  0  0  0  0  0  0  0  0  0  0  0
   -1.0099    0.9762    0.3521 C   0  0  0  0  0  0  0  0  0  0  0  0
   -1.8356    0.0725   -0.4683 C   0  0  0  0  0  0  0  0  0  0  0  0
   -1.9114   -2.1473   -0.3017 H   0  0  0  0  0  0  0  0  0  0  0  0
    0.3288   -2.5279    0.4436 H   0  0  0  0  0  0  0  0  0  0  0  0
    2.9886   -0.0386   -0.3678 H   0  0  0  0  0  0  0  0  0  0  0  0
    2.6313   -1.8173    0.0240 H   0  0  0  0  0  0  0  0  0  0  0  0
    0.4250    0.5531   -1.4017 H   0  0  0  0  0  0  0  0  0  0  0  0
    0.3429    2.5886    0.9295 H   0  0  0  0  0  0  0  0  0  0  0  0
   -0.3626    2.7777   -0.7365 H   0  0  0  0  0  0  0  0  0  0  0  0
   -1.0982    0.6722    1.4410 H   0  0  0  0  0  0  0  0  0  0  0  0
   -1.6931    0.2515   -1.5677 H   0  0  0  0  0  0  0  0  0  0  0  0
   -2.9231    0.1144   -0.2611 H   0  0  0  0  0  0  0  0  0  0  0  0
  1  2  2  0
  2  3  1  0
  3  4  1  0
  4  5  1  0
  3  6  1  0
  6  7  1  0
  7  8  1  0
  8  9  1  0
  9  1  1  0
  5  3  1  0
  8  6  1  0
  1 10  1  0
  2 11  1  0
  4 12  1  0
  4 13  1  0
  6 14  1  0
  7 15  1  0
  7 16  1  0
  8 17  1  0
  9 18  1  0
  9 19  1  0
M  END
