
     RDKit          3D

 20 21  0  0  0  0  0  0  0  0999 V2000
   -1.1323    1.1750   -0.8384 C   0  0  0  0  0  0  0  0  0  0  0  0
    0.0508    0.6260   -0.6074 C   0  0  0  0  0  0  0  0  0  0  0  0
    1.5108    0.8660   -0.7018 C   0  0  0  0  0  0  0  0  0  0  0  0
    2.0974   -0.1196    0.2840 C   0  0  0  0  0  0  0  0  0  0  0  0
    0.9417   -0.7971    0.9885 C   0  0  0  0  0  0  0  0  0  0  0  0
   -0.1465   -0.7542   -0.0344 C   0  0  0  0  0  0  0  0  0  0  0  0
   -1.5048   -0.5997    0.6300 C   0  0  0  0  0  0  0  0  0  0  0  0
   -2.2201    0.2263   -0.4494 C   0  0  0  0  0  0  0  0  0  0  0  0
   -1.3218    2.1618   -1.2473 H   0  0  0  0  0  0  0  0  0  0  0  0
    1.8191    1.8775   -0.4346 H   0  0  0  0  0  0  0  0  0  0  0  0
    1.8439    0.6697   -1.7434 H   0  0  0  0  0  0  0  0  0  0  0  0
    2.7134    0.3687    1.0658 H   0  0  0  0  0  0  0  0  0  0  0  0
    2.6305   -0.8891   -0.2832 H   0  0  0  0  0  0  0  0  0  0  0  0
    1.2352   -1.8157    1.2887 H   0  0  0  0  0  0  0  0  0  0  0  0
    0.6215   -0.1934    1.8620 H   0  0  0  0  0  0  0  0  0  0  0  0
   -0.1145   -1.5340   -0.7902 H   0  0  0  0  0  0  0  0  0  0  0  0
   -1.3983   -0.0321    1.5543 H   0  0  0  0  0  0  0  0  0  0  0  0
   -2.0228   -1.5574    0.7524 H   0  0  0  0  0  0  0  0  0  0  0  0
   -2.5157   -0.4210   -1.2818 H   0  0  0  0  0  0  0  0  0  0  0  0
   -3.0875    0.7425   -0.0138 H   0  0  0  0  0  0  0  0  0  0  0  0
  1  2  2  0
  2  3  1  0
  3  4  1  0
  4  5  1  0
  5  6  1  0
  6  7  1  0
  7  8  1  0
  8  1  1  0
  6  2  1  0
  1  9  1  0
  3 10  1  0
  3 11  1  0
  4 12  1  0
  4 13  1  0
  5 14  1  0
  5 15  1  0
  6 16  1  0
  7 17  1  0
  7 18  1  0
  8 19  1  0
  8 20  1  0
M  END
