
     RDKit          3D

 21 23  0  0  0  0  0  0  0  0999 V2000
    2.1116   -1.1563    0.1445 C   0  0  0  0  0  0  0  0  0  0  0  0
    2.3974    0.1371    0.0973 C   0  0  0  0  0  0  0  0  0  0  0  0
    1.1663    0.9517   -0.1006 C   0  0  0  0  0  0  0  0  0  0  0  0
    0.0382   -0.0051   -0.0218 C   0  0  0  0  0  0  0  0  0  0  0  0
    0.6309   -1.3656   -0.0190 C   0  0  0  0  0  0  0  0  0  0  0  0
   -1.1318    0.2174   -0.9251 C   0  0  0  0  0  0  0  0  0  0  0  0
   -1.9148   -0.6142    0.0691 C   0  0  0  0  0  0  0  0  0  0  0  0
   -1.0687    0.2836    0.9278 C   0  0  0  0  0  0  0  0  0  0  0  0
   -1.4777    1.3776   -0.0453 C   0  0  0  0  0  0  0  0  0  0  0  0
    2.8462   -1.9426    0.2814 H   0  0  0  0  0  0  0  0  0  0  0  0
    3.4139    0.5349    0.1936 H   0  0  0  0  0  0  0  0  0  0  0  0
    1.1407    1.7499    0.6729 H   0  0  0  0  0  0  0  0  0  0  0  0
    1.2435    1.3832   -1.1260 H   0  0  0  0  0  0  0  0  0  0  0  0
    0.5156   -1.8651   -1.0142 H   0  0  0  0  0  0  0  0  0  0  0  0
    0.3056   -2.0144    0.8118 H   0  0  0  0  0  0  0  0  0  0  0  0
   -1.1770    0.1536   -1.9201 H   0  0  0  0  0  0  0  0  0  0  0  0
   -1.6866   -1.6786    0.0996 H   0  0  0  0  0  0  0  0  0  0  0  0
   -2.9696   -0.3155    0.0873 H   0  0  0  0  0  0  0  0  0  0  0  0
   -1.0605    0.3546    1.9213 H   0  0  0  0  0  0  0  0  0  0  0  0
   -0.7783    2.2052   -0.1588 H   0  0  0  0  0  0  0  0  0  0  0  0
   -2.5449    1.6086    0.0242 H   0  0  0  0  0  0  0  0  0  0  0  0
  1  2  2  0
  2  3  1  0
  3  4  1  0
  4  5  1  0
  4  6  1  0
  6  7  1  0
  7  8  1  0
  8  9  1  0
  5  1  1  0
  9  6  1  0
  8  4  1  0
  1 10  1  0
  2 11  1  0
  3 12  1  0
  3 13  1  0
  5 14  1  0
  5 15  1  0
  6 16  1  0
  7 17  1  0
  7 18  1  0
  8 19  1  0
  9 20  1  0
  9 21  1  0
M  END
