
     RDKit          3D

 21 22  0  0  0  0  0  0  0  0999 V2000
    2.0676    0.1447    0.2031 C   0  0  0  0  0  0  0  0  0  0  0  0
    1.7914   -1.1132    0.5002 C   0  0  0  0  0  0  0  0  0  0  0  0
    0.4414   -1.7079    0.5584 C   0  0  0  0  0  0  0  0  0  0  0  0
   -0.4580   -0.8190    1.0806 O   0  0  0  0  0  0  0  0  0  0  0  0
   -0.8525    0.0550    0.0887 C   0  0  0  0  0  0  0  0  0  0  0  0
   -0.1251    1.3408    0.2027 C   0  0  0  0  0  0  0  0  0  0  0  0
    1.2995    1.3352   -0.1476 C   0  0  0  0  0  0  0  0  0  0  0  0
   -1.5434   -0.4094   -1.1084 C   0  0  0  0  0  0  0  0  0  0  0  0
   -2.3773    0.1982   -0.0290 C   0  0  0  0  0  0  0  0  0  0  0  0
    3.1578    0.3311    0.2297 H   0  0  0  0  0  0  0  0  0  0  0  0
    2.6154   -1.7699    0.7206 H   0  0  0  0  0  0  0  0  0  0  0  0
    0.1484   -1.9826   -0.4735 H   0  0  0  0  0  0  0  0  0  0  0  0
    0.4948   -2.6425    1.1505 H   0  0  0  0  0  0  0  0  0  0  0  0
   -0.6479    2.1102   -0.4375 H   0  0  0  0  0  0  0  0  0  0  0  0
   -0.2539    1.7289    1.2481 H   0  0  0  0  0  0  0  0  0  0  0  0
    1.4155    1.5447   -1.2320 H   0  0  0  0  0  0  0  0  0  0  0  0
    1.7935    2.2156    0.3611 H   0  0  0  0  0  0  0  0  0  0  0  0
   -1.6671   -1.4981   -1.2675 H   0  0  0  0  0  0  0  0  0  0  0  0
   -1.5012    0.1696   -2.0522 H   0  0  0  0  0  0  0  0  0  0  0  0
   -2.7871    1.2083   -0.1939 H   0  0  0  0  0  0  0  0  0  0  0  0
   -3.0117   -0.4396    0.5980 H   0  0  0  0  0  0  0  0  0  0  0  0
  1  2  2  0
  2  3  1  0
  3  4  1  0
  4  5  1  0
  5  6  1  0
  6  7  1  0
  5  8  1  0
  8  9  1  0
  7  1  1  0
  9  5  1  0
  1 10  1  0
  2 11  1  0
  3 12  1  0
  3 13  1  0
  6 14  1  0
  6 15  1  0
  7 16  1  0
  7 17  1  0
  8 18  1  0
  8 19  1  0
  9 20  1  0
  9 21  1  0
M  END
