
     RDKit          3D

 19 21  0  0  0  0  0  0  0  0999 V2000
    2.0833    0.8765   -0.3478 C   0  0  0  0  0  0  0  0  0  0  0  0
    0.7650    0.9708   -0.4566 C   0  0  0  0  0  0  0  0  0  0  0  0
    0.1782   -0.2608    0.0961 C   0  0  0  0  0  0  0  0  0  0  0  0
   -0.7439   -0.9909   -0.8596 C   0  0  0  0  0  0  0  0  0  0  0  0
   -1.9552   -0.4909   -0.1487 C   0  0  0  0  0  0  0  0  0  0  0  0
   -2.0585    0.8828    0.3780 C   0  0  0  0  0  0  0  0  0  0  0  0
   -1.0245   -0.0045    0.9728 C   0  0  0  0  0  0  0  0  0  0  0  0
    1.1828   -1.0085    0.6453 O   0  0  0  0  0  0  0  0  0  0  0  0
    2.3939   -0.4473    0.2922 C   0  0  0  0  0  0  0  0  0  0  0  0
    2.8515    1.5673   -0.6364 H   0  0  0  0  0  0  0  0  0  0  0  0
    0.2401    1.8165   -0.8813 H   0  0  0  0  0  0  0  0  0  0  0  0
   -0.6593   -0.6743   -1.9030 H   0  0  0  0  0  0  0  0  0  0  0  0
   -0.6226   -2.0929   -0.7199 H   0  0  0  0  0  0  0  0  0  0  0  0
   -2.7564   -1.1930    0.0984 H   0  0  0  0  0  0  0  0  0  0  0  0
   -2.9113    1.1095    1.0241 H   0  0  0  0  0  0  0  0  0  0  0  0
   -1.7095    1.7382   -0.2321 H   0  0  0  0  0  0  0  0  0  0  0  0
   -1.1699   -0.5520    1.9035 H   0  0  0  0  0  0  0  0  0  0  0  0
    2.9474   -0.2182    1.2135 H   0  0  0  0  0  0  0  0  0  0  0  0
    2.9689   -1.0283   -0.4385 H   0  0  0  0  0  0  0  0  0  0  0  0
  1  2  2  0
  2  3  1  0
  3  4  1  0
  4  5  1  0
  5  6  1  0
  6  7  1  0
  3  8  1  0
  8  9  1  0
  9  1  1  0
  7  3  1  0
  7  5  1  0
  1 10  1  0
  2 11  1  0
  4 12  1  0
  4 13  1  0
  5 14  1  0
  6 15  1  0
  6 16  1  0
  7 17  1  0
  9 18  1  0
  9 19  1  0
M  END
