
     RDKit          3D

 18 20  0  0  0  0  0  0  0  0999 V2000
   -1.2902    0.1687   -1.1803 C   0  0  0  0  0  0  0  0  0  0  0  0
   -0.0337    0.0162   -0.9269 C   0  0  0  0  0  0  0  0  0  0  0  0
    0.1075    0.2724    0.5777 C   0  0  0  0  0  0  0  0  0  0  0  0
   -1.2122   -0.1248    1.1094 C   0  0  0  0  0  0  0  0  0  0  0  0
   -2.1293    0.5157    0.0279 C   0  0  0  0  0  0  0  0  0  0  0  0
    1.2789   -0.6132    0.4744 C   0  0  0  0  0  0  0  0  0  0  0  0
    2.4511    0.1122   -0.1068 C   0  0  0  0  0  0  0  0  0  0  0  0
    1.4275   -0.2635   -1.0585 C   0  0  0  0  0  0  0  0  0  0  0  0
   -1.7872    0.0712   -2.1670 H   0  0  0  0  0  0  0  0  0  0  0  0
    0.3531    1.3399    0.7790 H   0  0  0  0  0  0  0  0  0  0  0  0
   -1.4825    0.3565    2.0691 H   0  0  0  0  0  0  0  0  0  0  0  0
   -1.3263   -1.2013    1.1431 H   0  0  0  0  0  0  0  0  0  0  0  0
   -2.2633    1.5768    0.1773 H   0  0  0  0  0  0  0  0  0  0  0  0
   -3.0355   -0.1147    0.0297 H   0  0  0  0  0  0  0  0  0  0  0  0
    1.2666   -1.6781    0.6526 H   0  0  0  0  0  0  0  0  0  0  0  0
    3.3904   -0.4731   -0.0571 H   0  0  0  0  0  0  0  0  0  0  0  0
    2.5803    1.1755    0.1752 H   0  0  0  0  0  0  0  0  0  0  0  0
    1.7046   -1.1364   -1.7190 H   0  0  0  0  0  0  0  0  0  0  0  0
  1  2  2  0
  2  3  1  0
  3  4  1  0
  4  5  1  0
  3  6  1  0
  6  7  1  0
  7  8  1  0
  5  1  1  0
  8  6  1  0
  8  2  1  0
  1  9  1  0
  3 10  1  0
  4 11  1  0
  4 12  1  0
  5 13  1  0
  5 14  1  0
  6 15  1  0
  7 16  1  0
  7 17  1  0
  8 18  1  0
M  END
