
     RDKit          3D

 21 22  0  0  0  0  0  0  0  0999 V2000
    2.4015    0.1697    0.0081 C   0  0  0  0  0  0  0  0  0  0  0  0
    1.9003    0.4898   -1.1429 C   0  0  0  0  0  0  0  0  0  0  0  0
    0.4786    0.7280   -1.3510 C   0  0  0  0  0  0  0  0  0  0  0  0
   -0.3983    0.7536   -0.1649 C   0  0  0  0  0  0  0  0  0  0  0  0
   -1.7252    0.1191   -0.5289 C   0  0  0  0  0  0  0  0  0  0  0  0
   -2.7506    0.0126    0.4190 C   0  0  0  0  0  0  0  0  0  0  0  0
   -2.8483    1.0070   -0.6803 O   0  0  0  0  0  0  0  0  0  0  0  0
    0.1202    0.0689    1.0524 C   0  0  0  0  0  0  0  0  0  0  0  0
    1.5835    0.0187    1.2036 C   0  0  0  0  0  0  0  0  0  0  0  0
    3.4829   -0.0058    0.1397 H   0  0  0  0  0  0  0  0  0  0  0  0
    2.5630    0.5865   -1.9932 H   0  0  0  0  0  0  0  0  0  0  0  0
    0.3973    1.7052   -1.9184 H   0  0  0  0  0  0  0  0  0  0  0  0
    0.1390   -0.0250   -2.1268 H   0  0  0  0  0  0  0  0  0  0  0  0
   -0.6166    1.8212    0.0924 H   0  0  0  0  0  0  0  0  0  0  0  0
   -1.6918   -0.5938   -1.4050 H   0  0  0  0  0  0  0  0  0  0  0  0
   -2.7044    0.4912    1.4134 H   0  0  0  0  0  0  0  0  0  0  0  0
   -3.5483   -0.7781    0.3024 H   0  0  0  0  0  0  0  0  0  0  0  0
   -0.3159    0.5752    1.9478 H   0  0  0  0  0  0  0  0  0  0  0  0
   -0.3062   -0.9774    1.0982 H   0  0  0  0  0  0  0  0  0  0  0  0
    1.9567    0.7802    1.9527 H   0  0  0  0  0  0  0  0  0  0  0  0
    1.8824   -0.9625    1.6816 H   0  0  0  0  0  0  0  0  0  0  0  0
  1  2  2  0
  2  3  1  0
  3  4  1  0
  4  5  1  0
  5  6  1  0
  6  7  1  0
  4  8  1  0
  8  9  1  0
  9  1  1  0
  7  5  1  0
  1 10  1  0
  2 11  1  0
  3 12  1  0
  3 13  1  0
  4 14  1  0
  5 15  1  0
  6 16  1  0
  6 17  1  0
  8 18  1  0
  8 19  1  0
  9 20  1  0
  9 21  1  0
M  END
