
     RDKit          3D

 23 24  0  0  0  0  0  0  0  0999 V2000
   -0.9646    1.7604   -0.1891 C   0  0  0  0  0  0  0  0  0  0  0  0
    0.3462    1.7287   -0.0056 C   0  0  0  0  0  0  0  0  0  0  0  0
    1.2929    0.7238    0.4853 C   0  0  0  0  0  0  0  0  0  0  0  0
    2.5078    0.2929   -0.1966 C   0  0  0  0  0  0  0  0  0  0  0  0
    1.2907   -0.4044   -0.5684 C   0  0  0  0  0  0  0  0  0  0  0  0
    0.7158   -1.6002    0.0831 C   0  0  0  0  0  0  0  0  0  0  0  0
   -0.6932   -1.3121    0.6225 C   0  0  0  0  0  0  0  0  0  0  0  0
   -1.5647   -0.6537   -0.4003 C   0  0  0  0  0  0  0  0  0  0  0  0
   -2.0461    0.7320    0.0444 C   0  0  0  0  0  0  0  0  0  0  0  0
   -1.3585    2.7072   -0.5862 H   0  0  0  0  0  0  0  0  0  0  0  0
    0.8346    2.6484   -0.2772 H   0  0  0  0  0  0  0  0  0  0  0  0
    1.0887    0.4290    1.5517 H   0  0  0  0  0  0  0  0  0  0  0  0
    3.2642   -0.2265    0.4380 H   0  0  0  0  0  0  0  0  0  0  0  0
    2.9670    0.9767   -0.9202 H   0  0  0  0  0  0  0  0  0  0  0  0
    0.8704   -0.1799   -1.5704 H   0  0  0  0  0  0  0  0  0  0  0  0
    1.3248   -1.9083    0.9364 H   0  0  0  0  0  0  0  0  0  0  0  0
    0.6334   -2.4161   -0.6715 H   0  0  0  0  0  0  0  0  0  0  0  0
   -1.1101   -2.3258    0.8772 H   0  0  0  0  0  0  0  0  0  0  0  0
   -0.6393   -0.7708    1.5847 H   0  0  0  0  0  0  0  0  0  0  0  0
   -2.5182   -1.2430   -0.5406 H   0  0  0  0  0  0  0  0  0  0  0  0
   -1.1157   -0.6098   -1.4149 H   0  0  0  0  0  0  0  0  0  0  0  0
   -2.9771    0.9990   -0.4476 H   0  0  0  0  0  0  0  0  0  0  0  0
   -2.1492    0.6526    1.1653 H   0  0  0  0  0  0  0  0  0  0  0  0
  1  2  2  3
  2  3  1  0
  3  4  1  0
  4  5  1  0
  5  6  1  0
  6  7  1  0
  7  8  1  0
  8  9  1  0
  9  1  1  0
  5  3  1  0
  1 10  1  0
  2 11  1  0
  3 12  1  0
  4 13  1  0
  4 14  1  0
  5 15  1  0
  6 16  1  0
  6 17  1  0
  7 18  1  0
  7 19  1  0
  8 20  1  0
  8 21  1  0
  9 22  1  0
  9 23  1  0
M  END
