
     RDKit          3D

 16 18  0  0  0  0  0  0  0  0999 V2000
    0.1279   -0.4693    1.4829 C   0  0  0  0  0  0  0  0  0  0  0  0
   -0.6217    0.6120    1.2747 C   0  0  0  0  0  0  0  0  0  0  0  0
   -0.8600    0.7469   -0.1877 C   0  0  0  0  0  0  0  0  0  0  0  0
   -0.8961   -0.7463   -0.5699 C   0  0  0  0  0  0  0  0  0  0  0  0
    0.4378   -1.0469    0.1371 C   0  0  0  0  0  0  0  0  0  0  0  0
    1.3443   -0.0825   -0.5595 C   0  0  0  0  0  0  0  0  0  0  0  0
    1.5967    1.1711   -0.0176 O   0  0  0  0  0  0  0  0  0  0  0  0
    0.4528    1.1402   -0.8096 C   0  0  0  0  0  0  0  0  0  0  0  0
    0.4700   -0.8859    2.4209 H   0  0  0  0  0  0  0  0  0  0  0  0
   -0.9727    1.2506    2.0620 H   0  0  0  0  0  0  0  0  0  0  0  0
   -1.7220    1.2940   -0.4825 H   0  0  0  0  0  0  0  0  0  0  0  0
   -0.8324   -0.8920   -1.6441 H   0  0  0  0  0  0  0  0  0  0  0  0
   -1.7352   -1.2494   -0.0758 H   0  0  0  0  0  0  0  0  0  0  0  0
    0.7116   -2.0759    0.1305 H   0  0  0  0  0  0  0  0  0  0  0  0
    1.9939   -0.4176   -1.3939 H   0  0  0  0  0  0  0  0  0  0  0  0
    0.5050    1.6511   -1.7677 H   0  0  0  0  0  0  0  0  0  0  0  0
  1  2  2  0
  2  3  1  0
  3  4  1  0
  4  5  1  0
  5  6  1  0
  6  7  1  0
  7  8  1  0
  5  1  1  0
  8  6  1  0
  8  3  1  0
  1  9  1  0
  2 10  1  0
  3 11  1  0
  4 12  1  0
  4 13  1  0
  5 14  1  0
  6 15  1  0
  8 16  1  0
M  END
