
     RDKit          3D

 17 19  0  0  0  0  0  0  0  0999 V2000
    2.0187   -0.3625   -0.1255 C   0  0  0  0  0  0  0  0  0  0  0  0
    1.2392   -1.3019    0.4018 C   0  0  0  0  0  0  0  0  0  0  0  0
   -0.1299   -0.8267    0.3565 C   0  0  0  0  0  0  0  0  0  0  0  0
   -0.5104   -1.0011   -1.1036 O   0  0  0  0  0  0  0  0  0  0  0  0
   -1.3742   -1.0201    0.0478 C   0  0  0  0  0  0  0  0  0  0  0  0
   -2.1133    0.3061    0.0122 C   0  0  0  0  0  0  0  0  0  0  0  0
   -1.2088    1.2354    0.3004 C   0  0  0  0  0  0  0  0  0  0  0  0
    0.1029    0.6870    0.5396 C   0  0  0  0  0  0  0  0  0  0  0  0
    1.1343    0.8103   -0.5477 C   0  0  0  0  0  0  0  0  0  0  0  0
    3.0895   -0.3370   -0.2732 H   0  0  0  0  0  0  0  0  0  0  0  0
    1.6086   -2.2335    0.7813 H   0  0  0  0  0  0  0  0  0  0  0  0
   -2.0457   -1.9114    0.0047 H   0  0  0  0  0  0  0  0  0  0  0  0
   -3.1714    0.4441   -0.2075 H   0  0  0  0  0  0  0  0  0  0  0  0
   -1.4765    2.2977    0.3412 H   0  0  0  0  0  0  0  0  0  0  0  0
    0.5143    0.8732    1.5494 H   0  0  0  0  0  0  0  0  0  0  0  0
    0.6391    0.5965   -1.5101 H   0  0  0  0  0  0  0  0  0  0  0  0
    1.6836    1.7438   -0.5675 H   0  0  0  0  0  0  0  0  0  0  0  0
  1  2  2  0
  2  3  1  0
  3  4  1  0
  4  5  1  0
  5  6  1  0
  6  7  2  0
  7  8  1  0
  8  9  1  0
  9  1  1  0
  5  3  1  0
  8  3  1  0
  1 10  1  0
  2 11  1  0
  5 12  1  0
  6 13  1  0
  7 14  1  0
  8 15  1  0
  9 16  1  0
  9 17  1  0
M  END
