
     RDKit          3D

 21 23  0  0  0  0  0  0  0  0999 V2000
    1.4102    1.0116    0.3935 C   0  0  0  0  0  0  0  0  0  0  0  0
    0.2585    1.6747    0.5556 C   0  0  0  0  0  0  0  0  0  0  0  0
   -1.0737    1.0175    0.2632 C   0  0  0  0  0  0  0  0  0  0  0  0
   -1.0736   -0.2385    1.0963 C   0  0  0  0  0  0  0  0  0  0  0  0
   -0.5428   -1.3590    0.3226 C   0  0  0  0  0  0  0  0  0  0  0  0
    0.7032   -1.2677   -0.3880 C   0  0  0  0  0  0  0  0  0  0  0  0
    1.7553   -0.3459    0.0177 C   0  0  0  0  0  0  0  0  0  0  0  0
   -0.4627   -0.8787   -1.0952 C   0  0  0  0  0  0  0  0  0  0  0  0
   -0.9313    0.5009   -1.1609 C   0  0  0  0  0  0  0  0  0  0  0  0
    2.3023    1.6365    0.5894 H   0  0  0  0  0  0  0  0  0  0  0  0
    0.2644    2.6803    0.8947 H   0  0  0  0  0  0  0  0  0  0  0  0
   -1.9181    1.6740    0.4209 H   0  0  0  0  0  0  0  0  0  0  0  0
   -0.5319   -0.0745    2.0726 H   0  0  0  0  0  0  0  0  0  0  0  0
   -2.1278   -0.4409    1.3800 H   0  0  0  0  0  0  0  0  0  0  0  0
   -1.0189   -2.3631    0.5288 H   0  0  0  0  0  0  0  0  0  0  0  0
    1.1436   -2.2758   -0.6878 H   0  0  0  0  0  0  0  0  0  0  0  0
    2.5243   -0.2831   -0.8090 H   0  0  0  0  0  0  0  0  0  0  0  0
    2.3351   -0.8030    0.8739 H   0  0  0  0  0  0  0  0  0  0  0  0
   -0.9402   -1.5796   -1.8284 H   0  0  0  0  0  0  0  0  0  0  0  0
   -1.8820    0.5900   -1.6955 H   0  0  0  0  0  0  0  0  0  0  0  0
   -0.1938    1.1243   -1.7444 H   0  0  0  0  0  0  0  0  0  0  0  0
  1  2  2  0
  2  3  1  0
  3  4  1  0
  4  5  1  0
  5  6  1  0
  6  7  1  0
  6  8  1  0
  8  9  1  0
  7  1  1  0
  9  3  1  0
  8  5  1  0
  1 10  1  0
  2 11  1  0
  3 12  1  0
  4 13  1  0
  4 14  1  0
  5 15  1  0
  6 16  1  0
  7 17  1  0
  7 18  1  0
  8 19  1  0
  9 20  1  0
  9 21  1  0
M  END
