
     RDKit          3D

 19 20  0  0  0  0  0  0  0  0999 V2000
    1.9614    0.7018   -0.5504 C   0  0  0  0  0  0  0  0  0  0  0  0
    1.0365    1.3677    0.1156 C   0  0  0  0  0  0  0  0  0  0  0  0
   -0.1041    0.6484    0.7538 C   0  0  0  0  0  0  0  0  0  0  0  0
   -1.3578    1.1516    0.1426 C   0  0  0  0  0  0  0  0  0  0  0  0
   -2.1975    0.1992   -0.2019 C   0  0  0  0  0  0  0  0  0  0  0  0
   -1.6131   -1.1040    0.1376 C   0  0  0  0  0  0  0  0  0  0  0  0
   -0.1486   -0.8189    0.3257 C   0  0  0  0  0  0  0  0  0  0  0  0
    0.4906   -1.0430   -0.8803 O   0  0  0  0  0  0  0  0  0  0  0  0
    1.8591   -0.7705   -0.6607 C   0  0  0  0  0  0  0  0  0  0  0  0
    2.7843    1.2192   -1.0109 H   0  0  0  0  0  0  0  0  0  0  0  0
    1.0931    2.4679    0.2098 H   0  0  0  0  0  0  0  0  0  0  0  0
   -0.0864    0.7414    1.8570 H   0  0  0  0  0  0  0  0  0  0  0  0
   -1.5563    2.2131   -0.0037 H   0  0  0  0  0  0  0  0  0  0  0  0
   -3.1981    0.3278   -0.6765 H   0  0  0  0  0  0  0  0  0  0  0  0
   -1.7849   -1.8773   -0.6368 H   0  0  0  0  0  0  0  0  0  0  0  0
   -2.0684   -1.5275    1.0806 H   0  0  0  0  0  0  0  0  0  0  0  0
    0.3107   -1.4694    1.1113 H   0  0  0  0  0  0  0  0  0  0  0  0
    2.0914   -1.2224    0.3366 H   0  0  0  0  0  0  0  0  0  0  0  0
    2.4881   -1.2051   -1.4493 H   0  0  0  0  0  0  0  0  0  0  0  0
  1  2  2  0
  2  3  1  0
  3  4  1  0
  4  5  2  0
  5  6  1  0
  6  7  1  0
  7  8  1  0
  8  9  1  0
  9  1  1  0
  7  3  1  0
  1 10  1  0
  2 11  1  0
  3 12  1  0
  4 13  1  0
  5 14  1  0
  6 15  1  0
  6 16  1  0
  7 17  1  0
  9 18  1  0
  9 19  1  0
M  END
