
     RDKit          3D

 18 19  0  0  0  0  0  0  0  0999 V2000
    1.8699    0.6386    0.1920 C   0  0  0  0  0  0  0  0  0  0  0  0
    0.8593    1.2559   -0.3567 C   0  0  0  0  0  0  0  0  0  0  0  0
   -0.3928    0.5412   -0.7036 C   0  0  0  0  0  0  0  0  0  0  0  0
   -1.5220    0.7696    0.2734 C   0  0  0  0  0  0  0  0  0  0  0  0
   -1.8412   -0.7213    0.1288 C   0  0  0  0  0  0  0  0  0  0  0  0
   -0.3813   -0.8918   -0.2964 C   0  0  0  0  0  0  0  0  0  0  0  0
    0.4440   -1.1411    0.7800 O   0  0  0  0  0  0  0  0  0  0  0  0
    1.7659   -0.8179    0.4776 C   0  0  0  0  0  0  0  0  0  0  0  0
    2.8138    1.1285    0.4635 H   0  0  0  0  0  0  0  0  0  0  0  0
    0.9517    2.3117   -0.5566 H   0  0  0  0  0  0  0  0  0  0  0  0
   -0.6637    0.6696   -1.7710 H   0  0  0  0  0  0  0  0  0  0  0  0
   -1.1675    1.0648    1.2705 H   0  0  0  0  0  0  0  0  0  0  0  0
   -2.3068    1.3983   -0.1869 H   0  0  0  0  0  0  0  0  0  0  0  0
   -2.5378   -0.8970   -0.7097 H   0  0  0  0  0  0  0  0  0  0  0  0
   -2.0801   -1.2140    1.0850 H   0  0  0  0  0  0  0  0  0  0  0  0
   -0.3382   -1.6466   -1.1028 H   0  0  0  0  0  0  0  0  0  0  0  0
    2.1598   -1.4214   -0.3668 H   0  0  0  0  0  0  0  0  0  0  0  0
    2.3668   -1.0273    1.3797 H   0  0  0  0  0  0  0  0  0  0  0  0
  1  2  2  0
  2  3  1  0
  3  4  1  0
  4  5  1  0
  5  6  1  0
  6  7  1  0
  7  8  1  0
  8  1  1  0
  6  3  1  0
  1  9  1  0
  2 10  1  0
  3 11  1  0
  4 12  1  0
  4 13  1  0
  5 14  1  0
  5 15  1  0
  6 16  1  0
  8 17  1  0
  8 18  1  0
M  END
