
     RDKit          3D

 19 21  0  0  0  0  0  0  0  0999 V2000
    1.8710    0.3154    0.4280 C   0  0  0  0  0  0  0  0  0  0  0  0
    1.1685    1.1292   -0.3456 C   0  0  0  0  0  0  0  0  0  0  0  0
    0.2826    0.3454   -1.1672 C   0  0  0  0  0  0  0  0  0  0  0  0
   -0.9756   -0.2442   -0.9790 C   0  0  0  0  0  0  0  0  0  0  0  0
   -2.1033    0.4172   -0.1635 C   0  0  0  0  0  0  0  0  0  0  0  0
   -1.3886    0.9754    0.8640 O   0  0  0  0  0  0  0  0  0  0  0  0
   -0.5436   -0.0696    1.2549 C   0  0  0  0  0  0  0  0  0  0  0  0
   -0.0608   -0.7156   -0.0628 C   0  0  0  0  0  0  0  0  0  0  0  0
    1.3788   -1.0864    0.0627 C   0  0  0  0  0  0  0  0  0  0  0  0
    2.6350    0.5294    1.1707 H   0  0  0  0  0  0  0  0  0  0  0  0
    1.2976    2.2067   -0.3076 H   0  0  0  0  0  0  0  0  0  0  0  0
    0.8681   -0.0767   -2.0555 H   0  0  0  0  0  0  0  0  0  0  0  0
   -1.4214   -0.8771   -1.7678 H   0  0  0  0  0  0  0  0  0  0  0  0
   -2.6510    1.1197   -0.7937 H   0  0  0  0  0  0  0  0  0  0  0  0
   -2.8147   -0.3766    0.1544 H   0  0  0  0  0  0  0  0  0  0  0  0
    0.2675    0.3819    1.8199 H   0  0  0  0  0  0  0  0  0  0  0  0
   -1.1422   -0.7834    1.8220 H   0  0  0  0  0  0  0  0  0  0  0  0
    1.5209   -1.7405    0.9238 H   0  0  0  0  0  0  0  0  0  0  0  0
    1.8112   -1.4503   -0.8577 H   0  0  0  0  0  0  0  0  0  0  0  0
  1  2  2  0
  2  3  1  0
  3  4  1  0
  4  5  1  0
  5  6  1  0
  6  7  1  0
  7  8  1  0
  8  9  1  0
  9  1  1  0
  8  3  1  0
  8  4  1  0
  1 10  1  0
  2 11  1  0
  3 12  1  0
  4 13  1  0
  5 14  1  0
  5 15  1  0
  7 16  1  0
  7 17  1  0
  9 18  1  0
  9 19  1  0
M  END
