
     RDKit          3D

 17 19  0  0  0  0  0  0  0  0999 V2000
    1.5845    1.0148    0.6567 C   0  0  0  0  0  0  0  0  0  0  0  0
    2.1683    0.0859   -0.1574 C   0  0  0  0  0  0  0  0  0  0  0  0
    1.0957   -0.8464   -0.6642 C   0  0  0  0  0  0  0  0  0  0  0  0
    0.1706   -1.3797    0.2715 O   0  0  0  0  0  0  0  0  0  0  0  0
   -0.9412   -0.9179   -0.5286 C   0  0  0  0  0  0  0  0  0  0  0  0
   -1.9979   -0.1081    0.2697 C   0  0  0  0  0  0  0  0  0  0  0  0
   -1.0340    0.6066    1.2012 C   0  0  0  0  0  0  0  0  0  0  0  0
    0.1632    0.6676    0.6816 C   0  0  0  0  0  0  0  0  0  0  0  0
   -0.0146    0.2302   -0.7915 C   0  0  0  0  0  0  0  0  0  0  0  0
    2.0059    1.8303    1.1940 H   0  0  0  0  0  0  0  0  0  0  0  0
    3.2199    0.0426   -0.3865 H   0  0  0  0  0  0  0  0  0  0  0  0
    1.2850   -1.3905   -1.5596 H   0  0  0  0  0  0  0  0  0  0  0  0
   -1.2717   -1.5638   -1.2918 H   0  0  0  0  0  0  0  0  0  0  0  0
   -2.5181    0.5708   -0.3983 H   0  0  0  0  0  0  0  0  0  0  0  0
   -2.6340   -0.7819    0.8650 H   0  0  0  0  0  0  0  0  0  0  0  0
   -1.2431    1.0338    2.1764 H   0  0  0  0  0  0  0  0  0  0  0  0
   -0.0384    0.9055   -1.5381 H   0  0  0  0  0  0  0  0  0  0  0  0
  1  2  2  0
  2  3  1  0
  3  4  1  0
  4  5  1  0
  5  6  1  0
  6  7  1  0
  7  8  2  0
  8  9  1  0
  8  1  1  0
  9  3  1  0
  9  5  1  0
  1 10  1  0
  2 11  1  0
  3 12  1  0
  5 13  1  0
  6 14  1  0
  6 15  1  0
  7 16  1  0
  9 17  1  0
M  END
