
     RDKit          3D

 17 19  0  0  0  0  0  0  0  0999 V2000
    1.7001   -0.7936    0.1648 C   0  0  0  0  0  0  0  0  0  0  0  0
    1.6725    0.3188   -0.5489 C   0  0  0  0  0  0  0  0  0  0  0  0
    0.2729    0.8206   -0.5550 C   0  0  0  0  0  0  0  0  0  0  0  0
   -0.2343    1.1089    0.8605 C   0  0  0  0  0  0  0  0  0  0  0  0
   -1.6184    1.0927    0.6087 O   0  0  0  0  0  0  0  0  0  0  0  0
   -1.8173   -0.0822   -0.1554 C   0  0  0  0  0  0  0  0  0  0  0  0
   -0.4654   -0.5371   -0.5895 C   0  0  0  0  0  0  0  0  0  0  0  0
    0.3118   -1.0656    0.6032 C   0  0  0  0  0  0  0  0  0  0  0  0
    0.0234   -0.0729    1.5534 O   0  0  0  0  0  0  0  0  0  0  0  0
    2.5536   -1.3897    0.3885 H   0  0  0  0  0  0  0  0  0  0  0  0
    2.5238    0.7735   -1.0369 H   0  0  0  0  0  0  0  0  0  0  0  0
   -0.0118    1.5017   -1.3057 H   0  0  0  0  0  0  0  0  0  0  0  0
    0.1288    2.0069    1.2924 H   0  0  0  0  0  0  0  0  0  0  0  0
   -2.3575    0.2803   -1.0757 H   0  0  0  0  0  0  0  0  0  0  0  0
   -2.4038   -0.8320    0.3972 H   0  0  0  0  0  0  0  0  0  0  0  0
   -0.3653   -1.0672   -1.4983 H   0  0  0  0  0  0  0  0  0  0  0  0
    0.0869   -2.0631    0.8966 H   0  0  0  0  0  0  0  0  0  0  0  0
  1  2  2  0
  2  3  1  0
  3  4  1  0
  4  5  1  0
  5  6  1  0
  6  7  1  0
  7  8  1  0
  8  9  1  0
  8  1  1  0
  7  3  1  0
  9  4  1  0
  1 10  1  0
  2 11  1  0
  3 12  1  0
  4 13  1  0
  6 14  1  0
  6 15  1  0
  7 16  1  0
  8 17  1  0
M  END
