
     RDKit          3D

 19 20  0  0  0  0  0  0  0  0999 V2000
   -0.6475   -1.2595   -0.5677 C   0  0  0  0  0  0  0  0  0  0  0  0
    0.6621   -1.3405   -0.5249 C   0  0  0  0  0  0  0  0  0  0  0  0
    1.7517   -0.8280    0.2788 C   0  0  0  0  0  0  0  0  0  0  0  0
    1.5784   -0.0993    1.4287 O   0  0  0  0  0  0  0  0  0  0  0  0
    1.9075    0.5989    0.1994 C   0  0  0  0  0  0  0  0  0  0  0  0
    0.7773    1.3746   -0.3654 C   0  0  0  0  0  0  0  0  0  0  0  0
   -0.5375    1.4446   -0.1730 C   0  0  0  0  0  0  0  0  0  0  0  0
   -1.4213    0.7003    0.7638 C   0  0  0  0  0  0  0  0  0  0  0  0
   -1.7350   -0.6200    0.1548 C   0  0  0  0  0  0  0  0  0  0  0  0
   -1.0402   -1.8604   -1.4073 H   0  0  0  0  0  0  0  0  0  0  0  0
    1.0473   -1.9849   -1.3352 H   0  0  0  0  0  0  0  0  0  0  0  0
    2.6957   -1.4406    0.2951 H   0  0  0  0  0  0  0  0  0  0  0  0
    2.9227    1.0422    0.1805 H   0  0  0  0  0  0  0  0  0  0  0  0
    1.1228    2.0572   -1.1313 H   0  0  0  0  0  0  0  0  0  0  0  0
   -1.0139    2.1551   -0.8025 H   0  0  0  0  0  0  0  0  0  0  0  0
   -2.3597    1.2838    0.8509 H   0  0  0  0  0  0  0  0  0  0  0  0
   -0.9772    0.5750    1.7666 H   0  0  0  0  0  0  0  0  0  0  0  0
   -2.1387   -1.3351    0.9303 H   0  0  0  0  0  0  0  0  0  0  0  0
   -2.5947   -0.4632   -0.5417 H   0  0  0  0  0  0  0  0  0  0  0  0
  1  2  2  3
  2  3  1  0
  3  4  1  0
  4  5  1  0
  5  6  1  0
  6  7  2  3
  7  8  1  0
  8  9  1  0
  9  1  1  0
  5  3  1  0
  1 10  1  0
  2 11  1  0
  3 12  1  0
  5 13  1  0
  6 14  1  0
  7 15  1  0
  8 16  1  0
  8 17  1  0
  9 18  1  0
  9 19  1  0
M  END
