
     RDKit          3D

 19 21  0  0  0  0  0  0  0  0999 V2000
   -1.5918    0.5007    0.6898 C   0  0  0  0  0  0  0  0  0  0  0  0
   -1.3499   -0.7348    1.0445 C   0  0  0  0  0  0  0  0  0  0  0  0
   -0.5381   -1.4374    0.0585 C   0  0  0  0  0  0  0  0  0  0  0  0
    0.7443   -1.0354   -0.4802 C   0  0  0  0  0  0  0  0  0  0  0  0
    1.6548   -0.0004    0.0512 C   0  0  0  0  0  0  0  0  0  0  0  0
    1.0897    1.3479    0.3053 C   0  0  0  0  0  0  0  0  0  0  0  0
    0.0499    1.7324   -0.5174 O   0  0  0  0  0  0  0  0  0  0  0  0
   -0.9575    0.7830   -0.6027 C   0  0  0  0  0  0  0  0  0  0  0  0
   -0.5031   -0.5322   -1.1084 C   0  0  0  0  0  0  0  0  0  0  0  0
   -2.1687    1.2618    1.2227 H   0  0  0  0  0  0  0  0  0  0  0  0
   -1.7342   -1.1533    1.9862 H   0  0  0  0  0  0  0  0  0  0  0  0
   -0.8191   -2.5132   -0.0535 H   0  0  0  0  0  0  0  0  0  0  0  0
    1.2747   -1.8047   -1.1097 H   0  0  0  0  0  0  0  0  0  0  0  0
    2.5414    0.1170   -0.6360 H   0  0  0  0  0  0  0  0  0  0  0  0
    2.1044   -0.3927    0.9971 H   0  0  0  0  0  0  0  0  0  0  0  0
    0.8164    1.4225    1.3969 H   0  0  0  0  0  0  0  0  0  0  0  0
    1.8947    2.1030    0.1753 H   0  0  0  0  0  0  0  0  0  0  0  0
   -1.7169    1.1901   -1.3099 H   0  0  0  0  0  0  0  0  0  0  0  0
   -0.7909   -0.8543   -2.1097 H   0  0  0  0  0  0  0  0  0  0  0  0
  1  2  2  0
  2  3  1  0
  3  4  1  0
  4  5  1  0
  5  6  1  0
  6  7  1  0
  7  8  1  0
  8  9  1  0
  8  1  1  0
  9  3  1  0
  9  4  1  0
  1 10  1  0
  2 11  1  0
  3 12  1  0
  4 13  1  0
  5 14  1  0
  5 15  1  0
  6 16  1  0
  6 17  1  0
  8 18  1  0
  9 19  1  0
M  END
