
     RDKit          3D

 18 19  0  0  0  0  0  0  0  0999 V2000
   -2.1761   -0.3550   -0.2721 C   0  0  0  0  0  0  0  0  0  0  0  0
   -1.1786   -1.2449   -0.1416 C   0  0  0  0  0  0  0  0  0  0  0  0
    0.0026   -0.6144    0.4390 C   0  0  0  0  0  0  0  0  0  0  0  0
    1.3194   -0.9704   -0.1493 C   0  0  0  0  0  0  0  0  0  0  0  0
    2.0569    0.3623   -0.0855 C   0  0  0  0  0  0  0  0  0  0  0  0
    0.9513    1.3693   -0.1980 C   0  0  0  0  0  0  0  0  0  0  0  0
   -0.2015    0.8345    0.0918 C   0  0  0  0  0  0  0  0  0  0  0  0
   -1.6918    0.9860    0.2386 C   0  0  0  0  0  0  0  0  0  0  0  0
   -3.1666   -0.5236   -0.6673 H   0  0  0  0  0  0  0  0  0  0  0  0
   -1.3210   -2.2872   -0.4560 H   0  0  0  0  0  0  0  0  0  0  0  0
   -0.0362   -0.6662    1.5403 H   0  0  0  0  0  0  0  0  0  0  0  0
    1.8171   -1.7472    0.4725 H   0  0  0  0  0  0  0  0  0  0  0  0
    1.2577   -1.3634   -1.1841 H   0  0  0  0  0  0  0  0  0  0  0  0
    2.5424    0.5155    0.8790 H   0  0  0  0  0  0  0  0  0  0  0  0
    2.7319    0.3897   -0.9595 H   0  0  0  0  0  0  0  0  0  0  0  0
    1.1030    2.4160   -0.4869 H   0  0  0  0  0  0  0  0  0  0  0  0
   -2.0732    1.8101   -0.3589 H   0  0  0  0  0  0  0  0  0  0  0  0
   -1.9372    1.0889    1.2978 H   0  0  0  0  0  0  0  0  0  0  0  0
  1  2  2  0
  2  3  1  0
  3  4  1  0
  4  5  1  0
  5  6  1  0
  6  7  2  0
  7  8  1  0
  8  1  1  0
  7  3  1  0
  1  9  1  0
  2 10  1  0
  3 11  1  0
  4 12  1  0
  4 13  1  0
  5 14  1  0
  5 15  1  0
  6 16  1  0
  8 17  1  0
  8 18  1  0
M  END
