
     RDKit          3D

 19 21  0  0  0  0  0  0  0  0999 V2000
    1.0492    1.5151    0.3111 C   0  0  0  0  0  0  0  0  0  0  0  0
   -0.2718    1.5834    0.2419 C   0  0  0  0  0  0  0  0  0  0  0  0
   -1.1388    0.4147    0.2538 C   0  0  0  0  0  0  0  0  0  0  0  0
   -1.0446   -0.6868    1.2208 C   0  0  0  0  0  0  0  0  0  0  0  0
   -0.5326   -0.8568   -0.1547 C   0  0  0  0  0  0  0  0  0  0  0  0
    0.9503   -0.8453   -0.3605 C   0  0  0  0  0  0  0  0  0  0  0  0
    1.6824    0.1971    0.4050 C   0  0  0  0  0  0  0  0  0  0  0  0
   -1.3761   -0.6183   -1.3607 C   0  0  0  0  0  0  0  0  0  0  0  0
   -2.1773    0.3167   -0.6733 O   0  0  0  0  0  0  0  0  0  0  0  0
    1.6900    2.4011    0.3012 H   0  0  0  0  0  0  0  0  0  0  0  0
   -0.7126    2.5651    0.1736 H   0  0  0  0  0  0  0  0  0  0  0  0
   -0.3166   -0.7427    2.0279 H   0  0  0  0  0  0  0  0  0  0  0  0
   -2.0184   -1.1912    1.4737 H   0  0  0  0  0  0  0  0  0  0  0  0
    1.3270   -1.8469    0.0051 H   0  0  0  0  0  0  0  0  0  0  0  0
    1.1737   -0.8408   -1.4425 H   0  0  0  0  0  0  0  0  0  0  0  0
    2.7283    0.2369   -0.0035 H   0  0  0  0  0  0  0  0  0  0  0  0
    1.7184   -0.0900    1.4810 H   0  0  0  0  0  0  0  0  0  0  0  0
   -0.7939   -0.0350   -2.1326 H   0  0  0  0  0  0  0  0  0  0  0  0
   -1.9365   -1.4761   -1.7671 H   0  0  0  0  0  0  0  0  0  0  0  0
  1  2  2  0
  2  3  1  0
  3  4  1  0
  4  5  1  0
  5  6  1  0
  6  7  1  0
  5  8  1  0
  8  9  1  0
  7  1  1  0
  5  3  1  0
  9  3  1  0
  1 10  1  0
  2 11  1  0
  4 12  1  0
  4 13  1  0
  6 14  1  0
  6 15  1  0
  7 16  1  0
  7 17  1  0
  8 18  1  0
  8 19  1  0
M  END
