
     RDKit          3D

 17 19  0  0  0  0  0  0  0  0999 V2000
    1.7907    0.3218   -0.7917 C   0  0  0  0  0  0  0  0  0  0  0  0
    0.8303    1.2106   -0.9380 C   0  0  0  0  0  0  0  0  0  0  0  0
   -0.3087    0.9396   -0.0278 C   0  0  0  0  0  0  0  0  0  0  0  0
   -1.6166    0.4793   -0.5150 C   0  0  0  0  0  0  0  0  0  0  0  0
   -1.9190   -0.7481    0.0240 O   0  0  0  0  0  0  0  0  0  0  0  0
   -1.0496   -1.0291    1.0377 C   0  0  0  0  0  0  0  0  0  0  0  0
    0.1680   -0.1497    0.8744 C   0  0  0  0  0  0  0  0  0  0  0  0
    1.3926   -0.6456    0.2390 C   0  0  0  0  0  0  0  0  0  0  0  0
   -0.0272    1.1365    1.3128 O   0  0  0  0  0  0  0  0  0  0  0  0
    2.7583    0.2914   -1.3508 H   0  0  0  0  0  0  0  0  0  0  0  0
    0.8637    2.0434   -1.6392 H   0  0  0  0  0  0  0  0  0  0  0  0
   -1.5769    0.3927   -1.6213 H   0  0  0  0  0  0  0  0  0  0  0  0
   -2.4619    1.1981   -0.3143 H   0  0  0  0  0  0  0  0  0  0  0  0
   -1.4475   -0.8633    2.0478 H   0  0  0  0  0  0  0  0  0  0  0  0
   -0.7450   -2.0995    0.9760 H   0  0  0  0  0  0  0  0  0  0  0  0
    1.1502   -1.6200   -0.2890 H   0  0  0  0  0  0  0  0  0  0  0  0
    2.1986   -0.8580    0.9753 H   0  0  0  0  0  0  0  0  0  0  0  0
  1  2  2  0
  2  3  1  0
  3  4  1  0
  4  5  1  0
  5  6  1  0
  6  7  1  0
  7  8  1  0
  7  9  1  0
  8  1  1  0
  7  3  1  0
  9  3  1  0
  1 10  1  0
  2 11  1  0
  4 12  1  0
  4 13  1  0
  6 14  1  0
  6 15  1  0
  8 16  1  0
  8 17  1  0
M  END
