
     RDKit          3D

 16 17  0  0  0  0  0  0  0  0999 V2000
   -1.9898    0.3376    0.3199 C   0  0  0  0  0  0  0  0  0  0  0  0
   -1.0283    1.1898    0.6283 C   0  0  0  0  0  0  0  0  0  0  0  0
    0.2277    0.8645   -0.0930 C   0  0  0  0  0  0  0  0  0  0  0  0
    1.3719    0.9404    0.6831 O   0  0  0  0  0  0  0  0  0  0  0  0
    2.1629   -0.1499    0.2941 C   0  0  0  0  0  0  0  0  0  0  0  0
    1.1579   -1.1924   -0.0647 C   0  0  0  0  0  0  0  0  0  0  0  0
   -0.0032   -0.6191   -0.2990 C   0  0  0  0  0  0  0  0  0  0  0  0
   -1.4477   -0.6495   -0.6536 C   0  0  0  0  0  0  0  0  0  0  0  0
   -3.0068    0.3637    0.7189 H   0  0  0  0  0  0  0  0  0  0  0  0
   -1.1699    2.0264    1.3347 H   0  0  0  0  0  0  0  0  0  0  0  0
    0.2871    1.3799   -1.0584 H   0  0  0  0  0  0  0  0  0  0  0  0
    2.7330    0.1523   -0.6075 H   0  0  0  0  0  0  0  0  0  0  0  0
    2.7711   -0.4594    1.1410 H   0  0  0  0  0  0  0  0  0  0  0  0
    1.3653   -2.2359   -0.1183 H   0  0  0  0  0  0  0  0  0  0  0  0
   -1.8882   -1.6575   -0.5169 H   0  0  0  0  0  0  0  0  0  0  0  0
   -1.5429   -0.2910   -1.7086 H   0  0  0  0  0  0  0  0  0  0  0  0
  1  2  2  0
  2  3  1  0
  3  4  1  0
  4  5  1  0
  5  6  1  0
  6  7  2  0
  7  8  1  0
  8  1  1  0
  7  3  1  0
  1  9  1  0
  2 10  1  0
  3 11  1  0
  5 12  1  0
  5 13  1  0
  6 14  1  0
  8 15  1  0
  8 16  1  0
M  END
