
     RDKit          3D

 21 23  0  0  0  0  0  0  0  0999 V2000
   -0.6696    1.1643   -1.1763 C   0  0  0  0  0  0  0  0  0  0  0  0
   -1.0424   -0.0696   -1.4975 C   0  0  0  0  0  0  0  0  0  0  0  0
   -0.9349   -1.2163   -0.5554 C   0  0  0  0  0  0  0  0  0  0  0  0
    0.2652   -1.4675    0.2441 C   0  0  0  0  0  0  0  0  0  0  0  0
    1.4985   -0.6837    0.0141 C   0  0  0  0  0  0  0  0  0  0  0  0
    1.3895    0.7795    0.0790 C   0  0  0  0  0  0  0  0  0  0  0  0
    0.0106    1.3405    0.1349 C   0  0  0  0  0  0  0  0  0  0  0  0
   -0.8124    0.6082    1.1675 C   0  0  0  0  0  0  0  0  0  0  0  0
   -0.8697   -0.8375    0.8665 C   0  0  0  0  0  0  0  0  0  0  0  0
   -0.8322    2.0301   -1.8069 H   0  0  0  0  0  0  0  0  0  0  0  0
   -1.4370   -0.2034   -2.4997 H   0  0  0  0  0  0  0  0  0  0  0  0
   -1.6094   -2.0802   -0.7907 H   0  0  0  0  0  0  0  0  0  0  0  0
    0.4588   -2.5497    0.5055 H   0  0  0  0  0  0  0  0  0  0  0  0
    2.2693   -1.0395    0.7601 H   0  0  0  0  0  0  0  0  0  0  0  0
    1.9290   -1.0060   -0.9788 H   0  0  0  0  0  0  0  0  0  0  0  0
    1.9017    1.2453   -0.8132 H   0  0  0  0  0  0  0  0  0  0  0  0
    1.9590    1.1924    0.9601 H   0  0  0  0  0  0  0  0  0  0  0  0
    0.0580    2.4064    0.4347 H   0  0  0  0  0  0  0  0  0  0  0  0
   -1.7998    1.0863    1.1986 H   0  0  0  0  0  0  0  0  0  0  0  0
   -0.2633    0.7371    2.1426 H   0  0  0  0  0  0  0  0  0  0  0  0
   -1.4690   -1.4366    1.6109 H   0  0  0  0  0  0  0  0  0  0  0  0
  1  2  2  0
  2  3  1  0
  3  4  1  0
  4  5  1  0
  5  6  1  0
  6  7  1  0
  7  8  1  0
  8  9  1  0
  7  1  1  0
  9  3  1  0
  9  4  1  0
  1 10  1  0
  2 11  1  0
  3 12  1  0
  4 13  1  0
  5 14  1  0
  5 15  1  0
  6 16  1  0
  6 17  1  0
  7 18  1  0
  8 19  1  0
  8 20  1  0
  9 21  1  0
M  END
