
     RDKit          3D

 19 21  0  0  0  0  0  0  0  0999 V2000
    0.8578    1.6773   -0.1459 C   0  0  0  0  0  0  0  0  0  0  0  0
   -0.4335    1.7032   -0.4344 C   0  0  0  0  0  0  0  0  0  0  0  0
   -1.3131    0.5270   -0.2146 C   0  0  0  0  0  0  0  0  0  0  0  0
   -1.3399   -0.4109   -1.2208 O   0  0  0  0  0  0  0  0  0  0  0  0
   -1.4810   -1.3964   -0.2180 C   0  0  0  0  0  0  0  0  0  0  0  0
   -0.7445   -0.4635    0.7149 C   0  0  0  0  0  0  0  0  0  0  0  0
    0.7211   -0.6566    0.7143 C   0  0  0  0  0  0  0  0  0  0  0  0
    1.5496   -0.6990   -0.5043 C   0  0  0  0  0  0  0  0  0  0  0  0
    1.5594    0.5107    0.4126 C   0  0  0  0  0  0  0  0  0  0  0  0
    1.4266    2.5709   -0.3343 H   0  0  0  0  0  0  0  0  0  0  0  0
   -0.8913    2.6043   -0.8476 H   0  0  0  0  0  0  0  0  0  0  0  0
   -2.3273    0.8565    0.0885 H   0  0  0  0  0  0  0  0  0  0  0  0
   -2.5242   -1.5430    0.1225 H   0  0  0  0  0  0  0  0  0  0  0  0
   -0.9470   -2.3325   -0.4734 H   0  0  0  0  0  0  0  0  0  0  0  0
   -1.1543   -0.3955    1.7383 H   0  0  0  0  0  0  0  0  0  0  0  0
    1.0818   -1.3275    1.5377 H   0  0  0  0  0  0  0  0  0  0  0  0
    1.0373   -0.6501   -1.4702 H   0  0  0  0  0  0  0  0  0  0  0  0
    2.4880   -1.2692   -0.5144 H   0  0  0  0  0  0  0  0  0  0  0  0
    2.4345    0.6943    1.0492 H   0  0  0  0  0  0  0  0  0  0  0  0
  1  2  2  0
  2  3  1  0
  3  4  1  0
  4  5  1  0
  5  6  1  0
  6  7  1  0
  7  8  1  0
  8  9  1  0
  9  1  1  0
  6  3  1  0
  9  7  1  0
  1 10  1  0
  2 11  1  0
  3 12  1  0
  5 13  1  0
  5 14  1  0
  6 15  1  0
  7 16  1  0
  8 17  1  0
  8 18  1  0
  9 19  1  0
M  END
