
     RDKit          3D

 17 18  0  0  0  0  0  0  0  0999 V2000
    1.6413    0.5653    0.0940 C   0  0  0  0  0  0  0  0  0  0  0  0
    0.5739    1.1984    0.5703 C   0  0  0  0  0  0  0  0  0  0  0  0
   -0.5079    0.2518    0.8924 C   0  0  0  0  0  0  0  0  0  0  0  0
   -1.6875    0.4366   -0.0490 C   0  0  0  0  0  0  0  0  0  0  0  0
   -0.7935   -0.2236   -1.1124 C   0  0  0  0  0  0  0  0  0  0  0  0
   -0.1192   -0.9444    0.0467 C   0  0  0  0  0  0  0  0  0  0  0  0
    1.3717   -0.8783    0.0524 C   0  0  0  0  0  0  0  0  0  0  0  0
    2.5922    1.0229   -0.2270 H   0  0  0  0  0  0  0  0  0  0  0  0
    0.5476    2.2748    0.6892 H   0  0  0  0  0  0  0  0  0  0  0  0
   -0.7402    0.0648    1.9344 H   0  0  0  0  0  0  0  0  0  0  0  0
   -2.5007   -0.2534    0.2218 H   0  0  0  0  0  0  0  0  0  0  0  0
   -1.9553    1.4740   -0.2626 H   0  0  0  0  0  0  0  0  0  0  0  0
   -0.0556    0.4774   -1.5546 H   0  0  0  0  0  0  0  0  0  0  0  0
   -1.3548   -0.8530   -1.8007 H   0  0  0  0  0  0  0  0  0  0  0  0
   -0.5890   -1.8935    0.3224 H   0  0  0  0  0  0  0  0  0  0  0  0
    1.8413   -1.3957   -0.8063 H   0  0  0  0  0  0  0  0  0  0  0  0
    1.7356   -1.3241    0.9891 H   0  0  0  0  0  0  0  0  0  0  0  0
  1  2  2  0
  2  3  1  0
  3  4  1  0
  4  5  1  0
  5  6  1  0
  6  7  1  0
  7  1  1  0
  6  3  1  0
  1  8  1  0
  2  9  1  0
  3 10  1  0
  4 11  1  0
  4 12  1  0
  5 13  1  0
  5 14  1  0
  6 15  1  0
  7 16  1  0
  7 17  1  0
M  END
