
     RDKit          3D

 21 23  0  0  0  0  0  0  0  0999 V2000
   -2.6797   -0.0549    0.2283 C   0  0  0  0  0  0  0  0  0  0  0  0
   -1.9480    1.0291    0.0137 C   0  0  0  0  0  0  0  0  0  0  0  0
   -0.6680    0.6038   -0.5057 C   0  0  0  0  0  0  0  0  0  0  0  0
   -0.5507   -0.6644    0.4136 C   0  0  0  0  0  0  0  0  0  0  0  0
   -1.8128   -1.2380   -0.1727 C   0  0  0  0  0  0  0  0  0  0  0  0
    0.5302    0.0696   -0.0479 C   0  0  0  0  0  0  0  0  0  0  0  0
    1.6558   -0.3118   -0.9003 C   0  0  0  0  0  0  0  0  0  0  0  0
    2.6122    0.0601    0.2221 C   0  0  0  0  0  0  0  0  0  0  0  0
    1.4442    0.8505    0.8296 C   0  0  0  0  0  0  0  0  0  0  0  0
   -3.6724   -0.1014    0.6042 H   0  0  0  0  0  0  0  0  0  0  0  0
   -2.2610    2.0798    0.1994 H   0  0  0  0  0  0  0  0  0  0  0  0
   -0.8131    0.3754   -1.6192 H   0  0  0  0  0  0  0  0  0  0  0  0
   -0.7557   -0.4836    1.5190 H   0  0  0  0  0  0  0  0  0  0  0  0
   -2.1507   -2.1649    0.2772 H   0  0  0  0  0  0  0  0  0  0  0  0
   -1.7872   -1.3403   -1.2729 H   0  0  0  0  0  0  0  0  0  0  0  0
    1.7150   -1.4305   -1.0408 H   0  0  0  0  0  0  0  0  0  0  0  0
    1.8197    0.1931   -1.8545 H   0  0  0  0  0  0  0  0  0  0  0  0
    2.9561   -0.7823    0.8412 H   0  0  0  0  0  0  0  0  0  0  0  0
    3.4621    0.6789   -0.0938 H   0  0  0  0  0  0  0  0  0  0  0  0
    1.3686    0.7285    1.9068 H   0  0  0  0  0  0  0  0  0  0  0  0
    1.5352    1.9031    0.4528 H   0  0  0  0  0  0  0  0  0  0  0  0
  1  2  2  0
  2  3  1  0
  3  4  1  0
  4  5  1  0
  4  6  1  0
  6  7  1  0
  7  8  1  0
  8  9  1  0
  5  1  1  0
  9  6  1  0
  6  3  1  0
  1 10  1  0
  2 11  1  0
  3 12  1  0
  4 13  1  0
  5 14  1  0
  5 15  1  0
  7 16  1  0
  7 17  1  0
  8 18  1  0
  8 19  1  0
  9 20  1  0
  9 21  1  0
M  END
