
     RDKit          3D

 19 21  0  0  0  0  0  0  0  0999 V2000
    1.2154    1.3240   -0.0061 C   0  0  0  0  0  0  0  0  0  0  0  0
   -0.0145    1.4566    0.4484 C   0  0  0  0  0  0  0  0  0  0  0  0
   -0.9247    0.3256    0.4390 C   0  0  0  0  0  0  0  0  0  0  0  0
   -2.0629    0.2557   -0.5774 C   0  0  0  0  0  0  0  0  0  0  0  0
   -1.4513   -0.9081   -1.0734 O   0  0  0  0  0  0  0  0  0  0  0  0
   -0.4653   -0.9239   -0.1166 C   0  0  0  0  0  0  0  0  0  0  0  0
    0.9598   -1.1122   -0.4326 C   0  0  0  0  0  0  0  0  0  0  0  0
    1.8001    0.0911   -0.5514 C   0  0  0  0  0  0  0  0  0  0  0  0
   -0.8447   -0.8205    1.3529 C   0  0  0  0  0  0  0  0  0  0  0  0
    1.8491    2.2098    0.0282 H   0  0  0  0  0  0  0  0  0  0  0  0
   -0.3568    2.4113    0.8332 H   0  0  0  0  0  0  0  0  0  0  0  0
   -3.0266    0.0046   -0.0849 H   0  0  0  0  0  0  0  0  0  0  0  0
   -2.1108    1.0939   -1.2683 H   0  0  0  0  0  0  0  0  0  0  0  0
    1.0289   -1.6826   -1.4068 H   0  0  0  0  0  0  0  0  0  0  0  0
    1.3916   -1.8366    0.3206 H   0  0  0  0  0  0  0  0  0  0  0  0
    2.0972    0.3059   -1.6085 H   0  0  0  0  0  0  0  0  0  0  0  0
    2.7682   -0.0816   -0.0143 H   0  0  0  0  0  0  0  0  0  0  0  0
   -1.8357   -1.2654    1.6583 H   0  0  0  0  0  0  0  0  0  0  0  0
   -0.0171   -0.8476    2.0597 H   0  0  0  0  0  0  0  0  0  0  0  0
  1  2  2  0
  2  3  1  0
  3  4  1  0
  4  5  1  0
  5  6  1  0
  6  7  1  0
  7  8  1  0
  6  9  1  0
  8  1  1  0
  6  3  1  0
  9  3  1  0
  1 10  1  0
  2 11  1  0
  4 12  1  0
  4 13  1  0
  7 14  1  0
  7 15  1  0
  8 16  1  0
  8 17  1  0
  9 18  1  0
  9 19  1  0
M  END
