
     RDKit          3D

 19 21  0  0  0  0  0  0  0  0999 V2000
    2.0083    1.0522   -0.0700 C   0  0  0  0  0  0  0  0  0  0  0  0
    0.8407    1.3156   -0.6352 C   0  0  0  0  0  0  0  0  0  0  0  0
   -0.0840    0.2323   -0.3482 C   0  0  0  0  0  0  0  0  0  0  0  0
   -1.1323   -0.2267   -1.2767 C   0  0  0  0  0  0  0  0  0  0  0  0
   -2.2763   -0.5645   -0.4053 C   0  0  0  0  0  0  0  0  0  0  0  0
   -1.9362   -0.4081    0.8591 C   0  0  0  0  0  0  0  0  0  0  0  0
   -0.5393    0.0501    1.0379 C   0  0  0  0  0  0  0  0  0  0  0  0
    0.5738   -0.7603    0.5326 C   0  0  0  0  0  0  0  0  0  0  0  0
    1.9679   -0.2501    0.6562 C   0  0  0  0  0  0  0  0  0  0  0  0
    2.9156    1.6592   -0.0923 H   0  0  0  0  0  0  0  0  0  0  0  0
    0.6435    2.2044   -1.2107 H   0  0  0  0  0  0  0  0  0  0  0  0
   -1.4027    0.4866   -2.0764 H   0  0  0  0  0  0  0  0  0  0  0  0
   -0.8307   -1.1844   -1.7936 H   0  0  0  0  0  0  0  0  0  0  0  0
   -3.2472   -0.8934   -0.8168 H   0  0  0  0  0  0  0  0  0  0  0  0
   -2.6022   -0.5918    1.7190 H   0  0  0  0  0  0  0  0  0  0  0  0
   -0.3147    0.8293    1.8009 H   0  0  0  0  0  0  0  0  0  0  0  0
    0.4603   -1.8444    0.3543 H   0  0  0  0  0  0  0  0  0  0  0  0
    2.6347   -0.9417    0.0619 H   0  0  0  0  0  0  0  0  0  0  0  0
    2.3208   -0.1643    1.7033 H   0  0  0  0  0  0  0  0  0  0  0  0
  1  2  2  0
  2  3  1  0
  3  4  1  0
  4  5  1  0
  5  6  2  0
  6  7  1  0
  7  8  1  0
  8  9  1  0
  9  1  1  0
  7  3  1  0
  8  3  1  0
  1 10  1  0
  2 11  1  0
  4 12  1  0
  4 13  1  0
  5 14  1  0
  6 15  1  0
  7 16  1  0
  8 17  1  0
  9 18  1  0
  9 19  1  0
M  END
