
     RDKit          3D

 15 16  0  0  0  0  0  0  0  0999 V2000
    1.1360    0.5319    0.9590 C   0  0  0  0  0  0  0  0  0  0  0  0
   -0.1275    0.4672    0.6050 C   0  0  0  0  0  0  0  0  0  0  0  0
   -1.5801    0.5088    0.4138 C   0  0  0  0  0  0  0  0  0  0  0  0
   -1.4185   -0.8098   -0.3587 C   0  0  0  0  0  0  0  0  0  0  0  0
   -0.0896   -0.2177   -0.7577 C   0  0  0  0  0  0  0  0  0  0  0  0
    1.0344   -0.9921   -0.6834 O   0  0  0  0  0  0  0  0  0  0  0  0
    1.9949   -0.1252   -0.0965 C   0  0  0  0  0  0  0  0  0  0  0  0
    1.5555    0.9846    1.8736 H   0  0  0  0  0  0  0  0  0  0  0  0
   -2.2241    0.4548    1.2863 H   0  0  0  0  0  0  0  0  0  0  0  0
   -1.8559    1.3028   -0.3042 H   0  0  0  0  0  0  0  0  0  0  0  0
   -1.2561   -1.6873    0.3005 H   0  0  0  0  0  0  0  0  0  0  0  0
   -2.1476   -0.9483   -1.1707 H   0  0  0  0  0  0  0  0  0  0  0  0
   -0.1317    0.5125   -1.5969 H   0  0  0  0  0  0  0  0  0  0  0  0
    2.2757    0.6864   -0.7994 H   0  0  0  0  0  0  0  0  0  0  0  0
    2.8346   -0.6686    0.3294 H   0  0  0  0  0  0  0  0  0  0  0  0
  1  2  2  0
  2  3  1  0
  3  4  1  0
  4  5  1  0
  5  6  1  0
  6  7  1  0
  7  1  1  0
  5  2  1  0
  1  8  1  0
  3  9  1  0
  3 10  1  0
  4 11  1  0
  4 12  1  0
  5 13  1  0
  7 14  1  0
  7 15  1  0
M  END
