
     RDKit          3D

 17 19  0  0  0  0  0  0  0  0999 V2000
    1.9148   -0.3193    0.8287 C   0  0  0  0  0  0  0  0  0  0  0  0
    1.4524    0.9058    0.6714 C   0  0  0  0  0  0  0  0  0  0  0  0
    0.2239    0.9897   -0.1057 C   0  0  0  0  0  0  0  0  0  0  0  0
   -0.9256    1.2626    0.6145 O   0  0  0  0  0  0  0  0  0  0  0  0
   -1.9578    0.7426   -0.2052 C   0  0  0  0  0  0  0  0  0  0  0  0
   -1.3904   -0.6135   -0.5877 C   0  0  0  0  0  0  0  0  0  0  0  0
   -0.5923   -0.7454   -1.7070 O   0  0  0  0  0  0  0  0  0  0  0  0
    0.0091   -0.4430   -0.5093 C   0  0  0  0  0  0  0  0  0  0  0  0
    1.0168   -1.2726    0.1460 C   0  0  0  0  0  0  0  0  0  0  0  0
    2.8405   -0.5783    1.3919 H   0  0  0  0  0  0  0  0  0  0  0  0
    1.9823    1.7802    1.1097 H   0  0  0  0  0  0  0  0  0  0  0  0
    0.3138    1.6108   -1.0186 H   0  0  0  0  0  0  0  0  0  0  0  0
   -2.9018    0.6404    0.3465 H   0  0  0  0  0  0  0  0  0  0  0  0
   -2.0794    1.4049   -1.0826 H   0  0  0  0  0  0  0  0  0  0  0  0
   -1.9834   -1.5242   -0.3498 H   0  0  0  0  0  0  0  0  0  0  0  0
    1.5606   -1.9792   -0.5158 H   0  0  0  0  0  0  0  0  0  0  0  0
    0.5165   -1.8613    0.9731 H   0  0  0  0  0  0  0  0  0  0  0  0
  1  2  2  0
  2  3  1  0
  3  4  1  0
  4  5  1  0
  5  6  1  0
  6  7  1  0
  7  8  1  0
  8  9  1  0
  9  1  1  0
  8  3  1  0
  8  6  1  0
  1 10  1  0
  2 11  1  0
  3 12  1  0
  5 13  1  0
  5 14  1  0
  6 15  1  0
  9 16  1  0
  9 17  1  0
M  END
