
     RDKit          3D

 19 20  0  0  0  0  0  0  0  0999 V2000
   -1.8950   -0.6791    0.2932 C   0  0  0  0  0  0  0  0  0  0  0  0
   -1.9533    0.6367    0.2241 C   0  0  0  0  0  0  0  0  0  0  0  0
   -0.7078    1.4330    0.1401 C   0  0  0  0  0  0  0  0  0  0  0  0
    0.2985    0.6174   -0.5816 C   0  0  0  0  0  0  0  0  0  0  0  0
    1.5517    1.1337   -0.6922 O   0  0  0  0  0  0  0  0  0  0  0  0
    2.4509    0.0738   -0.5501 C   0  0  0  0  0  0  0  0  0  0  0  0
    1.6992   -1.0798   -0.3253 O   0  0  0  0  0  0  0  0  0  0  0  0
    0.5886   -0.5952    0.3212 C   0  0  0  0  0  0  0  0  0  0  0  0
   -0.6160   -1.4488    0.2925 C   0  0  0  0  0  0  0  0  0  0  0  0
   -2.8102   -1.2678    0.3552 H   0  0  0  0  0  0  0  0  0  0  0  0
   -2.9207    1.1090    0.2306 H   0  0  0  0  0  0  0  0  0  0  0  0
   -0.4026    1.6694    1.2004 H   0  0  0  0  0  0  0  0  0  0  0  0
   -0.8884    2.4259   -0.3253 H   0  0  0  0  0  0  0  0  0  0  0  0
   -0.1458    0.2375   -1.5103 H   0  0  0  0  0  0  0  0  0  0  0  0
    3.0386    0.0108   -1.4868 H   0  0  0  0  0  0  0  0  0  0  0  0
    3.0797    0.2443    0.3406 H   0  0  0  0  0  0  0  0  0  0  0  0
    0.9020   -0.2731    1.3325 H   0  0  0  0  0  0  0  0  0  0  0  0
   -0.6369   -2.0421    1.2551 H   0  0  0  0  0  0  0  0  0  0  0  0
   -0.6324   -2.2056   -0.5139 H   0  0  0  0  0  0  0  0  0  0  0  0
  1  2  2  0
  2  3  1  0
  3  4  1  0
  4  5  1  0
  5  6  1  0
  6  7  1  0
  7  8  1  0
  8  9  1  0
  9  1  1  0
  8  4  1  0
  1 10  1  0
  2 11  1  0
  3 12  1  0
  3 13  1  0
  4 14  1  0
  6 15  1  0
  6 16  1  0
  8 17  1  0
  9 18  1  0
  9 19  1  0
M  END
