
     RDKit          3D

 16 16  0  0  0  0  0  0  0  0999 V2000
    0.8961   -1.6281   -0.0740 C   0  0  0  0  0  0  0  0  0  0  0  0
    1.7090   -0.5863   -0.0529 C   0  0  0  0  0  0  0  0  0  0  0  0
    1.5757    0.8779    0.0006 C   0  0  0  0  0  0  0  0  0  0  0  0
    0.5629    1.7380    0.0501 C   0  0  0  0  0  0  0  0  0  0  0  0
   -0.8849    1.6399    0.0748 C   0  0  0  0  0  0  0  0  0  0  0  0
   -1.7070    0.5967    0.0537 C   0  0  0  0  0  0  0  0  0  0  0  0
   -1.5917   -0.8638   -0.0003 C   0  0  0  0  0  0  0  0  0  0  0  0
   -0.5754   -1.7120   -0.0495 C   0  0  0  0  0  0  0  0  0  0  0  0
    1.3864   -2.5924   -0.1168 H   0  0  0  0  0  0  0  0  0  0  0  0
    2.7410   -0.8923   -0.0829 H   0  0  0  0  0  0  0  0  0  0  0  0
    2.5559    1.3307   -0.0027 H   0  0  0  0  0  0  0  0  0  0  0  0
    0.9129    2.7501    0.0785 H   0  0  0  0  0  0  0  0  0  0  0  0
   -1.4259    2.5766    0.1185 H   0  0  0  0  0  0  0  0  0  0  0  0
   -2.7485    0.9054    0.0849 H   0  0  0  0  0  0  0  0  0  0  0  0
   -2.5584   -1.3780   -0.0005 H   0  0  0  0  0  0  0  0  0  0  0  0
   -0.8483   -2.7624   -0.0817 H   0  0  0  0  0  0  0  0  0  0  0  0
  1  2  2  3
  2  3  1  0
  3  4  2  3
  4  5  1  0
  5  6  2  3
  6  7  1  0
  7  8  2  3
  8  1  1  0
  1  9  1  0
  2 10  1  0
  3 11  1  0
  4 12  1  0
  5 13  1  0
  6 14  1  0
  7 15  1  0
  8 16  1  0
M  END
