
     RDKit          3D

 17 19  0  0  0  0  0  0  0  0999 V2000
    1.1874    0.9722    0.3090 C   0  0  0  0  0  0  0  0  0  0  0  0
    1.5959   -0.3160    0.2980 C   0  0  0  0  0  0  0  0  0  0  0  0
    0.5203   -1.2713   -0.1462 C   0  0  0  0  0  0  0  0  0  0  0  0
   -0.3237   -1.4246    0.9646 O   0  0  0  0  0  0  0  0  0  0  0  0
   -1.0390   -0.2553    1.0944 C   0  0  0  0  0  0  0  0  0  0  0  0
   -1.1402    0.3796   -0.2552 C   0  0  0  0  0  0  0  0  0  0  0  0
    0.0300    1.2624   -0.5843 C   0  0  0  0  0  0  0  0  0  0  0  0
    0.2168    0.5160   -1.7424 O   0  0  0  0  0  0  0  0  0  0  0  0
   -0.3620   -0.5740   -1.1309 C   0  0  0  0  0  0  0  0  0  0  0  0
    1.6712    1.7186    0.9212 H   0  0  0  0  0  0  0  0  0  0  0  0
    2.5804   -0.6216    0.5762 H   0  0  0  0  0  0  0  0  0  0  0  0
    0.9074   -2.2337   -0.4576 H   0  0  0  0  0  0  0  0  0  0  0  0
   -2.0617   -0.4151    1.5165 H   0  0  0  0  0  0  0  0  0  0  0  0
   -0.4673    0.4677    1.7486 H   0  0  0  0  0  0  0  0  0  0  0  0
   -2.1132    0.6967   -0.6060 H   0  0  0  0  0  0  0  0  0  0  0  0
   -0.2553    2.3011   -0.6975 H   0  0  0  0  0  0  0  0  0  0  0  0
   -0.9468   -1.2027   -1.8085 H   0  0  0  0  0  0  0  0  0  0  0  0
  1  2  2  0
  2  3  1  0
  3  4  1  0
  4  5  1  0
  5  6  1  0
  6  7  1  0
  7  8  1  0
  8  9  1  0
  7  1  1  0
  9  3  1  0
  9  6  1  0
  1 10  1  0
  2 11  1  0
  3 12  1  0
  5 13  1  0
  5 14  1  0
  6 15  1  0
  7 16  1  0
  9 17  1  0
M  END
