
     RDKit          3D

 16 18  0  0  0  0  0  0  0  0999 V2000
    1.7306    0.1127    0.0084 C   0  0  0  0  0  0  0  0  0  0  0  0
    0.8951    1.0453    0.4140 C   0  0  0  0  0  0  0  0  0  0  0  0
   -0.5095    0.6730    0.1674 C   0  0  0  0  0  0  0  0  0  0  0  0
   -1.3282    0.0968    1.3231 C   0  0  0  0  0  0  0  0  0  0  0  0
   -1.0132   -1.1672    0.8445 O   0  0  0  0  0  0  0  0  0  0  0  0
   -0.4188   -0.7837   -0.3403 C   0  0  0  0  0  0  0  0  0  0  0  0
    1.0352   -1.0427   -0.5784 C   0  0  0  0  0  0  0  0  0  0  0  0
   -1.0165    0.3236   -1.1702 C   0  0  0  0  0  0  0  0  0  0  0  0
    2.8103    0.1839    0.0952 H   0  0  0  0  0  0  0  0  0  0  0  0
    1.1910    1.9824    0.8770 H   0  0  0  0  0  0  0  0  0  0  0  0
   -0.9045    0.3914    2.2792 H   0  0  0  0  0  0  0  0  0  0  0  0
   -2.4207    0.2819    1.1876 H   0  0  0  0  0  0  0  0  0  0  0  0
    1.3547   -1.9581   -0.0701 H   0  0  0  0  0  0  0  0  0  0  0  0
    1.2369   -1.0600   -1.6686 H   0  0  0  0  0  0  0  0  0  0  0  0
   -0.5040    0.5534   -2.0986 H   0  0  0  0  0  0  0  0  0  0  0  0
   -2.1385    0.3675   -1.2704 H   0  0  0  0  0  0  0  0  0  0  0  0
  1  2  2  0
  2  3  1  0
  3  4  1  0
  4  5  1  0
  5  6  1  0
  6  7  1  0
  6  8  1  0
  7  1  1  0
  6  3  1  0
  8  3  1  0
  1  9  1  0
  2 10  1  0
  4 11  1  0
  4 12  1  0
  7 13  1  0
  7 14  1  0
  8 15  1  0
  8 16  1  0
M  END
