
     RDKit          3D

 19 21  0  0  0  0  0  0  0  0999 V2000
    1.7740    0.1239    0.1995 C   0  0  0  0  0  0  0  0  0  0  0  0
    1.1919    1.2855    0.4300 C   0  0  0  0  0  0  0  0  0  0  0  0
   -0.0934    1.6697   -0.2567 C   0  0  0  0  0  0  0  0  0  0  0  0
   -0.9763    0.4762   -0.2413 C   0  0  0  0  0  0  0  0  0  0  0  0
   -2.3314    0.5301   -0.2130 O   0  0  0  0  0  0  0  0  0  0  0  0
   -1.6596   -0.1189    0.7891 C   0  0  0  0  0  0  0  0  0  0  0  0
   -0.9745   -1.4504    0.5153 C   0  0  0  0  0  0  0  0  0  0  0  0
   -0.3599   -0.7883   -0.7159 C   0  0  0  0  0  0  0  0  0  0  0  0
    1.1293   -0.8033   -0.7590 C   0  0  0  0  0  0  0  0  0  0  0  0
    2.6920   -0.1797    0.6740 H   0  0  0  0  0  0  0  0  0  0  0  0
    1.6685    1.9643    1.1350 H   0  0  0  0  0  0  0  0  0  0  0  0
   -0.5576    2.4575    0.3690 H   0  0  0  0  0  0  0  0  0  0  0  0
    0.1728    2.0584   -1.2391 H   0  0  0  0  0  0  0  0  0  0  0  0
   -1.9214    0.1655    1.8051 H   0  0  0  0  0  0  0  0  0  0  0  0
   -0.2001   -1.6509    1.2852 H   0  0  0  0  0  0  0  0  0  0  0  0
   -1.6605   -2.2725    0.2942 H   0  0  0  0  0  0  0  0  0  0  0  0
   -0.7978   -1.1378   -1.6635 H   0  0  0  0  0  0  0  0  0  0  0  0
    1.4401   -0.4775   -1.7760 H   0  0  0  0  0  0  0  0  0  0  0  0
    1.4641   -1.8518   -0.6320 H   0  0  0  0  0  0  0  0  0  0  0  0
  1  2  2  0
  2  3  1  0
  3  4  1  0
  4  5  1  0
  5  6  1  0
  6  7  1  0
  7  8  1  0
  8  9  1  0
  9  1  1  0
  6  4  1  0
  8  4  1  0
  1 10  1  0
  2 11  1  0
  3 12  1  0
  3 13  1  0
  6 14  1  0
  7 15  1  0
  7 16  1  0
  8 17  1  0
  9 18  1  0
  9 19  1  0
M  END
