
     RDKit          3D

 19 21  0  0  0  0  0  0  0  0999 V2000
    1.9457    0.8911    0.5381 C   0  0  0  0  0  0  0  0  0  0  0  0
    0.7793    1.4679    0.3270 C   0  0  0  0  0  0  0  0  0  0  0  0
   -0.2797    0.7409   -0.3558 C   0  0  0  0  0  0  0  0  0  0  0  0
   -1.4251    0.2551    0.5103 C   0  0  0  0  0  0  0  0  0  0  0  0
   -2.5362   -0.3448   -0.2326 C   0  0  0  0  0  0  0  0  0  0  0  0
   -1.3061   -1.1523   -0.1165 C   0  0  0  0  0  0  0  0  0  0  0  0
    0.0083   -0.6705   -0.6928 C   0  0  0  0  0  0  0  0  0  0  0  0
    1.0514   -1.2489   -0.0417 O   0  0  0  0  0  0  0  0  0  0  0  0
    2.1852   -0.4837    0.0882 C   0  0  0  0  0  0  0  0  0  0  0  0
    2.7720    1.4004    1.0473 H   0  0  0  0  0  0  0  0  0  0  0  0
    0.6064    2.4845    0.6615 H   0  0  0  0  0  0  0  0  0  0  0  0
   -0.6634    1.3371   -1.2314 H   0  0  0  0  0  0  0  0  0  0  0  0
   -1.3442    0.2753    1.5958 H   0  0  0  0  0  0  0  0  0  0  0  0
   -3.4009   -0.6787    0.3334 H   0  0  0  0  0  0  0  0  0  0  0  0
   -2.7743    0.0666   -1.2321 H   0  0  0  0  0  0  0  0  0  0  0  0
   -1.3154   -2.0095    0.5786 H   0  0  0  0  0  0  0  0  0  0  0  0
    0.0574   -0.8254   -1.8107 H   0  0  0  0  0  0  0  0  0  0  0  0
    2.8230   -0.5206   -0.8385 H   0  0  0  0  0  0  0  0  0  0  0  0
    2.8167   -0.9844    0.8720 H   0  0  0  0  0  0  0  0  0  0  0  0
  1  2  2  0
  2  3  1  0
  3  4  1  0
  4  5  1  0
  5  6  1  0
  6  7  1  0
  7  8  1  0
  8  9  1  0
  9  1  1  0
  7  3  1  0
  6  4  1  0
  1 10  1  0
  2 11  1  0
  3 12  1  0
  4 13  1  0
  5 14  1  0
  5 15  1  0
  6 16  1  0
  7 17  1  0
  9 18  1  0
  9 19  1  0
M  END
