
     RDKit          3D

 21 22  0  0  0  0  0  0  0  0999 V2000
    1.4031    1.2199    0.6006 C   0  0  0  0  0  0  0  0  0  0  0  0
    0.1572    1.4445    0.1943 C   0  0  0  0  0  0  0  0  0  0  0  0
   -0.6657    0.5836   -0.6557 C   0  0  0  0  0  0  0  0  0  0  0  0
   -2.1570    0.6233   -0.2988 C   0  0  0  0  0  0  0  0  0  0  0  0
   -2.0342   -0.7769    0.2862 C   0  0  0  0  0  0  0  0  0  0  0  0
   -0.6606   -0.8598   -0.2874 C   0  0  0  0  0  0  0  0  0  0  0  0
    0.3070   -1.1520    0.6673 O   0  0  0  0  0  0  0  0  0  0  0  0
    1.5339   -1.1816   -0.0316 C   0  0  0  0  0  0  0  0  0  0  0  0
    2.2629    0.0714    0.3085 C   0  0  0  0  0  0  0  0  0  0  0  0
    1.8802    1.9746    1.2407 H   0  0  0  0  0  0  0  0  0  0  0  0
   -0.2963    2.3671    0.5310 H   0  0  0  0  0  0  0  0  0  0  0  0
   -0.5572    0.7834   -1.7614 H   0  0  0  0  0  0  0  0  0  0  0  0
   -2.8296    0.6075   -1.1611 H   0  0  0  0  0  0  0  0  0  0  0  0
   -2.3651    1.3505    0.4974 H   0  0  0  0  0  0  0  0  0  0  0  0
   -2.0758   -0.8143    1.3973 H   0  0  0  0  0  0  0  0  0  0  0  0
   -2.7074   -1.5320   -0.2062 H   0  0  0  0  0  0  0  0  0  0  0  0
   -0.5394   -1.5319   -1.1696 H   0  0  0  0  0  0  0  0  0  0  0  0
    1.3765   -1.3009   -1.1231 H   0  0  0  0  0  0  0  0  0  0  0  0
    2.0798   -2.0528    0.3450 H   0  0  0  0  0  0  0  0  0  0  0  0
    2.9570    0.3143   -0.5484 H   0  0  0  0  0  0  0  0  0  0  0  0
    2.9306   -0.1377    1.1751 H   0  0  0  0  0  0  0  0  0  0  0  0
  1  2  2  0
  2  3  1  0
  3  4  1  0
  4  5  1  0
  5  6  1  0
  6  7  1  0
  7  8  1  0
  8  9  1  0
  9  1  1  0
  6  3  1  0
  1 10  1  0
  2 11  1  0
  3 12  1  0
  4 13  1  0
  4 14  1  0
  5 15  1  0
  5 16  1  0
  6 17  1  0
  8 18  1  0
  8 19  1  0
  9 20  1  0
  9 21  1  0
M  END
