
     RDKit          3D

 16 17  0  0  0  0  0  0  0  0999 V2000
    1.4490    0.6072   -0.0203 C   0  0  0  0  0  0  0  0  0  0  0  0
    0.4684    1.4748   -0.2261 C   0  0  0  0  0  0  0  0  0  0  0  0
   -0.6546    0.7060   -0.8248 C   0  0  0  0  0  0  0  0  0  0  0  0
   -1.4933    0.1811    0.3087 C   0  0  0  0  0  0  0  0  0  0  0  0
   -1.1801   -1.1274    0.6452 O   0  0  0  0  0  0  0  0  0  0  0  0
    0.1568   -1.4082    0.6461 C   0  0  0  0  0  0  0  0  0  0  0  0
    0.9321   -0.7217   -0.4536 C   0  0  0  0  0  0  0  0  0  0  0  0
   -0.0017   -0.3758   -1.4432 O   0  0  0  0  0  0  0  0  0  0  0  0
    2.4191    0.8653    0.3863 H   0  0  0  0  0  0  0  0  0  0  0  0
    0.5121    2.5272    0.0078 H   0  0  0  0  0  0  0  0  0  0  0  0
   -1.2067    1.3166   -1.5420 H   0  0  0  0  0  0  0  0  0  0  0  0
   -1.4074    0.8088    1.2202 H   0  0  0  0  0  0  0  0  0  0  0  0
   -2.5575    0.1994   -0.0262 H   0  0  0  0  0  0  0  0  0  0  0  0
    0.2770   -2.5052    0.5088 H   0  0  0  0  0  0  0  0  0  0  0  0
    0.5788   -1.1610    1.6473 H   0  0  0  0  0  0  0  0  0  0  0  0
    1.7083   -1.3871   -0.8341 H   0  0  0  0  0  0  0  0  0  0  0  0
  1  2  2  0
  2  3  1  0
  3  4  1  0
  4  5  1  0
  5  6  1  0
  6  7  1  0
  7  8  1  0
  7  1  1  0
  8  3  1  0
  1  9  1  0
  2 10  1  0
  3 11  1  0
  4 12  1  0
  4 13  1  0
  6 14  1  0
  6 15  1  0
  7 16  1  0
M  END
