
     RDKit          3D

 19 20  0  0  0  0  0  0  0  0999 V2000
    1.0599   -1.3542    0.4612 C   0  0  0  0  0  0  0  0  0  0  0  0
   -0.2012   -1.1469    0.8092 C   0  0  0  0  0  0  0  0  0  0  0  0
   -1.2199   -0.1425    0.5660 C   0  0  0  0  0  0  0  0  0  0  0  0
   -2.0245   -0.3204   -0.7294 C   0  0  0  0  0  0  0  0  0  0  0  0
   -0.9307    0.2997   -1.3700 O   0  0  0  0  0  0  0  0  0  0  0  0
   -0.8171    1.0658   -0.1857 C   0  0  0  0  0  0  0  0  0  0  0  0
    0.5212    1.5815    0.0893 C   0  0  0  0  0  0  0  0  0  0  0  0
    1.6825    0.9556    0.0085 C   0  0  0  0  0  0  0  0  0  0  0  0
    1.8759   -0.4741   -0.3994 C   0  0  0  0  0  0  0  0  0  0  0  0
    1.5629   -2.2323    0.8207 H   0  0  0  0  0  0  0  0  0  0  0  0
   -0.5636   -1.9653    1.4595 H   0  0  0  0  0  0  0  0  0  0  0  0
   -1.8672    0.0532    1.4531 H   0  0  0  0  0  0  0  0  0  0  0  0
   -2.9255    0.3276   -0.6484 H   0  0  0  0  0  0  0  0  0  0  0  0
   -2.2013   -1.3557   -1.0196 H   0  0  0  0  0  0  0  0  0  0  0  0
   -1.6410    1.8117   -0.2003 H   0  0  0  0  0  0  0  0  0  0  0  0
    0.5337    2.6307    0.4027 H   0  0  0  0  0  0  0  0  0  0  0  0
    2.5690    1.5355    0.2615 H   0  0  0  0  0  0  0  0  0  0  0  0
    1.6320   -0.5777   -1.4760 H   0  0  0  0  0  0  0  0  0  0  0  0
    2.9548   -0.6922   -0.3030 H   0  0  0  0  0  0  0  0  0  0  0  0
  1  2  2  0
  2  3  1  0
  3  4  1  0
  4  5  1  0
  5  6  1  0
  6  7  1  0
  7  8  2  0
  8  9  1  0
  9  1  1  0
  6  3  1  0
  1 10  1  0
  2 11  1  0
  3 12  1  0
  4 13  1  0
  4 14  1  0
  6 15  1  0
  7 16  1  0
  8 17  1  0
  9 18  1  0
  9 19  1  0
M  END
