
     RDKit          3D

 19 21  0  0  0  0  0  0  0  0999 V2000
    1.9750    0.7576    0.3355 C   0  0  0  0  0  0  0  0  0  0  0  0
    0.8648    1.1836   -0.2577 C   0  0  0  0  0  0  0  0  0  0  0  0
   -0.0050    0.0384   -0.4772 C   0  0  0  0  0  0  0  0  0  0  0  0
    0.9402   -1.1176   -0.5634 C   0  0  0  0  0  0  0  0  0  0  0  0
    1.9013   -0.7330    0.5479 C   0  0  0  0  0  0  0  0  0  0  0  0
   -1.1727   -0.1875    0.4702 C   0  0  0  0  0  0  0  0  0  0  0  0
   -2.3055    0.7759    0.4915 C   0  0  0  0  0  0  0  0  0  0  0  0
   -2.1284    1.1511   -0.8172 O   0  0  0  0  0  0  0  0  0  0  0  0
   -1.3342    0.0639   -1.0518 C   0  0  0  0  0  0  0  0  0  0  0  0
    2.7946    1.4028    0.6142 H   0  0  0  0  0  0  0  0  0  0  0  0
    0.6784    2.2200   -0.5172 H   0  0  0  0  0  0  0  0  0  0  0  0
    1.5341   -1.1027   -1.5036 H   0  0  0  0  0  0  0  0  0  0  0  0
    0.4787   -2.0897   -0.3452 H   0  0  0  0  0  0  0  0  0  0  0  0
    1.3903   -0.9379    1.5309 H   0  0  0  0  0  0  0  0  0  0  0  0
    2.8784   -1.2112    0.4628 H   0  0  0  0  0  0  0  0  0  0  0  0
   -1.3608   -1.2195    0.8267 H   0  0  0  0  0  0  0  0  0  0  0  0
   -2.1524    1.5540    1.2557 H   0  0  0  0  0  0  0  0  0  0  0  0
   -3.2758    0.2600    0.6290 H   0  0  0  0  0  0  0  0  0  0  0  0
   -1.7010   -0.8083   -1.6310 H   0  0  0  0  0  0  0  0  0  0  0  0
  1  2  2  0
  2  3  1  0
  3  4  1  0
  4  5  1  0
  3  6  1  0
  6  7  1  0
  7  8  1  0
  8  9  1  0
  5  1  1  0
  9  6  1  0
  9  3  1  0
  1 10  1  0
  2 11  1  0
  4 12  1  0
  4 13  1  0
  5 14  1  0
  5 15  1  0
  6 16  1  0
  7 17  1  0
  7 18  1  0
  9 19  1  0
M  END
