
     RDKit          3D

 17 19  0  0  0  0  0  0  0  0999 V2000
   -0.0787    1.4935   -0.3562 C   0  0  0  0  0  0  0  0  0  0  0  0
   -1.0694    0.8130   -0.9294 C   0  0  0  0  0  0  0  0  0  0  0  0
   -1.4908   -0.4057   -0.1500 C   0  0  0  0  0  0  0  0  0  0  0  0
   -1.4288    0.0104    1.2010 O   0  0  0  0  0  0  0  0  0  0  0  0
   -0.0834   -0.3287    1.2304 C   0  0  0  0  0  0  0  0  0  0  0  0
    0.8074    0.6558    0.5033 C   0  0  0  0  0  0  0  0  0  0  0  0
    1.5478   -0.2727   -0.4340 C   0  0  0  0  0  0  0  0  0  0  0  0
    0.7086   -1.3195   -0.7275 O   0  0  0  0  0  0  0  0  0  0  0  0
   -0.3546   -1.3282    0.1334 C   0  0  0  0  0  0  0  0  0  0  0  0
    0.0817    2.5555   -0.4918 H   0  0  0  0  0  0  0  0  0  0  0  0
   -1.5431    1.0922   -1.8682 H   0  0  0  0  0  0  0  0  0  0  0  0
   -2.4389   -0.8397   -0.4575 H   0  0  0  0  0  0  0  0  0  0  0  0
    0.3053   -0.7268    2.1697 H   0  0  0  0  0  0  0  0  0  0  0  0
    1.4567    1.2338    1.1600 H   0  0  0  0  0  0  0  0  0  0  0  0
    2.5370   -0.5787   -0.0389 H   0  0  0  0  0  0  0  0  0  0  0  0
    1.7550    0.2543   -1.4082 H   0  0  0  0  0  0  0  0  0  0  0  0
   -0.7117   -2.3084    0.4639 H   0  0  0  0  0  0  0  0  0  0  0  0
  1  2  2  0
  2  3  1  0
  3  4  1  0
  4  5  1  0
  5  6  1  0
  6  7  1  0
  7  8  1  0
  8  9  1  0
  6  1  1  0
  9  3  1  0
  9  5  1  0
  1 10  1  0
  2 11  1  0
  3 12  1  0
  5 13  1  0
  6 14  1  0
  7 15  1  0
  7 16  1  0
  9 17  1  0
M  END
