
     RDKit          3D

 19 20  0  0  0  0  0  0  0  0999 V2000
    1.1663    1.3460    0.2794 C   0  0  0  0  0  0  0  0  0  0  0  0
    1.7364    0.2014   -0.0205 C   0  0  0  0  0  0  0  0  0  0  0  0
    1.0781   -0.7627   -0.9152 C   0  0  0  0  0  0  0  0  0  0  0  0
    0.5272   -1.8440   -0.2569 O   0  0  0  0  0  0  0  0  0  0  0  0
   -0.3383   -1.4336    0.7258 C   0  0  0  0  0  0  0  0  0  0  0  0
   -1.4928   -0.6454    0.1273 C   0  0  0  0  0  0  0  0  0  0  0  0
   -0.8718    0.4246   -0.7506 C   0  0  0  0  0  0  0  0  0  0  0  0
   -0.3033    1.4799    0.1598 C   0  0  0  0  0  0  0  0  0  0  0  0
    0.0737   -0.0976   -1.6202 O   0  0  0  0  0  0  0  0  0  0  0  0
    1.7400    2.1928    0.6111 H   0  0  0  0  0  0  0  0  0  0  0  0
    2.7029   -0.0260    0.4010 H   0  0  0  0  0  0  0  0  0  0  0  0
    1.7704   -1.1760   -1.6880 H   0  0  0  0  0  0  0  0  0  0  0  0
    0.2015   -0.7364    1.4179 H   0  0  0  0  0  0  0  0  0  0  0  0
   -0.7833   -2.2743    1.2748 H   0  0  0  0  0  0  0  0  0  0  0  0
   -1.9820   -0.1105    0.9697 H   0  0  0  0  0  0  0  0  0  0  0  0
   -2.2208   -1.2687   -0.3887 H   0  0  0  0  0  0  0  0  0  0  0  0
   -1.6908    0.8487   -1.3904 H   0  0  0  0  0  0  0  0  0  0  0  0
   -0.7079    1.3722    1.2088 H   0  0  0  0  0  0  0  0  0  0  0  0
   -0.6053    2.5096   -0.1451 H   0  0  0  0  0  0  0  0  0  0  0  0
  1  2  2  0
  2  3  1  0
  3  4  1  0
  4  5  1  0
  5  6  1  0
  6  7  1  0
  7  8  1  0
  7  9  1  0
  8  1  1  0
  9  3  1  0
  1 10  1  0
  2 11  1  0
  3 12  1  0
  5 13  1  0
  5 14  1  0
  6 15  1  0
  6 16  1  0
  7 17  1  0
  8 18  1  0
  8 19  1  0
M  END
