
     RDKit          3D

 21 23  0  0  0  0  0  0  0  0999 V2000
    1.8317    0.2572    0.8284 C   0  0  0  0  0  0  0  0  0  0  0  0
    1.1545    1.3460    0.4873 C   0  0  0  0  0  0  0  0  0  0  0  0
    0.1968    0.9109   -0.6002 C   0  0  0  0  0  0  0  0  0  0  0  0
    1.1424   -0.0603   -1.3319 C   0  0  0  0  0  0  0  0  0  0  0  0
    1.4435   -0.8685   -0.0489 C   0  0  0  0  0  0  0  0  0  0  0  0
    0.0230   -1.3256    0.2619 C   0  0  0  0  0  0  0  0  0  0  0  0
   -0.7555   -0.0456    0.0257 C   0  0  0  0  0  0  0  0  0  0  0  0
   -2.1539   -0.0334   -0.3962 C   0  0  0  0  0  0  0  0  0  0  0  0
   -1.7698    0.3260    1.0107 C   0  0  0  0  0  0  0  0  0  0  0  0
    2.5509    0.2023    1.6197 H   0  0  0  0  0  0  0  0  0  0  0  0
    1.2541    2.3320    0.8886 H   0  0  0  0  0  0  0  0  0  0  0  0
   -0.1831    1.6955   -1.2021 H   0  0  0  0  0  0  0  0  0  0  0  0
    2.0373    0.4414   -1.6861 H   0  0  0  0  0  0  0  0  0  0  0  0
    0.6139   -0.6780   -2.0493 H   0  0  0  0  0  0  0  0  0  0  0  0
    2.1559   -1.6456   -0.1890 H   0  0  0  0  0  0  0  0  0  0  0  0
   -0.0927   -1.6380    1.3059 H   0  0  0  0  0  0  0  0  0  0  0  0
   -0.2736   -2.0893   -0.4590 H   0  0  0  0  0  0  0  0  0  0  0  0
   -2.7361   -0.9400   -0.6045 H   0  0  0  0  0  0  0  0  0  0  0  0
   -2.4730    0.8591   -0.9987 H   0  0  0  0  0  0  0  0  0  0  0  0
   -2.0863   -0.4144    1.7761 H   0  0  0  0  0  0  0  0  0  0  0  0
   -1.8799    1.3682    1.3617 H   0  0  0  0  0  0  0  0  0  0  0  0
  1  2  2  0
  2  3  1  0
  3  4  1  0
  4  5  1  0
  5  6  1  0
  6  7  1  0
  7  8  1  0
  8  9  1  0
  5  1  1  0
  9  7  1  0
  7  3  1  0
  1 10  1  0
  2 11  1  0
  3 12  1  0
  4 13  1  0
  4 14  1  0
  5 15  1  0
  6 16  1  0
  6 17  1  0
  8 18  1  0
  8 19  1  0
  9 20  1  0
  9 21  1  0
M  END
