
     RDKit          3D

 19 20  0  0  0  0  0  0  0  0999 V2000
    1.7721    0.5458    0.0167 C   0  0  0  0  0  0  0  0  0  0  0  0
    0.7838    1.4243   -0.0160 C   0  0  0  0  0  0  0  0  0  0  0  0
   -0.6660    1.1274    0.1018 C   0  0  0  0  0  0  0  0  0  0  0  0
   -1.2045    0.4800   -1.1351 C   0  0  0  0  0  0  0  0  0  0  0  0
   -1.5038   -0.8293   -0.8530 O   0  0  0  0  0  0  0  0  0  0  0  0
   -0.8357   -1.2049    0.2892 C   0  0  0  0  0  0  0  0  0  0  0  0
    0.5395   -1.6137   -0.0811 C   0  0  0  0  0  0  0  0  0  0  0  0
    1.6664   -0.9139   -0.1042 C   0  0  0  0  0  0  0  0  0  0  0  0
   -0.8145    0.0513    1.1612 C   0  0  0  0  0  0  0  0  0  0  0  0
    2.7884    0.9281    0.1473 H   0  0  0  0  0  0  0  0  0  0  0  0
    1.1052    2.4485   -0.1422 H   0  0  0  0  0  0  0  0  0  0  0  0
   -1.2550    2.0179    0.3160 H   0  0  0  0  0  0  0  0  0  0  0  0
   -0.4422    0.5951   -1.9328 H   0  0  0  0  0  0  0  0  0  0  0  0
   -2.1469    0.9664   -1.5064 H   0  0  0  0  0  0  0  0  0  0  0  0
   -1.3898   -2.0170    0.7816 H   0  0  0  0  0  0  0  0  0  0  0  0
    0.6263   -2.6488   -0.3780 H   0  0  0  0  0  0  0  0  0  0  0  0
    2.5629   -1.4686   -0.2206 H   0  0  0  0  0  0  0  0  0  0  0  0
   -1.7026    0.1578    1.7744 H   0  0  0  0  0  0  0  0  0  0  0  0
    0.1164   -0.0462    1.7813 H   0  0  0  0  0  0  0  0  0  0  0  0
  1  2  2  0
  2  3  1  0
  3  4  1  0
  4  5  1  0
  5  6  1  0
  6  7  1  0
  7  8  2  0
  6  9  1  0
  8  1  1  0
  9  3  1  0
  1 10  1  0
  2 11  1  0
  3 12  1  0
  4 13  1  0
  4 14  1  0
  6 15  1  0
  7 16  1  0
  8 17  1  0
  9 18  1  0
  9 19  1  0
M  END
