
     RDKit          3D

 16 17  0  0  0  0  0  0  0  0999 V2000
   -0.8541    1.3117    0.0591 C   0  0  0  0  0  0  0  0  0  0  0  0
   -1.4102    0.2938   -0.5879 C   0  0  0  0  0  0  0  0  0  0  0  0
   -0.4908   -0.8854   -0.6965 C   0  0  0  0  0  0  0  0  0  0  0  0
   -0.1182   -1.2395    0.7417 C   0  0  0  0  0  0  0  0  0  0  0  0
    0.2247   -0.1296    1.4945 O   0  0  0  0  0  0  0  0  0  0  0  0
    0.4945    0.9584    0.6267 C   0  0  0  0  0  0  0  0  0  0  0  0
    1.3719    0.3543   -0.4664 C   0  0  0  0  0  0  0  0  0  0  0  0
    0.6399   -0.3842   -1.3741 O   0  0  0  0  0  0  0  0  0  0  0  0
   -1.2750    2.2938    0.1914 H   0  0  0  0  0  0  0  0  0  0  0  0
   -2.4025    0.2671   -1.0057 H   0  0  0  0  0  0  0  0  0  0  0  0
   -0.9377   -1.7493   -1.1747 H   0  0  0  0  0  0  0  0  0  0  0  0
   -1.0459   -1.6790    1.1855 H   0  0  0  0  0  0  0  0  0  0  0  0
    0.7412   -1.9413    0.7762 H   0  0  0  0  0  0  0  0  0  0  0  0
    0.9761    1.7839    1.1387 H   0  0  0  0  0  0  0  0  0  0  0  0
    2.0133    1.1118   -0.9466 H   0  0  0  0  0  0  0  0  0  0  0  0
    2.0728   -0.3665    0.0381 H   0  0  0  0  0  0  0  0  0  0  0  0
  1  2  2  0
  2  3  1  0
  3  4  1  0
  4  5  1  0
  5  6  1  0
  6  7  1  0
  7  8  1  0
  6  1  1  0
  8  3  1  0
  1  9  1  0
  2 10  1  0
  3 11  1  0
  4 12  1  0
  4 13  1  0
  6 14  1  0
  7 15  1  0
  7 16  1  0
M  END
