
     RDKit          2D

 17 20  0  0  0  0  0  0  0  0999 V2000
   -3.3798    1.0597    0.0000 C   0  0  0  0  0  0  0  0  0  0  0  0
   -1.8819    1.1382    0.0000 C   0  0  0  0  0  0  0  0  0  0  0  0
   -1.4937    2.5871    0.0000 C   0  0  0  0  0  0  0  0  0  0  0  0
   -2.7517    3.4041    0.0000 C   0  0  0  0  0  0  0  0  0  0  0  0
   -3.9174    2.4601    0.0000 C   0  0  0  0  0  0  0  0  0  0  0  0
   -0.0448    2.1989    0.0000 C   0  0  0  0  0  0  0  0  0  0  0  0
   -0.4330    0.7500    0.0000 C   0  0  0  0  0  0  0  0  0  0  0  0
    0.8660    0.0000    0.0000 C   0  0  0  0  0  0  0  0  0  0  0  0
   -0.4330   -0.7500    0.0000 O   0  0  0  0  0  0  0  0  0  0  0  0
   -4.1968   -0.1983    0.0000 H   0  0  0  0  0  0  0  0  0  0  0  0
   -0.8836    3.9574    0.0000 H   0  0  0  0  0  0  0  0  0  0  0  0
   -2.8302    4.9020    0.0000 H   0  0  0  0  0  0  0  0  0  0  0  0
   -5.2539    1.7791    0.0000 H   0  0  0  0  0  0  0  0  0  0  0  0
   -4.7344    3.7181    0.0000 H   0  0  0  0  0  0  0  0  0  0  0  0
    1.2543    2.9489    0.0000 H   0  0  0  0  0  0  0  0  0  0  0  0
    1.8302    1.1491    0.0000 H   0  0  0  0  0  0  0  0  0  0  0  0
    1.8302   -1.1491    0.0000 H   0  0  0  0  0  0  0  0  0  0  0  0
  1  2  2  0
  2  3  1  0
  3  4  1  0
  4  5  1  0
  4  6  1  0
  6  7  1  0
  7  8  1  0
  8  9  1  0
  5  1  1  0
  9  7  1  0
  7  2  1  0
  6  3  1  0
  1 10  1  0
  3 11  1  0
  4 12  1  0
  5 13  1  0
  5 14  1  0
  6 15  1  0
  8 16  1  0
  8 17  1  0
M  END
