
     RDKit          3D

 19 21  0  0  0  0  0  0  0  0999 V2000
    0.5382    1.4348    0.3104 C   0  0  0  0  0  0  0  0  0  0  0  0
   -0.4686    1.4475   -0.5447 C   0  0  0  0  0  0  0  0  0  0  0  0
   -1.3118    0.2300   -0.5780 C   0  0  0  0  0  0  0  0  0  0  0  0
   -1.4495   -0.1894    0.8944 C   0  0  0  0  0  0  0  0  0  0  0  0
   -0.1106   -0.8572    0.7345 C   0  0  0  0  0  0  0  0  0  0  0  0
    1.0536    0.0614    0.6577 C   0  0  0  0  0  0  0  0  0  0  0  0
    1.7292   -0.4338   -0.6164 C   0  0  0  0  0  0  0  0  0  0  0  0
    0.7094   -0.8551   -1.4526 O   0  0  0  0  0  0  0  0  0  0  0  0
   -0.4486   -1.0036   -0.7518 C   0  0  0  0  0  0  0  0  0  0  0  0
    0.9903    2.3096    0.7526 H   0  0  0  0  0  0  0  0  0  0  0  0
   -0.6584    2.2932   -1.1729 H   0  0  0  0  0  0  0  0  0  0  0  0
   -2.2352    0.2687   -1.1383 H   0  0  0  0  0  0  0  0  0  0  0  0
   -2.2516   -0.9209    0.9784 H   0  0  0  0  0  0  0  0  0  0  0  0
   -1.4962    0.6584    1.5950 H   0  0  0  0  0  0  0  0  0  0  0  0
    0.0200   -1.8125    1.2658 H   0  0  0  0  0  0  0  0  0  0  0  0
    1.7160    0.0674    1.5177 H   0  0  0  0  0  0  0  0  0  0  0  0
    2.4872   -1.2116   -0.4114 H   0  0  0  0  0  0  0  0  0  0  0  0
    2.2475    0.4091   -1.1202 H   0  0  0  0  0  0  0  0  0  0  0  0
   -1.0609   -1.8960   -0.9202 H   0  0  0  0  0  0  0  0  0  0  0  0
  1  2  2  0
  2  3  1  0
  3  4  1  0
  4  5  1  0
  5  6  1  0
  6  7  1  0
  7  8  1  0
  8  9  1  0
  6  1  1  0
  9  3  1  0
  9  5  1  0
  1 10  1  0
  2 11  1  0
  3 12  1  0
  4 13  1  0
  4 14  1  0
  5 15  1  0
  6 16  1  0
  7 17  1  0
  7 18  1  0
  9 19  1  0
M  END
