
     RDKit          3D

 21 23  0  0  0  0  0  0  0  0999 V2000
    1.4529    0.9017    0.3963 C   0  0  0  0  0  0  0  0  0  0  0  0
    0.3209    1.5607    0.5231 C   0  0  0  0  0  0  0  0  0  0  0  0
   -1.0902    1.2602    0.3355 C   0  0  0  0  0  0  0  0  0  0  0  0
   -1.5496   -0.1048    0.4808 C   0  0  0  0  0  0  0  0  0  0  0  0
   -0.5883   -1.1835    0.7122 C   0  0  0  0  0  0  0  0  0  0  0  0
    0.4710   -1.1585   -0.3546 C   0  0  0  0  0  0  0  0  0  0  0  0
    1.7134   -0.5789    0.3372 C   0  0  0  0  0  0  0  0  0  0  0  0
   -0.0438   -0.2024   -1.4027 C   0  0  0  0  0  0  0  0  0  0  0  0
   -1.3047    0.4101   -0.8599 C   0  0  0  0  0  0  0  0  0  0  0  0
    2.3950    1.4574    0.3157 H   0  0  0  0  0  0  0  0  0  0  0  0
    0.5092    2.5996    0.8558 H   0  0  0  0  0  0  0  0  0  0  0  0
   -1.8313    2.0651    0.5370 H   0  0  0  0  0  0  0  0  0  0  0  0
   -2.5749   -0.2792    0.8861 H   0  0  0  0  0  0  0  0  0  0  0  0
   -0.1631   -1.1888    1.7455 H   0  0  0  0  0  0  0  0  0  0  0  0
   -1.1155   -2.1692    0.6111 H   0  0  0  0  0  0  0  0  0  0  0  0
    0.7525   -2.1383   -0.7409 H   0  0  0  0  0  0  0  0  0  0  0  0
    1.7554   -0.9153    1.3979 H   0  0  0  0  0  0  0  0  0  0  0  0
    2.6225   -0.8207   -0.2096 H   0  0  0  0  0  0  0  0  0  0  0  0
   -0.3287   -0.7868   -2.3082 H   0  0  0  0  0  0  0  0  0  0  0  0
    0.7078    0.5365   -1.7124 H   0  0  0  0  0  0  0  0  0  0  0  0
   -2.1104    0.7351   -1.5458 H   0  0  0  0  0  0  0  0  0  0  0  0
  1  2  2  0
  2  3  1  0
  3  4  1  0
  4  5  1  0
  5  6  1  0
  6  7  1  0
  6  8  1  0
  8  9  1  0
  7  1  1  0
  9  3  1  0
  9  4  1  0
  1 10  1  0
  2 11  1  0
  3 12  1  0
  4 13  1  0
  5 14  1  0
  5 15  1  0
  6 16  1  0
  7 17  1  0
  7 18  1  0
  8 19  1  0
  8 20  1  0
  9 21  1  0
M  END
