
     RDKit          3D

 21 22  0  0  0  0  0  0  0  0999 V2000
    1.0559   -1.4307    0.2096 C   0  0  0  0  0  0  0  0  0  0  0  0
    1.8648   -0.4006    0.1147 C   0  0  0  0  0  0  0  0  0  0  0  0
    1.5347    1.0069    0.3494 C   0  0  0  0  0  0  0  0  0  0  0  0
    0.1172    1.3842    0.0708 C   0  0  0  0  0  0  0  0  0  0  0  0
   -0.3187    0.5761   -1.1439 C   0  0  0  0  0  0  0  0  0  0  0  0
   -1.1609   -0.4815   -0.4653 C   0  0  0  0  0  0  0  0  0  0  0  0
   -0.3915   -1.5722    0.1473 C   0  0  0  0  0  0  0  0  0  0  0  0
   -1.8138    0.3863    0.6220 C   0  0  0  0  0  0  0  0  0  0  0  0
   -0.7263    1.0696    1.1041 O   0  0  0  0  0  0  0  0  0  0  0  0
    1.5706   -2.3975    0.3705 H   0  0  0  0  0  0  0  0  0  0  0  0
    2.9003   -0.5762   -0.1666 H   0  0  0  0  0  0  0  0  0  0  0  0
    2.2065    1.6360   -0.2541 H   0  0  0  0  0  0  0  0  0  0  0  0
    1.7501    1.2752    1.4184 H   0  0  0  0  0  0  0  0  0  0  0  0
    0.0651    2.4692   -0.1256 H   0  0  0  0  0  0  0  0  0  0  0  0
   -0.9948    1.2182   -1.7323 H   0  0  0  0  0  0  0  0  0  0  0  0
    0.5198    0.1674   -1.7032 H   0  0  0  0  0  0  0  0  0  0  0  0
   -1.9451   -0.8703   -1.1428 H   0  0  0  0  0  0  0  0  0  0  0  0
   -0.6312   -2.5342   -0.3803 H   0  0  0  0  0  0  0  0  0  0  0  0
   -0.7632   -1.7169    1.2043 H   0  0  0  0  0  0  0  0  0  0  0  0
   -2.2844   -0.2385    1.3918 H   0  0  0  0  0  0  0  0  0  0  0  0
   -2.5553    1.0296    0.1110 H   0  0  0  0  0  0  0  0  0  0  0  0
  1  2  2  0
  2  3  1  0
  3  4  1  0
  4  5  1  0
  5  6  1  0
  6  7  1  0
  6  8  1  0
  8  9  1  0
  7  1  1  0
  9  4  1  0
  1 10  1  0
  2 11  1  0
  3 12  1  0
  3 13  1  0
  4 14  1  0
  5 15  1  0
  5 16  1  0
  6 17  1  0
  7 18  1  0
  7 19  1  0
  8 20  1  0
  8 21  1  0
M  END
