
     RDKit          3D

 19 21  0  0  0  0  0  0  0  0999 V2000
    2.0307   -0.4718   -0.1248 C   0  0  0  0  0  0  0  0  0  0  0  0
    1.6558    0.0912   -1.2794 C   0  0  0  0  0  0  0  0  0  0  0  0
    0.2223    0.4007   -1.0459 C   0  0  0  0  0  0  0  0  0  0  0  0
   -0.2307   -0.9106   -0.3829 C   0  0  0  0  0  0  0  0  0  0  0  0
   -1.6597   -0.8088   -0.0030 C   0  0  0  0  0  0  0  0  0  0  0  0
   -2.0740    0.4787    0.3215 O   0  0  0  0  0  0  0  0  0  0  0  0
   -1.0695    1.1397    0.9834 C   0  0  0  0  0  0  0  0  0  0  0  0
    0.2671    0.9440    0.3604 C   0  0  0  0  0  0  0  0  0  0  0  0
    0.7738   -0.4751    0.6642 C   0  0  0  0  0  0  0  0  0  0  0  0
    2.9924   -0.8466    0.2013 H   0  0  0  0  0  0  0  0  0  0  0  0
    2.2249    0.2879   -2.1782 H   0  0  0  0  0  0  0  0  0  0  0  0
   -0.3780    0.8310   -1.7828 H   0  0  0  0  0  0  0  0  0  0  0  0
    0.0207   -1.8098   -0.9435 H   0  0  0  0  0  0  0  0  0  0  0  0
   -1.9266   -1.5334    0.8174 H   0  0  0  0  0  0  0  0  0  0  0  0
   -2.2716   -1.1267   -0.8726 H   0  0  0  0  0  0  0  0  0  0  0  0
   -1.3107    2.2146    1.1230 H   0  0  0  0  0  0  0  0  0  0  0  0
   -1.0090    0.6999    2.0226 H   0  0  0  0  0  0  0  0  0  0  0  0
    1.0130    1.7307    0.4751 H   0  0  0  0  0  0  0  0  0  0  0  0
    0.7290   -0.8356    1.6443 H   0  0  0  0  0  0  0  0  0  0  0  0
  1  2  2  0
  2  3  1  0
  3  4  1  0
  4  5  1  0
  5  6  1  0
  6  7  1  0
  7  8  1  0
  8  9  1  0
  9  1  1  0
  8  3  1  0
  9  4  1  0
  1 10  1  0
  2 11  1  0
  3 12  1  0
  4 13  1  0
  5 14  1  0
  5 15  1  0
  7 16  1  0
  7 17  1  0
  8 18  1  0
  9 19  1  0
M  END
