
     RDKit          3D

 21 23  0  0  0  0  0  0  0  0999 V2000
    1.9852   -0.1518    1.0587 C   0  0  0  0  0  0  0  0  0  0  0  0
    2.2794    0.4282   -0.1048 C   0  0  0  0  0  0  0  0  0  0  0  0
    1.2330    0.0442   -1.1012 C   0  0  0  0  0  0  0  0  0  0  0  0
    0.0629   -0.1643   -0.1856 C   0  0  0  0  0  0  0  0  0  0  0  0
    0.7141   -0.9608    0.8959 C   0  0  0  0  0  0  0  0  0  0  0  0
   -0.4919    1.1315    0.3510 C   0  0  0  0  0  0  0  0  0  0  0  0
   -1.8204    0.7519   -0.2758 C   0  0  0  0  0  0  0  0  0  0  0  0
   -2.4196   -0.5193    0.1302 C   0  0  0  0  0  0  0  0  0  0  0  0
   -1.2135   -0.5975   -0.7513 C   0  0  0  0  0  0  0  0  0  0  0  0
    2.5782   -0.0445    1.9612 H   0  0  0  0  0  0  0  0  0  0  0  0
    3.1286    1.0718   -0.3111 H   0  0  0  0  0  0  0  0  0  0  0  0
    1.5503   -0.9557   -1.5132 H   0  0  0  0  0  0  0  0  0  0  0  0
    1.0763    0.7991   -1.8686 H   0  0  0  0  0  0  0  0  0  0  0  0
    1.0770   -1.9547    0.5132 H   0  0  0  0  0  0  0  0  0  0  0  0
    0.1572   -1.0343    1.8262 H   0  0  0  0  0  0  0  0  0  0  0  0
   -0.5832    1.1467    1.4423 H   0  0  0  0  0  0  0  0  0  0  0  0
   -0.0238    2.0183   -0.1242 H   0  0  0  0  0  0  0  0  0  0  0  0
   -2.2675    1.3979   -1.0323 H   0  0  0  0  0  0  0  0  0  0  0  0
   -3.4187   -0.7568   -0.2866 H   0  0  0  0  0  0  0  0  0  0  0  0
   -2.2113   -0.8525    1.1831 H   0  0  0  0  0  0  0  0  0  0  0  0
   -1.3922   -0.7974   -1.8071 H   0  0  0  0  0  0  0  0  0  0  0  0
  1  2  2  0
  2  3  1  0
  3  4  1  0
  4  5  1  0
  4  6  1  0
  6  7  1  0
  7  8  1  0
  8  9  1  0
  5  1  1  0
  9  7  1  0
  9  4  1  0
  1 10  1  0
  2 11  1  0
  3 12  1  0
  3 13  1  0
  5 14  1  0
  5 15  1  0
  6 16  1  0
  6 17  1  0
  7 18  1  0
  8 19  1  0
  8 20  1  0
  9 21  1  0
M  END
