
     RDKit          3D

 21 22  0  0  0  0  0  0  0  0999 V2000
    2.1695    0.0628   -0.4112 C   0  0  0  0  0  0  0  0  0  0  0  0
    1.8542    0.8697    0.5945 C   0  0  0  0  0  0  0  0  0  0  0  0
    0.5867    0.3937    1.2189 C   0  0  0  0  0  0  0  0  0  0  0  0
   -0.0467   -0.3274    0.0767 C   0  0  0  0  0  0  0  0  0  0  0  0
    1.1449   -1.0135   -0.5423 C   0  0  0  0  0  0  0  0  0  0  0  0
   -0.6293    0.6621   -0.9051 C   0  0  0  0  0  0  0  0  0  0  0  0
   -2.0788    0.6919   -0.4016 C   0  0  0  0  0  0  0  0  0  0  0  0
   -2.3290   -0.6645   -0.2088 O   0  0  0  0  0  0  0  0  0  0  0  0
   -1.1847   -1.1927    0.4068 C   0  0  0  0  0  0  0  0  0  0  0  0
    3.0405    0.1765   -1.0363 H   0  0  0  0  0  0  0  0  0  0  0  0
    2.3961    1.7385    0.9391 H   0  0  0  0  0  0  0  0  0  0  0  0
   -0.0414    1.2157    1.5899 H   0  0  0  0  0  0  0  0  0  0  0  0
    0.8308   -0.3524    2.0207 H   0  0  0  0  0  0  0  0  0  0  0  0
    0.9338   -1.2675   -1.5903 H   0  0  0  0  0  0  0  0  0  0  0  0
    1.4655   -1.8869    0.0645 H   0  0  0  0  0  0  0  0  0  0  0  0
   -0.6723    0.2663   -1.9342 H   0  0  0  0  0  0  0  0  0  0  0  0
   -0.1335    1.6260   -0.8038 H   0  0  0  0  0  0  0  0  0  0  0  0
   -2.0967    1.2732    0.5388 H   0  0  0  0  0  0  0  0  0  0  0  0
   -2.7236    1.1014   -1.1837 H   0  0  0  0  0  0  0  0  0  0  0  0
   -1.3778   -1.1325    1.5089 H   0  0  0  0  0  0  0  0  0  0  0  0
   -1.1081   -2.2404    0.0586 H   0  0  0  0  0  0  0  0  0  0  0  0
  1  2  2  0
  2  3  1  0
  3  4  1  0
  4  5  1  0
  4  6  1  0
  6  7  1  0
  7  8  1  0
  8  9  1  0
  5  1  1  0
  9  4  1  0
  1 10  1  0
  2 11  1  0
  3 12  1  0
  3 13  1  0
  5 14  1  0
  5 15  1  0
  6 16  1  0
  6 17  1  0
  7 18  1  0
  7 19  1  0
  9 20  1  0
  9 21  1  0
M  END
