
     RDKit          3D

 19 21  0  0  0  0  0  0  0  0999 V2000
   -0.7134    1.7439    0.0184 C   0  0  0  0  0  0  0  0  0  0  0  0
   -1.6859    0.8774   -0.1762 C   0  0  0  0  0  0  0  0  0  0  0  0
   -1.3575   -0.4745   -0.6831 C   0  0  0  0  0  0  0  0  0  0  0  0
   -1.2561   -1.5320    0.4028 C   0  0  0  0  0  0  0  0  0  0  0  0
   -0.0603   -1.0285   -0.3119 C   0  0  0  0  0  0  0  0  0  0  0  0
    0.8833   -0.0633    0.2744 C   0  0  0  0  0  0  0  0  0  0  0  0
    0.6716    1.3186   -0.2819 C   0  0  0  0  0  0  0  0  0  0  0  0
    2.3274   -0.4158    0.5141 C   0  0  0  0  0  0  0  0  0  0  0  0
    1.4173   -0.2239    1.5395 O   0  0  0  0  0  0  0  0  0  0  0  0
   -0.9173    2.7242    0.3819 H   0  0  0  0  0  0  0  0  0  0  0  0
   -2.7236    1.1768    0.0428 H   0  0  0  0  0  0  0  0  0  0  0  0
   -1.7951   -0.7710   -1.6609 H   0  0  0  0  0  0  0  0  0  0  0  0
   -1.4135   -1.2499    1.4555 H   0  0  0  0  0  0  0  0  0  0  0  0
   -1.6780   -2.5018    0.1185 H   0  0  0  0  0  0  0  0  0  0  0  0
    0.4129   -1.7695   -1.0056 H   0  0  0  0  0  0  0  0  0  0  0  0
    1.4334    2.0236    0.1325 H   0  0  0  0  0  0  0  0  0  0  0  0
    0.7517    1.2499   -1.4042 H   0  0  0  0  0  0  0  0  0  0  0  0
    2.5983   -1.4453    0.2123 H   0  0  0  0  0  0  0  0  0  0  0  0
    3.1050    0.3611    0.4311 H   0  0  0  0  0  0  0  0  0  0  0  0
  1  2  2  0
  2  3  1  0
  3  4  1  0
  4  5  1  0
  5  6  1  0
  6  7  1  0
  6  8  1  0
  8  9  1  0
  7  1  1  0
  5  3  1  0
  9  6  1  0
  1 10  1  0
  2 11  1  0
  3 12  1  0
  4 13  1  0
  4 14  1  0
  5 15  1  0
  7 16  1  0
  7 17  1  0
  8 18  1  0
  8 19  1  0
M  END
