
     RDKit          3D

 19 21  0  0  0  0  0  0  0  0999 V2000
    1.8210   -0.1721   -0.9374 C   0  0  0  0  0  0  0  0  0  0  0  0
    1.1102    0.9347   -1.0122 C   0  0  0  0  0  0  0  0  0  0  0  0
   -0.1015    0.8768   -0.1860 C   0  0  0  0  0  0  0  0  0  0  0  0
   -1.4560    0.6853   -0.7252 C   0  0  0  0  0  0  0  0  0  0  0  0
   -1.8147   -0.6546   -0.5306 O   0  0  0  0  0  0  0  0  0  0  0  0
   -1.2875   -1.0439    0.6926 C   0  0  0  0  0  0  0  0  0  0  0  0
    0.0742   -0.3924    0.6729 C   0  0  0  0  0  0  0  0  0  0  0  0
    1.1435   -1.1034   -0.0358 C   0  0  0  0  0  0  0  0  0  0  0  0
    0.1616    0.9392    1.2774 C   0  0  0  0  0  0  0  0  0  0  0  0
    2.7767   -0.4096   -1.4492 H   0  0  0  0  0  0  0  0  0  0  0  0
    1.4015    1.7798   -1.6186 H   0  0  0  0  0  0  0  0  0  0  0  0
   -1.5887    0.9697   -1.7631 H   0  0  0  0  0  0  0  0  0  0  0  0
   -2.1665    1.3283   -0.1267 H   0  0  0  0  0  0  0  0  0  0  0  0
   -1.1998   -2.1344    0.7310 H   0  0  0  0  0  0  0  0  0  0  0  0
   -1.8402   -0.6712    1.5603 H   0  0  0  0  0  0  0  0  0  0  0  0
    1.8422   -1.6671    0.6247 H   0  0  0  0  0  0  0  0  0  0  0  0
    0.6711   -1.9064   -0.6840 H   0  0  0  0  0  0  0  0  0  0  0  0
    1.1349    1.3601    1.6234 H   0  0  0  0  0  0  0  0  0  0  0  0
   -0.6820    1.2813    1.8863 H   0  0  0  0  0  0  0  0  0  0  0  0
  1  2  2  0
  2  3  1  0
  3  4  1  0
  4  5  1  0
  5  6  1  0
  6  7  1  0
  7  8  1  0
  7  9  1  0
  8  1  1  0
  7  3  1  0
  9  3  1  0
  1 10  1  0
  2 11  1  0
  4 12  1  0
  4 13  1  0
  6 14  1  0
  6 15  1  0
  8 16  1  0
  8 17  1  0
  9 18  1  0
  9 19  1  0
M  END
