
     RDKit          3D

 19 21  0  0  0  0  0  0  0  0999 V2000
   -1.5259    0.8492    0.4788 C   0  0  0  0  0  0  0  0  0  0  0  0
   -1.8023   -0.4156    0.2779 C   0  0  0  0  0  0  0  0  0  0  0  0
   -0.8627   -1.3386   -0.3374 C   0  0  0  0  0  0  0  0  0  0  0  0
    0.5323   -0.8901   -0.3930 C   0  0  0  0  0  0  0  0  0  0  0  0
    0.6806    0.5980   -0.6516 C   0  0  0  0  0  0  0  0  0  0  0  0
   -0.2495    1.4561    0.1059 C   0  0  0  0  0  0  0  0  0  0  0  0
    2.0421    0.3213   -0.0848 C   0  0  0  0  0  0  0  0  0  0  0  0
    2.4040   -0.0355    1.1230 O   0  0  0  0  0  0  0  0  0  0  0  0
    1.2161   -0.5641    0.8958 C   0  0  0  0  0  0  0  0  0  0  0  0
   -2.2714    1.4749    0.9401 H   0  0  0  0  0  0  0  0  0  0  0  0
   -2.7830   -0.7982    0.5855 H   0  0  0  0  0  0  0  0  0  0  0  0
   -0.9055   -2.3518    0.1404 H   0  0  0  0  0  0  0  0  0  0  0  0
   -1.1834   -1.5607   -1.4034 H   0  0  0  0  0  0  0  0  0  0  0  0
    1.1519   -1.4604   -1.1187 H   0  0  0  0  0  0  0  0  0  0  0  0
    0.6706    0.7867   -1.7206 H   0  0  0  0  0  0  0  0  0  0  0  0
    0.2989    1.9111    0.9847 H   0  0  0  0  0  0  0  0  0  0  0  0
   -0.4913    2.3599   -0.5302 H   0  0  0  0  0  0  0  0  0  0  0  0
    2.6171   -0.3047   -0.8462 H   0  0  0  0  0  0  0  0  0  0  0  0
    0.4614   -0.0374    1.5539 H   0  0  0  0  0  0  0  0  0  0  0  0
  1  2  2  0
  2  3  1  0
  3  4  1  0
  4  5  1  0
  5  6  1  0
  5  7  1  0
  7  8  1  0
  8  9  1  0
  6  1  1  0
  9  7  1  0
  9  4  1  0
  1 10  1  0
  2 11  1  0
  3 12  1  0
  3 13  1  0
  4 14  1  0
  5 15  1  0
  6 16  1  0
  6 17  1  0
  7 18  1  0
  9 19  1  0
M  END
