
     RDKit          3D

 19 22  0  0  0  0  0  0  0  0999 V2000
    1.8378    0.4548    0.4382 C   0  0  0  0  0  0  0  0  0  0  0  0
    1.4831   -0.6039   -0.5253 C   0  0  0  0  0  0  0  0  0  0  0  0
    0.2963   -1.4544   -0.1660 C   0  0  0  0  0  0  0  0  0  0  0  0
   -0.9091   -0.6655   -0.5510 C   0  0  0  0  0  0  0  0  0  0  0  0
   -1.9106   -0.2221    0.4743 C   0  0  0  0  0  0  0  0  0  0  0  0
   -1.3677    1.1970    0.3094 C   0  0  0  0  0  0  0  0  0  0  0  0
   -0.4686    0.6815   -0.7592 C   0  0  0  0  0  0  0  0  0  0  0  0
   -0.9626   -0.0993   -1.7950 O   0  0  0  0  0  0  0  0  0  0  0  0
    1.0016    0.8071   -0.6970 C   0  0  0  0  0  0  0  0  0  0  0  0
    1.4416    0.3484    1.4807 H   0  0  0  0  0  0  0  0  0  0  0  0
    2.8852    0.7923    0.4272 H   0  0  0  0  0  0  0  0  0  0  0  0
    2.1588   -0.9492   -1.3237 H   0  0  0  0  0  0  0  0  0  0  0  0
    0.3038   -2.4490   -0.6763 H   0  0  0  0  0  0  0  0  0  0  0  0
    0.3503   -1.6649    0.9135 H   0  0  0  0  0  0  0  0  0  0  0  0
   -1.6686   -0.6800    1.4604 H   0  0  0  0  0  0  0  0  0  0  0  0
   -2.9430   -0.3619    0.1177 H   0  0  0  0  0  0  0  0  0  0  0  0
   -2.1742    1.8951   -0.0219 H   0  0  0  0  0  0  0  0  0  0  0  0
   -0.8010    1.5306    1.1991 H   0  0  0  0  0  0  0  0  0  0  0  0
    1.4471    1.4434   -1.5116 H   0  0  0  0  0  0  0  0  0  0  0  0
  1  2  1  0
  2  3  1  0
  3  4  1  0
  4  5  1  0
  5  6  1  0
  6  7  1  0
  7  8  1  0
  7  9  1  0
  9  1  1  0
  9  2  1  0
  7  4  1  0
  8  4  1  0
  1 10  1  0
  1 11  1  0
  2 12  1  0
  3 13  1  0
  3 14  1  0
  5 15  1  0
  5 16  1  0
  6 17  1  0
  6 18  1  0
  9 19  1  0
M  END
