
     RDKit          3D

 19 22  0  0  0  0  0  0  0  0999 V2000
    2.6742   -0.3312   -0.3774 C   0  0  0  0  0  0  0  0  0  0  0  0
    1.9202    0.9453   -0.3802 C   0  0  0  0  0  0  0  0  0  0  0  0
    0.6007    1.0336   -0.7278 O   0  0  0  0  0  0  0  0  0  0  0  0
    0.2495    0.0894    0.1777 C   0  0  0  0  0  0  0  0  0  0  0  0
    1.5990   -0.1812    0.6515 C   0  0  0  0  0  0  0  0  0  0  0  0
   -0.7536   -0.9001   -0.2088 C   0  0  0  0  0  0  0  0  0  0  0  0
   -1.9634   -0.3073   -0.9297 C   0  0  0  0  0  0  0  0  0  0  0  0
   -2.2779    0.4370    0.3428 C   0  0  0  0  0  0  0  0  0  0  0  0
   -0.9772    0.0491    0.9533 C   0  0  0  0  0  0  0  0  0  0  0  0
    2.5223   -1.0690   -1.2117 H   0  0  0  0  0  0  0  0  0  0  0  0
    3.7078   -0.2765   -0.0141 H   0  0  0  0  0  0  0  0  0  0  0  0
    2.3667    1.8646    0.0174 H   0  0  0  0  0  0  0  0  0  0  0  0
    1.9300    0.0825    1.6960 H   0  0  0  0  0  0  0  0  0  0  0  0
   -0.6847   -1.9670   -0.0447 H   0  0  0  0  0  0  0  0  0  0  0  0
   -2.6994   -1.0209   -1.2846 H   0  0  0  0  0  0  0  0  0  0  0  0
   -1.6447    0.4333   -1.7141 H   0  0  0  0  0  0  0  0  0  0  0  0
   -2.4017    1.5287    0.2516 H   0  0  0  0  0  0  0  0  0  0  0  0
   -3.1912    0.0083    0.8509 H   0  0  0  0  0  0  0  0  0  0  0  0
   -0.9766   -0.4185    1.9518 H   0  0  0  0  0  0  0  0  0  0  0  0
  1  2  1  0
  2  3  1  0
  3  4  1  0
  4  5  1  0
  4  6  1  0
  6  7  1  0
  7  8  1  0
  8  9  1  0
  5  1  1  0
  9  6  1  0
  5  2  1  0
  9  4  1  0
  1 10  1  0
  1 11  1  0
  2 12  1  0
  5 13  1  0
  6 14  1  0
  7 15  1  0
  7 16  1  0
  8 17  1  0
  8 18  1  0
  9 19  1  0
M  END
