
     RDKit          3D

 15 17  0  0  0  0  0  0  0  0999 V2000
   -0.5953    0.0911   -1.2652 C   0  0  0  0  0  0  0  0  0  0  0  0
   -0.6105   -0.8339   -0.0596 C   0  0  0  0  0  0  0  0  0  0  0  0
   -1.3817    0.2671    0.6201 C   0  0  0  0  0  0  0  0  0  0  0  0
   -0.2506    0.9823   -0.0966 C   0  0  0  0  0  0  0  0  0  0  0  0
    0.6114   -0.1230    0.3675 C   0  0  0  0  0  0  0  0  0  0  0  0
    1.9228   -0.3731    0.3610 C   0  0  0  0  0  0  0  0  0  0  0  0
    1.1740   -0.2094    1.5967 O   0  0  0  0  0  0  0  0  0  0  0  0
   -1.5661    0.3151   -1.7081 H   0  0  0  0  0  0  0  0  0  0  0  0
    0.2083   -0.0896   -1.9881 H   0  0  0  0  0  0  0  0  0  0  0  0
   -0.8293   -1.8083   -0.0732 H   0  0  0  0  0  0  0  0  0  0  0  0
   -1.3242    0.2873    1.7160 H   0  0  0  0  0  0  0  0  0  0  0  0
   -2.3654    0.5111    0.1690 H   0  0  0  0  0  0  0  0  0  0  0  0
   -0.0975    1.9681   -0.1167 H   0  0  0  0  0  0  0  0  0  0  0  0
    2.3831   -1.3962    0.2706 H   0  0  0  0  0  0  0  0  0  0  0  0
    2.7211    0.4114    0.2066 H   0  0  0  0  0  0  0  0  0  0  0  0
  1  2  1  0
  2  3  1  0
  3  4  1  0
  4  5  1  0
  5  6  1  0
  6  7  1  0
  4  1  1  0
  7  5  1  0
  5  2  1  0
  1  8  1  0
  1  9  1  0
  2 10  1  0
  3 11  1  0
  3 12  1  0
  4 13  1  0
  6 14  1  0
  6 15  1  0
M  END
