
     RDKit          3D

 19 21  0  0  0  0  0  0  0  0999 V2000
    2.5785   -0.2601   -0.6072 C   0  0  0  0  0  0  0  0  0  0  0  0
    1.6730    0.7667   -0.2685 C   0  0  0  0  0  0  0  0  0  0  0  0
    1.0739    1.1542    0.8778 O   0  0  0  0  0  0  0  0  0  0  0  0
   -0.3110    1.1179    0.6052 C   0  0  0  0  0  0  0  0  0  0  0  0
   -0.8030   -0.0926   -0.0680 C   0  0  0  0  0  0  0  0  0  0  0  0
   -1.7463   -0.9621    0.6715 C   0  0  0  0  0  0  0  0  0  0  0  0
   -2.2030   -0.1306   -0.4872 C   0  0  0  0  0  0  0  0  0  0  0  0
    0.1017   -0.7134   -0.9637 O   0  0  0  0  0  0  0  0  0  0  0  0
    1.2823   -0.7512   -0.3157 C   0  0  0  0  0  0  0  0  0  0  0  0
    2.9403   -0.3316   -1.6756 H   0  0  0  0  0  0  0  0  0  0  0  0
    3.4307   -0.5537    0.0655 H   0  0  0  0  0  0  0  0  0  0  0  0
    1.2951    1.4074   -1.1237 H   0  0  0  0  0  0  0  0  0  0  0  0
   -0.4927    2.0470   -0.0115 H   0  0  0  0  0  0  0  0  0  0  0  0
   -0.8345    1.2724    1.5446 H   0  0  0  0  0  0  0  0  0  0  0  0
   -1.6621   -2.0527    0.5848 H   0  0  0  0  0  0  0  0  0  0  0  0
   -2.1009   -0.6089    1.6570 H   0  0  0  0  0  0  0  0  0  0  0  0
   -2.4902   -0.7556   -1.3834 H   0  0  0  0  0  0  0  0  0  0  0  0
   -2.8926    0.7169   -0.3484 H   0  0  0  0  0  0  0  0  0  0  0  0
    1.1606   -1.2699    0.6828 H   0  0  0  0  0  0  0  0  0  0  0  0
  1  2  1  0
  2  3  1  0
  3  4  1  0
  4  5  1  0
  5  6  1  0
  6  7  1  0
  5  8  1  0
  8  9  1  0
  9  1  1  0
  9  2  1  0
  7  5  1  0
  1 10  1  0
  1 11  1  0
  2 12  1  0
  4 13  1  0
  4 14  1  0
  6 15  1  0
  6 16  1  0
  7 17  1  0
  7 18  1  0
  9 19  1  0
M  END
