
     RDKit          3D

 18 21  0  0  0  0  0  0  0  0999 V2000
   -1.0697   -1.0532    0.2329 C   0  0  0  0  0  0  0  0  0  0  0  0
    0.1057   -0.9607   -0.7539 C   0  0  0  0  0  0  0  0  0  0  0  0
    1.2263   -0.8043    0.2844 C   0  0  0  0  0  0  0  0  0  0  0  0
    0.6669    0.4618    0.9538 C   0  0  0  0  0  0  0  0  0  0  0  0
   -0.8209    0.3070    0.9028 C   0  0  0  0  0  0  0  0  0  0  0  0
   -0.8195    1.1940   -0.3143 C   0  0  0  0  0  0  0  0  0  0  0  0
   -0.0362    0.4021   -1.2894 C   0  0  0  0  0  0  0  0  0  0  0  0
    0.5876    1.3529   -0.2253 C   0  0  0  0  0  0  0  0  0  0  0  0
   -0.9378   -1.8847    0.9262 H   0  0  0  0  0  0  0  0  0  0  0  0
   -2.0277   -1.0640   -0.2936 H   0  0  0  0  0  0  0  0  0  0  0  0
    0.2084   -1.7853   -1.4044 H   0  0  0  0  0  0  0  0  0  0  0  0
    2.1582   -0.5266   -0.2029 H   0  0  0  0  0  0  0  0  0  0  0  0
    1.2724   -1.6456    0.9738 H   0  0  0  0  0  0  0  0  0  0  0  0
    1.1411    0.7764    1.8592 H   0  0  0  0  0  0  0  0  0  0  0  0
   -1.4226    0.5591    1.7408 H   0  0  0  0  0  0  0  0  0  0  0  0
   -1.6053    1.8799   -0.5492 H   0  0  0  0  0  0  0  0  0  0  0  0
    0.1102    0.6840   -2.3254 H   0  0  0  0  0  0  0  0  0  0  0  0
    1.2629    2.1072   -0.5155 H   0  0  0  0  0  0  0  0  0  0  0  0
  1  2  1  0
  2  3  1  0
  3  4  1  0
  4  5  1  0
  5  6  1  0
  6  7  1  0
  7  8  1  0
  5  1  1  0
  8  6  1  0
  7  2  1  0
  8  4  1  0
  1  9  1  0
  1 10  1  0
  2 11  1  0
  3 12  1  0
  3 13  1  0
  4 14  1  0
  5 15  1  0
  6 16  1  0
  7 17  1  0
  8 18  1  0
M  END
