
     RDKit          3D

 19 23  0  0  0  0  0  0  0  0999 V2000
    1.6158    0.3941    0.3992 C   0  0  0  0  0  0  0  0  0  0  0  0
    0.5073    1.4226    0.3693 C   0  0  0  0  0  0  0  0  0  0  0  0
   -0.3334    1.1032   -0.7919 C   0  0  0  0  0  0  0  0  0  0  0  0
   -0.8969    1.0346    0.5820 C   0  0  0  0  0  0  0  0  0  0  0  0
   -1.2805   -0.4238    0.8121 C   0  0  0  0  0  0  0  0  0  0  0  0
   -0.1543   -1.3726    0.6126 C   0  0  0  0  0  0  0  0  0  0  0  0
    0.9854   -0.8329   -0.2229 C   0  0  0  0  0  0  0  0  0  0  0  0
   -0.0504   -0.3114   -1.1975 C   0  0  0  0  0  0  0  0  0  0  0  0
   -1.0998   -1.0832   -0.4749 C   0  0  0  0  0  0  0  0  0  0  0  0
    2.0121    0.2182    1.4079 H   0  0  0  0  0  0  0  0  0  0  0  0
    2.4344    0.7203   -0.2946 H   0  0  0  0  0  0  0  0  0  0  0  0
    0.7505    2.4836    0.5263 H   0  0  0  0  0  0  0  0  0  0  0  0
   -0.7422    1.8332   -1.4847 H   0  0  0  0  0  0  0  0  0  0  0  0
   -1.6280    1.7396    0.9676 H   0  0  0  0  0  0  0  0  0  0  0  0
   -2.0427   -0.6735    1.5542 H   0  0  0  0  0  0  0  0  0  0  0  0
   -0.1144   -2.3631    1.0528 H   0  0  0  0  0  0  0  0  0  0  0  0
    1.6728   -1.5805   -0.6281 H   0  0  0  0  0  0  0  0  0  0  0  0
    0.1251   -0.5184   -2.2464 H   0  0  0  0  0  0  0  0  0  0  0  0
   -1.7608   -1.7899   -0.9428 H   0  0  0  0  0  0  0  0  0  0  0  0
  1  2  1  0
  2  3  1  0
  3  4  1  0
  4  5  1  0
  5  6  1  0
  6  7  1  0
  7  8  1  0
  8  9  1  0
  7  1  1  0
  4  2  1  0
  9  5  1  0
  8  3  1  0
  9  6  1  0
  1 10  1  0
  1 11  1  0
  2 12  1  0
  3 13  1  0
  4 14  1  0
  5 15  1  0
  6 16  1  0
  7 17  1  0
  8 18  1  0
  9 19  1  0
M  END
