
     RDKit          3D

 19 21  0  0  0  0  0  0  0  0999 V2000
    2.3579   -0.1321    0.1389 C   0  0  0  0  0  0  0  0  0  0  0  0
    1.2622    0.7228   -0.1145 C   0  0  0  0  0  0  0  0  0  0  0  0
    0.2668    0.8023   -1.1952 C   0  0  0  0  0  0  0  0  0  0  0  0
   -1.0427    0.3685   -0.5250 C   0  0  0  0  0  0  0  0  0  0  0  0
   -1.4311   -0.9214   -0.7453 O   0  0  0  0  0  0  0  0  0  0  0  0
   -2.0689   -0.8526    0.5164 C   0  0  0  0  0  0  0  0  0  0  0  0
   -0.9055    0.0667    0.9188 C   0  0  0  0  0  0  0  0  0  0  0  0
    0.1742   -0.6888    1.3091 O   0  0  0  0  0  0  0  0  0  0  0  0
    1.1008   -0.7705    0.3366 C   0  0  0  0  0  0  0  0  0  0  0  0
    2.9996    0.0583    1.0335 H   0  0  0  0  0  0  0  0  0  0  0  0
    3.0044   -0.4535   -0.7159 H   0  0  0  0  0  0  0  0  0  0  0  0
    1.0409    1.5039    0.6757 H   0  0  0  0  0  0  0  0  0  0  0  0
    0.4913    0.0762   -2.0167 H   0  0  0  0  0  0  0  0  0  0  0  0
    0.1082    1.8257   -1.5922 H   0  0  0  0  0  0  0  0  0  0  0  0
   -1.8754    1.0688   -0.6974 H   0  0  0  0  0  0  0  0  0  0  0  0
   -2.1219   -1.7887    1.0631 H   0  0  0  0  0  0  0  0  0  0  0  0
   -2.9787   -0.2383    0.4351 H   0  0  0  0  0  0  0  0  0  0  0  0
   -1.1865    0.8668    1.6220 H   0  0  0  0  0  0  0  0  0  0  0  0
    0.8043   -1.5143   -0.4469 H   0  0  0  0  0  0  0  0  0  0  0  0
  1  2  1  0
  2  3  1  0
  3  4  1  0
  4  5  1  0
  5  6  1  0
  6  7  1  0
  7  8  1  0
  8  9  1  0
  9  1  1  0
  9  2  1  0
  7  4  1  0
  1 10  1  0
  1 11  1  0
  2 12  1  0
  3 13  1  0
  3 14  1  0
  4 15  1  0
  6 16  1  0
  6 17  1  0
  7 18  1  0
  9 19  1  0
M  END
