
     RDKit          3D

 16 19  0  0  0  0  0  0  0  0999 V2000
    1.7348   -0.2558   -0.0930 C   0  0  0  0  0  0  0  0  0  0  0  0
    0.6640    0.1465    0.8870 C   0  0  0  0  0  0  0  0  0  0  0  0
   -0.1420   -0.9723    0.3148 C   0  0  0  0  0  0  0  0  0  0  0  0
    0.4634   -0.3264   -0.8933 C   0  0  0  0  0  0  0  0  0  0  0  0
    0.0972    0.9687   -0.2332 C   0  0  0  0  0  0  0  0  0  0  0  0
   -1.3874    0.9663   -0.0102 C   0  0  0  0  0  0  0  0  0  0  0  0
   -1.9303    0.4635    1.1497 O   0  0  0  0  0  0  0  0  0  0  0  0
   -1.5792   -0.5353    0.2737 C   0  0  0  0  0  0  0  0  0  0  0  0
    2.3837    0.5648   -0.4638 H   0  0  0  0  0  0  0  0  0  0  0  0
    2.2178   -1.1971    0.1655 H   0  0  0  0  0  0  0  0  0  0  0  0
    0.7839    0.4091    1.8432 H   0  0  0  0  0  0  0  0  0  0  0  0
    0.0961   -1.9860    0.5524 H   0  0  0  0  0  0  0  0  0  0  0  0
    0.3581   -0.5829   -1.8522 H   0  0  0  0  0  0  0  0  0  0  0  0
    0.5887    1.8719   -0.5265 H   0  0  0  0  0  0  0  0  0  0  0  0
   -2.0651    1.4624   -0.7015 H   0  0  0  0  0  0  0  0  0  0  0  0
   -2.2836   -0.9974   -0.4125 H   0  0  0  0  0  0  0  0  0  0  0  0
  1  2  1  0
  2  3  1  0
  3  4  1  0
  4  5  1  0
  5  6  1  0
  6  7  1  0
  7  8  1  0
  4  1  1  0
  8  6  1  0
  5  2  1  0
  8  3  1  0
  1  9  1  0
  1 10  1  0
  2 11  1  0
  3 12  1  0
  4 13  1  0
  5 14  1  0
  6 15  1  0
  8 16  1  0
M  END
