
     RDKit          3D

 19 22  0  0  0  0  0  0  0  0999 V2000
    0.9371   -0.6055   -0.9303 C   0  0  0  0  0  0  0  0  0  0  0  0
    0.0442   -1.5155   -0.0647 C   0  0  0  0  0  0  0  0  0  0  0  0
   -1.3752   -1.2242    0.1030 C   0  0  0  0  0  0  0  0  0  0  0  0
   -1.9325   -0.2387   -0.6709 O   0  0  0  0  0  0  0  0  0  0  0  0
   -1.1772    0.8917   -0.5782 C   0  0  0  0  0  0  0  0  0  0  0  0
   -0.1501    0.7419    0.5077 C   0  0  0  0  0  0  0  0  0  0  0  0
    0.9141    1.6563    0.4555 C   0  0  0  0  0  0  0  0  0  0  0  0
    1.3332    0.3649    0.1039 C   0  0  0  0  0  0  0  0  0  0  0  0
   -0.4543   -0.5497    1.0643 C   0  0  0  0  0  0  0  0  0  0  0  0
    0.4738   -0.2720   -1.8356 H   0  0  0  0  0  0  0  0  0  0  0  0
    1.8256   -1.2448   -1.2112 H   0  0  0  0  0  0  0  0  0  0  0  0
    0.4757   -2.4344    0.3333 H   0  0  0  0  0  0  0  0  0  0  0  0
   -2.0345   -2.0446    0.3971 H   0  0  0  0  0  0  0  0  0  0  0  0
   -1.8766    1.7051   -0.2065 H   0  0  0  0  0  0  0  0  0  0  0  0
   -0.7953    1.2804   -1.5271 H   0  0  0  0  0  0  0  0  0  0  0  0
    1.2701    2.1208    1.4121 H   0  0  0  0  0  0  0  0  0  0  0  0
    0.9659    2.4451   -0.3536 H   0  0  0  0  0  0  0  0  0  0  0  0
    1.9048   -0.1972    0.9142 H   0  0  0  0  0  0  0  0  0  0  0  0
   -0.3488   -0.8793    2.0868 H   0  0  0  0  0  0  0  0  0  0  0  0
  1  2  1  0
  2  3  1  0
  3  4  1  0
  4  5  1  0
  5  6  1  0
  6  7  1  0
  7  8  1  0
  6  9  1  0
  8  1  1  0
  9  2  1  0
  9  3  1  0
  8  6  1  0
  1 10  1  0
  1 11  1  0
  2 12  1  0
  3 13  1  0
  5 14  1  0
  5 15  1  0
  7 16  1  0
  7 17  1  0
  8 18  1  0
  9 19  1  0
M  END
