
     RDKit          2D

 17 21  0  0  0  0  0  0  0  0999 V2000
   -3.1905    1.7247    0.0000 C   0  0  0  0  0  0  0  0  0  0  0  0
   -2.8023    0.2758    0.0000 C   0  0  0  0  0  0  0  0  0  0  0  0
   -2.1213   -1.0607    0.0000 C   0  0  0  0  0  0  0  0  0  0  0  0
   -1.0607   -2.1213    0.0000 C   0  0  0  0  0  0  0  0  0  0  0  0
   -0.0000   -1.0607    0.0000 C   0  0  0  0  0  0  0  0  0  0  0  0
    1.0607    0.0000    0.0000 O   0  0  0  0  0  0  0  0  0  0  0  0
    0.0000    1.0607    0.0000 C   0  0  0  0  0  0  0  0  0  0  0  0
   -1.7416    1.3365    0.0000 C   0  0  0  0  0  0  0  0  0  0  0  0
   -1.0607    0.0000    0.0000 C   0  0  0  0  0  0  0  0  0  0  0  0
   -4.6848    1.5940    0.0000 H   0  0  0  0  0  0  0  0  0  0  0  0
   -3.0598    3.2190    0.0000 H   0  0  0  0  0  0  0  0  0  0  0  0
   -4.2027   -0.2617    0.0000 H   0  0  0  0  0  0  0  0  0  0  0  0
   -3.6213   -1.0607    0.0000 H   0  0  0  0  0  0  0  0  0  0  0  0
   -1.0607   -3.6213    0.0000 H   0  0  0  0  0  0  0  0  0  0  0  0
    1.0607   -2.1213    0.0000 H   0  0  0  0  0  0  0  0  0  0  0  0
   -1.9127    0.2565    0.0000 H   0  0  0  0  0  0  0  0  0  0  0  0
   -1.7440    0.4105    0.0000 H   0  0  0  0  0  0  0  0  0  0  0  0
  1  2  1  0
  2  3  1  0
  3  4  1  0
  4  5  1  0
  5  6  1  0
  6  7  1  0
  7  8  1  0
  7  9  1  0
  8  1  1  0
  8  2  1  0
  9  3  1  0
  7  4  1  0
  9  5  1  0
  1 10  1  0
  1 11  1  0
  2 12  1  0
  3 13  1  0
  4 14  1  0
  5 15  1  0
  8 16  1  0
  9 17  1  0
M  END
