
     RDKit          3D

 19 23  0  0  0  0  0  0  0  0999 V2000
   -2.0409   -0.6066    0.2203 C   0  0  0  0  0  0  0  0  0  0  0  0
   -1.2669    0.5055   -0.4104 C   0  0  0  0  0  0  0  0  0  0  0  0
   -1.0049    0.1295    1.0305 C   0  0  0  0  0  0  0  0  0  0  0  0
    0.4000   -0.3935    1.0837 C   0  0  0  0  0  0  0  0  0  0  0  0
    0.5745   -0.9377   -0.3158 C   0  0  0  0  0  0  0  0  0  0  0  0
   -0.0603    0.1034   -1.2063 C   0  0  0  0  0  0  0  0  0  0  0  0
    1.1220    0.9833   -0.8042 C   0  0  0  0  0  0  0  0  0  0  0  0
    1.3966    0.6855    0.6482 C   0  0  0  0  0  0  0  0  0  0  0  0
    1.8449   -0.1922   -0.3939 C   0  0  0  0  0  0  0  0  0  0  0  0
   -3.1013   -0.3699    0.4582 H   0  0  0  0  0  0  0  0  0  0  0  0
   -1.8725   -1.6541   -0.0797 H   0  0  0  0  0  0  0  0  0  0  0  0
   -1.7511    1.4841   -0.5659 H   0  0  0  0  0  0  0  0  0  0  0  0
   -1.3675    0.7450    1.8493 H   0  0  0  0  0  0  0  0  0  0  0  0
    0.6941   -1.0166    1.9080 H   0  0  0  0  0  0  0  0  0  0  0  0
    0.4777   -1.9612   -0.5171 H   0  0  0  0  0  0  0  0  0  0  0  0
   -0.1708   -0.1179   -2.2500 H   0  0  0  0  0  0  0  0  0  0  0  0
    1.4186    1.8495   -1.3223 H   0  0  0  0  0  0  0  0  0  0  0  0
    1.9069    1.3141    1.3192 H   0  0  0  0  0  0  0  0  0  0  0  0
    2.8008   -0.5501   -0.6517 H   0  0  0  0  0  0  0  0  0  0  0  0
  1  2  1  0
  2  3  1  0
  3  4  1  0
  4  5  1  0
  5  6  1  0
  6  7  1  0
  7  8  1  0
  8  9  1  0
  3  1  1  0
  8  4  1  0
  6  2  1  0
  9  7  1  0
  9  5  1  0
  1 10  1  0
  1 11  1  0
  2 12  1  0
  3 13  1  0
  4 14  1  0
  5 15  1  0
  6 16  1  0
  7 17  1  0
  8 18  1  0
  9 19  1  0
M  END
