
     RDKit          3D

 19 22  0  0  0  0  0  0  0  0999 V2000
   -1.2901   -0.8415   -0.4725 C   0  0  0  0  0  0  0  0  0  0  0  0
   -1.3096   -0.4046    1.0025 C   0  0  0  0  0  0  0  0  0  0  0  0
   -0.7092    0.9271    1.0892 C   0  0  0  0  0  0  0  0  0  0  0  0
   -0.4996    1.3344   -0.3761 C   0  0  0  0  0  0  0  0  0  0  0  0
   -0.1047   -0.0143   -0.9293 C   0  0  0  0  0  0  0  0  0  0  0  0
    0.9372   -0.4323    0.0828 C   0  0  0  0  0  0  0  0  0  0  0  0
    2.3113   -0.2718   -0.0126 C   0  0  0  0  0  0  0  0  0  0  0  0
    1.6821   -1.5616   -0.0900 O   0  0  0  0  0  0  0  0  0  0  0  0
    0.1093   -0.2541    1.3620 C   0  0  0  0  0  0  0  0  0  0  0  0
   -2.2001   -0.5273   -0.9881 H   0  0  0  0  0  0  0  0  0  0  0  0
   -1.0817   -1.9258   -0.5162 H   0  0  0  0  0  0  0  0  0  0  0  0
   -2.0749   -0.7967    1.6565 H   0  0  0  0  0  0  0  0  0  0  0  0
   -1.0192    1.6695    1.8119 H   0  0  0  0  0  0  0  0  0  0  0  0
   -1.4869    1.6129   -0.7572 H   0  0  0  0  0  0  0  0  0  0  0  0
    0.2749    2.0878   -0.4823 H   0  0  0  0  0  0  0  0  0  0  0  0
    0.1564   -0.0680   -1.9499 H   0  0  0  0  0  0  0  0  0  0  0  0
    2.9482   -0.1201    0.8990 H   0  0  0  0  0  0  0  0  0  0  0  0
    2.8103    0.0883   -0.9314 H   0  0  0  0  0  0  0  0  0  0  0  0
    0.5463   -0.5019    2.3166 H   0  0  0  0  0  0  0  0  0  0  0  0
  1  2  1  0
  2  3  1  0
  3  4  1  0
  4  5  1  0
  5  6  1  0
  6  7  1  0
  7  8  1  0
  6  9  1  0
  5  1  1  0
  8  6  1  0
  9  2  1  0
  9  3  1  0
  1 10  1  0
  1 11  1  0
  2 12  1  0
  3 13  1  0
  4 14  1  0
  4 15  1  0
  5 16  1  0
  7 17  1  0
  7 18  1  0
  9 19  1  0
M  END
