
     RDKit          3D

 17 20  0  0  0  0  0  0  0  0999 V2000
    1.9995   -0.1870   -0.2876 C   0  0  0  0  0  0  0  0  0  0  0  0
    1.0659    0.6923    0.4793 C   0  0  0  0  0  0  0  0  0  0  0  0
    0.9558   -0.8080    0.5526 C   0  0  0  0  0  0  0  0  0  0  0  0
   -0.4722   -0.7099    0.1204 C   0  0  0  0  0  0  0  0  0  0  0  0
   -1.2077   -1.6250   -0.6273 C   0  0  0  0  0  0  0  0  0  0  0  0
   -1.4877   -1.3039    0.8081 O   0  0  0  0  0  0  0  0  0  0  0  0
   -0.3368    0.7459   -0.0423 C   0  0  0  0  0  0  0  0  0  0  0  0
   -1.2006    1.7845    0.1389 C   0  0  0  0  0  0  0  0  0  0  0  0
   -0.6618    1.4239   -1.1830 O   0  0  0  0  0  0  0  0  0  0  0  0
    3.0495   -0.3131    0.0484 H   0  0  0  0  0  0  0  0  0  0  0  0
    1.8641   -0.1006   -1.4055 H   0  0  0  0  0  0  0  0  0  0  0  0
    1.3809    1.2757    1.3414 H   0  0  0  0  0  0  0  0  0  0  0  0
    1.2510   -1.3564    1.4508 H   0  0  0  0  0  0  0  0  0  0  0  0
   -0.9711   -2.6987   -0.6655 H   0  0  0  0  0  0  0  0  0  0  0  0
   -2.0372   -1.3282   -1.2892 H   0  0  0  0  0  0  0  0  0  0  0  0
   -0.8732    2.8175    0.3729 H   0  0  0  0  0  0  0  0  0  0  0  0
   -2.3185    1.6909    0.1875 H   0  0  0  0  0  0  0  0  0  0  0  0
  1  2  1  0
  2  3  1  0
  3  4  1  0
  4  5  1  0
  5  6  1  0
  4  7  1  0
  7  8  1  0
  8  9  1  0
  3  1  1  0
  6  4  1  0
  9  7  1  0
  7  2  1  0
  1 10  1  0
  1 11  1  0
  2 12  1  0
  3 13  1  0
  5 14  1  0
  5 15  1  0
  8 16  1  0
  8 17  1  0
M  END
