
     RDKit          3D

 15 17  0  0  0  0  0  0  0  0999 V2000
   -1.3932    0.3377   -0.1749 C   0  0  0  0  0  0  0  0  0  0  0  0
   -0.6655   -0.1252    1.0490 C   0  0  0  0  0  0  0  0  0  0  0  0
   -0.7917   -1.4293    0.5103 O   0  0  0  0  0  0  0  0  0  0  0  0
   -0.5973   -0.7941   -0.7411 C   0  0  0  0  0  0  0  0  0  0  0  0
    0.8626   -0.4284   -0.6407 C   0  0  0  0  0  0  0  0  0  0  0  0
    1.2974    0.9244   -0.2991 C   0  0  0  0  0  0  0  0  0  0  0  0
    0.7965    0.1339    0.8256 C   0  0  0  0  0  0  0  0  0  0  0  0
   -2.4626    0.0633   -0.1354 H   0  0  0  0  0  0  0  0  0  0  0  0
   -1.2140    1.3395   -0.5392 H   0  0  0  0  0  0  0  0  0  0  0  0
   -1.0907    0.0414    2.0163 H   0  0  0  0  0  0  0  0  0  0  0  0
   -0.9440   -1.3140   -1.6064 H   0  0  0  0  0  0  0  0  0  0  0  0
    1.5430   -1.2896   -0.7425 H   0  0  0  0  0  0  0  0  0  0  0  0
    0.7636    1.7702   -0.7586 H   0  0  0  0  0  0  0  0  0  0  0  0
    2.4064    1.0825   -0.3067 H   0  0  0  0  0  0  0  0  0  0  0  0
    1.4896   -0.3124    1.5433 H   0  0  0  0  0  0  0  0  0  0  0  0
  1  2  1  0
  2  3  1  0
  3  4  1  0
  4  5  1  0
  5  6  1  0
  6  7  1  0
  4  1  1  0
  7  5  1  0
  7  2  1  0
  1  8  1  0
  1  9  1  0
  2 10  1  0
  4 11  1  0
  5 12  1  0
  6 13  1  0
  6 14  1  0
  7 15  1  0
M  END
