
     RDKit          3D

 19 21  0  0  0  0  0  0  0  0999 V2000
    1.7955   -0.3232   -0.4950 C   0  0  0  0  0  0  0  0  0  0  0  0
    1.5159    0.0938    0.9036 C   0  0  0  0  0  0  0  0  0  0  0  0
    0.1397   -0.5363    1.1606 C   0  0  0  0  0  0  0  0  0  0  0  0
   -0.5359    0.0618   -0.0844 C   0  0  0  0  0  0  0  0  0  0  0  0
   -1.6940    0.9350    0.2052 C   0  0  0  0  0  0  0  0  0  0  0  0
   -2.4864    0.0890   -0.6003 O   0  0  0  0  0  0  0  0  0  0  0  0
   -1.4127   -0.7948   -0.8603 C   0  0  0  0  0  0  0  0  0  0  0  0
    0.6711    0.6725   -0.7089 C   0  0  0  0  0  0  0  0  0  0  0  0
    1.2305    1.3675    0.3911 O   0  0  0  0  0  0  0  0  0  0  0  0
    1.5870   -1.3555   -0.7787 H   0  0  0  0  0  0  0  0  0  0  0  0
    2.7580    0.1009   -0.8727 H   0  0  0  0  0  0  0  0  0  0  0  0
    2.2472    0.0023    1.6670 H   0  0  0  0  0  0  0  0  0  0  0  0
   -0.3124   -0.1880    2.0849 H   0  0  0  0  0  0  0  0  0  0  0  0
    0.2632   -1.6221    1.0643 H   0  0  0  0  0  0  0  0  0  0  0  0
   -1.9769    0.9069    1.2793 H   0  0  0  0  0  0  0  0  0  0  0  0
   -1.5577    1.9514   -0.2107 H   0  0  0  0  0  0  0  0  0  0  0  0
   -1.2092   -0.7369   -1.9622 H   0  0  0  0  0  0  0  0  0  0  0  0
   -1.6352   -1.8130   -0.5463 H   0  0  0  0  0  0  0  0  0  0  0  0
    0.6121    1.1885   -1.6367 H   0  0  0  0  0  0  0  0  0  0  0  0
  1  2  1  0
  2  3  1  0
  3  4  1  0
  4  5  1  0
  5  6  1  0
  6  7  1  0
  4  8  1  0
  8  9  1  0
  8  1  1  0
  9  2  1  0
  7  4  1  0
  1 10  1  0
  1 11  1  0
  2 12  1  0
  3 13  1  0
  3 14  1  0
  5 15  1  0
  5 16  1  0
  7 17  1  0
  7 18  1  0
  8 19  1  0
M  END
