
     RDKit          3D

 19 22  0  0  0  0  0  0  0  0999 V2000
   -0.6403   -1.5733   -0.7997 C   0  0  0  0  0  0  0  0  0  0  0  0
   -1.0285   -1.0864    0.5228 C   0  0  0  0  0  0  0  0  0  0  0  0
   -1.2767    0.3302    0.8678 C   0  0  0  0  0  0  0  0  0  0  0  0
   -1.1872    1.4351   -0.0933 C   0  0  0  0  0  0  0  0  0  0  0  0
    0.0248    1.0605    0.7353 C   0  0  0  0  0  0  0  0  0  0  0  0
    0.9913    0.1615    0.0473 C   0  0  0  0  0  0  0  0  0  0  0  0
    2.1944    0.5802   -0.5188 C   0  0  0  0  0  0  0  0  0  0  0  0
    1.1151    0.5281   -1.4022 O   0  0  0  0  0  0  0  0  0  0  0  0
    0.4468   -1.2182    0.1477 C   0  0  0  0  0  0  0  0  0  0  0  0
   -0.7951   -0.9750   -1.7308 H   0  0  0  0  0  0  0  0  0  0  0  0
   -0.7689   -2.6610   -0.9904 H   0  0  0  0  0  0  0  0  0  0  0  0
   -1.3735   -1.8429    1.2787 H   0  0  0  0  0  0  0  0  0  0  0  0
   -1.9303    0.5311    1.7634 H   0  0  0  0  0  0  0  0  0  0  0  0
   -1.1262    1.2547   -1.1998 H   0  0  0  0  0  0  0  0  0  0  0  0
   -1.6147    2.4037    0.1577 H   0  0  0  0  0  0  0  0  0  0  0  0
    0.3049    1.6594    1.6095 H   0  0  0  0  0  0  0  0  0  0  0  0
    2.6375    1.5571   -0.2665 H   0  0  0  0  0  0  0  0  0  0  0  0
    2.9901   -0.1708   -0.7953 H   0  0  0  0  0  0  0  0  0  0  0  0
    1.0365   -1.9741    0.6665 H   0  0  0  0  0  0  0  0  0  0  0  0
  1  2  1  0
  2  3  1  0
  3  4  1  0
  4  5  1  0
  5  6  1  0
  6  7  1  0
  7  8  1  0
  6  9  1  0
  9  1  1  0
  9  2  1  0
  5  3  1  0
  8  6  1  0
  1 10  1  0
  1 11  1  0
  2 12  1  0
  3 13  1  0
  4 14  1  0
  4 15  1  0
  5 16  1  0
  7 17  1  0
  7 18  1  0
  9 19  1  0
M  END
