
     RDKit          3D

 19 22  0  0  0  0  0  0  0  0999 V2000
   -0.2797    1.5057   -0.1202 C   0  0  0  0  0  0  0  0  0  0  0  0
    0.9864    0.8834   -0.5471 C   0  0  0  0  0  0  0  0  0  0  0  0
    1.9023    0.2265    0.4444 C   0  0  0  0  0  0  0  0  0  0  0  0
    1.0895   -0.5515   -0.6146 C   0  0  0  0  0  0  0  0  0  0  0  0
    0.0182   -1.3914   -0.0463 C   0  0  0  0  0  0  0  0  0  0  0  0
   -1.3977   -1.2820   -0.4619 C   0  0  0  0  0  0  0  0  0  0  0  0
   -1.7855   -0.0933   -1.0209 O   0  0  0  0  0  0  0  0  0  0  0  0
   -1.4160    0.5725    0.1267 C   0  0  0  0  0  0  0  0  0  0  0  0
   -0.9260   -0.6495    0.8051 C   0  0  0  0  0  0  0  0  0  0  0  0
   -0.6308    2.2473   -0.8973 H   0  0  0  0  0  0  0  0  0  0  0  0
   -0.1744    2.1420    0.8088 H   0  0  0  0  0  0  0  0  0  0  0  0
    1.5627    1.4632   -1.3290 H   0  0  0  0  0  0  0  0  0  0  0  0
    1.5999    0.1458    1.4908 H   0  0  0  0  0  0  0  0  0  0  0  0
    2.9856    0.2099    0.2798 H   0  0  0  0  0  0  0  0  0  0  0  0
    1.6720   -1.0178   -1.4373 H   0  0  0  0  0  0  0  0  0  0  0  0
    0.3888   -2.3540    0.4086 H   0  0  0  0  0  0  0  0  0  0  0  0
   -2.0905   -2.1216   -0.3330 H   0  0  0  0  0  0  0  0  0  0  0  0
   -2.2512    1.0388    0.6557 H   0  0  0  0  0  0  0  0  0  0  0  0
   -1.2533   -0.9740    1.7875 H   0  0  0  0  0  0  0  0  0  0  0  0
  1  2  1  0
  2  3  1  0
  3  4  1  0
  4  5  1  0
  5  6  1  0
  6  7  1  0
  7  8  1  0
  8  9  1  0
  8  1  1  0
  4  2  1  0
  9  5  1  0
  9  6  1  0
  1 10  1  0
  1 11  1  0
  2 12  1  0
  3 13  1  0
  3 14  1  0
  4 15  1  0
  5 16  1  0
  6 17  1  0
  8 18  1  0
  9 19  1  0
M  END
