
     RDKit          3D

 21 24  0  0  0  0  0  0  0  0999 V2000
    2.4113    0.1140    0.0783 C   0  0  0  0  0  0  0  0  0  0  0  0
    1.4028   -0.3888   -0.8501 C   0  0  0  0  0  0  0  0  0  0  0  0
    1.1873   -0.3667    0.7082 C   0  0  0  0  0  0  0  0  0  0  0  0
   -0.0479    0.4866    0.7412 C   0  0  0  0  0  0  0  0  0  0  0  0
    0.0999    1.6176   -0.2927 C   0  0  0  0  0  0  0  0  0  0  0  0
    0.1835    0.4093   -1.2449 C   0  0  0  0  0  0  0  0  0  0  0  0
   -0.8630   -0.1460   -0.3455 C   0  0  0  0  0  0  0  0  0  0  0  0
   -1.4650   -1.4214   -0.3571 C   0  0  0  0  0  0  0  0  0  0  0  0
   -2.2770   -0.0890   -0.5042 C   0  0  0  0  0  0  0  0  0  0  0  0
    3.3236   -0.5426    0.1696 H   0  0  0  0  0  0  0  0  0  0  0  0
    2.6837    1.1771    0.1979 H   0  0  0  0  0  0  0  0  0  0  0  0
    1.5027   -1.3692   -1.3095 H   0  0  0  0  0  0  0  0  0  0  0  0
    1.1247   -1.3937    1.1488 H   0  0  0  0  0  0  0  0  0  0  0  0
   -0.4986    0.7396    1.6709 H   0  0  0  0  0  0  0  0  0  0  0  0
    0.9866    2.2196   -0.2150 H   0  0  0  0  0  0  0  0  0  0  0  0
   -0.8756    2.0980   -0.4251 H   0  0  0  0  0  0  0  0  0  0  0  0
   -0.0133    0.5935   -2.2743 H   0  0  0  0  0  0  0  0  0  0  0  0
   -1.5276   -2.0550   -1.2480 H   0  0  0  0  0  0  0  0  0  0  0  0
   -1.6928   -1.9712    0.5919 H   0  0  0  0  0  0  0  0  0  0  0  0
   -2.7316    0.1070   -1.4737 H   0  0  0  0  0  0  0  0  0  0  0  0
   -2.9138    0.1811    0.3636 H   0  0  0  0  0  0  0  0  0  0  0  0
  1  2  1  0
  2  3  1  0
  3  4  1  0
  4  5  1  0
  5  6  1  0
  6  7  1  0
  7  8  1  0
  8  9  1  0
  3  1  1  0
  7  4  1  0
  6  2  1  0
  9  7  1  0
  1 10  1  0
  1 11  1  0
  2 12  1  0
  3 13  1  0
  4 14  1  0
  5 15  1  0
  5 16  1  0
  6 17  1  0
  8 18  1  0
  8 19  1  0
  9 20  1  0
  9 21  1  0
M  END
