
     RDKit          3D

 21 23  0  0  0  0  0  0  0  0999 V2000
    1.2844   -1.1479    0.1329 C   0  0  0  0  0  0  0  0  0  0  0  0
    1.2711    0.1599    0.8906 C   0  0  0  0  0  0  0  0  0  0  0  0
    1.8819    0.8155   -0.3550 C   0  0  0  0  0  0  0  0  0  0  0  0
    1.2042   -0.3099   -1.1415 C   0  0  0  0  0  0  0  0  0  0  0  0
   -0.1206   -0.0430   -1.3708 O   0  0  0  0  0  0  0  0  0  0  0  0
   -0.8957    0.0584   -0.2522 C   0  0  0  0  0  0  0  0  0  0  0  0
   -2.3035    0.5541   -0.4939 C   0  0  0  0  0  0  0  0  0  0  0  0
   -2.0356   -0.8230    0.0464 C   0  0  0  0  0  0  0  0  0  0  0  0
   -0.1498    0.6411    0.9457 C   0  0  0  0  0  0  0  0  0  0  0  0
    2.2077   -1.7261    0.1669 H   0  0  0  0  0  0  0  0  0  0  0  0
    0.3590   -1.7077    0.3438 H   0  0  0  0  0  0  0  0  0  0  0  0
    1.8668    0.2202    1.7903 H   0  0  0  0  0  0  0  0  0  0  0  0
    2.9656    0.7275   -0.3203 H   0  0  0  0  0  0  0  0  0  0  0  0
    1.4513    1.8125   -0.5678 H   0  0  0  0  0  0  0  0  0  0  0  0
    1.7674   -0.6828   -1.9902 H   0  0  0  0  0  0  0  0  0  0  0  0
   -2.6232    1.3700    0.1839 H   0  0  0  0  0  0  0  0  0  0  0  0
   -2.6830    0.6704   -1.5187 H   0  0  0  0  0  0  0  0  0  0  0  0
   -2.2702   -1.0025    1.1301 H   0  0  0  0  0  0  0  0  0  0  0  0
   -2.3537   -1.6521   -0.6054 H   0  0  0  0  0  0  0  0  0  0  0  0
   -0.1995    1.7613    0.9002 H   0  0  0  0  0  0  0  0  0  0  0  0
   -0.6246    0.3043    1.8794 H   0  0  0  0  0  0  0  0  0  0  0  0
  1  2  1  0
  2  3  1  0
  3  4  1  0
  4  5  1  0
  5  6  1  0
  6  7  1  0
  7  8  1  0
  6  9  1  0
  4  1  1  0
  8  6  1  0
  9  2  1  0
  1 10  1  0
  1 11  1  0
  2 12  1  0
  3 13  1  0
  3 14  1  0
  4 15  1  0
  7 16  1  0
  7 17  1  0
  8 18  1  0
  8 19  1  0
  9 20  1  0
  9 21  1  0
M  END
