
     RDKit          3D

 21 23  0  0  0  0  0  0  0  0999 V2000
   -1.4722   -0.7597    1.1207 C   0  0  0  0  0  0  0  0  0  0  0  0
   -0.9824   -0.9375   -0.3243 C   0  0  0  0  0  0  0  0  0  0  0  0
   -1.4346    0.4910   -0.5661 C   0  0  0  0  0  0  0  0  0  0  0  0
   -1.1965    0.7153    0.9326 C   0  0  0  0  0  0  0  0  0  0  0  0
    0.2544    1.0469    1.1030 C   0  0  0  0  0  0  0  0  0  0  0  0
    1.1267    0.2410    0.2016 C   0  0  0  0  0  0  0  0  0  0  0  0
    2.5917    0.2635    0.5439 C   0  0  0  0  0  0  0  0  0  0  0  0
    2.0547    0.8444   -0.6298 O   0  0  0  0  0  0  0  0  0  0  0  0
    0.5188   -1.0569   -0.2455 C   0  0  0  0  0  0  0  0  0  0  0  0
   -0.8616   -1.2754    1.8722 H   0  0  0  0  0  0  0  0  0  0  0  0
   -2.5596   -0.9611    1.1307 H   0  0  0  0  0  0  0  0  0  0  0  0
   -1.5161   -1.7136   -0.8665 H   0  0  0  0  0  0  0  0  0  0  0  0
   -2.5245    0.5012   -0.7497 H   0  0  0  0  0  0  0  0  0  0  0  0
   -0.8099    1.0880   -1.2282 H   0  0  0  0  0  0  0  0  0  0  0  0
   -1.9166    1.4090    1.3566 H   0  0  0  0  0  0  0  0  0  0  0  0
    0.3775    2.1275    0.8593 H   0  0  0  0  0  0  0  0  0  0  0  0
    0.5644    0.9167    2.1745 H   0  0  0  0  0  0  0  0  0  0  0  0
    2.9986    1.0286    1.2238 H   0  0  0  0  0  0  0  0  0  0  0  0
    3.0932   -0.7208    0.4534 H   0  0  0  0  0  0  0  0  0  0  0  0
    0.9680   -1.4257   -1.1777 H   0  0  0  0  0  0  0  0  0  0  0  0
    0.7259   -1.8224    0.5542 H   0  0  0  0  0  0  0  0  0  0  0  0
  1  2  1  0
  2  3  1  0
  3  4  1  0
  4  5  1  0
  5  6  1  0
  6  7  1  0
  7  8  1  0
  6  9  1  0
  4  1  1  0
  8  6  1  0
  9  2  1  0
  1 10  1  0
  1 11  1  0
  2 12  1  0
  3 13  1  0
  3 14  1  0
  4 15  1  0
  5 16  1  0
  5 17  1  0
  7 18  1  0
  7 19  1  0
  9 20  1  0
  9 21  1  0
M  END
