
     RDKit          3D

 19 22  0  0  0  0  0  0  0  0999 V2000
    1.7684    0.6203    0.7645 C   0  0  0  0  0  0  0  0  0  0  0  0
    1.7187   -0.4176   -0.2769 C   0  0  0  0  0  0  0  0  0  0  0  0
    0.8780   -1.6407   -0.1776 C   0  0  0  0  0  0  0  0  0  0  0  0
    0.1310   -1.8786   -1.3867 O   0  0  0  0  0  0  0  0  0  0  0  0
   -0.5315   -1.3220   -0.3112 C   0  0  0  0  0  0  0  0  0  0  0  0
   -0.6355    0.1508   -0.1303 C   0  0  0  0  0  0  0  0  0  0  0  0
   -1.6354    0.6454    0.8391 C   0  0  0  0  0  0  0  0  0  0  0  0
   -1.7697    0.9506   -0.6348 C   0  0  0  0  0  0  0  0  0  0  0  0
    0.7223    0.7416   -0.2672 C   0  0  0  0  0  0  0  0  0  0  0  0
    2.6046    1.3555    0.6637 H   0  0  0  0  0  0  0  0  0  0  0  0
    1.5302    0.3335    1.8070 H   0  0  0  0  0  0  0  0  0  0  0  0
    2.4476   -0.4384   -1.1312 H   0  0  0  0  0  0  0  0  0  0  0  0
    1.1862   -2.5245    0.3921 H   0  0  0  0  0  0  0  0  0  0  0  0
   -1.2570   -1.9550    0.2705 H   0  0  0  0  0  0  0  0  0  0  0  0
   -2.4168   -0.0769    1.1936 H   0  0  0  0  0  0  0  0  0  0  0  0
   -1.4206    1.4523    1.5566 H   0  0  0  0  0  0  0  0  0  0  0  0
   -1.5735    2.0354   -0.8587 H   0  0  0  0  0  0  0  0  0  0  0  0
   -2.5953    0.5030   -1.2187 H   0  0  0  0  0  0  0  0  0  0  0  0
    0.8483    1.4653   -1.0939 H   0  0  0  0  0  0  0  0  0  0  0  0
  1  2  1  0
  2  3  1  0
  3  4  1  0
  4  5  1  0
  5  6  1  0
  6  7  1  0
  7  8  1  0
  6  9  1  0
  9  1  1  0
  9  2  1  0
  5  3  1  0
  8  6  1  0
  1 10  1  0
  1 11  1  0
  2 12  1  0
  3 13  1  0
  5 14  1  0
  7 15  1  0
  7 16  1  0
  8 17  1  0
  8 18  1  0
  9 19  1  0
M  END
