
     RDKit          2D

 17 20  0  0  0  0  0  0  0  0999 V2000
    1.0607    0.0000    0.0000 C   0  0  0  0  0  0  0  0  0  0  0  0
   -0.0000   -1.0607    0.0000 C   0  0  0  0  0  0  0  0  0  0  0  0
   -1.0607    0.0000    0.0000 O   0  0  0  0  0  0  0  0  0  0  0  0
    0.0000    1.0607    0.0000 C   0  0  0  0  0  0  0  0  0  0  0  0
    0.4635    2.4872    0.0000 C   0  0  0  0  0  0  0  0  0  0  0  0
    1.8901    2.0237    0.0000 C   0  0  0  0  0  0  0  0  0  0  0  0
    2.6401   -0.0212    0.0000 O   0  0  0  0  0  0  0  0  0  0  0  0
    1.4266   -0.9029    0.0000 C   0  0  0  0  0  0  0  0  0  0  0  0
    1.4266    0.5971    0.0000 C   0  0  0  0  0  0  0  0  0  0  0  0
    2.1213    1.0607    0.0000 H   0  0  0  0  0  0  0  0  0  0  0  0
    1.7889   -0.3242    0.0000 H   0  0  0  0  0  0  0  0  0  0  0  0
   -0.0000   -2.5607    0.0000 H   0  0  0  0  0  0  0  0  0  0  0  0
    0.9271    3.9138    0.0000 H   0  0  0  0  0  0  0  0  0  0  0  0
   -0.9631    2.9508    0.0000 H   0  0  0  0  0  0  0  0  0  0  0  0
    3.2266    2.7047    0.0000 H   0  0  0  0  0  0  0  0  0  0  0  0
    2.5236   -1.9259    0.0000 H   0  0  0  0  0  0  0  0  0  0  0  0
    2.8073    0.0110    0.0000 H   0  0  0  0  0  0  0  0  0  0  0  0
  1  2  1  0
  2  3  1  0
  3  4  1  0
  4  5  1  0
  5  6  1  0
  6  7  1  0
  7  8  1  0
  8  9  1  0
  4  1  1  0
  9  6  1  0
  8  2  1  0
  9  4  1  0
  1 10  1  0
  1 11  1  0
  2 12  1  0
  5 13  1  0
  5 14  1  0
  6 15  1  0
  8 16  1  0
  9 17  1  0
M  END
