
     RDKit          3D

 16 18  0  0  0  0  0  0  0  0999 V2000
   -2.2046    0.0899    0.2104 C   0  0  0  0  0  0  0  0  0  0  0  0
   -1.0952   -0.4633   -0.4601 C   0  0  0  0  0  0  0  0  0  0  0  0
   -0.1658   -1.3932   -0.1337 O   0  0  0  0  0  0  0  0  0  0  0  0
    1.0721   -0.7348   -0.2075 C   0  0  0  0  0  0  0  0  0  0  0  0
    1.7751   -0.2088    0.9488 C   0  0  0  0  0  0  0  0  0  0  0  0
    1.0939    0.6943   -0.1116 C   0  0  0  0  0  0  0  0  0  0  0  0
   -0.0305    1.3985    0.2803 O   0  0  0  0  0  0  0  0  0  0  0  0
   -0.9552    0.5392    0.7338 C   0  0  0  0  0  0  0  0  0  0  0  0
   -2.8434   -0.5824    0.8477 H   0  0  0  0  0  0  0  0  0  0  0  0
   -2.8774    0.7953   -0.3441 H   0  0  0  0  0  0  0  0  0  0  0  0
   -0.8703   -0.0504   -1.4911 H   0  0  0  0  0  0  0  0  0  0  0  0
    1.7081   -1.2000   -1.0187 H   0  0  0  0  0  0  0  0  0  0  0  0
    2.8982   -0.2042    0.9228 H   0  0  0  0  0  0  0  0  0  0  0  0
    1.3599   -0.0824    1.9479 H   0  0  0  0  0  0  0  0  0  0  0  0
    1.7911    1.3033   -0.7326 H   0  0  0  0  0  0  0  0  0  0  0  0
   -0.6560    0.0988    1.7310 H   0  0  0  0  0  0  0  0  0  0  0  0
  1  2  1  0
  2  3  1  0
  3  4  1  0
  4  5  1  0
  5  6  1  0
  6  7  1  0
  7  8  1  0
  8  1  1  0
  8  2  1  0
  6  4  1  0
  1  9  1  0
  1 10  1  0
  2 11  1  0
  4 12  1  0
  5 13  1  0
  5 14  1  0
  6 15  1  0
  8 16  1  0
M  END
