
     RDKit          3D

 19 21  0  0  0  0  0  0  0  0999 V2000
   -0.3339   -1.4540   -0.1519 C   0  0  0  0  0  0  0  0  0  0  0  0
   -0.9897   -0.4585   -1.1124 C   0  0  0  0  0  0  0  0  0  0  0  0
   -1.9196    0.2457   -0.3631 O   0  0  0  0  0  0  0  0  0  0  0  0
   -1.3422    0.9838    0.6443 C   0  0  0  0  0  0  0  0  0  0  0  0
    0.1274    0.7930    0.7547 C   0  0  0  0  0  0  0  0  0  0  0  0
    0.5686   -0.6441    0.7421 C   0  0  0  0  0  0  0  0  0  0  0  0
    1.7369   -0.1775   -0.1395 C   0  0  0  0  0  0  0  0  0  0  0  0
    0.7772    0.9302   -0.6002 C   0  0  0  0  0  0  0  0  0  0  0  0
   -0.0611    0.4625   -1.5889 O   0  0  0  0  0  0  0  0  0  0  0  0
   -1.1474   -1.9014    0.4659 H   0  0  0  0  0  0  0  0  0  0  0  0
    0.1634   -2.2705   -0.6748 H   0  0  0  0  0  0  0  0  0  0  0  0
   -1.4567   -0.9396   -1.9665 H   0  0  0  0  0  0  0  0  0  0  0  0
   -1.8838    0.7819    1.5746 H   0  0  0  0  0  0  0  0  0  0  0  0
   -1.5243    2.0642    0.3980 H   0  0  0  0  0  0  0  0  0  0  0  0
    0.6000    1.3771    1.5335 H   0  0  0  0  0  0  0  0  0  0  0  0
    0.8534   -1.0799    1.6945 H   0  0  0  0  0  0  0  0  0  0  0  0
    2.0316   -0.8820   -0.9188 H   0  0  0  0  0  0  0  0  0  0  0  0
    2.5720    0.2614    0.4415 H   0  0  0  0  0  0  0  0  0  0  0  0
    1.2283    1.9076   -0.7331 H   0  0  0  0  0  0  0  0  0  0  0  0
  1  2  1  0
  2  3  1  0
  3  4  1  0
  4  5  1  0
  5  6  1  0
  6  7  1  0
  7  8  1  0
  8  9  1  0
  6  1  1  0
  9  2  1  0
  8  5  1  0
  1 10  1  0
  1 11  1  0
  2 12  1  0
  4 13  1  0
  4 14  1  0
  5 15  1  0
  6 16  1  0
  7 17  1  0
  7 18  1  0
  8 19  1  0
M  END
