
     RDKit          3D

 15 17  0  0  0  0  0  0  0  0999 V2000
   -0.4726   -1.0130    0.6348 C   0  0  0  0  0  0  0  0  0  0  0  0
    0.4806    0.1608    0.9168 C   0  0  0  0  0  0  0  0  0  0  0  0
    1.2344   -0.3703   -0.3031 C   0  0  0  0  0  0  0  0  0  0  0  0
   -0.1625   -0.6329   -0.8240 C   0  0  0  0  0  0  0  0  0  0  0  0
   -0.8444    0.7044   -0.9011 C   0  0  0  0  0  0  0  0  0  0  0  0
   -1.6938    1.1137    0.1120 O   0  0  0  0  0  0  0  0  0  0  0  0
   -0.3433    1.3023    0.4260 C   0  0  0  0  0  0  0  0  0  0  0  0
   -1.5096   -0.7774    0.9195 H   0  0  0  0  0  0  0  0  0  0  0  0
   -0.0734   -1.9878    0.9344 H   0  0  0  0  0  0  0  0  0  0  0  0
    0.9748    0.1818    1.8490 H   0  0  0  0  0  0  0  0  0  0  0  0
    1.7293   -1.3198   -0.0114 H   0  0  0  0  0  0  0  0  0  0  0  0
    1.8321    0.3573   -0.8422 H   0  0  0  0  0  0  0  0  0  0  0  0
   -0.3192   -1.3673   -1.5658 H   0  0  0  0  0  0  0  0  0  0  0  0
   -0.8207    1.3154   -1.7972 H   0  0  0  0  0  0  0  0  0  0  0  0
   -0.0120    2.3330    0.4521 H   0  0  0  0  0  0  0  0  0  0  0  0
  1  2  1  0
  2  3  1  0
  3  4  1  0
  4  5  1  0
  5  6  1  0
  6  7  1  0
  4  1  1  0
  7  5  1  0
  7  2  1  0
  1  8  1  0
  1  9  1  0
  2 10  1  0
  3 11  1  0
  3 12  1  0
  4 13  1  0
  5 14  1  0
  7 15  1  0
M  END
