
     RDKit          3D

 19 22  0  0  0  0  0  0  0  0999 V2000
   -1.3812    1.0200    0.6694 C   0  0  0  0  0  0  0  0  0  0  0  0
   -1.7339   -0.4023    0.3176 C   0  0  0  0  0  0  0  0  0  0  0  0
   -0.5735   -1.3254    0.1832 C   0  0  0  0  0  0  0  0  0  0  0  0
    0.7319   -0.8615    0.8171 C   0  0  0  0  0  0  0  0  0  0  0  0
    1.0275    0.4426    0.2034 C   0  0  0  0  0  0  0  0  0  0  0  0
    2.1748    0.4374   -0.8111 C   0  0  0  0  0  0  0  0  0  0  0  0
    2.1350    1.1744    0.3614 O   0  0  0  0  0  0  0  0  0  0  0  0
   -0.2607    0.9370   -0.3548 C   0  0  0  0  0  0  0  0  0  0  0  0
   -0.8716   -0.3498   -0.8483 C   0  0  0  0  0  0  0  0  0  0  0  0
   -1.0370    1.0859    1.7266 H   0  0  0  0  0  0  0  0  0  0  0  0
   -2.1984    1.7078    0.4241 H   0  0  0  0  0  0  0  0  0  0  0  0
   -2.7667   -0.7213    0.1950 H   0  0  0  0  0  0  0  0  0  0  0  0
   -0.8165   -2.3896    0.1538 H   0  0  0  0  0  0  0  0  0  0  0  0
    1.5393   -1.6106    0.6435 H   0  0  0  0  0  0  0  0  0  0  0  0
    0.5722   -0.8291    1.9252 H   0  0  0  0  0  0  0  0  0  0  0  0
    2.0155    0.9219   -1.7859 H   0  0  0  0  0  0  0  0  0  0  0  0
    2.8003   -0.4718   -0.8721 H   0  0  0  0  0  0  0  0  0  0  0  0
   -0.2295    1.7556   -1.0762 H   0  0  0  0  0  0  0  0  0  0  0  0
   -1.1272   -0.5213   -1.8717 H   0  0  0  0  0  0  0  0  0  0  0  0
  1  2  1  0
  2  3  1  0
  3  4  1  0
  4  5  1  0
  5  6  1  0
  6  7  1  0
  5  8  1  0
  8  9  1  0
  8  1  1  0
  9  2  1  0
  9  3  1  0
  7  5  1  0
  1 10  1  0
  1 11  1  0
  2 12  1  0
  3 13  1  0
  4 14  1  0
  4 15  1  0
  6 16  1  0
  6 17  1  0
  8 18  1  0
  9 19  1  0
M  END
