
     RDKit          2D

 17 20  0  0  0  0  0  0  0  0999 V2000
   -0.2940    0.2258    0.0000 C   0  0  0  0  0  0  0  0  0  0  0  0
   -0.0000   -1.0607    0.0000 C   0  0  0  0  0  0  0  0  0  0  0  0
    1.0607    0.0000    0.0000 C   0  0  0  0  0  0  0  0  0  0  0  0
    0.0000    1.0607    0.0000 C   0  0  0  0  0  0  0  0  0  0  0  0
   -1.0607    0.0000    0.0000 O   0  0  0  0  0  0  0  0  0  0  0  0
   -0.1006    2.5587    0.0000 C   0  0  0  0  0  0  0  0  0  0  0  0
   -1.0451    1.9562    0.0000 C   0  0  0  0  0  0  0  0  0  0  0  0
   -1.4266    0.9029    0.0000 C   0  0  0  0  0  0  0  0  0  0  0  0
   -1.0285    1.9429    0.0000 O   0  0  0  0  0  0  0  0  0  0  0  0
   -1.7385   -2.0644    0.0000 H   0  0  0  0  0  0  0  0  0  0  0  0
   -2.9184   -0.4403    0.0000 H   0  0  0  0  0  0  0  0  0  0  0  0
   -0.0000   -2.5607    0.0000 H   0  0  0  0  0  0  0  0  0  0  0  0
    2.1213    1.0607    0.0000 H   0  0  0  0  0  0  0  0  0  0  0  0
    2.1213   -1.0607    0.0000 H   0  0  0  0  0  0  0  0  0  0  0  0
    0.8370    3.7295    0.0000 H   0  0  0  0  0  0  0  0  0  0  0  0
   -3.0824    2.2289    0.0000 H   0  0  0  0  0  0  0  0  0  0  0  0
   -1.7564    3.8847    0.0000 H   0  0  0  0  0  0  0  0  0  0  0  0
  1  2  1  0
  2  3  1  0
  3  4  1  0
  4  5  1  0
  4  6  1  0
  6  7  1  0
  7  8  1  0
  8  9  1  0
  8  1  1  0
  5  2  1  0
  9  6  1  0
  8  4  1  0
  1 10  1  0
  1 11  1  0
  2 12  1  0
  3 13  1  0
  3 14  1  0
  6 15  1  0
  7 16  1  0
  7 17  1  0
M  END
