
     RDKit          3D

 19 21  0  0  0  0  0  0  0  0999 V2000
   -0.8511   -1.1080    0.3393 C   0  0  0  0  0  0  0  0  0  0  0  0
   -0.5361   -0.5694   -1.0467 C   0  0  0  0  0  0  0  0  0  0  0  0
   -1.4455    0.4919   -1.2290 O   0  0  0  0  0  0  0  0  0  0  0  0
   -1.1624    1.3668   -0.1620 C   0  0  0  0  0  0  0  0  0  0  0  0
    0.1718    0.9952    0.3775 C   0  0  0  0  0  0  0  0  0  0  0  0
    0.0012   -0.2336    1.2494 C   0  0  0  0  0  0  0  0  0  0  0  0
    1.2719   -0.8198    1.2079 O   0  0  0  0  0  0  0  0  0  0  0  0
    1.7739   -0.5933   -0.0690 C   0  0  0  0  0  0  0  0  0  0  0  0
    0.7443    0.2030   -0.8175 C   0  0  0  0  0  0  0  0  0  0  0  0
   -0.5688   -2.1690    0.4011 H   0  0  0  0  0  0  0  0  0  0  0  0
   -1.9380   -0.9932    0.5751 H   0  0  0  0  0  0  0  0  0  0  0  0
   -0.5208   -1.2855   -1.8302 H   0  0  0  0  0  0  0  0  0  0  0  0
   -1.2483    2.4256   -0.4763 H   0  0  0  0  0  0  0  0  0  0  0  0
   -1.9178    1.2387    0.6581 H   0  0  0  0  0  0  0  0  0  0  0  0
    0.8119    1.7551    0.7456 H   0  0  0  0  0  0  0  0  0  0  0  0
   -0.3931   -0.0617    2.2231 H   0  0  0  0  0  0  0  0  0  0  0  0
    2.0627   -1.5242   -0.5875 H   0  0  0  0  0  0  0  0  0  0  0  0
    2.6608    0.0662    0.0602 H   0  0  0  0  0  0  0  0  0  0  0  0
    1.0834    0.8154   -1.6191 H   0  0  0  0  0  0  0  0  0  0  0  0
  1  2  1  0
  2  3  1  0
  3  4  1  0
  4  5  1  0
  5  6  1  0
  6  7  1  0
  7  8  1  0
  8  9  1  0
  6  1  1  0
  9  2  1  0
  9  5  1  0
  1 10  1  0
  1 11  1  0
  2 12  1  0
  4 13  1  0
  4 14  1  0
  5 15  1  0
  6 16  1  0
  8 17  1  0
  8 18  1  0
  9 19  1  0
M  END
