
     RDKit          3D

 19 21  0  0  0  0  0  0  0  0999 V2000
    0.4044   -0.3805    1.3359 C   0  0  0  0  0  0  0  0  0  0  0  0
    0.8373    0.9169    0.6342 C   0  0  0  0  0  0  0  0  0  0  0  0
    1.5482    0.2928   -0.5735 C   0  0  0  0  0  0  0  0  0  0  0  0
    0.3765   -0.5594   -1.0880 C   0  0  0  0  0  0  0  0  0  0  0  0
   -0.4914    0.3654   -1.6885 O   0  0  0  0  0  0  0  0  0  0  0  0
   -1.1417    0.9532   -0.5771 C   0  0  0  0  0  0  0  0  0  0  0  0
   -1.6552   -0.3453    0.0700 C   0  0  0  0  0  0  0  0  0  0  0  0
   -0.3043   -1.0589    0.1592 C   0  0  0  0  0  0  0  0  0  0  0  0
   -0.2754    1.6198    0.2519 O   0  0  0  0  0  0  0  0  0  0  0  0
    1.3188   -0.8908    1.6273 H   0  0  0  0  0  0  0  0  0  0  0  0
   -0.2901   -0.1656    2.1614 H   0  0  0  0  0  0  0  0  0  0  0  0
    1.4880    1.5279    1.2419 H   0  0  0  0  0  0  0  0  0  0  0  0
    1.8780    1.0283   -1.2953 H   0  0  0  0  0  0  0  0  0  0  0  0
    2.3053   -0.4260   -0.2313 H   0  0  0  0  0  0  0  0  0  0  0  0
    0.6997   -1.3447   -1.7641 H   0  0  0  0  0  0  0  0  0  0  0  0
   -1.9500    1.6122   -0.8794 H   0  0  0  0  0  0  0  0  0  0  0  0
   -2.2589   -0.8475   -0.6790 H   0  0  0  0  0  0  0  0  0  0  0  0
   -2.1089   -0.1734    1.0393 H   0  0  0  0  0  0  0  0  0  0  0  0
   -0.3802   -2.1244    0.2550 H   0  0  0  0  0  0  0  0  0  0  0  0
  1  2  1  0
  2  3  1  0
  3  4  1  0
  4  5  1  0
  5  6  1  0
  6  7  1  0
  7  8  1  0
  6  9  1  0
  8  1  1  0
  9  2  1  0
  8  4  1  0
  1 10  1  0
  1 11  1  0
  2 12  1  0
  3 13  1  0
  3 14  1  0
  4 15  1  0
  6 16  1  0
  7 17  1  0
  7 18  1  0
  8 19  1  0
M  END
