
     RDKit          3D

 21 23  0  0  0  0  0  0  0  0999 V2000
    1.6650   -1.0199   -0.1308 C   0  0  0  0  0  0  0  0  0  0  0  0
    0.8900   -0.2789    0.9716 C   0  0  0  0  0  0  0  0  0  0  0  0
    1.2109    0.9570    0.1204 C   0  0  0  0  0  0  0  0  0  0  0  0
    0.9646    0.0192   -1.0245 C   0  0  0  0  0  0  0  0  0  0  0  0
   -0.4691   -0.4155   -0.8911 C   0  0  0  0  0  0  0  0  0  0  0  0
   -1.4561    0.6931   -1.0239 C   0  0  0  0  0  0  0  0  0  0  0  0
   -2.3442    0.5690    0.0640 O   0  0  0  0  0  0  0  0  0  0  0  0
   -1.5644    0.2249    1.1605 C   0  0  0  0  0  0  0  0  0  0  0  0
   -0.5039   -0.6713    0.6303 C   0  0  0  0  0  0  0  0  0  0  0  0
    2.7402   -0.8498   -0.0088 H   0  0  0  0  0  0  0  0  0  0  0  0
    1.3139   -2.0437   -0.2628 H   0  0  0  0  0  0  0  0  0  0  0  0
    1.2674   -0.3212    1.9540 H   0  0  0  0  0  0  0  0  0  0  0  0
    0.5383    1.7968    0.2467 H   0  0  0  0  0  0  0  0  0  0  0  0
    2.3089    1.1676    0.2157 H   0  0  0  0  0  0  0  0  0  0  0  0
    1.3855    0.2049   -1.9776 H   0  0  0  0  0  0  0  0  0  0  0  0
   -0.7175   -1.3123   -1.4547 H   0  0  0  0  0  0  0  0  0  0  0  0
   -2.1061    0.5977   -1.9368 H   0  0  0  0  0  0  0  0  0  0  0  0
   -1.0446    1.6965   -1.0371 H   0  0  0  0  0  0  0  0  0  0  0  0
   -2.2201   -0.3603    1.8478 H   0  0  0  0  0  0  0  0  0  0  0  0
   -1.1901    1.0895    1.7140 H   0  0  0  0  0  0  0  0  0  0  0  0
   -0.6687   -1.7434    0.8233 H   0  0  0  0  0  0  0  0  0  0  0  0
  1  2  1  0
  2  3  1  0
  3  4  1  0
  4  5  1  0
  5  6  1  0
  6  7  1  0
  7  8  1  0
  8  9  1  0
  4  1  1  0
  9  5  1  0
  9  2  1  0
  1 10  1  0
  1 11  1  0
  2 12  1  0
  3 13  1  0
  3 14  1  0
  4 15  1  0
  5 16  1  0
  6 17  1  0
  6 18  1  0
  8 19  1  0
  8 20  1  0
  9 21  1  0
M  END
