
     RDKit          3D

 19 22  0  0  0  0  0  0  0  0999 V2000
   -1.0742    0.3900   -0.9600 C   0  0  0  0  0  0  0  0  0  0  0  0
   -0.5612    1.0294    0.3211 C   0  0  0  0  0  0  0  0  0  0  0  0
   -0.6845   -0.1058    1.2996 C   0  0  0  0  0  0  0  0  0  0  0  0
   -0.1959   -1.2925    0.5477 C   0  0  0  0  0  0  0  0  0  0  0  0
   -0.5065   -0.9919   -0.8761 C   0  0  0  0  0  0  0  0  0  0  0  0
    0.8739   -1.0682   -0.4207 C   0  0  0  0  0  0  0  0  0  0  0  0
    1.6344    0.1976   -0.3148 C   0  0  0  0  0  0  0  0  0  0  0  0
    1.4016    1.2818   -1.1168 O   0  0  0  0  0  0  0  0  0  0  0  0
    0.8875    1.3666    0.1638 C   0  0  0  0  0  0  0  0  0  0  0  0
   -2.1657    0.4315   -0.9865 H   0  0  0  0  0  0  0  0  0  0  0  0
   -0.5935    0.9442   -1.8180 H   0  0  0  0  0  0  0  0  0  0  0  0
   -1.1459    1.9101    0.5897 H   0  0  0  0  0  0  0  0  0  0  0  0
   -1.7723   -0.2876    1.5350 H   0  0  0  0  0  0  0  0  0  0  0  0
   -0.1859    0.0856    2.2543 H   0  0  0  0  0  0  0  0  0  0  0  0
   -0.3972   -2.2993    0.9535 H   0  0  0  0  0  0  0  0  0  0  0  0
   -1.0013   -1.7921   -1.4327 H   0  0  0  0  0  0  0  0  0  0  0  0
    1.4878   -1.9595   -0.6925 H   0  0  0  0  0  0  0  0  0  0  0  0
    2.6709    0.1037    0.0497 H   0  0  0  0  0  0  0  0  0  0  0  0
    1.3282    2.0562    0.9037 H   0  0  0  0  0  0  0  0  0  0  0  0
  1  2  1  0
  2  3  1  0
  3  4  1  0
  4  5  1  0
  5  6  1  0
  6  7  1  0
  7  8  1  0
  8  9  1  0
  5  1  1  0
  9  7  1  0
  9  2  1  0
  6  4  1  0
  1 10  1  0
  1 11  1  0
  2 12  1  0
  3 13  1  0
  3 14  1  0
  4 15  1  0
  5 16  1  0
  6 17  1  0
  7 18  1  0
  9 19  1  0
M  END
