
     RDKit          3D

 19 21  0  0  0  0  0  0  0  0999 V2000
    2.0282   -0.1370    0.0732 C   0  0  0  0  0  0  0  0  0  0  0  0
    1.0490    0.9365   -0.4113 C   0  0  0  0  0  0  0  0  0  0  0  0
    0.7267    0.0695   -1.4352 O   0  0  0  0  0  0  0  0  0  0  0  0
    0.8902   -0.9649   -0.5144 C   0  0  0  0  0  0  0  0  0  0  0  0
   -0.1942   -0.7473    0.5103 C   0  0  0  0  0  0  0  0  0  0  0  0
   -1.5624   -1.0424    0.0276 C   0  0  0  0  0  0  0  0  0  0  0  0
   -2.2717    0.1428    0.3160 O   0  0  0  0  0  0  0  0  0  0  0  0
   -1.4242    1.1676   -0.0885 C   0  0  0  0  0  0  0  0  0  0  0  0
   -0.1184    0.7917    0.5361 C   0  0  0  0  0  0  0  0  0  0  0  0
    2.9590   -0.1781   -0.4967 H   0  0  0  0  0  0  0  0  0  0  0  0
    2.1113   -0.2045    1.1631 H   0  0  0  0  0  0  0  0  0  0  0  0
    1.4394    1.9025   -0.6199 H   0  0  0  0  0  0  0  0  0  0  0  0
    1.1061   -1.9450   -0.8587 H   0  0  0  0  0  0  0  0  0  0  0  0
    0.0825   -1.1844    1.4635 H   0  0  0  0  0  0  0  0  0  0  0  0
   -1.6731   -1.2325   -1.0383 H   0  0  0  0  0  0  0  0  0  0  0  0
   -2.0418   -1.8283    0.6752 H   0  0  0  0  0  0  0  0  0  0  0  0
   -1.3885    1.1606   -1.1820 H   0  0  0  0  0  0  0  0  0  0  0  0
   -1.7750    2.1133    0.3484 H   0  0  0  0  0  0  0  0  0  0  0  0
    0.0567    1.1799    1.5316 H   0  0  0  0  0  0  0  0  0  0  0  0
  1  2  1  0
  2  3  1  0
  3  4  1  0
  4  5  1  0
  5  6  1  0
  6  7  1  0
  7  8  1  0
  8  9  1  0
  4  1  1  0
  9  5  1  0
  9  2  1  0
  1 10  1  0
  1 11  1  0
  2 12  1  0
  4 13  1  0
  5 14  1  0
  6 15  1  0
  6 16  1  0
  8 17  1  0
  8 18  1  0
  9 19  1  0
M  END
