
     RDKit          3D

 19 22  0  0  0  0  0  0  0  0999 V2000
   -1.0589   -1.2814   -0.1184 C   0  0  0  0  0  0  0  0  0  0  0  0
   -0.2915   -0.5183    0.9779 C   0  0  0  0  0  0  0  0  0  0  0  0
   -1.0547    0.7641    1.2402 C   0  0  0  0  0  0  0  0  0  0  0  0
   -0.6088    1.9366    0.6372 O   0  0  0  0  0  0  0  0  0  0  0  0
   -1.3635    1.1561   -0.2197 C   0  0  0  0  0  0  0  0  0  0  0  0
   -0.6819   -0.0189   -0.9225 C   0  0  0  0  0  0  0  0  0  0  0  0
    0.5837   -0.1086   -0.1714 C   0  0  0  0  0  0  0  0  0  0  0  0
    1.8152   -0.7029   -0.5589 C   0  0  0  0  0  0  0  0  0  0  0  0
    1.6770    0.7968   -0.1304 C   0  0  0  0  0  0  0  0  0  0  0  0
   -2.1271   -1.3651    0.0543 H   0  0  0  0  0  0  0  0  0  0  0  0
   -0.5137   -2.1697   -0.4724 H   0  0  0  0  0  0  0  0  0  0  0  0
    0.0982   -1.0774    1.7851 H   0  0  0  0  0  0  0  0  0  0  0  0
   -1.8723    0.7787    1.9632 H   0  0  0  0  0  0  0  0  0  0  0  0
   -2.3797    1.4287   -0.4844 H   0  0  0  0  0  0  0  0  0  0  0  0
   -0.7364   -0.0808   -1.9762 H   0  0  0  0  0  0  0  0  0  0  0  0
    2.0700   -0.8300   -1.6401 H   0  0  0  0  0  0  0  0  0  0  0  0
    2.4698   -1.2951    0.0987 H   0  0  0  0  0  0  0  0  0  0  0  0
    2.1342    1.0473    0.8608 H   0  0  0  0  0  0  0  0  0  0  0  0
    1.8402    1.5397   -0.9230 H   0  0  0  0  0  0  0  0  0  0  0  0
  1  2  1  0
  2  3  1  0
  3  4  1  0
  4  5  1  0
  5  6  1  0
  6  7  1  0
  7  8  1  0
  8  9  1  0
  6  1  1  0
  9  7  1  0
  7  2  1  0
  5  3  1  0
  1 10  1  0
  1 11  1  0
  2 12  1  0
  3 13  1  0
  5 14  1  0
  6 15  1  0
  8 16  1  0
  8 17  1  0
  9 18  1  0
  9 19  1  0
M  END
