
     RDKit          3D

 18 20  0  0  0  0  0  0  0  0999 V2000
   -0.9272   -0.2568   -1.1500 C   0  0  0  0  0  0  0  0  0  0  0  0
   -0.5770   -1.0449    0.1142 C   0  0  0  0  0  0  0  0  0  0  0  0
   -1.1510    0.1389    0.9005 C   0  0  0  0  0  0  0  0  0  0  0  0
   -0.7023    0.9966   -0.2914 C   0  0  0  0  0  0  0  0  0  0  0  0
    0.7579    1.2990   -0.1852 C   0  0  0  0  0  0  0  0  0  0  0  0
    1.2626    1.1518    1.2119 O   0  0  0  0  0  0  0  0  0  0  0  0
    1.5652    0.2144    0.2506 C   0  0  0  0  0  0  0  0  0  0  0  0
    0.9116   -1.1212    0.2313 C   0  0  0  0  0  0  0  0  0  0  0  0
   -0.1760   -0.3497   -1.9549 H   0  0  0  0  0  0  0  0  0  0  0  0
   -1.9823   -0.3254   -1.4560 H   0  0  0  0  0  0  0  0  0  0  0  0
   -1.1146   -1.9730    0.2564 H   0  0  0  0  0  0  0  0  0  0  0  0
   -0.5350    0.4155    1.7688 H   0  0  0  0  0  0  0  0  0  0  0  0
   -2.2320    0.0741    1.0376 H   0  0  0  0  0  0  0  0  0  0  0  0
   -1.3885    1.8126   -0.4801 H   0  0  0  0  0  0  0  0  0  0  0  0
    1.1384    2.2248   -0.6681 H   0  0  0  0  0  0  0  0  0  0  0  0
    2.6703    0.1748    0.0190 H   0  0  0  0  0  0  0  0  0  0  0  0
    1.2805   -1.6578   -0.6904 H   0  0  0  0  0  0  0  0  0  0  0  0
    1.1994   -1.7737    1.0857 H   0  0  0  0  0  0  0  0  0  0  0  0
  1  2  1  0
  2  3  1  0
  3  4  1  0
  4  5  1  0
  5  6  1  0
  6  7  1  0
  7  8  1  0
  4  1  1  0
  7  5  1  0
  8  2  1  0
  1  9  1  0
  1 10  1  0
  2 11  1  0
  3 12  1  0
  3 13  1  0
  4 14  1  0
  5 15  1  0
  7 16  1  0
  8 17  1  0
  8 18  1  0
M  END
