
     RDKit          3D

 16 19  0  0  0  0  0  0  0  0999 V2000
    1.4229   -0.0986   -0.3608 C   0  0  0  0  0  0  0  0  0  0  0  0
    0.6566   -0.8538    0.7376 C   0  0  0  0  0  0  0  0  0  0  0  0
    0.4315    0.2370    1.6054 O   0  0  0  0  0  0  0  0  0  0  0  0
   -0.2876    1.0772    0.7310 C   0  0  0  0  0  0  0  0  0  0  0  0
    0.3006    0.9143   -0.6345 C   0  0  0  0  0  0  0  0  0  0  0  0
   -0.7966   -0.0243   -0.9723 C   0  0  0  0  0  0  0  0  0  0  0  0
   -0.6531   -1.1060    0.0646 C   0  0  0  0  0  0  0  0  0  0  0  0
   -1.3940    0.1442    0.3190 C   0  0  0  0  0  0  0  0  0  0  0  0
    2.3107    0.3682    0.0543 H   0  0  0  0  0  0  0  0  0  0  0  0
    1.5753   -0.7818   -1.1945 H   0  0  0  0  0  0  0  0  0  0  0  0
    1.1745   -1.6747    1.1577 H   0  0  0  0  0  0  0  0  0  0  0  0
   -0.5395    2.0539    1.0873 H   0  0  0  0  0  0  0  0  0  0  0  0
    0.5305    1.7551   -1.2355 H   0  0  0  0  0  0  0  0  0  0  0  0
   -1.2305   -0.1701   -1.9312 H   0  0  0  0  0  0  0  0  0  0  0  0
   -1.0927   -2.0819   -0.0461 H   0  0  0  0  0  0  0  0  0  0  0  0
   -2.4085    0.2413    0.6180 H   0  0  0  0  0  0  0  0  0  0  0  0
  1  2  1  0
  2  3  1  0
  3  4  1  0
  4  5  1  0
  5  6  1  0
  6  7  1  0
  7  8  1  0
  5  1  1  0
  8  6  1  0
  7  2  1  0
  8  4  1  0
  1  9  1  0
  1 10  1  0
  2 11  1  0
  4 12  1  0
  5 13  1  0
  6 14  1  0
  7 15  1  0
  8 16  1  0
M  END
