
     RDKit          3D

 18 20  0  0  0  0  0  0  0  0999 V2000
   -1.2273   -0.1231    1.0251 C   0  0  0  0  0  0  0  0  0  0  0  0
   -1.3482   -0.8598   -0.3194 C   0  0  0  0  0  0  0  0  0  0  0  0
   -1.4771    0.5647   -0.8843 C   0  0  0  0  0  0  0  0  0  0  0  0
   -0.3732    0.8155    0.1527 C   0  0  0  0  0  0  0  0  0  0  0  0
    0.6745   -0.1125   -0.2656 C   0  0  0  0  0  0  0  0  0  0  0  0
    1.8306   -0.3142    0.6895 C   0  0  0  0  0  0  0  0  0  0  0  0
    2.0056    0.1438   -0.7078 C   0  0  0  0  0  0  0  0  0  0  0  0
   -0.0736   -1.2567   -0.6363 O   0  0  0  0  0  0  0  0  0  0  0  0
   -2.1700    0.2976    1.3605 H   0  0  0  0  0  0  0  0  0  0  0  0
   -0.6376   -0.7298    1.7135 H   0  0  0  0  0  0  0  0  0  0  0  0
   -2.1793   -1.5075   -0.4434 H   0  0  0  0  0  0  0  0  0  0  0  0
   -2.4037    1.0202   -0.5289 H   0  0  0  0  0  0  0  0  0  0  0  0
   -1.1828    0.6786   -1.9155 H   0  0  0  0  0  0  0  0  0  0  0  0
   -0.2172    1.7973    0.4911 H   0  0  0  0  0  0  0  0  0  0  0  0
    1.9235    0.3967    1.5495 H   0  0  0  0  0  0  0  0  0  0  0  0
    2.0005   -1.3627    0.9931 H   0  0  0  0  0  0  0  0  0  0  0  0
    2.3788    1.1532   -0.8592 H   0  0  0  0  0  0  0  0  0  0  0  0
    2.4766   -0.6012   -1.4145 H   0  0  0  0  0  0  0  0  0  0  0  0
  1  2  1  0
  2  3  1  0
  3  4  1  0
  4  5  1  0
  5  6  1  0
  6  7  1  0
  5  8  1  0
  4  1  1  0
  7  5  1  0
  8  2  1  0
  1  9  1  0
  1 10  1  0
  2 11  1  0
  3 12  1  0
  3 13  1  0
  4 14  1  0
  6 15  1  0
  6 16  1  0
  7 17  1  0
  7 18  1  0
M  END
