
     RDKit          3D

 19 22  0  0  0  0  0  0  0  0999 V2000
   -1.4856   -1.0483    0.2088 C   0  0  0  0  0  0  0  0  0  0  0  0
   -1.5860    0.0924   -0.8162 C   0  0  0  0  0  0  0  0  0  0  0  0
   -1.2646    1.2538    0.0283 C   0  0  0  0  0  0  0  0  0  0  0  0
   -0.8999    0.8212    1.2923 O   0  0  0  0  0  0  0  0  0  0  0  0
   -0.3608   -0.4379    1.0539 C   0  0  0  0  0  0  0  0  0  0  0  0
    0.6327   -0.1151   -0.0136 C   0  0  0  0  0  0  0  0  0  0  0  0
    1.9616    0.5524    0.3851 C   0  0  0  0  0  0  0  0  0  0  0  0
    1.8549   -0.7858   -0.2961 C   0  0  0  0  0  0  0  0  0  0  0  0
   -0.2360    0.6477   -0.9530 C   0  0  0  0  0  0  0  0  0  0  0  0
   -2.4244   -1.0947    0.8085 H   0  0  0  0  0  0  0  0  0  0  0  0
   -1.1999   -1.9918   -0.2499 H   0  0  0  0  0  0  0  0  0  0  0  0
   -2.3435    0.0627   -1.5832 H   0  0  0  0  0  0  0  0  0  0  0  0
   -1.5344    2.2764   -0.1810 H   0  0  0  0  0  0  0  0  0  0  0  0
   -0.0515   -1.0095    1.8847 H   0  0  0  0  0  0  0  0  0  0  0  0
    2.2627    1.4444   -0.2231 H   0  0  0  0  0  0  0  0  0  0  0  0
    2.1365    0.5767    1.4676 H   0  0  0  0  0  0  0  0  0  0  0  0
    2.2260   -0.8494   -1.3533 H   0  0  0  0  0  0  0  0  0  0  0  0
    2.1851   -1.6304    0.3161 H   0  0  0  0  0  0  0  0  0  0  0  0
    0.1272    1.2351   -1.7758 H   0  0  0  0  0  0  0  0  0  0  0  0
  1  2  1  0
  2  3  1  0
  3  4  1  0
  4  5  1  0
  5  6  1  0
  6  7  1  0
  7  8  1  0
  6  9  1  0
  5  1  1  0
  8  6  1  0
  9  2  1  0
  9  3  1  0
  1 10  1  0
  1 11  1  0
  2 12  1  0
  3 13  1  0
  5 14  1  0
  7 15  1  0
  7 16  1  0
  8 17  1  0
  8 18  1  0
  9 19  1  0
M  END
