
     RDKit          3D

 17 19  0  0  0  0  0  0  0  0999 V2000
   -1.5017   -0.3298    0.1823 C   0  0  0  0  0  0  0  0  0  0  0  0
   -0.5369   -0.1885   -1.0061 C   0  0  0  0  0  0  0  0  0  0  0  0
   -0.4026    1.2459   -0.5627 C   0  0  0  0  0  0  0  0  0  0  0  0
   -0.4937    0.6331    0.8348 C   0  0  0  0  0  0  0  0  0  0  0  0
    0.7037   -0.2221    0.9622 C   0  0  0  0  0  0  0  0  0  0  0  0
    1.8471   -0.2209    0.0554 C   0  0  0  0  0  0  0  0  0  0  0  0
    0.6544   -0.9046   -0.4546 C   0  0  0  0  0  0  0  0  0  0  0  0
   -2.4909    0.0823    0.0223 H   0  0  0  0  0  0  0  0  0  0  0  0
   -1.4219   -1.3517    0.5983 H   0  0  0  0  0  0  0  0  0  0  0  0
   -0.9142   -0.4126   -1.9703 H   0  0  0  0  0  0  0  0  0  0  0  0
    0.5328    1.7527   -0.7279 H   0  0  0  0  0  0  0  0  0  0  0  0
   -1.2640    1.8628   -0.8424 H   0  0  0  0  0  0  0  0  0  0  0  0
   -0.8492    1.2438    1.6260 H   0  0  0  0  0  0  0  0  0  0  0  0
    0.6928   -0.9206    1.8252 H   0  0  0  0  0  0  0  0  0  0  0  0
    2.6843   -0.9183    0.3436 H   0  0  0  0  0  0  0  0  0  0  0  0
    2.2282    0.6552   -0.4835 H   0  0  0  0  0  0  0  0  0  0  0  0
    0.5319   -2.0066   -0.4024 H   0  0  0  0  0  0  0  0  0  0  0  0
  1  2  1  0
  2  3  1  0
  3  4  1  0
  4  5  1  0
  5  6  1  0
  6  7  1  0
  4  1  1  0
  7  5  1  0
  7  2  1  0
  1  8  1  0
  1  9  1  0
  2 10  1  0
  3 11  1  0
  3 12  1  0
  4 13  1  0
  5 14  1  0
  6 15  1  0
  6 16  1  0
  7 17  1  0
M  END
