
     RDKit          3D

 19 22  0  0  0  0  0  0  0  0999 V2000
    2.0348    0.0917   -0.3359 C   0  0  0  0  0  0  0  0  0  0  0  0
    0.9812   -0.8611    0.0191 C   0  0  0  0  0  0  0  0  0  0  0  0
    1.0114    0.5918    0.5901 C   0  0  0  0  0  0  0  0  0  0  0  0
   -0.2931    1.1521    0.1825 C   0  0  0  0  0  0  0  0  0  0  0  0
   -0.5110    0.4834   -1.1846 C   0  0  0  0  0  0  0  0  0  0  0  0
   -0.3384   -0.9476   -0.6514 C   0  0  0  0  0  0  0  0  0  0  0  0
   -1.4063   -0.9303    0.4430 C   0  0  0  0  0  0  0  0  0  0  0  0
   -0.9976   -0.6710    1.7509 O   0  0  0  0  0  0  0  0  0  0  0  0
   -1.3879    0.4136    0.9659 C   0  0  0  0  0  0  0  0  0  0  0  0
    2.1832    0.4932   -1.3594 H   0  0  0  0  0  0  0  0  0  0  0  0
    3.0354   -0.1191    0.1481 H   0  0  0  0  0  0  0  0  0  0  0  0
    1.1723   -1.6403    0.7832 H   0  0  0  0  0  0  0  0  0  0  0  0
    1.2434    0.6783    1.6757 H   0  0  0  0  0  0  0  0  0  0  0  0
   -0.4095    2.2154    0.1663 H   0  0  0  0  0  0  0  0  0  0  0  0
   -1.5520    0.6128   -1.5283 H   0  0  0  0  0  0  0  0  0  0  0  0
    0.2412    0.7571   -1.9137 H   0  0  0  0  0  0  0  0  0  0  0  0
   -0.4758   -1.7042   -1.3934 H   0  0  0  0  0  0  0  0  0  0  0  0
   -2.2544   -1.5986    0.3613 H   0  0  0  0  0  0  0  0  0  0  0  0
   -2.2769    0.9826    1.2809 H   0  0  0  0  0  0  0  0  0  0  0  0
  1  2  1  0
  2  3  1  0
  3  4  1  0
  4  5  1  0
  5  6  1  0
  6  7  1  0
  7  8  1  0
  8  9  1  0
  3  1  1  0
  9  4  1  0
  6  2  1  0
  9  7  1  0
  1 10  1  0
  1 11  1  0
  2 12  1  0
  3 13  1  0
  4 14  1  0
  5 15  1  0
  5 16  1  0
  6 17  1  0
  7 18  1  0
  9 19  1  0
M  END
