
     RDKit          3D

 19 22  0  0  0  0  0  0  0  0999 V2000
    0.8274    1.3129   -0.1392 C   0  0  0  0  0  0  0  0  0  0  0  0
   -0.5562    0.9448   -0.5512 C   0  0  0  0  0  0  0  0  0  0  0  0
   -1.3849    0.5501    0.6458 C   0  0  0  0  0  0  0  0  0  0  0  0
   -1.2765   -0.8924    0.2862 C   0  0  0  0  0  0  0  0  0  0  0  0
   -0.7033   -0.4393   -1.0778 C   0  0  0  0  0  0  0  0  0  0  0  0
   -0.0438   -1.4759   -0.2905 C   0  0  0  0  0  0  0  0  0  0  0  0
    1.2564   -1.1155    0.3424 C   0  0  0  0  0  0  0  0  0  0  0  0
    2.2981   -0.6115   -0.4083 O   0  0  0  0  0  0  0  0  0  0  0  0
    1.6131    0.2397    0.5071 C   0  0  0  0  0  0  0  0  0  0  0  0
    0.7275    2.1994    0.5572 H   0  0  0  0  0  0  0  0  0  0  0  0
    1.3934    1.7367   -1.0147 H   0  0  0  0  0  0  0  0  0  0  0  0
   -0.9908    1.6956   -1.2223 H   0  0  0  0  0  0  0  0  0  0  0  0
   -2.3953    0.9860    0.5568 H   0  0  0  0  0  0  0  0  0  0  0  0
   -0.9446    0.8542    1.6192 H   0  0  0  0  0  0  0  0  0  0  0  0
   -2.1993   -1.4921    0.2668 H   0  0  0  0  0  0  0  0  0  0  0  0
   -1.2757   -0.6819   -1.9697 H   0  0  0  0  0  0  0  0  0  0  0  0
   -0.1275   -2.5141   -0.6530 H   0  0  0  0  0  0  0  0  0  0  0  0
    1.5759   -1.8473    1.1416 H   0  0  0  0  0  0  0  0  0  0  0  0
    2.2062    0.5508    1.4036 H   0  0  0  0  0  0  0  0  0  0  0  0
  1  2  1  0
  2  3  1  0
  3  4  1  0
  4  5  1  0
  5  6  1  0
  6  7  1  0
  7  8  1  0
  8  9  1  0
  9  1  1  0
  5  2  1  0
  9  7  1  0
  6  4  1  0
  1 10  1  0
  1 11  1  0
  2 12  1  0
  3 13  1  0
  3 14  1  0
  4 15  1  0
  5 16  1  0
  6 17  1  0
  7 18  1  0
  9 19  1  0
M  END
