
     RDKit          3D

 19 21  0  0  0  0  0  0  0  0999 V2000
    2.1672   -0.2871    0.2436 C   0  0  0  0  0  0  0  0  0  0  0  0
    1.0650    0.5620   -0.0313 C   0  0  0  0  0  0  0  0  0  0  0  0
    0.0354    1.1387    0.8726 C   0  0  0  0  0  0  0  0  0  0  0  0
   -1.2321    1.1374    0.0817 C   0  0  0  0  0  0  0  0  0  0  0  0
   -2.4425    0.6997    0.3054 O   0  0  0  0  0  0  0  0  0  0  0  0
   -1.6254   -0.3559    0.1316 C   0  0  0  0  0  0  0  0  0  0  0  0
   -1.0963   -0.9544   -1.0912 C   0  0  0  0  0  0  0  0  0  0  0  0
    0.2409   -1.4011   -0.9601 O   0  0  0  0  0  0  0  0  0  0  0  0
    0.8821   -0.9770    0.1438 C   0  0  0  0  0  0  0  0  0  0  0  0
    2.8962   -0.5038   -0.5676 H   0  0  0  0  0  0  0  0  0  0  0  0
    2.6820   -0.2141    1.2224 H   0  0  0  0  0  0  0  0  0  0  0  0
    0.9811    0.9527   -1.0868 H   0  0  0  0  0  0  0  0  0  0  0  0
   -0.0300    0.7020    1.8648 H   0  0  0  0  0  0  0  0  0  0  0  0
    0.3174    2.2231    1.0258 H   0  0  0  0  0  0  0  0  0  0  0  0
   -1.0712    1.5689   -0.9520 H   0  0  0  0  0  0  0  0  0  0  0  0
   -1.4640   -0.9053    1.0751 H   0  0  0  0  0  0  0  0  0  0  0  0
   -1.6846   -1.8223   -1.4440 H   0  0  0  0  0  0  0  0  0  0  0  0
   -1.1185   -0.2214   -1.9500 H   0  0  0  0  0  0  0  0  0  0  0  0
    0.4973   -1.3419    1.1163 H   0  0  0  0  0  0  0  0  0  0  0  0
  1  2  1  0
  2  3  1  0
  3  4  1  0
  4  5  1  0
  5  6  1  0
  6  7  1  0
  7  8  1  0
  8  9  1  0
  9  1  1  0
  9  2  1  0
  6  4  1  0
  1 10  1  0
  1 11  1  0
  2 12  1  0
  3 13  1  0
  3 14  1  0
  4 15  1  0
  6 16  1  0
  7 17  1  0
  7 18  1  0
  9 19  1  0
M  END
