
     RDKit          3D

 17 20  0  0  0  0  0  0  0  0999 V2000
    1.4907    0.0888   -0.3986 C   0  0  0  0  0  0  0  0  0  0  0  0
    0.8596   -0.0754    0.9720 C   0  0  0  0  0  0  0  0  0  0  0  0
    0.3313   -1.3554    1.0380 O   0  0  0  0  0  0  0  0  0  0  0  0
   -0.7259   -1.3462    0.1161 C   0  0  0  0  0  0  0  0  0  0  0  0
   -0.2729   -1.2297   -1.1854 O   0  0  0  0  0  0  0  0  0  0  0  0
    0.2397    0.0635   -1.2790 C   0  0  0  0  0  0  0  0  0  0  0  0
   -0.7006    0.9225   -0.4816 C   0  0  0  0  0  0  0  0  0  0  0  0
   -0.3632    0.8137    0.9468 C   0  0  0  0  0  0  0  0  0  0  0  0
   -1.4084   -0.0426    0.3775 C   0  0  0  0  0  0  0  0  0  0  0  0
    2.1724   -0.7231   -0.6620 H   0  0  0  0  0  0  0  0  0  0  0  0
    1.9638    1.0797   -0.5165 H   0  0  0  0  0  0  0  0  0  0  0  0
    1.5325    0.1536    1.7954 H   0  0  0  0  0  0  0  0  0  0  0  0
   -1.3943   -2.2025    0.2518 H   0  0  0  0  0  0  0  0  0  0  0  0
    0.4245    0.3990   -2.2922 H   0  0  0  0  0  0  0  0  0  0  0  0
   -1.1650    1.8124   -0.9167 H   0  0  0  0  0  0  0  0  0  0  0  0
   -0.5147    1.5925    1.6831 H   0  0  0  0  0  0  0  0  0  0  0  0
   -2.4695    0.0492    0.5513 H   0  0  0  0  0  0  0  0  0  0  0  0
  1  2  1  0
  2  3  1  0
  3  4  1  0
  4  5  1  0
  5  6  1  0
  6  7  1  0
  7  8  1  0
  8  9  1  0
  6  1  1  0
  9  7  1  0
  8  2  1  0
  9  4  1  0
  1 10  1  0
  1 11  1  0
  2 12  1  0
  4 13  1  0
  6 14  1  0
  7 15  1  0
  8 16  1  0
  9 17  1  0
M  END
