
     RDKit          3D

 17 19  0  0  0  0  0  0  0  0999 V2000
    2.0922   -0.0678   -0.4624 C   0  0  0  0  0  0  0  0  0  0  0  0
    1.2623    0.5713    0.4902 C   0  0  0  0  0  0  0  0  0  0  0  0
    0.1373    0.0072    1.3342 C   0  0  0  0  0  0  0  0  0  0  0  0
   -0.5265   -0.0560   -0.0021 C   0  0  0  0  0  0  0  0  0  0  0  0
   -1.3983    0.8275   -0.6377 C   0  0  0  0  0  0  0  0  0  0  0  0
   -1.7993   -0.6508   -0.3079 C   0  0  0  0  0  0  0  0  0  0  0  0
    0.7756   -0.6332   -0.4254 C   0  0  0  0  0  0  0  0  0  0  0  0
    3.0222   -0.5763   -0.0600 H   0  0  0  0  0  0  0  0  0  0  0  0
    2.3729    0.4109   -1.4503 H   0  0  0  0  0  0  0  0  0  0  0  0
    0.8897    1.5843    0.1278 H   0  0  0  0  0  0  0  0  0  0  0  0
    0.3537   -0.9769    1.7993 H   0  0  0  0  0  0  0  0  0  0  0  0
   -0.2351    0.7069    2.0723 H   0  0  0  0  0  0  0  0  0  0  0  0
   -2.0015    1.5665   -0.0990 H   0  0  0  0  0  0  0  0  0  0  0  0
   -1.2946    1.0377   -1.7394 H   0  0  0  0  0  0  0  0  0  0  0  0
   -2.5515   -0.7922    0.4675 H   0  0  0  0  0  0  0  0  0  0  0  0
   -1.9068   -1.3129   -1.2056 H   0  0  0  0  0  0  0  0  0  0  0  0
    0.8077   -1.6462    0.0986 H   0  0  0  0  0  0  0  0  0  0  0  0
  1  2  1  0
  2  3  1  0
  3  4  1  0
  4  5  1  0
  5  6  1  0
  4  7  1  0
  7  1  1  0
  7  2  1  0
  6  4  1  0
  1  8  1  0
  1  9  1  0
  2 10  1  0
  3 11  1  0
  3 12  1  0
  5 13  1  0
  5 14  1  0
  6 15  1  0
  6 16  1  0
  7 17  1  0
M  END
