
     RDKit          3D

 19 22  0  0  0  0  0  0  0  0999 V2000
   -2.0530    0.4886    0.0644 C   0  0  0  0  0  0  0  0  0  0  0  0
   -1.3026   -0.7916    0.4596 C   0  0  0  0  0  0  0  0  0  0  0  0
   -0.2150   -0.4585    1.2260 O   0  0  0  0  0  0  0  0  0  0  0  0
    0.7913    0.0061    0.4312 C   0  0  0  0  0  0  0  0  0  0  0  0
    1.8206    0.9553    0.8428 C   0  0  0  0  0  0  0  0  0  0  0  0
    2.1596   -0.4799    0.7269 C   0  0  0  0  0  0  0  0  0  0  0  0
    0.2783    0.1093   -0.9740 C   0  0  0  0  0  0  0  0  0  0  0  0
   -1.1450    0.5621   -1.1305 C   0  0  0  0  0  0  0  0  0  0  0  0
   -0.8462   -0.8452   -0.9580 C   0  0  0  0  0  0  0  0  0  0  0  0
   -1.9410    1.2599    0.8243 H   0  0  0  0  0  0  0  0  0  0  0  0
   -3.0979    0.2239   -0.1777 H   0  0  0  0  0  0  0  0  0  0  0  0
   -1.9346   -1.6165    0.7794 H   0  0  0  0  0  0  0  0  0  0  0  0
    1.7277    1.4537    1.8193 H   0  0  0  0  0  0  0  0  0  0  0  0
    2.2457    1.6269    0.0528 H   0  0  0  0  0  0  0  0  0  0  0  0
    2.7281   -0.8665   -0.1230 H   0  0  0  0  0  0  0  0  0  0  0  0
    2.2911   -1.1100    1.6535 H   0  0  0  0  0  0  0  0  0  0  0  0
    0.9284    0.0760   -1.8405 H   0  0  0  0  0  0  0  0  0  0  0  0
   -1.4311    1.0615   -2.0484 H   0  0  0  0  0  0  0  0  0  0  0  0
   -1.0045   -1.6550   -1.6280 H   0  0  0  0  0  0  0  0  0  0  0  0
  1  2  1  0
  2  3  1  0
  3  4  1  0
  4  5  1  0
  5  6  1  0
  4  7  1  0
  7  8  1  0
  8  9  1  0
  8  1  1  0
  9  2  1  0
  6  4  1  0
  9  7  1  0
  1 10  1  0
  1 11  1  0
  2 12  1  0
  5 13  1  0
  5 14  1  0
  6 15  1  0
  6 16  1  0
  7 17  1  0
  8 18  1  0
  9 19  1  0
M  END
