
     RDKit          3D

 15 17  0  0  0  0  0  0  0  0999 V2000
   -1.9290   -0.9342    0.0383 C   0  0  0  0  0  0  0  0  0  0  0  0
   -1.4595    0.3213   -0.5513 C   0  0  0  0  0  0  0  0  0  0  0  0
   -0.3979    0.1850   -1.4763 O   0  0  0  0  0  0  0  0  0  0  0  0
    0.4403    0.0569   -0.4142 C   0  0  0  0  0  0  0  0  0  0  0  0
    1.4510    1.0501   -0.0267 C   0  0  0  0  0  0  0  0  0  0  0  0
    1.8063   -0.4072   -0.4355 C   0  0  0  0  0  0  0  0  0  0  0  0
   -0.6271   -0.4338    0.5008 C   0  0  0  0  0  0  0  0  0  0  0  0
   -1.9968   -1.8298   -0.6240 H   0  0  0  0  0  0  0  0  0  0  0  0
   -2.7731   -0.9086    0.7690 H   0  0  0  0  0  0  0  0  0  0  0  0
   -1.8362    1.3114   -0.3158 H   0  0  0  0  0  0  0  0  0  0  0  0
    1.7685    1.8453   -0.7519 H   0  0  0  0  0  0  0  0  0  0  0  0
    1.5740    1.3080    1.0410 H   0  0  0  0  0  0  0  0  0  0  0  0
    2.4214   -0.4958   -1.3323 H   0  0  0  0  0  0  0  0  0  0  0  0
    2.1402   -1.0633    0.4169 H   0  0  0  0  0  0  0  0  0  0  0  0
   -0.5824   -0.0052    1.5224 H   0  0  0  0  0  0  0  0  0  0  0  0
  1  2  1  0
  2  3  1  0
  3  4  1  0
  4  5  1  0
  5  6  1  0
  4  7  1  0
  7  1  1  0
  7  2  1  0
  6  4  1  0
  1  8  1  0
  1  9  1  0
  2 10  1  0
  5 11  1  0
  5 12  1  0
  6 13  1  0
  6 14  1  0
  7 15  1  0
M  END
