
     RDKit          3D

 23 25  0  0  0  0  0  0  0  0999 V2000
   -1.7729    1.0145   -0.0259 C   0  0  0  0  0  0  0  0  0  0  0  0
   -1.2912    0.0759    1.0780 C   0  0  0  0  0  0  0  0  0  0  0  0
   -1.6390   -1.0671    0.1267 C   0  0  0  0  0  0  0  0  0  0  0  0
   -1.3535   -0.0574   -0.9961 C   0  0  0  0  0  0  0  0  0  0  0  0
    0.1186   -0.1007   -1.2488 C   0  0  0  0  0  0  0  0  0  0  0  0
    0.9548    0.0909   -0.0227 C   0  0  0  0  0  0  0  0  0  0  0  0
    2.2792    0.7323   -0.2356 C   0  0  0  0  0  0  0  0  0  0  0  0
    2.2409   -0.7131    0.0808 C   0  0  0  0  0  0  0  0  0  0  0  0
    0.1957    0.2103    1.2441 C   0  0  0  0  0  0  0  0  0  0  0  0
   -2.8901    1.0664   -0.0045 H   0  0  0  0  0  0  0  0  0  0  0  0
   -1.2456    1.9655   -0.0984 H   0  0  0  0  0  0  0  0  0  0  0  0
   -1.8460    0.1075    2.0070 H   0  0  0  0  0  0  0  0  0  0  0  0
   -0.9336   -1.9075    0.1316 H   0  0  0  0  0  0  0  0  0  0  0  0
   -2.7046   -1.2901    0.1387 H   0  0  0  0  0  0  0  0  0  0  0  0
   -1.9429   -0.1911   -1.8908 H   0  0  0  0  0  0  0  0  0  0  0  0
    0.4278    0.5723   -2.0800 H   0  0  0  0  0  0  0  0  0  0  0  0
    0.3474   -1.1395   -1.6315 H   0  0  0  0  0  0  0  0  0  0  0  0
    2.5505    1.0472   -1.2807 H   0  0  0  0  0  0  0  0  0  0  0  0
    2.6754    1.4376    0.5155 H   0  0  0  0  0  0  0  0  0  0  0  0
    2.3442   -1.4979   -0.6809 H   0  0  0  0  0  0  0  0  0  0  0  0
    2.6233   -0.9813    1.0920 H   0  0  0  0  0  0  0  0  0  0  0  0
    0.3652    1.1912    1.7738 H   0  0  0  0  0  0  0  0  0  0  0  0
    0.4966   -0.5657    2.0078 H   0  0  0  0  0  0  0  0  0  0  0  0
  1  2  1  0
  2  3  1  0
  3  4  1  0
  4  5  1  0
  5  6  1  0
  6  7  1  0
  7  8  1  0
  6  9  1  0
  4  1  1  0
  8  6  1  0
  9  2  1  0
  1 10  1  0
  1 11  1  0
  2 12  1  0
  3 13  1  0
  3 14  1  0
  4 15  1  0
  5 16  1  0
  5 17  1  0
  7 18  1  0
  7 19  1  0
  8 20  1  0
  8 21  1  0
  9 22  1  0
  9 23  1  0
M  END
