
     RDKit          3D

 19 22  0  0  0  0  0  0  0  0999 V2000
   -1.1710    0.9186   -0.5095 C   0  0  0  0  0  0  0  0  0  0  0  0
   -0.6513   -0.4443   -0.9871 C   0  0  0  0  0  0  0  0  0  0  0  0
   -1.1918   -0.9800    0.3472 C   0  0  0  0  0  0  0  0  0  0  0  0
   -0.7844    0.4015    0.8837 C   0  0  0  0  0  0  0  0  0  0  0  0
    0.6953    0.4767    0.9858 C   0  0  0  0  0  0  0  0  0  0  0  0
    1.3960    0.8212   -0.2932 C   0  0  0  0  0  0  0  0  0  0  0  0
    2.4493    0.0528    0.1638 O   0  0  0  0  0  0  0  0  0  0  0  0
    1.3608   -0.7568    0.4812 C   0  0  0  0  0  0  0  0  0  0  0  0
    0.8358   -0.4382   -0.8818 C   0  0  0  0  0  0  0  0  0  0  0  0
   -0.6024    1.7778   -0.8558 H   0  0  0  0  0  0  0  0  0  0  0  0
   -2.2825    0.9867   -0.5867 H   0  0  0  0  0  0  0  0  0  0  0  0
   -1.1171   -0.8399   -1.8742 H   0  0  0  0  0  0  0  0  0  0  0  0
   -2.2921   -1.1152    0.3358 H   0  0  0  0  0  0  0  0  0  0  0  0
   -0.6244   -1.8156    0.7561 H   0  0  0  0  0  0  0  0  0  0  0  0
   -1.3869    0.7720    1.7019 H   0  0  0  0  0  0  0  0  0  0  0  0
    1.1251    0.9663    1.8692 H   0  0  0  0  0  0  0  0  0  0  0  0
    1.4439    1.7257   -0.7330 H   0  0  0  0  0  0  0  0  0  0  0  0
    1.4036   -1.6606    0.9231 H   0  0  0  0  0  0  0  0  0  0  0  0
    1.3942   -0.8487   -1.7265 H   0  0  0  0  0  0  0  0  0  0  0  0
  1  2  1  0
  2  3  1  0
  3  4  1  0
  4  5  1  0
  5  6  1  0
  6  7  1  0
  7  8  1  0
  8  9  1  0
  4  1  1  0
  8  5  1  0
  9  2  1  0
  9  6  1  0
  1 10  1  0
  1 11  1  0
  2 12  1  0
  3 13  1  0
  3 14  1  0
  4 15  1  0
  5 16  1  0
  6 17  1  0
  8 18  1  0
  9 19  1  0
M  END
