
     RDKit          3D

 16 18  0  0  0  0  0  0  0  0999 V2000
   -1.2203    0.5401    0.5434 C   0  0  0  0  0  0  0  0  0  0  0  0
   -0.1973    1.1829   -0.3551 C   0  0  0  0  0  0  0  0  0  0  0  0
    1.1699    0.7283    0.0826 C   0  0  0  0  0  0  0  0  0  0  0  0
    1.2829   -0.7545    0.0870 C   0  0  0  0  0  0  0  0  0  0  0  0
    1.0415   -1.5092   -1.0315 O   0  0  0  0  0  0  0  0  0  0  0  0
   -0.0035   -1.4513   -0.1505 C   0  0  0  0  0  0  0  0  0  0  0  0
   -1.1152   -0.5062   -0.5495 C   0  0  0  0  0  0  0  0  0  0  0  0
   -0.6453    0.4311   -1.4504 O   0  0  0  0  0  0  0  0  0  0  0  0
   -2.2111    1.0242    0.5804 H   0  0  0  0  0  0  0  0  0  0  0  0
   -0.8025    0.2231    1.5250 H   0  0  0  0  0  0  0  0  0  0  0  0
   -0.3032    2.2650   -0.4749 H   0  0  0  0  0  0  0  0  0  0  0  0
    1.9730    1.2227   -0.5044 H   0  0  0  0  0  0  0  0  0  0  0  0
    1.3248    1.0817    1.1413 H   0  0  0  0  0  0  0  0  0  0  0  0
    1.9943   -1.1948    0.8266 H   0  0  0  0  0  0  0  0  0  0  0  0
   -0.2441   -2.2654    0.5411 H   0  0  0  0  0  0  0  0  0  0  0  0
   -2.0440   -1.0177   -0.8112 H   0  0  0  0  0  0  0  0  0  0  0  0
  1  2  1  0
  2  3  1  0
  3  4  1  0
  4  5  1  0
  5  6  1  0
  6  7  1  0
  7  8  1  0
  7  1  1  0
  8  2  1  0
  6  4  1  0
  1  9  1  0
  1 10  1  0
  2 11  1  0
  3 12  1  0
  3 13  1  0
  4 14  1  0
  6 15  1  0
  7 16  1  0
M  END
