
     RDKit          3D

 18 20  0  0  0  0  0  0  0  0999 V2000
    0.5168   -1.2400    0.2262 C   0  0  0  0  0  0  0  0  0  0  0  0
   -0.4291   -0.3308    1.0367 C   0  0  0  0  0  0  0  0  0  0  0  0
   -1.5540   -0.3752   -0.0207 C   0  0  0  0  0  0  0  0  0  0  0  0
   -0.6986    0.4131   -1.0408 C   0  0  0  0  0  0  0  0  0  0  0  0
   -0.6525    1.5872   -0.2363 O   0  0  0  0  0  0  0  0  0  0  0  0
    0.1294    1.0251    0.8112 C   0  0  0  0  0  0  0  0  0  0  0  0
    1.3733    0.8198   -0.0873 C   0  0  0  0  0  0  0  0  0  0  0  0
    0.6316   -0.2363   -0.9406 C   0  0  0  0  0  0  0  0  0  0  0  0
    1.4603   -1.3673    0.7484 H   0  0  0  0  0  0  0  0  0  0  0  0
   -0.0014   -2.1481   -0.0673 H   0  0  0  0  0  0  0  0  0  0  0  0
   -0.6837   -0.6629    1.9886 H   0  0  0  0  0  0  0  0  0  0  0  0
   -2.4279    0.1883    0.2923 H   0  0  0  0  0  0  0  0  0  0  0  0
   -1.7244   -1.3978   -0.3552 H   0  0  0  0  0  0  0  0  0  0  0  0
   -1.1509    0.5372   -1.9850 H   0  0  0  0  0  0  0  0  0  0  0  0
    0.2927    1.6648    1.6362 H   0  0  0  0  0  0  0  0  0  0  0  0
    2.2009    0.3882    0.4616 H   0  0  0  0  0  0  0  0  0  0  0  0
    1.5791    1.7056   -0.6820 H   0  0  0  0  0  0  0  0  0  0  0  0
    1.1384   -0.5710   -1.7862 H   0  0  0  0  0  0  0  0  0  0  0  0
  1  2  1  0
  2  3  1  0
  3  4  1  0
  4  5  1  0
  5  6  1  0
  6  7  1  0
  7  8  1  0
  8  1  1  0
  6  2  1  0
  8  4  1  0
  1  9  1  0
  1 10  1  0
  2 11  1  0
  3 12  1  0
  3 13  1  0
  4 14  1  0
  6 15  1  0
  7 16  1  0
  7 17  1  0
  8 18  1  0
M  END
