
     RDKit          3D

 17 20  0  0  0  0  0  0  0  0999 V2000
   -0.4012    1.1663   -0.7965 C   0  0  0  0  0  0  0  0  0  0  0  0
   -0.1078   -0.3335   -1.0068 C   0  0  0  0  0  0  0  0  0  0  0  0
   -1.2863   -1.0678   -0.3500 C   0  0  0  0  0  0  0  0  0  0  0  0
   -1.0996   -1.6084    0.8897 O   0  0  0  0  0  0  0  0  0  0  0  0
   -1.3474   -0.2534    0.9587 C   0  0  0  0  0  0  0  0  0  0  0  0
   -0.2419    0.7366    0.6744 C   0  0  0  0  0  0  0  0  0  0  0  0
    0.8208   -0.1928    0.1348 C   0  0  0  0  0  0  0  0  0  0  0  0
    2.1554   -0.1720    0.2893 C   0  0  0  0  0  0  0  0  0  0  0  0
    1.2953   -1.2418    0.8726 O   0  0  0  0  0  0  0  0  0  0  0  0
    0.4129    1.8245   -1.0881 H   0  0  0  0  0  0  0  0  0  0  0  0
   -1.4206    1.4493   -1.0688 H   0  0  0  0  0  0  0  0  0  0  0  0
    0.2004   -0.6407   -1.9667 H   0  0  0  0  0  0  0  0  0  0  0  0
   -2.2263   -1.0998   -0.8914 H   0  0  0  0  0  0  0  0  0  0  0  0
   -2.3225    0.1332    1.2761 H   0  0  0  0  0  0  0  0  0  0  0  0
    0.0097    1.4782    1.3804 H   0  0  0  0  0  0  0  0  0  0  0  0
    2.8899   -0.6002   -0.4097 H   0  0  0  0  0  0  0  0  0  0  0  0
    2.6694    0.4223    1.1020 H   0  0  0  0  0  0  0  0  0  0  0  0
  1  2  1  0
  2  3  1  0
  3  4  1  0
  4  5  1  0
  5  6  1  0
  6  7  1  0
  7  8  1  0
  8  9  1  0
  6  1  1  0
  9  7  1  0
  7  2  1  0
  5  3  1  0
  1 10  1  0
  1 11  1  0
  2 12  1  0
  3 13  1  0
  5 14  1  0
  6 15  1  0
  8 16  1  0
  8 17  1  0
M  END
