
     RDKit          3D

 19 22  0  0  0  0  0  0  0  0999 V2000
   -2.0966    0.4002   -0.5481 C   0  0  0  0  0  0  0  0  0  0  0  0
   -0.8338    1.0638   -0.1037 C   0  0  0  0  0  0  0  0  0  0  0  0
   -0.8157    0.1022    1.0545 C   0  0  0  0  0  0  0  0  0  0  0  0
    0.6667   -0.1902    1.3340 C   0  0  0  0  0  0  0  0  0  0  0  0
    1.1447   -0.2629   -0.0988 C   0  0  0  0  0  0  0  0  0  0  0  0
    2.3690   -0.5357   -0.6031 C   0  0  0  0  0  0  0  0  0  0  0  0
    2.0969    0.8348   -0.3967 O   0  0  0  0  0  0  0  0  0  0  0  0
   -0.1245   -0.0420   -0.8357 C   0  0  0  0  0  0  0  0  0  0  0  0
   -1.2264   -0.7432   -0.0841 C   0  0  0  0  0  0  0  0  0  0  0  0
   -2.1875    0.4551   -1.6574 H   0  0  0  0  0  0  0  0  0  0  0  0
   -3.0004    0.5978    0.0262 H   0  0  0  0  0  0  0  0  0  0  0  0
   -0.6029    2.0346   -0.0933 H   0  0  0  0  0  0  0  0  0  0  0  0
   -1.4481    0.2739    1.8929 H   0  0  0  0  0  0  0  0  0  0  0  0
    1.1062    0.6361    1.9019 H   0  0  0  0  0  0  0  0  0  0  0  0
    0.7917   -1.1382    1.8709 H   0  0  0  0  0  0  0  0  0  0  0  0
    3.2293   -0.8988    0.0321 H   0  0  0  0  0  0  0  0  0  0  0  0
    2.5273   -0.8183   -1.6641 H   0  0  0  0  0  0  0  0  0  0  0  0
   -0.1446   -0.0516   -1.9061 H   0  0  0  0  0  0  0  0  0  0  0  0
   -1.4513   -1.7176   -0.1214 H   0  0  0  0  0  0  0  0  0  0  0  0
  1  2  1  0
  2  3  1  0
  3  4  1  0
  4  5  1  0
  5  6  1  0
  6  7  1  0
  5  8  1  0
  8  9  1  0
  9  1  1  0
  8  2  1  0
  9  3  1  0
  7  5  1  0
  1 10  1  0
  1 11  1  0
  2 12  1  0
  3 13  1  0
  4 14  1  0
  4 15  1  0
  6 16  1  0
  6 17  1  0
  8 18  1  0
  9 19  1  0
M  END
