
     RDKit          3D

 19 22  0  0  0  0  0  0  0  0999 V2000
    1.2824   -0.3914    0.8289 C   0  0  0  0  0  0  0  0  0  0  0  0
    1.0381   -0.0253   -0.6112 C   0  0  0  0  0  0  0  0  0  0  0  0
    0.4509    1.3925   -0.5878 C   0  0  0  0  0  0  0  0  0  0  0  0
   -0.8706    1.1155    0.1248 C   0  0  0  0  0  0  0  0  0  0  0  0
   -0.6847    0.6931    1.4263 O   0  0  0  0  0  0  0  0  0  0  0  0
   -0.1310   -0.6025    1.3284 C   0  0  0  0  0  0  0  0  0  0  0  0
   -0.8224   -1.2547    0.1644 C   0  0  0  0  0  0  0  0  0  0  0  0
   -0.1639   -0.8057   -1.0654 C   0  0  0  0  0  0  0  0  0  0  0  0
   -1.3554   -0.1043   -0.5983 C   0  0  0  0  0  0  0  0  0  0  0  0
    1.9414   -1.2367    0.9804 H   0  0  0  0  0  0  0  0  0  0  0  0
    1.7056    0.4956    1.3581 H   0  0  0  0  0  0  0  0  0  0  0  0
    1.9050   -0.0985   -1.2553 H   0  0  0  0  0  0  0  0  0  0  0  0
    1.0837    2.0979   -0.0588 H   0  0  0  0  0  0  0  0  0  0  0  0
    0.2242    1.6381   -1.6335 H   0  0  0  0  0  0  0  0  0  0  0  0
   -1.5331    1.9742    0.0787 H   0  0  0  0  0  0  0  0  0  0  0  0
   -0.1964   -1.1540    2.2606 H   0  0  0  0  0  0  0  0  0  0  0  0
   -1.3480   -2.2063    0.2688 H   0  0  0  0  0  0  0  0  0  0  0  0
   -0.1719   -1.3341   -2.0102 H   0  0  0  0  0  0  0  0  0  0  0  0
   -2.3537   -0.1935   -0.9990 H   0  0  0  0  0  0  0  0  0  0  0  0
  1  2  1  0
  2  3  1  0
  3  4  1  0
  4  5  1  0
  5  6  1  0
  6  7  1  0
  7  8  1  0
  8  9  1  0
  6  1  1  0
  9  7  1  0
  8  2  1  0
  9  4  1  0
  1 10  1  0
  1 11  1  0
  2 12  1  0
  3 13  1  0
  3 14  1  0
  4 15  1  0
  6 16  1  0
  7 17  1  0
  8 18  1  0
  9 19  1  0
M  END
