
     RDKit          3D

 16 18  0  0  0  0  0  0  0  0999 V2000
    1.3581    0.3787    0.0301 C   0  0  0  0  0  0  0  0  0  0  0  0
    0.2389    0.7361    0.9546 C   0  0  0  0  0  0  0  0  0  0  0  0
   -0.9584    1.0337    0.0626 C   0  0  0  0  0  0  0  0  0  0  0  0
   -1.1083   -0.3198   -0.6454 C   0  0  0  0  0  0  0  0  0  0  0  0
   -0.1193   -0.5683   -1.5904 O   0  0  0  0  0  0  0  0  0  0  0  0
    0.7833   -0.8948   -0.6006 C   0  0  0  0  0  0  0  0  0  0  0  0
   -0.3780   -1.2210    0.3008 C   0  0  0  0  0  0  0  0  0  0  0  0
   -0.1272   -0.5195    1.4633 O   0  0  0  0  0  0  0  0  0  0  0  0
    1.3769    1.1510   -0.7742 H   0  0  0  0  0  0  0  0  0  0  0  0
    2.3223    0.2238    0.4903 H   0  0  0  0  0  0  0  0  0  0  0  0
    0.4424    1.4812    1.6956 H   0  0  0  0  0  0  0  0  0  0  0  0
   -0.6536    1.7822   -0.6737 H   0  0  0  0  0  0  0  0  0  0  0  0
   -1.8605    1.2477    0.6252 H   0  0  0  0  0  0  0  0  0  0  0  0
   -2.1293   -0.5770   -0.9137 H   0  0  0  0  0  0  0  0  0  0  0  0
    1.5028   -1.6832   -0.7981 H   0  0  0  0  0  0  0  0  0  0  0  0
   -0.6901   -2.2507    0.3735 H   0  0  0  0  0  0  0  0  0  0  0  0
  1  2  1  0
  2  3  1  0
  3  4  1  0
  4  5  1  0
  5  6  1  0
  6  7  1  0
  7  8  1  0
  6  1  1  0
  8  2  1  0
  7  4  1  0
  1  9  1  0
  1 10  1  0
  2 11  1  0
  3 12  1  0
  3 13  1  0
  4 14  1  0
  6 15  1  0
  7 16  1  0
M  END
