
     RDKit          3D

 19 22  0  0  0  0  0  0  0  0999 V2000
    1.6183    0.4867    1.1314 C   0  0  0  0  0  0  0  0  0  0  0  0
    1.3153    0.5767   -0.3111 C   0  0  0  0  0  0  0  0  0  0  0  0
    1.2404   -0.7434    0.4168 C   0  0  0  0  0  0  0  0  0  0  0  0
   -0.1895   -0.8954    0.0318 C   0  0  0  0  0  0  0  0  0  0  0  0
   -1.3021   -0.4915    0.9410 C   0  0  0  0  0  0  0  0  0  0  0  0
   -1.4533    0.8860    0.8490 O   0  0  0  0  0  0  0  0  0  0  0  0
   -1.1559    1.2486   -0.4533 C   0  0  0  0  0  0  0  0  0  0  0  0
   -0.0287    0.3218   -0.8847 C   0  0  0  0  0  0  0  0  0  0  0  0
   -0.4422   -0.9675   -1.4561 C   0  0  0  0  0  0  0  0  0  0  0  0
    2.6851    0.5951    1.4021 H   0  0  0  0  0  0  0  0  0  0  0  0
    0.9412    0.8976    1.9103 H   0  0  0  0  0  0  0  0  0  0  0  0
    2.1262    0.7585   -1.0448 H   0  0  0  0  0  0  0  0  0  0  0  0
    1.9907   -1.5198    0.2184 H   0  0  0  0  0  0  0  0  0  0  0  0
   -1.0444   -0.7210    1.9867 H   0  0  0  0  0  0  0  0  0  0  0  0
   -2.2229   -1.0425    0.6100 H   0  0  0  0  0  0  0  0  0  0  0  0
   -2.0639    1.0755   -1.0965 H   0  0  0  0  0  0  0  0  0  0  0  0
   -0.7650    2.2760   -0.5492 H   0  0  0  0  0  0  0  0  0  0  0  0
   -1.4938   -1.1029   -1.7100 H   0  0  0  0  0  0  0  0  0  0  0  0
    0.2446   -1.6384   -1.9918 H   0  0  0  0  0  0  0  0  0  0  0  0
  1  2  1  0
  2  3  1  0
  3  4  1  0
  4  5  1  0
  5  6  1  0
  6  7  1  0
  7  8  1  0
  8  9  1  0
  3  1  1  0
  8  4  1  0
  8  2  1  0
  9  4  1  0
  1 10  1  0
  1 11  1  0
  2 12  1  0
  3 13  1  0
  5 14  1  0
  5 15  1  0
  7 16  1  0
  7 17  1  0
  9 18  1  0
  9 19  1  0
M  END
