
     RDKit          3D

 17 20  0  0  0  0  0  0  0  0999 V2000
    1.4745   -0.0051   -0.5316 C   0  0  0  0  0  0  0  0  0  0  0  0
    0.8216    0.8809    0.5429 C   0  0  0  0  0  0  0  0  0  0  0  0
   -0.0783    1.7423   -0.0730 O   0  0  0  0  0  0  0  0  0  0  0  0
   -1.1197    0.9334   -0.5152 C   0  0  0  0  0  0  0  0  0  0  0  0
   -0.8867   -0.4978   -0.8580 C   0  0  0  0  0  0  0  0  0  0  0  0
    0.4272   -1.1275   -0.5256 C   0  0  0  0  0  0  0  0  0  0  0  0
    0.4126   -1.3782    0.8684 O   0  0  0  0  0  0  0  0  0  0  0  0
   -0.0312   -0.1003    1.2868 C   0  0  0  0  0  0  0  0  0  0  0  0
   -1.3363   -0.0117    0.5597 C   0  0  0  0  0  0  0  0  0  0  0  0
    2.4393   -0.4173   -0.1670 H   0  0  0  0  0  0  0  0  0  0  0  0
    1.5469    0.4953   -1.4905 H   0  0  0  0  0  0  0  0  0  0  0  0
    1.5770    1.3847    1.1267 H   0  0  0  0  0  0  0  0  0  0  0  0
   -1.9898    1.4444   -0.9471 H   0  0  0  0  0  0  0  0  0  0  0  0
   -1.6354   -0.9956   -1.4678 H   0  0  0  0  0  0  0  0  0  0  0  0
    0.7125   -1.9812   -1.1119 H   0  0  0  0  0  0  0  0  0  0  0  0
   -0.0695    0.0142    2.3540 H   0  0  0  0  0  0  0  0  0  0  0  0
   -2.2646   -0.3805    0.9489 H   0  0  0  0  0  0  0  0  0  0  0  0
  1  2  1  0
  2  3  1  0
  3  4  1  0
  4  5  1  0
  5  6  1  0
  6  7  1  0
  7  8  1  0
  8  9  1  0
  6  1  1  0
  8  2  1  0
  9  4  1  0
  9  5  1  0
  1 10  1  0
  1 11  1  0
  2 12  1  0
  4 13  1  0
  5 14  1  0
  6 15  1  0
  8 16  1  0
  9 17  1  0
M  END
