
     RDKit          3D

 20 22  0  0  0  0  0  0  0  0999 V2000
   -1.4930   -0.8046    0.6799 C   0  0  0  0  0  0  0  0  0  0  0  0
   -1.4991   -0.0471   -0.6443 C   0  0  0  0  0  0  0  0  0  0  0  0
   -1.1969    1.1792    0.2130 C   0  0  0  0  0  0  0  0  0  0  0  0
   -0.3595    0.1676    1.0144 C   0  0  0  0  0  0  0  0  0  0  0  0
    0.6871   -0.1559    0.0306 C   0  0  0  0  0  0  0  0  0  0  0  0
    1.9731   -0.7337    0.2622 C   0  0  0  0  0  0  0  0  0  0  0  0
    1.8873    0.7010   -0.1658 C   0  0  0  0  0  0  0  0  0  0  0  0
   -0.1650   -0.4374   -1.2173 C   0  0  0  0  0  0  0  0  0  0  0  0
   -2.3994   -0.6118    1.2620 H   0  0  0  0  0  0  0  0  0  0  0  0
   -1.1874   -1.8354    0.5145 H   0  0  0  0  0  0  0  0  0  0  0  0
   -2.3699   -0.0563   -1.2344 H   0  0  0  0  0  0  0  0  0  0  0  0
   -0.5575    1.9330   -0.2602 H   0  0  0  0  0  0  0  0  0  0  0  0
   -2.0640    1.5236    0.7775 H   0  0  0  0  0  0  0  0  0  0  0  0
   -0.1653    0.3847    2.0294 H   0  0  0  0  0  0  0  0  0  0  0  0
    2.4662   -1.3947   -0.4781 H   0  0  0  0  0  0  0  0  0  0  0  0
    2.2908   -0.9290    1.3092 H   0  0  0  0  0  0  0  0  0  0  0  0
    2.2001    0.9763   -1.2151 H   0  0  0  0  0  0  0  0  0  0  0  0
    1.9835    1.5171    0.5828 H   0  0  0  0  0  0  0  0  0  0  0  0
   -0.1834   -1.5303   -1.3857 H   0  0  0  0  0  0  0  0  0  0  0  0
    0.1523    0.1536   -2.0746 H   0  0  0  0  0  0  0  0  0  0  0  0
  1  2  1  0
  2  3  1  0
  3  4  1  0
  4  5  1  0
  5  6  1  0
  6  7  1  0
  5  8  1  0
  4  1  1  0
  7  5  1  0
  8  2  1  0
  1  9  1  0
  1 10  1  0
  2 11  1  0
  3 12  1  0
  3 13  1  0
  4 14  1  0
  6 15  1  0
  6 16  1  0
  7 17  1  0
  7 18  1  0
  8 19  1  0
  8 20  1  0
M  END
