
     RDKit          3D

 19 21  0  0  0  0  0  0  0  0999 V2000
   -1.7112    0.2312    0.8542 C   0  0  0  0  0  0  0  0  0  0  0  0
   -1.0607    1.1953   -0.1459 C   0  0  0  0  0  0  0  0  0  0  0  0
    0.4097    1.2152    0.1933 C   0  0  0  0  0  0  0  0  0  0  0  0
    1.0072   -0.1433    0.0859 C   0  0  0  0  0  0  0  0  0  0  0  0
    2.2743   -0.4961    0.6509 C   0  0  0  0  0  0  0  0  0  0  0  0
    2.2099   -0.1387   -0.7614 O   0  0  0  0  0  0  0  0  0  0  0  0
    0.0222   -1.2335   -0.2145 C   0  0  0  0  0  0  0  0  0  0  0  0
   -1.3844   -0.7034   -0.2691 C   0  0  0  0  0  0  0  0  0  0  0  0
   -1.3707    0.3620   -1.1990 O   0  0  0  0  0  0  0  0  0  0  0  0
   -1.1483    0.1146    1.7883 H   0  0  0  0  0  0  0  0  0  0  0  0
   -2.7706    0.4369    0.9565 H   0  0  0  0  0  0  0  0  0  0  0  0
   -1.5512    2.1603   -0.2416 H   0  0  0  0  0  0  0  0  0  0  0  0
    0.9375    2.0035   -0.3616 H   0  0  0  0  0  0  0  0  0  0  0  0
    0.4677    1.5180    1.2804 H   0  0  0  0  0  0  0  0  0  0  0  0
    2.9192    0.1986    1.1977 H   0  0  0  0  0  0  0  0  0  0  0  0
    2.5566   -1.5729    0.7163 H   0  0  0  0  0  0  0  0  0  0  0  0
    0.2473   -1.6134   -1.2548 H   0  0  0  0  0  0  0  0  0  0  0  0
    0.0796   -2.0858    0.4869 H   0  0  0  0  0  0  0  0  0  0  0  0
   -2.1341   -1.4485   -0.5368 H   0  0  0  0  0  0  0  0  0  0  0  0
  1  2  1  0
  2  3  1  0
  3  4  1  0
  4  5  1  0
  5  6  1  0
  4  7  1  0
  7  8  1  0
  8  9  1  0
  8  1  1  0
  9  2  1  0
  6  4  1  0
  1 10  1  0
  1 11  1  0
  2 12  1  0
  3 13  1  0
  3 14  1  0
  5 15  1  0
  5 16  1  0
  7 17  1  0
  7 18  1  0
  8 19  1  0
M  END
