
     RDKit          2D

 19 22  0  0  0  0  0  0  0  0999 V2000
   -1.0607   -2.1213    0.0000 C   0  0  0  0  0  0  0  0  0  0  0  0
   -0.0000   -1.0607    0.0000 C   0  0  0  0  0  0  0  0  0  0  0  0
    1.0607    0.0000    0.0000 O   0  0  0  0  0  0  0  0  0  0  0  0
    0.0000    1.0607    0.0000 C   0  0  0  0  0  0  0  0  0  0  0  0
   -1.0607    0.0000    0.0000 C   0  0  0  0  0  0  0  0  0  0  0  0
   -2.1213   -1.0607    0.0000 C   0  0  0  0  0  0  0  0  0  0  0  0
   -2.1213    0.4393    0.0000 C   0  0  0  0  0  0  0  0  0  0  0  0
   -3.6085    0.2436    0.0000 C   0  0  0  0  0  0  0  0  0  0  0  0
   -3.0345    1.6294    0.0000 C   0  0  0  0  0  0  0  0  0  0  0  0
   -2.1213   -3.1820    0.0000 H   0  0  0  0  0  0  0  0  0  0  0  0
   -0.0000   -3.1820    0.0000 H   0  0  0  0  0  0  0  0  0  0  0  0
    1.0607   -2.1213    0.0000 H   0  0  0  0  0  0  0  0  0  0  0  0
    0.0000    2.5607    0.0000 H   0  0  0  0  0  0  0  0  0  0  0  0
   -1.8331    1.2858    0.0000 H   0  0  0  0  0  0  0  0  0  0  0  0
   -3.0005   -1.1686    0.0000 H   0  0  0  0  0  0  0  0  0  0  0  0
   -3.7547   -0.6300    0.0000 H   0  0  0  0  0  0  0  0  0  0  0  0
   -5.0729    0.5682    0.0000 H   0  0  0  0  0  0  0  0  0  0  0  0
   -4.2995    2.4353    0.0000 H   0  0  0  0  0  0  0  0  0  0  0  0
   -2.0211    2.7353    0.0000 H   0  0  0  0  0  0  0  0  0  0  0  0
  1  2  1  0
  2  3  1  0
  3  4  1  0
  4  5  1  0
  5  6  1  0
  6  7  1  0
  7  8  1  0
  8  9  1  0
  6  1  1  0
  9  7  1  0
  5  2  1  0
  7  4  1  0
  1 10  1  0
  1 11  1  0
  2 12  1  0
  4 13  1  0
  5 14  1  0
  6 15  1  0
  8 16  1  0
  8 17  1  0
  9 18  1  0
  9 19  1  0
M  END
