
     RDKit          3D

 17 20  0  0  0  0  0  0  0  0999 V2000
   -1.0624   -1.0125   -0.4604 C   0  0  0  0  0  0  0  0  0  0  0  0
   -1.0614   -0.4541    0.9668 C   0  0  0  0  0  0  0  0  0  0  0  0
   -1.1804    0.9974    0.7276 C   0  0  0  0  0  0  0  0  0  0  0  0
   -1.1580    1.2140   -0.6659 O   0  0  0  0  0  0  0  0  0  0  0  0
   -0.3527    0.1848   -1.1161 C   0  0  0  0  0  0  0  0  0  0  0  0
    0.8282    0.2893   -0.2059 C   0  0  0  0  0  0  0  0  0  0  0  0
    2.1701    0.1866   -0.4904 C   0  0  0  0  0  0  0  0  0  0  0  0
    1.5375   -1.0212   -0.2270 O   0  0  0  0  0  0  0  0  0  0  0  0
    0.1255    0.4266    1.1089 C   0  0  0  0  0  0  0  0  0  0  0  0
   -2.0817   -1.1148   -0.8338 H   0  0  0  0  0  0  0  0  0  0  0  0
   -0.4183   -1.8841   -0.5682 H   0  0  0  0  0  0  0  0  0  0  0  0
   -1.5247   -0.9972    1.7706 H   0  0  0  0  0  0  0  0  0  0  0  0
   -1.7599    1.6663    1.3672 H   0  0  0  0  0  0  0  0  0  0  0  0
   -0.1861    0.0924   -2.1560 H   0  0  0  0  0  0  0  0  0  0  0  0
    2.9412    0.4476    0.2664 H   0  0  0  0  0  0  0  0  0  0  0  0
    2.5494    0.3908   -1.5274 H   0  0  0  0  0  0  0  0  0  0  0  0
    0.6338    0.5881    2.0437 H   0  0  0  0  0  0  0  0  0  0  0  0
  1  2  1  0
  2  3  1  0
  3  4  1  0
  4  5  1  0
  5  6  1  0
  6  7  1  0
  7  8  1  0
  6  9  1  0
  5  1  1  0
  8  6  1  0
  9  2  1  0
  9  3  1  0
  1 10  1  0
  1 11  1  0
  2 12  1  0
  3 13  1  0
  5 14  1  0
  7 15  1  0
  7 16  1  0
  9 17  1  0
M  END
