
     RDKit          3D

 16 18  0  0  0  0  0  0  0  0999 V2000
   -1.3279    0.4633   -0.2724 C   0  0  0  0  0  0  0  0  0  0  0  0
   -1.0720   -0.3139    1.0214 C   0  0  0  0  0  0  0  0  0  0  0  0
    0.0933    0.1044    1.6376 O   0  0  0  0  0  0  0  0  0  0  0  0
    1.0914   -0.2015    0.7319 C   0  0  0  0  0  0  0  0  0  0  0  0
    1.1416    0.8668   -0.3540 C   0  0  0  0  0  0  0  0  0  0  0  0
   -0.0207    0.1416   -1.0053 C   0  0  0  0  0  0  0  0  0  0  0  0
    0.4064   -1.0920   -0.2937 C   0  0  0  0  0  0  0  0  0  0  0  0
   -0.6847   -1.5532    0.4563 O   0  0  0  0  0  0  0  0  0  0  0  0
   -2.1566   -0.0605   -0.7915 H   0  0  0  0  0  0  0  0  0  0  0  0
   -1.4752    1.5222   -0.1125 H   0  0  0  0  0  0  0  0  0  0  0  0
   -1.9400   -0.3881    1.6575 H   0  0  0  0  0  0  0  0  0  0  0  0
    2.0445   -0.5451    1.1129 H   0  0  0  0  0  0  0  0  0  0  0  0
    0.8862    1.8708    0.0082 H   0  0  0  0  0  0  0  0  0  0  0  0
    2.0717    0.8579   -0.9204 H   0  0  0  0  0  0  0  0  0  0  0  0
   -0.0672    0.1496   -2.0825 H   0  0  0  0  0  0  0  0  0  0  0  0
    1.0092   -1.8223   -0.7937 H   0  0  0  0  0  0  0  0  0  0  0  0
  1  2  1  0
  2  3  1  0
  3  4  1  0
  4  5  1  0
  5  6  1  0
  6  7  1  0
  7  8  1  0
  6  1  1  0
  8  2  1  0
  7  4  1  0
  1  9  1  0
  1 10  1  0
  2 11  1  0
  4 12  1  0
  5 13  1  0
  5 14  1  0
  6 15  1  0
  7 16  1  0
M  END
