
     RDKit          3D

 19 22  0  0  0  0  0  0  0  0999 V2000
   -1.6978    1.3322    0.0228 C   0  0  0  0  0  0  0  0  0  0  0  0
   -1.8729   -0.1513    0.1219 C   0  0  0  0  0  0  0  0  0  0  0  0
   -0.7696   -1.0050    0.7132 C   0  0  0  0  0  0  0  0  0  0  0  0
    0.2203   -0.2689   -0.0720 C   0  0  0  0  0  0  0  0  0  0  0  0
    1.2352    0.5688    0.6188 C   0  0  0  0  0  0  0  0  0  0  0  0
    2.2745    0.0954   -0.3236 C   0  0  0  0  0  0  0  0  0  0  0  0
    2.0347   -0.1544   -1.6480 O   0  0  0  0  0  0  0  0  0  0  0  0
    1.2846   -0.9724   -0.8082 C   0  0  0  0  0  0  0  0  0  0  0  0
   -0.8079    0.4823   -0.8321 C   0  0  0  0  0  0  0  0  0  0  0  0
   -1.1447    1.8676    0.8383 H   0  0  0  0  0  0  0  0  0  0  0  0
   -2.5072    1.8643   -0.4718 H   0  0  0  0  0  0  0  0  0  0  0  0
   -2.7373   -0.6203   -0.3586 H   0  0  0  0  0  0  0  0  0  0  0  0
   -0.9721   -2.0688    0.4690 H   0  0  0  0  0  0  0  0  0  0  0  0
   -0.7809   -0.8875    1.8179 H   0  0  0  0  0  0  0  0  0  0  0  0
    0.9628    1.6256    0.6218 H   0  0  0  0  0  0  0  0  0  0  0  0
    1.4243    0.1697    1.6552 H   0  0  0  0  0  0  0  0  0  0  0  0
    3.2325   -0.2297    0.1031 H   0  0  0  0  0  0  0  0  0  0  0  0
    1.6068   -1.9858   -0.5726 H   0  0  0  0  0  0  0  0  0  0  0  0
   -0.9852    0.3384   -1.8952 H   0  0  0  0  0  0  0  0  0  0  0  0
  1  2  1  0
  2  3  1  0
  3  4  1  0
  4  5  1  0
  5  6  1  0
  6  7  1  0
  7  8  1  0
  4  9  1  0
  9  1  1  0
  9  2  1  0
  8  4  1  0
  8  6  1  0
  1 10  1  0
  1 11  1  0
  2 12  1  0
  3 13  1  0
  3 14  1  0
  5 15  1  0
  5 16  1  0
  6 17  1  0
  8 18  1  0
  9 19  1  0
M  END
