
     RDKit          3D

 18 20  0  0  0  0  0  0  0  0999 V2000
   -1.0617    1.0109    0.2122 C   0  0  0  0  0  0  0  0  0  0  0  0
   -0.7272   -0.0345   -0.8052 C   0  0  0  0  0  0  0  0  0  0  0  0
   -1.8228   -0.8433   -0.1566 C   0  0  0  0  0  0  0  0  0  0  0  0
   -1.0438   -0.2681    1.0035 C   0  0  0  0  0  0  0  0  0  0  0  0
    0.1816   -0.6330    0.2337 C   0  0  0  0  0  0  0  0  0  0  0  0
    1.4267    0.1354    0.5154 C   0  0  0  0  0  0  0  0  0  0  0  0
    2.3373    0.3228   -0.6769 C   0  0  0  0  0  0  0  0  0  0  0  0
    2.6644   -0.5019    0.4605 O   0  0  0  0  0  0  0  0  0  0  0  0
   -2.0836    1.4412    0.1560 H   0  0  0  0  0  0  0  0  0  0  0  0
   -0.3069    1.7561    0.4502 H   0  0  0  0  0  0  0  0  0  0  0  0
   -0.5534    0.0762   -1.7806 H   0  0  0  0  0  0  0  0  0  0  0  0
   -1.7482   -1.9257   -0.3059 H   0  0  0  0  0  0  0  0  0  0  0  0
   -2.8000   -0.3714   -0.3207 H   0  0  0  0  0  0  0  0  0  0  0  0
   -1.2380   -0.3887    1.9746 H   0  0  0  0  0  0  0  0  0  0  0  0
    0.3849   -1.7014    0.0832 H   0  0  0  0  0  0  0  0  0  0  0  0
    1.3950    0.9518    1.2596 H   0  0  0  0  0  0  0  0  0  0  0  0
    2.8314    1.2894   -0.7418 H   0  0  0  0  0  0  0  0  0  0  0  0
    2.1643   -0.3157   -1.5612 H   0  0  0  0  0  0  0  0  0  0  0  0
  1  2  1  0
  2  3  1  0
  3  4  1  0
  4  5  1  0
  5  6  1  0
  6  7  1  0
  7  8  1  0
  4  1  1  0
  8  6  1  0
  5  2  1  0
  1  9  1  0
  1 10  1  0
  2 11  1  0
  3 12  1  0
  3 13  1  0
  4 14  1  0
  5 15  1  0
  6 16  1  0
  7 17  1  0
  7 18  1  0
M  END
