
     RDKit          3D

 16 19  0  0  0  0  0  0  0  0999 V2000
    1.1459   -0.0539    0.8635 C   0  0  0  0  0  0  0  0  0  0  0  0
    0.2694   -1.1170    0.2929 C   0  0  0  0  0  0  0  0  0  0  0  0
    0.0313   -0.6742   -1.1257 C   0  0  0  0  0  0  0  0  0  0  0  0
   -1.2923   -1.1495   -0.9450 O   0  0  0  0  0  0  0  0  0  0  0  0
   -1.1453   -0.6265    0.3633 C   0  0  0  0  0  0  0  0  0  0  0  0
   -0.9520    0.8691    0.2483 C   0  0  0  0  0  0  0  0  0  0  0  0
    0.4564    1.1960    0.3395 C   0  0  0  0  0  0  0  0  0  0  0  0
    0.0155    0.8249   -0.9917 C   0  0  0  0  0  0  0  0  0  0  0  0
    1.2530   -0.0653    1.9499 H   0  0  0  0  0  0  0  0  0  0  0  0
    2.1405   -0.1319    0.3340 H   0  0  0  0  0  0  0  0  0  0  0  0
    0.4792   -2.1473    0.4855 H   0  0  0  0  0  0  0  0  0  0  0  0
    0.6005   -1.1226   -1.9134 H   0  0  0  0  0  0  0  0  0  0  0  0
   -1.8036   -1.0063    1.1160 H   0  0  0  0  0  0  0  0  0  0  0  0
   -1.7867    1.5472    0.1892 H   0  0  0  0  0  0  0  0  0  0  0  0
    0.8033    2.1768    0.6080 H   0  0  0  0  0  0  0  0  0  0  0  0
   -0.2149    1.4806   -1.8142 H   0  0  0  0  0  0  0  0  0  0  0  0
  1  2  1  0
  2  3  1  0
  3  4  1  0
  4  5  1  0
  5  6  1  0
  6  7  1  0
  7  8  1  0
  7  1  1  0
  5  2  1  0
  8  6  1  0
  8  3  1  0
  1  9  1  0
  1 10  1  0
  2 11  1  0
  3 12  1  0
  5 13  1  0
  6 14  1  0
  7 15  1  0
  8 16  1  0
M  END
