
     RDKit          3D

 21 24  0  0  0  0  0  0  0  0999 V2000
   -0.1823   -0.4559    1.2991 C   0  0  0  0  0  0  0  0  0  0  0  0
    0.0124   -0.8474   -0.1395 C   0  0  0  0  0  0  0  0  0  0  0  0
   -0.9279    0.2593   -0.4790 C   0  0  0  0  0  0  0  0  0  0  0  0
   -2.2395    0.6473    0.0135 C   0  0  0  0  0  0  0  0  0  0  0  0
   -2.0866   -0.2930   -1.0114 C   0  0  0  0  0  0  0  0  0  0  0  0
   -0.0183    0.7901    0.4789 C   0  0  0  0  0  0  0  0  0  0  0  0
    1.0609    0.0810   -0.2745 C   0  0  0  0  0  0  0  0  0  0  0  0
    2.2434    0.7674   -0.2352 C   0  0  0  0  0  0  0  0  0  0  0  0
    2.2700   -0.5845    0.2351 C   0  0  0  0  0  0  0  0  0  0  0  0
    0.6013   -0.6773    2.0096 H   0  0  0  0  0  0  0  0  0  0  0  0
   -1.1578   -0.7074    1.6959 H   0  0  0  0  0  0  0  0  0  0  0  0
   -0.0683   -1.8306   -0.4627 H   0  0  0  0  0  0  0  0  0  0  0  0
   -2.4955    1.7194   -0.2513 H   0  0  0  0  0  0  0  0  0  0  0  0
   -2.7042    0.3793    0.9727 H   0  0  0  0  0  0  0  0  0  0  0  0
   -2.3626    0.0070   -2.0720 H   0  0  0  0  0  0  0  0  0  0  0  0
   -2.5253   -1.3275   -0.8418 H   0  0  0  0  0  0  0  0  0  0  0  0
    0.0822    1.7313    0.8841 H   0  0  0  0  0  0  0  0  0  0  0  0
    2.5647    1.5267    0.5474 H   0  0  0  0  0  0  0  0  0  0  0  0
    2.7933    1.0388   -1.1891 H   0  0  0  0  0  0  0  0  0  0  0  0
    2.4805   -0.8515    1.2676 H   0  0  0  0  0  0  0  0  0  0  0  0
    2.6596   -1.3725   -0.4799 H   0  0  0  0  0  0  0  0  0  0  0  0
  1  2  1  0
  2  3  1  0
  3  4  1  0
  4  5  1  0
  3  6  1  0
  6  7  1  0
  7  8  1  0
  8  9  1  0
  6  1  1  0
  9  7  1  0
  7  2  1  0
  5  3  1  0
  1 10  1  0
  1 11  1  0
  2 12  1  0
  4 13  1  0
  4 14  1  0
  5 15  1  0
  5 16  1  0
  6 17  1  0
  8 18  1  0
  8 19  1  0
  9 20  1  0
  9 21  1  0
M  END
