
     RDKit          3D

 19 21  0  0  0  0  0  0  0  0999 V2000
   -0.2452   -1.3309   -0.5278 C   0  0  0  0  0  0  0  0  0  0  0  0
   -1.2671   -0.3340   -0.0997 C   0  0  0  0  0  0  0  0  0  0  0  0
   -1.3644    0.8259   -0.8543 O   0  0  0  0  0  0  0  0  0  0  0  0
   -0.9829    1.6463    0.2089 C   0  0  0  0  0  0  0  0  0  0  0  0
   -0.7051    0.4267    1.0624 C   0  0  0  0  0  0  0  0  0  0  0  0
    0.7295    0.0395    1.1083 C   0  0  0  0  0  0  0  0  0  0  0  0
    1.5006    0.4397   -0.1122 C   0  0  0  0  0  0  0  0  0  0  0  0
    2.1126   -0.8348   -0.0728 O   0  0  0  0  0  0  0  0  0  0  0  0
    0.8883   -1.2954    0.4599 C   0  0  0  0  0  0  0  0  0  0  0  0
   -0.7181   -2.3510   -0.4228 H   0  0  0  0  0  0  0  0  0  0  0  0
    0.0680   -1.2588   -1.5757 H   0  0  0  0  0  0  0  0  0  0  0  0
   -2.2968   -0.7265    0.0907 H   0  0  0  0  0  0  0  0  0  0  0  0
   -0.0889    2.2819    0.0139 H   0  0  0  0  0  0  0  0  0  0  0  0
   -1.7780    2.2760    0.6350 H   0  0  0  0  0  0  0  0  0  0  0  0
   -1.2865    0.3312    1.9787 H   0  0  0  0  0  0  0  0  0  0  0  0
    1.2904    0.2306    2.0305 H   0  0  0  0  0  0  0  0  0  0  0  0
    0.9442    0.5202   -1.0554 H   0  0  0  0  0  0  0  0  0  0  0  0
    2.1625    1.2793    0.0961 H   0  0  0  0  0  0  0  0  0  0  0  0
    1.0371   -2.1658    1.0897 H   0  0  0  0  0  0  0  0  0  0  0  0
  1  2  1  0
  2  3  1  0
  3  4  1  0
  4  5  1  0
  5  6  1  0
  6  7  1  0
  7  8  1  0
  8  9  1  0
  9  1  1  0
  5  2  1  0
  9  6  1  0
  1 10  1  0
  1 11  1  0
  2 12  1  0
  4 13  1  0
  4 14  1  0
  5 15  1  0
  6 16  1  0
  7 17  1  0
  7 18  1  0
  9 19  1  0
M  END
