
     RDKit          3D

 19 22  0  0  0  0  0  0  0  0999 V2000
    1.7577    0.7228    0.6143 C   0  0  0  0  0  0  0  0  0  0  0  0
    1.3228   -0.4388   -0.2185 C   0  0  0  0  0  0  0  0  0  0  0  0
    0.1846   -1.3074    0.2817 C   0  0  0  0  0  0  0  0  0  0  0  0
   -0.9277   -1.1907   -0.7568 C   0  0  0  0  0  0  0  0  0  0  0  0
   -1.5904    0.0863   -0.3222 C   0  0  0  0  0  0  0  0  0  0  0  0
   -1.0554    0.3902    1.0163 C   0  0  0  0  0  0  0  0  0  0  0  0
   -0.3520   -0.7062    1.3871 O   0  0  0  0  0  0  0  0  0  0  0  0
   -0.6184    1.1547   -0.1394 C   0  0  0  0  0  0  0  0  0  0  0  0
    0.7806    0.8890   -0.5519 C   0  0  0  0  0  0  0  0  0  0  0  0
    2.7602    1.1385    0.4777 H   0  0  0  0  0  0  0  0  0  0  0  0
    1.3671    0.8362    1.6453 H   0  0  0  0  0  0  0  0  0  0  0  0
    2.0512   -0.9754   -0.8314 H   0  0  0  0  0  0  0  0  0  0  0  0
    0.4507   -2.3531    0.4071 H   0  0  0  0  0  0  0  0  0  0  0  0
   -0.5115   -1.0057   -1.7777 H   0  0  0  0  0  0  0  0  0  0  0  0
   -1.6279   -2.0325   -0.7216 H   0  0  0  0  0  0  0  0  0  0  0  0
   -2.6072    0.3358   -0.6341 H   0  0  0  0  0  0  0  0  0  0  0  0
   -1.6280    0.8923    1.8045 H   0  0  0  0  0  0  0  0  0  0  0  0
   -0.9271    2.2192   -0.1901 H   0  0  0  0  0  0  0  0  0  0  0  0
    1.1708    1.3445   -1.4902 H   0  0  0  0  0  0  0  0  0  0  0  0
  1  2  1  0
  2  3  1  0
  3  4  1  0
  4  5  1  0
  5  6  1  0
  6  7  1  0
  6  8  1  0
  8  9  1  0
  9  1  1  0
  9  2  1  0
  7  3  1  0
  8  5  1  0
  1 10  1  0
  1 11  1  0
  2 12  1  0
  3 13  1  0
  4 14  1  0
  4 15  1  0
  5 16  1  0
  6 17  1  0
  8 18  1  0
  9 19  1  0
M  END
