
     RDKit          3D

 21 24  0  0  0  0  0  0  0  0999 V2000
   -0.0487    1.2186    1.0489 C   0  0  0  0  0  0  0  0  0  0  0  0
    0.9467    0.9653   -0.0515 C   0  0  0  0  0  0  0  0  0  0  0  0
    1.5677   -0.4137    0.0934 C   0  0  0  0  0  0  0  0  0  0  0  0
    0.3436   -1.2945   -0.1596 C   0  0  0  0  0  0  0  0  0  0  0  0
   -0.6910   -1.1131    0.9420 C   0  0  0  0  0  0  0  0  0  0  0  0
   -1.1853    0.2864    0.6544 C   0  0  0  0  0  0  0  0  0  0  0  0
   -1.2479    0.3438   -0.8471 C   0  0  0  0  0  0  0  0  0  0  0  0
    0.0833    0.8391   -1.2639 C   0  0  0  0  0  0  0  0  0  0  0  0
   -0.2604   -0.6179   -1.3494 C   0  0  0  0  0  0  0  0  0  0  0  0
   -0.3792    2.2559    1.0465 H   0  0  0  0  0  0  0  0  0  0  0  0
    0.3767    0.9008    2.0309 H   0  0  0  0  0  0  0  0  0  0  0  0
    1.7430    1.7048   -0.1176 H   0  0  0  0  0  0  0  0  0  0  0  0
    2.2508   -0.5966   -0.7517 H   0  0  0  0  0  0  0  0  0  0  0  0
    1.9957   -0.5991    1.0759 H   0  0  0  0  0  0  0  0  0  0  0  0
    0.5902   -2.3412   -0.2890 H   0  0  0  0  0  0  0  0  0  0  0  0
   -1.4994   -1.8227    0.7339 H   0  0  0  0  0  0  0  0  0  0  0  0
   -0.2584   -1.2278    1.9450 H   0  0  0  0  0  0  0  0  0  0  0  0
   -2.1320    0.5320    1.1265 H   0  0  0  0  0  0  0  0  0  0  0  0
   -2.1760    0.5980   -1.3692 H   0  0  0  0  0  0  0  0  0  0  0  0
    0.2451    1.4470   -2.1595 H   0  0  0  0  0  0  0  0  0  0  0  0
   -0.2644   -1.0649   -2.3386 H   0  0  0  0  0  0  0  0  0  0  0  0
  1  2  1  0
  2  3  1  0
  3  4  1  0
  4  5  1  0
  5  6  1  0
  6  7  1  0
  7  8  1  0
  8  9  1  0
  6  1  1  0
  9  7  1  0
  8  2  1  0
  9  4  1  0
  1 10  1  0
  1 11  1  0
  2 12  1  0
  3 13  1  0
  3 14  1  0
  4 15  1  0
  5 16  1  0
  5 17  1  0
  6 18  1  0
  7 19  1  0
  8 20  1  0
  9 21  1  0
M  END
