
     RDKit          3D

 21 24  0  0  0  0  0  0  0  0999 V2000
   -0.8429   -1.5239    0.2724 C   0  0  0  0  0  0  0  0  0  0  0  0
    0.5828   -1.3059   -0.2256 C   0  0  0  0  0  0  0  0  0  0  0  0
    1.3745   -0.5801    0.7996 C   0  0  0  0  0  0  0  0  0  0  0  0
    1.2050    0.8939    0.5955 C   0  0  0  0  0  0  0  0  0  0  0  0
   -0.0751    1.5561    0.4322 C   0  0  0  0  0  0  0  0  0  0  0  0
   -1.3873    0.9191    0.2217 C   0  0  0  0  0  0  0  0  0  0  0  0
   -1.2388   -0.3316   -0.5609 C   0  0  0  0  0  0  0  0  0  0  0  0
    0.1185   -0.2402   -1.1872 C   0  0  0  0  0  0  0  0  0  0  0  0
    0.7367    1.0428   -0.7682 C   0  0  0  0  0  0  0  0  0  0  0  0
   -1.2927   -2.4830   -0.0223 H   0  0  0  0  0  0  0  0  0  0  0  0
   -0.9842   -1.3128    1.3563 H   0  0  0  0  0  0  0  0  0  0  0  0
    1.0374   -2.2000   -0.6862 H   0  0  0  0  0  0  0  0  0  0  0  0
    2.4626   -0.8141    0.6274 H   0  0  0  0  0  0  0  0  0  0  0  0
    1.1624   -0.8856    1.8344 H   0  0  0  0  0  0  0  0  0  0  0  0
    2.0474    1.4938    0.9794 H   0  0  0  0  0  0  0  0  0  0  0  0
   -0.1114    2.6536    0.5968 H   0  0  0  0  0  0  0  0  0  0  0  0
   -1.9575    0.7174    1.1555 H   0  0  0  0  0  0  0  0  0  0  0  0
   -2.0276    1.6203   -0.3786 H   0  0  0  0  0  0  0  0  0  0  0  0
   -2.0222   -0.5469   -1.3169 H   0  0  0  0  0  0  0  0  0  0  0  0
    0.1692   -0.4908   -2.2523 H   0  0  0  0  0  0  0  0  0  0  0  0
    1.0431    1.8179   -1.4729 H   0  0  0  0  0  0  0  0  0  0  0  0
  1  2  1  0
  2  3  1  0
  3  4  1  0
  4  5  1  0
  5  6  1  0
  6  7  1  0
  7  8  1  0
  8  9  1  0
  7  1  1  0
  8  2  1  0
  9  4  1  0
  9  5  1  0
  1 10  1  0
  1 11  1  0
  2 12  1  0
  3 13  1  0
  3 14  1  0
  4 15  1  0
  5 16  1  0
  6 17  1  0
  6 18  1  0
  7 19  1  0
  8 20  1  0
  9 21  1  0
M  END
