
     RDKit          3D

 19 22  0  0  0  0  0  0  0  0999 V2000
   -1.2350   -1.0045    0.0914 C   0  0  0  0  0  0  0  0  0  0  0  0
   -1.1148    0.3247    0.8436 C   0  0  0  0  0  0  0  0  0  0  0  0
   -0.8556    1.2720   -0.3262 C   0  0  0  0  0  0  0  0  0  0  0  0
    0.2558    0.5410   -1.0384 C   0  0  0  0  0  0  0  0  0  0  0  0
    0.0148   -0.9418   -0.7648 C   0  0  0  0  0  0  0  0  0  0  0  0
    1.2499   -0.9275    0.0884 C   0  0  0  0  0  0  0  0  0  0  0  0
    1.1494    0.0017    1.2115 C   0  0  0  0  0  0  0  0  0  0  0  0
   -0.0849    0.2488    1.7228 O   0  0  0  0  0  0  0  0  0  0  0  0
    1.4468    0.5138   -0.1275 C   0  0  0  0  0  0  0  0  0  0  0  0
   -1.2614   -1.8597    0.7674 H   0  0  0  0  0  0  0  0  0  0  0  0
   -2.1026   -0.9082   -0.5802 H   0  0  0  0  0  0  0  0  0  0  0  0
   -2.0344    0.5949    1.3648 H   0  0  0  0  0  0  0  0  0  0  0  0
   -0.5952    2.2782   -0.0008 H   0  0  0  0  0  0  0  0  0  0  0  0
   -1.7578    1.2232   -0.9743 H   0  0  0  0  0  0  0  0  0  0  0  0
    0.4425    0.8056   -2.0742 H   0  0  0  0  0  0  0  0  0  0  0  0
    0.0227   -1.5713   -1.6546 H   0  0  0  0  0  0  0  0  0  0  0  0
    2.0856   -1.5991   -0.0927 H   0  0  0  0  0  0  0  0  0  0  0  0
    1.9772    0.0337    1.9469 H   0  0  0  0  0  0  0  0  0  0  0  0
    2.3970    0.9745   -0.4031 H   0  0  0  0  0  0  0  0  0  0  0  0
  1  2  1  0
  2  3  1  0
  3  4  1  0
  4  5  1  0
  5  6  1  0
  6  7  1  0
  7  8  1  0
  7  9  1  0
  5  1  1  0
  9  6  1  0
  8  2  1  0
  9  4  1  0
  1 10  1  0
  1 11  1  0
  2 12  1  0
  3 13  1  0
  3 14  1  0
  4 15  1  0
  5 16  1  0
  6 17  1  0
  7 18  1  0
  9 19  1  0
M  END
