
     RDKit          3D

 23 25  0  0  0  0  0  0  0  0999 V2000
    0.1751    1.0079   -1.1528 C   0  0  0  0  0  0  0  0  0  0  0  0
    1.3366    0.4761   -0.4555 C   0  0  0  0  0  0  0  0  0  0  0  0
    1.4010   -1.0094   -0.2803 C   0  0  0  0  0  0  0  0  0  0  0  0
    0.5729   -0.7891    0.9655 C   0  0  0  0  0  0  0  0  0  0  0  0
    1.3274    0.5212    1.0360 C   0  0  0  0  0  0  0  0  0  0  0  0
   -0.8646   -0.6926    0.7806 C   0  0  0  0  0  0  0  0  0  0  0  0
   -1.3842   -0.9051   -0.6205 C   0  0  0  0  0  0  0  0  0  0  0  0
   -1.1649    0.5518   -0.8282 C   0  0  0  0  0  0  0  0  0  0  0  0
   -1.4651    0.6677    0.6728 C   0  0  0  0  0  0  0  0  0  0  0  0
    0.1955    2.1336   -1.0456 H   0  0  0  0  0  0  0  0  0  0  0  0
    0.3420    0.8584   -2.2604 H   0  0  0  0  0  0  0  0  0  0  0  0
    2.2880    0.8682   -0.8603 H   0  0  0  0  0  0  0  0  0  0  0  0
    1.0718   -1.6679   -1.0434 H   0  0  0  0  0  0  0  0  0  0  0  0
    2.4467   -1.2882    0.0467 H   0  0  0  0  0  0  0  0  0  0  0  0
    0.8922   -1.4717    1.7910 H   0  0  0  0  0  0  0  0  0  0  0  0
    2.3718    0.3054    1.4138 H   0  0  0  0  0  0  0  0  0  0  0  0
    0.9172    1.3468    1.5650 H   0  0  0  0  0  0  0  0  0  0  0  0
   -1.4320   -1.3089    1.5261 H   0  0  0  0  0  0  0  0  0  0  0  0
   -0.9402   -1.6324   -1.2569 H   0  0  0  0  0  0  0  0  0  0  0  0
   -2.4975   -1.1001   -0.5496 H   0  0  0  0  0  0  0  0  0  0  0  0
   -1.9450    1.0036   -1.4397 H   0  0  0  0  0  0  0  0  0  0  0  0
   -2.5781    0.6139    0.8059 H   0  0  0  0  0  0  0  0  0  0  0  0
   -1.0664    1.5110    1.1898 H   0  0  0  0  0  0  0  0  0  0  0  0
  1  2  1  0
  2  3  1  0
  3  4  1  0
  4  5  1  0
  4  6  1  0
  6  7  1  0
  7  8  1  0
  8  9  1  0
  8  1  1  0
  5  2  1  0
  9  6  1  0
  1 10  1  0
  1 11  1  0
  2 12  1  0
  3 13  1  0
  3 14  1  0
  4 15  1  0
  5 16  1  0
  5 17  1  0
  6 18  1  0
  7 19  1  0
  7 20  1  0
  8 21  1  0
  9 22  1  0
  9 23  1  0
M  END
