
     RDKit          3D

 17 19  0  0  0  0  0  0  0  0999 V2000
    1.1981   -0.5347   -0.5168 C   0  0  0  0  0  0  0  0  0  0  0  0
    0.7193    0.8646   -0.1113 C   0  0  0  0  0  0  0  0  0  0  0  0
    0.2122    0.5724    1.2758 C   0  0  0  0  0  0  0  0  0  0  0  0
   -0.6678   -0.6429    0.9455 C   0  0  0  0  0  0  0  0  0  0  0  0
   -0.1075   -1.2920   -0.2520 C   0  0  0  0  0  0  0  0  0  0  0  0
   -1.2203   -0.3526   -0.3851 C   0  0  0  0  0  0  0  0  0  0  0  0
   -0.5683    0.9453   -0.8879 C   0  0  0  0  0  0  0  0  0  0  0  0
    2.0109   -0.8887    0.1442 H   0  0  0  0  0  0  0  0  0  0  0  0
    1.5060   -0.5872   -1.5573 H   0  0  0  0  0  0  0  0  0  0  0  0
    1.4207    1.6419   -0.2306 H   0  0  0  0  0  0  0  0  0  0  0  0
    0.9924    0.3314    1.9990 H   0  0  0  0  0  0  0  0  0  0  0  0
   -0.3989    1.4302    1.6113 H   0  0  0  0  0  0  0  0  0  0  0  0
   -1.1846   -1.1552    1.7399 H   0  0  0  0  0  0  0  0  0  0  0  0
   -0.1543   -2.3589   -0.4153 H   0  0  0  0  0  0  0  0  0  0  0  0
   -2.2152   -0.6075   -0.7239 H   0  0  0  0  0  0  0  0  0  0  0  0
   -0.3693    0.8115   -1.9599 H   0  0  0  0  0  0  0  0  0  0  0  0
   -1.1734    1.8221   -0.6755 H   0  0  0  0  0  0  0  0  0  0  0  0
  1  2  1  0
  2  3  1  0
  3  4  1  0
  4  5  1  0
  5  6  1  0
  6  7  1  0
  5  1  1  0
  7  2  1  0
  6  4  1  0
  1  8  1  0
  1  9  1  0
  2 10  1  0
  3 11  1  0
  3 12  1  0
  4 13  1  0
  5 14  1  0
  6 15  1  0
  7 16  1  0
  7 17  1  0
M  END
