
     RDKit          3D

 19 21  0  0  0  0  0  0  0  0999 V2000
   -1.4485    0.4899    0.7653 C   0  0  0  0  0  0  0  0  0  0  0  0
   -1.1362   -0.8720    0.1288 C   0  0  0  0  0  0  0  0  0  0  0  0
   -0.7874   -0.1512   -1.1175 C   0  0  0  0  0  0  0  0  0  0  0  0
   -0.5403    1.0928   -0.2770 C   0  0  0  0  0  0  0  0  0  0  0  0
    0.8715    1.2048    0.1095 C   0  0  0  0  0  0  0  0  0  0  0  0
    1.7497    0.7345   -0.9957 O   0  0  0  0  0  0  0  0  0  0  0  0
    1.6811    0.0893    0.3022 C   0  0  0  0  0  0  0  0  0  0  0  0
    1.1368   -1.2831    0.3620 C   0  0  0  0  0  0  0  0  0  0  0  0
   -0.1305   -1.4209    0.8381 O   0  0  0  0  0  0  0  0  0  0  0  0
   -1.0883    0.6114    1.7853 H   0  0  0  0  0  0  0  0  0  0  0  0
   -2.5069    0.7471    0.6725 H   0  0  0  0  0  0  0  0  0  0  0  0
   -2.0074   -1.5270    0.0267 H   0  0  0  0  0  0  0  0  0  0  0  0
   -1.7232    0.0373   -1.7237 H   0  0  0  0  0  0  0  0  0  0  0  0
    0.0402   -0.4890   -1.7275 H   0  0  0  0  0  0  0  0  0  0  0  0
   -0.9713    2.0310   -0.7188 H   0  0  0  0  0  0  0  0  0  0  0  0
    1.2116    2.2138    0.4156 H   0  0  0  0  0  0  0  0  0  0  0  0
    2.6821    0.2348    0.8039 H   0  0  0  0  0  0  0  0  0  0  0  0
    1.1712   -1.7933   -0.6468 H   0  0  0  0  0  0  0  0  0  0  0  0
    1.7956   -1.9503    0.9973 H   0  0  0  0  0  0  0  0  0  0  0  0
  1  2  1  0
  2  3  1  0
  3  4  1  0
  4  5  1  0
  5  6  1  0
  6  7  1  0
  7  8  1  0
  8  9  1  0
  4  1  1  0
  7  5  1  0
  9  2  1  0
  1 10  1  0
  1 11  1  0
  2 12  1  0
  3 13  1  0
  3 14  1  0
  4 15  1  0
  5 16  1  0
  7 17  1  0
  8 18  1  0
  8 19  1  0
M  END
