
     RDKit          3D

 16 18  0  0  0  0  0  0  0  0999 V2000
   -1.2767    0.4086    0.1639 C   0  0  0  0  0  0  0  0  0  0  0  0
   -0.0452    0.8282   -0.6651 C   0  0  0  0  0  0  0  0  0  0  0  0
    0.9038    0.8486    0.5522 C   0  0  0  0  0  0  0  0  0  0  0  0
    0.7260   -0.6748    0.7599 C   0  0  0  0  0  0  0  0  0  0  0  0
    1.3704   -1.0276   -0.4583 O   0  0  0  0  0  0  0  0  0  0  0  0
    0.3667   -0.4565   -1.2937 C   0  0  0  0  0  0  0  0  0  0  0  0
   -0.6396   -1.3884   -0.9184 O   0  0  0  0  0  0  0  0  0  0  0  0
   -0.6890   -0.9907    0.4446 C   0  0  0  0  0  0  0  0  0  0  0  0
   -1.3466    0.9902    1.0884 H   0  0  0  0  0  0  0  0  0  0  0  0
   -2.1750    0.3596   -0.4435 H   0  0  0  0  0  0  0  0  0  0  0  0
   -0.1235    1.7025   -1.2099 H   0  0  0  0  0  0  0  0  0  0  0  0
    1.9063    1.0946    0.2151 H   0  0  0  0  0  0  0  0  0  0  0  0
    0.5007    1.4203    1.3780 H   0  0  0  0  0  0  0  0  0  0  0  0
    1.1704   -1.0553    1.6326 H   0  0  0  0  0  0  0  0  0  0  0  0
    0.6066   -0.4614   -2.3268 H   0  0  0  0  0  0  0  0  0  0  0  0
   -1.2552   -1.5979    1.0809 H   0  0  0  0  0  0  0  0  0  0  0  0
  1  2  1  0
  2  3  1  0
  3  4  1  0
  4  5  1  0
  5  6  1  0
  6  7  1  0
  7  8  1  0
  8  1  1  0
  6  2  1  0
  8  4  1  0
  1  9  1  0
  1 10  1  0
  2 11  1  0
  3 12  1  0
  3 13  1  0
  4 14  1  0
  6 15  1  0
  8 16  1  0
M  END
