
     RDKit          3D

 18 21  0  0  0  0  0  0  0  0999 V2000
    2.0293    0.3141    0.0674 C   0  0  0  0  0  0  0  0  0  0  0  0
    1.0708   -0.4868    0.8690 C   0  0  0  0  0  0  0  0  0  0  0  0
    1.1650   -0.6208   -0.6916 C   0  0  0  0  0  0  0  0  0  0  0  0
   -0.2390   -0.2170   -1.0311 C   0  0  0  0  0  0  0  0  0  0  0  0
   -0.5324    0.9792   -0.1907 C   0  0  0  0  0  0  0  0  0  0  0  0
   -1.9562    0.4933   -0.1414 C   0  0  0  0  0  0  0  0  0  0  0  0
   -1.1437   -0.7561    0.0434 C   0  0  0  0  0  0  0  0  0  0  0  0
   -0.3141    0.0600    0.9830 C   0  0  0  0  0  0  0  0  0  0  0  0
    1.8282    1.4155    0.0761 H   0  0  0  0  0  0  0  0  0  0  0  0
    3.0885    0.0576    0.1973 H   0  0  0  0  0  0  0  0  0  0  0  0
    1.3405   -1.4003    1.3942 H   0  0  0  0  0  0  0  0  0  0  0  0
    1.5918   -1.5438   -1.0757 H   0  0  0  0  0  0  0  0  0  0  0  0
   -0.5664   -0.2506   -2.0510 H   0  0  0  0  0  0  0  0  0  0  0  0
   -0.2119    1.9183   -0.2929 H   0  0  0  0  0  0  0  0  0  0  0  0
   -2.5416    0.5536   -1.0510 H   0  0  0  0  0  0  0  0  0  0  0  0
   -2.4299    0.8393    0.8033 H   0  0  0  0  0  0  0  0  0  0  0  0
   -1.4713   -1.6926    0.1528 H   0  0  0  0  0  0  0  0  0  0  0  0
   -0.7074    0.3369    1.9387 H   0  0  0  0  0  0  0  0  0  0  0  0
  1  2  1  0
  2  3  1  0
  3  4  1  0
  4  5  1  0
  5  6  1  0
  6  7  1  0
  7  8  1  0
  3  1  1  0
  7  4  1  0
  8  2  1  0
  8  5  1  0
  1  9  1  0
  1 10  1  0
  2 11  1  0
  3 12  1  0
  4 13  1  0
  5 14  1  0
  6 15  1  0
  6 16  1  0
  7 17  1  0
  8 18  1  0
M  END
