
     RDKit          3D

 20 22  0  0  0  0  0  0  0  0999 V2000
   -1.2837   -0.0543    1.1347 C   0  0  0  0  0  0  0  0  0  0  0  0
   -1.1825    0.7087   -0.1922 C   0  0  0  0  0  0  0  0  0  0  0  0
   -1.1091   -0.6726   -0.8340 C   0  0  0  0  0  0  0  0  0  0  0  0
   -0.4406   -1.1254    0.4249 C   0  0  0  0  0  0  0  0  0  0  0  0
    1.0146   -0.7620    0.4922 C   0  0  0  0  0  0  0  0  0  0  0  0
    1.8332   -0.4813   -0.6810 C   0  0  0  0  0  0  0  0  0  0  0  0
    1.2977    0.6456    0.1572 C   0  0  0  0  0  0  0  0  0  0  0  0
    0.1283    1.4398   -0.3071 C   0  0  0  0  0  0  0  0  0  0  0  0
   -2.3129   -0.4352    1.2464 H   0  0  0  0  0  0  0  0  0  0  0  0
   -0.8109    0.4203    1.9849 H   0  0  0  0  0  0  0  0  0  0  0  0
   -2.0413    1.3132   -0.4508 H   0  0  0  0  0  0  0  0  0  0  0  0
   -0.5540   -0.7211   -1.7619 H   0  0  0  0  0  0  0  0  0  0  0  0
   -2.1427   -1.0821   -0.8811 H   0  0  0  0  0  0  0  0  0  0  0  0
   -0.6839   -2.1071    0.8147 H   0  0  0  0  0  0  0  0  0  0  0  0
    1.5140   -1.1372    1.4189 H   0  0  0  0  0  0  0  0  0  0  0  0
    2.9320   -0.7319   -0.6011 H   0  0  0  0  0  0  0  0  0  0  0  0
    1.4814   -0.6053   -1.7245 H   0  0  0  0  0  0  0  0  0  0  0  0
    2.1059    1.2176    0.7009 H   0  0  0  0  0  0  0  0  0  0  0  0
    0.2132    1.8343   -1.3157 H   0  0  0  0  0  0  0  0  0  0  0  0
    0.0414    2.3360    0.3747 H   0  0  0  0  0  0  0  0  0  0  0  0
  1  2  1  0
  2  3  1  0
  3  4  1  0
  4  5  1  0
  5  6  1  0
  6  7  1  0
  7  8  1  0
  4  1  1  0
  7  5  1  0
  8  2  1  0
  1  9  1  0
  1 10  1  0
  2 11  1  0
  3 12  1  0
  3 13  1  0
  4 14  1  0
  5 15  1  0
  6 16  1  0
  6 17  1  0
  7 18  1  0
  8 19  1  0
  8 20  1  0
M  END
