
     RDKit          3D

 17 20  0  0  0  0  0  0  0  0999 V2000
    2.5566   -0.0607    0.0448 C   0  0  0  0  0  0  0  0  0  0  0  0
    1.6133    1.0409   -0.1883 C   0  0  0  0  0  0  0  0  0  0  0  0
    0.5081    1.1333    0.6751 O   0  0  0  0  0  0  0  0  0  0  0  0
   -0.0398    0.0649    0.0227 C   0  0  0  0  0  0  0  0  0  0  0  0
    1.2366   -0.4223   -0.5259 C   0  0  0  0  0  0  0  0  0  0  0  0
   -1.1224   -0.7637    0.5254 C   0  0  0  0  0  0  0  0  0  0  0  0
   -2.3391   -0.0309    1.0683 C   0  0  0  0  0  0  0  0  0  0  0  0
   -2.3959    0.6877   -0.1138 O   0  0  0  0  0  0  0  0  0  0  0  0
   -1.3035    0.0797   -0.6982 C   0  0  0  0  0  0  0  0  0  0  0  0
    3.4341   -0.0951   -0.6499 H   0  0  0  0  0  0  0  0  0  0  0  0
    2.8228   -0.3914    1.0660 H   0  0  0  0  0  0  0  0  0  0  0  0
    1.7136    1.7462   -1.0196 H   0  0  0  0  0  0  0  0  0  0  0  0
    1.2179   -0.6911   -1.6095 H   0  0  0  0  0  0  0  0  0  0  0  0
   -1.1841   -1.8562    0.4196 H   0  0  0  0  0  0  0  0  0  0  0  0
   -3.2040   -0.6684    1.2952 H   0  0  0  0  0  0  0  0  0  0  0  0
   -2.1131    0.6099    1.9575 H   0  0  0  0  0  0  0  0  0  0  0  0
   -1.4011   -0.3829   -1.6991 H   0  0  0  0  0  0  0  0  0  0  0  0
  1  2  1  0
  2  3  1  0
  3  4  1  0
  4  5  1  0
  4  6  1  0
  6  7  1  0
  7  8  1  0
  8  9  1  0
  5  1  1  0
  9  6  1  0
  5  2  1  0
  9  4  1  0
  1 10  1  0
  1 11  1  0
  2 12  1  0
  5 13  1  0
  6 14  1  0
  7 15  1  0
  7 16  1  0
  9 17  1  0
M  END
