
     RDKit          2D

 17 20  0  0  0  0  0  0  0  0999 V2000
   -1.1168    1.8174    0.0000 C   0  0  0  0  0  0  0  0  0  0  0  0
   -0.9376    3.1240    0.0000 C   0  0  0  0  0  0  0  0  0  0  0  0
   -2.2367    2.3740    0.0000 C   0  0  0  0  0  0  0  0  0  0  0  0
   -0.9886    1.1763    0.0000 O   0  0  0  0  0  0  0  0  0  0  0  0
    0.1771    2.1203    0.0000 C   0  0  0  0  0  0  0  0  0  0  0  0
   -0.4330    0.7500    0.0000 C   0  0  0  0  0  0  0  0  0  0  0  0
    0.8660    0.0000    0.0000 C   0  0  0  0  0  0  0  0  0  0  0  0
   -0.4330   -0.7500    0.0000 O   0  0  0  0  0  0  0  0  0  0  0  0
   -1.9248    0.9068    0.0000 C   0  0  0  0  0  0  0  0  0  0  0  0
    0.0131    0.0440    0.0000 H   0  0  0  0  0  0  0  0  0  0  0  0
    0.9756    1.4442    0.0000 H   0  0  0  0  0  0  0  0  0  0  0  0
   -0.7808    4.6158    0.0000 H   0  0  0  0  0  0  0  0  0  0  0  0
   -3.6070    2.9841    0.0000 H   0  0  0  0  0  0  0  0  0  0  0  0
    1.5954    2.6087    0.0000 H   0  0  0  0  0  0  0  0  0  0  0  0
    1.8302    1.1491    0.0000 H   0  0  0  0  0  0  0  0  0  0  0  0
    1.8302   -1.1491    0.0000 H   0  0  0  0  0  0  0  0  0  0  0  0
   -2.9285   -0.2079    0.0000 H   0  0  0  0  0  0  0  0  0  0  0  0
  1  2  1  0
  2  3  1  0
  3  4  1  0
  4  5  1  0
  5  6  1  0
  6  7  1  0
  7  8  1  0
  6  9  1  0
  9  1  1  0
  5  2  1  0
  8  6  1  0
  9  3  1  0
  1 10  1  0
  1 11  1  0
  2 12  1  0
  3 13  1  0
  5 14  1  0
  7 15  1  0
  7 16  1  0
  9 17  1  0
M  END
