
     RDKit          3D

 17 20  0  0  0  0  0  0  0  0999 V2000
   -1.4433   -0.7572   -0.2488 C   0  0  0  0  0  0  0  0  0  0  0  0
   -0.5834   -0.7721    1.0082 C   0  0  0  0  0  0  0  0  0  0  0  0
    0.6670   -1.2990    0.7931 O   0  0  0  0  0  0  0  0  0  0  0  0
    1.4253   -0.6411   -0.1386 C   0  0  0  0  0  0  0  0  0  0  0  0
    1.5366    0.8182    0.0430 C   0  0  0  0  0  0  0  0  0  0  0  0
    0.7249    1.2503    1.0649 O   0  0  0  0  0  0  0  0  0  0  0  0
   -0.5339    0.7498    0.8807 C   0  0  0  0  0  0  0  0  0  0  0  0
   -0.6978    0.5185   -0.6266 C   0  0  0  0  0  0  0  0  0  0  0  0
    0.7101    0.2613   -1.0476 C   0  0  0  0  0  0  0  0  0  0  0  0
   -1.3161   -1.5992   -0.9251 H   0  0  0  0  0  0  0  0  0  0  0  0
   -2.4907   -0.5003    0.0180 H   0  0  0  0  0  0  0  0  0  0  0  0
   -1.0645   -1.1520    1.9095 H   0  0  0  0  0  0  0  0  0  0  0  0
    2.3192   -1.2096   -0.4840 H   0  0  0  0  0  0  0  0  0  0  0  0
    2.4179    1.3928   -0.2595 H   0  0  0  0  0  0  0  0  0  0  0  0
   -1.3849    1.2879    1.2772 H   0  0  0  0  0  0  0  0  0  0  0  0
   -1.2722    1.2694   -1.1547 H   0  0  0  0  0  0  0  0  0  0  0  0
    0.9860    0.3822   -2.1097 H   0  0  0  0  0  0  0  0  0  0  0  0
  1  2  1  0
  2  3  1  0
  3  4  1  0
  4  5  1  0
  5  6  1  0
  6  7  1  0
  7  8  1  0
  8  9  1  0
  8  1  1  0
  7  2  1  0
  9  4  1  0
  9  5  1  0
  1 10  1  0
  1 11  1  0
  2 12  1  0
  4 13  1  0
  5 14  1  0
  7 15  1  0
  8 16  1  0
  9 17  1  0
M  END
