
     RDKit          3D

 13 15  0  0  0  0  0  0  0  0999 V2000
    1.2520    0.1228   -0.0483 C   0  0  0  0  0  0  0  0  0  0  0  0
    0.2002    0.4634    0.9638 C   0  0  0  0  0  0  0  0  0  0  0  0
    0.0617   -0.9324    1.1521 O   0  0  0  0  0  0  0  0  0  0  0  0
    0.3019   -1.0138   -0.2393 C   0  0  0  0  0  0  0  0  0  0  0  0
   -0.9894   -0.4305   -0.7741 C   0  0  0  0  0  0  0  0  0  0  0  0
   -2.0475   -0.2109    0.1022 O   0  0  0  0  0  0  0  0  0  0  0  0
   -1.0695    0.7668    0.1968 C   0  0  0  0  0  0  0  0  0  0  0  0
    1.3754    0.8256   -0.8889 H   0  0  0  0  0  0  0  0  0  0  0  0
    2.1714   -0.2060    0.4378 H   0  0  0  0  0  0  0  0  0  0  0  0
    0.4442    1.0516    1.8149 H   0  0  0  0  0  0  0  0  0  0  0  0
    0.6435   -1.9477   -0.6238 H   0  0  0  0  0  0  0  0  0  0  0  0
   -1.1179   -0.2409   -1.8404 H   0  0  0  0  0  0  0  0  0  0  0  0
   -1.2260    1.7521   -0.2528 H   0  0  0  0  0  0  0  0  0  0  0  0
  1  2  1  0
  2  3  1  0
  3  4  1  0
  4  5  1  0
  5  6  1  0
  6  7  1  0
  4  1  1  0
  7  5  1  0
  7  2  1  0
  1  8  1  0
  1  9  1  0
  2 10  1  0
  4 11  1  0
  5 12  1  0
  7 13  1  0
M  END
