
     RDKit          3D

 13 15  0  0  0  0  0  0  0  0999 V2000
   -1.1738   -0.3323   -0.1246 C   0  0  0  0  0  0  0  0  0  0  0  0
   -0.6158    1.0809   -0.3419 C   0  0  0  0  0  0  0  0  0  0  0  0
    0.0336    1.2944    0.8452 O   0  0  0  0  0  0  0  0  0  0  0  0
    0.8757    0.1575    0.8974 C   0  0  0  0  0  0  0  0  0  0  0  0
    0.1575   -0.9600    0.3042 C   0  0  0  0  0  0  0  0  0  0  0  0
    1.1241   -0.1738   -0.5026 C   0  0  0  0  0  0  0  0  0  0  0  0
    0.4301    0.7963   -1.2171 O   0  0  0  0  0  0  0  0  0  0  0  0
   -1.4687   -0.7186   -1.1049 H   0  0  0  0  0  0  0  0  0  0  0  0
   -1.9275   -0.3699    0.6551 H   0  0  0  0  0  0  0  0  0  0  0  0
   -1.3296    1.7943   -0.6674 H   0  0  0  0  0  0  0  0  0  0  0  0
    1.6699    0.1065    1.6281 H   0  0  0  0  0  0  0  0  0  0  0  0
    0.2356   -1.9983    0.5313 H   0  0  0  0  0  0  0  0  0  0  0  0
    1.9890   -0.6770   -0.9028 H   0  0  0  0  0  0  0  0  0  0  0  0
  1  2  1  0
  2  3  1  0
  3  4  1  0
  4  5  1  0
  5  6  1  0
  6  7  1  0
  5  1  1  0
  7  2  1  0
  6  4  1  0
  1  8  1  0
  1  9  1  0
  2 10  1  0
  4 11  1  0
  5 12  1  0
  6 13  1  0
M  END
