
     RDKit          3D

 19 22  0  0  0  0  0  0  0  0999 V2000
    1.6452   -0.5642    0.4992 C   0  0  0  0  0  0  0  0  0  0  0  0
    0.6499    0.5502    0.8639 C   0  0  0  0  0  0  0  0  0  0  0  0
    0.5874    0.7881   -0.6506 C   0  0  0  0  0  0  0  0  0  0  0  0
   -0.8500    1.1108   -0.8481 C   0  0  0  0  0  0  0  0  0  0  0  0
   -1.4825    0.0059   -0.0760 C   0  0  0  0  0  0  0  0  0  0  0  0
   -0.6756   -0.0617    1.1927 C   0  0  0  0  0  0  0  0  0  0  0  0
   -0.7292   -1.4703    1.0436 O   0  0  0  0  0  0  0  0  0  0  0  0
   -0.6416   -1.2196   -0.3474 C   0  0  0  0  0  0  0  0  0  0  0  0
    0.7256   -0.7191   -0.7251 C   0  0  0  0  0  0  0  0  0  0  0  0
    1.6342   -1.4065    1.1862 H   0  0  0  0  0  0  0  0  0  0  0  0
    2.6004   -0.1125    0.2323 H   0  0  0  0  0  0  0  0  0  0  0  0
    1.0301    1.3522    1.4610 H   0  0  0  0  0  0  0  0  0  0  0  0
    1.3549    1.3942   -1.0783 H   0  0  0  0  0  0  0  0  0  0  0  0
   -1.0762    2.0984   -0.3488 H   0  0  0  0  0  0  0  0  0  0  0  0
   -1.1745    1.1965   -1.8937 H   0  0  0  0  0  0  0  0  0  0  0  0
   -2.5418   -0.0975   -0.0316 H   0  0  0  0  0  0  0  0  0  0  0  0
   -1.1693    0.2709    2.1118 H   0  0  0  0  0  0  0  0  0  0  0  0
   -1.0801   -1.9862   -0.9840 H   0  0  0  0  0  0  0  0  0  0  0  0
    1.1932   -1.1297   -1.6070 H   0  0  0  0  0  0  0  0  0  0  0  0
  1  2  1  0
  2  3  1  0
  3  4  1  0
  4  5  1  0
  5  6  1  0
  6  7  1  0
  7  8  1  0
  8  9  1  0
  9  1  1  0
  6  2  1  0
  9  3  1  0
  8  5  1  0
  1 10  1  0
  1 11  1  0
  2 12  1  0
  3 13  1  0
  4 14  1  0
  4 15  1  0
  5 16  1  0
  6 17  1  0
  8 18  1  0
  9 19  1  0
M  END
