
     RDKit          3D

 16 18  0  0  0  0  0  0  0  0999 V2000
    1.7885    1.0737   -0.2554 C   0  0  0  0  0  0  0  0  0  0  0  0
    1.5643   -0.1733    0.5322 C   0  0  0  0  0  0  0  0  0  0  0  0
    0.4292   -0.1787    1.3470 O   0  0  0  0  0  0  0  0  0  0  0  0
   -0.3434   -0.1858    0.2442 C   0  0  0  0  0  0  0  0  0  0  0  0
   -1.3188   -1.2560    0.0109 C   0  0  0  0  0  0  0  0  0  0  0  0
   -2.1277   -0.3287   -0.6789 O   0  0  0  0  0  0  0  0  0  0  0  0
   -1.5559    0.6537    0.1649 C   0  0  0  0  0  0  0  0  0  0  0  0
    0.7618    0.0451   -0.7041 C   0  0  0  0  0  0  0  0  0  0  0  0
    2.7540    1.1426   -0.7570 H   0  0  0  0  0  0  0  0  0  0  0  0
    1.2906    1.9981    0.1469 H   0  0  0  0  0  0  0  0  0  0  0  0
    2.2471   -1.0181    0.5142 H   0  0  0  0  0  0  0  0  0  0  0  0
   -1.8681   -1.5163    0.9607 H   0  0  0  0  0  0  0  0  0  0  0  0
   -1.0449   -2.1479   -0.5408 H   0  0  0  0  0  0  0  0  0  0  0  0
   -1.3713    1.5679   -0.4500 H   0  0  0  0  0  0  0  0  0  0  0  0
   -2.1196    0.8389    1.0867 H   0  0  0  0  0  0  0  0  0  0  0  0
    0.9143   -0.5152   -1.6215 H   0  0  0  0  0  0  0  0  0  0  0  0
  1  2  1  0
  2  3  1  0
  3  4  1  0
  4  5  1  0
  5  6  1  0
  6  7  1  0
  4  8  1  0
  8  1  1  0
  8  2  1  0
  7  4  1  0
  1  9  1  0
  1 10  1  0
  2 11  1  0
  5 12  1  0
  5 13  1  0
  7 14  1  0
  7 15  1  0
  8 16  1  0
M  END
