
     RDKit          3D

 15 17  0  0  0  0  0  0  0  0999 V2000
   -0.7744    1.0673   -0.0372 C   0  0  0  0  0  0  0  0  0  0  0  0
    0.4602    0.5883   -0.7449 C   0  0  0  0  0  0  0  0  0  0  0  0
    1.6328    0.3542    0.1327 C   0  0  0  0  0  0  0  0  0  0  0  0
    0.7841   -0.7823   -0.2074 C   0  0  0  0  0  0  0  0  0  0  0  0
   -0.4464   -1.1842    0.5035 C   0  0  0  0  0  0  0  0  0  0  0  0
   -1.5797   -1.2409   -0.4921 O   0  0  0  0  0  0  0  0  0  0  0  0
   -1.4264   -0.2123    0.4171 C   0  0  0  0  0  0  0  0  0  0  0  0
   -0.4789    1.6165    0.8983 H   0  0  0  0  0  0  0  0  0  0  0  0
   -1.4014    1.7031   -0.6545 H   0  0  0  0  0  0  0  0  0  0  0  0
    0.5464    0.6752   -1.8360 H   0  0  0  0  0  0  0  0  0  0  0  0
    2.6169    0.4136   -0.3541 H   0  0  0  0  0  0  0  0  0  0  0  0
    1.6311    0.8406    1.1427 H   0  0  0  0  0  0  0  0  0  0  0  0
    1.2023   -1.5562   -0.9076 H   0  0  0  0  0  0  0  0  0  0  0  0
   -0.4768   -2.1690    1.0207 H   0  0  0  0  0  0  0  0  0  0  0  0
   -2.2898   -0.1140    1.1187 H   0  0  0  0  0  0  0  0  0  0  0  0
  1  2  1  0
  2  3  1  0
  3  4  1  0
  4  5  1  0
  5  6  1  0
  6  7  1  0
  7  1  1  0
  4  2  1  0
  7  5  1  0
  1  8  1  0
  1  9  1  0
  2 10  1  0
  3 11  1  0
  3 12  1  0
  4 13  1  0
  5 14  1  0
  7 15  1  0
M  END
