
     RDKit          3D

 17 19  0  0  0  0  0  0  0  0999 V2000
    2.0335   -0.2224    0.7030 C   0  0  0  0  0  0  0  0  0  0  0  0
    1.4848    0.9195   -0.0611 C   0  0  0  0  0  0  0  0  0  0  0  0
    0.1067    1.1229    0.0594 O   0  0  0  0  0  0  0  0  0  0  0  0
   -0.5133    0.2745   -0.8244 C   0  0  0  0  0  0  0  0  0  0  0  0
   -1.7823   -0.3200   -0.3114 C   0  0  0  0  0  0  0  0  0  0  0  0
   -2.3927   -0.0384    0.9379 C   0  0  0  0  0  0  0  0  0  0  0  0
   -1.4790   -1.0963    0.9179 O   0  0  0  0  0  0  0  0  0  0  0  0
    0.3714   -0.7864   -1.0725 O   0  0  0  0  0  0  0  0  0  0  0  0
    1.6239   -0.3760   -0.7135 C   0  0  0  0  0  0  0  0  0  0  0  0
    1.4083   -0.6627    1.5245 H   0  0  0  0  0  0  0  0  0  0  0  0
    3.1206   -0.3220    0.9014 H   0  0  0  0  0  0  0  0  0  0  0  0
    2.1149    1.7592   -0.4078 H   0  0  0  0  0  0  0  0  0  0  0  0
   -0.6808    0.7676   -1.8033 H   0  0  0  0  0  0  0  0  0  0  0  0
   -2.2802   -1.0106   -1.0267 H   0  0  0  0  0  0  0  0  0  0  0  0
   -2.1175    0.8827    1.5301 H   0  0  0  0  0  0  0  0  0  0  0  0
   -3.4204   -0.3608    1.1390 H   0  0  0  0  0  0  0  0  0  0  0  0
    2.4022   -0.5307   -1.4924 H   0  0  0  0  0  0  0  0  0  0  0  0
  1  2  1  0
  2  3  1  0
  3  4  1  0
  4  5  1  0
  5  6  1  0
  6  7  1  0
  4  8  1  0
  8  9  1  0
  9  1  1  0
  9  2  1  0
  7  5  1  0
  1 10  1  0
  1 11  1  0
  2 12  1  0
  4 13  1  0
  5 14  1  0
  6 15  1  0
  6 16  1  0
  9 17  1  0
M  END
