
     RDKit          3D

 19 21  0  0  0  0  0  0  0  0999 V2000
    2.0797    0.2474   -0.7000 C   0  0  0  0  0  0  0  0  0  0  0  0
    1.5583   -0.3903    0.5281 C   0  0  0  0  0  0  0  0  0  0  0  0
    0.1959   -1.0397    0.3630 C   0  0  0  0  0  0  0  0  0  0  0  0
   -0.6953    0.1440    0.1654 C   0  0  0  0  0  0  0  0  0  0  0  0
   -2.0278    0.0488    0.8256 C   0  0  0  0  0  0  0  0  0  0  0  0
   -2.6331    0.4993   -0.3412 O   0  0  0  0  0  0  0  0  0  0  0  0
   -1.5191    0.1385   -1.1116 C   0  0  0  0  0  0  0  0  0  0  0  0
    0.0193    1.2838    0.2837 O   0  0  0  0  0  0  0  0  0  0  0  0
    1.3506    1.0494    0.2863 C   0  0  0  0  0  0  0  0  0  0  0  0
    1.6449   -0.0579   -1.6786 H   0  0  0  0  0  0  0  0  0  0  0  0
    3.1796    0.3993   -0.7688 H   0  0  0  0  0  0  0  0  0  0  0  0
    2.1935   -0.6596    1.3798 H   0  0  0  0  0  0  0  0  0  0  0  0
   -0.0749   -1.6952    1.1889 H   0  0  0  0  0  0  0  0  0  0  0  0
    0.1749   -1.6203   -0.6059 H   0  0  0  0  0  0  0  0  0  0  0  0
   -2.1922    0.6781    1.7244 H   0  0  0  0  0  0  0  0  0  0  0  0
   -2.3610   -0.9832    1.0533 H   0  0  0  0  0  0  0  0  0  0  0  0
   -1.2413    0.9452   -1.8117 H   0  0  0  0  0  0  0  0  0  0  0  0
   -1.5970   -0.8163   -1.6299 H   0  0  0  0  0  0  0  0  0  0  0  0
    1.9451    1.8285    0.8492 H   0  0  0  0  0  0  0  0  0  0  0  0
  1  2  1  0
  2  3  1  0
  3  4  1  0
  4  5  1  0
  5  6  1  0
  6  7  1  0
  4  8  1  0
  8  9  1  0
  9  1  1  0
  9  2  1  0
  7  4  1  0
  1 10  1  0
  1 11  1  0
  2 12  1  0
  3 13  1  0
  3 14  1  0
  5 15  1  0
  5 16  1  0
  7 17  1  0
  7 18  1  0
  9 19  1  0
M  END
