
     RDKit          3D

 17 20  0  0  0  0  0  0  0  0999 V2000
   -1.9960   -0.0547    0.4608 C   0  0  0  0  0  0  0  0  0  0  0  0
   -0.6358    0.2437    1.0364 C   0  0  0  0  0  0  0  0  0  0  0  0
   -1.0283    0.6449   -0.4229 C   0  0  0  0  0  0  0  0  0  0  0  0
   -0.0338   -0.1595   -1.1943 C   0  0  0  0  0  0  0  0  0  0  0  0
    0.0379   -1.3390   -0.4178 O   0  0  0  0  0  0  0  0  0  0  0  0
    0.4462   -0.7661    0.8096 C   0  0  0  0  0  0  0  0  0  0  0  0
    1.7079   -0.0671    0.3986 C   0  0  0  0  0  0  0  0  0  0  0  0
    1.6704    1.2559   -0.0260 O   0  0  0  0  0  0  0  0  0  0  0  0
    1.3696    0.3704   -1.0229 C   0  0  0  0  0  0  0  0  0  0  0  0
   -2.2243   -1.0930    0.1834 H   0  0  0  0  0  0  0  0  0  0  0  0
   -2.8104    0.5175    0.9255 H   0  0  0  0  0  0  0  0  0  0  0  0
   -0.4755    1.1024    1.6944 H   0  0  0  0  0  0  0  0  0  0  0  0
   -1.0883    1.7209   -0.6342 H   0  0  0  0  0  0  0  0  0  0  0  0
   -0.2820   -0.3500   -2.2321 H   0  0  0  0  0  0  0  0  0  0  0  0
    0.5644   -1.5062    1.5988 H   0  0  0  0  0  0  0  0  0  0  0  0
    2.6734   -0.5464    0.6008 H   0  0  0  0  0  0  0  0  0  0  0  0
    2.1047    0.0262   -1.7582 H   0  0  0  0  0  0  0  0  0  0  0  0
  1  2  1  0
  2  3  1  0
  3  4  1  0
  4  5  1  0
  5  6  1  0
  6  7  1  0
  7  8  1  0
  8  9  1  0
  3  1  1  0
  9  4  1  0
  6  2  1  0
  9  7  1  0
  1 10  1  0
  1 11  1  0
  2 12  1  0
  3 13  1  0
  4 14  1  0
  6 15  1  0
  7 16  1  0
  9 17  1  0
M  END
