
     RDKit          3D

 20 22  0  0  0  0  0  0  0  0999 V2000
    2.1462    0.6308    0.2496 C   0  0  0  0  0  0  0  0  0  0  0  0
    1.5038   -0.6676    0.4102 C   0  0  0  0  0  0  0  0  0  0  0  0
    0.0988   -0.8394    0.8942 C   0  0  0  0  0  0  0  0  0  0  0  0
   -0.7697   -0.0292   -0.0320 C   0  0  0  0  0  0  0  0  0  0  0  0
   -2.1942   -0.3745   -0.0672 C   0  0  0  0  0  0  0  0  0  0  0  0
   -1.7234    0.8944    0.5972 C   0  0  0  0  0  0  0  0  0  0  0  0
    0.0328    0.3091   -1.2390 C   0  0  0  0  0  0  0  0  0  0  0  0
    1.4675   -0.0152   -0.9277 C   0  0  0  0  0  0  0  0  0  0  0  0
    3.2605    0.6350    0.2186 H   0  0  0  0  0  0  0  0  0  0  0  0
    1.7087    1.5907    0.5494 H   0  0  0  0  0  0  0  0  0  0  0  0
    2.1534   -1.5628    0.5806 H   0  0  0  0  0  0  0  0  0  0  0  0
   -0.1932   -1.9136    0.8192 H   0  0  0  0  0  0  0  0  0  0  0  0
   -0.0566   -0.5481    1.9456 H   0  0  0  0  0  0  0  0  0  0  0  0
   -2.5624   -1.2045    0.5940 H   0  0  0  0  0  0  0  0  0  0  0  0
   -2.8110   -0.2484   -0.9721 H   0  0  0  0  0  0  0  0  0  0  0  0
   -1.7877    0.9130    1.7033 H   0  0  0  0  0  0  0  0  0  0  0  0
   -2.0131    1.8553    0.1367 H   0  0  0  0  0  0  0  0  0  0  0  0
   -0.2711   -0.3866   -2.0756 H   0  0  0  0  0  0  0  0  0  0  0  0
   -0.1184    1.3281   -1.6281 H   0  0  0  0  0  0  0  0  0  0  0  0
    2.1291   -0.3664   -1.7569 H   0  0  0  0  0  0  0  0  0  0  0  0
  1  2  1  0
  2  3  1  0
  3  4  1  0
  4  5  1  0
  5  6  1  0
  4  7  1  0
  7  8  1  0
  8  1  1  0
  8  2  1  0
  6  4  1  0
  1  9  1  0
  1 10  1  0
  2 11  1  0
  3 12  1  0
  3 13  1  0
  5 14  1  0
  5 15  1  0
  6 16  1  0
  6 17  1  0
  7 18  1  0
  7 19  1  0
  8 20  1  0
M  END
