
     RDKit          3D

 17 20  0  0  0  0  0  0  0  0999 V2000
    1.0613   -1.1493   -0.0259 C   0  0  0  0  0  0  0  0  0  0  0  0
    1.5208    0.2051    0.3811 C   0  0  0  0  0  0  0  0  0  0  0  0
    1.8628    1.1349   -0.6326 O   0  0  0  0  0  0  0  0  0  0  0  0
    0.7107    1.3366    0.0841 C   0  0  0  0  0  0  0  0  0  0  0  0
   -0.6408    1.1313   -0.5044 C   0  0  0  0  0  0  0  0  0  0  0  0
   -1.5615    0.3453    0.4745 C   0  0  0  0  0  0  0  0  0  0  0  0
   -0.9379   -0.5769    1.2720 O   0  0  0  0  0  0  0  0  0  0  0  0
   -0.4409   -1.2443    0.1825 C   0  0  0  0  0  0  0  0  0  0  0  0
   -1.0566   -0.2398   -0.7566 C   0  0  0  0  0  0  0  0  0  0  0  0
    1.6168   -1.9613    0.4433 H   0  0  0  0  0  0  0  0  0  0  0  0
    1.2066   -1.2269   -1.1439 H   0  0  0  0  0  0  0  0  0  0  0  0
    2.1522    0.2128    1.3074 H   0  0  0  0  0  0  0  0  0  0  0  0
    0.7354    2.2015    0.8128 H   0  0  0  0  0  0  0  0  0  0  0  0
   -1.1316    1.9287   -1.0847 H   0  0  0  0  0  0  0  0  0  0  0  0
   -2.5551    0.7265    0.6520 H   0  0  0  0  0  0  0  0  0  0  0  0
   -0.8526   -2.2627    0.1235 H   0  0  0  0  0  0  0  0  0  0  0  0
   -1.6895   -0.5613   -1.5851 H   0  0  0  0  0  0  0  0  0  0  0  0
  1  2  1  0
  2  3  1  0
  3  4  1  0
  4  5  1  0
  5  6  1  0
  6  7  1  0
  7  8  1  0
  8  9  1  0
  8  1  1  0
  4  2  1  0
  9  5  1  0
  9  6  1  0
  1 10  1  0
  1 11  1  0
  2 12  1  0
  4 13  1  0
  5 14  1  0
  6 15  1  0
  8 16  1  0
  9 17  1  0
M  END
