
     RDKit          3D

 18 20  0  0  0  0  0  0  0  0999 V2000
   -1.5989    1.1797    0.6544 C   0  0  0  0  0  0  0  0  0  0  0  0
   -1.7355    0.0329   -0.3107 C   0  0  0  0  0  0  0  0  0  0  0  0
   -1.4036   -1.2323    0.1208 O   0  0  0  0  0  0  0  0  0  0  0  0
   -0.1976   -1.1812    0.7703 C   0  0  0  0  0  0  0  0  0  0  0  0
    0.5546   -0.1245    0.0140 C   0  0  0  0  0  0  0  0  0  0  0  0
    1.9627    0.1512    0.1513 C   0  0  0  0  0  0  0  0  0  0  0  0
    1.4070   -0.5904   -1.0933 C   0  0  0  0  0  0  0  0  0  0  0  0
   -0.5014    0.8782   -0.2997 C   0  0  0  0  0  0  0  0  0  0  0  0
   -1.4842    0.9600    1.7339 H   0  0  0  0  0  0  0  0  0  0  0  0
   -2.2302    2.0488    0.4383 H   0  0  0  0  0  0  0  0  0  0  0  0
   -2.4187    0.1389   -1.1695 H   0  0  0  0  0  0  0  0  0  0  0  0
   -0.3772   -0.7877    1.7959 H   0  0  0  0  0  0  0  0  0  0  0  0
    0.2943   -2.1502    0.8123 H   0  0  0  0  0  0  0  0  0  0  0  0
    2.6230   -0.4429    0.7723 H   0  0  0  0  0  0  0  0  0  0  0  0
    2.3054    1.2019   -0.0678 H   0  0  0  0  0  0  0  0  0  0  0  0
    1.4691   -0.0351   -2.0562 H   0  0  0  0  0  0  0  0  0  0  0  0
    1.6329   -1.6573   -1.1848 H   0  0  0  0  0  0  0  0  0  0  0  0
   -0.3015    1.6102   -1.0814 H   0  0  0  0  0  0  0  0  0  0  0  0
  1  2  1  0
  2  3  1  0
  3  4  1  0
  4  5  1  0
  5  6  1  0
  6  7  1  0
  5  8  1  0
  8  1  1  0
  8  2  1  0
  7  5  1  0
  1  9  1  0
  1 10  1  0
  2 11  1  0
  4 12  1  0
  4 13  1  0
  6 14  1  0
  6 15  1  0
  7 16  1  0
  7 17  1  0
  8 18  1  0
M  END
