
     RDKit          3D

 21 23  0  0  0  0  0  0  0  0999 V2000
    1.3949   -0.6458   -0.8805 C   0  0  0  0  0  0  0  0  0  0  0  0
    1.6612    0.7920   -0.4062 C   0  0  0  0  0  0  0  0  0  0  0  0
    1.5149    0.2389    1.0040 C   0  0  0  0  0  0  0  0  0  0  0  0
    0.5319   -0.7556    0.3710 C   0  0  0  0  0  0  0  0  0  0  0  0
   -0.7670   -0.0714    0.0768 C   0  0  0  0  0  0  0  0  0  0  0  0
   -1.7883   -0.6441   -0.8067 C   0  0  0  0  0  0  0  0  0  0  0  0
   -1.9776   -0.6612    0.6588 C   0  0  0  0  0  0  0  0  0  0  0  0
   -0.5371    1.4066   -0.0111 C   0  0  0  0  0  0  0  0  0  0  0  0
    0.6232    1.6371   -0.7176 O   0  0  0  0  0  0  0  0  0  0  0  0
    2.2952   -1.2636   -0.7464 H   0  0  0  0  0  0  0  0  0  0  0  0
    0.8669   -0.7232   -1.8298 H   0  0  0  0  0  0  0  0  0  0  0  0
    2.6486    1.1557   -0.6780 H   0  0  0  0  0  0  0  0  0  0  0  0
    2.4234   -0.2406    1.3914 H   0  0  0  0  0  0  0  0  0  0  0  0
    1.0830    0.9108    1.7408 H   0  0  0  0  0  0  0  0  0  0  0  0
    0.5081   -1.7221    0.8554 H   0  0  0  0  0  0  0  0  0  0  0  0
   -2.4070    0.0790   -1.4158 H   0  0  0  0  0  0  0  0  0  0  0  0
   -1.5836   -1.5676   -1.3615 H   0  0  0  0  0  0  0  0  0  0  0  0
   -2.6577    0.0113    1.1907 H   0  0  0  0  0  0  0  0  0  0  0  0
   -1.8774   -1.6690    1.1529 H   0  0  0  0  0  0  0  0  0  0  0  0
   -0.5644    1.8508    0.9894 H   0  0  0  0  0  0  0  0  0  0  0  0
   -1.3909    1.8820   -0.5776 H   0  0  0  0  0  0  0  0  0  0  0  0
  1  2  1  0
  2  3  1  0
  3  4  1  0
  4  5  1  0
  5  6  1  0
  6  7  1  0
  5  8  1  0
  8  9  1  0
  4  1  1  0
  7  5  1  0
  9  2  1  0
  1 10  1  0
  1 11  1  0
  2 12  1  0
  3 13  1  0
  3 14  1  0
  4 15  1  0
  6 16  1  0
  6 17  1  0
  7 18  1  0
  7 19  1  0
  8 20  1  0
  8 21  1  0
M  END
