
     RDKit          2D

 21 24  0  0  0  0  0  0  0  0999 V2000
   -2.3972    0.6810    0.0000 C   0  0  0  0  0  0  0  0  0  0  0  0
   -2.1625    2.1625    0.0000 C   0  0  0  0  0  0  0  0  0  0  0  0
   -1.6460    0.7542    0.0000 C   0  0  0  0  0  0  0  0  0  0  0  0
    1.0607   -0.0000    0.0000 C   0  0  0  0  0  0  0  0  0  0  0  0
   -0.0000   -1.0607    0.0000 C   0  0  0  0  0  0  0  0  0  0  0  0
    0.3607    0.0000    0.0000 C   0  0  0  0  0  0  0  0  0  0  0  0
    0.0000    1.0607    0.0000 C   0  0  0  0  0  0  0  0  0  0  0  0
   -0.6810    2.3972    0.0000 C   0  0  0  0  0  0  0  0  0  0  0  0
   -1.0607    0.0000    0.0000 C   0  0  0  0  0  0  0  0  0  0  0  0
   -3.8461    1.0692    0.0000 H   0  0  0  0  0  0  0  0  0  0  0  0
   -2.8810   -0.5793    0.0000 H   0  0  0  0  0  0  0  0  0  0  0  0
   -3.2232    3.2232    0.0000 H   0  0  0  0  0  0  0  0  0  0  0  0
   -2.3489    0.3782    0.0000 H   0  0  0  0  0  0  0  0  0  0  0  0
   -1.6162   -0.7455    0.0000 H   0  0  0  0  0  0  0  0  0  0  0  0
    2.5607   -0.0000    0.0000 H   0  0  0  0  0  0  0  0  0  0  0  0
   -0.0000   -2.5607    0.0000 H   0  0  0  0  0  0  0  0  0  0  0  0
    2.1213    1.0607    0.0000 H   0  0  0  0  0  0  0  0  0  0  0  0
    2.1213   -1.0607    0.0000 H   0  0  0  0  0  0  0  0  0  0  0  0
    0.7194    2.9347    0.0000 H   0  0  0  0  0  0  0  0  0  0  0  0
   -1.0692    3.8461    0.0000 H   0  0  0  0  0  0  0  0  0  0  0  0
   -1.7878   -1.3119    0.0000 H   0  0  0  0  0  0  0  0  0  0  0  0
  1  2  1  0
  2  3  1  0
  3  4  1  0
  4  5  1  0
  5  6  1  0
  6  7  1  0
  7  8  1  0
  7  9  1  0
  9  1  1  0
  8  2  1  0
  7  4  1  0
  9  5  1  0
  1 10  1  0
  1 11  1  0
  2 12  1  0
  3 13  1  0
  3 14  1  0
  4 15  1  0
  5 16  1  0
  6 17  1  0
  6 18  1  0
  8 19  1  0
  8 20  1  0
  9 21  1  0
M  END
