
     RDKit          3D

 21 23  0  0  0  0  0  0  0  0999 V2000
   -1.0958    0.2615   -1.1886 C   0  0  0  0  0  0  0  0  0  0  0  0
   -1.5081   -0.8159   -0.2100 C   0  0  0  0  0  0  0  0  0  0  0  0
   -1.7953    0.3345    0.7652 C   0  0  0  0  0  0  0  0  0  0  0  0
   -0.6688    1.0624    0.0112 C   0  0  0  0  0  0  0  0  0  0  0  0
    0.5975    0.5598    0.6362 C   0  0  0  0  0  0  0  0  0  0  0  0
    1.8276    0.5865   -0.2048 C   0  0  0  0  0  0  0  0  0  0  0  0
    1.7989   -0.9089   -0.3493 C   0  0  0  0  0  0  0  0  0  0  0  0
    0.6418   -0.9240    0.6476 C   0  0  0  0  0  0  0  0  0  0  0  0
   -0.4713   -1.5731    0.2368 O   0  0  0  0  0  0  0  0  0  0  0  0
   -2.0138    0.7194   -1.6257 H   0  0  0  0  0  0  0  0  0  0  0  0
   -0.3379    0.0023   -1.9187 H   0  0  0  0  0  0  0  0  0  0  0  0
   -2.3765   -1.4152   -0.4807 H   0  0  0  0  0  0  0  0  0  0  0  0
   -1.5461    0.0732    1.7933 H   0  0  0  0  0  0  0  0  0  0  0  0
   -2.7334    0.8601    0.5814 H   0  0  0  0  0  0  0  0  0  0  0  0
   -0.7999    2.1321   -0.0898 H   0  0  0  0  0  0  0  0  0  0  0  0
    0.7181    1.0472    1.6494 H   0  0  0  0  0  0  0  0  0  0  0  0
    1.8316    1.1840   -1.1090 H   0  0  0  0  0  0  0  0  0  0  0  0
    2.7158    0.8699    0.4338 H   0  0  0  0  0  0  0  0  0  0  0  0
    2.6795   -1.4502    0.0853 H   0  0  0  0  0  0  0  0  0  0  0  0
    1.5790   -1.3176   -1.3322 H   0  0  0  0  0  0  0  0  0  0  0  0
    0.9571   -1.2880    1.6688 H   0  0  0  0  0  0  0  0  0  0  0  0
  1  2  1  0
  2  3  1  0
  3  4  1  0
  4  5  1  0
  5  6  1  0
  6  7  1  0
  7  8  1  0
  8  9  1  0
  4  1  1  0
  8  5  1  0
  9  2  1  0
  1 10  1  0
  1 11  1  0
  2 12  1  0
  3 13  1  0
  3 14  1  0
  4 15  1  0
  5 16  1  0
  6 17  1  0
  6 18  1  0
  7 19  1  0
  7 20  1  0
  8 21  1  0
M  END
