
     RDKit          3D

 17 20  0  0  0  0  0  0  0  0999 V2000
    1.8172   -0.3706    0.2620 C   0  0  0  0  0  0  0  0  0  0  0  0
    0.8144    0.3803   -0.6086 C   0  0  0  0  0  0  0  0  0  0  0  0
    0.6652   -1.0499   -0.3212 C   0  0  0  0  0  0  0  0  0  0  0  0
   -0.5716   -1.2997    0.4363 C   0  0  0  0  0  0  0  0  0  0  0  0
   -1.7932   -1.6332    0.1000 O   0  0  0  0  0  0  0  0  0  0  0  0
   -1.5905   -0.4008   -0.3134 C   0  0  0  0  0  0  0  0  0  0  0  0
   -1.4636    0.8889    0.3618 C   0  0  0  0  0  0  0  0  0  0  0  0
   -0.5337    1.1498    1.3687 O   0  0  0  0  0  0  0  0  0  0  0  0
   -0.0228    1.3449    0.1193 C   0  0  0  0  0  0  0  0  0  0  0  0
    1.9120   -0.0887    1.3213 H   0  0  0  0  0  0  0  0  0  0  0  0
    2.8133   -0.4700   -0.2387 H   0  0  0  0  0  0  0  0  0  0  0  0
    1.0915    0.6544   -1.6357 H   0  0  0  0  0  0  0  0  0  0  0  0
    0.8809   -1.7765   -1.1396 H   0  0  0  0  0  0  0  0  0  0  0  0
   -0.4418   -1.0850    1.5396 H   0  0  0  0  0  0  0  0  0  0  0  0
   -1.4664   -0.3198   -1.4311 H   0  0  0  0  0  0  0  0  0  0  0  0
   -2.2594    1.6696    0.3200 H   0  0  0  0  0  0  0  0  0  0  0  0
    0.1484    2.4064   -0.1406 H   0  0  0  0  0  0  0  0  0  0  0  0
  1  2  1  0
  2  3  1  0
  3  4  1  0
  4  5  1  0
  5  6  1  0
  6  7  1  0
  7  8  1  0
  8  9  1  0
  3  1  1  0
  6  4  1  0
  9  7  1  0
  9  2  1  0
  1 10  1  0
  1 11  1  0
  2 12  1  0
  3 13  1  0
  4 14  1  0
  6 15  1  0
  7 16  1  0
  9 17  1  0
M  END
