
     RDKit          3D

 21 24  0  0  0  0  0  0  0  0999 V2000
   -0.3975    2.0874   -0.7576 C   0  0  0  0  0  0  0  0  0  0  0  0
   -1.1245    1.1685    0.0221 C   0  0  0  0  0  0  0  0  0  0  0  0
   -1.7474   -0.1351   -0.1814 C   0  0  0  0  0  0  0  0  0  0  0  0
   -1.2775   -1.3883   -0.6753 C   0  0  0  0  0  0  0  0  0  0  0  0
   -0.6164   -0.9499    0.5599 C   0  0  0  0  0  0  0  0  0  0  0  0
    0.6484   -0.1085    0.3268 C   0  0  0  0  0  0  0  0  0  0  0  0
    1.7402   -0.0553    1.2415 C   0  0  0  0  0  0  0  0  0  0  0  0
    1.9356   -0.8880    0.0239 C   0  0  0  0  0  0  0  0  0  0  0  0
    0.2308    0.8193   -0.7126 C   0  0  0  0  0  0  0  0  0  0  0  0
    0.1484    2.9500   -0.2946 H   0  0  0  0  0  0  0  0  0  0  0  0
   -0.8922    2.4663   -1.7002 H   0  0  0  0  0  0  0  0  0  0  0  0
   -1.0155    1.3554    1.1431 H   0  0  0  0  0  0  0  0  0  0  0  0
   -2.7643   -0.1758    0.3357 H   0  0  0  0  0  0  0  0  0  0  0  0
   -0.6188   -1.6125   -1.5375 H   0  0  0  0  0  0  0  0  0  0  0  0
   -1.9309   -2.3038   -0.5189 H   0  0  0  0  0  0  0  0  0  0  0  0
   -0.8627   -1.2809    1.5604 H   0  0  0  0  0  0  0  0  0  0  0  0
    2.3377    0.8552    1.3823 H   0  0  0  0  0  0  0  0  0  0  0  0
    1.6631   -0.6543    2.1931 H   0  0  0  0  0  0  0  0  0  0  0  0
    2.6196   -0.4257   -0.7414 H   0  0  0  0  0  0  0  0  0  0  0  0
    1.8121   -1.9682    0.0159 H   0  0  0  0  0  0  0  0  0  0  0  0
    0.1116    0.2444   -1.6852 H   0  0  0  0  0  0  0  0  0  0  0  0
  1  2  1  0
  2  3  1  0
  3  4  1  0
  4  5  1  0
  5  6  1  0
  6  7  1  0
  7  8  1  0
  6  9  1  0
  9  1  1  0
  9  2  1  0
  5  3  1  0
  8  6  1  0
  1 10  1  0
  1 11  1  0
  2 12  1  0
  3 13  1  0
  4 14  1  0
  4 15  1  0
  5 16  1  0
  7 17  1  0
  7 18  1  0
  8 19  1  0
  8 20  1  0
  9 21  1  0
M  END
