
     RDKit          3D

 21 23  0  0  0  0  0  0  0  0999 V2000
   -1.0844    0.2361   -1.0857 C   0  0  0  0  0  0  0  0  0  0  0  0
   -1.0385   -1.0859   -0.3647 C   0  0  0  0  0  0  0  0  0  0  0  0
   -1.5456   -0.3086    0.8594 C   0  0  0  0  0  0  0  0  0  0  0  0
   -0.7777    0.8780    0.2547 C   0  0  0  0  0  0  0  0  0  0  0  0
    0.6614    0.8098    0.6278 C   0  0  0  0  0  0  0  0  0  0  0  0
    1.6429    1.4241   -0.3352 C   0  0  0  0  0  0  0  0  0  0  0  0
    1.7879    0.1950   -1.0181 O   0  0  0  0  0  0  0  0  0  0  0  0
    1.3355   -0.4267    0.1187 C   0  0  0  0  0  0  0  0  0  0  0  0
    0.3567   -1.5336   -0.0325 C   0  0  0  0  0  0  0  0  0  0  0  0
   -0.3734    0.4019   -1.8831 H   0  0  0  0  0  0  0  0  0  0  0  0
   -2.1150    0.4625   -1.3951 H   0  0  0  0  0  0  0  0  0  0  0  0
   -1.6924   -1.8738   -0.7181 H   0  0  0  0  0  0  0  0  0  0  0  0
   -1.1714   -0.6597    1.8161 H   0  0  0  0  0  0  0  0  0  0  0  0
   -2.6435   -0.1853    0.7483 H   0  0  0  0  0  0  0  0  0  0  0  0
   -1.2731    1.8169    0.4718 H   0  0  0  0  0  0  0  0  0  0  0  0
    0.8243    1.0276    1.6880 H   0  0  0  0  0  0  0  0  0  0  0  0
    1.2614    2.2477   -0.9303 H   0  0  0  0  0  0  0  0  0  0  0  0
    2.6225    1.6365    0.1632 H   0  0  0  0  0  0  0  0  0  0  0  0
    2.1968   -0.6968    0.7718 H   0  0  0  0  0  0  0  0  0  0  0  0
    0.2869   -2.0545    0.9685 H   0  0  0  0  0  0  0  0  0  0  0  0
    0.7390   -2.3113   -0.7253 H   0  0  0  0  0  0  0  0  0  0  0  0
  1  2  1  0
  2  3  1  0
  3  4  1  0
  4  5  1  0
  5  6  1  0
  6  7  1  0
  7  8  1  0
  8  9  1  0
  4  1  1  0
  8  5  1  0
  9  2  1  0
  1 10  1  0
  1 11  1  0
  2 12  1  0
  3 13  1  0
  3 14  1  0
  4 15  1  0
  5 16  1  0
  6 17  1  0
  6 18  1  0
  8 19  1  0
  9 20  1  0
  9 21  1  0
M  END
