
     RDKit          3D

 19 22  0  0  0  0  0  0  0  0999 V2000
    1.8161    0.4220    0.5284 C   0  0  0  0  0  0  0  0  0  0  0  0
    0.9996   -0.8357    0.8297 C   0  0  0  0  0  0  0  0  0  0  0  0
    1.3908   -1.2865   -0.4489 O   0  0  0  0  0  0  0  0  0  0  0  0
    1.2781    0.0600   -0.8585 C   0  0  0  0  0  0  0  0  0  0  0  0
   -0.1629    0.4248   -0.9975 C   0  0  0  0  0  0  0  0  0  0  0  0
   -1.0395   -0.7376   -0.6107 C   0  0  0  0  0  0  0  0  0  0  0  0
   -2.0588    0.2891   -0.1956 C   0  0  0  0  0  0  0  0  0  0  0  0
   -0.7610    0.8449    0.3148 C   0  0  0  0  0  0  0  0  0  0  0  0
   -0.4686   -0.5622    0.7668 C   0  0  0  0  0  0  0  0  0  0  0  0
    1.4267    1.3461    0.9520 H   0  0  0  0  0  0  0  0  0  0  0  0
    2.8730    0.1957    0.6427 H   0  0  0  0  0  0  0  0  0  0  0  0
    1.3605   -1.4354    1.6669 H   0  0  0  0  0  0  0  0  0  0  0  0
    1.9562    0.3586   -1.6613 H   0  0  0  0  0  0  0  0  0  0  0  0
   -0.4658    0.9870   -1.8858 H   0  0  0  0  0  0  0  0  0  0  0  0
   -1.1908   -1.5828   -1.1141 H   0  0  0  0  0  0  0  0  0  0  0  0
   -2.6825   -0.0427    0.6743 H   0  0  0  0  0  0  0  0  0  0  0  0
   -2.5697    0.8348   -0.9821 H   0  0  0  0  0  0  0  0  0  0  0  0
   -0.6069    1.6903    0.8199 H   0  0  0  0  0  0  0  0  0  0  0  0
   -1.0945   -0.9704    1.5591 H   0  0  0  0  0  0  0  0  0  0  0  0
  1  2  1  0
  2  3  1  0
  3  4  1  0
  4  5  1  0
  5  6  1  0
  6  7  1  0
  7  8  1  0
  8  9  1  0
  4  1  1  0
  8  5  1  0
  9  2  1  0
  9  6  1  0
  1 10  1  0
  1 11  1  0
  2 12  1  0
  4 13  1  0
  5 14  1  0
  6 15  1  0
  7 16  1  0
  7 17  1  0
  8 18  1  0
  9 19  1  0
M  END
