
     RDKit          3D

 21 24  0  0  0  0  0  0  0  0999 V2000
    2.3935   -0.0659   -0.6997 C   0  0  0  0  0  0  0  0  0  0  0  0
    1.8186   -0.6069    0.4704 C   0  0  0  0  0  0  0  0  0  0  0  0
    1.0671    0.1188    1.5990 C   0  0  0  0  0  0  0  0  0  0  0  0
    0.0483    0.1826    0.5029 C   0  0  0  0  0  0  0  0  0  0  0  0
    1.2204    0.6642   -0.2815 C   0  0  0  0  0  0  0  0  0  0  0  0
   -0.8966   -0.8270    0.1427 C   0  0  0  0  0  0  0  0  0  0  0  0
   -1.6028   -0.6140   -1.2051 C   0  0  0  0  0  0  0  0  0  0  0  0
   -2.1429    0.6676   -0.6520 C   0  0  0  0  0  0  0  0  0  0  0  0
   -1.2725    0.6383    0.5511 C   0  0  0  0  0  0  0  0  0  0  0  0
    2.2954   -0.5887   -1.6993 H   0  0  0  0  0  0  0  0  0  0  0  0
    3.4485    0.3373   -0.6217 H   0  0  0  0  0  0  0  0  0  0  0  0
    1.2055   -1.5515    0.2935 H   0  0  0  0  0  0  0  0  0  0  0  0
    1.5008    1.1244    1.7949 H   0  0  0  0  0  0  0  0  0  0  0  0
    0.8700   -0.5199    2.4507 H   0  0  0  0  0  0  0  0  0  0  0  0
    1.5277    1.6535    0.1962 H   0  0  0  0  0  0  0  0  0  0  0  0
   -1.2785   -1.6301    0.7822 H   0  0  0  0  0  0  0  0  0  0  0  0
   -2.3197   -1.3921   -1.4718 H   0  0  0  0  0  0  0  0  0  0  0  0
   -0.8276   -0.3798   -1.9927 H   0  0  0  0  0  0  0  0  0  0  0  0
   -3.2475    0.5429   -0.4525 H   0  0  0  0  0  0  0  0  0  0  0  0
   -1.9908    1.5738   -1.2479 H   0  0  0  0  0  0  0  0  0  0  0  0
   -1.8169    0.6725    1.5407 H   0  0  0  0  0  0  0  0  0  0  0  0
  1  2  1  0
  2  3  1  0
  3  4  1  0
  4  5  1  0
  4  6  1  0
  6  7  1  0
  7  8  1  0
  8  9  1  0
  5  1  1  0
  9  6  1  0
  5  2  1  0
  9  4  1  0
  1 10  1  0
  1 11  1  0
  2 12  1  0
  3 13  1  0
  3 14  1  0
  5 15  1  0
  6 16  1  0
  7 17  1  0
  7 18  1  0
  8 19  1  0
  8 20  1  0
  9 21  1  0
M  END
