
     RDKit          3D

 18 20  0  0  0  0  0  0  0  0999 V2000
    1.8564    0.4081    0.3917 C   0  0  0  0  0  0  0  0  0  0  0  0
    1.4531   -0.8281   -0.3279 C   0  0  0  0  0  0  0  0  0  0  0  0
    0.2587   -0.3648   -1.1740 C   0  0  0  0  0  0  0  0  0  0  0  0
   -0.5017    0.2579   -0.0280 C   0  0  0  0  0  0  0  0  0  0  0  0
   -1.6853    1.0203   -0.0966 C   0  0  0  0  0  0  0  0  0  0  0  0
   -1.8660   -0.4007    0.2741 C   0  0  0  0  0  0  0  0  0  0  0  0
    0.4977    0.1110    1.0403 C   0  0  0  0  0  0  0  0  0  0  0  0
    0.8726   -1.2467    0.8892 O   0  0  0  0  0  0  0  0  0  0  0  0
    2.6944    0.2731    1.0898 H   0  0  0  0  0  0  0  0  0  0  0  0
    1.8663    1.2962   -0.2506 H   0  0  0  0  0  0  0  0  0  0  0  0
    2.1649   -1.4635   -0.7869 H   0  0  0  0  0  0  0  0  0  0  0  0
    0.6279    0.3561   -1.9011 H   0  0  0  0  0  0  0  0  0  0  0  0
   -0.2916   -1.1908   -1.6098 H   0  0  0  0  0  0  0  0  0  0  0  0
   -2.0906    1.3088   -1.1007 H   0  0  0  0  0  0  0  0  0  0  0  0
   -1.9000    1.7939    0.6640 H   0  0  0  0  0  0  0  0  0  0  0  0
   -2.2197   -1.1605   -0.4388 H   0  0  0  0  0  0  0  0  0  0  0  0
   -2.0787   -0.6378    1.3339 H   0  0  0  0  0  0  0  0  0  0  0  0
    0.3418    0.4674    2.0315 H   0  0  0  0  0  0  0  0  0  0  0  0
  1  2  1  0
  2  3  1  0
  3  4  1  0
  4  5  1  0
  5  6  1  0
  4  7  1  0
  7  8  1  0
  7  1  1  0
  8  2  1  0
  6  4  1  0
  1  9  1  0
  1 10  1  0
  2 11  1  0
  3 12  1  0
  3 13  1  0
  5 14  1  0
  5 15  1  0
  6 16  1  0
  6 17  1  0
  7 18  1  0
M  END
