
     RDKit          3D

 19 21  0  0  0  0  0  0  0  0999 V2000
   -1.3258    0.9395   -0.2909 C   0  0  0  0  0  0  0  0  0  0  0  0
   -0.9727    0.4707    1.1272 C   0  0  0  0  0  0  0  0  0  0  0  0
   -1.2992   -0.9400    0.6261 C   0  0  0  0  0  0  0  0  0  0  0  0
   -0.8808   -0.4627   -0.7398 C   0  0  0  0  0  0  0  0  0  0  0  0
    0.6079   -0.3689   -0.9073 C   0  0  0  0  0  0  0  0  0  0  0  0
    1.3693   -1.3711   -0.3847 O   0  0  0  0  0  0  0  0  0  0  0  0
    2.2799   -0.3752    0.0460 C   0  0  0  0  0  0  0  0  0  0  0  0
    1.1155    0.5999    0.1638 C   0  0  0  0  0  0  0  0  0  0  0  0
    0.3897    0.5097    1.3326 O   0  0  0  0  0  0  0  0  0  0  0  0
   -0.6513    1.7476   -0.6571 H   0  0  0  0  0  0  0  0  0  0  0  0
   -2.3909    1.1035   -0.4390 H   0  0  0  0  0  0  0  0  0  0  0  0
   -1.6238    0.8526    1.9069 H   0  0  0  0  0  0  0  0  0  0  0  0
   -0.6944   -1.7244    1.0855 H   0  0  0  0  0  0  0  0  0  0  0  0
   -2.3918   -1.1181    0.6368 H   0  0  0  0  0  0  0  0  0  0  0  0
   -1.4478   -0.8425   -1.5928 H   0  0  0  0  0  0  0  0  0  0  0  0
    0.8581    0.0109   -1.9047 H   0  0  0  0  0  0  0  0  0  0  0  0
    2.7832   -0.6266    0.9773 H   0  0  0  0  0  0  0  0  0  0  0  0
    2.9394   -0.0184   -0.7845 H   0  0  0  0  0  0  0  0  0  0  0  0
    1.3353    1.6135   -0.2013 H   0  0  0  0  0  0  0  0  0  0  0  0
  1  2  1  0
  2  3  1  0
  3  4  1  0
  4  5  1  0
  5  6  1  0
  6  7  1  0
  7  8  1  0
  8  9  1  0
  4  1  1  0
  8  5  1  0
  9  2  1  0
  1 10  1  0
  1 11  1  0
  2 12  1  0
  3 13  1  0
  3 14  1  0
  4 15  1  0
  5 16  1  0
  7 17  1  0
  7 18  1  0
  8 19  1  0
M  END
