
     RDKit          3D

 21 23  0  0  0  0  0  0  0  0999 V2000
   -1.4934   -0.7020    0.4997 C   0  0  0  0  0  0  0  0  0  0  0  0
   -1.0239   -0.6846   -0.9595 C   0  0  0  0  0  0  0  0  0  0  0  0
   -1.2834    0.7824   -0.8508 C   0  0  0  0  0  0  0  0  0  0  0  0
   -0.8307    0.6448    0.5888 C   0  0  0  0  0  0  0  0  0  0  0  0
    0.6096    0.6522    0.8093 C   0  0  0  0  0  0  0  0  0  0  0  0
    1.4784    0.7882   -0.4143 C   0  0  0  0  0  0  0  0  0  0  0  0
    1.2806   -0.7188   -0.5580 C   0  0  0  0  0  0  0  0  0  0  0  0
    1.2711   -0.6976    0.9440 C   0  0  0  0  0  0  0  0  0  0  0  0
    0.1951   -1.1149   -1.1877 O   0  0  0  0  0  0  0  0  0  0  0  0
   -2.6104   -0.5695    0.5418 H   0  0  0  0  0  0  0  0  0  0  0  0
   -1.1850   -1.5105    1.1141 H   0  0  0  0  0  0  0  0  0  0  0  0
   -1.7833   -1.1555   -1.6352 H   0  0  0  0  0  0  0  0  0  0  0  0
   -2.4007    0.9604   -0.8378 H   0  0  0  0  0  0  0  0  0  0  0  0
   -0.8109    1.4803   -1.4946 H   0  0  0  0  0  0  0  0  0  0  0  0
   -1.4038    1.2954    1.2948 H   0  0  0  0  0  0  0  0  0  0  0  0
    0.9292    1.4059    1.5669 H   0  0  0  0  0  0  0  0  0  0  0  0
    2.5305    0.9802   -0.0941 H   0  0  0  0  0  0  0  0  0  0  0  0
    1.1961    1.4177   -1.2207 H   0  0  0  0  0  0  0  0  0  0  0  0
    2.2030   -1.2437   -0.9169 H   0  0  0  0  0  0  0  0  0  0  0  0
    0.8053   -1.4772    1.4965 H   0  0  0  0  0  0  0  0  0  0  0  0
    2.3263   -0.5330    1.3136 H   0  0  0  0  0  0  0  0  0  0  0  0
  1  2  1  0
  2  3  1  0
  3  4  1  0
  4  5  1  0
  5  6  1  0
  6  7  1  0
  7  8  1  0
  7  9  1  0
  4  1  1  0
  8  5  1  0
  9  2  1  0
  1 10  1  0
  1 11  1  0
  2 12  1  0
  3 13  1  0
  3 14  1  0
  4 15  1  0
  5 16  1  0
  6 17  1  0
  6 18  1  0
  7 19  1  0
  8 20  1  0
  8 21  1  0
M  END
