
     RDKit          3D

 19 22  0  0  0  0  0  0  0  0999 V2000
   -1.6753   -0.1529    0.2069 C   0  0  0  0  0  0  0  0  0  0  0  0
   -0.7409   -1.3064    0.3252 C   0  0  0  0  0  0  0  0  0  0  0  0
    0.0573   -1.1906    1.4564 O   0  0  0  0  0  0  0  0  0  0  0  0
    1.1056   -0.7582    0.6752 C   0  0  0  0  0  0  0  0  0  0  0  0
    1.3151    0.7124    0.7695 C   0  0  0  0  0  0  0  0  0  0  0  0
    0.3858    1.4062   -0.1541 C   0  0  0  0  0  0  0  0  0  0  0  0
   -0.9685    0.9769   -0.4648 C   0  0  0  0  0  0  0  0  0  0  0  0
    0.1092    0.3510   -1.2170 C   0  0  0  0  0  0  0  0  0  0  0  0
    0.3782   -0.9769   -0.6036 C   0  0  0  0  0  0  0  0  0  0  0  0
   -2.1797    0.1139    1.1438 H   0  0  0  0  0  0  0  0  0  0  0  0
   -2.5001   -0.4706   -0.4980 H   0  0  0  0  0  0  0  0  0  0  0  0
   -1.1833   -2.3227    0.2271 H   0  0  0  0  0  0  0  0  0  0  0  0
    2.0425   -1.3638    0.8098 H   0  0  0  0  0  0  0  0  0  0  0  0
    1.2973    1.0997    1.8182 H   0  0  0  0  0  0  0  0  0  0  0  0
    2.3640    0.9235    0.4098 H   0  0  0  0  0  0  0  0  0  0  0  0
    0.6989    2.4092   -0.4776 H   0  0  0  0  0  0  0  0  0  0  0  0
   -1.6462    1.7205   -0.9275 H   0  0  0  0  0  0  0  0  0  0  0  0
    0.4009    0.6031   -2.2362 H   0  0  0  0  0  0  0  0  0  0  0  0
    0.7391   -1.7740   -1.2632 H   0  0  0  0  0  0  0  0  0  0  0  0
  1  2  1  0
  2  3  1  0
  3  4  1  0
  4  5  1  0
  5  6  1  0
  6  7  1  0
  7  8  1  0
  8  9  1  0
  7  1  1  0
  9  2  1  0
  9  4  1  0
  8  6  1  0
  1 10  1  0
  1 11  1  0
  2 12  1  0
  4 13  1  0
  5 14  1  0
  5 15  1  0
  6 16  1  0
  7 17  1  0
  8 18  1  0
  9 19  1  0
M  END
