
     RDKit          3D

 23 25  0  0  0  0  0  0  0  0999 V2000
   -0.6044   -1.1654   -0.8002 C   0  0  0  0  0  0  0  0  0  0  0  0
    0.7998   -1.1614   -0.2746 C   0  0  0  0  0  0  0  0  0  0  0  0
    0.7225   -0.9167    1.2344 C   0  0  0  0  0  0  0  0  0  0  0  0
    0.1399    0.5029    1.2249 C   0  0  0  0  0  0  0  0  0  0  0  0
   -1.3453    0.3322    0.9679 C   0  0  0  0  0  0  0  0  0  0  0  0
   -1.3276    0.1154   -0.5525 C   0  0  0  0  0  0  0  0  0  0  0  0
   -0.4958    1.3320   -0.9672 C   0  0  0  0  0  0  0  0  0  0  0  0
    0.6869    1.1642   -0.0186 C   0  0  0  0  0  0  0  0  0  0  0  0
    1.5663    0.0957   -0.6850 C   0  0  0  0  0  0  0  0  0  0  0  0
   -0.6596   -1.4814   -1.8650 H   0  0  0  0  0  0  0  0  0  0  0  0
   -1.1529   -1.9653   -0.2336 H   0  0  0  0  0  0  0  0  0  0  0  0
    1.3270   -2.0734   -0.5311 H   0  0  0  0  0  0  0  0  0  0  0  0
    1.7760   -0.9027    1.5876 H   0  0  0  0  0  0  0  0  0  0  0  0
    0.0792   -1.6261    1.7444 H   0  0  0  0  0  0  0  0  0  0  0  0
    0.3706    1.0557    2.1293 H   0  0  0  0  0  0  0  0  0  0  0  0
   -1.7857   -0.5184    1.4875 H   0  0  0  0  0  0  0  0  0  0  0  0
   -1.8888    1.2933    1.1166 H   0  0  0  0  0  0  0  0  0  0  0  0
   -2.3196    0.1077   -0.9881 H   0  0  0  0  0  0  0  0  0  0  0  0
   -0.2013    1.2254   -2.0240 H   0  0  0  0  0  0  0  0  0  0  0  0
   -1.0636    2.2420   -0.7865 H   0  0  0  0  0  0  0  0  0  0  0  0
    1.2226    2.0872    0.1703 H   0  0  0  0  0  0  0  0  0  0  0  0
    1.6127    0.2169   -1.7647 H   0  0  0  0  0  0  0  0  0  0  0  0
    2.5411    0.0402   -0.1719 H   0  0  0  0  0  0  0  0  0  0  0  0
  1  2  1  0
  2  3  1  0
  3  4  1  0
  4  5  1  0
  5  6  1  0
  6  7  1  0
  7  8  1  0
  8  9  1  0
  6  1  1  0
  9  2  1  0
  8  4  1  0
  1 10  1  0
  1 11  1  0
  2 12  1  0
  3 13  1  0
  3 14  1  0
  4 15  1  0
  5 16  1  0
  5 17  1  0
  6 18  1  0
  7 19  1  0
  7 20  1  0
  8 21  1  0
  9 22  1  0
  9 23  1  0
M  END
