
     RDKit          3D

 17 20  0  0  0  0  0  0  0  0999 V2000
   -1.1156    1.0117   -0.2670 C   0  0  0  0  0  0  0  0  0  0  0  0
    0.3031    1.4977   -0.1774 C   0  0  0  0  0  0  0  0  0  0  0  0
    1.0335    0.8030   -1.1696 O   0  0  0  0  0  0  0  0  0  0  0  0
    1.1246   -0.4626   -0.6468 C   0  0  0  0  0  0  0  0  0  0  0  0
    1.1311   -0.2137    0.8412 C   0  0  0  0  0  0  0  0  0  0  0  0
    0.9268    1.1636    1.0124 O   0  0  0  0  0  0  0  0  0  0  0  0
   -0.1476   -0.9615    0.9508 C   0  0  0  0  0  0  0  0  0  0  0  0
   -1.2416   -0.4175    0.1827 C   0  0  0  0  0  0  0  0  0  0  0  0
   -0.1575   -1.1897   -0.5014 C   0  0  0  0  0  0  0  0  0  0  0  0
   -1.8284    1.6521    0.3033 H   0  0  0  0  0  0  0  0  0  0  0  0
   -1.3729    1.0053   -1.3676 H   0  0  0  0  0  0  0  0  0  0  0  0
    0.3200    2.5934   -0.3829 H   0  0  0  0  0  0  0  0  0  0  0  0
    1.9311   -1.1102   -0.9938 H   0  0  0  0  0  0  0  0  0  0  0  0
    2.0097   -0.6133    1.3445 H   0  0  0  0  0  0  0  0  0  0  0  0
   -0.3043   -1.7513    1.6981 H   0  0  0  0  0  0  0  0  0  0  0  0
   -2.2228   -0.8812    0.1620 H   0  0  0  0  0  0  0  0  0  0  0  0
   -0.3892   -2.1259   -0.9883 H   0  0  0  0  0  0  0  0  0  0  0  0
  1  2  1  0
  2  3  1  0
  3  4  1  0
  4  5  1  0
  5  6  1  0
  5  7  1  0
  7  8  1  0
  8  9  1  0
  8  1  1  0
  6  2  1  0
  9  7  1  0
  9  4  1  0
  1 10  1  0
  1 11  1  0
  2 12  1  0
  4 13  1  0
  5 14  1  0
  7 15  1  0
  8 16  1  0
  9 17  1  0
M  END
