
     RDKit          3D

 17 20  0  0  0  0  0  0  0  0999 V2000
    0.6216   -1.1023   -0.6405 C   0  0  0  0  0  0  0  0  0  0  0  0
   -0.7885   -0.6339   -0.7138 C   0  0  0  0  0  0  0  0  0  0  0  0
   -1.1525   -0.2330    0.7166 C   0  0  0  0  0  0  0  0  0  0  0  0
   -1.7762    0.8904    0.1231 O   0  0  0  0  0  0  0  0  0  0  0  0
   -0.7087    0.8547   -0.8076 C   0  0  0  0  0  0  0  0  0  0  0  0
    0.6045    1.1994   -0.1535 C   0  0  0  0  0  0  0  0  0  0  0  0
    0.4428    1.5059    1.2198 O   0  0  0  0  0  0  0  0  0  0  0  0
    0.1441    0.1300    1.3758 C   0  0  0  0  0  0  0  0  0  0  0  0
    1.1867   -0.1177    0.3230 C   0  0  0  0  0  0  0  0  0  0  0  0
    0.7324   -2.1283   -0.2456 H   0  0  0  0  0  0  0  0  0  0  0  0
    1.1106   -1.0290   -1.6394 H   0  0  0  0  0  0  0  0  0  0  0  0
   -1.5191   -1.1721   -1.2736 H   0  0  0  0  0  0  0  0  0  0  0  0
   -1.8131   -0.9213    1.2260 H   0  0  0  0  0  0  0  0  0  0  0  0
   -0.9241    1.3235   -1.7665 H   0  0  0  0  0  0  0  0  0  0  0  0
    1.2749    1.8577   -0.6995 H   0  0  0  0  0  0  0  0  0  0  0  0
    0.3474   -0.2785    2.3605 H   0  0  0  0  0  0  0  0  0  0  0  0
    2.2172   -0.1456    0.5951 H   0  0  0  0  0  0  0  0  0  0  0  0
  1  2  1  0
  2  3  1  0
  3  4  1  0
  4  5  1  0
  5  6  1  0
  6  7  1  0
  7  8  1  0
  8  9  1  0
  9  1  1  0
  5  2  1  0
  9  6  1  0
  8  3  1  0
  1 10  1  0
  1 11  1  0
  2 12  1  0
  3 13  1  0
  5 14  1  0
  6 15  1  0
  8 16  1  0
  9 17  1  0
M  END
