
     RDKit          3D

 17 20  0  0  0  0  0  0  0  0999 V2000
   -1.7743    0.0657   -0.0112 C   0  0  0  0  0  0  0  0  0  0  0  0
   -0.6834    1.1509   -0.0352 C   0  0  0  0  0  0  0  0  0  0  0  0
   -0.0856    0.9491    1.1713 O   0  0  0  0  0  0  0  0  0  0  0  0
    0.2158   -0.4355    1.1326 C   0  0  0  0  0  0  0  0  0  0  0  0
   -0.5724   -0.8414   -0.0825 C   0  0  0  0  0  0  0  0  0  0  0  0
   -0.0005    0.1996   -1.0294 C   0  0  0  0  0  0  0  0  0  0  0  0
    1.4643    0.0881   -0.7830 C   0  0  0  0  0  0  0  0  0  0  0  0
    1.9524   -1.1798   -0.5164 O   0  0  0  0  0  0  0  0  0  0  0  0
    1.6264   -0.5064    0.6204 C   0  0  0  0  0  0  0  0  0  0  0  0
   -2.2625    0.0699    0.9777 H   0  0  0  0  0  0  0  0  0  0  0  0
   -2.4307    0.0744   -0.8883 H   0  0  0  0  0  0  0  0  0  0  0  0
   -0.9595    2.1090   -0.3852 H   0  0  0  0  0  0  0  0  0  0  0  0
    0.0030   -0.9602    2.0424 H   0  0  0  0  0  0  0  0  0  0  0  0
   -0.6565   -1.8389   -0.3815 H   0  0  0  0  0  0  0  0  0  0  0  0
   -0.3747    0.2239   -2.0283 H   0  0  0  0  0  0  0  0  0  0  0  0
    2.1131    0.9127   -1.0629 H   0  0  0  0  0  0  0  0  0  0  0  0
    2.4251   -0.0811    1.2594 H   0  0  0  0  0  0  0  0  0  0  0  0
  1  2  1  0
  2  3  1  0
  3  4  1  0
  4  5  1  0
  5  6  1  0
  6  7  1  0
  7  8  1  0
  8  9  1  0
  5  1  1  0
  9  7  1  0
  6  2  1  0
  9  4  1  0
  1 10  1  0
  1 11  1  0
  2 12  1  0
  4 13  1  0
  5 14  1  0
  6 15  1  0
  7 16  1  0
  9 17  1  0
M  END
