
     RDKit          3D

 17 20  0  0  0  0  0  0  0  0999 V2000
   -1.5770   -0.1999   -0.1527 C   0  0  0  0  0  0  0  0  0  0  0  0
   -0.6274    0.2654    0.9577 C   0  0  0  0  0  0  0  0  0  0  0  0
   -0.1304    1.2943   -0.0434 C   0  0  0  0  0  0  0  0  0  0  0  0
    1.2329    1.3360    0.1011 O   0  0  0  0  0  0  0  0  0  0  0  0
    1.5665    0.0058    0.1689 C   0  0  0  0  0  0  0  0  0  0  0  0
    0.5386   -0.6730    1.0391 C   0  0  0  0  0  0  0  0  0  0  0  0
    0.5273   -1.7130    0.0786 O   0  0  0  0  0  0  0  0  0  0  0  0
    0.7481   -0.7011   -0.8874 C   0  0  0  0  0  0  0  0  0  0  0  0
   -0.4212    0.2100   -1.0776 C   0  0  0  0  0  0  0  0  0  0  0  0
   -1.6575   -1.2947   -0.1264 H   0  0  0  0  0  0  0  0  0  0  0  0
   -2.4848    0.3865   -0.2645 H   0  0  0  0  0  0  0  0  0  0  0  0
   -1.0803    0.6238    1.8589 H   0  0  0  0  0  0  0  0  0  0  0  0
   -0.6904    2.2103   -0.1305 H   0  0  0  0  0  0  0  0  0  0  0  0
    2.5984   -0.2819    0.2821 H   0  0  0  0  0  0  0  0  0  0  0  0
    0.8646   -0.9763    2.0383 H   0  0  0  0  0  0  0  0  0  0  0  0
    1.2831   -1.0259   -1.7797 H   0  0  0  0  0  0  0  0  0  0  0  0
   -0.6903    0.5338   -2.0625 H   0  0  0  0  0  0  0  0  0  0  0  0
  1  2  1  0
  2  3  1  0
  3  4  1  0
  4  5  1  0
  5  6  1  0
  6  7  1  0
  7  8  1  0
  8  9  1  0
  9  1  1  0
  6  2  1  0
  9  3  1  0
  8  5  1  0
  1 10  1  0
  1 11  1  0
  2 12  1  0
  3 13  1  0
  5 14  1  0
  6 15  1  0
  8 16  1  0
  9 17  1  0
M  END
