
     RDKit          3D

 21 24  0  0  0  0  0  0  0  0999 V2000
    2.1403   -0.7442    0.2879 C   0  0  0  0  0  0  0  0  0  0  0  0
    0.7268   -0.8223    0.4893 C   0  0  0  0  0  0  0  0  0  0  0  0
   -0.3801   -1.2477   -0.2950 C   0  0  0  0  0  0  0  0  0  0  0  0
   -1.7418   -1.5628   -0.0929 C   0  0  0  0  0  0  0  0  0  0  0  0
   -1.4655   -0.1850    0.1704 C   0  0  0  0  0  0  0  0  0  0  0  0
   -0.9346    0.9965   -0.4159 C   0  0  0  0  0  0  0  0  0  0  0  0
   -0.1679    1.9530    0.5774 C   0  0  0  0  0  0  0  0  0  0  0  0
    0.5405    1.2899   -0.4886 C   0  0  0  0  0  0  0  0  0  0  0  0
    1.4469    0.1784   -0.5155 C   0  0  0  0  0  0  0  0  0  0  0  0
    2.8642   -0.3291    1.0285 H   0  0  0  0  0  0  0  0  0  0  0  0
    2.6002   -1.7011   -0.1010 H   0  0  0  0  0  0  0  0  0  0  0  0
    0.5128   -0.3875    1.5171 H   0  0  0  0  0  0  0  0  0  0  0  0
   -0.2108   -1.2702   -1.4246 H   0  0  0  0  0  0  0  0  0  0  0  0
   -2.5021   -1.7227   -0.9116 H   0  0  0  0  0  0  0  0  0  0  0  0
   -1.9479   -2.3369    0.6794 H   0  0  0  0  0  0  0  0  0  0  0  0
   -1.5444   -0.0780    1.3112 H   0  0  0  0  0  0  0  0  0  0  0  0
   -1.6345    1.5731   -1.0948 H   0  0  0  0  0  0  0  0  0  0  0  0
   -0.4853    2.9981    0.5804 H   0  0  0  0  0  0  0  0  0  0  0  0
   -0.0436    1.5658    1.6138 H   0  0  0  0  0  0  0  0  0  0  0  0
    0.7701    2.0576   -1.3147 H   0  0  0  0  0  0  0  0  0  0  0  0
    1.4567   -0.2249   -1.6010 H   0  0  0  0  0  0  0  0  0  0  0  0
  1  2  1  0
  2  3  1  0
  3  4  1  0
  4  5  1  0
  5  6  1  0
  6  7  1  0
  7  8  1  0
  8  9  1  0
  9  1  1  0
  9  2  1  0
  5  3  1  0
  8  6  1  0
  1 10  1  0
  1 11  1  0
  2 12  1  0
  3 13  1  0
  4 14  1  0
  4 15  1  0
  5 16  1  0
  6 17  1  0
  7 18  1  0
  7 19  1  0
  8 20  1  0
  9 21  1  0
M  END
