
     RDKit          3D

 16 19  0  0  0  0  0  0  0  0999 V2000
   -1.5561   -0.0033   -0.0852 C   0  0  0  0  0  0  0  0  0  0  0  0
   -0.4696    0.6102    0.8126 C   0  0  0  0  0  0  0  0  0  0  0  0
    0.0937    1.1633   -0.4981 C   0  0  0  0  0  0  0  0  0  0  0  0
    1.4480    1.0645   -0.4149 O   0  0  0  0  0  0  0  0  0  0  0  0
    1.6707   -0.1930    0.1721 C   0  0  0  0  0  0  0  0  0  0  0  0
    0.5630   -0.4359    1.0870 C   0  0  0  0  0  0  0  0  0  0  0  0
    0.6352   -1.0754   -0.3456 C   0  0  0  0  0  0  0  0  0  0  0  0
   -0.3616   -0.2035   -1.0309 C   0  0  0  0  0  0  0  0  0  0  0  0
   -1.9578   -0.9288    0.3404 H   0  0  0  0  0  0  0  0  0  0  0  0
   -2.2573    0.7265   -0.4947 H   0  0  0  0  0  0  0  0  0  0  0  0
   -0.7733    1.2975    1.5565 H   0  0  0  0  0  0  0  0  0  0  0  0
   -0.3822    2.0222   -0.9100 H   0  0  0  0  0  0  0  0  0  0  0  0
    2.7116   -0.5147    0.3630 H   0  0  0  0  0  0  0  0  0  0  0  0
    0.5400   -1.0987    1.9277 H   0  0  0  0  0  0  0  0  0  0  0  0
    0.6553   -2.1440   -0.4131 H   0  0  0  0  0  0  0  0  0  0  0  0
   -0.5595   -0.2870   -2.0667 H   0  0  0  0  0  0  0  0  0  0  0  0
  1  2  1  0
  2  3  1  0
  3  4  1  0
  4  5  1  0
  5  6  1  0
  6  7  1  0
  7  8  1  0
  8  1  1  0
  6  2  1  0
  8  3  1  0
  7  5  1  0
  1  9  1  0
  1 10  1  0
  2 11  1  0
  3 12  1  0
  5 13  1  0
  6 14  1  0
  7 15  1  0
  8 16  1  0
M  END
