
     RDKit          2D

 19 22  0  0  0  0  0  0  0  0999 V2000
    0.8660    0.0000    0.0000 C   0  0  0  0  0  0  0  0  0  0  0  0
   -0.4330    0.7500    0.0000 C   0  0  0  0  0  0  0  0  0  0  0  0
   -1.8596    1.2135    0.0000 O   0  0  0  0  0  0  0  0  0  0  0  0
   -2.7413    0.0000    0.0000 C   0  0  0  0  0  0  0  0  0  0  0  0
   -3.9548   -0.8817    0.0000 C   0  0  0  0  0  0  0  0  0  0  0  0
   -3.0731   -2.0952    0.0000 C   0  0  0  0  0  0  0  0  0  0  0  0
   -2.5720   -1.1007    0.0000 C   0  0  0  0  0  0  0  0  0  0  0  0
   -1.8596   -1.2135    0.0000 C   0  0  0  0  0  0  0  0  0  0  0  0
   -0.4330   -0.7500    0.0000 C   0  0  0  0  0  0  0  0  0  0  0  0
    1.8302    1.1491    0.0000 H   0  0  0  0  0  0  0  0  0  0  0  0
    1.8302   -1.1491    0.0000 H   0  0  0  0  0  0  0  0  0  0  0  0
    0.1771    2.1203    0.0000 H   0  0  0  0  0  0  0  0  0  0  0  0
   -5.0518   -1.9047    0.0000 H   0  0  0  0  0  0  0  0  0  0  0  0
   -4.6260   -0.1619    0.0000 H   0  0  0  0  0  0  0  0  0  0  0  0
   -3.3078   -3.5767    0.0000 H   0  0  0  0  0  0  0  0  0  0  0  0
   -3.2342   -0.6203    0.0000 H   0  0  0  0  0  0  0  0  0  0  0  0
   -5.2668   -1.6089    0.0000 H   0  0  0  0  0  0  0  0  0  0  0  0
   -1.1786   -2.5500    0.0000 H   0  0  0  0  0  0  0  0  0  0  0  0
    0.1771   -2.1203    0.0000 H   0  0  0  0  0  0  0  0  0  0  0  0
  1  2  1  0
  2  3  1  0
  3  4  1  0
  4  5  1  0
  5  6  1  0
  6  7  1  0
  6  8  1  0
  8  9  1  0
  9  1  1  0
  9  2  1  0
  7  4  1  0
  8  4  1  0
  1 10  1  0
  1 11  1  0
  2 12  1  0
  5 13  1  0
  5 14  1  0
  6 15  1  0
  7 16  1  0
  7 17  1  0
  8 18  1  0
  9 19  1  0
M  END
