
     RDKit          3D

 19 22  0  0  0  0  0  0  0  0999 V2000
    2.1787   -0.1747   -0.0868 C   0  0  0  0  0  0  0  0  0  0  0  0
    1.1215   -0.0719    0.9460 C   0  0  0  0  0  0  0  0  0  0  0  0
    1.2352    0.9421   -0.2482 C   0  0  0  0  0  0  0  0  0  0  0  0
   -0.1327    0.7441   -0.8384 C   0  0  0  0  0  0  0  0  0  0  0  0
   -0.4445   -0.7247   -0.7886 C   0  0  0  0  0  0  0  0  0  0  0  0
   -1.9361   -0.7436   -0.8763 C   0  0  0  0  0  0  0  0  0  0  0  0
   -2.2494    0.3436   -0.0176 O   0  0  0  0  0  0  0  0  0  0  0  0
   -1.0220    0.7701    0.4036 C   0  0  0  0  0  0  0  0  0  0  0  0
   -0.2746   -0.5337    0.7215 C   0  0  0  0  0  0  0  0  0  0  0  0
    3.1946    0.0846    0.2393 H   0  0  0  0  0  0  0  0  0  0  0  0
    2.1021   -1.0270   -0.7963 H   0  0  0  0  0  0  0  0  0  0  0  0
    1.3102    0.3891    1.9262 H   0  0  0  0  0  0  0  0  0  0  0  0
    1.5191    1.9581    0.0089 H   0  0  0  0  0  0  0  0  0  0  0  0
   -0.4389    1.3234   -1.6785 H   0  0  0  0  0  0  0  0  0  0  0  0
    0.1584   -1.4313   -1.2814 H   0  0  0  0  0  0  0  0  0  0  0  0
   -2.3543   -0.5578   -1.8568 H   0  0  0  0  0  0  0  0  0  0  0  0
   -2.3133   -1.6407   -0.3561 H   0  0  0  0  0  0  0  0  0  0  0  0
   -0.9063    1.5758    1.0834 H   0  0  0  0  0  0  0  0  0  0  0  0
   -0.7477   -1.2256    1.3673 H   0  0  0  0  0  0  0  0  0  0  0  0
  1  2  1  0
  2  3  1  0
  3  4  1  0
  4  5  1  0
  5  6  1  0
  6  7  1  0
  7  8  1  0
  8  9  1  0
  3  1  1  0
  8  4  1  0
  9  2  1  0
  9  5  1  0
  1 10  1  0
  1 11  1  0
  2 12  1  0
  3 13  1  0
  4 14  1  0
  5 15  1  0
  6 16  1  0
  6 17  1  0
  8 18  1  0
  9 19  1  0
M  END
