
     RDKit          3D

 18 20  0  0  0  0  0  0  0  0999 V2000
    1.9034   -0.2262   -0.1653 C   0  0  0  0  0  0  0  0  0  0  0  0
    0.6205   -0.4791   -0.9688 C   0  0  0  0  0  0  0  0  0  0  0  0
   -0.3683   -1.3547   -0.2458 C   0  0  0  0  0  0  0  0  0  0  0  0
   -1.5367   -0.6048    0.2806 C   0  0  0  0  0  0  0  0  0  0  0  0
   -1.8963    0.4698   -0.6774 O   0  0  0  0  0  0  0  0  0  0  0  0
   -1.4364    0.7221    0.6379 C   0  0  0  0  0  0  0  0  0  0  0  0
   -0.0119    1.2454    0.7442 C   0  0  0  0  0  0  0  0  0  0  0  0
    0.8556    0.8332   -0.3849 C   0  0  0  0  0  0  0  0  0  0  0  0
    2.8457   -0.2042   -0.7541 H   0  0  0  0  0  0  0  0  0  0  0  0
    2.0182   -0.7097    0.8115 H   0  0  0  0  0  0  0  0  0  0  0  0
    0.7327   -0.5717   -2.0750 H   0  0  0  0  0  0  0  0  0  0  0  0
    0.1425   -1.9569    0.5371 H   0  0  0  0  0  0  0  0  0  0  0  0
   -0.7123   -2.1175   -1.0050 H   0  0  0  0  0  0  0  0  0  0  0  0
   -2.4144   -1.2425    0.5470 H   0  0  0  0  0  0  0  0  0  0  0  0
   -2.1719    1.2351    1.2503 H   0  0  0  0  0  0  0  0  0  0  0  0
    0.3503    0.9389    1.7453 H   0  0  0  0  0  0  0  0  0  0  0  0
   -0.1163    2.3697    0.7821 H   0  0  0  0  0  0  0  0  0  0  0  0
    1.1956    1.6530   -1.0597 H   0  0  0  0  0  0  0  0  0  0  0  0
  1  2  1  0
  2  3  1  0
  3  4  1  0
  4  5  1  0
  5  6  1  0
  6  7  1  0
  7  8  1  0
  8  1  1  0
  8  2  1  0
  6  4  1  0
  1  9  1  0
  1 10  1  0
  2 11  1  0
  3 12  1  0
  3 13  1  0
  4 14  1  0
  6 15  1  0
  7 16  1  0
  7 17  1  0
  8 18  1  0
M  END
