
     RDKit          3D

 19 22  0  0  0  0  0  0  0  0999 V2000
    2.0781   -0.4972    0.3984 C   0  0  0  0  0  0  0  0  0  0  0  0
    0.9868   -0.5505   -0.4927 C   0  0  0  0  0  0  0  0  0  0  0  0
   -0.3202   -1.1908   -0.5117 C   0  0  0  0  0  0  0  0  0  0  0  0
   -1.4661   -1.0607    0.3319 C   0  0  0  0  0  0  0  0  0  0  0  0
   -1.3222   -0.0288   -0.7252 C   0  0  0  0  0  0  0  0  0  0  0  0
   -0.8535    1.2965   -0.3344 C   0  0  0  0  0  0  0  0  0  0  0  0
    0.2342    1.9371   -0.8712 O   0  0  0  0  0  0  0  0  0  0  0  0
    0.3453    1.5148    0.4314 C   0  0  0  0  0  0  0  0  0  0  0  0
    0.9579    0.2515    0.8515 C   0  0  0  0  0  0  0  0  0  0  0  0
    3.0051    0.0628    0.1181 H   0  0  0  0  0  0  0  0  0  0  0  0
    2.3749   -1.4278    0.9450 H   0  0  0  0  0  0  0  0  0  0  0  0
    1.1145    0.0680   -1.4388 H   0  0  0  0  0  0  0  0  0  0  0  0
   -0.3760   -1.9925   -1.3182 H   0  0  0  0  0  0  0  0  0  0  0  0
   -2.3322   -1.7665    0.1460 H   0  0  0  0  0  0  0  0  0  0  0  0
   -1.5408   -0.6735    1.3546 H   0  0  0  0  0  0  0  0  0  0  0  0
   -1.9460   -0.0858   -1.6418 H   0  0  0  0  0  0  0  0  0  0  0  0
   -1.7059    2.0137   -0.1289 H   0  0  0  0  0  0  0  0  0  0  0  0
    0.3768    2.3404    1.1838 H   0  0  0  0  0  0  0  0  0  0  0  0
    0.3894   -0.2108    1.7024 H   0  0  0  0  0  0  0  0  0  0  0  0
  1  2  1  0
  2  3  1  0
  3  4  1  0
  4  5  1  0
  5  6  1  0
  6  7  1  0
  7  8  1  0
  8  9  1  0
  9  1  1  0
  9  2  1  0
  5  3  1  0
  8  6  1  0
  1 10  1  0
  1 11  1  0
  2 12  1  0
  3 13  1  0
  4 14  1  0
  4 15  1  0
  5 16  1  0
  6 17  1  0
  8 18  1  0
  9 19  1  0
M  END
