
     RDKit          3D

 21 23  0  0  0  0  0  0  0  0999 V2000
   -1.1841    0.9006   -0.8285 C   0  0  0  0  0  0  0  0  0  0  0  0
   -1.0472   -0.5943   -0.6448 C   0  0  0  0  0  0  0  0  0  0  0  0
   -1.5138   -0.3470    0.7549 C   0  0  0  0  0  0  0  0  0  0  0  0
   -0.9624    1.0530    0.6318 C   0  0  0  0  0  0  0  0  0  0  0  0
    0.3125    1.2289    1.0716 O   0  0  0  0  0  0  0  0  0  0  0  0
    1.3036    0.8002    0.2697 C   0  0  0  0  0  0  0  0  0  0  0  0
    2.4263   -0.0583    0.4995 C   0  0  0  0  0  0  0  0  0  0  0  0
    1.1866   -0.7582    0.3849 C   0  0  0  0  0  0  0  0  0  0  0  0
    0.3588   -1.1006   -0.7759 C   0  0  0  0  0  0  0  0  0  0  0  0
   -0.5860    1.3960   -1.5599 H   0  0  0  0  0  0  0  0  0  0  0  0
   -2.2751    1.1072   -1.0565 H   0  0  0  0  0  0  0  0  0  0  0  0
   -1.7500   -1.1688   -1.2937 H   0  0  0  0  0  0  0  0  0  0  0  0
   -1.2181   -0.9714    1.5672 H   0  0  0  0  0  0  0  0  0  0  0  0
   -2.6430   -0.2708    0.7399 H   0  0  0  0  0  0  0  0  0  0  0  0
   -1.6316    1.8473    1.0710 H   0  0  0  0  0  0  0  0  0  0  0  0
    1.2543    1.2473   -0.7423 H   0  0  0  0  0  0  0  0  0  0  0  0
    3.1859   -0.2028   -0.3000 H   0  0  0  0  0  0  0  0  0  0  0  0
    2.9294    0.0010    1.4916 H   0  0  0  0  0  0  0  0  0  0  0  0
    0.7778   -1.1737    1.3312 H   0  0  0  0  0  0  0  0  0  0  0  0
    0.7770   -0.7304   -1.7342 H   0  0  0  0  0  0  0  0  0  0  0  0
    0.2993   -2.2052   -0.8776 H   0  0  0  0  0  0  0  0  0  0  0  0
  1  2  1  0
  2  3  1  0
  3  4  1  0
  4  5  1  0
  5  6  1  0
  6  7  1  0
  7  8  1  0
  8  9  1  0
  4  1  1  0
  8  6  1  0
  9  2  1  0
  1 10  1  0
  1 11  1  0
  2 12  1  0
  3 13  1  0
  3 14  1  0
  4 15  1  0
  6 16  1  0
  7 17  1  0
  7 18  1  0
  8 19  1  0
  9 20  1  0
  9 21  1  0
M  END
