
     RDKit          3D

 13 15  0  0  0  0  0  0  0  0999 V2000
   -1.4936   -0.1721    0.7242 C   0  0  0  0  0  0  0  0  0  0  0  0
   -0.3099    0.6474    1.1648 C   0  0  0  0  0  0  0  0  0  0  0  0
   -0.6325    1.5054    0.1213 O   0  0  0  0  0  0  0  0  0  0  0  0
   -0.7209    0.2461   -0.4996 C   0  0  0  0  0  0  0  0  0  0  0  0
    0.4996   -0.1203    0.2050 C   0  0  0  0  0  0  0  0  0  0  0  0
    1.8018   -0.2549   -0.0590 C   0  0  0  0  0  0  0  0  0  0  0  0
    0.9553   -1.3887    0.4127 O   0  0  0  0  0  0  0  0  0  0  0  0
   -1.3825   -1.2246    1.0212 H   0  0  0  0  0  0  0  0  0  0  0  0
   -2.4750    0.2870    0.7906 H   0  0  0  0  0  0  0  0  0  0  0  0
   -0.0992    0.9169    2.1161 H   0  0  0  0  0  0  0  0  0  0  0  0
   -1.0090    0.1037   -1.4556 H   0  0  0  0  0  0  0  0  0  0  0  0
    2.6248   -0.0858    0.6917 H   0  0  0  0  0  0  0  0  0  0  0  0
    2.2413   -0.4602   -1.0690 H   0  0  0  0  0  0  0  0  0  0  0  0
  1  2  1  0
  2  3  1  0
  3  4  1  0
  4  5  1  0
  5  6  1  0
  6  7  1  0
  4  1  1  0
  7  5  1  0
  5  2  1  0
  1  8  1  0
  1  9  1  0
  2 10  1  0
  4 11  1  0
  6 12  1  0
  6 13  1  0
M  END
