
     RDKit          3D

 19 21  0  0  0  0  0  0  0  0999 V2000
   -1.4366    0.3570   -0.1213 C   0  0  0  0  0  0  0  0  0  0  0  0
   -0.9920   -1.0074    0.3230 C   0  0  0  0  0  0  0  0  0  0  0  0
    0.1848   -0.7799    1.2838 C   0  0  0  0  0  0  0  0  0  0  0  0
    1.1786   -0.1900    0.2737 C   0  0  0  0  0  0  0  0  0  0  0  0
    0.8102    1.2619    0.0061 C   0  0  0  0  0  0  0  0  0  0  0  0
   -0.3766    1.0327   -0.9422 C   0  0  0  0  0  0  0  0  0  0  0  0
    0.2455    0.1368   -1.8416 O   0  0  0  0  0  0  0  0  0  0  0  0
    0.7509   -0.8590   -0.9913 C   0  0  0  0  0  0  0  0  0  0  0  0
   -0.3171   -1.6967   -0.6999 O   0  0  0  0  0  0  0  0  0  0  0  0
   -2.4351    0.3733   -0.5868 H   0  0  0  0  0  0  0  0  0  0  0  0
   -1.5416    0.9705    0.8223 H   0  0  0  0  0  0  0  0  0  0  0  0
   -1.7906   -1.5899    0.7735 H   0  0  0  0  0  0  0  0  0  0  0  0
    0.5659   -1.7144    1.6875 H   0  0  0  0  0  0  0  0  0  0  0  0
   -0.1179   -0.0230    2.0062 H   0  0  0  0  0  0  0  0  0  0  0  0
    2.2112   -0.3351    0.5632 H   0  0  0  0  0  0  0  0  0  0  0  0
    1.6329    1.6963   -0.5836 H   0  0  0  0  0  0  0  0  0  0  0  0
    0.5269    1.8085    0.8974 H   0  0  0  0  0  0  0  0  0  0  0  0
   -0.7097    1.9436   -1.4246 H   0  0  0  0  0  0  0  0  0  0  0  0
    1.6105   -1.3852   -1.4455 H   0  0  0  0  0  0  0  0  0  0  0  0
  1  2  1  0
  2  3  1  0
  3  4  1  0
  4  5  1  0
  5  6  1  0
  6  7  1  0
  7  8  1  0
  8  9  1  0
  6  1  1  0
  9  2  1  0
  8  4  1  0
  1 10  1  0
  1 11  1  0
  2 12  1  0
  3 13  1  0
  3 14  1  0
  4 15  1  0
  5 16  1  0
  5 17  1  0
  6 18  1  0
  8 19  1  0
M  END
