
     RDKit          3D

 19 22  0  0  0  0  0  0  0  0999 V2000
   -1.7898    0.2014    0.1381 C   0  0  0  0  0  0  0  0  0  0  0  0
   -0.7577   -0.8659    0.4516 C   0  0  0  0  0  0  0  0  0  0  0  0
    0.2703   -0.4341    1.4450 C   0  0  0  0  0  0  0  0  0  0  0  0
    1.4725    0.0478    0.6611 C   0  0  0  0  0  0  0  0  0  0  0  0
    1.2279    1.1324   -0.3298 C   0  0  0  0  0  0  0  0  0  0  0  0
   -0.0251    1.6409   -0.5244 O   0  0  0  0  0  0  0  0  0  0  0  0
   -0.8606    0.6644   -0.9850 C   0  0  0  0  0  0  0  0  0  0  0  0
   -0.1688   -0.6578   -0.8994 C   0  0  0  0  0  0  0  0  0  0  0  0
    1.2705   -0.2844   -0.7444 C   0  0  0  0  0  0  0  0  0  0  0  0
   -2.7435   -0.1519   -0.2581 H   0  0  0  0  0  0  0  0  0  0  0  0
   -1.8704    0.9140    0.9835 H   0  0  0  0  0  0  0  0  0  0  0  0
   -1.2282   -1.8561    0.6151 H   0  0  0  0  0  0  0  0  0  0  0  0
   -0.1342    0.4573    1.9805 H   0  0  0  0  0  0  0  0  0  0  0  0
    0.4909   -1.2738    2.1095 H   0  0  0  0  0  0  0  0  0  0  0  0
    2.4867   -0.0857    1.0721 H   0  0  0  0  0  0  0  0  0  0  0  0
    2.0521    1.7898   -0.6825 H   0  0  0  0  0  0  0  0  0  0  0  0
   -1.3455    0.8033   -1.9576 H   0  0  0  0  0  0  0  0  0  0  0  0
   -0.3915   -1.4070   -1.6531 H   0  0  0  0  0  0  0  0  0  0  0  0
    2.0444   -0.6344   -1.4222 H   0  0  0  0  0  0  0  0  0  0  0  0
  1  2  1  0
  2  3  1  0
  3  4  1  0
  4  5  1  0
  5  6  1  0
  6  7  1  0
  7  8  1  0
  8  9  1  0
  7  1  1  0
  8  2  1  0
  9  4  1  0
  9  5  1  0
  1 10  1  0
  1 11  1  0
  2 12  1  0
  3 13  1  0
  3 14  1  0
  4 15  1  0
  5 16  1  0
  7 17  1  0
  8 18  1  0
  9 19  1  0
M  END
