
     RDKit          3D

 21 24  0  0  0  0  0  0  0  0999 V2000
   -1.2378   -1.2180   -0.5907 C   0  0  0  0  0  0  0  0  0  0  0  0
   -0.7501   -0.8168    0.8086 C   0  0  0  0  0  0  0  0  0  0  0  0
   -1.0650    0.6479    0.9630 C   0  0  0  0  0  0  0  0  0  0  0  0
   -0.3191    1.4817   -0.0294 C   0  0  0  0  0  0  0  0  0  0  0  0
    1.1139    1.2330   -0.1339 C   0  0  0  0  0  0  0  0  0  0  0  0
    1.6081    0.0165    0.6027 C   0  0  0  0  0  0  0  0  0  0  0  0
    0.6343   -1.0782    0.3335 C   0  0  0  0  0  0  0  0  0  0  0  0
    0.1366   -0.7315   -1.0726 C   0  0  0  0  0  0  0  0  0  0  0  0
    0.1952    0.7518   -1.1809 C   0  0  0  0  0  0  0  0  0  0  0  0
   -2.0782   -0.6237   -0.9682 H   0  0  0  0  0  0  0  0  0  0  0  0
   -1.2940   -2.3141   -0.7387 H   0  0  0  0  0  0  0  0  0  0  0  0
   -1.1423   -1.4280    1.6231 H   0  0  0  0  0  0  0  0  0  0  0  0
   -0.8764    1.0252    1.9840 H   0  0  0  0  0  0  0  0  0  0  0  0
   -2.1613    0.7740    0.7677 H   0  0  0  0  0  0  0  0  0  0  0  0
   -0.6630    2.5306   -0.1603 H   0  0  0  0  0  0  0  0  0  0  0  0
    1.8179    2.0413   -0.4027 H   0  0  0  0  0  0  0  0  0  0  0  0
    2.5763   -0.2721    0.1196 H   0  0  0  0  0  0  0  0  0  0  0  0
    1.8254    0.1972    1.6652 H   0  0  0  0  0  0  0  0  0  0  0  0
    0.9723   -2.1025    0.4697 H   0  0  0  0  0  0  0  0  0  0  0  0
    0.5754   -1.2993   -1.8809 H   0  0  0  0  0  0  0  0  0  0  0  0
    0.1317    1.1850   -2.1789 H   0  0  0  0  0  0  0  0  0  0  0  0
  1  2  1  0
  2  3  1  0
  3  4  1  0
  4  5  1  0
  5  6  1  0
  6  7  1  0
  7  8  1  0
  8  9  1  0
  8  1  1  0
  7  2  1  0
  9  4  1  0
  9  5  1  0
  1 10  1  0
  1 11  1  0
  2 12  1  0
  3 13  1  0
  3 14  1  0
  4 15  1  0
  5 16  1  0
  6 17  1  0
  6 18  1  0
  7 19  1  0
  8 20  1  0
  9 21  1  0
M  END
