
     RDKit          2D

 17 20  0  0  0  0  0  0  0  0999 V2000
   -1.7735    0.9988    0.0000 C   0  0  0  0  0  0  0  0  0  0  0  0
   -2.1625    2.1625    0.0000 C   0  0  0  0  0  0  0  0  0  0  0  0
   -3.0889    0.9828    0.0000 O   0  0  0  0  0  0  0  0  0  0  0  0
   -2.2532   -0.2628    0.0000 C   0  0  0  0  0  0  0  0  0  0  0  0
   -0.0000   -1.0607    0.0000 C   0  0  0  0  0  0  0  0  0  0  0  0
    1.0607    0.0000    0.0000 O   0  0  0  0  0  0  0  0  0  0  0  0
    0.0000    1.0607    0.0000 C   0  0  0  0  0  0  0  0  0  0  0  0
   -1.0607    0.0000    0.0000 C   0  0  0  0  0  0  0  0  0  0  0  0
   -0.6810    2.3972    0.0000 C   0  0  0  0  0  0  0  0  0  0  0  0
   -2.5961    0.8858    0.0000 H   0  0  0  0  0  0  0  0  0  0  0  0
   -3.1014   -0.6434    0.0000 H   0  0  0  0  0  0  0  0  0  0  0  0
   -3.2232    3.2232    0.0000 H   0  0  0  0  0  0  0  0  0  0  0  0
   -3.4840   -1.1202    0.0000 H   0  0  0  0  0  0  0  0  0  0  0  0
   -1.8686   -1.7127    0.0000 H   0  0  0  0  0  0  0  0  0  0  0  0
    1.2135    1.9423    0.0000 H   0  0  0  0  0  0  0  0  0  0  0  0
   -1.7878   -1.3119    0.0000 H   0  0  0  0  0  0  0  0  0  0  0  0
    0.0000    3.7337    0.0000 H   0  0  0  0  0  0  0  0  0  0  0  0
  1  2  1  0
  2  3  1  0
  3  4  1  0
  4  5  1  0
  5  6  1  0
  6  7  1  0
  7  8  1  0
  7  9  1  0
  8  1  1  0
  9  2  1  0
  8  5  1  0
  9  5  1  0
  1 10  1  0
  1 11  1  0
  2 12  1  0
  4 13  1  0
  4 14  1  0
  7 15  1  0
  8 16  1  0
  9 17  1  0
M  END
