
     RDKit          3D

 19 22  0  0  0  0  0  0  0  0999 V2000
   -1.6611   -0.4507   -0.3177 C   0  0  0  0  0  0  0  0  0  0  0  0
   -1.1638    0.3270    0.9153 C   0  0  0  0  0  0  0  0  0  0  0  0
   -0.3558   -0.6591    1.4953 O   0  0  0  0  0  0  0  0  0  0  0  0
    0.4036   -1.1760    0.4385 C   0  0  0  0  0  0  0  0  0  0  0  0
    1.7039   -0.3871    0.4321 C   0  0  0  0  0  0  0  0  0  0  0  0
    1.2037    0.9893    0.0411 C   0  0  0  0  0  0  0  0  0  0  0  0
   -0.2598    1.3246    0.2724 C   0  0  0  0  0  0  0  0  0  0  0  0
    0.2488    0.6709   -1.0350 C   0  0  0  0  0  0  0  0  0  0  0  0
   -0.2426   -0.7330   -0.8415 C   0  0  0  0  0  0  0  0  0  0  0  0
   -2.2344    0.1767   -0.9951 H   0  0  0  0  0  0  0  0  0  0  0  0
   -2.1485   -1.3450    0.0569 H   0  0  0  0  0  0  0  0  0  0  0  0
   -1.9484    0.6975    1.5347 H   0  0  0  0  0  0  0  0  0  0  0  0
    0.5547   -2.2525    0.5256 H   0  0  0  0  0  0  0  0  0  0  0  0
    2.2372   -0.4149    1.3750 H   0  0  0  0  0  0  0  0  0  0  0  0
    2.2878   -0.7847   -0.4390 H   0  0  0  0  0  0  0  0  0  0  0  0
    1.9101    1.8118   -0.0850 H   0  0  0  0  0  0  0  0  0  0  0  0
   -0.4839    2.3890    0.2606 H   0  0  0  0  0  0  0  0  0  0  0  0
    0.1478    1.2084   -1.9631 H   0  0  0  0  0  0  0  0  0  0  0  0
   -0.1993   -1.3922   -1.6714 H   0  0  0  0  0  0  0  0  0  0  0  0
  1  2  1  0
  2  3  1  0
  3  4  1  0
  4  5  1  0
  5  6  1  0
  6  7  1  0
  7  8  1  0
  8  9  1  0
  9  1  1  0
  7  2  1  0
  9  4  1  0
  8  6  1  0
  1 10  1  0
  1 11  1  0
  2 12  1  0
  4 13  1  0
  5 14  1  0
  5 15  1  0
  6 16  1  0
  7 17  1  0
  8 18  1  0
  9 19  1  0
M  END
