
     RDKit          3D

 18 20  0  0  0  0  0  0  0  0999 V2000
    2.0796   -0.0738   -0.3355 C   0  0  0  0  0  0  0  0  0  0  0  0
    0.9311   -1.0081   -0.1128 C   0  0  0  0  0  0  0  0  0  0  0  0
   -0.3217   -0.7001   -0.8928 C   0  0  0  0  0  0  0  0  0  0  0  0
   -0.9559    0.4178   -0.1518 C   0  0  0  0  0  0  0  0  0  0  0  0
   -2.3492    0.1559    0.3533 C   0  0  0  0  0  0  0  0  0  0  0  0
   -2.0597    1.0814   -0.6220 O   0  0  0  0  0  0  0  0  0  0  0  0
    0.0608    1.0848    0.7050 C   0  0  0  0  0  0  0  0  0  0  0  0
    1.1619    0.0796    0.8543 C   0  0  0  0  0  0  0  0  0  0  0  0
    1.9897    0.6619   -1.1564 H   0  0  0  0  0  0  0  0  0  0  0  0
    3.0764   -0.5347   -0.2034 H   0  0  0  0  0  0  0  0  0  0  0  0
    1.1034   -2.0381    0.2678 H   0  0  0  0  0  0  0  0  0  0  0  0
   -0.1209   -0.4995   -1.9577 H   0  0  0  0  0  0  0  0  0  0  0  0
   -0.9493   -1.6245   -0.8589 H   0  0  0  0  0  0  0  0  0  0  0  0
   -2.5074    0.4704    1.4042 H   0  0  0  0  0  0  0  0  0  0  0  0
   -2.8644   -0.7703   -0.0171 H   0  0  0  0  0  0  0  0  0  0  0  0
   -0.3753    1.4092    1.6722 H   0  0  0  0  0  0  0  0  0  0  0  0
    0.5082    1.9994    0.2502 H   0  0  0  0  0  0  0  0  0  0  0  0
    1.5929   -0.1112    1.8525 H   0  0  0  0  0  0  0  0  0  0  0  0
  1  2  1  0
  2  3  1  0
  3  4  1  0
  4  5  1  0
  5  6  1  0
  4  7  1  0
  7  8  1  0
  8  1  1  0
  8  2  1  0
  6  4  1  0
  1  9  1  0
  1 10  1  0
  2 11  1  0
  3 12  1  0
  3 13  1  0
  5 14  1  0
  5 15  1  0
  7 16  1  0
  7 17  1  0
  8 18  1  0
M  END
