
     RDKit          3D

 19 22  0  0  0  0  0  0  0  0999 V2000
    2.1990    0.2914   -0.1632 C   0  0  0  0  0  0  0  0  0  0  0  0
    1.1830   -0.3567   -0.9290 C   0  0  0  0  0  0  0  0  0  0  0  0
    1.2449   -0.6553    0.6111 C   0  0  0  0  0  0  0  0  0  0  0  0
   -0.0025   -0.1662    1.2009 C   0  0  0  0  0  0  0  0  0  0  0  0
   -1.4482   -0.0080    0.9107 C   0  0  0  0  0  0  0  0  0  0  0  0
   -1.8911    1.0866   -0.0981 C   0  0  0  0  0  0  0  0  0  0  0  0
   -0.6147    1.2596   -0.7006 O   0  0  0  0  0  0  0  0  0  0  0  0
   -0.2393   -0.0084   -1.0832 C   0  0  0  0  0  0  0  0  0  0  0  0
   -0.7674   -0.8307    0.1040 C   0  0  0  0  0  0  0  0  0  0  0  0
    2.1061    1.3613    0.1341 H   0  0  0  0  0  0  0  0  0  0  0  0
    3.2345   -0.0380   -0.2549 H   0  0  0  0  0  0  0  0  0  0  0  0
    1.4918   -1.2435   -1.5593 H   0  0  0  0  0  0  0  0  0  0  0  0
    1.6644   -1.6287    0.8913 H   0  0  0  0  0  0  0  0  0  0  0  0
    0.2019    0.8461    1.5076 H   0  0  0  0  0  0  0  0  0  0  0  0
   -2.1245   -0.2564    1.7254 H   0  0  0  0  0  0  0  0  0  0  0  0
   -2.2314    1.9781    0.4107 H   0  0  0  0  0  0  0  0  0  0  0  0
   -2.5927    0.5970   -0.7659 H   0  0  0  0  0  0  0  0  0  0  0  0
   -0.6957   -0.3216   -2.0232 H   0  0  0  0  0  0  0  0  0  0  0  0
   -0.7180   -1.9067    0.0815 H   0  0  0  0  0  0  0  0  0  0  0  0
  1  2  1  0
  2  3  1  0
  3  4  1  0
  4  5  1  0
  5  6  1  0
  6  7  1  0
  7  8  1  0
  8  9  1  0
  3  1  1  0
  9  4  1  0
  8  2  1  0
  9  5  1  0
  1 10  1  0
  1 11  1  0
  2 12  1  0
  3 13  1  0
  4 14  1  0
  5 15  1  0
  6 16  1  0
  6 17  1  0
  8 18  1  0
  9 19  1  0
M  END
