
     RDKit          3D

 21 24  0  0  0  0  0  0  0  0999 V2000
   -2.2821   -0.7665    0.3223 C   0  0  0  0  0  0  0  0  0  0  0  0
   -1.3072   -0.3675   -0.7634 C   0  0  0  0  0  0  0  0  0  0  0  0
   -1.1901    0.9354   -0.0360 C   0  0  0  0  0  0  0  0  0  0  0  0
    0.2392    1.3989   -0.1741 C   0  0  0  0  0  0  0  0  0  0  0  0
    0.9372    0.0405   -0.0514 C   0  0  0  0  0  0  0  0  0  0  0  0
    2.0720   -0.2648   -0.9077 C   0  0  0  0  0  0  0  0  0  0  0  0
    2.2307   -0.1088    0.5773 C   0  0  0  0  0  0  0  0  0  0  0  0
   -0.2344   -0.8496    0.1604 C   0  0  0  0  0  0  0  0  0  0  0  0
   -1.1638   -0.0836    1.0599 C   0  0  0  0  0  0  0  0  0  0  0  0
   -3.2066   -0.1909    0.3744 H   0  0  0  0  0  0  0  0  0  0  0  0
   -2.3497   -1.8574    0.4232 H   0  0  0  0  0  0  0  0  0  0  0  0
   -1.4057   -0.5266   -1.7430 H   0  0  0  0  0  0  0  0  0  0  0  0
   -1.9796    1.6507   -0.0849 H   0  0  0  0  0  0  0  0  0  0  0  0
    0.3984    1.7698   -1.1993 H   0  0  0  0  0  0  0  0  0  0  0  0
    0.5534    2.0977    0.5948 H   0  0  0  0  0  0  0  0  0  0  0  0
    2.1149   -1.2330   -1.3972 H   0  0  0  0  0  0  0  0  0  0  0  0
    2.4479    0.5807   -1.5502 H   0  0  0  0  0  0  0  0  0  0  0  0
    2.8835    0.6918    0.9102 H   0  0  0  0  0  0  0  0  0  0  0  0
    2.4236   -1.0790    1.1206 H   0  0  0  0  0  0  0  0  0  0  0  0
   -0.1019   -1.9007    0.3203 H   0  0  0  0  0  0  0  0  0  0  0  0
   -1.0798    0.0630    2.0436 H   0  0  0  0  0  0  0  0  0  0  0  0
  1  2  1  0
  2  3  1  0
  3  4  1  0
  4  5  1  0
  5  6  1  0
  6  7  1  0
  5  8  1  0
  8  9  1  0
  9  1  1  0
  8  2  1  0
  9  3  1  0
  7  5  1  0
  1 10  1  0
  1 11  1  0
  2 12  1  0
  3 13  1  0
  4 14  1  0
  4 15  1  0
  6 16  1  0
  6 17  1  0
  7 18  1  0
  7 19  1  0
  8 20  1  0
  9 21  1  0
M  END
