
     RDKit          3D

 20 22  0  0  0  0  0  0  0  0999 V2000
   -1.4278    0.8121    0.2226 C   0  0  0  0  0  0  0  0  0  0  0  0
   -0.6122   -0.1978    1.0440 C   0  0  0  0  0  0  0  0  0  0  0  0
   -1.2179   -1.1361   -0.0091 C   0  0  0  0  0  0  0  0  0  0  0  0
   -0.8535    0.0156   -0.9581 C   0  0  0  0  0  0  0  0  0  0  0  0
    0.6153    0.1908   -1.1154 C   0  0  0  0  0  0  0  0  0  0  0  0
    1.4265   -0.8237   -0.2950 C   0  0  0  0  0  0  0  0  0  0  0  0
    0.8560   -0.0186    0.8814 C   0  0  0  0  0  0  0  0  0  0  0  0
    1.2179    1.1330   -0.0591 C   0  0  0  0  0  0  0  0  0  0  0  0
   -2.5014    0.5823    0.3175 H   0  0  0  0  0  0  0  0  0  0  0  0
   -1.2136    1.8394    0.3067 H   0  0  0  0  0  0  0  0  0  0  0  0
   -0.9912   -0.3793    2.0524 H   0  0  0  0  0  0  0  0  0  0  0  0
   -2.3102   -1.1640    0.1322 H   0  0  0  0  0  0  0  0  0  0  0  0
   -0.7927   -2.0863   -0.1626 H   0  0  0  0  0  0  0  0  0  0  0  0
   -1.4756    0.0911   -1.8488 H   0  0  0  0  0  0  0  0  0  0  0  0
    1.0018    0.3654   -2.1257 H   0  0  0  0  0  0  0  0  0  0  0  0
    2.4971   -0.5969   -0.4104 H   0  0  0  0  0  0  0  0  0  0  0  0
    1.2043   -1.8492   -0.3764 H   0  0  0  0  0  0  0  0  0  0  0  0
    1.4739    0.0024    1.7722 H   0  0  0  0  0  0  0  0  0  0  0  0
    2.3213    1.1364   -0.1988 H   0  0  0  0  0  0  0  0  0  0  0  0
    0.7818    2.0833    0.0863 H   0  0  0  0  0  0  0  0  0  0  0  0
  1  2  1  0
  2  3  1  0
  3  4  1  0
  4  5  1  0
  5  6  1  0
  6  7  1  0
  7  8  1  0
  4  1  1  0
  8  5  1  0
  7  2  1  0
  1  9  1  0
  1 10  1  0
  2 11  1  0
  3 12  1  0
  3 13  1  0
  4 14  1  0
  5 15  1  0
  6 16  1  0
  6 17  1  0
  7 18  1  0
  8 19  1  0
  8 20  1  0
M  END
