
     RDKit          2D

 19 23  0  0  0  0  0  0  0  0999 V2000
    3.3511   -1.6138    0.0000 C   0  0  0  0  0  0  0  0  0  0  0  0
    2.7410   -2.9841    0.0000 C   0  0  0  0  0  0  0  0  0  0  0  0
    1.3706   -2.3740    0.0000 C   0  0  0  0  0  0  0  0  0  0  0  0
    1.9807   -1.0037    0.0000 C   0  0  0  0  0  0  0  0  0  0  0  0
    0.8660    0.0000    0.0000 C   0  0  0  0  0  0  0  0  0  0  0  0
   -0.4330    0.7500    0.0000 C   0  0  0  0  0  0  0  0  0  0  0  0
    0.6289   -3.5163    0.0000 C   0  0  0  0  0  0  0  0  0  0  0  0
   -0.1211   -2.2172    0.0000 C   0  0  0  0  0  0  0  0  0  0  0  0
   -0.4330   -0.7500    0.0000 C   0  0  0  0  0  0  0  0  0  0  0  0
    3.9612   -0.2435    0.0000 H   0  0  0  0  0  0  0  0  0  0  0  0
    4.7214   -2.2239    0.0000 H   0  0  0  0  0  0  0  0  0  0  0  0
    3.2785   -4.3845    0.0000 H   0  0  0  0  0  0  0  0  0  0  0  0
    0.9320   -0.9396    0.0000 H   0  0  0  0  0  0  0  0  0  0  0  0
    2.7977    0.2543    0.0000 H   0  0  0  0  0  0  0  0  0  0  0  0
    1.7477    1.2135    0.0000 H   0  0  0  0  0  0  0  0  0  0  0  0
   -1.1830    2.0490    0.0000 H   0  0  0  0  0  0  0  0  0  0  0  0
    0.2406   -4.9651    0.0000 H   0  0  0  0  0  0  0  0  0  0  0  0
   -1.1248   -3.3319    0.0000 H   0  0  0  0  0  0  0  0  0  0  0  0
   -1.9248   -0.9068    0.0000 H   0  0  0  0  0  0  0  0  0  0  0  0
  1  2  1  0
  2  3  1  0
  3  4  1  0
  4  5  1  0
  5  6  1  0
  6  7  1  0
  7  8  1  0
  8  9  1  0
  4  1  1  0
  9  5  1  0
  7  2  1  0
  8  3  1  0
  9  6  1  0
  1 10  1  0
  1 11  1  0
  2 12  1  0
  3 13  1  0
  4 14  1  0
  5 15  1  0
  6 16  1  0
  7 17  1  0
  8 18  1  0
  9 19  1  0
M  END
