
     RDKit          3D

 17 20  0  0  0  0  0  0  0  0999 V2000
    0.7343    0.7385   -0.8819 C   0  0  0  0  0  0  0  0  0  0  0  0
    1.9984    0.2627   -0.1463 C   0  0  0  0  0  0  0  0  0  0  0  0
    2.0183    0.3388    1.2334 O   0  0  0  0  0  0  0  0  0  0  0  0
    1.2814   -0.7142    0.4910 C   0  0  0  0  0  0  0  0  0  0  0  0
   -0.0161   -0.1768    0.0337 C   0  0  0  0  0  0  0  0  0  0  0  0
   -0.9282    0.4428    1.0271 C   0  0  0  0  0  0  0  0  0  0  0  0
   -2.0752   -0.0914    0.1613 C   0  0  0  0  0  0  0  0  0  0  0  0
   -2.1770   -1.4453    0.1543 O   0  0  0  0  0  0  0  0  0  0  0  0
   -1.0556   -1.0339   -0.5042 C   0  0  0  0  0  0  0  0  0  0  0  0
    0.4975    1.7970   -0.7388 H   0  0  0  0  0  0  0  0  0  0  0  0
    0.7354    0.3486   -1.9121 H   0  0  0  0  0  0  0  0  0  0  0  0
    2.9587    0.3190   -0.6479 H   0  0  0  0  0  0  0  0  0  0  0  0
    1.4552   -1.7161    0.8395 H   0  0  0  0  0  0  0  0  0  0  0  0
   -0.8333    1.5410    1.0275 H   0  0  0  0  0  0  0  0  0  0  0  0
   -0.9047   -0.0403    2.0256 H   0  0  0  0  0  0  0  0  0  0  0  0
   -2.5668    0.5700   -0.5412 H   0  0  0  0  0  0  0  0  0  0  0  0
   -1.1221   -1.1403   -1.6209 H   0  0  0  0  0  0  0  0  0  0  0  0
  1  2  1  0
  2  3  1  0
  3  4  1  0
  4  5  1  0
  5  6  1  0
  6  7  1  0
  7  8  1  0
  8  9  1  0
  5  1  1  0
  9  7  1  0
  4  2  1  0
  9  5  1  0
  1 10  1  0
  1 11  1  0
  2 12  1  0
  4 13  1  0
  6 14  1  0
  6 15  1  0
  7 16  1  0
  9 17  1  0
M  END
