
     RDKit          3D

 16 18  0  0  0  0  0  0  0  0999 V2000
    1.0804    0.9746   -0.1233 C   0  0  0  0  0  0  0  0  0  0  0  0
   -0.2682    0.7667   -0.7557 C   0  0  0  0  0  0  0  0  0  0  0  0
   -1.2629    1.3039    0.0340 O   0  0  0  0  0  0  0  0  0  0  0  0
   -1.7371    0.0306    0.3403 C   0  0  0  0  0  0  0  0  0  0  0  0
   -0.6679   -0.6404   -0.4823 C   0  0  0  0  0  0  0  0  0  0  0  0
    0.4642   -1.2530    0.2852 C   0  0  0  0  0  0  0  0  0  0  0  0
    0.5693   -0.7759    1.5972 O   0  0  0  0  0  0  0  0  0  0  0  0
    1.4175   -0.2184    0.6837 C   0  0  0  0  0  0  0  0  0  0  0  0
    1.8176    1.0442   -0.9703 H   0  0  0  0  0  0  0  0  0  0  0  0
    1.1403    1.9142    0.4598 H   0  0  0  0  0  0  0  0  0  0  0  0
   -0.3356    1.0237   -1.8405 H   0  0  0  0  0  0  0  0  0  0  0  0
   -1.7580   -0.1972    1.4081 H   0  0  0  0  0  0  0  0  0  0  0  0
   -2.7520   -0.0830   -0.1298 H   0  0  0  0  0  0  0  0  0  0  0  0
   -1.0714   -1.2160   -1.3267 H   0  0  0  0  0  0  0  0  0  0  0  0
    0.8684   -2.2393    0.0257 H   0  0  0  0  0  0  0  0  0  0  0  0
    2.4955   -0.4346    0.7946 H   0  0  0  0  0  0  0  0  0  0  0  0
  1  2  1  0
  2  3  1  0
  3  4  1  0
  4  5  1  0
  5  6  1  0
  6  7  1  0
  7  8  1  0
  8  1  1  0
  5  2  1  0
  8  6  1  0
  1  9  1  0
  1 10  1  0
  2 11  1  0
  4 12  1  0
  4 13  1  0
  5 14  1  0
  6 15  1  0
  8 16  1  0
M  END
