
     RDKit          3D

 23 25  0  0  0  0  0  0  0  0999 V2000
   -1.5298    0.2006   -0.8994 C   0  0  0  0  0  0  0  0  0  0  0  0
   -1.2812   -0.7000    0.2971 C   0  0  0  0  0  0  0  0  0  0  0  0
   -1.1952    0.5380    1.1033 C   0  0  0  0  0  0  0  0  0  0  0  0
   -0.8131    1.2802   -0.1670 C   0  0  0  0  0  0  0  0  0  0  0  0
    0.6585    1.3805   -0.3927 C   0  0  0  0  0  0  0  0  0  0  0  0
    1.2569    0.1197   -0.8388 C   0  0  0  0  0  0  0  0  0  0  0  0
    2.3536   -0.6430   -0.3328 C   0  0  0  0  0  0  0  0  0  0  0  0
    1.1577   -0.7859    0.4351 C   0  0  0  0  0  0  0  0  0  0  0  0
   -0.0705   -1.5479    0.1965 C   0  0  0  0  0  0  0  0  0  0  0  0
   -1.2182   -0.1317   -1.8688 H   0  0  0  0  0  0  0  0  0  0  0  0
   -2.6303    0.4634   -0.9442 H   0  0  0  0  0  0  0  0  0  0  0  0
   -2.1891   -1.3226    0.5031 H   0  0  0  0  0  0  0  0  0  0  0  0
   -0.5625    0.6306    1.9609 H   0  0  0  0  0  0  0  0  0  0  0  0
   -2.2408    0.8667    1.3910 H   0  0  0  0  0  0  0  0  0  0  0  0
   -1.3040    2.2733   -0.2350 H   0  0  0  0  0  0  0  0  0  0  0  0
    1.1073    1.7901    0.5561 H   0  0  0  0  0  0  0  0  0  0  0  0
    0.8294    2.1722   -1.1512 H   0  0  0  0  0  0  0  0  0  0  0  0
    0.7970   -0.2590   -1.7773 H   0  0  0  0  0  0  0  0  0  0  0  0
    3.2241   -0.1062    0.1045 H   0  0  0  0  0  0  0  0  0  0  0  0
    2.7122   -1.5302   -0.9099 H   0  0  0  0  0  0  0  0  0  0  0  0
    1.1583   -0.2835    1.4248 H   0  0  0  0  0  0  0  0  0  0  0  0
   -0.1653   -2.4143    0.8732 H   0  0  0  0  0  0  0  0  0  0  0  0
   -0.0552   -1.9912   -0.8432 H   0  0  0  0  0  0  0  0  0  0  0  0
  1  2  1  0
  2  3  1  0
  3  4  1  0
  4  5  1  0
  5  6  1  0
  6  7  1  0
  7  8  1  0
  8  9  1  0
  4  1  1  0
  8  6  1  0
  9  2  1  0
  1 10  1  0
  1 11  1  0
  2 12  1  0
  3 13  1  0
  3 14  1  0
  4 15  1  0
  5 16  1  0
  5 17  1  0
  6 18  1  0
  7 19  1  0
  7 20  1  0
  8 21  1  0
  9 22  1  0
  9 23  1  0
M  END
