
     RDKit          3D

 17 20  0  0  0  0  0  0  0  0999 V2000
   -1.9638   -0.7502   -0.3905 C   0  0  0  0  0  0  0  0  0  0  0  0
   -1.7049   -0.1155    0.9089 C   0  0  0  0  0  0  0  0  0  0  0  0
   -0.4605   -0.0103    1.4742 O   0  0  0  0  0  0  0  0  0  0  0  0
    0.2136    0.1965    0.3305 C   0  0  0  0  0  0  0  0  0  0  0  0
    1.0990   -0.8986   -0.1935 C   0  0  0  0  0  0  0  0  0  0  0  0
    2.1748    0.1772   -0.3874 C   0  0  0  0  0  0  0  0  0  0  0  0
    1.8415    1.3287   -1.0537 O   0  0  0  0  0  0  0  0  0  0  0  0
    1.3206    1.1472    0.2296 C   0  0  0  0  0  0  0  0  0  0  0  0
   -1.0525    0.4479   -0.3995 C   0  0  0  0  0  0  0  0  0  0  0  0
   -2.9561   -0.6443   -0.8176 H   0  0  0  0  0  0  0  0  0  0  0  0
   -1.4307   -1.6951   -0.7011 H   0  0  0  0  0  0  0  0  0  0  0  0
   -2.5100    0.4959    1.3467 H   0  0  0  0  0  0  0  0  0  0  0  0
    0.7016   -1.2994   -1.1342 H   0  0  0  0  0  0  0  0  0  0  0  0
    1.3352   -1.6149    0.5945 H   0  0  0  0  0  0  0  0  0  0  0  0
    3.2015   -0.0714   -0.1372 H   0  0  0  0  0  0  0  0  0  0  0  0
    1.5974    1.8714    1.0055 H   0  0  0  0  0  0  0  0  0  0  0  0
   -1.4065    1.4350   -0.6751 H   0  0  0  0  0  0  0  0  0  0  0  0
  1  2  1  0
  2  3  1  0
  3  4  1  0
  4  5  1  0
  5  6  1  0
  6  7  1  0
  7  8  1  0
  4  9  1  0
  9  1  1  0
  9  2  1  0
  8  4  1  0
  8  6  1  0
  1 10  1  0
  1 11  1  0
  2 12  1  0
  5 13  1  0
  5 14  1  0
  6 15  1  0
  8 16  1  0
  9 17  1  0
M  END
