
     RDKit          2D

 21 24  0  0  0  0  0  0  0  0999 V2000
   -1.4266   -0.5971    0.0000 C   0  0  0  0  0  0  0  0  0  0  0  0
   -0.0000   -1.0607    0.0000 C   0  0  0  0  0  0  0  0  0  0  0  0
    1.0607    0.0000    0.0000 C   0  0  0  0  0  0  0  0  0  0  0  0
    0.0000    1.0607    0.0000 C   0  0  0  0  0  0  0  0  0  0  0  0
   -1.0607    0.0000    0.0000 C   0  0  0  0  0  0  0  0  0  0  0  0
   -0.1006    2.5587    0.0000 C   0  0  0  0  0  0  0  0  0  0  0  0
   -1.5915    2.3938    0.0000 C   0  0  0  0  0  0  0  0  0  0  0  0
   -1.4266    0.9029    0.0000 C   0  0  0  0  0  0  0  0  0  0  0  0
   -1.0285    1.9429    0.0000 C   0  0  0  0  0  0  0  0  0  0  0  0
   -1.7385   -2.0644    0.0000 H   0  0  0  0  0  0  0  0  0  0  0  0
   -2.9184   -0.4403    0.0000 H   0  0  0  0  0  0  0  0  0  0  0  0
   -0.0000   -2.5607    0.0000 H   0  0  0  0  0  0  0  0  0  0  0  0
    2.1245    0.8311    0.0000 H   0  0  0  0  0  0  0  0  0  0  0  0
    2.1213   -1.0607    0.0000 H   0  0  0  0  0  0  0  0  0  0  0  0
   -2.1213   -1.0607    0.0000 H   0  0  0  0  0  0  0  0  0  0  0  0
   -2.3465    0.7725    0.0000 H   0  0  0  0  0  0  0  0  0  0  0  0
    0.8370    3.7295    0.0000 H   0  0  0  0  0  0  0  0  0  0  0  0
   -3.0824    2.2289    0.0000 H   0  0  0  0  0  0  0  0  0  0  0  0
   -1.7564    3.8847    0.0000 H   0  0  0  0  0  0  0  0  0  0  0  0
    1.2688    1.4662    0.0000 H   0  0  0  0  0  0  0  0  0  0  0  0
   -0.5727    1.2984    0.0000 H   0  0  0  0  0  0  0  0  0  0  0  0
  1  2  1  0
  2  3  1  0
  3  4  1  0
  4  5  1  0
  4  6  1  0
  6  7  1  0
  7  8  1  0
  8  9  1  0
  8  1  1  0
  5  2  1  0
  9  6  1  0
  8  4  1  0
  1 10  1  0
  1 11  1  0
  2 12  1  0
  3 13  1  0
  3 14  1  0
  5 15  1  0
  5 16  1  0
  6 17  1  0
  7 18  1  0
  7 19  1  0
  9 20  1  0
  9 21  1  0
M  END
