
     RDKit          3D

 17 19  0  0  0  0  0  0  0  0999 V2000
   -1.4284   -0.5035   -0.5177 C   0  0  0  0  0  0  0  0  0  0  0  0
   -1.2935    0.9474   -0.1372 C   0  0  0  0  0  0  0  0  0  0  0  0
   -0.0955    1.4120   -0.6519 O   0  0  0  0  0  0  0  0  0  0  0  0
    0.9326    0.8782    0.1068 C   0  0  0  0  0  0  0  0  0  0  0  0
    1.6496   -0.2440   -0.6004 C   0  0  0  0  0  0  0  0  0  0  0  0
    0.8268   -1.3364   -0.5878 O   0  0  0  0  0  0  0  0  0  0  0  0
   -0.2391   -1.1059    0.2528 C   0  0  0  0  0  0  0  0  0  0  0  0
    0.1388    0.0482    1.1255 C   0  0  0  0  0  0  0  0  0  0  0  0
   -1.0000    0.8246    1.2433 O   0  0  0  0  0  0  0  0  0  0  0  0
   -1.2806   -0.5870   -1.6008 H   0  0  0  0  0  0  0  0  0  0  0  0
   -2.3744   -0.9510   -0.1601 H   0  0  0  0  0  0  0  0  0  0  0  0
   -2.1521    1.5618   -0.3374 H   0  0  0  0  0  0  0  0  0  0  0  0
    1.5817    1.6043    0.5820 H   0  0  0  0  0  0  0  0  0  0  0  0
    2.0246    0.0451   -1.5983 H   0  0  0  0  0  0  0  0  0  0  0  0
    2.5755   -0.4507    0.0109 H   0  0  0  0  0  0  0  0  0  0  0  0
   -0.5382   -1.9734    0.8477 H   0  0  0  0  0  0  0  0  0  0  0  0
    0.6722   -0.1695    2.0224 H   0  0  0  0  0  0  0  0  0  0  0  0
  1  2  1  0
  2  3  1  0
  3  4  1  0
  4  5  1  0
  5  6  1  0
  6  7  1  0
  7  8  1  0
  8  9  1  0
  7  1  1  0
  9  2  1  0
  8  4  1  0
  1 10  1  0
  1 11  1  0
  2 12  1  0
  4 13  1  0
  5 14  1  0
  5 15  1  0
  7 16  1  0
  8 17  1  0
M  END
