
     RDKit          3D

 17 20  0  0  0  0  0  0  0  0999 V2000
   -1.5784   -0.6567   -0.6714 C   0  0  0  0  0  0  0  0  0  0  0  0
   -1.2170    0.6452   -0.0815 C   0  0  0  0  0  0  0  0  0  0  0  0
    0.0652    1.3571   -0.4844 C   0  0  0  0  0  0  0  0  0  0  0  0
    0.8373    1.4806    0.6524 O   0  0  0  0  0  0  0  0  0  0  0  0
    1.4526    0.2764    0.8525 C   0  0  0  0  0  0  0  0  0  0  0  0
    1.3943   -0.3625   -0.5340 C   0  0  0  0  0  0  0  0  0  0  0  0
    0.7389    0.5186   -1.3523 O   0  0  0  0  0  0  0  0  0  0  0  0
    0.6378   -0.9113    0.5897 C   0  0  0  0  0  0  0  0  0  0  0  0
   -0.8317   -0.6269    0.6009 C   0  0  0  0  0  0  0  0  0  0  0  0
   -1.0260   -1.0670   -1.5388 H   0  0  0  0  0  0  0  0  0  0  0  0
   -2.6380   -0.9518   -0.6195 H   0  0  0  0  0  0  0  0  0  0  0  0
   -1.9883    1.2879    0.3581 H   0  0  0  0  0  0  0  0  0  0  0  0
   -0.1421    2.3159   -0.9812 H   0  0  0  0  0  0  0  0  0  0  0  0
    2.3680    0.1776    1.4495 H   0  0  0  0  0  0  0  0  0  0  0  0
    2.3425   -0.8204   -0.8282 H   0  0  0  0  0  0  0  0  0  0  0  0
    0.9250   -1.8789    1.0063 H   0  0  0  0  0  0  0  0  0  0  0  0
   -1.3400   -0.7841    1.5820 H   0  0  0  0  0  0  0  0  0  0  0  0
  1  2  1  0
  2  3  1  0
  3  4  1  0
  4  5  1  0
  5  6  1  0
  6  7  1  0
  6  8  1  0
  8  9  1  0
  9  1  1  0
  9  2  1  0
  7  3  1  0
  8  5  1  0
  1 10  1  0
  1 11  1  0
  2 12  1  0
  3 13  1  0
  5 14  1  0
  6 15  1  0
  8 16  1  0
  9 17  1  0
M  END
