
     RDKit          3D

 21 23  0  0  0  0  0  0  0  0999 V2000
    0.4986   -1.0242    0.9228 C   0  0  0  0  0  0  0  0  0  0  0  0
    0.6838   -1.2027   -0.5723 C   0  0  0  0  0  0  0  0  0  0  0  0
    1.0966    0.1634   -1.1379 C   0  0  0  0  0  0  0  0  0  0  0  0
    0.0802    1.1511   -0.6224 C   0  0  0  0  0  0  0  0  0  0  0  0
    0.5487    1.4780    0.8044 C   0  0  0  0  0  0  0  0  0  0  0  0
   -0.2479    0.2546    1.2281 C   0  0  0  0  0  0  0  0  0  0  0  0
   -1.1197    0.5228   -0.0068 C   0  0  0  0  0  0  0  0  0  0  0  0
   -1.5359   -0.7808   -0.5749 C   0  0  0  0  0  0  0  0  0  0  0  0
   -0.5494   -1.4807   -1.2045 O   0  0  0  0  0  0  0  0  0  0  0  0
    1.4669   -1.0998    1.4146 H   0  0  0  0  0  0  0  0  0  0  0  0
   -0.1407   -1.8540    1.3185 H   0  0  0  0  0  0  0  0  0  0  0  0
    1.4365   -1.9636   -0.7893 H   0  0  0  0  0  0  0  0  0  0  0  0
    2.1148    0.4174   -0.7353 H   0  0  0  0  0  0  0  0  0  0  0  0
    1.1448    0.1604   -2.2286 H   0  0  0  0  0  0  0  0  0  0  0  0
   -0.1393    2.0124   -1.2444 H   0  0  0  0  0  0  0  0  0  0  0  0
    1.6251    1.4188    0.9572 H   0  0  0  0  0  0  0  0  0  0  0  0
    0.0357    2.3924    1.1297 H   0  0  0  0  0  0  0  0  0  0  0  0
   -0.7601    0.3141    2.1812 H   0  0  0  0  0  0  0  0  0  0  0  0
   -1.9022    1.2492    0.2032 H   0  0  0  0  0  0  0  0  0  0  0  0
   -2.3957   -0.6839   -1.2887 H   0  0  0  0  0  0  0  0  0  0  0  0
   -1.9409   -1.4448    0.2455 H   0  0  0  0  0  0  0  0  0  0  0  0
  1  2  1  0
  2  3  1  0
  3  4  1  0
  4  5  1  0
  5  6  1  0
  6  7  1  0
  7  8  1  0
  8  9  1  0
  6  1  1  0
  9  2  1  0
  7  4  1  0
  1 10  1  0
  1 11  1  0
  2 12  1  0
  3 13  1  0
  3 14  1  0
  4 15  1  0
  5 16  1  0
  5 17  1  0
  6 18  1  0
  7 19  1  0
  8 20  1  0
  8 21  1  0
M  END
