
     RDKit          3D

 19 22  0  0  0  0  0  0  0  0999 V2000
   -1.8786   -0.4602    0.4902 C   0  0  0  0  0  0  0  0  0  0  0  0
   -1.1548   -0.9980   -0.7182 C   0  0  0  0  0  0  0  0  0  0  0  0
    0.0725   -1.5340   -0.6365 O   0  0  0  0  0  0  0  0  0  0  0  0
    1.1502   -0.7632   -0.4628 C   0  0  0  0  0  0  0  0  0  0  0  0
    1.3831   -0.4540    0.9988 C   0  0  0  0  0  0  0  0  0  0  0  0
    0.8253    0.9089    0.7833 C   0  0  0  0  0  0  0  0  0  0  0  0
    1.0663    0.6764   -0.7417 C   0  0  0  0  0  0  0  0  0  0  0  0
   -0.1711    1.2631   -0.2213 C   0  0  0  0  0  0  0  0  0  0  0  0
   -1.3416    0.4315   -0.5836 C   0  0  0  0  0  0  0  0  0  0  0  0
   -1.4052   -0.4210    1.4695 H   0  0  0  0  0  0  0  0  0  0  0  0
   -2.9920   -0.5224    0.5422 H   0  0  0  0  0  0  0  0  0  0  0  0
   -1.8556   -1.5586   -1.4088 H   0  0  0  0  0  0  0  0  0  0  0  0
    2.0590   -1.2118   -0.9605 H   0  0  0  0  0  0  0  0  0  0  0  0
    2.4881   -0.4813    1.2241 H   0  0  0  0  0  0  0  0  0  0  0  0
    0.8783   -1.1127    1.7183 H   0  0  0  0  0  0  0  0  0  0  0  0
    1.4329    1.7146    1.2523 H   0  0  0  0  0  0  0  0  0  0  0  0
    1.8970    1.2440   -1.1536 H   0  0  0  0  0  0  0  0  0  0  0  0
   -0.3695    2.3733   -0.3001 H   0  0  0  0  0  0  0  0  0  0  0  0
   -2.0842    0.9054   -1.2916 H   0  0  0  0  0  0  0  0  0  0  0  0
  1  2  1  0
  2  3  1  0
  3  4  1  0
  4  5  1  0
  5  6  1  0
  6  7  1  0
  7  8  1  0
  8  9  1  0
  9  1  1  0
  9  2  1  0
  7  4  1  0
  8  6  1  0
  1 10  1  0
  1 11  1  0
  2 12  1  0
  4 13  1  0
  5 14  1  0
  5 15  1  0
  6 16  1  0
  7 17  1  0
  8 18  1  0
  9 19  1  0
M  END
