
     RDKit          3D

 19 21  0  0  0  0  0  0  0  0999 V2000
    2.0684   -0.1923   -0.7178 C   0  0  0  0  0  0  0  0  0  0  0  0
    1.5229    0.8200    0.0788 C   0  0  0  0  0  0  0  0  0  0  0  0
    0.7094    1.8981   -0.1252 O   0  0  0  0  0  0  0  0  0  0  0  0
   -0.5197    1.3798    0.3741 C   0  0  0  0  0  0  0  0  0  0  0  0
   -0.5004   -0.0703   -0.0383 C   0  0  0  0  0  0  0  0  0  0  0  0
   -1.7522   -0.6988   -0.4757 C   0  0  0  0  0  0  0  0  0  0  0  0
   -1.2702   -1.9060    0.0888 O   0  0  0  0  0  0  0  0  0  0  0  0
   -0.6121   -1.0829    1.0331 C   0  0  0  0  0  0  0  0  0  0  0  0
    0.6838   -0.0837   -0.9184 C   0  0  0  0  0  0  0  0  0  0  0  0
    2.4551   -1.1436   -0.2437 H   0  0  0  0  0  0  0  0  0  0  0  0
    2.7850    0.0849   -1.5401 H   0  0  0  0  0  0  0  0  0  0  0  0
    1.4228    0.5501    1.1793 H   0  0  0  0  0  0  0  0  0  0  0  0
   -0.4401    1.5006    1.4777 H   0  0  0  0  0  0  0  0  0  0  0  0
   -1.3738    1.9369   -0.0089 H   0  0  0  0  0  0  0  0  0  0  0  0
   -1.9550   -0.7592   -1.5585 H   0  0  0  0  0  0  0  0  0  0  0  0
   -2.6373   -0.3883    0.0956 H   0  0  0  0  0  0  0  0  0  0  0  0
   -1.3348   -0.8222    1.8270 H   0  0  0  0  0  0  0  0  0  0  0  0
    0.3568   -1.4551    1.3618 H   0  0  0  0  0  0  0  0  0  0  0  0
    0.3913    0.4321   -1.8897 H   0  0  0  0  0  0  0  0  0  0  0  0
  1  2  1  0
  2  3  1  0
  3  4  1  0
  4  5  1  0
  5  6  1  0
  6  7  1  0
  7  8  1  0
  5  9  1  0
  9  1  1  0
  9  2  1  0
  8  5  1  0
  1 10  1  0
  1 11  1  0
  2 12  1  0
  4 13  1  0
  4 14  1  0
  6 15  1  0
  6 16  1  0
  8 17  1  0
  8 18  1  0
  9 19  1  0
M  END
