
     RDKit          3D

 19 23  0  0  0  0  0  0  0  0999 V2000
    1.5782   -0.0384   -0.3966 C   0  0  0  0  0  0  0  0  0  0  0  0
    0.3164    0.3686   -1.1803 C   0  0  0  0  0  0  0  0  0  0  0  0
   -0.2749    1.3804   -0.2522 C   0  0  0  0  0  0  0  0  0  0  0  0
    0.0443    0.8538    1.1272 C   0  0  0  0  0  0  0  0  0  0  0  0
    0.8225   -0.3919    0.8961 C   0  0  0  0  0  0  0  0  0  0  0  0
   -0.1901   -1.3545    0.3727 C   0  0  0  0  0  0  0  0  0  0  0  0
   -0.5303   -0.8434   -1.0186 C   0  0  0  0  0  0  0  0  0  0  0  0
   -1.4516   -0.6699    0.1027 C   0  0  0  0  0  0  0  0  0  0  0  0
   -1.2975    0.7455    0.5768 C   0  0  0  0  0  0  0  0  0  0  0  0
    2.2381    0.8231   -0.2270 H   0  0  0  0  0  0  0  0  0  0  0  0
    2.0600   -0.9142   -0.8322 H   0  0  0  0  0  0  0  0  0  0  0  0
    0.5257    0.6946   -2.1809 H   0  0  0  0  0  0  0  0  0  0  0  0
   -0.2097    2.4554   -0.4515 H   0  0  0  0  0  0  0  0  0  0  0  0
    0.2166    1.5213    1.9639 H   0  0  0  0  0  0  0  0  0  0  0  0
    1.4604   -0.7330    1.6862 H   0  0  0  0  0  0  0  0  0  0  0  0
   -0.0627   -2.4328    0.4297 H   0  0  0  0  0  0  0  0  0  0  0  0
   -0.7199   -1.5470   -1.8316 H   0  0  0  0  0  0  0  0  0  0  0  0
   -2.3919   -1.2033    0.1942 H   0  0  0  0  0  0  0  0  0  0  0  0
   -2.1337    1.2858    1.0214 H   0  0  0  0  0  0  0  0  0  0  0  0
  1  2  1  0
  2  3  1  0
  3  4  1  0
  4  5  1  0
  5  6  1  0
  6  7  1  0
  7  8  1  0
  8  9  1  0
  5  1  1  0
  8  6  1  0
  7  2  1  0
  9  3  1  0
  9  4  1  0
  1 10  1  0
  1 11  1  0
  2 12  1  0
  3 13  1  0
  4 14  1  0
  5 15  1  0
  6 16  1  0
  7 17  1  0
  8 18  1  0
  9 19  1  0
M  END
