
     RDKit          3D

 19 21  0  0  0  0  0  0  0  0999 V2000
    1.4314   -0.2830   -0.3904 C   0  0  0  0  0  0  0  0  0  0  0  0
    0.9564    0.6476    0.6971 C   0  0  0  0  0  0  0  0  0  0  0  0
   -0.1673    1.5655    0.1948 C   0  0  0  0  0  0  0  0  0  0  0  0
   -1.0722    0.6875   -0.6390 C   0  0  0  0  0  0  0  0  0  0  0  0
   -0.3648    0.4368   -1.8360 O   0  0  0  0  0  0  0  0  0  0  0  0
    0.2014   -0.6565   -1.2085 C   0  0  0  0  0  0  0  0  0  0  0  0
   -0.9539   -0.7396   -0.2531 C   0  0  0  0  0  0  0  0  0  0  0  0
   -0.5540   -1.0006    1.1514 C   0  0  0  0  0  0  0  0  0  0  0  0
    0.3653   -0.1472    1.6830 O   0  0  0  0  0  0  0  0  0  0  0  0
    1.7514   -1.2460    0.1051 H   0  0  0  0  0  0  0  0  0  0  0  0
    2.2485    0.1063   -0.9929 H   0  0  0  0  0  0  0  0  0  0  0  0
    1.7891    1.2452    1.0587 H   0  0  0  0  0  0  0  0  0  0  0  0
    0.2236    2.4340   -0.3474 H   0  0  0  0  0  0  0  0  0  0  0  0
   -0.7513    1.8788    1.1011 H   0  0  0  0  0  0  0  0  0  0  0  0
   -2.0872    1.0788   -0.8225 H   0  0  0  0  0  0  0  0  0  0  0  0
    0.3372   -1.5062   -1.8945 H   0  0  0  0  0  0  0  0  0  0  0  0
   -1.7853   -1.3960   -0.5622 H   0  0  0  0  0  0  0  0  0  0  0  0
   -0.1035   -2.0370    1.1827 H   0  0  0  0  0  0  0  0  0  0  0  0
   -1.4645   -1.0682    1.7726 H   0  0  0  0  0  0  0  0  0  0  0  0
  1  2  1  0
  2  3  1  0
  3  4  1  0
  4  5  1  0
  5  6  1  0
  6  7  1  0
  7  8  1  0
  8  9  1  0
  6  1  1  0
  9  2  1  0
  7  4  1  0
  1 10  1  0
  1 11  1  0
  2 12  1  0
  3 13  1  0
  3 14  1  0
  4 15  1  0
  6 16  1  0
  7 17  1  0
  8 18  1  0
  8 19  1  0
M  END
