
     RDKit          3D

 21 24  0  0  0  0  0  0  0  0999 V2000
   -0.8429    1.5805   -0.3695 C   0  0  0  0  0  0  0  0  0  0  0  0
   -0.4153    0.8463    0.9053 C   0  0  0  0  0  0  0  0  0  0  0  0
    0.9683    0.2522    0.8474 C   0  0  0  0  0  0  0  0  0  0  0  0
    1.6953    0.4836   -0.4869 C   0  0  0  0  0  0  0  0  0  0  0  0
    0.5905   -0.4209   -1.0476 C   0  0  0  0  0  0  0  0  0  0  0  0
   -0.7888    0.1794   -0.9953 C   0  0  0  0  0  0  0  0  0  0  0  0
   -1.3354   -0.2613    0.3685 C   0  0  0  0  0  0  0  0  0  0  0  0
   -0.6378   -1.5424    0.6163 C   0  0  0  0  0  0  0  0  0  0  0  0
    0.7544   -1.1608    0.2904 C   0  0  0  0  0  0  0  0  0  0  0  0
   -1.8926    1.8911   -0.2471 H   0  0  0  0  0  0  0  0  0  0  0  0
   -0.1454    2.3054   -0.7640 H   0  0  0  0  0  0  0  0  0  0  0  0
   -0.7298    1.3001    1.8361 H   0  0  0  0  0  0  0  0  0  0  0  0
    1.5848    0.3201    1.7312 H   0  0  0  0  0  0  0  0  0  0  0  0
    2.6444   -0.0803   -0.4517 H   0  0  0  0  0  0  0  0  0  0  0  0
    1.7190    1.4963   -0.8485 H   0  0  0  0  0  0  0  0  0  0  0  0
    0.8581   -0.9967   -1.9245 H   0  0  0  0  0  0  0  0  0  0  0  0
   -1.4454    0.0182   -1.8383 H   0  0  0  0  0  0  0  0  0  0  0  0
   -2.3824   -0.1452    0.5350 H   0  0  0  0  0  0  0  0  0  0  0  0
   -0.7785   -1.9381    1.6316 H   0  0  0  0  0  0  0  0  0  0  0  0
   -0.9846   -2.2805   -0.1568 H   0  0  0  0  0  0  0  0  0  0  0  0
    1.5641   -1.8469    0.3683 H   0  0  0  0  0  0  0  0  0  0  0  0
  1  2  1  0
  2  3  1  0
  3  4  1  0
  4  5  1  0
  5  6  1  0
  6  7  1  0
  7  8  1  0
  8  9  1  0
  6  1  1  0
  7  2  1  0
  9  3  1  0
  9  5  1  0
  1 10  1  0
  1 11  1  0
  2 12  1  0
  3 13  1  0
  4 14  1  0
  4 15  1  0
  5 16  1  0
  6 17  1  0
  7 18  1  0
  8 19  1  0
  8 20  1  0
  9 21  1  0
M  END
