
     RDKit          3D

 21 23  0  0  0  0  0  0  0  0999 V2000
    2.3230    0.2355    0.2369 C   0  0  0  0  0  0  0  0  0  0  0  0
    1.2131   -0.6064    0.4426 C   0  0  0  0  0  0  0  0  0  0  0  0
    0.3199   -1.3732   -0.4379 C   0  0  0  0  0  0  0  0  0  0  0  0
   -1.0729   -0.8769   -0.1455 C   0  0  0  0  0  0  0  0  0  0  0  0
   -1.8073   -0.1261   -1.1629 C   0  0  0  0  0  0  0  0  0  0  0  0
   -2.3247    0.6963   -0.1368 O   0  0  0  0  0  0  0  0  0  0  0  0
   -1.1745    0.3932    0.5963 C   0  0  0  0  0  0  0  0  0  0  0  0
   -0.0551    1.3837    0.4538 C   0  0  0  0  0  0  0  0  0  0  0  0
    1.1076    0.8071   -0.2222 C   0  0  0  0  0  0  0  0  0  0  0  0
    3.1111   -0.0572   -0.4873 H   0  0  0  0  0  0  0  0  0  0  0  0
    2.8157    0.7177    1.1314 H   0  0  0  0  0  0  0  0  0  0  0  0
    0.8442   -0.6878    1.5117 H   0  0  0  0  0  0  0  0  0  0  0  0
    0.5596   -1.2847   -1.5289 H   0  0  0  0  0  0  0  0  0  0  0  0
    0.3955   -2.4627   -0.2130 H   0  0  0  0  0  0  0  0  0  0  0  0
   -1.6960   -1.6668    0.3248 H   0  0  0  0  0  0  0  0  0  0  0  0
   -2.6332   -0.6948   -1.6658 H   0  0  0  0  0  0  0  0  0  0  0  0
   -1.3070    0.4928   -1.8941 H   0  0  0  0  0  0  0  0  0  0  0  0
   -1.3892    0.2122    1.6901 H   0  0  0  0  0  0  0  0  0  0  0  0
    0.2526    1.7983    1.4377 H   0  0  0  0  0  0  0  0  0  0  0  0
   -0.4763    2.2558   -0.1278 H   0  0  0  0  0  0  0  0  0  0  0  0
    0.9939    0.8439   -1.3383 H   0  0  0  0  0  0  0  0  0  0  0  0
  1  2  1  0
  2  3  1  0
  3  4  1  0
  4  5  1  0
  5  6  1  0
  6  7  1  0
  7  8  1  0
  8  9  1  0
  9  1  1  0
  9  2  1  0
  7  4  1  0
  1 10  1  0
  1 11  1  0
  2 12  1  0
  3 13  1  0
  3 14  1  0
  4 15  1  0
  5 16  1  0
  5 17  1  0
  7 18  1  0
  8 19  1  0
  8 20  1  0
  9 21  1  0
M  END
