
     RDKit          3D

 21 24  0  0  0  0  0  0  0  0999 V2000
    1.8185   -0.4599   -0.6000 C   0  0  0  0  0  0  0  0  0  0  0  0
    1.1980    0.8738   -0.6081 C   0  0  0  0  0  0  0  0  0  0  0  0
    1.4267    0.0921    0.7076 C   0  0  0  0  0  0  0  0  0  0  0  0
    0.0152   -0.1468    1.2483 C   0  0  0  0  0  0  0  0  0  0  0  0
   -0.6349    1.1671    0.7908 C   0  0  0  0  0  0  0  0  0  0  0  0
   -0.3143    0.9846   -0.7012 C   0  0  0  0  0  0  0  0  0  0  0  0
   -0.8592   -0.3704   -0.9646 C   0  0  0  0  0  0  0  0  0  0  0  0
   -1.9690   -0.9732   -0.2258 C   0  0  0  0  0  0  0  0  0  0  0  0
   -0.6412   -1.1377    0.3693 C   0  0  0  0  0  0  0  0  0  0  0  0
    1.2958   -1.3367   -0.9944 H   0  0  0  0  0  0  0  0  0  0  0  0
    2.9196   -0.4968   -0.7841 H   0  0  0  0  0  0  0  0  0  0  0  0
    1.7677    1.8016   -0.6921 H   0  0  0  0  0  0  0  0  0  0  0  0
    2.1685    0.5135    1.4170 H   0  0  0  0  0  0  0  0  0  0  0  0
   -0.0283   -0.3027    2.3081 H   0  0  0  0  0  0  0  0  0  0  0  0
   -0.0408    2.0142    1.1745 H   0  0  0  0  0  0  0  0  0  0  0  0
   -1.6962    1.2101    0.9944 H   0  0  0  0  0  0  0  0  0  0  0  0
   -0.6699    1.7891   -1.3150 H   0  0  0  0  0  0  0  0  0  0  0  0
   -0.4788   -0.8798   -1.8874 H   0  0  0  0  0  0  0  0  0  0  0  0
   -2.7539   -0.3177    0.1604 H   0  0  0  0  0  0  0  0  0  0  0  0
   -2.3983   -1.9072   -0.6910 H   0  0  0  0  0  0  0  0  0  0  0  0
   -0.1253   -2.1175    0.2932 H   0  0  0  0  0  0  0  0  0  0  0  0
  1  2  1  0
  2  3  1  0
  3  4  1  0
  4  5  1  0
  5  6  1  0
  6  7  1  0
  7  8  1  0
  8  9  1  0
  3  1  1  0
  9  4  1  0
  6  2  1  0
  9  7  1  0
  1 10  1  0
  1 11  1  0
  2 12  1  0
  3 13  1  0
  4 14  1  0
  5 15  1  0
  5 16  1  0
  6 17  1  0
  7 18  1  0
  8 19  1  0
  8 20  1  0
  9 21  1  0
M  END
