
     RDKit          2D

 19 22  0  0  0  0  0  0  0  0999 V2000
   -3.9548   -0.8817    0.0000 C   0  0  0  0  0  0  0  0  0  0  0  0
   -3.0731   -2.0952    0.0000 C   0  0  0  0  0  0  0  0  0  0  0  0
   -3.2634   -0.9912    0.0000 C   0  0  0  0  0  0  0  0  0  0  0  0
   -2.7413    0.0000    0.0000 C   0  0  0  0  0  0  0  0  0  0  0  0
   -1.8596    1.2135    0.0000 C   0  0  0  0  0  0  0  0  0  0  0  0
   -0.4330    0.7500    0.0000 C   0  0  0  0  0  0  0  0  0  0  0  0
    0.8660    0.0000    0.0000 O   0  0  0  0  0  0  0  0  0  0  0  0
   -0.4330   -0.7500    0.0000 C   0  0  0  0  0  0  0  0  0  0  0  0
   -1.8596   -1.2135    0.0000 C   0  0  0  0  0  0  0  0  0  0  0  0
   -4.9778    0.2153    0.0000 H   0  0  0  0  0  0  0  0  0  0  0  0
   -4.6026   -1.4858    0.0000 H   0  0  0  0  0  0  0  0  0  0  0  0
   -3.3078   -3.5767    0.0000 H   0  0  0  0  0  0  0  0  0  0  0  0
   -4.0396   -1.2305    0.0000 H   0  0  0  0  0  0  0  0  0  0  0  0
   -4.6820    0.4303    0.0000 H   0  0  0  0  0  0  0  0  0  0  0  0
   -3.1586    1.9635    0.0000 H   0  0  0  0  0  0  0  0  0  0  0  0
   -1.2495    2.5838    0.0000 H   0  0  0  0  0  0  0  0  0  0  0  0
    0.1771    2.1203    0.0000 H   0  0  0  0  0  0  0  0  0  0  0  0
    0.1771   -2.1203    0.0000 H   0  0  0  0  0  0  0  0  0  0  0  0
   -1.1786   -2.5500    0.0000 H   0  0  0  0  0  0  0  0  0  0  0  0
  1  2  1  0
  2  3  1  0
  3  4  1  0
  4  5  1  0
  5  6  1  0
  6  7  1  0
  7  8  1  0
  8  9  1  0
  4  1  1  0
  8  6  1  0
  9  2  1  0
  9  4  1  0
  1 10  1  0
  1 11  1  0
  2 12  1  0
  3 13  1  0
  3 14  1  0
  5 15  1  0
  5 16  1  0
  6 17  1  0
  8 18  1  0
  9 19  1  0
M  END
