
     RDKit          3D

 21 23  0  0  0  0  0  0  0  0999 V2000
    2.5312    0.1468   -0.0814 C   0  0  0  0  0  0  0  0  0  0  0  0
    1.4349   -0.3109   -0.8227 C   0  0  0  0  0  0  0  0  0  0  0  0
    0.1899    0.3043   -1.3329 C   0  0  0  0  0  0  0  0  0  0  0  0
   -0.7572   -0.0720   -0.1810 C   0  0  0  0  0  0  0  0  0  0  0  0
   -1.8338   -1.0156   -0.4887 C   0  0  0  0  0  0  0  0  0  0  0  0
   -2.7565   -0.0162   -0.0912 O   0  0  0  0  0  0  0  0  0  0  0  0
   -1.7632    0.9503    0.1875 C   0  0  0  0  0  0  0  0  0  0  0  0
    0.1650   -0.4265    0.9978 C   0  0  0  0  0  0  0  0  0  0  0  0
    1.3315    0.3917    0.5946 C   0  0  0  0  0  0  0  0  0  0  0  0
    3.1341    1.0050   -0.4946 H   0  0  0  0  0  0  0  0  0  0  0  0
    3.2572   -0.5933    0.3624 H   0  0  0  0  0  0  0  0  0  0  0  0
    1.2873   -1.4376   -0.8117 H   0  0  0  0  0  0  0  0  0  0  0  0
   -0.1252   -0.2126   -2.2710 H   0  0  0  0  0  0  0  0  0  0  0  0
    0.3024    1.3809   -1.4396 H   0  0  0  0  0  0  0  0  0  0  0  0
   -1.9245   -1.9537    0.0503 H   0  0  0  0  0  0  0  0  0  0  0  0
   -1.9657   -1.1379   -1.6024 H   0  0  0  0  0  0  0  0  0  0  0  0
   -1.7918    1.2052    1.2862 H   0  0  0  0  0  0  0  0  0  0  0  0
   -1.8089    1.8517   -0.4165 H   0  0  0  0  0  0  0  0  0  0  0  0
    0.3554   -1.5061    1.0494 H   0  0  0  0  0  0  0  0  0  0  0  0
   -0.2455   -0.0285    1.9506 H   0  0  0  0  0  0  0  0  0  0  0  0
    0.9835    1.4749    0.5668 H   0  0  0  0  0  0  0  0  0  0  0  0
  1  2  1  0
  2  3  1  0
  3  4  1  0
  4  5  1  0
  5  6  1  0
  6  7  1  0
  4  8  1  0
  8  9  1  0
  9  1  1  0
  9  2  1  0
  7  4  1  0
  1 10  1  0
  1 11  1  0
  2 12  1  0
  3 13  1  0
  3 14  1  0
  5 15  1  0
  5 16  1  0
  7 17  1  0
  7 18  1  0
  8 19  1  0
  8 20  1  0
  9 21  1  0
M  END
