
     RDKit          3D

 19 22  0  0  0  0  0  0  0  0999 V2000
    2.6065   -0.0688   -0.2987 C   0  0  0  0  0  0  0  0  0  0  0  0
    1.3793   -0.8450   -0.1639 C   0  0  0  0  0  0  0  0  0  0  0  0
    1.5113    0.5087    0.5149 C   0  0  0  0  0  0  0  0  0  0  0  0
    0.2277    0.9614   -0.0691 C   0  0  0  0  0  0  0  0  0  0  0  0
    0.1628   -0.3343   -0.8967 C   0  0  0  0  0  0  0  0  0  0  0  0
   -0.9361    0.1286   -0.0648 C   0  0  0  0  0  0  0  0  0  0  0  0
   -1.5262   -0.6039    1.0691 C   0  0  0  0  0  0  0  0  0  0  0  0
   -2.7568   -0.5866    0.3691 O   0  0  0  0  0  0  0  0  0  0  0  0
   -2.2951    0.4403   -0.4911 C   0  0  0  0  0  0  0  0  0  0  0  0
    2.8589    0.3331   -1.3088 H   0  0  0  0  0  0  0  0  0  0  0  0
    3.4873   -0.4210    0.2769 H   0  0  0  0  0  0  0  0  0  0  0  0
    1.2501   -1.6699    0.5759 H   0  0  0  0  0  0  0  0  0  0  0  0
    1.6290    0.5616    1.6058 H   0  0  0  0  0  0  0  0  0  0  0  0
    0.2038    1.9221   -0.6193 H   0  0  0  0  0  0  0  0  0  0  0  0
    0.1452   -0.2598   -1.9828 H   0  0  0  0  0  0  0  0  0  0  0  0
   -1.5654   -0.1008    2.0518 H   0  0  0  0  0  0  0  0  0  0  0  0
   -1.1299   -1.6566    1.1140 H   0  0  0  0  0  0  0  0  0  0  0  0
   -2.5493    0.2801   -1.5523 H   0  0  0  0  0  0  0  0  0  0  0  0
   -2.7031    1.4107   -0.1301 H   0  0  0  0  0  0  0  0  0  0  0  0
  1  2  1  0
  2  3  1  0
  3  4  1  0
  4  5  1  0
  5  6  1  0
  6  7  1  0
  7  8  1  0
  8  9  1  0
  3  1  1  0
  6  4  1  0
  5  2  1  0
  9  6  1  0
  1 10  1  0
  1 11  1  0
  2 12  1  0
  3 13  1  0
  4 14  1  0
  5 15  1  0
  7 16  1  0
  7 17  1  0
  9 18  1  0
  9 19  1  0
M  END
