
     RDKit          3D

 17 20  0  0  0  0  0  0  0  0999 V2000
   -1.3278   -0.4923   -0.6639 C   0  0  0  0  0  0  0  0  0  0  0  0
   -1.6173    0.2386    0.5717 C   0  0  0  0  0  0  0  0  0  0  0  0
   -1.5797    1.4934    0.9925 O   0  0  0  0  0  0  0  0  0  0  0  0
   -0.4643    1.2563    0.3578 C   0  0  0  0  0  0  0  0  0  0  0  0
    0.6537    0.3282    0.4677 C   0  0  0  0  0  0  0  0  0  0  0  0
    1.7984    0.6163   -0.5403 C   0  0  0  0  0  0  0  0  0  0  0  0
    1.0459   -0.1887   -1.4317 O   0  0  0  0  0  0  0  0  0  0  0  0
    0.1788   -0.7805   -0.5287 C   0  0  0  0  0  0  0  0  0  0  0  0
    0.6525   -1.0648    0.8774 C   0  0  0  0  0  0  0  0  0  0  0  0
   -1.5481    0.0187   -1.6078 H   0  0  0  0  0  0  0  0  0  0  0  0
   -1.8385   -1.4593   -0.6646 H   0  0  0  0  0  0  0  0  0  0  0  0
   -1.6224   -0.4132    1.4651 H   0  0  0  0  0  0  0  0  0  0  0  0
   -0.5483    1.7684   -0.6617 H   0  0  0  0  0  0  0  0  0  0  0  0
    2.7534    0.1752   -0.2575 H   0  0  0  0  0  0  0  0  0  0  0  0
    1.8330    1.6829   -0.8167 H   0  0  0  0  0  0  0  0  0  0  0  0
    1.6714   -1.5554    0.9555 H   0  0  0  0  0  0  0  0  0  0  0  0
   -0.0408   -1.6239    1.4851 H   0  0  0  0  0  0  0  0  0  0  0  0
  1  2  1  0
  2  3  1  0
  3  4  1  0
  4  5  1  0
  5  6  1  0
  6  7  1  0
  7  8  1  0
  8  9  1  0
  8  1  1  0
  4  2  1  0
  8  5  1  0
  9  5  1  0
  1 10  1  0
  1 11  1  0
  2 12  1  0
  4 13  1  0
  6 14  1  0
  6 15  1  0
  9 16  1  0
  9 17  1  0
M  END
