
     RDKit          2D

 19 22  0  0  0  0  0  0  0  0999 V2000
    2.9266    0.5971    0.0000 C   0  0  0  0  0  0  0  0  0  0  0  0
    2.9266   -0.9029    0.0000 C   0  0  0  0  0  0  0  0  0  0  0  0
    1.1162   -2.0627    0.0000 C   0  0  0  0  0  0  0  0  0  0  0  0
   -0.0000   -1.0607    0.0000 C   0  0  0  0  0  0  0  0  0  0  0  0
    1.0607    0.0000    0.0000 C   0  0  0  0  0  0  0  0  0  0  0  0
    0.0000    1.0607    0.0000 C   0  0  0  0  0  0  0  0  0  0  0  0
   -1.0607    0.0000    0.0000 O   0  0  0  0  0  0  0  0  0  0  0  0
    1.4266    0.5971    0.0000 C   0  0  0  0  0  0  0  0  0  0  0  0
    1.4266   -0.9029    0.0000 C   0  0  0  0  0  0  0  0  0  0  0  0
    2.9266    2.0971    0.0000 H   0  0  0  0  0  0  0  0  0  0  0  0
    4.4266    0.5971    0.0000 H   0  0  0  0  0  0  0  0  0  0  0  0
    3.9872   -1.9635    0.0000 H   0  0  0  0  0  0  0  0  0  0  0  0
    0.1142   -3.1789    0.0000 H   0  0  0  0  0  0  0  0  0  0  0  0
    2.1020   -3.1933    0.0000 H   0  0  0  0  0  0  0  0  0  0  0  0
    2.1213    1.0607    0.0000 H   0  0  0  0  0  0  0  0  0  0  0  0
    1.7440   -0.4105    0.0000 H   0  0  0  0  0  0  0  0  0  0  0  0
    0.0000    2.5607    0.0000 H   0  0  0  0  0  0  0  0  0  0  0  0
    1.6612    2.0787    0.0000 H   0  0  0  0  0  0  0  0  0  0  0  0
    1.4789   -2.4020    0.0000 H   0  0  0  0  0  0  0  0  0  0  0  0
  1  2  1  0
  2  3  1  0
  3  4  1  0
  4  5  1  0
  5  6  1  0
  6  7  1  0
  6  8  1  0
  8  9  1  0
  8  1  1  0
  9  2  1  0
  7  4  1  0
  9  4  1  0
  1 10  1  0
  1 11  1  0
  2 12  1  0
  3 13  1  0
  3 14  1  0
  5 15  1  0
  5 16  1  0
  6 17  1  0
  8 18  1  0
  9 19  1  0
M  END
