
     RDKit          2D

 19 22  0  0  0  0  0  0  0  0999 V2000
   -0.0692    2.6401    0.0000 C   0  0  0  0  0  0  0  0  0  0  0  0
   -1.4958    2.1766    0.0000 C   0  0  0  0  0  0  0  0  0  0  0  0
   -0.3870    2.0164    0.0000 C   0  0  0  0  0  0  0  0  0  0  0  0
    0.3943    1.2135    0.0000 C   0  0  0  0  0  0  0  0  0  0  0  0
    1.2760    0.0000    0.0000 O   0  0  0  0  0  0  0  0  0  0  0  0
    0.3943   -1.2135    0.0000 C   0  0  0  0  0  0  0  0  0  0  0  0
   -1.0323   -0.7500    0.0000 C   0  0  0  0  0  0  0  0  0  0  0  0
   -1.0323    0.7500    0.0000 C   0  0  0  0  0  0  0  0  0  0  0  0
    0.3943    0.2865    0.0000 C   0  0  0  0  0  0  0  0  0  0  0  0
    1.2902    3.2741    0.0000 H   0  0  0  0  0  0  0  0  0  0  0  0
   -0.2382    3.5096    0.0000 H   0  0  0  0  0  0  0  0  0  0  0  0
   -2.8323    2.8576    0.0000 H   0  0  0  0  0  0  0  0  0  0  0  0
   -0.5095    2.7847    0.0000 H   0  0  0  0  0  0  0  0  0  0  0  0
    1.4032    2.9263    0.0000 H   0  0  0  0  0  0  0  0  0  0  0  0
    0.8578   -2.6401    0.0000 H   0  0  0  0  0  0  0  0  0  0  0  0
   -1.3442   -2.2172    0.0000 H   0  0  0  0  0  0  0  0  0  0  0  0
   -2.5241   -0.5932    0.0000 H   0  0  0  0  0  0  0  0  0  0  0  0
    1.8797    0.4953    0.0000 H   0  0  0  0  0  0  0  0  0  0  0  0
    1.0519    1.6346    0.0000 H   0  0  0  0  0  0  0  0  0  0  0  0
  1  2  1  0
  2  3  1  0
  3  4  1  0
  4  5  1  0
  5  6  1  0
  6  7  1  0
  7  8  1  0
  8  9  1  0
  4  1  1  0
  9  6  1  0
  8  2  1  0
  8  4  1  0
  1 10  1  0
  1 11  1  0
  2 12  1  0
  3 13  1  0
  3 14  1  0
  6 15  1  0
  7 16  1  0
  7 17  1  0
  9 18  1  0
  9 19  1  0
M  END
