
     RDKit          3D

 21 23  0  0  0  0  0  0  0  0999 V2000
   -2.6812   -0.0185   -0.0779 C   0  0  0  0  0  0  0  0  0  0  0  0
   -1.5514   -0.3117   -0.8521 C   0  0  0  0  0  0  0  0  0  0  0  0
   -0.2523   -0.9682   -0.5997 C   0  0  0  0  0  0  0  0  0  0  0  0
    0.5939    0.3067   -0.3847 C   0  0  0  0  0  0  0  0  0  0  0  0
    1.6790    0.0918    0.5951 C   0  0  0  0  0  0  0  0  0  0  0  0
    2.7370   -0.8458    0.4989 C   0  0  0  0  0  0  0  0  0  0  0  0
    2.9799    0.4189   -0.0498 O   0  0  0  0  0  0  0  0  0  0  0  0
   -0.4179    1.3682    0.0920 C   0  0  0  0  0  0  0  0  0  0  0  0
   -1.5137    0.4795    0.5203 C   0  0  0  0  0  0  0  0  0  0  0  0
   -3.2419   -0.8699    0.3928 H   0  0  0  0  0  0  0  0  0  0  0  0
   -3.4408    0.7320   -0.4488 H   0  0  0  0  0  0  0  0  0  0  0  0
   -1.4305    0.3349   -1.7795 H   0  0  0  0  0  0  0  0  0  0  0  0
   -0.1898   -1.5211    0.3427 H   0  0  0  0  0  0  0  0  0  0  0  0
    0.1587   -1.5291   -1.4672 H   0  0  0  0  0  0  0  0  0  0  0  0
    0.9016    0.6200   -1.3958 H   0  0  0  0  0  0  0  0  0  0  0  0
    1.5515    0.6650    1.5600 H   0  0  0  0  0  0  0  0  0  0  0  0
    2.6445   -1.7158   -0.1912 H   0  0  0  0  0  0  0  0  0  0  0  0
    3.3716   -1.0577    1.3790 H   0  0  0  0  0  0  0  0  0  0  0  0
    0.0070    1.9421    0.9330 H   0  0  0  0  0  0  0  0  0  0  0  0
   -0.7562    2.0001   -0.7398 H   0  0  0  0  0  0  0  0  0  0  0  0
   -1.1492   -0.1215    1.4128 H   0  0  0  0  0  0  0  0  0  0  0  0
  1  2  1  0
  2  3  1  0
  3  4  1  0
  4  5  1  0
  5  6  1  0
  6  7  1  0
  4  8  1  0
  8  9  1  0
  9  1  1  0
  9  2  1  0
  7  5  1  0
  1 10  1  0
  1 11  1  0
  2 12  1  0
  3 13  1  0
  3 14  1  0
  4 15  1  0
  5 16  1  0
  6 17  1  0
  6 18  1  0
  8 19  1  0
  8 20  1  0
  9 21  1  0
M  END
