
     RDKit          3D

 16 18  0  0  0  0  0  0  0  0999 V2000
   -1.5533   -0.5226   -0.4702 C   0  0  0  0  0  0  0  0  0  0  0  0
   -1.2323    0.4466    0.6306 C   0  0  0  0  0  0  0  0  0  0  0  0
   -0.0715    1.2210   -0.0116 C   0  0  0  0  0  0  0  0  0  0  0  0
    0.7368   -0.0091   -0.3657 C   0  0  0  0  0  0  0  0  0  0  0  0
    2.1512   -0.1438    0.0905 C   0  0  0  0  0  0  0  0  0  0  0  0
    1.7189   -0.0548   -1.2445 O   0  0  0  0  0  0  0  0  0  0  0  0
   -0.2093   -1.0655    0.0304 C   0  0  0  0  0  0  0  0  0  0  0  0
   -0.6397   -0.6202    1.2959 O   0  0  0  0  0  0  0  0  0  0  0  0
   -2.3989   -1.1839   -0.2031 H   0  0  0  0  0  0  0  0  0  0  0  0
   -1.5410   -0.1070   -1.4749 H   0  0  0  0  0  0  0  0  0  0  0  0
   -2.0000    1.0050    1.0962 H   0  0  0  0  0  0  0  0  0  0  0  0
   -0.4411    1.6773   -0.9279 H   0  0  0  0  0  0  0  0  0  0  0  0
    0.4293    1.8793    0.6940 H   0  0  0  0  0  0  0  0  0  0  0  0
    2.5614    0.7389    0.5863 H   0  0  0  0  0  0  0  0  0  0  0  0
    2.5043   -1.1618    0.3756 H   0  0  0  0  0  0  0  0  0  0  0  0
   -0.0145   -2.0994   -0.1016 H   0  0  0  0  0  0  0  0  0  0  0  0
  1  2  1  0
  2  3  1  0
  3  4  1  0
  4  5  1  0
  5  6  1  0
  4  7  1  0
  7  8  1  0
  7  1  1  0
  8  2  1  0
  6  4  1  0
  1  9  1  0
  1 10  1  0
  2 11  1  0
  3 12  1  0
  3 13  1  0
  5 14  1  0
  5 15  1  0
  7 16  1  0
M  END
