
     RDKit          3D

 17 20  0  0  0  0  0  0  0  0999 V2000
   -1.1858    0.8190   -0.3090 C   0  0  0  0  0  0  0  0  0  0  0  0
    0.2342    1.3101   -0.4689 C   0  0  0  0  0  0  0  0  0  0  0  0
    0.9437    0.6183   -1.4317 O   0  0  0  0  0  0  0  0  0  0  0  0
    1.2997   -0.3003   -0.4551 C   0  0  0  0  0  0  0  0  0  0  0  0
    1.0271    0.6584    0.6642 C   0  0  0  0  0  0  0  0  0  0  0  0
    0.2262    0.0439    1.5869 O   0  0  0  0  0  0  0  0  0  0  0  0
   -0.3653   -1.0468    1.0191 C   0  0  0  0  0  0  0  0  0  0  0  0
   -1.1315   -0.6789   -0.1925 C   0  0  0  0  0  0  0  0  0  0  0  0
    0.1786   -1.2913   -0.3258 C   0  0  0  0  0  0  0  0  0  0  0  0
   -1.5251    1.1988    0.6996 H   0  0  0  0  0  0  0  0  0  0  0  0
   -1.8583    1.1720   -1.1025 H   0  0  0  0  0  0  0  0  0  0  0  0
    0.3744    2.3882   -0.5573 H   0  0  0  0  0  0  0  0  0  0  0  0
    2.3154   -0.6799   -0.4653 H   0  0  0  0  0  0  0  0  0  0  0  0
    1.8384    1.2824    1.0107 H   0  0  0  0  0  0  0  0  0  0  0  0
   -0.5981   -1.9466    1.6199 H   0  0  0  0  0  0  0  0  0  0  0  0
   -2.0185   -1.2548   -0.5289 H   0  0  0  0  0  0  0  0  0  0  0  0
    0.2451   -2.2925   -0.7633 H   0  0  0  0  0  0  0  0  0  0  0  0
  1  2  1  0
  2  3  1  0
  3  4  1  0
  4  5  1  0
  5  6  1  0
  6  7  1  0
  7  8  1  0
  8  9  1  0
  8  1  1  0
  5  2  1  0
  9  7  1  0
  9  4  1  0
  1 10  1  0
  1 11  1  0
  2 12  1  0
  4 13  1  0
  5 14  1  0
  7 15  1  0
  8 16  1  0
  9 17  1  0
M  END
