
     RDKit          3D

 17 20  0  0  0  0  0  0  0  0999 V2000
    1.7291    0.3707    0.4376 C   0  0  0  0  0  0  0  0  0  0  0  0
    0.8106   -0.8492    0.5524 C   0  0  0  0  0  0  0  0  0  0  0  0
   -0.1922   -0.7289    1.4672 O   0  0  0  0  0  0  0  0  0  0  0  0
   -1.3825   -0.5046    0.8454 C   0  0  0  0  0  0  0  0  0  0  0  0
   -1.4446    0.8350    0.0772 C   0  0  0  0  0  0  0  0  0  0  0  0
   -0.3268    1.6148    0.0298 O   0  0  0  0  0  0  0  0  0  0  0  0
    0.7077    0.9261   -0.5368 C   0  0  0  0  0  0  0  0  0  0  0  0
    0.2756   -0.4807   -0.8067 C   0  0  0  0  0  0  0  0  0  0  0  0
   -1.1964   -0.4474   -0.6140 C   0  0  0  0  0  0  0  0  0  0  0  0
    2.6641    0.1059   -0.0985 H   0  0  0  0  0  0  0  0  0  0  0  0
    1.8855    0.9290    1.3528 H   0  0  0  0  0  0  0  0  0  0  0  0
    1.3346   -1.8184    0.4992 H   0  0  0  0  0  0  0  0  0  0  0  0
   -2.3311   -0.7914    1.3032 H   0  0  0  0  0  0  0  0  0  0  0  0
   -2.4323    1.2920   -0.0733 H   0  0  0  0  0  0  0  0  0  0  0  0
    1.1046    1.4101   -1.4283 H   0  0  0  0  0  0  0  0  0  0  0  0
    0.6888   -0.9930   -1.6666 H   0  0  0  0  0  0  0  0  0  0  0  0
   -1.8947   -0.8699   -1.3407 H   0  0  0  0  0  0  0  0  0  0  0  0
  1  2  1  0
  2  3  1  0
  3  4  1  0
  4  5  1  0
  5  6  1  0
  6  7  1  0
  7  8  1  0
  8  9  1  0
  7  1  1  0
  8  2  1  0
  9  4  1  0
  9  5  1  0
  1 10  1  0
  1 11  1  0
  2 12  1  0
  4 13  1  0
  5 14  1  0
  7 15  1  0
  8 16  1  0
  9 17  1  0
M  END
