
     RDKit          3D

 17 20  0  0  0  0  0  0  0  0999 V2000
   -0.2998    1.5720   -0.7340 C   0  0  0  0  0  0  0  0  0  0  0  0
   -0.5216    0.0887   -0.9683 C   0  0  0  0  0  0  0  0  0  0  0  0
   -0.8915    0.0148    0.4651 C   0  0  0  0  0  0  0  0  0  0  0  0
   -1.3120   -0.9534    1.2884 C   0  0  0  0  0  0  0  0  0  0  0  0
   -2.0825    0.3092    0.9933 O   0  0  0  0  0  0  0  0  0  0  0  0
    0.3037    0.9101    0.4757 C   0  0  0  0  0  0  0  0  0  0  0  0
    0.8665   -0.0852   -0.4884 C   0  0  0  0  0  0  0  0  0  0  0  0
    1.7081   -1.1058   -0.3279 C   0  0  0  0  0  0  0  0  0  0  0  0
    1.9835    0.0913   -1.2068 O   0  0  0  0  0  0  0  0  0  0  0  0
    0.3972    2.0352   -1.4435 H   0  0  0  0  0  0  0  0  0  0  0  0
   -1.1781    2.1552   -0.4704 H   0  0  0  0  0  0  0  0  0  0  0  0
   -0.9793   -0.3113   -1.7647 H   0  0  0  0  0  0  0  0  0  0  0  0
   -1.0556   -1.0000    2.3883 H   0  0  0  0  0  0  0  0  0  0  0  0
   -1.8932   -1.8534    0.9898 H   0  0  0  0  0  0  0  0  0  0  0  0
    0.7523    1.3491    1.2519 H   0  0  0  0  0  0  0  0  0  0  0  0
    2.4857   -1.1706    0.4876 H   0  0  0  0  0  0  0  0  0  0  0  0
    1.7167   -2.0461   -0.9361 H   0  0  0  0  0  0  0  0  0  0  0  0
  1  2  1  0
  2  3  1  0
  3  4  1  0
  4  5  1  0
  3  6  1  0
  6  7  1  0
  7  8  1  0
  8  9  1  0
  6  1  1  0
  9  7  1  0
  7  2  1  0
  5  3  1  0
  1 10  1  0
  1 11  1  0
  2 12  1  0
  4 13  1  0
  4 14  1  0
  6 15  1  0
  8 16  1  0
  8 17  1  0
M  END
