
     RDKit          3D

 13 15  0  0  0  0  0  0  0  0999 V2000
   -0.8589   -0.6647   -0.1371 C   0  0  0  0  0  0  0  0  0  0  0  0
   -0.8605    0.7834   -0.4096 C   0  0  0  0  0  0  0  0  0  0  0  0
   -0.6240    1.8775    0.2220 O   0  0  0  0  0  0  0  0  0  0  0  0
    0.3578    1.0667    0.5416 C   0  0  0  0  0  0  0  0  0  0  0  0
    1.2537    0.1913   -0.1933 C   0  0  0  0  0  0  0  0  0  0  0  0
    1.6907   -1.0456   -0.1430 O   0  0  0  0  0  0  0  0  0  0  0  0
    0.4933   -1.0930    0.2786 C   0  0  0  0  0  0  0  0  0  0  0  0
   -1.2059   -1.2551   -1.0269 H   0  0  0  0  0  0  0  0  0  0  0  0
   -1.6433   -0.8761    0.6262 H   0  0  0  0  0  0  0  0  0  0  0  0
   -0.6021    0.9520   -1.5135 H   0  0  0  0  0  0  0  0  0  0  0  0
    0.2013    0.7897    1.6313 H   0  0  0  0  0  0  0  0  0  0  0  0
    1.2700    0.4335   -1.3020 H   0  0  0  0  0  0  0  0  0  0  0  0
    0.5281   -1.1595    1.4256 H   0  0  0  0  0  0  0  0  0  0  0  0
  1  2  1  0
  2  3  1  0
  3  4  1  0
  4  5  1  0
  5  6  1  0
  6  7  1  0
  7  1  1  0
  4  2  1  0
  7  5  1  0
  1  8  1  0
  1  9  1  0
  2 10  1  0
  4 11  1  0
  5 12  1  0
  7 13  1  0
M  END
