
     RDKit          3D

 19 21  0  0  0  0  0  0  0  0999 V2000
   -0.9619    1.2424    0.2511 C   0  0  0  0  0  0  0  0  0  0  0  0
   -1.0879   -0.0635    0.9759 C   0  0  0  0  0  0  0  0  0  0  0  0
   -1.2729   -0.9883   -0.2478 C   0  0  0  0  0  0  0  0  0  0  0  0
    0.0527   -0.5700   -0.8694 C   0  0  0  0  0  0  0  0  0  0  0  0
    0.0741    0.9144   -0.8305 C   0  0  0  0  0  0  0  0  0  0  0  0
    1.3212    1.3001   -0.3471 O   0  0  0  0  0  0  0  0  0  0  0  0
    1.9639    0.2061    0.1726 C   0  0  0  0  0  0  0  0  0  0  0  0
    0.9234   -0.8609    0.3644 C   0  0  0  0  0  0  0  0  0  0  0  0
    0.1333   -0.5368    1.4517 O   0  0  0  0  0  0  0  0  0  0  0  0
   -1.9267    1.4101   -0.2949 H   0  0  0  0  0  0  0  0  0  0  0  0
   -0.6675    2.0879    0.8674 H   0  0  0  0  0  0  0  0  0  0  0  0
   -1.8965   -0.1414    1.6796 H   0  0  0  0  0  0  0  0  0  0  0  0
   -2.1346   -0.6983   -0.8376 H   0  0  0  0  0  0  0  0  0  0  0  0
   -1.2651   -2.0051    0.1405 H   0  0  0  0  0  0  0  0  0  0  0  0
    0.3392   -1.0736   -1.7497 H   0  0  0  0  0  0  0  0  0  0  0  0
   -0.1370    1.4219   -1.7719 H   0  0  0  0  0  0  0  0  0  0  0  0
    2.4435    0.3949    1.1652 H   0  0  0  0  0  0  0  0  0  0  0  0
    2.7947   -0.1642   -0.4796 H   0  0  0  0  0  0  0  0  0  0  0  0
    1.3039   -1.8757    0.3600 H   0  0  0  0  0  0  0  0  0  0  0  0
  1  2  1  0
  2  3  1  0
  3  4  1  0
  4  5  1  0
  5  6  1  0
  6  7  1  0
  7  8  1  0
  8  9  1  0
  5  1  1  0
  9  2  1  0
  8  4  1  0
  1 10  1  0
  1 11  1  0
  2 12  1  0
  3 13  1  0
  3 14  1  0
  4 15  1  0
  5 16  1  0
  7 17  1  0
  7 18  1  0
  8 19  1  0
M  END
