
     RDKit          3D

 19 22  0  0  0  0  0  0  0  0999 V2000
   -1.1396   -0.9376    0.6245 C   0  0  0  0  0  0  0  0  0  0  0  0
   -0.0673   -1.1345   -0.4567 C   0  0  0  0  0  0  0  0  0  0  0  0
    1.2607   -0.9245    0.2361 C   0  0  0  0  0  0  0  0  0  0  0  0
    1.2553    0.5553    0.4911 C   0  0  0  0  0  0  0  0  0  0  0  0
   -0.0210    1.3011    0.6592 C   0  0  0  0  0  0  0  0  0  0  0  0
   -1.3165    0.5814    0.4897 C   0  0  0  0  0  0  0  0  0  0  0  0
   -1.5181    0.6362   -0.9112 O   0  0  0  0  0  0  0  0  0  0  0  0
   -0.2788    0.0769   -1.3078 C   0  0  0  0  0  0  0  0  0  0  0  0
    0.6561    1.1008   -0.7217 C   0  0  0  0  0  0  0  0  0  0  0  0
   -0.7906   -1.2298    1.6122 H   0  0  0  0  0  0  0  0  0  0  0  0
   -2.0697   -1.3959    0.2843 H   0  0  0  0  0  0  0  0  0  0  0  0
   -0.1593   -2.0885   -0.9672 H   0  0  0  0  0  0  0  0  0  0  0  0
    2.0687   -1.1293   -0.5012 H   0  0  0  0  0  0  0  0  0  0  0  0
    1.2874   -1.5449    1.1244 H   0  0  0  0  0  0  0  0  0  0  0  0
    2.1993    0.9789    0.8329 H   0  0  0  0  0  0  0  0  0  0  0  0
    0.0031    2.2912    1.0985 H   0  0  0  0  0  0  0  0  0  0  0  0
   -2.1540    0.9616    1.0544 H   0  0  0  0  0  0  0  0  0  0  0  0
   -0.1979   -0.0688   -2.3720 H   0  0  0  0  0  0  0  0  0  0  0  0
    0.9822    1.9705   -1.2695 H   0  0  0  0  0  0  0  0  0  0  0  0
  1  2  1  0
  2  3  1  0
  3  4  1  0
  4  5  1  0
  5  6  1  0
  6  7  1  0
  7  8  1  0
  8  9  1  0
  6  1  1  0
  8  2  1  0
  9  4  1  0
  9  5  1  0
  1 10  1  0
  1 11  1  0
  2 12  1  0
  3 13  1  0
  3 14  1  0
  4 15  1  0
  5 16  1  0
  6 17  1  0
  8 18  1  0
  9 19  1  0
M  END
