
     RDKit          2D

 19 22  0  0  0  0  0  0  0  0999 V2000
    0.8660    0.0000    0.0000 C   0  0  0  0  0  0  0  0  0  0  0  0
   -0.4330    0.7500    0.0000 C   0  0  0  0  0  0  0  0  0  0  0  0
   -1.7321    1.5000    0.0000 O   0  0  0  0  0  0  0  0  0  0  0  0
   -3.0311    0.7500    0.0000 C   0  0  0  0  0  0  0  0  0  0  0  0
   -3.0311   -0.7500    0.0000 C   0  0  0  0  0  0  0  0  0  0  0  0
   -3.7811   -2.0490    0.0000 C   0  0  0  0  0  0  0  0  0  0  0  0
   -2.4821   -2.7990    0.0000 C   0  0  0  0  0  0  0  0  0  0  0  0
   -1.7321   -1.5000    0.0000 C   0  0  0  0  0  0  0  0  0  0  0  0
   -0.4330   -0.7500    0.0000 C   0  0  0  0  0  0  0  0  0  0  0  0
    1.8302    1.1491    0.0000 H   0  0  0  0  0  0  0  0  0  0  0  0
    1.8302   -1.1491    0.0000 H   0  0  0  0  0  0  0  0  0  0  0  0
    0.3170    2.0490    0.0000 H   0  0  0  0  0  0  0  0  0  0  0  0
   -4.3301    1.5000    0.0000 H   0  0  0  0  0  0  0  0  0  0  0  0
   -4.4800   -0.3618    0.0000 H   0  0  0  0  0  0  0  0  0  0  0  0
   -4.5311   -3.3481    0.0000 H   0  0  0  0  0  0  0  0  0  0  0  0
   -5.0801   -1.2990    0.0000 H   0  0  0  0  0  0  0  0  0  0  0  0
   -2.0938   -4.2479    0.0000 H   0  0  0  0  0  0  0  0  0  0  0  0
   -0.6714   -2.5607    0.0000 H   0  0  0  0  0  0  0  0  0  0  0  0
   -1.4751    0.3290    0.0000 H   0  0  0  0  0  0  0  0  0  0  0  0
  1  2  1  0
  2  3  1  0
  3  4  1  0
  4  5  1  0
  5  6  1  0
  6  7  1  0
  7  8  1  0
  8  9  1  0
  9  1  1  0
  9  2  1  0
  7  4  1  0
  8  5  1  0
  1 10  1  0
  1 11  1  0
  2 12  1  0
  4 13  1  0
  5 14  1  0
  6 15  1  0
  6 16  1  0
  7 17  1  0
  8 18  1  0
  9 19  1  0
M  END
