
     RDKit          2D

 19 23  0  0  0  0  0  0  0  0999 V2000
    0.6113    1.2948    0.0000 C   0  0  0  0  0  0  0  0  0  0  0  0
    0.8660    0.0000    0.0000 C   0  0  0  0  0  0  0  0  0  0  0  0
   -0.4330    0.7500    0.0000 C   0  0  0  0  0  0  0  0  0  0  0  0
   -0.4330   -0.7500    0.0000 C   0  0  0  0  0  0  0  0  0  0  0  0
    1.5274    0.8822    0.0000 C   0  0  0  0  0  0  0  0  0  0  0  0
   -0.2779    3.7090    0.0000 C   0  0  0  0  0  0  0  0  0  0  0  0
    1.2138    3.8658    0.0000 C   0  0  0  0  0  0  0  0  0  0  0  0
    1.3706    2.3740    0.0000 C   0  0  0  0  0  0  0  0  0  0  0  0
   -0.1211    2.2172    0.0000 C   0  0  0  0  0  0  0  0  0  0  0  0
    1.2870    0.9027    0.0000 H   0  0  0  0  0  0  0  0  0  0  0  0
    3.2798    1.7537    0.0000 H   0  0  0  0  0  0  0  0  0  0  0  0
    1.7477   -1.2135    0.0000 H   0  0  0  0  0  0  0  0  0  0  0  0
   -1.9248    0.9068    0.0000 H   0  0  0  0  0  0  0  0  0  0  0  0
   -1.1830   -2.0490    0.0000 H   0  0  0  0  0  0  0  0  0  0  0  0
    2.2348    0.3492    0.0000 H   0  0  0  0  0  0  0  0  0  0  0  0
   -1.4437    4.6530    0.0000 H   0  0  0  0  0  0  0  0  0  0  0  0
    2.7056    4.0226    0.0000 H   0  0  0  0  0  0  0  0  0  0  0  0
    1.0571    5.3576    0.0000 H   0  0  0  0  0  0  0  0  0  0  0  0
   -1.6191    2.2957    0.0000 H   0  0  0  0  0  0  0  0  0  0  0  0
  1  2  1  0
  2  3  1  0
  3  4  1  0
  4  5  1  0
  5  6  1  0
  6  7  1  0
  7  8  1  0
  8  9  1  0
  8  1  1  0
  4  2  1  0
  8  5  1  0
  9  3  1  0
  9  6  1  0
  1 10  1  0
  1 11  1  0
  2 12  1  0
  3 13  1  0
  4 14  1  0
  5 15  1  0
  6 16  1  0
  7 17  1  0
  7 18  1  0
  9 19  1  0
M  END
