
     RDKit          3D

 19 21  0  0  0  0  0  0  0  0999 V2000
   -0.1078   -1.4646   -0.0294 C   0  0  0  0  0  0  0  0  0  0  0  0
   -1.1722   -0.5381   -0.5149 C   0  0  0  0  0  0  0  0  0  0  0  0
   -1.5509    0.5068    0.5404 C   0  0  0  0  0  0  0  0  0  0  0  0
   -0.1716    1.1671    0.6736 C   0  0  0  0  0  0  0  0  0  0  0  0
    0.5511    0.2961    1.4901 O   0  0  0  0  0  0  0  0  0  0  0  0
    1.0129   -0.7197    0.6199 C   0  0  0  0  0  0  0  0  0  0  0  0
    1.6133    0.1816   -0.4714 C   0  0  0  0  0  0  0  0  0  0  0  0
    0.3566    1.0262   -0.7227 C   0  0  0  0  0  0  0  0  0  0  0  0
   -0.5719    0.3172   -1.4683 O   0  0  0  0  0  0  0  0  0  0  0  0
   -0.4901   -2.3125    0.5726 H   0  0  0  0  0  0  0  0  0  0  0  0
    0.3333   -1.9463   -0.9533 H   0  0  0  0  0  0  0  0  0  0  0  0
   -2.0678   -1.0216   -0.8817 H   0  0  0  0  0  0  0  0  0  0  0  0
   -1.8757    0.0598    1.4749 H   0  0  0  0  0  0  0  0  0  0  0  0
   -2.2407    1.2187    0.0827 H   0  0  0  0  0  0  0  0  0  0  0  0
   -0.2270    2.1799    1.0510 H   0  0  0  0  0  0  0  0  0  0  0  0
    1.7552   -1.3385    1.1069 H   0  0  0  0  0  0  0  0  0  0  0  0
    1.9219   -0.3762   -1.3465 H   0  0  0  0  0  0  0  0  0  0  0  0
    2.3577    0.8069    0.0098 H   0  0  0  0  0  0  0  0  0  0  0  0
    0.5736    1.9573   -1.2339 H   0  0  0  0  0  0  0  0  0  0  0  0
  1  2  1  0
  2  3  1  0
  3  4  1  0
  4  5  1  0
  5  6  1  0
  6  7  1  0
  7  8  1  0
  8  9  1  0
  6  1  1  0
  9  2  1  0
  8  4  1  0
  1 10  1  0
  1 11  1  0
  2 12  1  0
  3 13  1  0
  3 14  1  0
  4 15  1  0
  6 16  1  0
  7 17  1  0
  7 18  1  0
  8 19  1  0
M  END
