
     RDKit          3D

 18 21  0  0  0  0  0  0  0  0999 V2000
   -1.4952   -0.3551   -0.4890 C   0  0  0  0  0  0  0  0  0  0  0  0
   -0.6441    0.7781   -1.0110 C   0  0  0  0  0  0  0  0  0  0  0  0
    0.8195    0.5222   -1.0019 C   0  0  0  0  0  0  0  0  0  0  0  0
    1.3570   -0.7259   -0.3203 C   0  0  0  0  0  0  0  0  0  0  0  0
    0.5332   -0.9046    0.9243 C   0  0  0  0  0  0  0  0  0  0  0  0
   -0.9186   -0.6851    0.8584 C   0  0  0  0  0  0  0  0  0  0  0  0
   -0.0280    0.4137    1.2684 C   0  0  0  0  0  0  0  0  0  0  0  0
    0.1816    1.2955    0.0855 C   0  0  0  0  0  0  0  0  0  0  0  0
   -2.5579   -0.1032   -0.3986 H   0  0  0  0  0  0  0  0  0  0  0  0
   -1.3735   -1.1992   -1.2236 H   0  0  0  0  0  0  0  0  0  0  0  0
   -1.0075    1.3972   -1.8473 H   0  0  0  0  0  0  0  0  0  0  0  0
    1.5081    1.0480   -1.6924 H   0  0  0  0  0  0  0  0  0  0  0  0
    1.3423   -1.6063   -0.9814 H   0  0  0  0  0  0  0  0  0  0  0  0
    2.4125   -0.4657   -0.0154 H   0  0  0  0  0  0  0  0  0  0  0  0
    1.0034   -1.4888    1.7488 H   0  0  0  0  0  0  0  0  0  0  0  0
   -1.5979   -1.0898    1.6223 H   0  0  0  0  0  0  0  0  0  0  0  0
   -0.0288    0.8270    2.2885 H   0  0  0  0  0  0  0  0  0  0  0  0
    0.4936    2.3421    0.1847 H   0  0  0  0  0  0  0  0  0  0  0  0
  1  2  1  0
  2  3  1  0
  3  4  1  0
  4  5  1  0
  5  6  1  0
  6  7  1  0
  7  8  1  0
  6  1  1  0
  8  2  1  0
  8  3  1  0
  7  5  1  0
  1  9  1  0
  1 10  1  0
  2 11  1  0
  3 12  1  0
  4 13  1  0
  4 14  1  0
  5 15  1  0
  6 16  1  0
  7 17  1  0
  8 18  1  0
M  END
