
     RDKit          3D

 19 21  0  0  0  0  0  0  0  0999 V2000
   -1.1991    1.2433   -0.3195 C   0  0  0  0  0  0  0  0  0  0  0  0
   -1.0707   -0.1298   -0.9910 C   0  0  0  0  0  0  0  0  0  0  0  0
   -1.3594   -0.7539    0.3456 C   0  0  0  0  0  0  0  0  0  0  0  0
   -0.9150    0.5264    0.9824 C   0  0  0  0  0  0  0  0  0  0  0  0
    0.4034    0.5806    1.2954 O   0  0  0  0  0  0  0  0  0  0  0  0
    1.2223   -0.3513    0.7858 C   0  0  0  0  0  0  0  0  0  0  0  0
    2.2666    0.1762   -0.1976 C   0  0  0  0  0  0  0  0  0  0  0  0
    1.1176   -0.7799   -0.5848 C   0  0  0  0  0  0  0  0  0  0  0  0
    0.2130   -0.2468   -1.4167 O   0  0  0  0  0  0  0  0  0  0  0  0
   -2.1923    1.6804   -0.4279 H   0  0  0  0  0  0  0  0  0  0  0  0
   -0.3930    1.9596   -0.6288 H   0  0  0  0  0  0  0  0  0  0  0  0
   -1.8817   -0.2896   -1.7170 H   0  0  0  0  0  0  0  0  0  0  0  0
   -2.4365   -1.0017    0.4870 H   0  0  0  0  0  0  0  0  0  0  0  0
   -0.7213   -1.5919    0.6429 H   0  0  0  0  0  0  0  0  0  0  0  0
   -1.6496    0.8546    1.7538 H   0  0  0  0  0  0  0  0  0  0  0  0
    1.6681   -1.0652    1.5221 H   0  0  0  0  0  0  0  0  0  0  0  0
    2.1890    1.2261   -0.5170 H   0  0  0  0  0  0  0  0  0  0  0  0
    3.2765   -0.2204   -0.1757 H   0  0  0  0  0  0  0  0  0  0  0  0
    1.4621   -1.8167   -0.8389 H   0  0  0  0  0  0  0  0  0  0  0  0
  1  2  1  0
  2  3  1  0
  3  4  1  0
  4  5  1  0
  5  6  1  0
  6  7  1  0
  7  8  1  0
  8  9  1  0
  4  1  1  0
  8  6  1  0
  9  2  1  0
  1 10  1  0
  1 11  1  0
  2 12  1  0
  3 13  1  0
  3 14  1  0
  4 15  1  0
  6 16  1  0
  7 17  1  0
  7 18  1  0
  8 19  1  0
M  END
