
     RDKit          3D

 19 22  0  0  0  0  0  0  0  0999 V2000
   -1.8773   -0.2322   -0.1057 C   0  0  0  0  0  0  0  0  0  0  0  0
   -0.9088    0.5681    0.7931 C   0  0  0  0  0  0  0  0  0  0  0  0
   -0.2518   -0.8119    0.9440 C   0  0  0  0  0  0  0  0  0  0  0  0
    1.0304   -0.7737    1.3375 O   0  0  0  0  0  0  0  0  0  0  0  0
    1.9103   -0.3127    0.4064 C   0  0  0  0  0  0  0  0  0  0  0  0
    1.3106    0.7716   -0.4057 C   0  0  0  0  0  0  0  0  0  0  0  0
    0.0364    1.3090   -0.0608 C   0  0  0  0  0  0  0  0  0  0  0  0
    0.2140    0.2359   -1.1990 C   0  0  0  0  0  0  0  0  0  0  0  0
   -0.5352   -0.8856   -0.5186 C   0  0  0  0  0  0  0  0  0  0  0  0
   -2.4657   -0.9797    0.4214 H   0  0  0  0  0  0  0  0  0  0  0  0
   -2.3361    0.3524   -0.8982 H   0  0  0  0  0  0  0  0  0  0  0  0
   -1.3332    0.9969    1.6751 H   0  0  0  0  0  0  0  0  0  0  0  0
   -0.8807   -1.5098    1.5022 H   0  0  0  0  0  0  0  0  0  0  0  0
    2.9003   -0.0701    0.8411 H   0  0  0  0  0  0  0  0  0  0  0  0
    2.1129   -1.1764   -0.2962 H   0  0  0  0  0  0  0  0  0  0  0  0
    2.0480    1.4522   -0.8728 H   0  0  0  0  0  0  0  0  0  0  0  0
   -0.2527    2.3086   -0.3824 H   0  0  0  0  0  0  0  0  0  0  0  0
   -0.1110    0.5881   -2.1719 H   0  0  0  0  0  0  0  0  0  0  0  0
   -0.6106   -1.8308   -1.0094 H   0  0  0  0  0  0  0  0  0  0  0  0
  1  2  1  0
  2  3  1  0
  3  4  1  0
  4  5  1  0
  5  6  1  0
  6  7  1  0
  7  8  1  0
  8  9  1  0
  9  1  1  0
  7  2  1  0
  9  3  1  0
  8  6  1  0
  1 10  1  0
  1 11  1  0
  2 12  1  0
  3 13  1  0
  5 14  1  0
  5 15  1  0
  6 16  1  0
  7 17  1  0
  8 18  1  0
  9 19  1  0
M  END
