
     RDKit          3D

 16 19  0  0  0  0  0  0  0  0999 V2000
    1.2381   -0.4132    0.6441 C   0  0  0  0  0  0  0  0  0  0  0  0
    0.9873    0.8013   -0.2095 C   0  0  0  0  0  0  0  0  0  0  0  0
   -0.3280    1.4483    0.0259 C   0  0  0  0  0  0  0  0  0  0  0  0
   -1.2664    0.8941    0.8446 O   0  0  0  0  0  0  0  0  0  0  0  0
   -1.3525   -0.4610    0.5815 C   0  0  0  0  0  0  0  0  0  0  0  0
   -0.0322   -1.1720    0.5511 C   0  0  0  0  0  0  0  0  0  0  0  0
   -0.6995   -0.7589   -0.7005 C   0  0  0  0  0  0  0  0  0  0  0  0
   -0.1122    0.5530   -1.1214 C   0  0  0  0  0  0  0  0  0  0  0  0
    1.4907   -0.0515    1.6620 H   0  0  0  0  0  0  0  0  0  0  0  0
    2.0682   -0.9864    0.2213 H   0  0  0  0  0  0  0  0  0  0  0  0
    1.8315    1.4007   -0.5785 H   0  0  0  0  0  0  0  0  0  0  0  0
   -0.3397    2.5424   -0.0422 H   0  0  0  0  0  0  0  0  0  0  0  0
   -2.2653   -0.9997    0.8191 H   0  0  0  0  0  0  0  0  0  0  0  0
   -0.0092   -2.2037    0.8965 H   0  0  0  0  0  0  0  0  0  0  0  0
   -1.0463   -1.4759   -1.4316 H   0  0  0  0  0  0  0  0  0  0  0  0
   -0.1645    0.8825   -2.1625 H   0  0  0  0  0  0  0  0  0  0  0  0
  1  2  1  0
  2  3  1  0
  3  4  1  0
  4  5  1  0
  5  6  1  0
  6  7  1  0
  7  8  1  0
  6  1  1  0
  8  2  1  0
  8  3  1  0
  7  5  1  0
  1  9  1  0
  1 10  1  0
  2 11  1  0
  3 12  1  0
  5 13  1  0
  6 14  1  0
  7 15  1  0
  8 16  1  0
M  END
