
     RDKit          3D

 12 14  0  0  0  0  0  0  0  0999 V2000
    1.4385    0.0759    0.0407 C   0  0  0  0  0  0  0  0  0  0  0  0
    0.2759   -0.7341    0.2635 C   0  0  0  0  0  0  0  0  0  0  0  0
    0.2085    0.7657   -0.2455 C   0  0  0  0  0  0  0  0  0  0  0  0
   -1.1326    0.5798    0.4099 C   0  0  0  0  0  0  0  0  0  0  0  0
   -2.1682   -0.1189   -0.0639 O   0  0  0  0  0  0  0  0  0  0  0  0
   -1.0371   -0.7012   -0.4726 C   0  0  0  0  0  0  0  0  0  0  0  0
    2.1399   -0.2761   -0.7732 H   0  0  0  0  0  0  0  0  0  0  0  0
    2.0529    0.4975    0.8890 H   0  0  0  0  0  0  0  0  0  0  0  0
    0.0419   -0.8602    1.3661 H   0  0  0  0  0  0  0  0  0  0  0  0
    0.0286    0.8688   -1.3608 H   0  0  0  0  0  0  0  0  0  0  0  0
   -0.9968    0.4262    1.5174 H   0  0  0  0  0  0  0  0  0  0  0  0
   -0.8513   -0.5233   -1.5706 H   0  0  0  0  0  0  0  0  0  0  0  0
  1  2  1  0
  2  3  1  0
  3  4  1  0
  4  5  1  0
  5  6  1  0
  3  1  1  0
  6  4  1  0
  6  2  1  0
  1  7  1  0
  1  8  1  0
  2  9  1  0
  3 10  1  0
  4 11  1  0
  6 12  1  0
M  END
