
     RDKit          3D

 17 20  0  0  0  0  0  0  0  0999 V2000
    1.1261   -1.0207    0.1733 C   0  0  0  0  0  0  0  0  0  0  0  0
    0.1673   -0.8608   -1.0196 C   0  0  0  0  0  0  0  0  0  0  0  0
    0.6696    0.3612   -1.5278 O   0  0  0  0  0  0  0  0  0  0  0  0
    0.7311    1.1950   -0.3966 C   0  0  0  0  0  0  0  0  0  0  0  0
   -0.5105    1.8754   -0.4021 O   0  0  0  0  0  0  0  0  0  0  0  0
   -1.4214    0.8988    0.0087 C   0  0  0  0  0  0  0  0  0  0  0  0
   -1.1268   -0.5575   -0.3556 C   0  0  0  0  0  0  0  0  0  0  0  0
   -0.7659    0.0530    0.9918 C   0  0  0  0  0  0  0  0  0  0  0  0
    0.7037    0.3131    0.8112 C   0  0  0  0  0  0  0  0  0  0  0  0
    0.8875   -1.8743    0.7896 H   0  0  0  0  0  0  0  0  0  0  0  0
    2.1494   -0.9224   -0.1759 H   0  0  0  0  0  0  0  0  0  0  0  0
    0.2014   -1.6684   -1.7127 H   0  0  0  0  0  0  0  0  0  0  0  0
    1.5801    1.8814   -0.4304 H   0  0  0  0  0  0  0  0  0  0  0  0
   -2.4554    1.2174    0.1478 H   0  0  0  0  0  0  0  0  0  0  0  0
   -2.0174   -1.1603   -0.4702 H   0  0  0  0  0  0  0  0  0  0  0  0
   -1.1824   -0.3322    1.9078 H   0  0  0  0  0  0  0  0  0  0  0  0
    1.2638    0.6013    1.6608 H   0  0  0  0  0  0  0  0  0  0  0  0
  1  2  1  0
  2  3  1  0
  3  4  1  0
  4  5  1  0
  5  6  1  0
  6  7  1  0
  7  8  1  0
  8  9  1  0
  9  1  1  0
  7  2  1  0
  9  4  1  0
  8  6  1  0
  1 10  1  0
  1 11  1  0
  2 12  1  0
  4 13  1  0
  6 14  1  0
  7 15  1  0
  8 16  1  0
  9 17  1  0
M  END
