
     RDKit          2D

 19 22  0  0  0  0  0  0  0  0999 V2000
    1.0607    0.0000    0.0000 C   0  0  0  0  0  0  0  0  0  0  0  0
   -0.0000   -1.0607    0.0000 C   0  0  0  0  0  0  0  0  0  0  0  0
   -1.0607    0.0000    0.0000 O   0  0  0  0  0  0  0  0  0  0  0  0
    0.0000    1.0607    0.0000 C   0  0  0  0  0  0  0  0  0  0  0  0
    1.4266    0.5971    0.0000 C   0  0  0  0  0  0  0  0  0  0  0  0
    2.9266    0.5971    0.0000 C   0  0  0  0  0  0  0  0  0  0  0  0
    2.9266   -0.9029    0.0000 C   0  0  0  0  0  0  0  0  0  0  0  0
    2.4316    0.1022    0.0000 C   0  0  0  0  0  0  0  0  0  0  0  0
    1.4266   -0.9029    0.0000 C   0  0  0  0  0  0  0  0  0  0  0  0
    2.1213    1.0607    0.0000 H   0  0  0  0  0  0  0  0  0  0  0  0
    1.7440   -0.4105    0.0000 H   0  0  0  0  0  0  0  0  0  0  0  0
   -0.0000   -2.5607    0.0000 H   0  0  0  0  0  0  0  0  0  0  0  0
    0.0000    2.5607    0.0000 H   0  0  0  0  0  0  0  0  0  0  0  0
    4.4154    0.7800    0.0000 H   0  0  0  0  0  0  0  0  0  0  0  0
    3.1094    2.0859    0.0000 H   0  0  0  0  0  0  0  0  0  0  0  0
    3.9872   -1.9635    0.0000 H   0  0  0  0  0  0  0  0  0  0  0  0
    2.7437    2.0859    0.0000 H   0  0  0  0  0  0  0  0  0  0  0  0
    4.4154    0.4143    0.0000 H   0  0  0  0  0  0  0  0  0  0  0  0
    1.6612   -2.3844    0.0000 H   0  0  0  0  0  0  0  0  0  0  0  0
  1  2  1  0
  2  3  1  0
  3  4  1  0
  4  5  1  0
  5  6  1  0
  6  7  1  0
  7  8  1  0
  7  9  1  0
  4  1  1  0
  8  5  1  0
  9  2  1  0
  9  5  1  0
  1 10  1  0
  1 11  1  0
  2 12  1  0
  4 13  1  0
  6 14  1  0
  6 15  1  0
  7 16  1  0
  8 17  1  0
  8 18  1  0
  9 19  1  0
M  END
