
     RDKit          3D

 20 22  0  0  0  0  0  0  0  0999 V2000
   -1.9085    0.0960   -0.6929 C   0  0  0  0  0  0  0  0  0  0  0  0
   -1.1575   -0.8349    0.2923 C   0  0  0  0  0  0  0  0  0  0  0  0
    0.1011   -1.4231   -0.2726 C   0  0  0  0  0  0  0  0  0  0  0  0
    1.0475   -0.3582   -0.6368 C   0  0  0  0  0  0  0  0  0  0  0  0
    2.2568    0.1099   -0.0703 C   0  0  0  0  0  0  0  0  0  0  0  0
    1.1196    0.4738    0.6832 C   0  0  0  0  0  0  0  0  0  0  0  0
    0.0160    1.4155    0.4807 C   0  0  0  0  0  0  0  0  0  0  0  0
   -1.2577    0.5822    0.5097 C   0  0  0  0  0  0  0  0  0  0  0  0
   -3.0066   -0.0338   -0.6914 H   0  0  0  0  0  0  0  0  0  0  0  0
   -1.4226    0.3006   -1.6626 H   0  0  0  0  0  0  0  0  0  0  0  0
   -1.7824   -1.5437    0.8789 H   0  0  0  0  0  0  0  0  0  0  0  0
   -0.1415   -2.0789   -1.1318 H   0  0  0  0  0  0  0  0  0  0  0  0
    0.5645   -2.0769    0.4954 H   0  0  0  0  0  0  0  0  0  0  0  0
    0.6913    0.1785   -1.5648 H   0  0  0  0  0  0  0  0  0  0  0  0
    2.9758   -0.6410    0.3630 H   0  0  0  0  0  0  0  0  0  0  0  0
    2.8584    0.8715   -0.6416 H   0  0  0  0  0  0  0  0  0  0  0  0
    0.9630   -0.0952    1.6511 H   0  0  0  0  0  0  0  0  0  0  0  0
    0.0084    2.2436    1.2012 H   0  0  0  0  0  0  0  0  0  0  0  0
    0.0143    1.9058   -0.5382 H   0  0  0  0  0  0  0  0  0  0  0  0
   -1.9400    0.9082    1.3476 H   0  0  0  0  0  0  0  0  0  0  0  0
  1  2  1  0
  2  3  1  0
  3  4  1  0
  4  5  1  0
  5  6  1  0
  6  7  1  0
  7  8  1  0
  8  1  1  0
  8  2  1  0
  6  4  1  0
  1  9  1  0
  1 10  1  0
  2 11  1  0
  3 12  1  0
  3 13  1  0
  4 14  1  0
  5 15  1  0
  5 16  1  0
  6 17  1  0
  7 18  1  0
  7 19  1  0
  8 20  1  0
M  END
