
     RDKit          3D

 17 20  0  0  0  0  0  0  0  0999 V2000
   -2.1947    0.3222   -0.0058 C   0  0  0  0  0  0  0  0  0  0  0  0
   -1.0560   -0.0604    0.8271 C   0  0  0  0  0  0  0  0  0  0  0  0
   -0.8954    0.9174   -0.3921 C   0  0  0  0  0  0  0  0  0  0  0  0
    0.1299    0.0752   -1.1432 C   0  0  0  0  0  0  0  0  0  0  0  0
   -0.3134   -1.2720   -1.0744 O   0  0  0  0  0  0  0  0  0  0  0  0
   -0.0622   -1.1131    0.3149 C   0  0  0  0  0  0  0  0  0  0  0  0
    1.0921   -0.3211   -0.0896 C   0  0  0  0  0  0  0  0  0  0  0  0
    2.2023    0.1951    0.4366 C   0  0  0  0  0  0  0  0  0  0  0  0
    2.2446   -1.0111   -0.4157 O   0  0  0  0  0  0  0  0  0  0  0  0
   -2.9464    0.9750    0.4247 H   0  0  0  0  0  0  0  0  0  0  0  0
   -2.5810   -0.4493   -0.7212 H   0  0  0  0  0  0  0  0  0  0  0  0
   -0.8481    0.3812    1.8151 H   0  0  0  0  0  0  0  0  0  0  0  0
   -0.6450    1.9426   -0.1137 H   0  0  0  0  0  0  0  0  0  0  0  0
    0.4607    0.4246   -2.0967 H   0  0  0  0  0  0  0  0  0  0  0  0
    0.0190   -2.0143    0.8887 H   0  0  0  0  0  0  0  0  0  0  0  0
    2.8152    0.9709   -0.1109 H   0  0  0  0  0  0  0  0  0  0  0  0
    2.5785    0.0372    1.4561 H   0  0  0  0  0  0  0  0  0  0  0  0
  1  2  1  0
  2  3  1  0
  3  4  1  0
  4  5  1  0
  5  6  1  0
  6  7  1  0
  7  8  1  0
  8  9  1  0
  3  1  1  0
  7  4  1  0
  6  2  1  0
  9  7  1  0
  1 10  1  0
  1 11  1  0
  2 12  1  0
  3 13  1  0
  4 14  1  0
  6 15  1  0
  8 16  1  0
  8 17  1  0
M  END
