
     RDKit          3D

 21 24  0  0  0  0  0  0  0  0999 V2000
   -0.0222   -0.8367    1.3155 C   0  0  0  0  0  0  0  0  0  0  0  0
    0.3655   -1.1777   -0.1347 C   0  0  0  0  0  0  0  0  0  0  0  0
    1.7160   -0.4680   -0.3080 C   0  0  0  0  0  0  0  0  0  0  0  0
    1.2470    0.9648   -0.4766 C   0  0  0  0  0  0  0  0  0  0  0  0
    0.0527    1.3942    0.2835 C   0  0  0  0  0  0  0  0  0  0  0  0
   -0.8051    0.4558    1.0488 C   0  0  0  0  0  0  0  0  0  0  0  0
   -1.7337   -0.1309   -0.0271 C   0  0  0  0  0  0  0  0  0  0  0  0
   -0.6033   -0.4604   -1.0167 C   0  0  0  0  0  0  0  0  0  0  0  0
   -0.0124    0.9021   -1.2010 C   0  0  0  0  0  0  0  0  0  0  0  0
   -0.7532   -1.5770    1.7032 H   0  0  0  0  0  0  0  0  0  0  0  0
    0.8471   -0.6774    1.9456 H   0  0  0  0  0  0  0  0  0  0  0  0
    0.4405   -2.2484   -0.3000 H   0  0  0  0  0  0  0  0  0  0  0  0
    2.2851   -0.5086    0.6477 H   0  0  0  0  0  0  0  0  0  0  0  0
    2.2863   -0.8489   -1.1452 H   0  0  0  0  0  0  0  0  0  0  0  0
    1.9848    1.7056   -0.7711 H   0  0  0  0  0  0  0  0  0  0  0  0
   -0.0542    2.4962    0.4130 H   0  0  0  0  0  0  0  0  0  0  0  0
   -1.3229    0.8347    1.9042 H   0  0  0  0  0  0  0  0  0  0  0  0
   -2.4295    0.5948   -0.4210 H   0  0  0  0  0  0  0  0  0  0  0  0
   -2.1567   -1.0684    0.3411 H   0  0  0  0  0  0  0  0  0  0  0  0
   -0.9348   -0.9693   -1.8959 H   0  0  0  0  0  0  0  0  0  0  0  0
   -0.3972    1.6234   -1.9052 H   0  0  0  0  0  0  0  0  0  0  0  0
  1  2  1  0
  2  3  1  0
  3  4  1  0
  4  5  1  0
  5  6  1  0
  6  7  1  0
  7  8  1  0
  8  9  1  0
  6  1  1  0
  8  2  1  0
  9  4  1  0
  9  5  1  0
  1 10  1  0
  1 11  1  0
  2 12  1  0
  3 13  1  0
  3 14  1  0
  4 15  1  0
  5 16  1  0
  6 17  1  0
  7 18  1  0
  7 19  1  0
  8 20  1  0
  9 21  1  0
M  END
