
     RDKit          3D

 18 20  0  0  0  0  0  0  0  0999 V2000
   -0.5411   -1.3273   -0.2779 C   0  0  0  0  0  0  0  0  0  0  0  0
   -0.2861   -0.0871   -1.1338 C   0  0  0  0  0  0  0  0  0  0  0  0
   -1.5028    0.4470   -0.3452 C   0  0  0  0  0  0  0  0  0  0  0  0
   -0.7856   -0.2794    0.8156 C   0  0  0  0  0  0  0  0  0  0  0  0
    0.4565    0.4623    1.1786 C   0  0  0  0  0  0  0  0  0  0  0  0
    1.6849    0.0324    0.4317 C   0  0  0  0  0  0  0  0  0  0  0  0
    0.8861    0.7096   -0.6582 C   0  0  0  0  0  0  0  0  0  0  0  0
    0.5316    1.6275    0.3685 O   0  0  0  0  0  0  0  0  0  0  0  0
   -1.4746   -1.7944   -0.5918 H   0  0  0  0  0  0  0  0  0  0  0  0
    0.2518   -2.0223   -0.1377 H   0  0  0  0  0  0  0  0  0  0  0  0
   -0.4448   -0.1995   -2.1950 H   0  0  0  0  0  0  0  0  0  0  0  0
   -1.5169    1.5357   -0.2462 H   0  0  0  0  0  0  0  0  0  0  0  0
   -2.3968   -0.0605   -0.7048 H   0  0  0  0  0  0  0  0  0  0  0  0
   -1.4481   -0.5934    1.6184 H   0  0  0  0  0  0  0  0  0  0  0  0
    0.6544    0.6329    2.2379 H   0  0  0  0  0  0  0  0  0  0  0  0
    1.9359   -0.9996    0.3409 H   0  0  0  0  0  0  0  0  0  0  0  0
    2.5418    0.6598    0.7113 H   0  0  0  0  0  0  0  0  0  0  0  0
    1.4540    1.2564   -1.4123 H   0  0  0  0  0  0  0  0  0  0  0  0
  1  2  1  0
  2  3  1  0
  3  4  1  0
  4  5  1  0
  5  6  1  0
  6  7  1  0
  7  8  1  0
  4  1  1  0
  8  5  1  0
  7  2  1  0
  1  9  1  0
  1 10  1  0
  2 11  1  0
  3 12  1  0
  3 13  1  0
  4 14  1  0
  5 15  1  0
  6 16  1  0
  6 17  1  0
  7 18  1  0
M  END
