
     RDKit          3D

 17 20  0  0  0  0  0  0  0  0999 V2000
    2.0659   -0.8185   -0.0281 C   0  0  0  0  0  0  0  0  0  0  0  0
    1.2193   -0.0510    0.8162 C   0  0  0  0  0  0  0  0  0  0  0  0
    0.0095   -0.1677    1.4082 O   0  0  0  0  0  0  0  0  0  0  0  0
   -0.8449    0.5229    0.5106 C   0  0  0  0  0  0  0  0  0  0  0  0
   -2.0233   -0.3454    0.0403 C   0  0  0  0  0  0  0  0  0  0  0  0
   -1.5357   -0.4112   -1.2597 O   0  0  0  0  0  0  0  0  0  0  0  0
   -0.2640    0.1170   -0.8879 C   0  0  0  0  0  0  0  0  0  0  0  0
   -0.4209    1.5269   -0.4313 C   0  0  0  0  0  0  0  0  0  0  0  0
    0.7156   -0.8437   -0.4545 C   0  0  0  0  0  0  0  0  0  0  0  0
    2.7871   -0.3391   -0.7535 H   0  0  0  0  0  0  0  0  0  0  0  0
    2.5904   -1.6791    0.4459 H   0  0  0  0  0  0  0  0  0  0  0  0
    1.4346    1.0248    0.7326 H   0  0  0  0  0  0  0  0  0  0  0  0
   -2.9552    0.2712    0.1413 H   0  0  0  0  0  0  0  0  0  0  0  0
   -2.1276   -1.2959    0.5643 H   0  0  0  0  0  0  0  0  0  0  0  0
   -1.2987    2.0993   -0.8796 H   0  0  0  0  0  0  0  0  0  0  0  0
    0.3977    2.2447   -0.4159 H   0  0  0  0  0  0  0  0  0  0  0  0
    0.2503   -1.8552   -0.1868 H   0  0  0  0  0  0  0  0  0  0  0  0
  1  2  1  0
  2  3  1  0
  3  4  1  0
  4  5  1  0
  5  6  1  0
  6  7  1  0
  7  8  1  0
  7  9  1  0
  9  1  1  0
  9  2  1  0
  7  4  1  0
  8  4  1  0
  1 10  1  0
  1 11  1  0
  2 12  1  0
  5 13  1  0
  5 14  1  0
  8 15  1  0
  8 16  1  0
  9 17  1  0
M  END
