
     RDKit          3D

 17 20  0  0  0  0  0  0  0  0999 V2000
   -1.4891    0.3699   -0.3321 C   0  0  0  0  0  0  0  0  0  0  0  0
   -1.1906   -0.4597    0.9267 C   0  0  0  0  0  0  0  0  0  0  0  0
   -0.5932   -1.5784    0.3352 O   0  0  0  0  0  0  0  0  0  0  0  0
    0.3626   -1.0654   -0.5229 C   0  0  0  0  0  0  0  0  0  0  0  0
   -0.1296    0.2788   -0.9996 C   0  0  0  0  0  0  0  0  0  0  0  0
    0.9293    0.9224   -0.1457 C   0  0  0  0  0  0  0  0  0  0  0  0
    0.8682    0.5426    1.2560 C   0  0  0  0  0  0  0  0  0  0  0  0
   -0.3633    0.2230    1.7717 O   0  0  0  0  0  0  0  0  0  0  0  0
    1.4323   -0.4280    0.3274 C   0  0  0  0  0  0  0  0  0  0  0  0
   -2.2070   -0.2263   -0.9125 H   0  0  0  0  0  0  0  0  0  0  0  0
   -1.7971    1.3842   -0.0961 H   0  0  0  0  0  0  0  0  0  0  0  0
   -2.1158   -0.7071    1.4450 H   0  0  0  0  0  0  0  0  0  0  0  0
    0.7338   -1.7322   -1.3007 H   0  0  0  0  0  0  0  0  0  0  0  0
   -0.0951    0.4709   -2.0649 H   0  0  0  0  0  0  0  0  0  0  0  0
    1.6503    1.6210   -0.5550 H   0  0  0  0  0  0  0  0  0  0  0  0
    1.5280    1.0860    1.9595 H   0  0  0  0  0  0  0  0  0  0  0  0
    2.4763   -0.7017    0.2359 H   0  0  0  0  0  0  0  0  0  0  0  0
  1  2  1  0
  2  3  1  0
  3  4  1  0
  4  5  1  0
  5  6  1  0
  6  7  1  0
  7  8  1  0
  7  9  1  0
  5  1  1  0
  9  6  1  0
  8  2  1  0
  9  4  1  0
  1 10  1  0
  1 11  1  0
  2 12  1  0
  4 13  1  0
  5 14  1  0
  6 15  1  0
  7 16  1  0
  9 17  1  0
M  END
