
     RDKit          2D

 19 22  0  0  0  0  0  0  0  0999 V2000
   -2.1213   -1.0607    0.0000 C   0  0  0  0  0  0  0  0  0  0  0  0
   -1.0607    0.0000    0.0000 C   0  0  0  0  0  0  0  0  0  0  0  0
   -0.0000   -1.0607    0.0000 C   0  0  0  0  0  0  0  0  0  0  0  0
    0.3607    0.0000    0.0000 O   0  0  0  0  0  0  0  0  0  0  0  0
    0.0000    1.0607    0.0000 C   0  0  0  0  0  0  0  0  0  0  0  0
    0.4527   -0.3694    0.0000 C   0  0  0  0  0  0  0  0  0  0  0  0
    1.6135    0.5806    0.0000 C   0  0  0  0  0  0  0  0  0  0  0  0
    1.8558   -0.8997    0.0000 C   0  0  0  0  0  0  0  0  0  0  0  0
   -1.0607   -2.1213    0.0000 C   0  0  0  0  0  0  0  0  0  0  0  0
   -3.1820   -2.1213    0.0000 H   0  0  0  0  0  0  0  0  0  0  0  0
   -3.1820    0.0000    0.0000 H   0  0  0  0  0  0  0  0  0  0  0  0
   -2.1213    1.0607    0.0000 H   0  0  0  0  0  0  0  0  0  0  0  0
    0.9235   -2.2427    0.0000 H   0  0  0  0  0  0  0  0  0  0  0  0
    0.0000    2.5607    0.0000 H   0  0  0  0  0  0  0  0  0  0  0  0
    0.8795    1.8888    0.0000 H   0  0  0  0  0  0  0  0  0  0  0  0
    3.0292    1.0763    0.0000 H   0  0  0  0  0  0  0  0  0  0  0  0
    3.3557   -0.9181    0.0000 H   0  0  0  0  0  0  0  0  0  0  0  0
    1.7590   -2.3966    0.0000 H   0  0  0  0  0  0  0  0  0  0  0  0
   -1.0607   -3.6213    0.0000 H   0  0  0  0  0  0  0  0  0  0  0  0
  1  2  1  0
  2  3  1  0
  3  4  1  0
  4  5  1  0
  5  6  1  0
  6  7  1  0
  7  8  1  0
  6  9  1  0
  9  1  1  0
  5  2  1  0
  8  6  1  0
  9  3  1  0
  1 10  1  0
  1 11  1  0
  2 12  1  0
  3 13  1  0
  5 14  1  0
  7 15  1  0
  7 16  1  0
  8 17  1  0
  8 18  1  0
  9 19  1  0
M  END
