
     RDKit          3D

 21 24  0  0  0  0  0  0  0  0999 V2000
    2.3258    0.0447   -0.7172 C   0  0  0  0  0  0  0  0  0  0  0  0
    1.6174   -0.3949    0.4988 C   0  0  0  0  0  0  0  0  0  0  0  0
    1.4101    1.0307   -0.1278 C   0  0  0  0  0  0  0  0  0  0  0  0
   -0.0690    0.9429   -0.3807 C   0  0  0  0  0  0  0  0  0  0  0  0
   -0.5648    0.3858    0.9589 C   0  0  0  0  0  0  0  0  0  0  0  0
   -1.9935    0.0825    0.6620 C   0  0  0  0  0  0  0  0  0  0  0  0
   -1.8159   -0.6673   -0.6733 C   0  0  0  0  0  0  0  0  0  0  0  0
   -0.3368   -0.4447   -0.8635 C   0  0  0  0  0  0  0  0  0  0  0  0
    0.2069   -0.8456    0.5130 C   0  0  0  0  0  0  0  0  0  0  0  0
    3.4211    0.2583   -0.5575 H   0  0  0  0  0  0  0  0  0  0  0  0
    2.1314   -0.3528   -1.7184 H   0  0  0  0  0  0  0  0  0  0  0  0
    2.1379   -0.4187    1.4654 H   0  0  0  0  0  0  0  0  0  0  0  0
    1.7795    1.8523    0.5182 H   0  0  0  0  0  0  0  0  0  0  0  0
   -0.5910    1.7733   -0.7894 H   0  0  0  0  0  0  0  0  0  0  0  0
   -0.2712    0.8856    1.8431 H   0  0  0  0  0  0  0  0  0  0  0  0
   -2.5045   -0.5360    1.4061 H   0  0  0  0  0  0  0  0  0  0  0  0
   -2.5500    1.0177    0.4009 H   0  0  0  0  0  0  0  0  0  0  0  0
   -2.4396   -0.2508   -1.4605 H   0  0  0  0  0  0  0  0  0  0  0  0
   -1.9638   -1.7362   -0.4626 H   0  0  0  0  0  0  0  0  0  0  0  0
    0.1507   -0.8337   -1.7197 H   0  0  0  0  0  0  0  0  0  0  0  0
   -0.0808   -1.7932    0.8977 H   0  0  0  0  0  0  0  0  0  0  0  0
  1  2  1  0
  2  3  1  0
  3  4  1  0
  4  5  1  0
  5  6  1  0
  6  7  1  0
  7  8  1  0
  8  9  1  0
  3  1  1  0
  8  4  1  0
  9  2  1  0
  9  5  1  0
  1 10  1  0
  1 11  1  0
  2 12  1  0
  3 13  1  0
  4 14  1  0
  5 15  1  0
  6 16  1  0
  6 17  1  0
  7 18  1  0
  7 19  1  0
  8 20  1  0
  9 21  1  0
M  END
