
     RDKit          3D

 15 17  0  0  0  0  0  0  0  0999 V2000
    1.1527   -0.0110   -0.6648 C   0  0  0  0  0  0  0  0  0  0  0  0
    0.8248   -0.4466    0.7713 C   0  0  0  0  0  0  0  0  0  0  0  0
   -0.4999   -1.1265    0.5219 C   0  0  0  0  0  0  0  0  0  0  0  0
   -1.2209    0.0537   -0.1489 C   0  0  0  0  0  0  0  0  0  0  0  0
   -0.1760    0.7113   -0.9341 C   0  0  0  0  0  0  0  0  0  0  0  0
   -0.5306    1.2141    0.4034 C   0  0  0  0  0  0  0  0  0  0  0  0
    0.4403    0.7483    1.3229 O   0  0  0  0  0  0  0  0  0  0  0  0
    1.9904    0.6766   -0.6004 H   0  0  0  0  0  0  0  0  0  0  0  0
    1.2843   -0.8794   -1.3028 H   0  0  0  0  0  0  0  0  0  0  0  0
    1.5774   -1.0163    1.2489 H   0  0  0  0  0  0  0  0  0  0  0  0
   -0.3352   -1.8950   -0.2529 H   0  0  0  0  0  0  0  0  0  0  0  0
   -1.0067   -1.4649    1.4184 H   0  0  0  0  0  0  0  0  0  0  0  0
   -2.2574   -0.0243   -0.4139 H   0  0  0  0  0  0  0  0  0  0  0  0
   -0.3213    1.2434   -1.8606 H   0  0  0  0  0  0  0  0  0  0  0  0
   -0.9220    2.2166    0.4916 H   0  0  0  0  0  0  0  0  0  0  0  0
  1  2  1  0
  2  3  1  0
  3  4  1  0
  4  5  1  0
  5  6  1  0
  6  7  1  0
  5  1  1  0
  7  2  1  0
  6  4  1  0
  1  8  1  0
  1  9  1  0
  2 10  1  0
  3 11  1  0
  3 12  1  0
  4 13  1  0
  5 14  1  0
  6 15  1  0
M  END
