
     RDKit          3D

 17 20  0  0  0  0  0  0  0  0999 V2000
    2.2578   -0.2017    0.0049 C   0  0  0  0  0  0  0  0  0  0  0  0
    1.2011    0.8131   -0.0156 C   0  0  0  0  0  0  0  0  0  0  0  0
    0.9321   -0.6156   -0.5064 C   0  0  0  0  0  0  0  0  0  0  0  0
   -0.1399   -0.8211    0.5201 C   0  0  0  0  0  0  0  0  0  0  0  0
   -1.5805   -1.0413    0.0435 C   0  0  0  0  0  0  0  0  0  0  0  0
   -2.2256    0.1008    0.5070 O   0  0  0  0  0  0  0  0  0  0  0  0
   -1.3605    1.1089    0.0774 C   0  0  0  0  0  0  0  0  0  0  0  0
   -0.0664    0.6952    0.7625 C   0  0  0  0  0  0  0  0  0  0  0  0
   -0.0788   -0.2388    1.7573 O   0  0  0  0  0  0  0  0  0  0  0  0
    3.0900   -0.0820   -0.6846 H   0  0  0  0  0  0  0  0  0  0  0  0
    2.5455   -0.6665    0.9814 H   0  0  0  0  0  0  0  0  0  0  0  0
    1.2630    1.6236   -0.7346 H   0  0  0  0  0  0  0  0  0  0  0  0
    0.6829   -0.6434   -1.5763 H   0  0  0  0  0  0  0  0  0  0  0  0
   -1.6059   -1.1654   -1.0371 H   0  0  0  0  0  0  0  0  0  0  0  0
   -1.9622   -1.9373    0.6074 H   0  0  0  0  0  0  0  0  0  0  0  0
   -1.2666    0.9589   -1.0382 H   0  0  0  0  0  0  0  0  0  0  0  0
   -1.6860    2.1125    0.3315 H   0  0  0  0  0  0  0  0  0  0  0  0
  1  2  1  0
  2  3  1  0
  3  4  1  0
  4  5  1  0
  5  6  1  0
  6  7  1  0
  7  8  1  0
  8  9  1  0
  3  1  1  0
  8  4  1  0
  8  2  1  0
  9  4  1  0
  1 10  1  0
  1 11  1  0
  2 12  1  0
  3 13  1  0
  5 14  1  0
  5 15  1  0
  7 16  1  0
  7 17  1  0
M  END
