
     RDKit          2D

 19 21  0  0  0  0  0  0  0  0999 V2000
   -1.0607   -2.1213    0.0000 C   0  0  0  0  0  0  0  0  0  0  0  0
   -2.1213   -1.0607    0.0000 C   0  0  0  0  0  0  0  0  0  0  0  0
   -1.0607    0.0000    0.0000 C   0  0  0  0  0  0  0  0  0  0  0  0
   -0.3797    1.3365    0.0000 C   0  0  0  0  0  0  0  0  0  0  0  0
    1.1019    1.1019    0.0000 O   0  0  0  0  0  0  0  0  0  0  0  0
    1.3365   -0.3797    0.0000 C   0  0  0  0  0  0  0  0  0  0  0  0
   -0.0000   -1.0607    0.0000 C   0  0  0  0  0  0  0  0  0  0  0  0
   -0.0441   -1.0165    0.0000 C   0  0  0  0  0  0  0  0  0  0  0  0
   -1.0165   -0.0441    0.0000 O   0  0  0  0  0  0  0  0  0  0  0  0
   -0.0000   -3.1820    0.0000 H   0  0  0  0  0  0  0  0  0  0  0  0
   -2.1213   -3.1820    0.0000 H   0  0  0  0  0  0  0  0  0  0  0  0
   -3.1820   -2.1213    0.0000 H   0  0  0  0  0  0  0  0  0  0  0  0
   -3.1820    0.0000    0.0000 H   0  0  0  0  0  0  0  0  0  0  0  0
   -1.7800    1.8741    0.0000 H   0  0  0  0  0  0  0  0  0  0  0  0
    0.0086    2.7854    0.0000 H   0  0  0  0  0  0  0  0  0  0  0  0
    2.7854    0.0086    0.0000 H   0  0  0  0  0  0  0  0  0  0  0  0
    1.6994   -1.8351    0.0000 H   0  0  0  0  0  0  0  0  0  0  0  0
    2.1213    1.0607    0.0000 H   0  0  0  0  0  0  0  0  0  0  0  0
    2.2427   -0.9235    0.0000 H   0  0  0  0  0  0  0  0  0  0  0  0
  1  2  1  0
  2  3  1  0
  3  4  1  0
  4  5  1  0
  5  6  1  0
  6  7  1  0
  7  8  1  0
  8  9  1  0
  7  1  1  0
  7  3  1  0
  9  3  1  0
  1 10  1  0
  1 11  1  0
  2 12  1  0
  2 13  1  0
  4 14  1  0
  4 15  1  0
  6 16  1  0
  6 17  1  0
  8 18  1  0
  8 19  1  0
M  END
