
     RDKit          3D

 21 24  0  0  0  0  0  0  0  0999 V2000
    2.3413    0.6431   -0.3642 C   0  0  0  0  0  0  0  0  0  0  0  0
    2.0090   -0.8269   -0.6452 C   0  0  0  0  0  0  0  0  0  0  0  0
    1.1671    0.0062    0.2948 C   0  0  0  0  0  0  0  0  0  0  0  0
   -0.1951    0.4268   -0.1617 C   0  0  0  0  0  0  0  0  0  0  0  0
   -0.6615    1.8163   -0.0700 C   0  0  0  0  0  0  0  0  0  0  0  0
   -1.1498    0.8408    0.9330 C   0  0  0  0  0  0  0  0  0  0  0  0
   -2.0244   -0.3084    0.5689 C   0  0  0  0  0  0  0  0  0  0  0  0
   -1.5176   -1.6690    0.3430 C   0  0  0  0  0  0  0  0  0  0  0  0
   -1.1731   -0.6075   -0.6412 C   0  0  0  0  0  0  0  0  0  0  0  0
    3.2375    0.7974    0.2549 H   0  0  0  0  0  0  0  0  0  0  0  0
    2.1907    1.2830   -1.2457 H   0  0  0  0  0  0  0  0  0  0  0  0
    1.5742   -1.0976   -1.6129 H   0  0  0  0  0  0  0  0  0  0  0  0
    2.6995   -1.5825   -0.2262 H   0  0  0  0  0  0  0  0  0  0  0  0
    1.2974   -0.2889    1.3694 H   0  0  0  0  0  0  0  0  0  0  0  0
    0.0137    2.5939    0.2981 H   0  0  0  0  0  0  0  0  0  0  0  0
   -1.3221    2.1558   -0.9096 H   0  0  0  0  0  0  0  0  0  0  0  0
   -0.7902    0.9312    1.9731 H   0  0  0  0  0  0  0  0  0  0  0  0
   -3.1080   -0.1127    0.4491 H   0  0  0  0  0  0  0  0  0  0  0  0
   -0.6547   -2.0808    0.9408 H   0  0  0  0  0  0  0  0  0  0  0  0
   -2.2398   -2.4289    0.0470 H   0  0  0  0  0  0  0  0  0  0  0  0
   -1.6941   -0.4912   -1.5954 H   0  0  0  0  0  0  0  0  0  0  0  0
  1  2  1  0
  2  3  1  0
  3  4  1  0
  4  5  1  0
  5  6  1  0
  6  7  1  0
  7  8  1  0
  8  9  1  0
  3  1  1  0
  6  4  1  0
  9  7  1  0
  9  4  1  0
  1 10  1  0
  1 11  1  0
  2 12  1  0
  2 13  1  0
  3 14  1  0
  5 15  1  0
  5 16  1  0
  6 17  1  0
  7 18  1  0
  8 19  1  0
  8 20  1  0
  9 21  1  0
M  END
