
     RDKit          3D

 21 22  0  0  0  0  0  0  0  0999 V2000
    1.9019   -0.1260   -0.4977 C   0  0  0  0  0  0  0  0  0  0  0  0
    0.7257   -1.0868   -0.6058 C   0  0  0  0  0  0  0  0  0  0  0  0
   -0.2212   -0.9060    0.5393 C   0  0  0  0  0  0  0  0  0  0  0  0
   -1.6164   -0.5197    0.1051 C   0  0  0  0  0  0  0  0  0  0  0  0
   -1.5209    0.6517   -0.8206 C   0  0  0  0  0  0  0  0  0  0  0  0
   -0.7583    1.6823   -0.3954 O   0  0  0  0  0  0  0  0  0  0  0  0
    0.3740    1.4247    0.2915 C   0  0  0  0  0  0  0  0  0  0  0  0
    0.2609    0.3230    1.3220 C   0  0  0  0  0  0  0  0  0  0  0  0
    1.5027    1.1910   -0.5017 O   0  0  0  0  0  0  0  0  0  0  0  0
    2.5516   -0.3948    0.3553 H   0  0  0  0  0  0  0  0  0  0  0  0
    2.5284   -0.3050   -1.4147 H   0  0  0  0  0  0  0  0  0  0  0  0
    1.1650   -2.1140   -0.5368 H   0  0  0  0  0  0  0  0  0  0  0  0
    0.2857   -0.9953   -1.5944 H   0  0  0  0  0  0  0  0  0  0  0  0
   -0.2693   -1.7909    1.1725 H   0  0  0  0  0  0  0  0  0  0  0  0
   -2.1515   -0.1570    1.0291 H   0  0  0  0  0  0  0  0  0  0  0  0
   -2.1888   -1.3243   -0.3394 H   0  0  0  0  0  0  0  0  0  0  0  0
   -2.5782    1.0385   -0.9391 H   0  0  0  0  0  0  0  0  0  0  0  0
   -1.2729    0.2929   -1.8639 H   0  0  0  0  0  0  0  0  0  0  0  0
    0.6330    2.3522    0.8858 H   0  0  0  0  0  0  0  0  0  0  0  0
   -0.5682    0.6074    2.0005 H   0  0  0  0  0  0  0  0  0  0  0  0
    1.2169    0.1561    1.8083 H   0  0  0  0  0  0  0  0  0  0  0  0
  1  2  1  0
  2  3  1  0
  3  4  1  0
  4  5  1  0
  5  6  1  0
  6  7  1  0
  7  8  1  0
  7  9  1  0
  9  1  1  0
  8  3  1  0
  1 10  1  0
  1 11  1  0
  2 12  1  0
  2 13  1  0
  3 14  1  0
  4 15  1  0
  4 16  1  0
  5 17  1  0
  5 18  1  0
  7 19  1  0
  8 20  1  0
  8 21  1  0
M  END
