
     RDKit          3D

 18 19  0  0  0  0  0  0  0  0999 V2000
   -2.4522   -0.0064   -0.1085 C   0  0  0  0  0  0  0  0  0  0  0  0
   -1.2623   -0.8302   -0.5614 C   0  0  0  0  0  0  0  0  0  0  0  0
   -0.5717    0.2558    0.2520 C   0  0  0  0  0  0  0  0  0  0  0  0
    0.7827    0.5522   -0.2827 C   0  0  0  0  0  0  0  0  0  0  0  0
    1.6670   -0.6992   -0.2438 C   0  0  0  0  0  0  0  0  0  0  0  0
    2.7377    0.1535    0.0181 O   0  0  0  0  0  0  0  0  0  0  0  0
    1.8308    0.9800    0.6935 C   0  0  0  0  0  0  0  0  0  0  0  0
   -1.5971    1.1171   -0.1550 O   0  0  0  0  0  0  0  0  0  0  0  0
   -2.7002   -0.2096    0.9438 H   0  0  0  0  0  0  0  0  0  0  0  0
   -3.3011    0.0253   -0.7901 H   0  0  0  0  0  0  0  0  0  0  0  0
   -1.0249   -0.7440   -1.6293 H   0  0  0  0  0  0  0  0  0  0  0  0
   -1.1941   -1.8437   -0.1223 H   0  0  0  0  0  0  0  0  0  0  0  0
   -0.5887    0.0867    1.3424 H   0  0  0  0  0  0  0  0  0  0  0  0
    0.8076    1.0867   -1.2429 H   0  0  0  0  0  0  0  0  0  0  0  0
    1.6881   -1.2455   -1.1809 H   0  0  0  0  0  0  0  0  0  0  0  0
    1.4113   -1.2835    0.6697 H   0  0  0  0  0  0  0  0  0  0  0  0
    1.6520    0.5544    1.7117 H   0  0  0  0  0  0  0  0  0  0  0  0
    2.1150    2.0503    0.6858 H   0  0  0  0  0  0  0  0  0  0  0  0
  1  2  1  0
  2  3  1  0
  3  4  1  0
  4  5  1  0
  5  6  1  0
  6  7  1  0
  3  8  1  0
  8  1  1  0
  7  4  1  0
  1  9  1  0
  1 10  1  0
  2 11  1  0
  2 12  1  0
  3 13  1  0
  4 14  1  0
  5 15  1  0
  5 16  1  0
  7 17  1  0
  7 18  1  0
M  END
