
     RDKit          3D

 19 20  0  0  0  0  0  0  0  0999 V2000
   -1.4897    0.5570    0.0788 C   0  0  0  0  0  0  0  0  0  0  0  0
   -1.3078   -0.8573   -0.3253 C   0  0  0  0  0  0  0  0  0  0  0  0
    0.0562   -1.4555    0.0635 C   0  0  0  0  0  0  0  0  0  0  0  0
    1.0524   -0.5001   -0.4265 C   0  0  0  0  0  0  0  0  0  0  0  0
    2.1069    0.2258    0.1651 C   0  0  0  0  0  0  0  0  0  0  0  0
    0.8405    0.6953    0.5676 C   0  0  0  0  0  0  0  0  0  0  0  0
   -0.2396    1.4358   -0.0913 C   0  0  0  0  0  0  0  0  0  0  0  0
   -1.6778    0.5674    1.1934 H   0  0  0  0  0  0  0  0  0  0  0  0
   -2.3480    0.9710   -0.4367 H   0  0  0  0  0  0  0  0  0  0  0  0
   -2.1149   -1.4536    0.0962 H   0  0  0  0  0  0  0  0  0  0  0  0
   -1.3004   -0.8860   -1.4553 H   0  0  0  0  0  0  0  0  0  0  0  0
    0.0839   -2.4670   -0.3460 H   0  0  0  0  0  0  0  0  0  0  0  0
    0.0198   -1.5131    1.1851 H   0  0  0  0  0  0  0  0  0  0  0  0
    0.8611   -0.2764   -1.5216 H   0  0  0  0  0  0  0  0  0  0  0  0
    2.7625   -0.2957    0.9164 H   0  0  0  0  0  0  0  0  0  0  0  0
    2.7523    0.8814   -0.4710 H   0  0  0  0  0  0  0  0  0  0  0  0
    0.5271    0.4246    1.6218 H   0  0  0  0  0  0  0  0  0  0  0  0
   -0.4669    2.4018    0.3786 H   0  0  0  0  0  0  0  0  0  0  0  0
   -0.1176    1.5446   -1.1929 H   0  0  0  0  0  0  0  0  0  0  0  0
  1  2  1  0
  2  3  1  0
  3  4  1  0
  4  5  1  0
  5  6  1  0
  6  7  1  0
  7  1  1  0
  6  4  1  0
  1  8  1  0
  1  9  1  0
  2 10  1  0
  2 11  1  0
  3 12  1  0
  3 13  1  0
  4 14  1  0
  5 15  1  0
  5 16  1  0
  6 17  1  0
  7 18  1  0
  7 19  1  0
M  END
