
     RDKit          3D

 23 25  0  0  0  0  0  0  0  0999 V2000
   -1.2441    1.3821    0.3092 C   0  0  0  0  0  0  0  0  0  0  0  0
   -2.0050    0.1065   -0.0823 C   0  0  0  0  0  0  0  0  0  0  0  0
   -1.0504   -0.7028   -0.8444 C   0  0  0  0  0  0  0  0  0  0  0  0
   -0.5295   -2.0071   -0.7179 C   0  0  0  0  0  0  0  0  0  0  0  0
   -0.0404   -1.1404    0.2772 C   0  0  0  0  0  0  0  0  0  0  0  0
    0.8858   -0.0042    0.2928 C   0  0  0  0  0  0  0  0  0  0  0  0
    0.0941    1.1703    0.8861 C   0  0  0  0  0  0  0  0  0  0  0  0
    2.3174   -0.1140    0.5531 C   0  0  0  0  0  0  0  0  0  0  0  0
    1.8265    0.3361   -0.7869 C   0  0  0  0  0  0  0  0  0  0  0  0
   -1.1245    1.9750   -0.6445 H   0  0  0  0  0  0  0  0  0  0  0  0
   -1.8372    2.0012    0.9819 H   0  0  0  0  0  0  0  0  0  0  0  0
   -2.8420    0.4256   -0.7279 H   0  0  0  0  0  0  0  0  0  0  0  0
   -2.4519   -0.3731    0.8071 H   0  0  0  0  0  0  0  0  0  0  0  0
   -0.6146   -0.0833   -1.6878 H   0  0  0  0  0  0  0  0  0  0  0  0
    0.1661   -2.4016   -1.4942 H   0  0  0  0  0  0  0  0  0  0  0  0
   -1.2366   -2.8366   -0.4218 H   0  0  0  0  0  0  0  0  0  0  0  0
   -0.4794   -1.2798    1.3137 H   0  0  0  0  0  0  0  0  0  0  0  0
    0.6965    2.0747    0.7576 H   0  0  0  0  0  0  0  0  0  0  0  0
   -0.0115    0.9052    1.9790 H   0  0  0  0  0  0  0  0  0  0  0  0
    2.8036    0.5830    1.2524 H   0  0  0  0  0  0  0  0  0  0  0  0
    2.7103   -1.1673    0.6660 H   0  0  0  0  0  0  0  0  0  0  0  0
    1.9557   -0.2747   -1.6873 H   0  0  0  0  0  0  0  0  0  0  0  0
    2.0111    1.4253   -0.9811 H   0  0  0  0  0  0  0  0  0  0  0  0
  1  2  1  0
  2  3  1  0
  3  4  1  0
  4  5  1  0
  5  6  1  0
  6  7  1  0
  6  8  1  0
  8  9  1  0
  7  1  1  0
  5  3  1  0
  9  6  1  0
  1 10  1  0
  1 11  1  0
  2 12  1  0
  2 13  1  0
  3 14  1  0
  4 15  1  0
  4 16  1  0
  5 17  1  0
  7 18  1  0
  7 19  1  0
  8 20  1  0
  8 21  1  0
  9 22  1  0
  9 23  1  0
M  END
