
     RDKit          3D

 20 22  0  0  0  0  0  0  0  0999 V2000
   -1.2924    0.8116    0.3849 C   0  0  0  0  0  0  0  0  0  0  0  0
   -0.2264    1.4719   -0.4533 C   0  0  0  0  0  0  0  0  0  0  0  0
    0.9743    0.6031   -0.6629 C   0  0  0  0  0  0  0  0  0  0  0  0
    1.4989    0.0872    0.6461 C   0  0  0  0  0  0  0  0  0  0  0  0
    0.8625   -1.2326    0.4158 C   0  0  0  0  0  0  0  0  0  0  0  0
   -0.4013   -1.4297   -0.3053 C   0  0  0  0  0  0  0  0  0  0  0  0
   -1.5850   -0.5413   -0.1647 C   0  0  0  0  0  0  0  0  0  0  0  0
    0.6736   -0.7930   -1.0645 C   0  0  0  0  0  0  0  0  0  0  0  0
   -1.0690    0.8291    1.4547 H   0  0  0  0  0  0  0  0  0  0  0  0
   -2.2271    1.4298    0.2528 H   0  0  0  0  0  0  0  0  0  0  0  0
    0.1259    2.3600    0.1493 H   0  0  0  0  0  0  0  0  0  0  0  0
   -0.6271    1.9003   -1.3944 H   0  0  0  0  0  0  0  0  0  0  0  0
    1.6939    1.0777   -1.3312 H   0  0  0  0  0  0  0  0  0  0  0  0
    2.6274    0.0709    0.5986 H   0  0  0  0  0  0  0  0  0  0  0  0
    1.1768    0.6899    1.4941 H   0  0  0  0  0  0  0  0  0  0  0  0
    1.5196   -2.1069    0.5896 H   0  0  0  0  0  0  0  0  0  0  0  0
   -0.6444   -2.4787   -0.5768 H   0  0  0  0  0  0  0  0  0  0  0  0
   -2.0408   -0.3901   -1.1867 H   0  0  0  0  0  0  0  0  0  0  0  0
   -2.3814   -1.0582    0.4247 H   0  0  0  0  0  0  0  0  0  0  0  0
    1.3419   -1.3011   -1.7559 H   0  0  0  0  0  0  0  0  0  0  0  0
  1  2  1  0
  2  3  1  0
  3  4  1  0
  4  5  1  0
  5  6  1  0
  6  7  1  0
  6  8  1  0
  7  1  1  0
  8  3  1  0
  8  5  1  0
  1  9  1  0
  1 10  1  0
  2 11  1  0
  2 12  1  0
  3 13  1  0
  4 14  1  0
  4 15  1  0
  5 16  1  0
  6 17  1  0
  7 18  1  0
  7 19  1  0
  8 20  1  0
M  END
