
     RDKit          3D

 20 21  0  0  0  0  0  0  0  0999 V2000
   -1.8503    0.3745   -0.5953 C   0  0  0  0  0  0  0  0  0  0  0  0
   -1.6047    0.5785    0.8947 C   0  0  0  0  0  0  0  0  0  0  0  0
   -0.1379    0.2679    1.1202 C   0  0  0  0  0  0  0  0  0  0  0  0
    0.3829   -0.1529   -0.2136 C   0  0  0  0  0  0  0  0  0  0  0  0
   -0.8208   -0.7252   -0.8925 C   0  0  0  0  0  0  0  0  0  0  0  0
    1.6234   -0.9617   -0.2030 C   0  0  0  0  0  0  0  0  0  0  0  0
    2.2175    0.4436   -0.2987 C   0  0  0  0  0  0  0  0  0  0  0  0
    1.0260    0.8087   -0.9659 O   0  0  0  0  0  0  0  0  0  0  0  0
   -1.5222    1.2831   -1.1316 H   0  0  0  0  0  0  0  0  0  0  0  0
   -2.8686    0.0592   -0.8230 H   0  0  0  0  0  0  0  0  0  0  0  0
   -1.8313    1.6275    1.1972 H   0  0  0  0  0  0  0  0  0  0  0  0
   -2.2666   -0.1491    1.4198 H   0  0  0  0  0  0  0  0  0  0  0  0
   -0.0385   -0.5479    1.8737 H   0  0  0  0  0  0  0  0  0  0  0  0
    0.4315    1.1416    1.4865 H   0  0  0  0  0  0  0  0  0  0  0  0
   -0.7147   -0.8778   -1.9709 H   0  0  0  0  0  0  0  0  0  0  0  0
   -1.2011   -1.6233   -0.3478 H   0  0  0  0  0  0  0  0  0  0  0  0
    1.8470   -1.5527   -1.0925 H   0  0  0  0  0  0  0  0  0  0  0  0
    1.8681   -1.4743    0.7652 H   0  0  0  0  0  0  0  0  0  0  0  0
    3.1139    0.5340   -0.9096 H   0  0  0  0  0  0  0  0  0  0  0  0
    2.3462    0.9465    0.6871 H   0  0  0  0  0  0  0  0  0  0  0  0
  1  2  1  0
  2  3  1  0
  3  4  1  0
  4  5  1  0
  4  6  1  0
  6  7  1  0
  7  8  1  0
  5  1  1  0
  8  4  1  0
  1  9  1  0
  1 10  1  0
  2 11  1  0
  2 12  1  0
  3 13  1  0
  3 14  1  0
  5 15  1  0
  5 16  1  0
  6 17  1  0
  6 18  1  0
  7 19  1  0
  7 20  1  0
M  END
