
     RDKit          3D

 14 15  0  0  0  0  0  0  0  0999 V2000
   -1.4364    0.4336    0.2079 C   0  0  0  0  0  0  0  0  0  0  0  0
   -0.7262   -0.7046   -0.5578 C   0  0  0  0  0  0  0  0  0  0  0  0
    0.5269   -0.7053    0.2286 C   0  0  0  0  0  0  0  0  0  0  0  0
    1.7531   -0.0323    0.1442 C   0  0  0  0  0  0  0  0  0  0  0  0
    0.6713    0.8670    0.0813 C   0  0  0  0  0  0  0  0  0  0  0  0
   -0.3948    1.1406    0.8659 O   0  0  0  0  0  0  0  0  0  0  0  0
   -2.0476   -0.0682    0.9855 H   0  0  0  0  0  0  0  0  0  0  0  0
   -2.0127    1.0707   -0.4564 H   0  0  0  0  0  0  0  0  0  0  0  0
   -1.2826   -1.6402   -0.4939 H   0  0  0  0  0  0  0  0  0  0  0  0
   -0.6068   -0.4185   -1.6252 H   0  0  0  0  0  0  0  0  0  0  0  0
    0.2546   -1.0560    1.2783 H   0  0  0  0  0  0  0  0  0  0  0  0
    2.4289    0.0391    1.0478 H   0  0  0  0  0  0  0  0  0  0  0  0
    2.4027   -0.2058   -0.7512 H   0  0  0  0  0  0  0  0  0  0  0  0
    0.4696    1.2798   -0.9550 H   0  0  0  0  0  0  0  0  0  0  0  0
  1  2  1  0
  2  3  1  0
  3  4  1  0
  4  5  1  0
  5  6  1  0
  6  1  1  0
  5  3  1  0
  1  7  1  0
  1  8  1  0
  2  9  1  0
  2 10  1  0
  3 11  1  0
  4 12  1  0
  4 13  1  0
  5 14  1  0
M  END
