
     RDKit          3D

 21 23  0  0  0  0  0  0  0  0999 V2000
    0.8415   -1.4162    0.1148 C   0  0  0  0  0  0  0  0  0  0  0  0
   -0.6657   -1.3261    0.3161 C   0  0  0  0  0  0  0  0  0  0  0  0
   -1.2692   -0.0158    0.4511 C   0  0  0  0  0  0  0  0  0  0  0  0
   -1.8493    0.5369   -0.8342 C   0  0  0  0  0  0  0  0  0  0  0  0
   -0.8327    1.4509   -0.9641 O   0  0  0  0  0  0  0  0  0  0  0  0
   -0.4461    1.2206    0.3460 C   0  0  0  0  0  0  0  0  0  0  0  0
    0.9602    0.8754    0.5918 C   0  0  0  0  0  0  0  0  0  0  0  0
    2.1233    0.8787   -0.2096 C   0  0  0  0  0  0  0  0  0  0  0  0
    1.2348   -0.1673   -0.5409 C   0  0  0  0  0  0  0  0  0  0  0  0
    1.2618   -1.5143    1.1595 H   0  0  0  0  0  0  0  0  0  0  0  0
    1.0862   -2.3421   -0.4225 H   0  0  0  0  0  0  0  0  0  0  0  0
   -1.0967   -1.8378   -0.5957 H   0  0  0  0  0  0  0  0  0  0  0  0
   -0.9619   -2.0097    1.1601 H   0  0  0  0  0  0  0  0  0  0  0  0
   -1.9983    0.0353    1.3121 H   0  0  0  0  0  0  0  0  0  0  0  0
   -1.8460   -0.1759   -1.6854 H   0  0  0  0  0  0  0  0  0  0  0  0
   -2.8684    0.9506   -0.6954 H   0  0  0  0  0  0  0  0  0  0  0  0
   -0.7977    2.0270    1.0249 H   0  0  0  0  0  0  0  0  0  0  0  0
    1.0929    0.5185    1.6575 H   0  0  0  0  0  0  0  0  0  0  0  0
    3.1083    0.6275    0.2548 H   0  0  0  0  0  0  0  0  0  0  0  0
    2.2716    1.7199   -0.9383 H   0  0  0  0  0  0  0  0  0  0  0  0
    0.6514   -0.0363   -1.5029 H   0  0  0  0  0  0  0  0  0  0  0  0
  1  2  1  0
  2  3  1  0
  3  4  1  0
  4  5  1  0
  5  6  1  0
  6  7  1  0
  7  8  1  0
  8  9  1  0
  9  1  1  0
  6  3  1  0
  9  7  1  0
  1 10  1  0
  1 11  1  0
  2 12  1  0
  2 13  1  0
  3 14  1  0
  4 15  1  0
  4 16  1  0
  6 17  1  0
  7 18  1  0
  8 19  1  0
  8 20  1  0
  9 21  1  0
M  END
