
     RDKit          3D

 23 24  0  0  0  0  0  0  0  0999 V2000
   -2.1823    0.0479    0.2762 C   0  0  0  0  0  0  0  0  0  0  0  0
   -1.1737   -1.0744    0.4888 C   0  0  0  0  0  0  0  0  0  0  0  0
   -0.2842   -1.2955   -0.6758 C   0  0  0  0  0  0  0  0  0  0  0  0
    0.9484   -0.4817   -0.7167 C   0  0  0  0  0  0  0  0  0  0  0  0
    1.9290   -0.6144    0.3940 C   0  0  0  0  0  0  0  0  0  0  0  0
    2.1535    0.9002    0.2967 C   0  0  0  0  0  0  0  0  0  0  0  0
    0.7716    0.9638   -0.3639 C   0  0  0  0  0  0  0  0  0  0  0  0
   -0.1784    1.2010    0.6022 O   0  0  0  0  0  0  0  0  0  0  0  0
   -1.4452    1.3620    0.0618 C   0  0  0  0  0  0  0  0  0  0  0  0
   -2.7253    0.1517    1.2416 H   0  0  0  0  0  0  0  0  0  0  0  0
   -2.9139   -0.1703   -0.4977 H   0  0  0  0  0  0  0  0  0  0  0  0
   -1.7988   -2.0037    0.6190 H   0  0  0  0  0  0  0  0  0  0  0  0
   -0.6477   -0.9210    1.4385 H   0  0  0  0  0  0  0  0  0  0  0  0
    0.0111   -2.3763   -0.6828 H   0  0  0  0  0  0  0  0  0  0  0  0
   -0.8586   -1.1248   -1.6040 H   0  0  0  0  0  0  0  0  0  0  0  0
    1.4452   -0.5712   -1.7168 H   0  0  0  0  0  0  0  0  0  0  0  0
    2.8719   -1.1526    0.1764 H   0  0  0  0  0  0  0  0  0  0  0  0
    1.5379   -0.9036    1.3838 H   0  0  0  0  0  0  0  0  0  0  0  0
    2.9546    1.2042   -0.3775 H   0  0  0  0  0  0  0  0  0  0  0  0
    2.2204    1.3720    1.2754 H   0  0  0  0  0  0  0  0  0  0  0  0
    0.7251    1.6123   -1.2567 H   0  0  0  0  0  0  0  0  0  0  0  0
   -1.4318    1.6753   -0.9904 H   0  0  0  0  0  0  0  0  0  0  0  0
   -1.9288    2.1990    0.6278 H   0  0  0  0  0  0  0  0  0  0  0  0
  1  2  1  0
  2  3  1  0
  3  4  1  0
  4  5  1  0
  5  6  1  0
  6  7  1  0
  7  8  1  0
  8  9  1  0
  9  1  1  0
  7  4  1  0
  1 10  1  0
  1 11  1  0
  2 12  1  0
  2 13  1  0
  3 14  1  0
  3 15  1  0
  4 16  1  0
  5 17  1  0
  5 18  1  0
  6 19  1  0
  6 20  1  0
  7 21  1  0
  9 22  1  0
  9 23  1  0
M  END
