
     RDKit          3D

 22 23  0  0  0  0  0  0  0  0999 V2000
   -1.5503   -0.0273   -0.6517 C   0  0  0  0  0  0  0  0  0  0  0  0
   -1.1208    1.1826    0.0604 C   0  0  0  0  0  0  0  0  0  0  0  0
    0.3051    1.5672    0.0455 C   0  0  0  0  0  0  0  0  0  0  0  0
    1.2697    0.5654    0.5415 C   0  0  0  0  0  0  0  0  0  0  0  0
    0.6337   -0.5294    1.3405 C   0  0  0  0  0  0  0  0  0  0  0  0
    0.5153   -1.3008    0.0720 C   0  0  0  0  0  0  0  0  0  0  0  0
   -0.8515   -1.2892   -0.4946 C   0  0  0  0  0  0  0  0  0  0  0  0
    1.5028   -0.4168   -0.6188 C   0  0  0  0  0  0  0  0  0  0  0  0
   -1.6035    0.2191   -1.7579 H   0  0  0  0  0  0  0  0  0  0  0  0
   -2.6409   -0.1681   -0.3965 H   0  0  0  0  0  0  0  0  0  0  0  0
   -1.4747    1.2070    1.1151 H   0  0  0  0  0  0  0  0  0  0  0  0
   -1.6645    2.0609   -0.4070 H   0  0  0  0  0  0  0  0  0  0  0  0
    0.4155    2.4809    0.6689 H   0  0  0  0  0  0  0  0  0  0  0  0
    0.6243    1.8891   -0.9880 H   0  0  0  0  0  0  0  0  0  0  0  0
    2.1938    0.9172    1.0114 H   0  0  0  0  0  0  0  0  0  0  0  0
   -0.3315   -0.3376    1.7989 H   0  0  0  0  0  0  0  0  0  0  0  0
    1.3148   -1.0178    2.0604 H   0  0  0  0  0  0  0  0  0  0  0  0
    0.9072   -2.3269    0.1577 H   0  0  0  0  0  0  0  0  0  0  0  0
   -1.4516   -2.0039    0.1485 H   0  0  0  0  0  0  0  0  0  0  0  0
   -0.7667   -1.8547   -1.4728 H   0  0  0  0  0  0  0  0  0  0  0  0
    1.2195   -0.0225   -1.6052 H   0  0  0  0  0  0  0  0  0  0  0  0
    2.5542   -0.7944   -0.6284 H   0  0  0  0  0  0  0  0  0  0  0  0
  1  2  1  0
  2  3  1  0
  3  4  1  0
  4  5  1  0
  5  6  1  0
  6  7  1  0
  6  8  1  0
  7  1  1  0
  8  4  1  0
  1  9  1  0
  1 10  1  0
  2 11  1  0
  2 12  1  0
  3 13  1  0
  3 14  1  0
  4 15  1  0
  5 16  1  0
  5 17  1  0
  6 18  1  0
  7 19  1  0
  7 20  1  0
  8 21  1  0
  8 22  1  0
M  END
