
     RDKit          3D

 18 19  0  0  0  0  0  0  0  0999 V2000
   -1.4604    0.6595   -0.1940 C   0  0  0  0  0  0  0  0  0  0  0  0
   -1.3014   -0.7937    0.1732 C   0  0  0  0  0  0  0  0  0  0  0  0
    0.0301   -1.2955   -0.3461 C   0  0  0  0  0  0  0  0  0  0  0  0
    1.0827   -0.8676    0.6502 C   0  0  0  0  0  0  0  0  0  0  0  0
    1.2493    0.2037   -0.3653 C   0  0  0  0  0  0  0  0  0  0  0  0
    0.6732    1.5317    0.0283 C   0  0  0  0  0  0  0  0  0  0  0  0
   -0.6111    1.4981    0.4720 O   0  0  0  0  0  0  0  0  0  0  0  0
    0.5426   -0.4608   -1.3294 O   0  0  0  0  0  0  0  0  0  0  0  0
   -1.4516    0.7893   -1.3048 H   0  0  0  0  0  0  0  0  0  0  0  0
   -2.5109    0.9408    0.1140 H   0  0  0  0  0  0  0  0  0  0  0  0
   -2.1086   -1.3706   -0.2791 H   0  0  0  0  0  0  0  0  0  0  0  0
   -1.3038   -0.8842    1.2710 H   0  0  0  0  0  0  0  0  0  0  0  0
    0.0619   -2.3351   -0.6771 H   0  0  0  0  0  0  0  0  0  0  0  0
    1.9070   -1.6013    0.7471 H   0  0  0  0  0  0  0  0  0  0  0  0
    0.6925   -0.5041    1.6123 H   0  0  0  0  0  0  0  0  0  0  0  0
    2.3353    0.3334   -0.6120 H   0  0  0  0  0  0  0  0  0  0  0  0
    1.3161    1.9252    0.8619 H   0  0  0  0  0  0  0  0  0  0  0  0
    0.8572    2.2312   -0.8222 H   0  0  0  0  0  0  0  0  0  0  0  0
  1  2  1  0
  2  3  1  0
  3  4  1  0
  4  5  1  0
  5  6  1  0
  6  7  1  0
  5  8  1  0
  7  1  1  0
  8  3  1  0
  1  9  1  0
  1 10  1  0
  2 11  1  0
  2 12  1  0
  3 13  1  0
  4 14  1  0
  4 15  1  0
  5 16  1  0
  6 17  1  0
  6 18  1  0
M  END
