
     RDKit          3D

 19 21  0  0  0  0  0  0  0  0999 V2000
   -1.6495   -0.5581   -0.2039 C   0  0  0  0  0  0  0  0  0  0  0  0
   -1.6235    0.8629    0.3749 C   0  0  0  0  0  0  0  0  0  0  0  0
   -0.2145    1.3612    0.1583 C   0  0  0  0  0  0  0  0  0  0  0  0
    0.5726    0.7340    1.1590 O   0  0  0  0  0  0  0  0  0  0  0  0
    1.6891    0.4373    0.4306 C   0  0  0  0  0  0  0  0  0  0  0  0
    2.1194   -0.6974   -0.2801 C   0  0  0  0  0  0  0  0  0  0  0  0
    0.8242   -0.3180   -0.6654 C   0  0  0  0  0  0  0  0  0  0  0  0
   -0.3047   -1.2070   -0.1158 C   0  0  0  0  0  0  0  0  0  0  0  0
    0.2205    0.8069   -1.0739 O   0  0  0  0  0  0  0  0  0  0  0  0
   -2.3558   -1.1932    0.3565 H   0  0  0  0  0  0  0  0  0  0  0  0
   -1.9032   -0.4563   -1.2806 H   0  0  0  0  0  0  0  0  0  0  0  0
   -1.8403    0.7694    1.4781 H   0  0  0  0  0  0  0  0  0  0  0  0
   -2.3953    1.5007   -0.0505 H   0  0  0  0  0  0  0  0  0  0  0  0
   -0.1180    2.4425    0.1821 H   0  0  0  0  0  0  0  0  0  0  0  0
    2.1395    1.4227    0.0862 H   0  0  0  0  0  0  0  0  0  0  0  0
    2.9497   -0.6014   -1.0341 H   0  0  0  0  0  0  0  0  0  0  0  0
    2.2840   -1.6526    0.2935 H   0  0  0  0  0  0  0  0  0  0  0  0
   -0.3377   -2.1305   -0.7302 H   0  0  0  0  0  0  0  0  0  0  0  0
   -0.0565   -1.5231    0.9154 H   0  0  0  0  0  0  0  0  0  0  0  0
  1  2  1  0
  2  3  1  0
  3  4  1  0
  4  5  1  0
  5  6  1  0
  6  7  1  0
  7  8  1  0
  7  9  1  0
  8  1  1  0
  9  3  1  0
  7  5  1  0
  1 10  1  0
  1 11  1  0
  2 12  1  0
  2 13  1  0
  3 14  1  0
  5 15  1  0
  6 16  1  0
  6 17  1  0
  8 18  1  0
  8 19  1  0
M  END
