
     RDKit          3D

 21 23  0  0  0  0  0  0  0  0999 V2000
    2.3432   -0.3892   -0.3174 C   0  0  0  0  0  0  0  0  0  0  0  0
    0.9984   -1.1355   -0.3303 C   0  0  0  0  0  0  0  0  0  0  0  0
    0.0923    0.0125   -0.0404 C   0  0  0  0  0  0  0  0  0  0  0  0
    0.9411    1.1553    0.4100 C   0  0  0  0  0  0  0  0  0  0  0  0
    2.1697    0.5811    0.6941 O   0  0  0  0  0  0  0  0  0  0  0  0
   -0.9561    0.3230   -1.0783 C   0  0  0  0  0  0  0  0  0  0  0  0
   -1.6756    1.0267    0.0356 C   0  0  0  0  0  0  0  0  0  0  0  0
   -1.1733   -0.2490    0.6751 C   0  0  0  0  0  0  0  0  0  0  0  0
   -1.6475   -0.9174   -0.5989 C   0  0  0  0  0  0  0  0  0  0  0  0
    2.3858    0.1833   -1.2651 H   0  0  0  0  0  0  0  0  0  0  0  0
    3.1802   -1.0497   -0.1344 H   0  0  0  0  0  0  0  0  0  0  0  0
    0.9942   -1.9309    0.4295 H   0  0  0  0  0  0  0  0  0  0  0  0
    0.8201   -1.5631   -1.3481 H   0  0  0  0  0  0  0  0  0  0  0  0
    0.9859    1.8893   -0.4266 H   0  0  0  0  0  0  0  0  0  0  0  0
    0.5609    1.6224    1.3552 H   0  0  0  0  0  0  0  0  0  0  0  0
   -0.8117    0.6335   -2.0145 H   0  0  0  0  0  0  0  0  0  0  0  0
   -2.7552    1.1253   -0.0770 H   0  0  0  0  0  0  0  0  0  0  0  0
   -1.1999    1.9535    0.3774 H   0  0  0  0  0  0  0  0  0  0  0  0
   -1.3469   -0.5568    1.6075 H   0  0  0  0  0  0  0  0  0  0  0  0
   -2.7357   -0.8391   -0.7186 H   0  0  0  0  0  0  0  0  0  0  0  0
   -1.1699   -1.8750   -0.7941 H   0  0  0  0  0  0  0  0  0  0  0  0
  1  2  1  0
  2  3  1  0
  3  4  1  0
  4  5  1  0
  3  6  1  0
  6  7  1  0
  7  8  1  0
  8  9  1  0
  5  1  1  0
  9  6  1  0
  8  3  1  0
  1 10  1  0
  1 11  1  0
  2 12  1  0
  2 13  1  0
  4 14  1  0
  4 15  1  0
  6 16  1  0
  7 17  1  0
  7 18  1  0
  8 19  1  0
  9 20  1  0
  9 21  1  0
M  END
