
     RDKit          3D

 23 25  0  0  0  0  0  0  0  0999 V2000
   -1.7521    0.7089    0.6998 C   0  0  0  0  0  0  0  0  0  0  0  0
   -1.8304    0.1583   -0.7208 C   0  0  0  0  0  0  0  0  0  0  0  0
   -0.6232   -0.7506   -0.8831 C   0  0  0  0  0  0  0  0  0  0  0  0
   -0.4856   -1.2221    0.5718 C   0  0  0  0  0  0  0  0  0  0  0  0
   -0.3876    0.1954    1.1576 C   0  0  0  0  0  0  0  0  0  0  0  0
    0.6350    0.8620    0.2992 C   0  0  0  0  0  0  0  0  0  0  0  0
    2.0585    0.4418    0.4788 C   0  0  0  0  0  0  0  0  0  0  0  0
    1.9095   -0.4620   -0.7301 C   0  0  0  0  0  0  0  0  0  0  0  0
    0.5800    0.1075   -1.0376 C   0  0  0  0  0  0  0  0  0  0  0  0
   -1.7085    1.7945    0.7383 H   0  0  0  0  0  0  0  0  0  0  0  0
   -2.5056    0.2652    1.3634 H   0  0  0  0  0  0  0  0  0  0  0  0
   -2.7254   -0.5064   -0.7816 H   0  0  0  0  0  0  0  0  0  0  0  0
   -1.8464    0.9712   -1.4508 H   0  0  0  0  0  0  0  0  0  0  0  0
   -0.7535   -1.5511   -1.5835 H   0  0  0  0  0  0  0  0  0  0  0  0
   -1.4408   -1.6324    0.9066 H   0  0  0  0  0  0  0  0  0  0  0  0
    0.3949   -1.8138    0.7454 H   0  0  0  0  0  0  0  0  0  0  0  0
   -0.2348    0.2180    2.2141 H   0  0  0  0  0  0  0  0  0  0  0  0
    0.4681    1.9547    0.1135 H   0  0  0  0  0  0  0  0  0  0  0  0
    2.1888   -0.0819    1.4459 H   0  0  0  0  0  0  0  0  0  0  0  0
    2.7526    1.3051    0.3304 H   0  0  0  0  0  0  0  0  0  0  0  0
    2.7333   -0.2082   -1.4612 H   0  0  0  0  0  0  0  0  0  0  0  0
    1.9863   -1.5330   -0.4995 H   0  0  0  0  0  0  0  0  0  0  0  0
    0.5868    0.7789   -1.9168 H   0  0  0  0  0  0  0  0  0  0  0  0
  1  2  1  0
  2  3  1  0
  3  4  1  0
  4  5  1  0
  5  6  1  0
  6  7  1  0
  7  8  1  0
  8  9  1  0
  5  1  1  0
  9  6  1  0
  9  3  1  0
  1 10  1  0
  1 11  1  0
  2 12  1  0
  2 13  1  0
  3 14  1  0
  4 15  1  0
  4 16  1  0
  5 17  1  0
  6 18  1  0
  7 19  1  0
  7 20  1  0
  8 21  1  0
  8 22  1  0
  9 23  1  0
M  END
