
     RDKit          3D

 15 17  0  0  0  0  0  0  0  0999 V2000
    1.3372   -0.7297   -0.7337 C   0  0  0  0  0  0  0  0  0  0  0  0
    1.3493    0.7454   -0.2813 C   0  0  0  0  0  0  0  0  0  0  0  0
    0.1859   -0.1375   -0.1432 C   0  0  0  0  0  0  0  0  0  0  0  0
   -0.4299   -0.4431    1.1704 C   0  0  0  0  0  0  0  0  0  0  0  0
   -1.7398    0.1189    0.6157 C   0  0  0  0  0  0  0  0  0  0  0  0
   -2.2457   -0.5388   -0.4720 O   0  0  0  0  0  0  0  0  0  0  0  0
   -1.1090    0.1846   -0.7665 C   0  0  0  0  0  0  0  0  0  0  0  0
    1.9963   -1.4316   -0.1544 H   0  0  0  0  0  0  0  0  0  0  0  0
    1.3842   -0.9319   -1.8179 H   0  0  0  0  0  0  0  0  0  0  0  0
    2.0113    0.9350    0.6087 H   0  0  0  0  0  0  0  0  0  0  0  0
    1.2799    1.5210   -1.0616 H   0  0  0  0  0  0  0  0  0  0  0  0
   -0.5901   -1.5127    1.4096 H   0  0  0  0  0  0  0  0  0  0  0  0
    0.0315    0.1721    1.9643 H   0  0  0  0  0  0  0  0  0  0  0  0
   -2.1936    0.9905    1.0642 H   0  0  0  0  0  0  0  0  0  0  0  0
   -1.2674    1.0576   -1.4024 H   0  0  0  0  0  0  0  0  0  0  0  0
  1  2  1  0
  2  3  1  0
  3  4  1  0
  4  5  1  0
  5  6  1  0
  6  7  1  0
  3  1  1  0
  7  5  1  0
  7  3  1  0
  1  8  1  0
  1  9  1  0
  2 10  1  0
  2 11  1  0
  4 12  1  0
  4 13  1  0
  5 14  1  0
  7 15  1  0
M  END
