
     RDKit          3D

 23 24  0  0  0  0  0  0  0  0999 V2000
   -2.0450   -0.2142    0.0755 C   0  0  0  0  0  0  0  0  0  0  0  0
   -1.0818   -1.1999    0.7505 C   0  0  0  0  0  0  0  0  0  0  0  0
    0.1388   -1.2734   -0.0980 C   0  0  0  0  0  0  0  0  0  0  0  0
    0.8762    0.0292   -0.2326 C   0  0  0  0  0  0  0  0  0  0  0  0
    2.4054   -0.1431   -0.4133 C   0  0  0  0  0  0  0  0  0  0  0  0
    1.8544    0.4560    0.8180 C   0  0  0  0  0  0  0  0  0  0  0  0
    0.2502    0.9969   -1.1538 C   0  0  0  0  0  0  0  0  0  0  0  0
   -0.8025    1.7051   -0.7038 O   0  0  0  0  0  0  0  0  0  0  0  0
   -1.5737    1.1815    0.2778 C   0  0  0  0  0  0  0  0  0  0  0  0
   -3.0059   -0.3511    0.6398 H   0  0  0  0  0  0  0  0  0  0  0  0
   -2.2067   -0.5028   -0.9670 H   0  0  0  0  0  0  0  0  0  0  0  0
   -0.9164   -0.8827    1.7834 H   0  0  0  0  0  0  0  0  0  0  0  0
   -1.5734   -2.1714    0.7589 H   0  0  0  0  0  0  0  0  0  0  0  0
   -0.1471   -1.6861   -1.0837 H   0  0  0  0  0  0  0  0  0  0  0  0
    0.8354   -2.0165    0.3875 H   0  0  0  0  0  0  0  0  0  0  0  0
    2.9024    0.5519   -1.1216 H   0  0  0  0  0  0  0  0  0  0  0  0
    2.8004   -1.1640   -0.4605 H   0  0  0  0  0  0  0  0  0  0  0  0
    1.9217   -0.1346    1.7590 H   0  0  0  0  0  0  0  0  0  0  0  0
    1.9450    1.5398    0.9518 H   0  0  0  0  0  0  0  0  0  0  0  0
    1.0346    1.7291   -1.5118 H   0  0  0  0  0  0  0  0  0  0  0  0
   -0.0409    0.4477   -2.0964 H   0  0  0  0  0  0  0  0  0  0  0  0
   -1.0779    1.2689    1.2746 H   0  0  0  0  0  0  0  0  0  0  0  0
   -2.4934    1.8336    0.3657 H   0  0  0  0  0  0  0  0  0  0  0  0
  1  2  1  0
  2  3  1  0
  3  4  1  0
  4  5  1  0
  5  6  1  0
  4  7  1  0
  7  8  1  0
  8  9  1  0
  9  1  1  0
  6  4  1  0
  1 10  1  0
  1 11  1  0
  2 12  1  0
  2 13  1  0
  3 14  1  0
  3 15  1  0
  5 16  1  0
  5 17  1  0
  6 18  1  0
  6 19  1  0
  7 20  1  0
  7 21  1  0
  9 22  1  0
  9 23  1  0
M  END
