
     RDKit          3D

 17 18  0  0  0  0  0  0  0  0999 V2000
    1.3250   -0.7222   -0.5485 C   0  0  0  0  0  0  0  0  0  0  0  0
    1.3008    0.6936   -0.0535 C   0  0  0  0  0  0  0  0  0  0  0  0
   -0.0731    0.8617   -0.6328 C   0  0  0  0  0  0  0  0  0  0  0  0
   -1.1294    0.9949    0.4329 C   0  0  0  0  0  0  0  0  0  0  0  0
   -1.9854   -0.0528    0.1824 O   0  0  0  0  0  0  0  0  0  0  0  0
   -1.1381   -1.1462   -0.0382 C   0  0  0  0  0  0  0  0  0  0  0  0
   -0.1043   -0.6034   -0.9809 C   0  0  0  0  0  0  0  0  0  0  0  0
    2.0388   -0.7959   -1.4130 H   0  0  0  0  0  0  0  0  0  0  0  0
    1.5617   -1.5050    0.1877 H   0  0  0  0  0  0  0  0  0  0  0  0
    1.3231    0.7985    1.0427 H   0  0  0  0  0  0  0  0  0  0  0  0
    2.0037    1.3978   -0.5113 H   0  0  0  0  0  0  0  0  0  0  0  0
   -0.1743    1.4997   -1.5122 H   0  0  0  0  0  0  0  0  0  0  0  0
   -1.5729    1.9837    0.3696 H   0  0  0  0  0  0  0  0  0  0  0  0
   -0.6580    0.9094    1.4532 H   0  0  0  0  0  0  0  0  0  0  0  0
   -0.7069   -1.5421    0.8989 H   0  0  0  0  0  0  0  0  0  0  0  0
   -1.7501   -1.9134   -0.5660 H   0  0  0  0  0  0  0  0  0  0  0  0
   -0.2607   -0.8581   -2.0349 H   0  0  0  0  0  0  0  0  0  0  0  0
  1  2  1  0
  2  3  1  0
  3  4  1  0
  4  5  1  0
  5  6  1  0
  6  7  1  0
  7  1  1  0
  7  3  1  0
  1  8  1  0
  1  9  1  0
  2 10  1  0
  2 11  1  0
  3 12  1  0
  4 13  1  0
  4 14  1  0
  6 15  1  0
  6 16  1  0
  7 17  1  0
M  END
