
     RDKit          3D

 19 21  0  0  0  0  0  0  0  0999 V2000
    2.1648    0.1546   -0.1920 C   0  0  0  0  0  0  0  0  0  0  0  0
    1.2668   -0.8102   -0.9003 C   0  0  0  0  0  0  0  0  0  0  0  0
   -0.0934   -0.6180   -0.3753 C   0  0  0  0  0  0  0  0  0  0  0  0
   -0.0804    0.3185    0.6057 C   0  0  0  0  0  0  0  0  0  0  0  0
    1.2733    0.8415    0.8318 C   0  0  0  0  0  0  0  0  0  0  0  0
   -1.5035    0.3541    0.9832 C   0  0  0  0  0  0  0  0  0  0  0  0
   -2.2329    0.3816   -0.3395 C   0  0  0  0  0  0  0  0  0  0  0  0
   -1.5375   -0.9528   -0.3842 C   0  0  0  0  0  0  0  0  0  0  0  0
   -1.8022   -1.0282    1.0041 O   0  0  0  0  0  0  0  0  0  0  0  0
    2.6235    0.9007   -0.8876 H   0  0  0  0  0  0  0  0  0  0  0  0
    3.0183   -0.3452    0.3099 H   0  0  0  0  0  0  0  0  0  0  0  0
    1.6323   -1.8678   -0.8019 H   0  0  0  0  0  0  0  0  0  0  0  0
    1.2489   -0.5247   -1.9927 H   0  0  0  0  0  0  0  0  0  0  0  0
    1.6580    0.5861    1.8478 H   0  0  0  0  0  0  0  0  0  0  0  0
    1.3337    1.9585    0.7398 H   0  0  0  0  0  0  0  0  0  0  0  0
   -1.8426    0.9500    1.7834 H   0  0  0  0  0  0  0  0  0  0  0  0
   -1.9039    1.1309   -1.0585 H   0  0  0  0  0  0  0  0  0  0  0  0
   -3.3207    0.2951   -0.1711 H   0  0  0  0  0  0  0  0  0  0  0  0
   -1.9025   -1.7249   -1.0027 H   0  0  0  0  0  0  0  0  0  0  0  0
  1  2  1  0
  2  3  1  0
  3  4  2  0
  4  5  1  0
  4  6  1  0
  6  7  1  0
  7  8  1  0
  8  9  1  0
  5  1  1  0
  9  6  1  0
  8  3  1  0
  1 10  1  0
  1 11  1  0
  2 12  1  0
  2 13  1  0
  5 14  1  0
  5 15  1  0
  6 16  1  0
  7 17  1  0
  7 18  1  0
  8 19  1  0
M  END
