
     RDKit          3D

 19 21  0  0  0  0  0  0  0  0999 V2000
   -1.8198    0.6097   -0.1501 C   0  0  0  0  0  0  0  0  0  0  0  0
   -1.6504   -0.5246    0.8026 C   0  0  0  0  0  0  0  0  0  0  0  0
   -0.5679   -0.0806   -0.2217 C   0  0  0  0  0  0  0  0  0  0  0  0
   -0.1588   -1.1115   -1.2071 C   0  0  0  0  0  0  0  0  0  0  0  0
    0.8774   -1.7655   -0.5426 O   0  0  0  0  0  0  0  0  0  0  0  0
    1.6026   -0.8416    0.1461 C   0  0  0  0  0  0  0  0  0  0  0  0
    0.7368    0.3984    0.3193 C   0  0  0  0  0  0  0  0  0  0  0  0
    1.2976    1.6672    0.1789 C   0  0  0  0  0  0  0  0  0  0  0  0
    0.8192    1.1338    1.4748 O   0  0  0  0  0  0  0  0  0  0  0  0
   -1.8458    1.6281    0.3115 H   0  0  0  0  0  0  0  0  0  0  0  0
   -2.5975    0.4764   -0.9138 H   0  0  0  0  0  0  0  0  0  0  0  0
   -1.3635   -0.3190    1.8718 H   0  0  0  0  0  0  0  0  0  0  0  0
   -2.1256   -1.5113    0.6044 H   0  0  0  0  0  0  0  0  0  0  0  0
    0.2589   -0.6212   -2.1117 H   0  0  0  0  0  0  0  0  0  0  0  0
   -1.0124   -1.7639   -1.4276 H   0  0  0  0  0  0  0  0  0  0  0  0
    1.8790   -1.1874    1.1813 H   0  0  0  0  0  0  0  0  0  0  0  0
    2.5468   -0.5626   -0.3368 H   0  0  0  0  0  0  0  0  0  0  0  0
    0.7192    2.5571   -0.1530 H   0  0  0  0  0  0  0  0  0  0  0  0
    2.4041    1.8183    0.1737 H   0  0  0  0  0  0  0  0  0  0  0  0
  1  2  1  0
  2  3  1  0
  3  4  1  0
  4  5  1  0
  5  6  1  0
  6  7  1  0
  7  8  1  0
  8  9  1  0
  3  1  1  0
  9  7  1  0
  7  3  1  0
  1 10  1  0
  1 11  1  0
  2 12  1  0
  2 13  1  0
  4 14  1  0
  4 15  1  0
  6 16  1  0
  6 17  1  0
  8 18  1  0
  8 19  1  0
M  END
