
     RDKit          3D

 21 23  0  0  0  0  0  0  0  0999 V2000
   -0.8391   -1.3291   -0.0489 C   0  0  0  0  0  0  0  0  0  0  0  0
    0.4393   -1.0514   -0.8035 C   0  0  0  0  0  0  0  0  0  0  0  0
    1.0320    0.2150   -0.2284 C   0  0  0  0  0  0  0  0  0  0  0  0
    2.4708    0.4018   -0.0535 C   0  0  0  0  0  0  0  0  0  0  0  0
    1.5561    0.2316    1.1588 C   0  0  0  0  0  0  0  0  0  0  0  0
    0.1844    1.2571   -0.5595 O   0  0  0  0  0  0  0  0  0  0  0  0
   -0.9762    1.1753    0.1470 C   0  0  0  0  0  0  0  0  0  0  0  0
   -2.1941    0.8026   -0.6981 C   0  0  0  0  0  0  0  0  0  0  0  0
   -1.6051   -0.1114    0.3170 C   0  0  0  0  0  0  0  0  0  0  0  0
   -1.4823   -2.0865   -0.5688 H   0  0  0  0  0  0  0  0  0  0  0  0
   -0.5302   -1.8354    0.9040 H   0  0  0  0  0  0  0  0  0  0  0  0
    0.1795   -0.9130   -1.8549 H   0  0  0  0  0  0  0  0  0  0  0  0
    1.1329   -1.9034   -0.6240 H   0  0  0  0  0  0  0  0  0  0  0  0
    2.9536    1.3910   -0.2042 H   0  0  0  0  0  0  0  0  0  0  0  0
    3.1516   -0.4416   -0.2656 H   0  0  0  0  0  0  0  0  0  0  0  0
    1.6014   -0.7041    1.7194 H   0  0  0  0  0  0  0  0  0  0  0  0
    1.4310    1.1814    1.7505 H   0  0  0  0  0  0  0  0  0  0  0  0
   -1.1060    1.9493    0.9390 H   0  0  0  0  0  0  0  0  0  0  0  0
   -3.0921    1.3919   -0.4704 H   0  0  0  0  0  0  0  0  0  0  0  0
   -2.0488    0.6248   -1.7826 H   0  0  0  0  0  0  0  0  0  0  0  0
   -2.2588   -0.2461    1.2270 H   0  0  0  0  0  0  0  0  0  0  0  0
  1  2  1  0
  2  3  1  0
  3  4  1  0
  4  5  1  0
  3  6  1  0
  6  7  1  0
  7  8  1  0
  8  9  1  0
  9  1  1  0
  5  3  1  0
  9  7  1  0
  1 10  1  0
  1 11  1  0
  2 12  1  0
  2 13  1  0
  4 14  1  0
  4 15  1  0
  5 16  1  0
  5 17  1  0
  7 18  1  0
  8 19  1  0
  8 20  1  0
  9 21  1  0
M  END
