
     RDKit          3D

 19 21  0  0  0  0  0  0  0  0999 V2000
    1.5123    0.0298    0.0486 C   0  0  0  0  0  0  0  0  0  0  0  0
    0.8512    1.3932    0.0421 C   0  0  0  0  0  0  0  0  0  0  0  0
   -0.6188    1.3108   -0.2518 C   0  0  0  0  0  0  0  0  0  0  0  0
   -0.9907    0.5519   -1.3401 O   0  0  0  0  0  0  0  0  0  0  0  0
   -1.3669   -0.5321   -0.5835 C   0  0  0  0  0  0  0  0  0  0  0  0
   -0.2529   -1.5426   -0.5071 C   0  0  0  0  0  0  0  0  0  0  0  0
    0.5589   -0.9995    0.6655 C   0  0  0  0  0  0  0  0  0  0  0  0
   -0.3130   -0.3359    1.4882 O   0  0  0  0  0  0  0  0  0  0  0  0
   -1.2288    0.2986    0.6698 C   0  0  0  0  0  0  0  0  0  0  0  0
    2.3959    0.0801    0.7225 H   0  0  0  0  0  0  0  0  0  0  0  0
    1.8333   -0.2936   -0.9611 H   0  0  0  0  0  0  0  0  0  0  0  0
    1.3992    2.0796   -0.6140 H   0  0  0  0  0  0  0  0  0  0  0  0
    0.9446    1.7789    1.0938 H   0  0  0  0  0  0  0  0  0  0  0  0
   -1.0717    2.3037   -0.2854 H   0  0  0  0  0  0  0  0  0  0  0  0
   -2.3746   -0.9165   -0.6886 H   0  0  0  0  0  0  0  0  0  0  0  0
    0.3570   -1.4973   -1.4468 H   0  0  0  0  0  0  0  0  0  0  0  0
   -0.5787   -2.5689   -0.3640 H   0  0  0  0  0  0  0  0  0  0  0  0
    1.0921   -1.7964    1.1915 H   0  0  0  0  0  0  0  0  0  0  0  0
   -2.1484    0.6560    1.1204 H   0  0  0  0  0  0  0  0  0  0  0  0
  1  2  1  0
  2  3  1  0
  3  4  1  0
  4  5  1  0
  5  6  1  0
  6  7  1  0
  7  8  1  0
  8  9  1  0
  7  1  1  0
  9  3  1  0
  9  5  1  0
  1 10  1  0
  1 11  1  0
  2 12  1  0
  2 13  1  0
  3 14  1  0
  5 15  1  0
  6 16  1  0
  6 17  1  0
  7 18  1  0
  9 19  1  0
M  END
