
     RDKit          3D

 21 22  0  0  0  0  0  0  0  0999 V2000
    2.0289   -0.1697    0.2746 C   0  0  0  0  0  0  0  0  0  0  0  0
    1.3522    1.1264   -0.0913 C   0  0  0  0  0  0  0  0  0  0  0  0
    0.0786    0.8400   -0.8184 C   0  0  0  0  0  0  0  0  0  0  0  0
   -0.7070   -0.2943   -0.2732 C   0  0  0  0  0  0  0  0  0  0  0  0
   -2.0169   -0.4506   -1.0238 C   0  0  0  0  0  0  0  0  0  0  0  0
   -2.5633   -0.9266    0.1736 O   0  0  0  0  0  0  0  0  0  0  0  0
   -1.6874   -0.0173    0.8163 C   0  0  0  0  0  0  0  0  0  0  0  0
    0.0274   -1.4299   -0.0909 O   0  0  0  0  0  0  0  0  0  0  0  0
    1.0318   -1.1484    0.8446 C   0  0  0  0  0  0  0  0  0  0  0  0
    2.5945   -0.6027   -0.5685 H   0  0  0  0  0  0  0  0  0  0  0  0
    2.7560    0.0582    1.0898 H   0  0  0  0  0  0  0  0  0  0  0  0
    2.0211    1.6759   -0.8136 H   0  0  0  0  0  0  0  0  0  0  0  0
    1.1283    1.7314    0.7881 H   0  0  0  0  0  0  0  0  0  0  0  0
    0.3671    0.5699   -1.8779 H   0  0  0  0  0  0  0  0  0  0  0  0
   -0.5557    1.7415   -0.9212 H   0  0  0  0  0  0  0  0  0  0  0  0
   -2.0156   -1.1340   -1.8654 H   0  0  0  0  0  0  0  0  0  0  0  0
   -2.4355    0.5743   -1.2040 H   0  0  0  0  0  0  0  0  0  0  0  0
   -1.4365   -0.4265    1.8006 H   0  0  0  0  0  0  0  0  0  0  0  0
   -2.1323    0.9888    0.8366 H   0  0  0  0  0  0  0  0  0  0  0  0
    0.5911   -0.6712    1.7436 H   0  0  0  0  0  0  0  0  0  0  0  0
    1.5729   -2.0353    1.1806 H   0  0  0  0  0  0  0  0  0  0  0  0
  1  2  1  0
  2  3  1  0
  3  4  1  0
  4  5  1  0
  5  6  1  0
  6  7  1  0
  4  8  1  0
  8  9  1  0
  9  1  1  0
  7  4  1  0
  1 10  1  0
  1 11  1  0
  2 12  1  0
  2 13  1  0
  3 14  1  0
  3 15  1  0
  5 16  1  0
  5 17  1  0
  7 18  1  0
  7 19  1  0
  9 20  1  0
  9 21  1  0
M  END
