
     RDKit          3D

 21 24  0  0  0  0  0  0  0  0999 V2000
    1.6966    0.2204    0.4693 C   0  0  0  0  0  0  0  0  0  0  0  0
    1.4125   -0.9058   -0.5641 C   0  0  0  0  0  0  0  0  0  0  0  0
   -0.0028   -1.4574   -0.6048 C   0  0  0  0  0  0  0  0  0  0  0  0
   -1.3527   -0.8840   -0.4898 C   0  0  0  0  0  0  0  0  0  0  0  0
   -1.9301    0.4407    0.0253 C   0  0  0  0  0  0  0  0  0  0  0  0
   -0.8044    1.3190    0.6405 C   0  0  0  0  0  0  0  0  0  0  0  0
    0.6612    1.3371    0.5372 C   0  0  0  0  0  0  0  0  0  0  0  0
   -0.1231    0.7502   -0.3666 C   0  0  0  0  0  0  0  0  0  0  0  0
   -0.3822   -0.6658    0.4003 C   0  0  0  0  0  0  0  0  0  0  0  0
    2.6395    0.6392    0.1351 H   0  0  0  0  0  0  0  0  0  0  0  0
    1.8766   -0.2203    1.4718 H   0  0  0  0  0  0  0  0  0  0  0  0
    1.7731   -0.6035   -1.5582 H   0  0  0  0  0  0  0  0  0  0  0  0
    2.0723   -1.7196   -0.1957 H   0  0  0  0  0  0  0  0  0  0  0  0
   -0.0023   -2.5043   -0.9367 H   0  0  0  0  0  0  0  0  0  0  0  0
   -2.1612   -1.6551   -0.3799 H   0  0  0  0  0  0  0  0  0  0  0  0
   -2.3829    0.9767   -0.8053 H   0  0  0  0  0  0  0  0  0  0  0  0
   -2.6550    0.3133    0.8261 H   0  0  0  0  0  0  0  0  0  0  0  0
   -1.2620    2.2198    0.9987 H   0  0  0  0  0  0  0  0  0  0  0  0
    1.0917    2.3754    0.3859 H   0  0  0  0  0  0  0  0  0  0  0  0
   -0.0144    0.7925   -1.4164 H   0  0  0  0  0  0  0  0  0  0  0  0
   -0.1505   -0.7683    1.4276 H   0  0  0  0  0  0  0  0  0  0  0  0
  1  2  1  0
  2  3  1  0
  3  4  1  0
  4  5  1  0
  5  6  1  0
  6  7  1  0
  7  8  1  0
  8  9  1  0
  7  1  1  0
  9  3  1  0
  9  4  1  0
  8  6  1  0
  1 10  1  0
  1 11  1  0
  2 12  1  0
  2 13  1  0
  3 14  1  0
  4 15  1  0
  5 16  1  0
  5 17  1  0
  6 18  1  0
  7 19  1  0
  8 20  1  0
  9 21  1  0
M  END
