
     RDKit          3D

 18 20  0  0  0  0  0  0  0  0999 V2000
    1.6428    0.1091    0.1008 C   0  0  0  0  0  0  0  0  0  0  0  0
    1.0054   -0.9826   -0.7521 C   0  0  0  0  0  0  0  0  0  0  0  0
   -0.3378   -0.7598   -0.1366 C   0  0  0  0  0  0  0  0  0  0  0  0
   -1.4555   -0.1293   -0.8803 C   0  0  0  0  0  0  0  0  0  0  0  0
   -1.1738    1.2133   -0.9172 O   0  0  0  0  0  0  0  0  0  0  0  0
   -0.4584    1.5601    0.1940 C   0  0  0  0  0  0  0  0  0  0  0  0
    0.2931    0.3706    0.6883 C   0  0  0  0  0  0  0  0  0  0  0  0
   -0.4370   -0.7215    1.3601 C   0  0  0  0  0  0  0  0  0  0  0  0
    2.4176   -0.2694    0.7787 H   0  0  0  0  0  0  0  0  0  0  0  0
    2.0090    0.9816   -0.4499 H   0  0  0  0  0  0  0  0  0  0  0  0
    1.3726   -2.0070   -0.4942 H   0  0  0  0  0  0  0  0  0  0  0  0
    1.0760   -0.7717   -1.8247 H   0  0  0  0  0  0  0  0  0  0  0  0
   -2.4258   -0.3657   -0.3922 H   0  0  0  0  0  0  0  0  0  0  0  0
   -1.4974   -0.5921   -1.8976 H   0  0  0  0  0  0  0  0  0  0  0  0
    0.3125    2.3476   -0.0566 H   0  0  0  0  0  0  0  0  0  0  0  0
   -1.0711    1.9681    1.0240 H   0  0  0  0  0  0  0  0  0  0  0  0
    0.1471   -1.5219    1.8637 H   0  0  0  0  0  0  0  0  0  0  0  0
   -1.4192   -0.4294    1.7918 H   0  0  0  0  0  0  0  0  0  0  0  0
  1  2  1  0
  2  3  1  0
  3  4  1  0
  4  5  1  0
  5  6  1  0
  6  7  1  0
  7  8  1  0
  7  1  1  0
  7  3  1  0
  8  3  1  0
  1  9  1  0
  1 10  1  0
  2 11  1  0
  2 12  1  0
  4 13  1  0
  4 14  1  0
  6 15  1  0
  6 16  1  0
  8 17  1  0
  8 18  1  0
M  END
