
     RDKit          3D

 21 23  0  0  0  0  0  0  0  0999 V2000
   -1.4681    0.6819   -0.1717 C   0  0  0  0  0  0  0  0  0  0  0  0
   -0.2495    1.4553   -0.2747 C   0  0  0  0  0  0  0  0  0  0  0  0
    1.0601    0.8458   -0.0475 C   0  0  0  0  0  0  0  0  0  0  0  0
    1.3940   -0.3533   -0.8988 C   0  0  0  0  0  0  0  0  0  0  0  0
    0.9597   -1.1841    0.2035 C   0  0  0  0  0  0  0  0  0  0  0  0
    1.1103   -0.0770    1.1453 C   0  0  0  0  0  0  0  0  0  0  0  0
    0.4891   -2.3784    0.3789 O   0  0  0  0  0  0  0  0  0  0  0  0
   -0.4449   -1.5973   -0.1596 C   0  0  0  0  0  0  0  0  0  0  0  0
   -1.4046   -0.6889    0.4592 C   0  0  0  0  0  0  0  0  0  0  0  0
   -2.2737    1.2260    0.4076 H   0  0  0  0  0  0  0  0  0  0  0  0
   -1.9452    0.5393   -1.1882 H   0  0  0  0  0  0  0  0  0  0  0  0
   -0.3150    2.3363    0.4367 H   0  0  0  0  0  0  0  0  0  0  0  0
   -0.2152    1.9704   -1.2833 H   0  0  0  0  0  0  0  0  0  0  0  0
    1.8791    1.5785   -0.1006 H   0  0  0  0  0  0  0  0  0  0  0  0
    2.4866   -0.4671   -1.1319 H   0  0  0  0  0  0  0  0  0  0  0  0
    0.8369   -0.3370   -1.8501 H   0  0  0  0  0  0  0  0  0  0  0  0
    0.4348    0.1072    1.9603 H   0  0  0  0  0  0  0  0  0  0  0  0
    2.1675   -0.0634    1.5475 H   0  0  0  0  0  0  0  0  0  0  0  0
   -0.6658   -1.8143   -1.2490 H   0  0  0  0  0  0  0  0  0  0  0  0
   -1.4006   -0.6569    1.5734 H   0  0  0  0  0  0  0  0  0  0  0  0
   -2.4355   -1.1229    0.2431 H   0  0  0  0  0  0  0  0  0  0  0  0
  1  2  1  0
  2  3  1  0
  3  4  1  0
  4  5  1  0
  5  6  1  0
  5  7  1  0
  7  8  1  0
  8  9  1  0
  9  1  1  0
  6  3  1  0
  8  5  1  0
  1 10  1  0
  1 11  1  0
  2 12  1  0
  2 13  1  0
  3 14  1  0
  4 15  1  0
  4 16  1  0
  6 17  1  0
  6 18  1  0
  8 19  1  0
  9 20  1  0
  9 21  1  0
M  END
