
     RDKit          3D

 19 21  0  0  0  0  0  0  0  0999 V2000
    1.9794    0.9067   -0.3778 C   0  0  0  0  0  0  0  0  0  0  0  0
    2.3425   -0.6007   -0.4415 C   0  0  0  0  0  0  0  0  0  0  0  0
    0.9886   -0.1447   -0.2753 C   0  0  0  0  0  0  0  0  0  0  0  0
    0.1385   -0.3902    0.9379 C   0  0  0  0  0  0  0  0  0  0  0  0
   -0.9043   -0.1677   -0.1036 C   0  0  0  0  0  0  0  0  0  0  0  0
   -2.1803   -0.8655   -0.0262 C   0  0  0  0  0  0  0  0  0  0  0  0
   -2.7257    0.2606    0.6373 O   0  0  0  0  0  0  0  0  0  0  0  0
   -1.7457    1.0335   -0.0267 C   0  0  0  0  0  0  0  0  0  0  0  0
   -0.0529   -0.3474   -1.1413 O   0  0  0  0  0  0  0  0  0  0  0  0
    2.2558    1.4388    0.5637 H   0  0  0  0  0  0  0  0  0  0  0  0
    2.1902    1.4687   -1.2956 H   0  0  0  0  0  0  0  0  0  0  0  0
    2.9649   -0.9398    0.4158 H   0  0  0  0  0  0  0  0  0  0  0  0
    2.7462   -0.9690   -1.4124 H   0  0  0  0  0  0  0  0  0  0  0  0
    0.1971    0.3690    1.7229 H   0  0  0  0  0  0  0  0  0  0  0  0
    0.1326   -1.4566    1.2821 H   0  0  0  0  0  0  0  0  0  0  0  0
   -2.6675   -1.0189   -1.0165 H   0  0  0  0  0  0  0  0  0  0  0  0
   -2.1912   -1.7229    0.6585 H   0  0  0  0  0  0  0  0  0  0  0  0
   -1.3047    1.8343    0.5629 H   0  0  0  0  0  0  0  0  0  0  0  0
   -2.1635    1.3118   -1.0197 H   0  0  0  0  0  0  0  0  0  0  0  0
  1  2  1  0
  2  3  1  0
  3  4  1  0
  4  5  1  0
  5  6  1  0
  6  7  1  0
  7  8  1  0
  5  9  1  0
  3  1  1  0
  8  5  1  0
  9  3  1  0
  1 10  1  0
  1 11  1  0
  2 12  1  0
  2 13  1  0
  4 14  1  0
  4 15  1  0
  6 16  1  0
  6 17  1  0
  8 18  1  0
  8 19  1  0
M  END
