
     RDKit          3D

 20 21  0  0  0  0  0  0  0  0999 V2000
    3.0132   -0.1593    0.3818 C   0  0  0  0  0  0  0  0  0  0  0  0
    2.6962    0.0098   -1.0577 C   0  0  0  0  0  0  0  0  0  0  0  0
    1.7084   -0.6815   -0.2177 C   0  0  0  0  0  0  0  0  0  0  0  0
    0.4898    0.0272    0.3148 C   0  0  0  0  0  0  0  0  0  0  0  0
   -0.6884   -0.4308   -0.2142 O   0  0  0  0  0  0  0  0  0  0  0  0
   -1.7297    0.3011    0.3563 C   0  0  0  0  0  0  0  0  0  0  0  0
   -2.9309    0.5997   -0.4775 C   0  0  0  0  0  0  0  0  0  0  0  0
   -2.9997   -0.4079    0.6740 C   0  0  0  0  0  0  0  0  0  0  0  0
    2.9867    0.7457    1.0075 H   0  0  0  0  0  0  0  0  0  0  0  0
    3.6880   -0.9378    0.7526 H   0  0  0  0  0  0  0  0  0  0  0  0
    2.4098    1.0321   -1.3962 H   0  0  0  0  0  0  0  0  0  0  0  0
    3.3017   -0.5337   -1.7893 H   0  0  0  0  0  0  0  0  0  0  0  0
    1.6063   -1.7795   -0.3385 H   0  0  0  0  0  0  0  0  0  0  0  0
    0.4843   -0.1591    1.4263 H   0  0  0  0  0  0  0  0  0  0  0  0
    0.5786    1.1273    0.2017 H   0  0  0  0  0  0  0  0  0  0  0  0
   -1.4642    1.0987    1.1095 H   0  0  0  0  0  0  0  0  0  0  0  0
   -3.4743    1.5451   -0.2899 H   0  0  0  0  0  0  0  0  0  0  0  0
   -3.0261    0.2192   -1.5115 H   0  0  0  0  0  0  0  0  0  0  0  0
   -3.6122   -0.1371    1.5483 H   0  0  0  0  0  0  0  0  0  0  0  0
   -3.0373   -1.4789    0.4203 H   0  0  0  0  0  0  0  0  0  0  0  0
  1  2  1  0
  2  3  1  0
  3  4  1  0
  4  5  1  0
  5  6  1  0
  6  7  1  0
  7  8  1  0
  3  1  1  0
  8  6  1  0
  1  9  1  0
  1 10  1  0
  2 11  1  0
  2 12  1  0
  3 13  1  0
  4 14  1  0
  4 15  1  0
  6 16  1  0
  7 17  1  0
  7 18  1  0
  8 19  1  0
  8 20  1  0
M  END
