
     RDKit          3D

 19 21  0  0  0  0  0  0  0  0999 V2000
   -1.5331    0.0175    0.8544 C   0  0  0  0  0  0  0  0  0  0  0  0
   -1.6623   -0.0681   -0.6694 C   0  0  0  0  0  0  0  0  0  0  0  0
   -0.2758   -0.5817   -1.0094 C   0  0  0  0  0  0  0  0  0  0  0  0
    0.0572   -1.3858    0.1080 O   0  0  0  0  0  0  0  0  0  0  0  0
   -0.0936   -0.3863    1.1016 C   0  0  0  0  0  0  0  0  0  0  0  0
    0.8909    0.6268    0.5946 C   0  0  0  0  0  0  0  0  0  0  0  0
    2.1342   -0.0490    0.0893 C   0  0  0  0  0  0  0  0  0  0  0  0
    1.9322    0.4607   -1.2132 O   0  0  0  0  0  0  0  0  0  0  0  0
    0.6141    0.6435   -0.8841 C   0  0  0  0  0  0  0  0  0  0  0  0
   -1.7862    1.0009    1.2434 H   0  0  0  0  0  0  0  0  0  0  0  0
   -2.1615   -0.8127    1.2459 H   0  0  0  0  0  0  0  0  0  0  0  0
   -1.8102    0.9718   -1.0365 H   0  0  0  0  0  0  0  0  0  0  0  0
   -2.4352   -0.7574   -0.9911 H   0  0  0  0  0  0  0  0  0  0  0  0
   -0.2018   -1.0956   -1.9466 H   0  0  0  0  0  0  0  0  0  0  0  0
    0.0978   -0.7549    2.1010 H   0  0  0  0  0  0  0  0  0  0  0  0
    0.9847    1.5617    1.1104 H   0  0  0  0  0  0  0  0  0  0  0  0
    3.0756    0.2288    0.5585 H   0  0  0  0  0  0  0  0  0  0  0  0
    2.0552   -1.1597    0.0240 H   0  0  0  0  0  0  0  0  0  0  0  0
    0.1178    1.5395   -1.2810 H   0  0  0  0  0  0  0  0  0  0  0  0
  1  2  1  0
  2  3  1  0
  3  4  1  0
  4  5  1  0
  5  6  1  0
  6  7  1  0
  7  8  1  0
  8  9  1  0
  5  1  1  0
  9  6  1  0
  9  3  1  0
  1 10  1  0
  1 11  1  0
  2 12  1  0
  2 13  1  0
  3 14  1  0
  5 15  1  0
  6 16  1  0
  7 17  1  0
  7 18  1  0
  9 19  1  0
M  END
