
     RDKit          3D

 18 19  0  0  0  0  0  0  0  0999 V2000
   -2.0184   -0.2953   -0.1341 C   0  0  0  0  0  0  0  0  0  0  0  0
   -0.8846   -0.4897    0.8672 C   0  0  0  0  0  0  0  0  0  0  0  0
    0.0643   -0.0637   -0.2119 C   0  0  0  0  0  0  0  0  0  0  0  0
   -1.0069    0.0241   -1.2323 C   0  0  0  0  0  0  0  0  0  0  0  0
    0.7945    1.2468    0.0586 C   0  0  0  0  0  0  0  0  0  0  0  0
    1.8505    0.7629    0.8433 O   0  0  0  0  0  0  0  0  0  0  0  0
    2.1506   -0.5077    0.3615 C   0  0  0  0  0  0  0  0  0  0  0  0
    1.1243   -0.9086   -0.4568 O   0  0  0  0  0  0  0  0  0  0  0  0
   -2.5613   -1.2322   -0.2541 H   0  0  0  0  0  0  0  0  0  0  0  0
   -2.6032    0.6013    0.1371 H   0  0  0  0  0  0  0  0  0  0  0  0
   -0.9323    0.1264    1.7626 H   0  0  0  0  0  0  0  0  0  0  0  0
   -0.7088   -1.5614    1.1457 H   0  0  0  0  0  0  0  0  0  0  0  0
   -1.1216    1.0574   -1.6294 H   0  0  0  0  0  0  0  0  0  0  0  0
   -0.9221   -0.7241   -2.0203 H   0  0  0  0  0  0  0  0  0  0  0  0
    0.1793    1.9832    0.5662 H   0  0  0  0  0  0  0  0  0  0  0  0
    1.2307    1.5655   -0.8985 H   0  0  0  0  0  0  0  0  0  0  0  0
    2.2305   -1.1710    1.2609 H   0  0  0  0  0  0  0  0  0  0  0  0
    3.1345   -0.4140   -0.1656 H   0  0  0  0  0  0  0  0  0  0  0  0
  1  2  1  0
  2  3  1  0
  3  4  1  0
  3  5  1  0
  5  6  1  0
  6  7  1  0
  7  8  1  0
  4  1  1  0
  8  3  1  0
  1  9  1  0
  1 10  1  0
  2 11  1  0
  2 12  1  0
  4 13  1  0
  4 14  1  0
  5 15  1  0
  5 16  1  0
  7 17  1  0
  7 18  1  0
M  END
