
     RDKit          3D

 21 22  0  0  0  0  0  0  0  0999 V2000
   -1.8135   -0.0027   -0.8524 C   0  0  0  0  0  0  0  0  0  0  0  0
   -1.5281   -1.0983    0.1853 C   0  0  0  0  0  0  0  0  0  0  0  0
   -0.0782   -0.7480    0.5153 C   0  0  0  0  0  0  0  0  0  0  0  0
    0.6736   -1.1784   -0.5916 O   0  0  0  0  0  0  0  0  0  0  0  0
    1.9948   -0.7787   -0.4013 C   0  0  0  0  0  0  0  0  0  0  0  0
    2.1018    0.6771   -0.0131 C   0  0  0  0  0  0  0  0  0  0  0  0
    0.8897    1.2800   -0.3679 O   0  0  0  0  0  0  0  0  0  0  0  0
   -0.0710    0.7687    0.5222 C   0  0  0  0  0  0  0  0  0  0  0  0
   -1.4310    1.2030    0.0176 C   0  0  0  0  0  0  0  0  0  0  0  0
   -1.0761   -0.1303   -1.6546 H   0  0  0  0  0  0  0  0  0  0  0  0
   -2.8548    0.0185   -1.1605 H   0  0  0  0  0  0  0  0  0  0  0  0
   -2.1185   -0.8429    1.0649 H   0  0  0  0  0  0  0  0  0  0  0  0
   -1.6480   -2.0960   -0.2144 H   0  0  0  0  0  0  0  0  0  0  0  0
    0.2613   -1.1878    1.4535 H   0  0  0  0  0  0  0  0  0  0  0  0
    2.5521   -0.9408   -1.3579 H   0  0  0  0  0  0  0  0  0  0  0  0
    2.4121   -1.4161    0.4037 H   0  0  0  0  0  0  0  0  0  0  0  0
    2.9669    1.1849   -0.5021 H   0  0  0  0  0  0  0  0  0  0  0  0
    2.1849    0.7869    1.0928 H   0  0  0  0  0  0  0  0  0  0  0  0
    0.1505    1.1581    1.5255 H   0  0  0  0  0  0  0  0  0  0  0  0
   -1.4183    2.1343   -0.5444 H   0  0  0  0  0  0  0  0  0  0  0  0
   -2.1500    1.2086    0.8793 H   0  0  0  0  0  0  0  0  0  0  0  0
  1  2  1  0
  2  3  1  0
  3  4  1  0
  4  5  1  0
  5  6  1  0
  6  7  1  0
  7  8  1  0
  8  9  1  0
  9  1  1  0
  8  3  1  0
  1 10  1  0
  1 11  1  0
  2 12  1  0
  2 13  1  0
  3 14  1  0
  5 15  1  0
  5 16  1  0
  6 17  1  0
  6 18  1  0
  8 19  1  0
  9 20  1  0
  9 21  1  0
M  END
