
     RDKit          3D

 19 20  0  0  0  0  0  0  0  0999 V2000
   -1.6952   -0.4019   -0.5113 C   0  0  0  0  0  0  0  0  0  0  0  0
   -1.6330    0.1444    0.8877 C   0  0  0  0  0  0  0  0  0  0  0  0
   -0.1630    0.0737    1.2309 C   0  0  0  0  0  0  0  0  0  0  0  0
    0.5947    0.0486   -0.0571 C   0  0  0  0  0  0  0  0  0  0  0  0
   -0.4126    0.1020   -1.1653 C   0  0  0  0  0  0  0  0  0  0  0  0
    1.9007    0.7168   -0.1344 C   0  0  0  0  0  0  0  0  0  0  0  0
    1.8038   -0.7462   -0.2711 C   0  0  0  0  0  0  0  0  0  0  0  0
   -1.7613   -1.5124   -0.5399 H   0  0  0  0  0  0  0  0  0  0  0  0
   -2.5273    0.0636   -1.1115 H   0  0  0  0  0  0  0  0  0  0  0  0
   -1.9991    1.1970    0.8678 H   0  0  0  0  0  0  0  0  0  0  0  0
   -2.2711   -0.4252    1.5815 H   0  0  0  0  0  0  0  0  0  0  0  0
    0.0393   -0.7863    1.8954 H   0  0  0  0  0  0  0  0  0  0  0  0
    0.1234    1.0198    1.7623 H   0  0  0  0  0  0  0  0  0  0  0  0
   -0.1838   -0.6366   -1.9731 H   0  0  0  0  0  0  0  0  0  0  0  0
   -0.5470    1.1253   -1.5383 H   0  0  0  0  0  0  0  0  0  0  0  0
    2.1813    1.3768   -0.9914 H   0  0  0  0  0  0  0  0  0  0  0  0
    2.2925    1.1362    0.8311 H   0  0  0  0  0  0  0  0  0  0  0  0
    2.2940   -1.3390    0.5453 H   0  0  0  0  0  0  0  0  0  0  0  0
    1.9637   -1.1565   -1.3087 H   0  0  0  0  0  0  0  0  0  0  0  0
  1  2  1  0
  2  3  1  0
  3  4  1  0
  4  5  1  0
  4  6  1  0
  6  7  1  0
  5  1  1  0
  7  4  1  0
  1  8  1  0
  1  9  1  0
  2 10  1  0
  2 11  1  0
  3 12  1  0
  3 13  1  0
  5 14  1  0
  5 15  1  0
  6 16  1  0
  6 17  1  0
  7 18  1  0
  7 19  1  0
M  END
