
     RDKit          3D

 14 15  0  0  0  0  0  0  0  0999 V2000
    2.3610   -0.0819    0.0122 C   0  0  0  0  0  0  0  0  0  0  0  0
    1.4677    0.6635   -0.7221 C   0  0  0  0  0  0  0  0  0  0  0  0
    0.2227    0.1935   -0.3781 C   0  0  0  0  0  0  0  0  0  0  0  0
    0.4225   -0.8084    0.5430 C   0  0  0  0  0  0  0  0  0  0  0  0
    1.7118   -0.9451    0.7517 O   0  0  0  0  0  0  0  0  0  0  0  0
   -0.8224   -1.3343    0.9375 O   0  0  0  0  0  0  0  0  0  0  0  0
   -1.7439   -0.2790    0.7391 C   0  0  0  0  0  0  0  0  0  0  0  0
   -1.2398    0.3046   -0.5744 C   0  0  0  0  0  0  0  0  0  0  0  0
    3.4283    0.0324   -0.0211 H   0  0  0  0  0  0  0  0  0  0  0  0
    1.7165    1.4605   -1.4280 H   0  0  0  0  0  0  0  0  0  0  0  0
   -2.7848   -0.6019    0.6851 H   0  0  0  0  0  0  0  0  0  0  0  0
   -1.5622    0.4583    1.5722 H   0  0  0  0  0  0  0  0  0  0  0  0
   -1.5891   -0.3855   -1.3733 H   0  0  0  0  0  0  0  0  0  0  0  0
   -1.5884    1.3236   -0.7438 H   0  0  0  0  0  0  0  0  0  0  0  0
  1  2  2  0
  2  3  1  0
  3  4  2  0
  4  5  1  0
  4  6  1  0
  6  7  1  0
  7  8  1  0
  5  1  1  0
  8  3  1  0
  1  9  1  0
  2 10  1  0
  7 11  1  0
  7 12  1  0
  8 13  1  0
  8 14  1  0
M  END
