
     RDKit          3D

 14 15  0  0  0  0  0  0  0  0999 V2000
    2.1602    0.5402   -0.1263 C   0  0  0  0  0  0  0  0  0  0  0  0
    1.6174   -0.6945    0.1446 C   0  0  0  0  0  0  0  0  0  0  0  0
    0.2299   -0.4917    0.1286 C   0  0  0  0  0  0  0  0  0  0  0  0
    0.0377    0.8440   -0.1492 C   0  0  0  0  0  0  0  0  0  0  0  0
    1.2033    1.4045   -0.2900 O   0  0  0  0  0  0  0  0  0  0  0  0
   -1.4628    1.0044   -0.1535 C   0  0  0  0  0  0  0  0  0  0  0  0
   -1.8913   -0.0519    0.6877 O   0  0  0  0  0  0  0  0  0  0  0  0
   -1.0851   -1.1053    0.2805 C   0  0  0  0  0  0  0  0  0  0  0  0
    3.2439    0.7128   -0.1836 H   0  0  0  0  0  0  0  0  0  0  0  0
    2.0947   -1.6445    0.3359 H   0  0  0  0  0  0  0  0  0  0  0  0
   -1.7983    0.8752   -1.1838 H   0  0  0  0  0  0  0  0  0  0  0  0
   -1.7558    1.9877    0.2597 H   0  0  0  0  0  0  0  0  0  0  0  0
   -1.1112   -1.9572    0.9773 H   0  0  0  0  0  0  0  0  0  0  0  0
   -1.4825   -1.4236   -0.7278 H   0  0  0  0  0  0  0  0  0  0  0  0
  1  2  2  0
  2  3  1  0
  3  4  2  0
  4  5  1  0
  4  6  1  0
  6  7  1  0
  7  8  1  0
  5  1  1  0
  8  3  1  0
  1  9  1  0
  2 10  1  0
  6 11  1  0
  6 12  1  0
  8 13  1  0
  8 14  1  0
M  END
