
     RDKit          3D

 19 21  0  0  0  0  0  0  0  0999 V2000
   -1.6824   -1.0396   -0.3571 C   0  0  0  0  0  0  0  0  0  0  0  0
   -2.0852   -0.0221    0.7281 C   0  0  0  0  0  0  0  0  0  0  0  0
   -1.1860    0.3528   -0.4043 C   0  0  0  0  0  0  0  0  0  0  0  0
    0.2516    0.6612   -0.0966 C   0  0  0  0  0  0  0  0  0  0  0  0
    1.3149    0.0250   -0.9625 C   0  0  0  0  0  0  0  0  0  0  0  0
    2.1678   -1.0594   -0.4961 C   0  0  0  0  0  0  0  0  0  0  0  0
    2.6881    0.2316   -0.4300 O   0  0  0  0  0  0  0  0  0  0  0  0
    0.6625    1.2132    1.1905 C   0  0  0  0  0  0  0  0  0  0  0  0
    0.4039    2.1326    0.0494 O   0  0  0  0  0  0  0  0  0  0  0  0
   -1.0597   -1.8869   -0.0459 H   0  0  0  0  0  0  0  0  0  0  0  0
   -2.5255   -1.3522   -1.0356 H   0  0  0  0  0  0  0  0  0  0  0  0
   -1.6211   -0.2405    1.7327 H   0  0  0  0  0  0  0  0  0  0  0  0
   -3.1413    0.3236    0.7221 H   0  0  0  0  0  0  0  0  0  0  0  0
   -1.6874    0.9979   -1.1836 H   0  0  0  0  0  0  0  0  0  0  0  0
    1.2481    0.2720   -2.0217 H   0  0  0  0  0  0  0  0  0  0  0  0
    2.5715   -1.7664   -1.2542 H   0  0  0  0  0  0  0  0  0  0  0  0
    1.9640   -1.5707    0.4766 H   0  0  0  0  0  0  0  0  0  0  0  0
   -0.0324    1.4712    1.9948 H   0  0  0  0  0  0  0  0  0  0  0  0
    1.7486    1.2567    1.3934 H   0  0  0  0  0  0  0  0  0  0  0  0
  1  2  1  0
  2  3  1  0
  3  4  1  0
  4  5  1  0
  5  6  1  0
  6  7  1  0
  4  8  1  0
  8  9  1  0
  3  1  1  0
  9  4  1  0
  7  5  1  0
  1 10  1  0
  1 11  1  0
  2 12  1  0
  2 13  1  0
  3 14  1  0
  5 15  1  0
  6 16  1  0
  6 17  1  0
  8 18  1  0
  8 19  1  0
M  END
