
     RDKit          3D

 21 22  0  0  0  0  0  0  0  0999 V2000
    2.4978    0.3696   -0.0961 C   0  0  0  0  0  0  0  0  0  0  0  0
    1.1798    0.9940    0.3897 C   0  0  0  0  0  0  0  0  0  0  0  0
    0.6811   -0.4054    0.5301 C   0  0  0  0  0  0  0  0  0  0  0  0
   -0.7634   -0.6587    0.3925 C   0  0  0  0  0  0  0  0  0  0  0  0
   -1.3983   -0.2947   -0.8889 C   0  0  0  0  0  0  0  0  0  0  0  0
   -2.2028    0.8054   -0.6105 O   0  0  0  0  0  0  0  0  0  0  0  0
   -2.5809    0.5918    0.7138 C   0  0  0  0  0  0  0  0  0  0  0  0
   -1.4256    0.1396    1.3550 O   0  0  0  0  0  0  0  0  0  0  0  0
    1.6098   -0.7950   -0.5681 C   0  0  0  0  0  0  0  0  0  0  0  0
    2.9840    0.9251   -0.9006 H   0  0  0  0  0  0  0  0  0  0  0  0
    3.1287    0.0988    0.7749 H   0  0  0  0  0  0  0  0  0  0  0  0
    1.2607    1.5384    1.3369 H   0  0  0  0  0  0  0  0  0  0  0  0
    0.7619    1.5813   -0.4512 H   0  0  0  0  0  0  0  0  0  0  0  0
    1.0494   -0.8270    1.5102 H   0  0  0  0  0  0  0  0  0  0  0  0
   -0.9870   -1.7091    0.7037 H   0  0  0  0  0  0  0  0  0  0  0  0
   -0.7496   -0.1565   -1.7506 H   0  0  0  0  0  0  0  0  0  0  0  0
   -2.1118   -1.1250   -1.1670 H   0  0  0  0  0  0  0  0  0  0  0  0
   -3.3095   -0.2617    0.7821 H   0  0  0  0  0  0  0  0  0  0  0  0
   -2.9683    1.5037    1.1841 H   0  0  0  0  0  0  0  0  0  0  0  0
    2.1025   -1.7777   -0.4885 H   0  0  0  0  0  0  0  0  0  0  0  0
    1.2415   -0.5367   -1.5804 H   0  0  0  0  0  0  0  0  0  0  0  0
  1  2  1  0
  2  3  1  0
  3  4  1  0
  4  5  1  0
  5  6  1  0
  6  7  1  0
  7  8  1  0
  3  9  1  0
  9  1  1  0
  8  4  1  0
  1 10  1  0
  1 11  1  0
  2 12  1  0
  2 13  1  0
  3 14  1  0
  4 15  1  0
  5 16  1  0
  5 17  1  0
  7 18  1  0
  7 19  1  0
  9 20  1  0
  9 21  1  0
M  END
