
     RDKit          3D

 23 24  0  0  0  0  0  0  0  0999 V2000
   -1.7576    0.5930    0.2138 C   0  0  0  0  0  0  0  0  0  0  0  0
   -0.5338    1.4162    0.5485 C   0  0  0  0  0  0  0  0  0  0  0  0
    0.4534    1.4825   -0.5532 C   0  0  0  0  0  0  0  0  0  0  0  0
    1.4029    0.3815   -0.6953 C   0  0  0  0  0  0  0  0  0  0  0  0
    1.7950   -0.3912    0.4744 C   0  0  0  0  0  0  0  0  0  0  0  0
    0.9319   -1.4279   -0.1807 C   0  0  0  0  0  0  0  0  0  0  0  0
   -0.4155   -1.5068    0.4662 C   0  0  0  0  0  0  0  0  0  0  0  0
   -1.4356   -0.7536   -0.3433 C   0  0  0  0  0  0  0  0  0  0  0  0
    0.8351   -0.7199   -1.3574 O   0  0  0  0  0  0  0  0  0  0  0  0
   -2.3701    1.1406   -0.5315 H   0  0  0  0  0  0  0  0  0  0  0  0
   -2.3767    0.4809    1.1205 H   0  0  0  0  0  0  0  0  0  0  0  0
   -0.1244    1.1427    1.5304 H   0  0  0  0  0  0  0  0  0  0  0  0
   -0.9270    2.4698    0.6896 H   0  0  0  0  0  0  0  0  0  0  0  0
   -0.1252    1.5781   -1.5173 H   0  0  0  0  0  0  0  0  0  0  0  0
    1.0291    2.4522   -0.4831 H   0  0  0  0  0  0  0  0  0  0  0  0
    2.3018    0.6985   -1.3026 H   0  0  0  0  0  0  0  0  0  0  0  0
    2.8780   -0.6887    0.5071 H   0  0  0  0  0  0  0  0  0  0  0  0
    1.4640   -0.1343    1.4712 H   0  0  0  0  0  0  0  0  0  0  0  0
    1.4603   -2.3883   -0.3423 H   0  0  0  0  0  0  0  0  0  0  0  0
   -0.3369   -1.1455    1.5110 H   0  0  0  0  0  0  0  0  0  0  0  0
   -0.6836   -2.5983    0.5061 H   0  0  0  0  0  0  0  0  0  0  0  0
   -1.0957   -0.7266   -1.3983 H   0  0  0  0  0  0  0  0  0  0  0  0
   -2.3695   -1.3549   -0.3338 H   0  0  0  0  0  0  0  0  0  0  0  0
  1  2  1  0
  2  3  1  0
  3  4  1  0
  4  5  1  0
  5  6  1  0
  6  7  1  0
  7  8  1  0
  6  9  1  0
  8  1  1  0
  9  4  1  0
  1 10  1  0
  1 11  1  0
  2 12  1  0
  2 13  1  0
  3 14  1  0
  3 15  1  0
  4 16  1  0
  5 17  1  0
  5 18  1  0
  6 19  1  0
  7 20  1  0
  7 21  1  0
  8 22  1  0
  8 23  1  0
M  END
