
     RDKit          3D

 19 22  0  0  0  0  0  0  0  0999 V2000
    1.5885    0.5838    0.0361 C   0  0  0  0  0  0  0  0  0  0  0  0
    1.2892   -0.8869    0.0247 C   0  0  0  0  0  0  0  0  0  0  0  0
   -0.1569   -1.2117    0.1473 C   0  0  0  0  0  0  0  0  0  0  0  0
   -0.9181   -0.3528    1.1061 C   0  0  0  0  0  0  0  0  0  0  0  0
   -0.2282    0.8205    1.4506 O   0  0  0  0  0  0  0  0  0  0  0  0
    0.2674    1.3093    0.2431 C   0  0  0  0  0  0  0  0  0  0  0  0
   -0.7457    0.9277   -0.8258 C   0  0  0  0  0  0  0  0  0  0  0  0
   -0.8868   -0.5281   -0.9855 C   0  0  0  0  0  0  0  0  0  0  0  0
   -1.7314    0.1560   -0.0527 C   0  0  0  0  0  0  0  0  0  0  0  0
    2.1766    0.7782    0.9815 H   0  0  0  0  0  0  0  0  0  0  0  0
    2.1445    0.9458   -0.8271 H   0  0  0  0  0  0  0  0  0  0  0  0
    1.6286   -1.2696   -0.9829 H   0  0  0  0  0  0  0  0  0  0  0  0
    1.9297   -1.4563    0.7534 H   0  0  0  0  0  0  0  0  0  0  0  0
   -0.3207   -2.2928    0.2335 H   0  0  0  0  0  0  0  0  0  0  0  0
   -1.4414   -0.8238    1.9273 H   0  0  0  0  0  0  0  0  0  0  0  0
    0.4368    2.3837    0.2348 H   0  0  0  0  0  0  0  0  0  0  0  0
   -1.1039    1.6642   -1.5372 H   0  0  0  0  0  0  0  0  0  0  0  0
   -1.1433   -1.0407   -1.8962 H   0  0  0  0  0  0  0  0  0  0  0  0
   -2.7849    0.2936   -0.0310 H   0  0  0  0  0  0  0  0  0  0  0  0
  1  2  1  0
  2  3  1  0
  3  4  1  0
  4  5  1  0
  5  6  1  0
  6  7  1  0
  7  8  1  0
  8  9  1  0
  6  1  1  0
  9  7  1  0
  8  3  1  0
  9  4  1  0
  1 10  1  0
  1 11  1  0
  2 12  1  0
  2 13  1  0
  3 14  1  0
  4 15  1  0
  6 16  1  0
  7 17  1  0
  8 18  1  0
  9 19  1  0
M  END
