
     RDKit          3D

 19 22  0  0  0  0  0  0  0  0999 V2000
   -1.5394   -0.9484   -0.6299 C   0  0  0  0  0  0  0  0  0  0  0  0
   -1.5769   -0.6856    0.8712 C   0  0  0  0  0  0  0  0  0  0  0  0
   -0.7147    0.0762    0.0068 C   0  0  0  0  0  0  0  0  0  0  0  0
   -0.8708    1.5397   -0.2349 C   0  0  0  0  0  0  0  0  0  0  0  0
   -0.0995    2.1179   -1.2415 O   0  0  0  0  0  0  0  0  0  0  0  0
    0.6469    1.6694   -0.1640 C   0  0  0  0  0  0  0  0  0  0  0  0
    0.7251    0.1882   -0.0158 C   0  0  0  0  0  0  0  0  0  0  0  0
    1.7126   -0.5207    0.7618 C   0  0  0  0  0  0  0  0  0  0  0  0
    1.6705   -0.6340   -0.7721 C   0  0  0  0  0  0  0  0  0  0  0  0
   -2.3962   -0.5574   -1.2470 H   0  0  0  0  0  0  0  0  0  0  0  0
   -1.1390   -1.9324   -0.9608 H   0  0  0  0  0  0  0  0  0  0  0  0
   -2.5338   -0.1991    1.2114 H   0  0  0  0  0  0  0  0  0  0  0  0
   -1.2843   -1.5387    1.4991 H   0  0  0  0  0  0  0  0  0  0  0  0
   -1.4985    2.1732    0.4002 H   0  0  0  0  0  0  0  0  0  0  0  0
    1.0660    2.3586    0.5708 H   0  0  0  0  0  0  0  0  0  0  0  0
    2.6222   -0.0073    1.1560 H   0  0  0  0  0  0  0  0  0  0  0  0
    1.4591   -1.4462    1.3349 H   0  0  0  0  0  0  0  0  0  0  0  0
    1.2829   -1.5675   -1.2113 H   0  0  0  0  0  0  0  0  0  0  0  0
    2.4678   -0.0857   -1.3348 H   0  0  0  0  0  0  0  0  0  0  0  0
  1  2  1  0
  2  3  1  0
  3  4  1  0
  4  5  1  0
  5  6  1  0
  6  7  1  0
  7  8  1  0
  8  9  1  0
  3  1  1  0
  6  4  1  0
  9  7  1  0
  7  3  1  0
  1 10  1  0
  1 11  1  0
  2 12  1  0
  2 13  1  0
  4 14  1  0
  6 15  1  0
  8 16  1  0
  8 17  1  0
  9 18  1  0
  9 19  1  0
M  END
