
     RDKit          3D

 14 15  0  0  0  0  0  0  0  0999 V2000
   -1.4604    0.1026    0.4210 C   0  0  0  0  0  0  0  0  0  0  0  0
   -0.6487   -0.8094   -0.5091 C   0  0  0  0  0  0  0  0  0  0  0  0
    0.5437   -0.0598   -0.0201 C   0  0  0  0  0  0  0  0  0  0  0  0
   -0.3174    1.1103    0.2314 C   0  0  0  0  0  0  0  0  0  0  0  0
    1.8653   -0.2549   -0.2206 C   0  0  0  0  0  0  0  0  0  0  0  0
    1.2417   -0.6685    1.0097 O   0  0  0  0  0  0  0  0  0  0  0  0
   -1.4152   -0.3020    1.4336 H   0  0  0  0  0  0  0  0  0  0  0  0
   -2.4218    0.4267    0.0253 H   0  0  0  0  0  0  0  0  0  0  0  0
   -0.7105   -1.8736   -0.2743 H   0  0  0  0  0  0  0  0  0  0  0  0
   -0.9132   -0.5198   -1.5617 H   0  0  0  0  0  0  0  0  0  0  0  0
   -0.5351    1.6977   -0.6945 H   0  0  0  0  0  0  0  0  0  0  0  0
   -0.1192    1.7440    1.0953 H   0  0  0  0  0  0  0  0  0  0  0  0
    2.2506   -1.1053   -0.8599 H   0  0  0  0  0  0  0  0  0  0  0  0
    2.6403    0.5119   -0.0759 H   0  0  0  0  0  0  0  0  0  0  0  0
  1  2  1  0
  2  3  1  0
  3  4  1  0
  3  5  1  0
  5  6  1  0
  4  1  1  0
  6  3  1  0
  1  7  1  0
  1  8  1  0
  2  9  1  0
  2 10  1  0
  4 11  1  0
  4 12  1  0
  5 13  1  0
  5 14  1  0
M  END
