
     RDKit          3D

 23 25  0  0  0  0  0  0  0  0999 V2000
    2.7714    0.2040    0.1816 C   0  0  0  0  0  0  0  0  0  0  0  0
    1.7042    1.0052    0.8929 C   0  0  0  0  0  0  0  0  0  0  0  0
    0.5697    0.9736   -0.0974 C   0  0  0  0  0  0  0  0  0  0  0  0
    0.6514   -0.3185   -0.8451 C   0  0  0  0  0  0  0  0  0  0  0  0
    1.9674   -0.9034   -0.4457 C   0  0  0  0  0  0  0  0  0  0  0  0
   -0.4403   -0.0812    0.1107 C   0  0  0  0  0  0  0  0  0  0  0  0
   -1.8267    0.1127   -0.4319 C   0  0  0  0  0  0  0  0  0  0  0  0
   -2.8433   -0.9773   -0.2081 C   0  0  0  0  0  0  0  0  0  0  0  0
   -2.9812    0.3097    0.5294 C   0  0  0  0  0  0  0  0  0  0  0  0
    3.4521   -0.2679    0.9209 H   0  0  0  0  0  0  0  0  0  0  0  0
    3.3416    0.8003   -0.5536 H   0  0  0  0  0  0  0  0  0  0  0  0
    2.0012    2.0204    1.1420 H   0  0  0  0  0  0  0  0  0  0  0  0
    1.4281    0.4491    1.8232 H   0  0  0  0  0  0  0  0  0  0  0  0
    0.3946    1.8592   -0.7134 H   0  0  0  0  0  0  0  0  0  0  0  0
    0.3611   -0.3514   -1.9247 H   0  0  0  0  0  0  0  0  0  0  0  0
    1.8846   -1.8021    0.1937 H   0  0  0  0  0  0  0  0  0  0  0  0
    2.5007   -1.2213   -1.3787 H   0  0  0  0  0  0  0  0  0  0  0  0
   -0.4348   -0.6157    1.1013 H   0  0  0  0  0  0  0  0  0  0  0  0
   -1.9322    0.6402   -1.4069 H   0  0  0  0  0  0  0  0  0  0  0  0
   -3.5624   -1.2148   -1.0381 H   0  0  0  0  0  0  0  0  0  0  0  0
   -2.4416   -1.8660    0.3205 H   0  0  0  0  0  0  0  0  0  0  0  0
   -3.8153    0.9885    0.2121 H   0  0  0  0  0  0  0  0  0  0  0  0
   -2.7503    0.2567    1.6152 H   0  0  0  0  0  0  0  0  0  0  0  0
  1  2  1  0
  2  3  1  0
  3  4  1  0
  4  5  1  0
  4  6  1  0
  6  7  1  0
  7  8  1  0
  8  9  1  0
  5  1  1  0
  9  7  1  0
  6  3  1  0
  1 10  1  0
  1 11  1  0
  2 12  1  0
  2 13  1  0
  3 14  1  0
  4 15  1  0
  5 16  1  0
  5 17  1  0
  6 18  1  0
  7 19  1  0
  8 20  1  0
  8 21  1  0
  9 22  1  0
  9 23  1  0
M  END
