
     RDKit          3D

 21 23  0  0  0  0  0  0  0  0999 V2000
    2.2043   -1.3404    0.1124 C   0  0  0  0  0  0  0  0  0  0  0  0
    2.7207   -0.0566    0.7440 C   0  0  0  0  0  0  0  0  0  0  0  0
    1.3964   -0.1021    0.0092 C   0  0  0  0  0  0  0  0  0  0  0  0
    0.2288    0.0878    0.6741 O   0  0  0  0  0  0  0  0  0  0  0  0
   -0.7069    0.8456   -0.0324 C   0  0  0  0  0  0  0  0  0  0  0  0
   -1.0588    0.1200   -1.2995 C   0  0  0  0  0  0  0  0  0  0  0  0
   -1.6942   -0.8512   -0.2733 C   0  0  0  0  0  0  0  0  0  0  0  0
   -2.2312    0.4737    0.2081 C   0  0  0  0  0  0  0  0  0  0  0  0
   -1.5965    1.5545    0.8563 C   0  0  0  0  0  0  0  0  0  0  0  0
    1.8820   -2.1712    0.7673 H   0  0  0  0  0  0  0  0  0  0  0  0
    2.8042   -1.6866   -0.7512 H   0  0  0  0  0  0  0  0  0  0  0  0
    2.7340   -0.0763    1.8458 H   0  0  0  0  0  0  0  0  0  0  0  0
    3.5852    0.4582    0.2771 H   0  0  0  0  0  0  0  0  0  0  0  0
    1.4504    0.3830   -0.9902 H   0  0  0  0  0  0  0  0  0  0  0  0
   -1.8711    0.5693   -1.9067 H   0  0  0  0  0  0  0  0  0  0  0  0
   -0.2240   -0.3011   -1.8353 H   0  0  0  0  0  0  0  0  0  0  0  0
   -2.4359   -1.5125   -0.7077 H   0  0  0  0  0  0  0  0  0  0  0  0
   -0.9830   -1.3665    0.3615 H   0  0  0  0  0  0  0  0  0  0  0  0
   -2.9201    0.8379   -0.6283 H   0  0  0  0  0  0  0  0  0  0  0  0
   -1.5224    1.4937    1.9848 H   0  0  0  0  0  0  0  0  0  0  0  0
   -1.7619    2.6409    0.5838 H   0  0  0  0  0  0  0  0  0  0  0  0
  1  2  1  0
  2  3  1  0
  3  4  1  0
  4  5  1  0
  5  6  1  0
  6  7  1  0
  7  8  1  0
  8  9  1  0
  3  1  1  0
  8  5  1  0
  9  5  1  0
  1 10  1  0
  1 11  1  0
  2 12  1  0
  2 13  1  0
  3 14  1  0
  6 15  1  0
  6 16  1  0
  7 17  1  0
  7 18  1  0
  8 19  1  0
  9 20  1  0
  9 21  1  0
M  END
