
     RDKit          3D

 19 21  0  0  0  0  0  0  0  0999 V2000
   -1.7827    0.0619    0.1373 C   0  0  0  0  0  0  0  0  0  0  0  0
   -1.0754   -1.1194   -0.5413 C   0  0  0  0  0  0  0  0  0  0  0  0
    0.1599   -0.3545   -0.5022 C   0  0  0  0  0  0  0  0  0  0  0  0
    1.1190   -0.4581   -1.4344 O   0  0  0  0  0  0  0  0  0  0  0  0
    2.0229   -0.8565   -0.4218 C   0  0  0  0  0  0  0  0  0  0  0  0
    1.0619   -0.3423    0.6394 C   0  0  0  0  0  0  0  0  0  0  0  0
    1.3079    1.0017    0.8772 O   0  0  0  0  0  0  0  0  0  0  0  0
    0.0700    1.6469    0.7173 C   0  0  0  0  0  0  0  0  0  0  0  0
   -0.6242    0.9196   -0.3906 C   0  0  0  0  0  0  0  0  0  0  0  0
   -1.7895   -0.0361    1.2475 H   0  0  0  0  0  0  0  0  0  0  0  0
   -2.7085    0.3790   -0.3385 H   0  0  0  0  0  0  0  0  0  0  0  0
   -1.1894   -2.0562   -0.0102 H   0  0  0  0  0  0  0  0  0  0  0  0
   -1.4652   -1.2295   -1.5946 H   0  0  0  0  0  0  0  0  0  0  0  0
    2.9683   -0.2829   -0.4801 H   0  0  0  0  0  0  0  0  0  0  0  0
    2.1276   -1.9526   -0.3186 H   0  0  0  0  0  0  0  0  0  0  0  0
    0.9014   -0.9786    1.4983 H   0  0  0  0  0  0  0  0  0  0  0  0
   -0.4674    1.4820    1.6894 H   0  0  0  0  0  0  0  0  0  0  0  0
    0.1900    2.7232    0.5378 H   0  0  0  0  0  0  0  0  0  0  0  0
   -0.8267    1.4525   -1.3118 H   0  0  0  0  0  0  0  0  0  0  0  0
  1  2  1  0
  2  3  1  0
  3  4  1  0
  4  5  1  0
  5  6  1  0
  6  7  1  0
  7  8  1  0
  8  9  1  0
  9  1  1  0
  6  3  1  0
  9  3  1  0
  1 10  1  0
  1 11  1  0
  2 12  1  0
  2 13  1  0
  5 14  1  0
  5 15  1  0
  6 16  1  0
  8 17  1  0
  8 18  1  0
  9 19  1  0
M  END
