
     RDKit          3D

 21 23  0  0  0  0  0  0  0  0999 V2000
    1.8671   -0.1147    0.0277 C   0  0  0  0  0  0  0  0  0  0  0  0
    1.0122   -1.3136   -0.4040 C   0  0  0  0  0  0  0  0  0  0  0  0
   -0.1206   -1.3947    0.5463 C   0  0  0  0  0  0  0  0  0  0  0  0
   -0.8409   -0.1530    0.8385 C   0  0  0  0  0  0  0  0  0  0  0  0
   -0.2886    1.1173    0.3431 C   0  0  0  0  0  0  0  0  0  0  0  0
    1.0091    1.0920   -0.3420 C   0  0  0  0  0  0  0  0  0  0  0  0
   -1.4963    1.2031   -0.6044 C   0  0  0  0  0  0  0  0  0  0  0  0
   -1.6890    0.0691   -1.4238 O   0  0  0  0  0  0  0  0  0  0  0  0
   -2.0410    0.0723   -0.0943 C   0  0  0  0  0  0  0  0  0  0  0  0
    1.9470   -0.0857    1.1489 H   0  0  0  0  0  0  0  0  0  0  0  0
    2.8284   -0.0850   -0.4754 H   0  0  0  0  0  0  0  0  0  0  0  0
    1.5865   -2.2366   -0.4165 H   0  0  0  0  0  0  0  0  0  0  0  0
    0.5902   -1.0457   -1.4144 H   0  0  0  0  0  0  0  0  0  0  0  0
   -0.8374   -2.1721    0.1500 H   0  0  0  0  0  0  0  0  0  0  0  0
    0.2602   -1.8268    1.5164 H   0  0  0  0  0  0  0  0  0  0  0  0
   -1.1651   -0.0634    1.9115 H   0  0  0  0  0  0  0  0  0  0  0  0
   -0.3605    2.0019    1.0378 H   0  0  0  0  0  0  0  0  0  0  0  0
    0.9338    1.0629   -1.4690 H   0  0  0  0  0  0  0  0  0  0  0  0
    1.6618    1.9838   -0.1292 H   0  0  0  0  0  0  0  0  0  0  0  0
   -1.8371    2.1708   -0.9485 H   0  0  0  0  0  0  0  0  0  0  0  0
   -3.0197   -0.2819    0.2014 H   0  0  0  0  0  0  0  0  0  0  0  0
  1  2  1  0
  2  3  1  0
  3  4  1  0
  4  5  1  0
  5  6  1  0
  5  7  1  0
  7  8  1  0
  8  9  1  0
  6  1  1  0
  9  7  1  0
  9  4  1  0
  1 10  1  0
  1 11  1  0
  2 12  1  0
  2 13  1  0
  3 14  1  0
  3 15  1  0
  4 16  1  0
  5 17  1  0
  6 18  1  0
  6 19  1  0
  7 20  1  0
  9 21  1  0
M  END
