
     RDKit          3D

 23 24  0  0  0  0  0  0  0  0999 V2000
    1.1218    1.0900    0.1337 C   0  0  0  0  0  0  0  0  0  0  0  0
    1.8142   -0.2142    0.0237 C   0  0  0  0  0  0  0  0  0  0  0  0
    1.0946   -1.2549   -0.8725 C   0  0  0  0  0  0  0  0  0  0  0  0
   -0.2375   -0.8250   -0.7452 C   0  0  0  0  0  0  0  0  0  0  0  0
   -0.5052   -0.9533    0.7686 C   0  0  0  0  0  0  0  0  0  0  0  0
   -1.2738    0.3165    0.7906 C   0  0  0  0  0  0  0  0  0  0  0  0
   -0.2178    1.3572    0.5393 C   0  0  0  0  0  0  0  0  0  0  0  0
   -2.1342   -0.0130   -0.4517 C   0  0  0  0  0  0  0  0  0  0  0  0
   -1.4611   -1.1105   -1.1029 O   0  0  0  0  0  0  0  0  0  0  0  0
    1.8482    1.6972    0.7742 H   0  0  0  0  0  0  0  0  0  0  0  0
    1.3074    1.5990   -0.8761 H   0  0  0  0  0  0  0  0  0  0  0  0
    2.2293   -0.6516    0.9411 H   0  0  0  0  0  0  0  0  0  0  0  0
    2.7707   -0.0118   -0.5581 H   0  0  0  0  0  0  0  0  0  0  0  0
    1.4565   -1.2049   -1.9205 H   0  0  0  0  0  0  0  0  0  0  0  0
    1.3980   -2.2647   -0.4988 H   0  0  0  0  0  0  0  0  0  0  0  0
   -0.1898    0.2510   -1.1284 H   0  0  0  0  0  0  0  0  0  0  0  0
   -1.2028   -1.7864    0.9851 H   0  0  0  0  0  0  0  0  0  0  0  0
    0.3252   -1.0424    1.4078 H   0  0  0  0  0  0  0  0  0  0  0  0
   -1.8880    0.4665    1.6679 H   0  0  0  0  0  0  0  0  0  0  0  0
   -0.7508    2.0577   -0.1827 H   0  0  0  0  0  0  0  0  0  0  0  0
   -0.2452    1.9908    1.4850 H   0  0  0  0  0  0  0  0  0  0  0  0
   -2.1521    0.8631   -1.0976 H   0  0  0  0  0  0  0  0  0  0  0  0
   -3.1073   -0.3562   -0.0823 H   0  0  0  0  0  0  0  0  0  0  0  0
  1  2  1  0
  2  3  1  0
  3  4  1  0
  4  5  1  0
  5  6  1  0
  6  7  1  0
  6  8  1  0
  8  9  1  0
  7  1  1  0
  9  4  1  0
  1 10  1  0
  1 11  1  0
  2 12  1  0
  2 13  1  0
  3 14  1  0
  3 15  1  0
  4 16  1  0
  5 17  1  0
  5 18  1  0
  6 19  1  0
  7 20  1  0
  7 21  1  0
  8 22  1  0
  8 23  1  0
M  END
