
     RDKit          3D

 19 21  0  0  0  0  0  0  0  0999 V2000
    2.0151    0.6029    0.6144 C   0  0  0  0  0  0  0  0  0  0  0  0
    1.7697   -0.7786   -0.0142 C   0  0  0  0  0  0  0  0  0  0  0  0
    0.4028   -0.2797    0.1298 C   0  0  0  0  0  0  0  0  0  0  0  0
    0.7414    0.4457    1.2186 O   0  0  0  0  0  0  0  0  0  0  0  0
   -0.2713    0.3595   -1.0129 C   0  0  0  0  0  0  0  0  0  0  0  0
   -1.4744    1.0272   -0.3595 C   0  0  0  0  0  0  0  0  0  0  0  0
   -1.9235   -0.1952    0.4642 C   0  0  0  0  0  0  0  0  0  0  0  0
   -0.7665   -1.1265    0.0784 C   0  0  0  0  0  0  0  0  0  0  0  0
   -0.7800   -0.9254   -1.3251 O   0  0  0  0  0  0  0  0  0  0  0  0
    2.8150    0.6384    1.3477 H   0  0  0  0  0  0  0  0  0  0  0  0
    2.0180    1.3541   -0.1939 H   0  0  0  0  0  0  0  0  0  0  0  0
    2.0939   -1.5712    0.6628 H   0  0  0  0  0  0  0  0  0  0  0  0
    2.1114   -0.8666   -1.0505 H   0  0  0  0  0  0  0  0  0  0  0  0
    0.2506    0.8816   -1.7729 H   0  0  0  0  0  0  0  0  0  0  0  0
   -2.2344    1.3395   -1.0740 H   0  0  0  0  0  0  0  0  0  0  0  0
   -1.1734    1.8524    0.2985 H   0  0  0  0  0  0  0  0  0  0  0  0
   -1.9586    0.0140    1.5261 H   0  0  0  0  0  0  0  0  0  0  0  0
   -2.8247   -0.6404    0.0365 H   0  0  0  0  0  0  0  0  0  0  0  0
   -0.8111   -2.1317    0.4261 H   0  0  0  0  0  0  0  0  0  0  0  0
  1  2  1  0
  2  3  1  0
  3  4  1  0
  3  5  1  0
  5  6  1  0
  6  7  1  0
  7  8  1  0
  8  9  1  0
  4  1  1  0
  9  5  1  0
  8  3  1  0
  1 10  1  0
  1 11  1  0
  2 12  1  0
  2 13  1  0
  5 14  1  0
  6 15  1  0
  6 16  1  0
  7 17  1  0
  7 18  1  0
  8 19  1  0
M  END
