
     RDKit          3D

 15 16  0  0  0  0  0  0  0  0999 V2000
   -0.5021   -0.8576   -0.8447 C   0  0  0  0  0  0  0  0  0  0  0  0
   -1.3574   -0.0515    0.1474 C   0  0  0  0  0  0  0  0  0  0  0  0
   -0.4115    0.4371    1.1597 C   0  0  0  0  0  0  0  0  0  0  0  0
    0.1913    1.5742    1.3840 O   0  0  0  0  0  0  0  0  0  0  0  0
    0.6534    1.0914    0.2461 C   0  0  0  0  0  0  0  0  0  0  0  0
    1.5382   -0.0470   -0.0705 C   0  0  0  0  0  0  0  0  0  0  0  0
    0.7509   -1.1610   -0.3481 O   0  0  0  0  0  0  0  0  0  0  0  0
   -0.4743   -0.3734   -1.8359 H   0  0  0  0  0  0  0  0  0  0  0  0
   -1.0332   -1.8240   -0.9779 H   0  0  0  0  0  0  0  0  0  0  0  0
   -1.8659    0.7698   -0.4339 H   0  0  0  0  0  0  0  0  0  0  0  0
   -2.1445   -0.6536    0.5965 H   0  0  0  0  0  0  0  0  0  0  0  0
   -0.0541   -0.3980    1.8348 H   0  0  0  0  0  0  0  0  0  0  0  0
    0.3050    1.6413   -0.6564 H   0  0  0  0  0  0  0  0  0  0  0  0
    2.1704    0.1736   -0.9538 H   0  0  0  0  0  0  0  0  0  0  0  0
    2.2339   -0.3214    0.7525 H   0  0  0  0  0  0  0  0  0  0  0  0
  1  2  1  0
  2  3  1  0
  3  4  1  0
  4  5  1  0
  5  6  1  0
  6  7  1  0
  7  1  1  0
  5  3  1  0
  1  8  1  0
  1  9  1  0
  2 10  1  0
  2 11  1  0
  3 12  1  0
  5 13  1  0
  6 14  1  0
  6 15  1  0
M  END
