
     RDKit          3D

 19 21  0  0  0  0  0  0  0  0999 V2000
   -1.9050    0.1266   -0.6003 C   0  0  0  0  0  0  0  0  0  0  0  0
   -1.1792   -1.2049   -0.4382 C   0  0  0  0  0  0  0  0  0  0  0  0
    0.2691   -0.8219   -0.4024 C   0  0  0  0  0  0  0  0  0  0  0  0
    0.8591   -0.6084    0.9327 C   0  0  0  0  0  0  0  0  0  0  0  0
    2.1788   -0.2273    1.1034 O   0  0  0  0  0  0  0  0  0  0  0  0
    2.4555    0.6542    0.0719 C   0  0  0  0  0  0  0  0  0  0  0  0
    1.2823    1.3891   -0.1542 O   0  0  0  0  0  0  0  0  0  0  0  0
    0.2694    0.5332    0.1812 C   0  0  0  0  0  0  0  0  0  0  0  0
   -1.1260    0.9850    0.4028 C   0  0  0  0  0  0  0  0  0  0  0  0
   -1.6817    0.5494   -1.5914 H   0  0  0  0  0  0  0  0  0  0  0  0
   -2.9669    0.0664   -0.3545 H   0  0  0  0  0  0  0  0  0  0  0  0
   -1.4097   -1.8646   -1.3149 H   0  0  0  0  0  0  0  0  0  0  0  0
   -1.5220   -1.7289    0.4631 H   0  0  0  0  0  0  0  0  0  0  0  0
    0.9258   -1.0977   -1.2629 H   0  0  0  0  0  0  0  0  0  0  0  0
    0.3414   -0.9312    1.8460 H   0  0  0  0  0  0  0  0  0  0  0  0
    2.7610    0.0816   -0.8384 H   0  0  0  0  0  0  0  0  0  0  0  0
    3.2356    1.4006    0.3254 H   0  0  0  0  0  0  0  0  0  0  0  0
   -1.4827    0.6451    1.4084 H   0  0  0  0  0  0  0  0  0  0  0  0
   -1.3047    2.0536    0.2224 H   0  0  0  0  0  0  0  0  0  0  0  0
  1  2  1  0
  2  3  1  0
  3  4  1  0
  4  5  1  0
  5  6  1  0
  6  7  1  0
  7  8  1  0
  8  9  1  0
  9  1  1  0
  8  3  1  0
  8  4  1  0
  1 10  1  0
  1 11  1  0
  2 12  1  0
  2 13  1  0
  3 14  1  0
  4 15  1  0
  6 16  1  0
  6 17  1  0
  9 18  1  0
  9 19  1  0
M  END
