
     RDKit          3D

 18 20  0  0  0  0  0  0  0  0999 V2000
   -1.3291   -0.7422    0.8853 C   0  0  0  0  0  0  0  0  0  0  0  0
   -1.8554   -0.3705   -0.5419 C   0  0  0  0  0  0  0  0  0  0  0  0
   -0.6359    0.1427    0.0240 C   0  0  0  0  0  0  0  0  0  0  0  0
   -0.3508    1.5972    0.2492 C   0  0  0  0  0  0  0  0  0  0  0  0
    0.5573    1.4957   -0.8366 O   0  0  0  0  0  0  0  0  0  0  0  0
    0.6957    0.1864   -0.4914 C   0  0  0  0  0  0  0  0  0  0  0  0
    1.6319   -0.7801   -0.9164 C   0  0  0  0  0  0  0  0  0  0  0  0
    1.9335   -0.0980    0.3751 C   0  0  0  0  0  0  0  0  0  0  0  0
   -1.0205   -1.8196    0.9767 H   0  0  0  0  0  0  0  0  0  0  0  0
   -1.9846   -0.4159    1.7201 H   0  0  0  0  0  0  0  0  0  0  0  0
   -1.9621   -1.1996   -1.2470 H   0  0  0  0  0  0  0  0  0  0  0  0
   -2.7538    0.3048   -0.5322 H   0  0  0  0  0  0  0  0  0  0  0  0
   -1.2193    2.2226    0.0643 H   0  0  0  0  0  0  0  0  0  0  0  0
    0.1887    1.7366    1.2104 H   0  0  0  0  0  0  0  0  0  0  0  0
    1.3625   -1.8555   -0.9391 H   0  0  0  0  0  0  0  0  0  0  0  0
    2.3614   -0.5340   -1.7431 H   0  0  0  0  0  0  0  0  0  0  0  0
    1.6576   -0.5476    1.3436 H   0  0  0  0  0  0  0  0  0  0  0  0
    2.7227    0.6768    0.3992 H   0  0  0  0  0  0  0  0  0  0  0  0
  1  2  1  0
  2  3  1  0
  3  4  1  0
  4  5  1  0
  5  6  1  0
  6  7  1  0
  7  8  1  0
  3  1  1  0
  8  6  1  0
  6  3  1  0
  1  9  1  0
  1 10  1  0
  2 11  1  0
  2 12  1  0
  4 13  1  0
  4 14  1  0
  7 15  1  0
  7 16  1  0
  8 17  1  0
  8 18  1  0
M  END
