
     RDKit          3D

 19 21  0  0  0  0  0  0  0  0999 V2000
   -0.8031    1.0600    0.8404 C   0  0  0  0  0  0  0  0  0  0  0  0
    0.4165    1.2779    0.0027 C   0  0  0  0  0  0  0  0  0  0  0  0
    0.9136   -0.0299   -0.5325 C   0  0  0  0  0  0  0  0  0  0  0  0
    2.3092   -0.4761   -0.1390 C   0  0  0  0  0  0  0  0  0  0  0  0
    1.9712   -0.0842   -1.4152 O   0  0  0  0  0  0  0  0  0  0  0  0
   -0.1120   -1.1236   -0.5038 C   0  0  0  0  0  0  0  0  0  0  0  0
   -1.5060   -0.6545   -0.7551 C   0  0  0  0  0  0  0  0  0  0  0  0
   -1.3981   -0.3126    0.7015 C   0  0  0  0  0  0  0  0  0  0  0  0
   -0.4654   -1.3277    0.8386 O   0  0  0  0  0  0  0  0  0  0  0  0
   -1.5781    1.7981    0.5598 H   0  0  0  0  0  0  0  0  0  0  0  0
   -0.6148    1.2211    1.9316 H   0  0  0  0  0  0  0  0  0  0  0  0
    1.2091    1.6927    0.6867 H   0  0  0  0  0  0  0  0  0  0  0  0
    0.2768    2.0554   -0.7768 H   0  0  0  0  0  0  0  0  0  0  0  0
    2.8240    0.2095    0.5548 H   0  0  0  0  0  0  0  0  0  0  0  0
    2.4746   -1.5422    0.1057 H   0  0  0  0  0  0  0  0  0  0  0  0
    0.2295   -2.0126   -1.0441 H   0  0  0  0  0  0  0  0  0  0  0  0
   -2.1828   -1.5259   -0.9019 H   0  0  0  0  0  0  0  0  0  0  0  0
   -1.6512    0.1695   -1.4565 H   0  0  0  0  0  0  0  0  0  0  0  0
   -2.3131   -0.3950    1.3029 H   0  0  0  0  0  0  0  0  0  0  0  0
  1  2  1  0
  2  3  1  0
  3  4  1  0
  4  5  1  0
  3  6  1  0
  6  7  1  0
  7  8  1  0
  8  9  1  0
  8  1  1  0
  5  3  1  0
  9  6  1  0
  1 10  1  0
  1 11  1  0
  2 12  1  0
  2 13  1  0
  4 14  1  0
  4 15  1  0
  6 16  1  0
  7 17  1  0
  7 18  1  0
  8 19  1  0
M  END
