
     RDKit          3D

 18 20  0  0  0  0  0  0  0  0999 V2000
    1.9461   -0.0289    0.5430 C   0  0  0  0  0  0  0  0  0  0  0  0
    1.7375    0.0370   -0.9459 C   0  0  0  0  0  0  0  0  0  0  0  0
    0.7369   -0.6579   -0.1331 C   0  0  0  0  0  0  0  0  0  0  0  0
   -0.5637   -0.0315    0.2662 C   0  0  0  0  0  0  0  0  0  0  0  0
   -0.8641    1.3994    0.0400 C   0  0  0  0  0  0  0  0  0  0  0  0
   -2.0351    1.0004   -0.6461 O   0  0  0  0  0  0  0  0  0  0  0  0
   -1.7775   -0.3622   -0.5340 C   0  0  0  0  0  0  0  0  0  0  0  0
   -1.6415   -0.8730    0.8449 C   0  0  0  0  0  0  0  0  0  0  0  0
    1.8165    0.9184    1.1000 H   0  0  0  0  0  0  0  0  0  0  0  0
    2.7221   -0.6815    0.9694 H   0  0  0  0  0  0  0  0  0  0  0  0
    2.3737   -0.5846   -1.6064 H   0  0  0  0  0  0  0  0  0  0  0  0
    1.4921    1.0202   -1.4039 H   0  0  0  0  0  0  0  0  0  0  0  0
    0.7533   -1.7674   -0.1288 H   0  0  0  0  0  0  0  0  0  0  0  0
   -0.2034    1.9821   -0.6044 H   0  0  0  0  0  0  0  0  0  0  0  0
   -1.1126    1.9275    0.9892 H   0  0  0  0  0  0  0  0  0  0  0  0
   -1.6864   -0.9795   -1.4241 H   0  0  0  0  0  0  0  0  0  0  0  0
   -2.3322   -0.4113    1.5994 H   0  0  0  0  0  0  0  0  0  0  0  0
   -1.3616   -1.9071    1.0746 H   0  0  0  0  0  0  0  0  0  0  0  0
  1  2  1  0
  2  3  1  0
  3  4  1  0
  4  5  1  0
  5  6  1  0
  6  7  1  0
  7  8  1  0
  3  1  1  0
  7  4  1  0
  8  4  1  0
  1  9  1  0
  1 10  1  0
  2 11  1  0
  2 12  1  0
  3 13  1  0
  5 14  1  0
  5 15  1  0
  7 16  1  0
  8 17  1  0
  8 18  1  0
M  END
