
     RDKit          3D

 21 23  0  0  0  0  0  0  0  0999 V2000
   -1.9578   -0.6277    0.2939 C   0  0  0  0  0  0  0  0  0  0  0  0
   -1.4438    0.7370    0.7723 C   0  0  0  0  0  0  0  0  0  0  0  0
   -0.3549    1.0217   -0.2410 C   0  0  0  0  0  0  0  0  0  0  0  0
   -0.9420    0.4490   -1.3989 O   0  0  0  0  0  0  0  0  0  0  0  0
   -1.0996   -0.8682   -0.9064 C   0  0  0  0  0  0  0  0  0  0  0  0
    0.2949   -1.2270   -0.4006 C   0  0  0  0  0  0  0  0  0  0  0  0
    0.8404    0.1314   -0.0821 C   0  0  0  0  0  0  0  0  0  0  0  0
    1.8977    0.3235    0.8839 C   0  0  0  0  0  0  0  0  0  0  0  0
    2.1099    0.6380   -0.5938 C   0  0  0  0  0  0  0  0  0  0  0  0
   -1.7484   -1.3901    1.0602 H   0  0  0  0  0  0  0  0  0  0  0  0
   -3.0047   -0.5798   -0.0316 H   0  0  0  0  0  0  0  0  0  0  0  0
   -2.2599    1.4513    0.6032 H   0  0  0  0  0  0  0  0  0  0  0  0
   -1.0667    0.6997    1.7977 H   0  0  0  0  0  0  0  0  0  0  0  0
   -0.1245    2.0719   -0.3651 H   0  0  0  0  0  0  0  0  0  0  0  0
   -1.4875   -1.5555   -1.6400 H   0  0  0  0  0  0  0  0  0  0  0  0
    0.2214   -1.8194    0.5579 H   0  0  0  0  0  0  0  0  0  0  0  0
    0.8492   -1.7852   -1.1523 H   0  0  0  0  0  0  0  0  0  0  0  0
    1.8234    1.1345    1.6079 H   0  0  0  0  0  0  0  0  0  0  0  0
    2.4684   -0.6015    1.1933 H   0  0  0  0  0  0  0  0  0  0  0  0
    2.8057    0.0459   -1.1837 H   0  0  0  0  0  0  0  0  0  0  0  0
    2.1789    1.7505   -0.7749 H   0  0  0  0  0  0  0  0  0  0  0  0
  1  2  1  0
  2  3  1  0
  3  4  1  0
  4  5  1  0
  5  6  1  0
  6  7  1  0
  7  8  1  0
  8  9  1  0
  5  1  1  0
  9  7  1  0
  7  3  1  0
  1 10  1  0
  1 11  1  0
  2 12  1  0
  2 13  1  0
  3 14  1  0
  5 15  1  0
  6 16  1  0
  6 17  1  0
  8 18  1  0
  8 19  1  0
  9 20  1  0
  9 21  1  0
M  END
