
     RDKit          3D

 21 23  0  0  0  0  0  0  0  0999 V2000
   -1.8436    0.3954    0.9769 C   0  0  0  0  0  0  0  0  0  0  0  0
   -1.9840   -0.4622   -0.2405 C   0  0  0  0  0  0  0  0  0  0  0  0
   -0.7786   -0.2433   -1.1057 C   0  0  0  0  0  0  0  0  0  0  0  0
    0.1109   -1.2944   -0.9791 O   0  0  0  0  0  0  0  0  0  0  0  0
    1.0253   -0.4416   -0.4419 C   0  0  0  0  0  0  0  0  0  0  0  0
    2.4443   -0.3927   -0.8243 C   0  0  0  0  0  0  0  0  0  0  0  0
    2.0153   -0.7899    0.5707 C   0  0  0  0  0  0  0  0  0  0  0  0
    0.1264    0.7218   -0.3996 C   0  0  0  0  0  0  0  0  0  0  0  0
   -0.5098    1.0820    0.9070 C   0  0  0  0  0  0  0  0  0  0  0  0
   -1.9185   -0.1792    1.9317 H   0  0  0  0  0  0  0  0  0  0  0  0
   -2.6991    1.1172    1.0076 H   0  0  0  0  0  0  0  0  0  0  0  0
   -2.1164   -1.5321    0.0631 H   0  0  0  0  0  0  0  0  0  0  0  0
   -2.8770   -0.1722   -0.8509 H   0  0  0  0  0  0  0  0  0  0  0  0
   -0.9810    0.1054   -2.1367 H   0  0  0  0  0  0  0  0  0  0  0  0
    2.8832    0.5963   -1.0103 H   0  0  0  0  0  0  0  0  0  0  0  0
    2.7854   -1.2208   -1.4969 H   0  0  0  0  0  0  0  0  0  0  0  0
    2.1511   -0.0642    1.4050 H   0  0  0  0  0  0  0  0  0  0  0  0
    2.2411   -1.8320    0.8829 H   0  0  0  0  0  0  0  0  0  0  0  0
    0.5043    1.5727   -0.9868 H   0  0  0  0  0  0  0  0  0  0  0  0
    0.1330    0.8513    1.7789 H   0  0  0  0  0  0  0  0  0  0  0  0
   -0.7124    2.1825    0.9490 H   0  0  0  0  0  0  0  0  0  0  0  0
  1  2  1  0
  2  3  1  0
  3  4  1  0
  4  5  1  0
  5  6  1  0
  6  7  1  0
  5  8  1  0
  8  9  1  0
  9  1  1  0
  8  3  1  0
  7  5  1  0
  1 10  1  0
  1 11  1  0
  2 12  1  0
  2 13  1  0
  3 14  1  0
  6 15  1  0
  6 16  1  0
  7 17  1  0
  7 18  1  0
  8 19  1  0
  9 20  1  0
  9 21  1  0
M  END
