
     RDKit          3D

 19 21  0  0  0  0  0  0  0  0999 V2000
    1.8702   -0.4473   -1.0338 C   0  0  0  0  0  0  0  0  0  0  0  0
    2.1884   -0.3913    0.4369 C   0  0  0  0  0  0  0  0  0  0  0  0
    1.4631    0.7278   -0.2753 C   0  0  0  0  0  0  0  0  0  0  0  0
    0.0941    1.0361    0.2032 C   0  0  0  0  0  0  0  0  0  0  0  0
   -0.8282    1.1425   -0.9597 O   0  0  0  0  0  0  0  0  0  0  0  0
   -0.9769    0.2402    0.2126 C   0  0  0  0  0  0  0  0  0  0  0  0
   -2.3690    0.4040    0.7368 C   0  0  0  0  0  0  0  0  0  0  0  0
   -2.7929   -0.4823   -0.2494 O   0  0  0  0  0  0  0  0  0  0  0  0
   -1.4934   -1.0470   -0.1805 C   0  0  0  0  0  0  0  0  0  0  0  0
    1.1255   -1.2043   -1.2924 H   0  0  0  0  0  0  0  0  0  0  0  0
    2.7336   -0.3724   -1.7583 H   0  0  0  0  0  0  0  0  0  0  0  0
    1.5932   -0.9824    1.1554 H   0  0  0  0  0  0  0  0  0  0  0  0
    3.2458   -0.3275    0.6745 H   0  0  0  0  0  0  0  0  0  0  0  0
    2.1480    1.6310   -0.3885 H   0  0  0  0  0  0  0  0  0  0  0  0
    0.0274    2.0387    0.7394 H   0  0  0  0  0  0  0  0  0  0  0  0
   -2.7979    1.4392    0.6417 H   0  0  0  0  0  0  0  0  0  0  0  0
   -2.5152   -0.0575    1.7363 H   0  0  0  0  0  0  0  0  0  0  0  0
   -1.1929   -1.5749   -1.0844 H   0  0  0  0  0  0  0  0  0  0  0  0
   -1.5228   -1.7729    0.6854 H   0  0  0  0  0  0  0  0  0  0  0  0
  1  2  1  0
  2  3  1  0
  3  4  1  0
  4  5  1  0
  5  6  1  0
  6  7  1  0
  7  8  1  0
  8  9  1  0
  3  1  1  0
  6  4  1  0
  9  6  1  0
  1 10  1  0
  1 11  1  0
  2 12  1  0
  2 13  1  0
  3 14  1  0
  4 15  1  0
  7 16  1  0
  7 17  1  0
  9 18  1  0
  9 19  1  0
M  END
