
     RDKit          3D

 20 21  0  0  0  0  0  0  0  0999 V2000
   -1.8341    0.1128   -0.0505 C   0  0  0  0  0  0  0  0  0  0  0  0
   -0.9508    1.3109    0.1723 C   0  0  0  0  0  0  0  0  0  0  0  0
    0.2948    1.0886   -0.6985 C   0  0  0  0  0  0  0  0  0  0  0  0
    1.0634   -0.0183   -0.0585 C   0  0  0  0  0  0  0  0  0  0  0  0
    0.2573   -1.2739   -0.1136 C   0  0  0  0  0  0  0  0  0  0  0  0
   -1.1289   -1.1267    0.4409 C   0  0  0  0  0  0  0  0  0  0  0  0
    2.4756   -0.0592    0.0156 C   0  0  0  0  0  0  0  0  0  0  0  0
    1.6320    0.3582    1.1877 O   0  0  0  0  0  0  0  0  0  0  0  0
   -2.7898    0.1809    0.5210 H   0  0  0  0  0  0  0  0  0  0  0  0
   -2.0062    0.0357   -1.1484 H   0  0  0  0  0  0  0  0  0  0  0  0
   -0.6037    1.2499    1.2404 H   0  0  0  0  0  0  0  0  0  0  0  0
   -1.4476    2.2605   -0.0620 H   0  0  0  0  0  0  0  0  0  0  0  0
    0.8298    2.0591   -0.6939 H   0  0  0  0  0  0  0  0  0  0  0  0
   -0.0020    0.8868   -1.7378 H   0  0  0  0  0  0  0  0  0  0  0  0
    0.1556   -1.5565   -1.1925 H   0  0  0  0  0  0  0  0  0  0  0  0
    0.7344   -2.1281    0.4054 H   0  0  0  0  0  0  0  0  0  0  0  0
   -1.1500   -1.0931    1.5525 H   0  0  0  0  0  0  0  0  0  0  0  0
   -1.6954   -2.0458    0.1538 H   0  0  0  0  0  0  0  0  0  0  0  0
    2.9865   -0.9910    0.3452 H   0  0  0  0  0  0  0  0  0  0  0  0
    3.1790    0.7492   -0.2793 H   0  0  0  0  0  0  0  0  0  0  0  0
  1  2  1  0
  2  3  1  0
  3  4  1  0
  4  5  1  0
  5  6  1  0
  4  7  1  0
  7  8  1  0
  6  1  1  0
  8  4  1  0
  1  9  1  0
  1 10  1  0
  2 11  1  0
  2 12  1  0
  3 13  1  0
  3 14  1  0
  5 15  1  0
  5 16  1  0
  6 17  1  0
  6 18  1  0
  7 19  1  0
  7 20  1  0
M  END
