
     RDKit          3D

 16 18  0  0  0  0  0  0  0  0999 V2000
    1.9620   -0.4473    0.2415 C   0  0  0  0  0  0  0  0  0  0  0  0
    1.1857    0.7958   -0.1552 C   0  0  0  0  0  0  0  0  0  0  0  0
    0.0771   -0.1545   -0.0627 C   0  0  0  0  0  0  0  0  0  0  0  0
   -0.9686    0.0430    0.9817 C   0  0  0  0  0  0  0  0  0  0  0  0
   -1.9760   -0.2246   -0.1494 C   0  0  0  0  0  0  0  0  0  0  0  0
   -2.0143    0.7956   -1.0637 O   0  0  0  0  0  0  0  0  0  0  0  0
   -0.9965   -0.1173   -1.1092 C   0  0  0  0  0  0  0  0  0  0  0  0
    0.8415   -1.2687   -0.0161 O   0  0  0  0  0  0  0  0  0  0  0  0
    2.8057   -0.6354   -0.4376 H   0  0  0  0  0  0  0  0  0  0  0  0
    2.1867   -0.4167    1.3182 H   0  0  0  0  0  0  0  0  0  0  0  0
    1.3621    1.1072   -1.2242 H   0  0  0  0  0  0  0  0  0  0  0  0
    1.2232    1.6205    0.5706 H   0  0  0  0  0  0  0  0  0  0  0  0
   -1.0569    1.0924    1.3816 H   0  0  0  0  0  0  0  0  0  0  0  0
   -1.0146   -0.6996    1.7765 H   0  0  0  0  0  0  0  0  0  0  0  0
   -2.7969   -0.9092    0.0243 H   0  0  0  0  0  0  0  0  0  0  0  0
   -0.8201   -0.5812   -2.0762 H   0  0  0  0  0  0  0  0  0  0  0  0
  1  2  1  0
  2  3  1  0
  3  4  1  0
  4  5  1  0
  5  6  1  0
  6  7  1  0
  3  8  1  0
  8  1  1  0
  7  3  1  0
  7  5  1  0
  1  9  1  0
  1 10  1  0
  2 11  1  0
  2 12  1  0
  4 13  1  0
  4 14  1  0
  5 15  1  0
  7 16  1  0
M  END
