
     RDKit          3D

 19 21  0  0  0  0  0  0  0  0999 V2000
    2.0081    0.4066    0.3147 C   0  0  0  0  0  0  0  0  0  0  0  0
    1.4167   -0.7789   -0.4772 C   0  0  0  0  0  0  0  0  0  0  0  0
    0.0339   -0.4880   -0.4312 C   0  0  0  0  0  0  0  0  0  0  0  0
   -0.8991   -1.1236    0.5513 C   0  0  0  0  0  0  0  0  0  0  0  0
   -1.8204   -0.2956   -0.3136 C   0  0  0  0  0  0  0  0  0  0  0  0
   -1.4443    1.1054    0.1899 C   0  0  0  0  0  0  0  0  0  0  0  0
    0.0165    1.0236   -0.1114 C   0  0  0  0  0  0  0  0  0  0  0  0
    0.8840    1.0212    0.9303 O   0  0  0  0  0  0  0  0  0  0  0  0
   -0.9089   -0.5659   -1.3639 O   0  0  0  0  0  0  0  0  0  0  0  0
    2.3565    1.1162   -0.4557 H   0  0  0  0  0  0  0  0  0  0  0  0
    2.7540    0.0909    1.0332 H   0  0  0  0  0  0  0  0  0  0  0  0
    1.9253   -0.9029   -1.4452 H   0  0  0  0  0  0  0  0  0  0  0  0
    1.6855   -1.6789    0.1363 H   0  0  0  0  0  0  0  0  0  0  0  0
   -0.8432   -0.7979    1.5922 H   0  0  0  0  0  0  0  0  0  0  0  0
   -1.0088   -2.1871    0.3504 H   0  0  0  0  0  0  0  0  0  0  0  0
   -2.8311   -0.5484   -0.4286 H   0  0  0  0  0  0  0  0  0  0  0  0
   -1.6747    1.0950    1.2744 H   0  0  0  0  0  0  0  0  0  0  0  0
   -1.9832    1.8911   -0.3679 H   0  0  0  0  0  0  0  0  0  0  0  0
    0.3332    1.6170   -0.9779 H   0  0  0  0  0  0  0  0  0  0  0  0
  1  2  1  0
  2  3  1  0
  3  4  1  0
  4  5  1  0
  5  6  1  0
  6  7  1  0
  7  8  1  0
  5  9  1  0
  8  1  1  0
  7  3  1  0
  9  3  1  0
  1 10  1  0
  1 11  1  0
  2 12  1  0
  2 13  1  0
  4 14  1  0
  4 15  1  0
  5 16  1  0
  6 17  1  0
  6 18  1  0
  7 19  1  0
M  END
