
     RDKit          3D

 21 23  0  0  0  0  0  0  0  0999 V2000
    1.3061    1.0533   -0.0062 C   0  0  0  0  0  0  0  0  0  0  0  0
    1.4717   -0.4141   -0.4180 C   0  0  0  0  0  0  0  0  0  0  0  0
    0.7389   -1.2512    0.5621 C   0  0  0  0  0  0  0  0  0  0  0  0
    0.6918   -0.5595    1.7883 O   0  0  0  0  0  0  0  0  0  0  0  0
   -0.4698    0.0706    1.3364 C   0  0  0  0  0  0  0  0  0  0  0  0
   -0.1721    1.1958    0.3720 C   0  0  0  0  0  0  0  0  0  0  0  0
   -0.9605    0.8621   -0.8740 C   0  0  0  0  0  0  0  0  0  0  0  0
   -1.3252   -0.5875   -0.7771 C   0  0  0  0  0  0  0  0  0  0  0  0
   -0.7390   -1.1320    0.4853 C   0  0  0  0  0  0  0  0  0  0  0  0
    1.9608    1.2889    0.8413 H   0  0  0  0  0  0  0  0  0  0  0  0
    1.5594    1.7383   -0.8281 H   0  0  0  0  0  0  0  0  0  0  0  0
    2.5361   -0.6909   -0.4505 H   0  0  0  0  0  0  0  0  0  0  0  0
    1.0301   -0.5551   -1.4141 H   0  0  0  0  0  0  0  0  0  0  0  0
    1.1317   -2.2929    0.6787 H   0  0  0  0  0  0  0  0  0  0  0  0
   -1.2382    0.2677    2.0833 H   0  0  0  0  0  0  0  0  0  0  0  0
   -0.4144    2.1850    0.7507 H   0  0  0  0  0  0  0  0  0  0  0  0
   -1.8558    1.5267   -0.8840 H   0  0  0  0  0  0  0  0  0  0  0  0
   -0.3848    1.0302   -1.8010 H   0  0  0  0  0  0  0  0  0  0  0  0
   -1.0848   -1.1647   -1.6805 H   0  0  0  0  0  0  0  0  0  0  0  0
   -2.4417   -0.6400   -0.6687 H   0  0  0  0  0  0  0  0  0  0  0  0
   -1.3401   -1.9307    0.9042 H   0  0  0  0  0  0  0  0  0  0  0  0
  1  2  1  0
  2  3  1  0
  3  4  1  0
  4  5  1  0
  5  6  1  0
  6  7  1  0
  7  8  1  0
  8  9  1  0
  6  1  1  0
  9  3  1  0
  9  5  1  0
  1 10  1  0
  1 11  1  0
  2 12  1  0
  2 13  1  0
  3 14  1  0
  5 15  1  0
  6 16  1  0
  7 17  1  0
  7 18  1  0
  8 19  1  0
  8 20  1  0
  9 21  1  0
M  END
