
     RDKit          3D

 18 19  0  0  0  0  0  0  0  0999 V2000
   -1.2791    1.2600   -0.2792 C   0  0  0  0  0  0  0  0  0  0  0  0
    0.2494    1.2652   -0.3159 C   0  0  0  0  0  0  0  0  0  0  0  0
    0.7073    0.1884    0.6197 C   0  0  0  0  0  0  0  0  0  0  0  0
    1.9205   -0.5274    0.0894 C   0  0  0  0  0  0  0  0  0  0  0  0
    1.0479   -1.2745   -0.7281 O   0  0  0  0  0  0  0  0  0  0  0  0
    0.0816   -1.1129    0.2425 C   0  0  0  0  0  0  0  0  0  0  0  0
   -1.3289   -1.0360   -0.1993 C   0  0  0  0  0  0  0  0  0  0  0  0
   -1.6692    0.0830   -0.9151 O   0  0  0  0  0  0  0  0  0  0  0  0
   -1.7186    2.1260   -0.7671 H   0  0  0  0  0  0  0  0  0  0  0  0
   -1.5863    1.2234    0.8058 H   0  0  0  0  0  0  0  0  0  0  0  0
    0.5199    0.9264   -1.3535 H   0  0  0  0  0  0  0  0  0  0  0  0
    0.6765    2.2472   -0.1406 H   0  0  0  0  0  0  0  0  0  0  0  0
    0.7012    0.4127    1.6895 H   0  0  0  0  0  0  0  0  0  0  0  0
    2.4443   -1.1054    0.8597 H   0  0  0  0  0  0  0  0  0  0  0  0
    2.5455    0.1982   -0.4896 H   0  0  0  0  0  0  0  0  0  0  0  0
    0.2176   -1.8612    1.0462 H   0  0  0  0  0  0  0  0  0  0  0  0
   -1.9848   -1.0900    0.6945 H   0  0  0  0  0  0  0  0  0  0  0  0
   -1.5446   -1.9232   -0.8588 H   0  0  0  0  0  0  0  0  0  0  0  0
  1  2  1  0
  2  3  1  0
  3  4  1  0
  4  5  1  0
  5  6  1  0
  6  7  1  0
  7  8  1  0
  8  1  1  0
  6  3  1  0
  1  9  1  0
  1 10  1  0
  2 11  1  0
  2 12  1  0
  3 13  1  0
  4 14  1  0
  4 15  1  0
  6 16  1  0
  7 17  1  0
  7 18  1  0
M  END
