
     RDKit          3D

 19 21  0  0  0  0  0  0  0  0999 V2000
   -1.1147   -1.1984   -0.0097 C   0  0  0  0  0  0  0  0  0  0  0  0
   -1.4826    0.1566   -0.4910 C   0  0  0  0  0  0  0  0  0  0  0  0
   -0.4774    1.2238   -0.2007 C   0  0  0  0  0  0  0  0  0  0  0  0
    0.9626    1.0408   -0.2865 C   0  0  0  0  0  0  0  0  0  0  0  0
    1.6402   -0.2277   -0.6517 C   0  0  0  0  0  0  0  0  0  0  0  0
    1.2162   -1.3448   -0.0003 O   0  0  0  0  0  0  0  0  0  0  0  0
    0.1426   -1.2073    0.8205 C   0  0  0  0  0  0  0  0  0  0  0  0
    0.1924   -0.1320    1.6802 O   0  0  0  0  0  0  0  0  0  0  0  0
    0.2979    1.0660    1.0317 C   0  0  0  0  0  0  0  0  0  0  0  0
   -1.9823   -1.6679    0.5185 H   0  0  0  0  0  0  0  0  0  0  0  0
   -0.9149   -1.8937   -0.8777 H   0  0  0  0  0  0  0  0  0  0  0  0
   -2.4746    0.4588   -0.0456 H   0  0  0  0  0  0  0  0  0  0  0  0
   -1.6320    0.1217   -1.5903 H   0  0  0  0  0  0  0  0  0  0  0  0
   -0.8868    2.2623   -0.3763 H   0  0  0  0  0  0  0  0  0  0  0  0
    1.5776    1.9617   -0.5133 H   0  0  0  0  0  0  0  0  0  0  0  0
    2.7393   -0.1029   -0.4135 H   0  0  0  0  0  0  0  0  0  0  0  0
    1.6309   -0.3279   -1.7775 H   0  0  0  0  0  0  0  0  0  0  0  0
    0.0847   -2.1315    1.4652 H   0  0  0  0  0  0  0  0  0  0  0  0
    0.4806    1.9423    1.7181 H   0  0  0  0  0  0  0  0  0  0  0  0
  1  2  1  0
  2  3  1  0
  3  4  1  0
  4  5  1  0
  5  6  1  0
  6  7  1  0
  7  8  1  0
  8  9  1  0
  7  1  1  0
  9  3  1  0
  9  4  1  0
  1 10  1  0
  1 11  1  0
  2 12  1  0
  2 13  1  0
  3 14  1  0
  4 15  1  0
  5 16  1  0
  5 17  1  0
  7 18  1  0
  9 19  1  0
M  END
