
     RDKit          3D

 21 23  0  0  0  0  0  0  0  0999 V2000
    1.6060   -1.0708    0.6242 C   0  0  0  0  0  0  0  0  0  0  0  0
    0.7969   -1.6796   -0.4838 C   0  0  0  0  0  0  0  0  0  0  0  0
    0.6603   -0.2555   -0.1259 C   0  0  0  0  0  0  0  0  0  0  0  0
    1.1982    0.8320   -1.0602 C   0  0  0  0  0  0  0  0  0  0  0  0
    0.2427    1.8419   -1.0579 O   0  0  0  0  0  0  0  0  0  0  0  0
   -0.3035    1.8344    0.2432 C   0  0  0  0  0  0  0  0  0  0  0  0
   -0.5633    0.3593    0.3969 C   0  0  0  0  0  0  0  0  0  0  0  0
   -1.6302   -0.2254    1.1435 C   0  0  0  0  0  0  0  0  0  0  0  0
   -1.8523   -0.0892   -0.3161 C   0  0  0  0  0  0  0  0  0  0  0  0
    2.6940   -0.9567    0.3609 H   0  0  0  0  0  0  0  0  0  0  0  0
    1.4626   -1.4380    1.6445 H   0  0  0  0  0  0  0  0  0  0  0  0
   -0.0477   -2.3346   -0.1389 H   0  0  0  0  0  0  0  0  0  0  0  0
    1.2504   -1.8841   -1.4634 H   0  0  0  0  0  0  0  0  0  0  0  0
    1.3059    0.3773   -2.0656 H   0  0  0  0  0  0  0  0  0  0  0  0
    2.1246    1.2350   -0.6489 H   0  0  0  0  0  0  0  0  0  0  0  0
   -1.2656    2.3558    0.2721 H   0  0  0  0  0  0  0  0  0  0  0  0
    0.4273    2.2195    0.9741 H   0  0  0  0  0  0  0  0  0  0  0  0
   -1.5104   -1.2442    1.5576 H   0  0  0  0  0  0  0  0  0  0  0  0
   -2.2588    0.4286    1.7894 H   0  0  0  0  0  0  0  0  0  0  0  0
   -1.7876   -0.9767   -0.9775 H   0  0  0  0  0  0  0  0  0  0  0  0
   -2.5496    0.6710   -0.6682 H   0  0  0  0  0  0  0  0  0  0  0  0
  1  2  1  0
  2  3  1  0
  3  4  1  0
  4  5  1  0
  5  6  1  0
  6  7  1  0
  7  8  1  0
  8  9  1  0
  3  1  1  0
  9  7  1  0
  7  3  1  0
  1 10  1  0
  1 11  1  0
  2 12  1  0
  2 13  1  0
  4 14  1  0
  4 15  1  0
  6 16  1  0
  6 17  1  0
  8 18  1  0
  8 19  1  0
  9 20  1  0
  9 21  1  0
M  END
