
     RDKit          3D

 21 23  0  0  0  0  0  0  0  0999 V2000
   -1.9535   -0.1596   -0.3338 C   0  0  0  0  0  0  0  0  0  0  0  0
   -0.9888    1.0091   -0.5862 C   0  0  0  0  0  0  0  0  0  0  0  0
   -0.0213    0.8581    0.5104 C   0  0  0  0  0  0  0  0  0  0  0  0
    1.4178    1.1956    0.2056 C   0  0  0  0  0  0  0  0  0  0  0  0
    1.9795   -0.2077    0.3749 C   0  0  0  0  0  0  0  0  0  0  0  0
    1.1085   -0.9575   -0.6353 C   0  0  0  0  0  0  0  0  0  0  0  0
    0.1598   -0.6742    0.4913 C   0  0  0  0  0  0  0  0  0  0  0  0
   -1.1602   -1.1633    0.5233 C   0  0  0  0  0  0  0  0  0  0  0  0
    1.1682   -0.8341    1.3526 O   0  0  0  0  0  0  0  0  0  0  0  0
   -2.8068    0.1526    0.2737 H   0  0  0  0  0  0  0  0  0  0  0  0
   -2.2057   -0.5767   -1.3160 H   0  0  0  0  0  0  0  0  0  0  0  0
   -1.5678    1.9635   -0.4214 H   0  0  0  0  0  0  0  0  0  0  0  0
   -0.5529    0.9807   -1.5804 H   0  0  0  0  0  0  0  0  0  0  0  0
   -0.3643    1.2004    1.4811 H   0  0  0  0  0  0  0  0  0  0  0  0
    1.8610    1.9175    0.8919 H   0  0  0  0  0  0  0  0  0  0  0  0
    1.4455    1.5171   -0.8662 H   0  0  0  0  0  0  0  0  0  0  0  0
    3.0159   -0.3718    0.3827 H   0  0  0  0  0  0  0  0  0  0  0  0
    0.9947   -0.3803   -1.5488 H   0  0  0  0  0  0  0  0  0  0  0  0
    1.3336   -2.0154   -0.6989 H   0  0  0  0  0  0  0  0  0  0  0  0
   -1.2659   -2.1540   -0.0081 H   0  0  0  0  0  0  0  0  0  0  0  0
   -1.5974   -1.3000    1.5078 H   0  0  0  0  0  0  0  0  0  0  0  0
  1  2  1  0
  2  3  1  0
  3  4  1  0
  4  5  1  0
  5  6  1  0
  6  7  1  0
  7  8  1  0
  7  9  1  0
  8  1  1  0
  7  3  1  0
  9  5  1  0
  1 10  1  0
  1 11  1  0
  2 12  1  0
  2 13  1  0
  3 14  1  0
  4 15  1  0
  4 16  1  0
  5 17  1  0
  6 18  1  0
  6 19  1  0
  8 20  1  0
  8 21  1  0
M  END
