
     RDKit          3D

 23 24  0  0  0  0  0  0  0  0999 V2000
    2.4109    0.1738    0.0946 C   0  0  0  0  0  0  0  0  0  0  0  0
    1.5031   -0.0124   -1.0996 C   0  0  0  0  0  0  0  0  0  0  0  0
    0.3139   -0.0290   -0.2083 C   0  0  0  0  0  0  0  0  0  0  0  0
    1.2175   -0.0094    0.9879 C   0  0  0  0  0  0  0  0  0  0  0  0
   -0.5094   -1.2828   -0.2837 C   0  0  0  0  0  0  0  0  0  0  0  0
   -1.8507   -1.1660    0.3592 C   0  0  0  0  0  0  0  0  0  0  0  0
   -2.0258   -0.0284    1.1172 O   0  0  0  0  0  0  0  0  0  0  0  0
   -1.7913    1.1477    0.4651 C   0  0  0  0  0  0  0  0  0  0  0  0
   -0.5721    1.1587   -0.4040 C   0  0  0  0  0  0  0  0  0  0  0  0
    2.8895    1.1687    0.1815 H   0  0  0  0  0  0  0  0  0  0  0  0
    3.1850   -0.6059    0.1430 H   0  0  0  0  0  0  0  0  0  0  0  0
    1.6123    0.8886   -1.7653 H   0  0  0  0  0  0  0  0  0  0  0  0
    1.7071   -0.9072   -1.7069 H   0  0  0  0  0  0  0  0  0  0  0  0
    1.2271   -0.9890    1.5251 H   0  0  0  0  0  0  0  0  0  0  0  0
    1.0592    0.8231    1.6861 H   0  0  0  0  0  0  0  0  0  0  0  0
    0.1060   -2.0946    0.1958 H   0  0  0  0  0  0  0  0  0  0  0  0
   -0.6294   -1.6085   -1.3437 H   0  0  0  0  0  0  0  0  0  0  0  0
   -2.6612   -1.3121   -0.4033 H   0  0  0  0  0  0  0  0  0  0  0  0
   -1.9712   -2.0365    1.0702 H   0  0  0  0  0  0  0  0  0  0  0  0
   -1.6239    1.9356    1.2582 H   0  0  0  0  0  0  0  0  0  0  0  0
   -2.6766    1.5287   -0.1074 H   0  0  0  0  0  0  0  0  0  0  0  0
   -0.9216    1.1392   -1.4681 H   0  0  0  0  0  0  0  0  0  0  0  0
    0.0014    2.1179   -0.2934 H   0  0  0  0  0  0  0  0  0  0  0  0
  1  2  1  0
  2  3  1  0
  3  4  1  0
  3  5  1  0
  5  6  1  0
  6  7  1  0
  7  8  1  0
  8  9  1  0
  4  1  1  0
  9  3  1  0
  1 10  1  0
  1 11  1  0
  2 12  1  0
  2 13  1  0
  4 14  1  0
  4 15  1  0
  5 16  1  0
  5 17  1  0
  6 18  1  0
  6 19  1  0
  8 20  1  0
  8 21  1  0
  9 22  1  0
  9 23  1  0
M  END
