
     RDKit          3D

 17 20  0  0  0  0  0  0  0  0999 V2000
    1.8759    0.3145   -0.4690 C   0  0  0  0  0  0  0  0  0  0  0  0
    1.3906   -0.5972    0.6702 C   0  0  0  0  0  0  0  0  0  0  0  0
    0.4833    0.2052   -0.1376 C   0  0  0  0  0  0  0  0  0  0  0  0
   -0.5363   -0.4960   -1.0466 C   0  0  0  0  0  0  0  0  0  0  0  0
   -1.5982    0.2434   -1.5365 O   0  0  0  0  0  0  0  0  0  0  0  0
   -1.8704   -0.2740   -0.3112 C   0  0  0  0  0  0  0  0  0  0  0  0
   -1.4052    0.2537    0.9795 C   0  0  0  0  0  0  0  0  0  0  0  0
   -1.1270    1.4389    1.4479 O   0  0  0  0  0  0  0  0  0  0  0  0
   -0.3944    1.2838    0.3778 C   0  0  0  0  0  0  0  0  0  0  0  0
    2.4265    1.2376   -0.1664 H   0  0  0  0  0  0  0  0  0  0  0  0
    2.2534   -0.1760   -1.3827 H   0  0  0  0  0  0  0  0  0  0  0  0
    1.3960   -1.7034    0.4488 H   0  0  0  0  0  0  0  0  0  0  0  0
    1.6111   -0.3212    1.6992 H   0  0  0  0  0  0  0  0  0  0  0  0
   -0.2993   -1.4769   -1.4422 H   0  0  0  0  0  0  0  0  0  0  0  0
   -2.4584   -1.2365   -0.2380 H   0  0  0  0  0  0  0  0  0  0  0  0
   -0.9374   -0.5674    1.6111 H   0  0  0  0  0  0  0  0  0  0  0  0
   -0.8103    1.8715   -0.5043 H   0  0  0  0  0  0  0  0  0  0  0  0
  1  2  1  0
  2  3  1  0
  3  4  1  0
  4  5  1  0
  5  6  1  0
  6  7  1  0
  7  8  1  0
  8  9  1  0
  3  1  1  0
  6  4  1  0
  9  7  1  0
  9  3  1  0
  1 10  1  0
  1 11  1  0
  2 12  1  0
  2 13  1  0
  4 14  1  0
  6 15  1  0
  7 16  1  0
  9 17  1  0
M  END
