
     RDKit          3D

 21 22  0  0  0  0  0  0  0  0999 V2000
    2.7533   -0.4409   -0.0277 C   0  0  0  0  0  0  0  0  0  0  0  0
    1.9410    0.8263    0.1630 C   0  0  0  0  0  0  0  0  0  0  0  0
    0.7293    0.0121   -0.1323 C   0  0  0  0  0  0  0  0  0  0  0  0
   -0.5343    0.1283    0.1066 C   0  0  0  0  0  0  0  0  0  0  0  0
   -1.5890   -0.8312   -0.2925 C   0  0  0  0  0  0  0  0  0  0  0  0
   -2.8252   -0.0352    0.1390 C   0  0  0  0  0  0  0  0  0  0  0  0
   -2.3631    0.5549    1.3048 O   0  0  0  0  0  0  0  0  0  0  0  0
   -1.2144    1.2288    0.8231 C   0  0  0  0  0  0  0  0  0  0  0  0
    1.6161   -0.9966   -0.8251 C   0  0  0  0  0  0  0  0  0  0  0  0
    2.8398   -0.9743    0.9448 H   0  0  0  0  0  0  0  0  0  0  0  0
    3.6811   -0.2314   -0.5529 H   0  0  0  0  0  0  0  0  0  0  0  0
    1.9164    1.2198    1.1778 H   0  0  0  0  0  0  0  0  0  0  0  0
    2.0738    1.5759   -0.6475 H   0  0  0  0  0  0  0  0  0  0  0  0
   -1.5601   -0.9515   -1.3966 H   0  0  0  0  0  0  0  0  0  0  0  0
   -1.5269   -1.8003    0.2448 H   0  0  0  0  0  0  0  0  0  0  0  0
   -3.0216    0.7082   -0.6351 H   0  0  0  0  0  0  0  0  0  0  0  0
   -3.6312   -0.7656    0.2984 H   0  0  0  0  0  0  0  0  0  0  0  0
   -1.5919    2.0180    0.1207 H   0  0  0  0  0  0  0  0  0  0  0  0
   -0.6240    1.6672    1.6297 H   0  0  0  0  0  0  0  0  0  0  0  0
    1.2701   -2.0243   -0.5284 H   0  0  0  0  0  0  0  0  0  0  0  0
    1.6608   -0.8883   -1.9146 H   0  0  0  0  0  0  0  0  0  0  0  0
  1  2  1  0
  2  3  1  0
  3  4  2  3
  4  5  1  0
  5  6  1  0
  6  7  1  0
  7  8  1  0
  3  9  1  0
  9  1  1  0
  8  4  1  0
  1 10  1  0
  1 11  1  0
  2 12  1  0
  2 13  1  0
  5 14  1  0
  5 15  1  0
  6 16  1  0
  6 17  1  0
  8 18  1  0
  8 19  1  0
  9 20  1  0
  9 21  1  0
M  END
