
     RDKit          3D

 19 21  0  0  0  0  0  0  0  0999 V2000
   -0.4754    1.8445    0.2011 C   0  0  0  0  0  0  0  0  0  0  0  0
    0.8564    1.1559    0.2689 C   0  0  0  0  0  0  0  0  0  0  0  0
    0.7558   -0.0688   -0.6343 C   0  0  0  0  0  0  0  0  0  0  0  0
    1.6737   -1.1454   -0.1569 C   0  0  0  0  0  0  0  0  0  0  0  0
    0.6451   -1.8362    0.4832 O   0  0  0  0  0  0  0  0  0  0  0  0
   -0.2508   -0.9648   -0.0619 C   0  0  0  0  0  0  0  0  0  0  0  0
   -1.5761   -1.2467   -0.5155 C   0  0  0  0  0  0  0  0  0  0  0  0
   -1.3049   -0.2719    0.6536 C   0  0  0  0  0  0  0  0  0  0  0  0
   -1.5529    1.0289    0.3475 O   0  0  0  0  0  0  0  0  0  0  0  0
   -0.5375    2.3746   -0.7923 H   0  0  0  0  0  0  0  0  0  0  0  0
   -0.5296    2.6478    0.9654 H   0  0  0  0  0  0  0  0  0  0  0  0
    1.6590    1.8320   -0.0100 H   0  0  0  0  0  0  0  0  0  0  0  0
    0.9545    0.7400    1.3099 H   0  0  0  0  0  0  0  0  0  0  0  0
    0.7354    0.1460   -1.7088 H   0  0  0  0  0  0  0  0  0  0  0  0
    2.4346   -0.8133    0.5873 H   0  0  0  0  0  0  0  0  0  0  0  0
    2.1395   -1.6978   -0.9941 H   0  0  0  0  0  0  0  0  0  0  0  0
   -2.0400   -0.8460   -1.4219 H   0  0  0  0  0  0  0  0  0  0  0  0
   -2.0414   -2.2254   -0.2018 H   0  0  0  0  0  0  0  0  0  0  0  0
   -1.5455   -0.6532    1.6807 H   0  0  0  0  0  0  0  0  0  0  0  0
  1  2  1  0
  2  3  1  0
  3  4  1  0
  4  5  1  0
  5  6  1  0
  6  7  1  0
  7  8  1  0
  8  9  1  0
  9  1  1  0
  6  3  1  0
  8  6  1  0
  1 10  1  0
  1 11  1  0
  2 12  1  0
  2 13  1  0
  3 14  1  0
  4 15  1  0
  4 16  1  0
  7 17  1  0
  7 18  1  0
  8 19  1  0
M  END
