
     RDKit          3D

 19 20  0  0  0  0  0  0  0  0999 V2000
    2.0598    1.0495    0.0971 C   0  0  0  0  0  0  0  0  0  0  0  0
    1.8510   -0.3959   -0.2772 C   0  0  0  0  0  0  0  0  0  0  0  0
    0.6632    0.0544   -1.1002 C   0  0  0  0  0  0  0  0  0  0  0  0
   -0.6215   -0.2937   -0.4286 C   0  0  0  0  0  0  0  0  0  0  0  0
   -0.6363   -0.0331    1.0517 C   0  0  0  0  0  0  0  0  0  0  0  0
   -2.0178   -0.2552    1.2656 O   0  0  0  0  0  0  0  0  0  0  0  0
   -2.6078    0.3534    0.1950 C   0  0  0  0  0  0  0  0  0  0  0  0
   -1.6803    0.5329   -0.8089 O   0  0  0  0  0  0  0  0  0  0  0  0
    1.0253    1.3762   -0.7781 O   0  0  0  0  0  0  0  0  0  0  0  0
    1.8862    1.3165    1.1473 H   0  0  0  0  0  0  0  0  0  0  0  0
    3.0196    1.4894   -0.2596 H   0  0  0  0  0  0  0  0  0  0  0  0
    1.6568   -1.0666    0.5525 H   0  0  0  0  0  0  0  0  0  0  0  0
    2.6587   -0.7522   -0.9813 H   0  0  0  0  0  0  0  0  0  0  0  0
    0.7161   -0.1823   -2.1611 H   0  0  0  0  0  0  0  0  0  0  0  0
   -0.9356   -1.3285   -0.6350 H   0  0  0  0  0  0  0  0  0  0  0  0
   -0.4973    1.0571    1.2200 H   0  0  0  0  0  0  0  0  0  0  0  0
   -0.0099   -0.6770    1.6506 H   0  0  0  0  0  0  0  0  0  0  0  0
   -3.0863    1.3067    0.5066 H   0  0  0  0  0  0  0  0  0  0  0  0
   -3.4438   -0.2527   -0.2564 H   0  0  0  0  0  0  0  0  0  0  0  0
  1  2  1  0
  2  3  1  0
  3  4  1  0
  4  5  1  0
  5  6  1  0
  6  7  1  0
  7  8  1  0
  3  9  1  0
  9  1  1  0
  8  4  1  0
  1 10  1  0
  1 11  1  0
  2 12  1  0
  2 13  1  0
  3 14  1  0
  4 15  1  0
  5 16  1  0
  5 17  1  0
  7 18  1  0
  7 19  1  0
M  END
