
     RDKit          3D

 21 23  0  0  0  0  0  0  0  0999 V2000
    2.3728   -0.1293    0.4923 C   0  0  0  0  0  0  0  0  0  0  0  0
    2.2015   -0.7401   -0.8461 C   0  0  0  0  0  0  0  0  0  0  0  0
    0.9875   -0.5559   -0.0046 C   0  0  0  0  0  0  0  0  0  0  0  0
    0.0547    0.5978   -0.2412 C   0  0  0  0  0  0  0  0  0  0  0  0
   -0.1372    1.3626    1.0748 C   0  0  0  0  0  0  0  0  0  0  0  0
   -1.5018    1.4811    0.7870 O   0  0  0  0  0  0  0  0  0  0  0  0
   -1.3826    0.3815   -0.0276 C   0  0  0  0  0  0  0  0  0  0  0  0
   -2.0533   -0.8868    0.1827 C   0  0  0  0  0  0  0  0  0  0  0  0
   -2.3561    0.0001   -1.0369 C   0  0  0  0  0  0  0  0  0  0  0  0
    2.8104   -0.7223    1.3347 H   0  0  0  0  0  0  0  0  0  0  0  0
    2.6127    0.9297    0.5281 H   0  0  0  0  0  0  0  0  0  0  0  0
    2.3570   -0.1210   -1.7620 H   0  0  0  0  0  0  0  0  0  0  0  0
    2.5975   -1.7737   -0.9472 H   0  0  0  0  0  0  0  0  0  0  0  0
    0.5342   -1.4638    0.4069 H   0  0  0  0  0  0  0  0  0  0  0  0
    0.3411    1.3025   -1.0349 H   0  0  0  0  0  0  0  0  0  0  0  0
    0.0647    0.7303    1.9684 H   0  0  0  0  0  0  0  0  0  0  0  0
    0.4150    2.3137    1.1309 H   0  0  0  0  0  0  0  0  0  0  0  0
   -1.6115   -1.8712    0.0136 H   0  0  0  0  0  0  0  0  0  0  0  0
   -2.8531   -0.9112    0.9744 H   0  0  0  0  0  0  0  0  0  0  0  0
   -3.3405    0.5514   -1.0088 H   0  0  0  0  0  0  0  0  0  0  0  0
   -2.1128   -0.4754   -1.9845 H   0  0  0  0  0  0  0  0  0  0  0  0
  1  2  1  0
  2  3  1  0
  3  4  1  0
  4  5  1  0
  5  6  1  0
  6  7  1  0
  7  8  1  0
  8  9  1  0
  3  1  1  0
  7  4  1  0
  9  7  1  0
  1 10  1  0
  1 11  1  0
  2 12  1  0
  2 13  1  0
  3 14  1  0
  4 15  1  0
  5 16  1  0
  5 17  1  0
  8 18  1  0
  8 19  1  0
  9 20  1  0
  9 21  1  0
M  END
