
     RDKit          3D

 21 23  0  0  0  0  0  0  0  0999 V2000
   -1.5328   -0.7501    0.1740 C   0  0  0  0  0  0  0  0  0  0  0  0
   -0.6056   -1.4357   -0.8342 C   0  0  0  0  0  0  0  0  0  0  0  0
    0.0507   -0.0924   -1.0282 C   0  0  0  0  0  0  0  0  0  0  0  0
   -1.2122    0.5500   -0.5093 C   0  0  0  0  0  0  0  0  0  0  0  0
   -0.7051    1.6547    0.3626 C   0  0  0  0  0  0  0  0  0  0  0  0
    0.4553    1.0027    1.0980 C   0  0  0  0  0  0  0  0  0  0  0  0
    1.0694    0.1508    0.0504 C   0  0  0  0  0  0  0  0  0  0  0  0
    2.1139   -0.8032    0.2494 C   0  0  0  0  0  0  0  0  0  0  0  0
    2.3822    0.4866   -0.3122 O   0  0  0  0  0  0  0  0  0  0  0  0
   -2.5937   -1.0849    0.1020 H   0  0  0  0  0  0  0  0  0  0  0  0
   -1.1179   -0.8925    1.1791 H   0  0  0  0  0  0  0  0  0  0  0  0
   -1.1625   -1.8421   -1.6792 H   0  0  0  0  0  0  0  0  0  0  0  0
    0.0828   -2.1725   -0.3929 H   0  0  0  0  0  0  0  0  0  0  0  0
    0.3394    0.1456   -2.0519 H   0  0  0  0  0  0  0  0  0  0  0  0
   -1.9609    0.8309   -1.2669 H   0  0  0  0  0  0  0  0  0  0  0  0
   -0.2327    2.4237   -0.3118 H   0  0  0  0  0  0  0  0  0  0  0  0
   -1.4529    2.0830    1.0350 H   0  0  0  0  0  0  0  0  0  0  0  0
    1.1239    1.8425    1.4233 H   0  0  0  0  0  0  0  0  0  0  0  0
    0.1300    0.4952    2.0046 H   0  0  0  0  0  0  0  0  0  0  0  0
    2.2731   -1.5900   -0.5265 H   0  0  0  0  0  0  0  0  0  0  0  0
    2.5556   -1.0021    1.2348 H   0  0  0  0  0  0  0  0  0  0  0  0
  1  2  1  0
  2  3  1  0
  3  4  1  0
  4  5  1  0
  5  6  1  0
  6  7  1  0
  7  8  1  0
  8  9  1  0
  4  1  1  0
  9  7  1  0
  7  3  1  0
  1 10  1  0
  1 11  1  0
  2 12  1  0
  2 13  1  0
  3 14  1  0
  4 15  1  0
  5 16  1  0
  5 17  1  0
  6 18  1  0
  6 19  1  0
  8 20  1  0
  8 21  1  0
M  END
