
     RDKit          3D

 21 23  0  0  0  0  0  0  0  0999 V2000
    1.9880    0.1234   -0.0047 C   0  0  0  0  0  0  0  0  0  0  0  0
    1.2415    1.4063    0.3382 C   0  0  0  0  0  0  0  0  0  0  0  0
    0.0318    0.9202   -0.4313 C   0  0  0  0  0  0  0  0  0  0  0  0
    0.8028   -0.2609   -0.8631 C   0  0  0  0  0  0  0  0  0  0  0  0
    0.2367   -1.5806   -0.4253 C   0  0  0  0  0  0  0  0  0  0  0  0
   -0.3462   -1.5832    0.8008 O   0  0  0  0  0  0  0  0  0  0  0  0
   -1.3097   -0.6384    1.0190 C   0  0  0  0  0  0  0  0  0  0  0  0
   -2.2602   -0.1825   -0.0119 C   0  0  0  0  0  0  0  0  0  0  0  0
   -1.1174    0.6802    0.4576 C   0  0  0  0  0  0  0  0  0  0  0  0
    2.1434   -0.5463    0.8732 H   0  0  0  0  0  0  0  0  0  0  0  0
    2.9026    0.3206   -0.6074 H   0  0  0  0  0  0  0  0  0  0  0  0
    1.0839    1.4713    1.4410 H   0  0  0  0  0  0  0  0  0  0  0  0
    1.7244    2.2899   -0.0995 H   0  0  0  0  0  0  0  0  0  0  0  0
   -0.2095    1.6426   -1.2578 H   0  0  0  0  0  0  0  0  0  0  0  0
    1.0691   -0.2957   -1.9462 H   0  0  0  0  0  0  0  0  0  0  0  0
    1.1062   -2.2966   -0.3874 H   0  0  0  0  0  0  0  0  0  0  0  0
   -0.4132   -1.9940   -1.2473 H   0  0  0  0  0  0  0  0  0  0  0  0
   -1.7370   -0.6871    2.0589 H   0  0  0  0  0  0  0  0  0  0  0  0
   -3.2964    0.1126    0.2952 H   0  0  0  0  0  0  0  0  0  0  0  0
   -2.2045   -0.4738   -1.0667 H   0  0  0  0  0  0  0  0  0  0  0  0
   -1.4360    1.5720    1.0648 H   0  0  0  0  0  0  0  0  0  0  0  0
  1  2  1  0
  2  3  1  0
  3  4  1  0
  4  5  1  0
  5  6  1  0
  6  7  1  0
  7  8  1  0
  8  9  1  0
  4  1  1  0
  9  7  1  0
  9  3  1  0
  1 10  1  0
  1 11  1  0
  2 12  1  0
  2 13  1  0
  3 14  1  0
  4 15  1  0
  5 16  1  0
  5 17  1  0
  7 18  1  0
  8 19  1  0
  8 20  1  0
  9 21  1  0
M  END
