
     RDKit          3D

 27 27  0  0  0  0  0  0  0  0999 V2000
   -0.5923   -1.6824    0.5692 C   0  0  0  0  0  0  0  0  0  0  0  0
    0.5302   -1.7722   -0.3912 C   0  0  0  0  0  0  0  0  0  0  0  0
    1.7754   -1.0459    0.1240 C   0  0  0  0  0  0  0  0  0  0  0  0
    1.8607    0.3595   -0.3666 C   0  0  0  0  0  0  0  0  0  0  0  0
    1.1785    1.3661    0.4968 C   0  0  0  0  0  0  0  0  0  0  0  0
    0.0194    2.0577   -0.1885 C   0  0  0  0  0  0  0  0  0  0  0  0
   -1.3172    1.4284    0.2129 C   0  0  0  0  0  0  0  0  0  0  0  0
   -1.6347    0.2353   -0.6957 C   0  0  0  0  0  0  0  0  0  0  0  0
   -1.8045   -0.9726    0.1286 C   0  0  0  0  0  0  0  0  0  0  0  0
   -0.1934   -1.2227    1.5206 H   0  0  0  0  0  0  0  0  0  0  0  0
   -0.9129   -2.7165    0.8959 H   0  0  0  0  0  0  0  0  0  0  0  0
    0.2866   -1.4741   -1.4315 H   0  0  0  0  0  0  0  0  0  0  0  0
    0.8637   -2.8496   -0.4857 H   0  0  0  0  0  0  0  0  0  0  0  0
    2.7032   -1.5930   -0.1397 H   0  0  0  0  0  0  0  0  0  0  0  0
    1.7297   -1.0602    1.2501 H   0  0  0  0  0  0  0  0  0  0  0  0
    2.9566    0.6290   -0.4253 H   0  0  0  0  0  0  0  0  0  0  0  0
    1.5234    0.3957   -1.4407 H   0  0  0  0  0  0  0  0  0  0  0  0
    1.8867    2.1937    0.7952 H   0  0  0  0  0  0  0  0  0  0  0  0
    0.8077    0.9577    1.4641 H   0  0  0  0  0  0  0  0  0  0  0  0
    0.1229    2.0520   -1.2956 H   0  0  0  0  0  0  0  0  0  0  0  0
   -0.0495    3.1328    0.0986 H   0  0  0  0  0  0  0  0  0  0  0  0
   -1.2692    1.1089    1.2724 H   0  0  0  0  0  0  0  0  0  0  0  0
   -2.1058    2.1971    0.0726 H   0  0  0  0  0  0  0  0  0  0  0  0
   -2.6107    0.4294   -1.2327 H   0  0  0  0  0  0  0  0  0  0  0  0
   -0.8689    0.2066   -1.4692 H   0  0  0  0  0  0  0  0  0  0  0  0
   -2.3798   -0.6760    1.0565 H   0  0  0  0  0  0  0  0  0  0  0  0
   -2.5060   -1.6844   -0.3951 H   0  0  0  0  0  0  0  0  0  0  0  0
  1  2  1  0
  2  3  1  0
  3  4  1  0
  4  5  1  0
  5  6  1  0
  6  7  1  0
  7  8  1  0
  8  9  1  0
  9  1  1  0
  1 10  1  0
  1 11  1  0
  2 12  1  0
  2 13  1  0
  3 14  1  0
  3 15  1  0
  4 16  1  0
  4 17  1  0
  5 18  1  0
  5 19  1  0
  6 20  1  0
  6 21  1  0
  7 22  1  0
  7 23  1  0
  8 24  1  0
  8 25  1  0
  9 26  1  0
  9 27  1  0
M  END
