
     RDKit          3D

 19 22  0  0  0  0  0  0  0  0999 V2000
   -1.4196    0.7632   -0.8447 C   0  0  0  0  0  0  0  0  0  0  0  0
   -1.7689   -0.0888    0.3930 C   0  0  0  0  0  0  0  0  0  0  0  0
   -0.3808   -0.5235    0.7936 C   0  0  0  0  0  0  0  0  0  0  0  0
    0.4119    0.7528    0.6074 C   0  0  0  0  0  0  0  0  0  0  0  0
    0.0498    0.5396   -0.8681 C   0  0  0  0  0  0  0  0  0  0  0  0
    0.2427   -0.9389   -0.4981 C   0  0  0  0  0  0  0  0  0  0  0  0
    1.7173   -0.9711   -0.2168 C   0  0  0  0  0  0  0  0  0  0  0  0
    2.4991    0.1153   -0.5808 O   0  0  0  0  0  0  0  0  0  0  0  0
    1.8313    0.3170    0.6216 C   0  0  0  0  0  0  0  0  0  0  0  0
   -1.9645    0.4327   -1.7300 H   0  0  0  0  0  0  0  0  0  0  0  0
   -1.5942    1.8382   -0.5857 H   0  0  0  0  0  0  0  0  0  0  0  0
   -2.3083   -1.0045    0.0676 H   0  0  0  0  0  0  0  0  0  0  0  0
   -2.2875    0.4955    1.1539 H   0  0  0  0  0  0  0  0  0  0  0  0
   -0.2408   -1.0959    1.6775 H   0  0  0  0  0  0  0  0  0  0  0  0
    0.0865    1.6455    1.0737 H   0  0  0  0  0  0  0  0  0  0  0  0
    0.6781    0.9554   -1.6019 H   0  0  0  0  0  0  0  0  0  0  0  0
   -0.2084   -1.6651   -1.1213 H   0  0  0  0  0  0  0  0  0  0  0  0
    2.2078   -1.8740    0.1418 H   0  0  0  0  0  0  0  0  0  0  0  0
    2.4485    0.3065    1.5172 H   0  0  0  0  0  0  0  0  0  0  0  0
  1  2  1  0
  2  3  1  0
  3  4  1  0
  4  5  1  0
  5  6  1  0
  6  7  1  0
  7  8  1  0
  8  9  1  0
  5  1  1  0
  9  7  1  0
  6  3  1  0
  9  4  1  0
  1 10  1  0
  1 11  1  0
  2 12  1  0
  2 13  1  0
  3 14  1  0
  4 15  1  0
  5 16  1  0
  6 17  1  0
  7 18  1  0
  9 19  1  0
M  END
