
     RDKit          3D

 18 19  0  0  0  0  0  0  0  0999 V2000
   -1.1581   -0.1429    0.8634 C   0  0  0  0  0  0  0  0  0  0  0  0
   -0.1702   -1.2859    0.6435 C   0  0  0  0  0  0  0  0  0  0  0  0
    0.7284   -0.8333   -0.5091 C   0  0  0  0  0  0  0  0  0  0  0  0
    1.6403    0.2336    0.1084 C   0  0  0  0  0  0  0  0  0  0  0  0
    0.8110    1.2280    0.5868 O   0  0  0  0  0  0  0  0  0  0  0  0
   -0.5103    1.0844    0.2339 C   0  0  0  0  0  0  0  0  0  0  0  0
   -0.6210    0.8872   -1.2743 C   0  0  0  0  0  0  0  0  0  0  0  0
    0.0026   -0.3175   -1.5628 O   0  0  0  0  0  0  0  0  0  0  0  0
   -2.0697   -0.3873    0.2587 H   0  0  0  0  0  0  0  0  0  0  0  0
   -1.3885   -0.0075    1.9233 H   0  0  0  0  0  0  0  0  0  0  0  0
   -0.6571   -2.2380    0.4518 H   0  0  0  0  0  0  0  0  0  0  0  0
    0.4864   -1.3431    1.5529 H   0  0  0  0  0  0  0  0  0  0  0  0
    1.3167   -1.6883   -0.8906 H   0  0  0  0  0  0  0  0  0  0  0  0
    2.4170    0.5675   -0.5768 H   0  0  0  0  0  0  0  0  0  0  0  0
    2.1137   -0.2801    0.9912 H   0  0  0  0  0  0  0  0  0  0  0  0
   -1.0414    2.0081    0.5215 H   0  0  0  0  0  0  0  0  0  0  0  0
   -1.7147    0.7679   -1.4913 H   0  0  0  0  0  0  0  0  0  0  0  0
   -0.1853    1.7472   -1.8303 H   0  0  0  0  0  0  0  0  0  0  0  0
  1  2  1  0
  2  3  1  0
  3  4  1  0
  4  5  1  0
  5  6  1  0
  6  7  1  0
  7  8  1  0
  6  1  1  0
  8  3  1  0
  1  9  1  0
  1 10  1  0
  2 11  1  0
  2 12  1  0
  3 13  1  0
  4 14  1  0
  4 15  1  0
  6 16  1  0
  7 17  1  0
  7 18  1  0
M  END
