
     RDKit          3D

 20 22  0  0  0  0  0  0  0  0999 V2000
    1.9228    0.3593   -0.3491 C   0  0  0  0  0  0  0  0  0  0  0  0
    1.3354   -0.3268    0.8776 C   0  0  0  0  0  0  0  0  0  0  0  0
    0.0750   -0.9625    0.3816 C   0  0  0  0  0  0  0  0  0  0  0  0
   -0.2457   -0.3862   -0.9615 C   0  0  0  0  0  0  0  0  0  0  0  0
    0.6544    0.7873   -1.0703 C   0  0  0  0  0  0  0  0  0  0  0  0
   -1.6488   -0.1346   -0.4793 C   0  0  0  0  0  0  0  0  0  0  0  0
   -1.8287    0.7980    0.6408 C   0  0  0  0  0  0  0  0  0  0  0  0
   -1.2076   -0.5003    0.9757 C   0  0  0  0  0  0  0  0  0  0  0  0
    2.4630   -0.4418   -0.9090 H   0  0  0  0  0  0  0  0  0  0  0  0
    2.5775    1.1931   -0.0994 H   0  0  0  0  0  0  0  0  0  0  0  0
    2.0168   -1.0716    1.3080 H   0  0  0  0  0  0  0  0  0  0  0  0
    1.0953    0.4001    1.6830 H   0  0  0  0  0  0  0  0  0  0  0  0
    0.1677   -2.0832    0.2869 H   0  0  0  0  0  0  0  0  0  0  0  0
   -0.1548   -1.0508   -1.8312 H   0  0  0  0  0  0  0  0  0  0  0  0
    0.9005    1.0239   -2.1385 H   0  0  0  0  0  0  0  0  0  0  0  0
    0.3013    1.7115   -0.6184 H   0  0  0  0  0  0  0  0  0  0  0  0
   -2.4868   -0.7275   -0.8860 H   0  0  0  0  0  0  0  0  0  0  0  0
   -1.2621    1.7563    0.6914 H   0  0  0  0  0  0  0  0  0  0  0  0
   -2.8740    0.9266    1.0143 H   0  0  0  0  0  0  0  0  0  0  0  0
   -1.8014   -1.2706    1.4833 H   0  0  0  0  0  0  0  0  0  0  0  0
  1  2  1  0
  2  3  1  0
  3  4  1  0
  4  5  1  0
  4  6  1  0
  6  7  1  0
  7  8  1  0
  5  1  1  0
  8  6  1  0
  8  3  1  0
  1  9  1  0
  1 10  1  0
  2 11  1  0
  2 12  1  0
  3 13  1  0
  4 14  1  0
  5 15  1  0
  5 16  1  0
  6 17  1  0
  7 18  1  0
  7 19  1  0
  8 20  1  0
M  END
