
     RDKit          3D

 18 21  0  0  0  0  0  0  0  0999 V2000
   -1.5560   -0.1436   -0.1874 C   0  0  0  0  0  0  0  0  0  0  0  0
   -0.9462    1.2110   -0.4866 C   0  0  0  0  0  0  0  0  0  0  0  0
    0.4908    1.1228   -0.0514 C   0  0  0  0  0  0  0  0  0  0  0  0
    0.3963    0.1238    1.0760 C   0  0  0  0  0  0  0  0  0  0  0  0
   -0.5326   -0.9470    0.5432 C   0  0  0  0  0  0  0  0  0  0  0  0
    0.6301   -1.2826   -0.4083 C   0  0  0  0  0  0  0  0  0  0  0  0
    1.2393    0.0085   -0.7992 C   0  0  0  0  0  0  0  0  0  0  0  0
    1.5229   -0.6091    0.4956 C   0  0  0  0  0  0  0  0  0  0  0  0
   -1.8466   -0.6780   -1.1157 H   0  0  0  0  0  0  0  0  0  0  0  0
   -2.4728   -0.0529    0.4567 H   0  0  0  0  0  0  0  0  0  0  0  0
   -1.4658    1.9447    0.1717 H   0  0  0  0  0  0  0  0  0  0  0  0
   -1.0822    1.4509   -1.5452 H   0  0  0  0  0  0  0  0  0  0  0  0
    1.0355    2.0315    0.1179 H   0  0  0  0  0  0  0  0  0  0  0  0
    0.3335    0.4382    2.0762 H   0  0  0  0  0  0  0  0  0  0  0  0
   -0.8393   -1.7272    1.2099 H   0  0  0  0  0  0  0  0  0  0  0  0
    0.7063   -2.2141   -0.9049 H   0  0  0  0  0  0  0  0  0  0  0  0
    1.9411    0.1988   -1.5658 H   0  0  0  0  0  0  0  0  0  0  0  0
    2.4458   -0.8758    0.9174 H   0  0  0  0  0  0  0  0  0  0  0  0
  1  2  1  0
  2  3  1  0
  3  4  1  0
  4  5  1  0
  5  6  1  0
  6  7  1  0
  7  8  1  0
  5  1  1  0
  8  6  1  0
  7  3  1  0
  8  4  1  0
  1  9  1  0
  1 10  1  0
  2 11  1  0
  2 12  1  0
  3 13  1  0
  4 14  1  0
  5 15  1  0
  6 16  1  0
  7 17  1  0
  8 18  1  0
M  END
