
     RDKit          3D

 19 21  0  0  0  0  0  0  0  0999 V2000
   -1.1145    1.2133    0.2902 C   0  0  0  0  0  0  0  0  0  0  0  0
   -1.2407   -0.2574    0.7789 C   0  0  0  0  0  0  0  0  0  0  0  0
   -1.1636   -0.8371   -0.5951 C   0  0  0  0  0  0  0  0  0  0  0  0
   -0.1868   -1.3180   -1.4705 C   0  0  0  0  0  0  0  0  0  0  0  0
    0.2005   -0.1134   -0.8143 C   0  0  0  0  0  0  0  0  0  0  0  0
    1.3261   -0.3125    0.1766 C   0  0  0  0  0  0  0  0  0  0  0  0
    1.8216    0.6716    1.0455 C   0  0  0  0  0  0  0  0  0  0  0  0
    2.4212    0.6084   -0.3167 O   0  0  0  0  0  0  0  0  0  0  0  0
   -0.2631    1.1368   -0.8097 O   0  0  0  0  0  0  0  0  0  0  0  0
   -2.1271    1.4393   -0.1732 H   0  0  0  0  0  0  0  0  0  0  0  0
   -0.8596    1.9014    1.0702 H   0  0  0  0  0  0  0  0  0  0  0  0
   -0.4509   -0.5263    1.4667 H   0  0  0  0  0  0  0  0  0  0  0  0
   -2.2239   -0.4377    1.2350 H   0  0  0  0  0  0  0  0  0  0  0  0
   -2.0671   -0.3908   -1.1406 H   0  0  0  0  0  0  0  0  0  0  0  0
    0.3217   -2.2691   -1.2525 H   0  0  0  0  0  0  0  0  0  0  0  0
   -0.3182   -1.2283   -2.5909 H   0  0  0  0  0  0  0  0  0  0  0  0
    1.8405   -1.3309    0.1750 H   0  0  0  0  0  0  0  0  0  0  0  0
    1.4187    1.6702    1.1850 H   0  0  0  0  0  0  0  0  0  0  0  0
    2.6653    0.3805    1.7406 H   0  0  0  0  0  0  0  0  0  0  0  0
  1  2  1  0
  2  3  1  0
  3  4  1  0
  4  5  1  0
  5  6  1  0
  6  7  1  0
  7  8  1  0
  5  9  1  0
  9  1  1  0
  5  3  1  0
  8  6  1  0
  1 10  1  0
  1 11  1  0
  2 12  1  0
  2 13  1  0
  3 14  1  0
  4 15  1  0
  4 16  1  0
  6 17  1  0
  7 18  1  0
  7 19  1  0
M  END
