
     RDKit          3D

 18 20  0  0  0  0  0  0  0  0999 V2000
    1.7369   -0.4367    0.1377 C   0  0  0  0  0  0  0  0  0  0  0  0
    1.2587    0.9313    0.4407 C   0  0  0  0  0  0  0  0  0  0  0  0
   -0.1527    1.2360    0.1391 C   0  0  0  0  0  0  0  0  0  0  0  0
   -1.3097    0.4304    0.5017 C   0  0  0  0  0  0  0  0  0  0  0  0
   -1.4171   -1.0495    0.3816 C   0  0  0  0  0  0  0  0  0  0  0  0
   -0.3543   -1.0378   -0.7063 C   0  0  0  0  0  0  0  0  0  0  0  0
    0.8278   -1.3667   -0.1936 O   0  0  0  0  0  0  0  0  0  0  0  0
   -0.6825    0.3823   -0.9238 C   0  0  0  0  0  0  0  0  0  0  0  0
    2.2860   -0.8049    1.0584 H   0  0  0  0  0  0  0  0  0  0  0  0
    2.5485   -0.4464   -0.6518 H   0  0  0  0  0  0  0  0  0  0  0  0
    1.9009    1.6499   -0.1521 H   0  0  0  0  0  0  0  0  0  0  0  0
    1.4550    1.2401    1.5117 H   0  0  0  0  0  0  0  0  0  0  0  0
   -0.3479    2.3406    0.0015 H   0  0  0  0  0  0  0  0  0  0  0  0
   -2.2879    0.9366    0.5941 H   0  0  0  0  0  0  0  0  0  0  0  0
   -1.1580   -1.6380    1.2653 H   0  0  0  0  0  0  0  0  0  0  0  0
   -2.3682   -1.4404   -0.0522 H   0  0  0  0  0  0  0  0  0  0  0  0
   -0.6201   -1.6527   -1.6038 H   0  0  0  0  0  0  0  0  0  0  0  0
   -1.3150    0.7257   -1.7482 H   0  0  0  0  0  0  0  0  0  0  0  0
  1  2  1  0
  2  3  1  0
  3  4  1  0
  4  5  1  0
  5  6  1  0
  6  7  1  0
  6  8  1  0
  7  1  1  0
  8  3  1  0
  8  4  1  0
  1  9  1  0
  1 10  1  0
  2 11  1  0
  2 12  1  0
  3 13  1  0
  4 14  1  0
  5 15  1  0
  5 16  1  0
  6 17  1  0
  8 18  1  0
M  END
