
     RDKit          3D

 19 21  0  0  0  0  0  0  0  0999 V2000
    1.7874    0.3527   -0.3426 C   0  0  0  0  0  0  0  0  0  0  0  0
    1.0560   -0.9635   -0.6268 C   0  0  0  0  0  0  0  0  0  0  0  0
   -0.0089   -1.0991    0.3845 C   0  0  0  0  0  0  0  0  0  0  0  0
   -1.1806   -1.7353    0.0927 O   0  0  0  0  0  0  0  0  0  0  0  0
   -1.8297   -0.6830    0.7986 C   0  0  0  0  0  0  0  0  0  0  0  0
   -0.8050    0.1793    0.3720 C   0  0  0  0  0  0  0  0  0  0  0  0
   -0.7217    1.2161   -0.6119 C   0  0  0  0  0  0  0  0  0  0  0  0
   -0.0418    1.2824    0.7450 C   0  0  0  0  0  0  0  0  0  0  0  0
    1.3264    1.0165    0.7531 O   0  0  0  0  0  0  0  0  0  0  0  0
    1.8788    0.9706   -1.2641 H   0  0  0  0  0  0  0  0  0  0  0  0
    2.8521    0.0520   -0.1070 H   0  0  0  0  0  0  0  0  0  0  0  0
    0.6023   -0.9134   -1.6384 H   0  0  0  0  0  0  0  0  0  0  0  0
    1.7162   -1.8300   -0.5966 H   0  0  0  0  0  0  0  0  0  0  0  0
    0.3751   -1.3875    1.4039 H   0  0  0  0  0  0  0  0  0  0  0  0
   -2.8373   -0.5226    0.3199 H   0  0  0  0  0  0  0  0  0  0  0  0
   -2.0117   -0.9303    1.8682 H   0  0  0  0  0  0  0  0  0  0  0  0
   -0.1377    1.1094   -1.5238 H   0  0  0  0  0  0  0  0  0  0  0  0
   -1.6433    1.8492   -0.7688 H   0  0  0  0  0  0  0  0  0  0  0  0
   -0.3764    2.0368    1.4753 H   0  0  0  0  0  0  0  0  0  0  0  0
  1  2  1  0
  2  3  1  0
  3  4  1  0
  4  5  1  0
  5  6  1  0
  6  7  1  0
  7  8  1  0
  8  9  1  0
  9  1  1  0
  6  3  1  0
  8  6  1  0
  1 10  1  0
  1 11  1  0
  2 12  1  0
  2 13  1  0
  3 14  1  0
  5 15  1  0
  5 16  1  0
  7 17  1  0
  7 18  1  0
  8 19  1  0
M  END
