
     RDKit          3D

 19 21  0  0  0  0  0  0  0  0999 V2000
    1.7677   -0.1546   -0.3447 C   0  0  0  0  0  0  0  0  0  0  0  0
    0.9149    0.7630    0.4502 C   0  0  0  0  0  0  0  0  0  0  0  0
   -0.4567    0.8037   -0.1167 C   0  0  0  0  0  0  0  0  0  0  0  0
   -1.3206    1.9299   -0.1784 C   0  0  0  0  0  0  0  0  0  0  0  0
   -0.5694    1.5995   -1.2810 O   0  0  0  0  0  0  0  0  0  0  0  0
   -1.0141   -0.5882   -0.1567 C   0  0  0  0  0  0  0  0  0  0  0  0
   -0.5362   -1.6006    0.8020 C   0  0  0  0  0  0  0  0  0  0  0  0
   -0.0308   -1.6104   -0.5720 C   0  0  0  0  0  0  0  0  0  0  0  0
    1.1813   -1.1778   -0.9758 O   0  0  0  0  0  0  0  0  0  0  0  0
    2.3407    0.4546   -1.1062 H   0  0  0  0  0  0  0  0  0  0  0  0
    2.5777   -0.5378    0.3412 H   0  0  0  0  0  0  0  0  0  0  0  0
    0.9264    0.5292    1.5565 H   0  0  0  0  0  0  0  0  0  0  0  0
    1.3578    1.8007    0.4104 H   0  0  0  0  0  0  0  0  0  0  0  0
   -2.4105    1.7719   -0.3048 H   0  0  0  0  0  0  0  0  0  0  0  0
   -1.0956    2.8406    0.4172 H   0  0  0  0  0  0  0  0  0  0  0  0
   -2.0778   -0.6413   -0.4497 H   0  0  0  0  0  0  0  0  0  0  0  0
   -1.2645   -2.3998    1.1205 H   0  0  0  0  0  0  0  0  0  0  0  0
    0.1737   -1.3653    1.6215 H   0  0  0  0  0  0  0  0  0  0  0  0
   -0.4641   -2.4172   -1.2336 H   0  0  0  0  0  0  0  0  0  0  0  0
  1  2  1  0
  2  3  1  0
  3  4  1  0
  4  5  1  0
  3  6  1  0
  6  7  1  0
  7  8  1  0
  8  9  1  0
  9  1  1  0
  5  3  1  0
  8  6  1  0
  1 10  1  0
  1 11  1  0
  2 12  1  0
  2 13  1  0
  4 14  1  0
  4 15  1  0
  6 16  1  0
  7 17  1  0
  7 18  1  0
  8 19  1  0
M  END
