
     RDKit          3D

 21 22  0  0  0  0  0  0  0  0999 V2000
   -1.1433    1.2334    0.0030 C   0  0  0  0  0  0  0  0  0  0  0  0
    0.2209    1.4500    0.5639 C   0  0  0  0  0  0  0  0  0  0  0  0
    1.0233    0.2560    0.8242 C   0  0  0  0  0  0  0  0  0  0  0  0
    2.0856   -0.1293   -0.1650 C   0  0  0  0  0  0  0  0  0  0  0  0
    1.7968   -1.4807    0.0808 O   0  0  0  0  0  0  0  0  0  0  0  0
    0.5004   -1.0615    0.4653 C   0  0  0  0  0  0  0  0  0  0  0  0
   -0.4067   -1.1508   -0.6976 C   0  0  0  0  0  0  0  0  0  0  0  0
   -1.8443   -0.8535   -0.3723 C   0  0  0  0  0  0  0  0  0  0  0  0
   -1.8202    0.1738    0.5873 O   0  0  0  0  0  0  0  0  0  0  0  0
   -1.7635    2.1574    0.1984 H   0  0  0  0  0  0  0  0  0  0  0  0
   -1.1236    1.1527   -1.1147 H   0  0  0  0  0  0  0  0  0  0  0  0
    0.7559    2.1531   -0.1414 H   0  0  0  0  0  0  0  0  0  0  0  0
    0.0929    2.0721    1.4995 H   0  0  0  0  0  0  0  0  0  0  0  0
    1.4629    0.2591    1.8522 H   0  0  0  0  0  0  0  0  0  0  0  0
    3.1362    0.0552    0.2004 H   0  0  0  0  0  0  0  0  0  0  0  0
    1.9559    0.2095   -1.1913 H   0  0  0  0  0  0  0  0  0  0  0  0
    0.1898   -1.6588    1.3543 H   0  0  0  0  0  0  0  0  0  0  0  0
   -0.0040   -0.5065   -1.5142 H   0  0  0  0  0  0  0  0  0  0  0  0
   -0.3849   -2.2171   -1.0685 H   0  0  0  0  0  0  0  0  0  0  0  0
   -2.2965   -0.4004   -1.2938 H   0  0  0  0  0  0  0  0  0  0  0  0
   -2.4339   -1.7137   -0.0704 H   0  0  0  0  0  0  0  0  0  0  0  0
  1  2  1  0
  2  3  1  0
  3  4  1  0
  4  5  1  0
  5  6  1  0
  6  7  1  0
  7  8  1  0
  8  9  1  0
  9  1  1  0
  6  3  1  0
  1 10  1  0
  1 11  1  0
  2 12  1  0
  2 13  1  0
  3 14  1  0
  4 15  1  0
  4 16  1  0
  6 17  1  0
  7 18  1  0
  7 19  1  0
  8 20  1  0
  8 21  1  0
M  END
