
     RDKit          3D

 21 22  0  0  0  0  0  0  0  0999 V2000
   -2.2632    0.4529    0.1986 C   0  0  0  0  0  0  0  0  0  0  0  0
   -1.0761    0.7038   -0.7184 C   0  0  0  0  0  0  0  0  0  0  0  0
    0.0112   -0.0712   -0.0318 C   0  0  0  0  0  0  0  0  0  0  0  0
    1.0798   -0.5700   -0.9349 C   0  0  0  0  0  0  0  0  0  0  0  0
    2.3502   -0.1613   -0.1786 C   0  0  0  0  0  0  0  0  0  0  0  0
    1.9327    0.0358    1.1447 O   0  0  0  0  0  0  0  0  0  0  0  0
    0.7647    0.7425    0.9837 C   0  0  0  0  0  0  0  0  0  0  0  0
   -0.8003   -1.1886    0.6141 C   0  0  0  0  0  0  0  0  0  0  0  0
   -1.8660   -0.4420    1.1553 O   0  0  0  0  0  0  0  0  0  0  0  0
   -3.1272    0.0378   -0.3551 H   0  0  0  0  0  0  0  0  0  0  0  0
   -2.5417    1.4559    0.6295 H   0  0  0  0  0  0  0  0  0  0  0  0
   -0.8039    1.7522   -0.8013 H   0  0  0  0  0  0  0  0  0  0  0  0
   -1.2588    0.2440   -1.7312 H   0  0  0  0  0  0  0  0  0  0  0  0
    1.0673   -0.1616   -1.9521 H   0  0  0  0  0  0  0  0  0  0  0  0
    1.1014   -1.6829   -0.9585 H   0  0  0  0  0  0  0  0  0  0  0  0
    2.6528    0.8048   -0.5766 H   0  0  0  0  0  0  0  0  0  0  0  0
    3.1029   -0.9444   -0.1698 H   0  0  0  0  0  0  0  0  0  0  0  0
    0.1485    0.7490    1.9153 H   0  0  0  0  0  0  0  0  0  0  0  0
    0.9029    1.7657    0.5824 H   0  0  0  0  0  0  0  0  0  0  0  0
   -1.1700   -1.8429   -0.1944 H   0  0  0  0  0  0  0  0  0  0  0  0
   -0.2072   -1.6797    1.3792 H   0  0  0  0  0  0  0  0  0  0  0  0
  1  2  1  0
  2  3  1  0
  3  4  1  0
  4  5  1  0
  5  6  1  0
  6  7  1  0
  3  8  1  0
  8  9  1  0
  9  1  1  0
  7  3  1  0
  1 10  1  0
  1 11  1  0
  2 12  1  0
  2 13  1  0
  4 14  1  0
  4 15  1  0
  5 16  1  0
  5 17  1  0
  7 18  1  0
  7 19  1  0
  8 20  1  0
  8 21  1  0
M  END
