
     RDKit          3D

 19 21  0  0  0  0  0  0  0  0999 V2000
    1.7230   -0.4057    0.0567 C   0  0  0  0  0  0  0  0  0  0  0  0
    1.0562    0.6012   -0.8188 C   0  0  0  0  0  0  0  0  0  0  0  0
   -0.4268    0.3441   -1.0058 C   0  0  0  0  0  0  0  0  0  0  0  0
   -0.6645   -1.0725   -0.4700 C   0  0  0  0  0  0  0  0  0  0  0  0
   -0.3467   -0.8237    1.0119 C   0  0  0  0  0  0  0  0  0  0  0  0
    1.0048   -0.8037    1.1461 O   0  0  0  0  0  0  0  0  0  0  0  0
   -1.0259    0.4739    1.3404 C   0  0  0  0  0  0  0  0  0  0  0  0
   -0.4375    1.6809    1.0659 O   0  0  0  0  0  0  0  0  0  0  0  0
   -1.1918    1.1600    0.0218 C   0  0  0  0  0  0  0  0  0  0  0  0
    2.1103   -1.2710   -0.5585 H   0  0  0  0  0  0  0  0  0  0  0  0
    2.6694    0.0780    0.4447 H   0  0  0  0  0  0  0  0  0  0  0  0
    1.1652    1.6024   -0.3064 H   0  0  0  0  0  0  0  0  0  0  0  0
    1.5756    0.6104   -1.8002 H   0  0  0  0  0  0  0  0  0  0  0  0
   -0.7744    0.4759   -2.0216 H   0  0  0  0  0  0  0  0  0  0  0  0
   -1.6883   -1.4086   -0.6230 H   0  0  0  0  0  0  0  0  0  0  0  0
    0.1149   -1.6998   -0.9258 H   0  0  0  0  0  0  0  0  0  0  0  0
   -0.8728   -1.6243    1.5627 H   0  0  0  0  0  0  0  0  0  0  0  0
   -1.8177    0.5057    2.1084 H   0  0  0  0  0  0  0  0  0  0  0  0
   -2.1732    1.5767   -0.2285 H   0  0  0  0  0  0  0  0  0  0  0  0
  1  2  1  0
  2  3  1  0
  3  4  1  0
  4  5  1  0
  5  6  1  0
  5  7  1  0
  7  8  1  0
  8  9  1  0
  6  1  1  0
  9  7  1  0
  9  3  1  0
  1 10  1  0
  1 11  1  0
  2 12  1  0
  2 13  1  0
  3 14  1  0
  4 15  1  0
  4 16  1  0
  5 17  1  0
  7 18  1  0
  9 19  1  0
M  END
