
     RDKit          2D

 19 22  0  0  0  0  0  0  0  0999 V2000
    0.2806    1.4660    0.0000 C   0  0  0  0  0  0  0  0  0  0  0  0
    0.3286    1.5073    0.0000 C   0  0  0  0  0  0  0  0  0  0  0  0
    1.3706    2.3740    0.0000 C   0  0  0  0  0  0  0  0  0  0  0  0
    1.9807    1.0037    0.0000 C   0  0  0  0  0  0  0  0  0  0  0  0
    0.8660    0.0000    0.0000 C   0  0  0  0  0  0  0  0  0  0  0  0
   -0.4330    0.7500    0.0000 C   0  0  0  0  0  0  0  0  0  0  0  0
   -0.1211    2.2172    0.0000 O   0  0  0  0  0  0  0  0  0  0  0  0
   -0.4330   -0.7500    0.0000 C   0  0  0  0  0  0  0  0  0  0  0  0
   -0.5898    0.7418    0.0000 C   0  0  0  0  0  0  0  0  0  0  0  0
   -2.9003    1.2422    0.0000 H   0  0  0  0  0  0  0  0  0  0  0  0
   -2.5093    3.0473    0.0000 H   0  0  0  0  0  0  0  0  0  0  0  0
   -1.3566    4.0071    0.0000 H   0  0  0  0  0  0  0  0  0  0  0  0
    0.7559    3.8141    0.0000 H   0  0  0  0  0  0  0  0  0  0  0  0
    3.2798    1.7537    0.0000 H   0  0  0  0  0  0  0  0  0  0  0  0
    2.8624   -0.2098    0.0000 H   0  0  0  0  0  0  0  0  0  0  0  0
    1.7477   -1.2135    0.0000 H   0  0  0  0  0  0  0  0  0  0  0  0
   -1.9184    0.5412    0.0000 H   0  0  0  0  0  0  0  0  0  0  0  0
   -1.1830   -2.0490    0.0000 H   0  0  0  0  0  0  0  0  0  0  0  0
   -2.0387    0.3536    0.0000 H   0  0  0  0  0  0  0  0  0  0  0  0
  1  2  1  0
  2  3  1  0
  3  4  1  0
  4  5  1  0
  5  6  1  0
  6  7  1  0
  6  8  1  0
  8  9  1  0
  9  1  1  0
  7  3  1  0
  9  3  1  0
  8  5  1  0
  1 10  1  0
  1 11  1  0
  2 12  1  0
  2 13  1  0
  4 14  1  0
  4 15  1  0
  5 16  1  0
  6 17  1  0
  8 18  1  0
  9 19  1  0
M  END
