
     RDKit          3D

 21 23  0  0  0  0  0  0  0  0999 V2000
   -0.7927    1.7503   -0.1317 C   0  0  0  0  0  0  0  0  0  0  0  0
   -1.7255    0.5436   -0.3402 C   0  0  0  0  0  0  0  0  0  0  0  0
   -1.1398   -0.5348    0.4820 C   0  0  0  0  0  0  0  0  0  0  0  0
   -0.9983   -1.9247    0.1590 C   0  0  0  0  0  0  0  0  0  0  0  0
    0.0576   -1.0841   -0.3461 C   0  0  0  0  0  0  0  0  0  0  0  0
    1.2813   -0.6476    0.3736 C   0  0  0  0  0  0  0  0  0  0  0  0
    2.4052   -0.0141   -0.3352 C   0  0  0  0  0  0  0  0  0  0  0  0
    1.3166    0.8707    0.3010 C   0  0  0  0  0  0  0  0  0  0  0  0
    0.4305    1.3839   -0.6190 O   0  0  0  0  0  0  0  0  0  0  0  0
   -1.1942    2.6456   -0.6403 H   0  0  0  0  0  0  0  0  0  0  0  0
   -0.8205    1.9564    0.9542 H   0  0  0  0  0  0  0  0  0  0  0  0
   -2.7647    0.7868   -0.1583 H   0  0  0  0  0  0  0  0  0  0  0  0
   -1.6287    0.3041   -1.4382 H   0  0  0  0  0  0  0  0  0  0  0  0
   -0.9241   -0.2234    1.5350 H   0  0  0  0  0  0  0  0  0  0  0  0
   -0.7698   -2.6348    0.9844 H   0  0  0  0  0  0  0  0  0  0  0  0
   -1.6768   -2.4015   -0.5932 H   0  0  0  0  0  0  0  0  0  0  0  0
    0.0731   -0.8599   -1.4317 H   0  0  0  0  0  0  0  0  0  0  0  0
    1.5057   -1.1610    1.3062 H   0  0  0  0  0  0  0  0  0  0  0  0
    3.4146    0.0102    0.1160 H   0  0  0  0  0  0  0  0  0  0  0  0
    2.4197   -0.1209   -1.4272 H   0  0  0  0  0  0  0  0  0  0  0  0
    1.5309    1.3551    1.2498 H   0  0  0  0  0  0  0  0  0  0  0  0
  1  2  1  0
  2  3  1  0
  3  4  1  0
  4  5  1  0
  5  6  1  0
  6  7  1  0
  7  8  1  0
  8  9  1  0
  9  1  1  0
  5  3  1  0
  8  6  1  0
  1 10  1  0
  1 11  1  0
  2 12  1  0
  2 13  1  0
  3 14  1  0
  4 15  1  0
  4 16  1  0
  5 17  1  0
  6 18  1  0
  7 19  1  0
  7 20  1  0
  8 21  1  0
M  END
