
     RDKit          3D

 18 20  0  0  0  0  0  0  0  0999 V2000
    2.3223   -0.0325    0.4362 C   0  0  0  0  0  0  0  0  0  0  0  0
    1.8347    0.6178   -0.8258 C   0  0  0  0  0  0  0  0  0  0  0  0
    0.9815    0.6564    0.4506 C   0  0  0  0  0  0  0  0  0  0  0  0
   -0.1920   -0.2667    0.5472 C   0  0  0  0  0  0  0  0  0  0  0  0
   -0.1974   -1.1404   -0.5530 O   0  0  0  0  0  0  0  0  0  0  0  0
   -1.3286   -0.5451   -1.0442 C   0  0  0  0  0  0  0  0  0  0  0  0
   -2.5647   -0.7124   -0.2335 C   0  0  0  0  0  0  0  0  0  0  0  0
   -1.5275    0.2943    0.2010 C   0  0  0  0  0  0  0  0  0  0  0  0
    3.1204    0.5520    0.9609 H   0  0  0  0  0  0  0  0  0  0  0  0
    2.3694   -1.1393    0.4802 H   0  0  0  0  0  0  0  0  0  0  0  0
    1.5150   -0.1067   -1.6237 H   0  0  0  0  0  0  0  0  0  0  0  0
    2.2317    1.6042   -1.1321 H   0  0  0  0  0  0  0  0  0  0  0  0
    0.8796    1.6337    0.9698 H   0  0  0  0  0  0  0  0  0  0  0  0
   -0.2624   -0.8201    1.5301 H   0  0  0  0  0  0  0  0  0  0  0  0
   -1.3176    0.0545   -1.9713 H   0  0  0  0  0  0  0  0  0  0  0  0
   -2.6066   -1.6579    0.3837 H   0  0  0  0  0  0  0  0  0  0  0  0
   -3.5407   -0.3554   -0.5948 H   0  0  0  0  0  0  0  0  0  0  0  0
   -1.7170    1.3636    0.1106 H   0  0  0  0  0  0  0  0  0  0  0  0
  1  2  1  0
  2  3  1  0
  3  4  1  0
  4  5  1  0
  5  6  1  0
  6  7  1  0
  7  8  1  0
  3  1  1  0
  8  4  1  0
  8  6  1  0
  1  9  1  0
  1 10  1  0
  2 11  1  0
  2 12  1  0
  3 13  1  0
  4 14  1  0
  6 15  1  0
  7 16  1  0
  7 17  1  0
  8 18  1  0
M  END
