
     RDKit          3D

 17 18  0  0  0  0  0  0  0  0999 V2000
    1.6076   -0.0685   -0.2104 C   0  0  0  0  0  0  0  0  0  0  0  0
    0.8290    0.8580    0.6510 C   0  0  0  0  0  0  0  0  0  0  0  0
   -0.6441    0.6648    0.4779 C   0  0  0  0  0  0  0  0  0  0  0  0
   -1.0526    0.3977   -0.9498 C   0  0  0  0  0  0  0  0  0  0  0  0
   -0.4488   -0.9909   -0.7463 C   0  0  0  0  0  0  0  0  0  0  0  0
   -0.8938   -0.8345    0.7111 C   0  0  0  0  0  0  0  0  0  0  0  0
    0.8977   -1.0023   -0.8949 O   0  0  0  0  0  0  0  0  0  0  0  0
    2.2200    0.5653   -0.9152 H   0  0  0  0  0  0  0  0  0  0  0  0
    2.3914   -0.6340    0.3780 H   0  0  0  0  0  0  0  0  0  0  0  0
    1.1476    1.9282    0.5764 H   0  0  0  0  0  0  0  0  0  0  0  0
    1.0531    0.5820    1.7247 H   0  0  0  0  0  0  0  0  0  0  0  0
   -1.3148    1.3335    0.9955 H   0  0  0  0  0  0  0  0  0  0  0  0
   -2.1460    0.2966   -1.0117 H   0  0  0  0  0  0  0  0  0  0  0  0
   -0.5308    0.9357   -1.7294 H   0  0  0  0  0  0  0  0  0  0  0  0
   -0.9658   -1.7442   -1.3198 H   0  0  0  0  0  0  0  0  0  0  0  0
   -1.9535   -1.0477    0.8120 H   0  0  0  0  0  0  0  0  0  0  0  0
   -0.1963   -1.2395    1.4508 H   0  0  0  0  0  0  0  0  0  0  0  0
  1  2  1  0
  2  3  1  0
  3  4  1  0
  4  5  1  0
  5  6  1  0
  5  7  1  0
  7  1  1  0
  6  3  1  0
  1  8  1  0
  1  9  1  0
  2 10  1  0
  2 11  1  0
  3 12  1  0
  4 13  1  0
  4 14  1  0
  5 15  1  0
  6 16  1  0
  6 17  1  0
M  END
