
     RDKit          3D

 19 21  0  0  0  0  0  0  0  0999 V2000
    1.5291   -0.4513   -0.7992 C   0  0  0  0  0  0  0  0  0  0  0  0
    1.5963   -0.3891    0.7397 C   0  0  0  0  0  0  0  0  0  0  0  0
    0.4846    0.6470    0.9299 C   0  0  0  0  0  0  0  0  0  0  0  0
    0.8702    1.5747   -0.0703 O   0  0  0  0  0  0  0  0  0  0  0  0
    0.4122    0.5851   -0.9747 C   0  0  0  0  0  0  0  0  0  0  0  0
   -0.5853    0.2354    0.0282 C   0  0  0  0  0  0  0  0  0  0  0  0
   -1.9151    0.8109    0.0646 C   0  0  0  0  0  0  0  0  0  0  0  0
   -2.3951   -0.4170    0.5682 O   0  0  0  0  0  0  0  0  0  0  0  0
   -1.2287   -1.0601    0.0834 C   0  0  0  0  0  0  0  0  0  0  0  0
    1.2403   -1.4407   -1.1456 H   0  0  0  0  0  0  0  0  0  0  0  0
    2.4798   -0.0747   -1.2075 H   0  0  0  0  0  0  0  0  0  0  0  0
    1.3635   -1.3464    1.1983 H   0  0  0  0  0  0  0  0  0  0  0  0
    2.5363    0.0813    1.0715 H   0  0  0  0  0  0  0  0  0  0  0  0
    0.3233    1.0253    1.9106 H   0  0  0  0  0  0  0  0  0  0  0  0
    0.1804    0.8959   -1.9644 H   0  0  0  0  0  0  0  0  0  0  0  0
   -2.1358    1.6848    0.6805 H   0  0  0  0  0  0  0  0  0  0  0  0
   -2.3606    0.9274   -0.9675 H   0  0  0  0  0  0  0  0  0  0  0  0
   -0.9331   -1.8234    0.7995 H   0  0  0  0  0  0  0  0  0  0  0  0
   -1.4623   -1.4651   -0.9450 H   0  0  0  0  0  0  0  0  0  0  0  0
  1  2  1  0
  2  3  1  0
  3  4  1  0
  4  5  1  0
  5  6  1  0
  6  7  1  0
  7  8  1  0
  8  9  1  0
  5  1  1  0
  9  6  1  0
  6  3  1  0
  1 10  1  0
  1 11  1  0
  2 12  1  0
  2 13  1  0
  3 14  1  0
  5 15  1  0
  7 16  1  0
  7 17  1  0
  9 18  1  0
  9 19  1  0
M  END
