
     RDKit          3D

 21 22  0  0  0  0  0  0  0  0999 V2000
    1.6459   -0.8652   -0.2608 C   0  0  0  0  0  0  0  0  0  0  0  0
    0.4446   -1.1785   -1.0747 C   0  0  0  0  0  0  0  0  0  0  0  0
   -0.8640   -0.9648   -0.3627 C   0  0  0  0  0  0  0  0  0  0  0  0
   -1.7577    0.0338   -1.1148 C   0  0  0  0  0  0  0  0  0  0  0  0
   -0.9769    1.1153   -0.3513 C   0  0  0  0  0  0  0  0  0  0  0  0
   -0.7824    0.0581    0.7378 C   0  0  0  0  0  0  0  0  0  0  0  0
    0.1695    1.3453   -1.0714 O   0  0  0  0  0  0  0  0  0  0  0  0
    1.2782    1.4486   -0.2700 C   0  0  0  0  0  0  0  0  0  0  0  0
    2.0553    0.3813   -0.1230 O   0  0  0  0  0  0  0  0  0  0  0  0
    1.4806   -1.3307    0.7558 H   0  0  0  0  0  0  0  0  0  0  0  0
    2.4965   -1.4832   -0.6844 H   0  0  0  0  0  0  0  0  0  0  0  0
    0.4870   -2.2936   -1.2780 H   0  0  0  0  0  0  0  0  0  0  0  0
    0.4687   -0.7339   -2.0920 H   0  0  0  0  0  0  0  0  0  0  0  0
   -1.4303   -1.8689   -0.0851 H   0  0  0  0  0  0  0  0  0  0  0  0
   -2.7830   -0.0132   -0.7211 H   0  0  0  0  0  0  0  0  0  0  0  0
   -1.6201    0.0473   -2.1963 H   0  0  0  0  0  0  0  0  0  0  0  0
   -1.5804    1.9776   -0.0601 H   0  0  0  0  0  0  0  0  0  0  0  0
    0.1472    0.1155    1.2929 H   0  0  0  0  0  0  0  0  0  0  0  0
   -1.7119    0.0244    1.3488 H   0  0  0  0  0  0  0  0  0  0  0  0
    1.9096    2.2796   -0.7131 H   0  0  0  0  0  0  0  0  0  0  0  0
    0.9236    1.9053    0.7023 H   0  0  0  0  0  0  0  0  0  0  0  0
  1  2  1  0
  2  3  1  0
  3  4  1  0
  4  5  1  0
  5  6  1  0
  5  7  1  0
  7  8  1  0
  8  9  1  0
  9  1  1  0
  6  3  1  0
  1 10  1  0
  1 11  1  0
  2 12  1  0
  2 13  1  0
  3 14  1  0
  4 15  1  0
  4 16  1  0
  5 17  1  0
  6 18  1  0
  6 19  1  0
  8 20  1  0
  8 21  1  0
M  END
