
     RDKit          3D

 25 26  0  0  0  0  0  0  0  0999 V2000
    2.0491    0.2117    0.3978 C   0  0  0  0  0  0  0  0  0  0  0  0
    1.4298   -1.1407    0.2084 C   0  0  0  0  0  0  0  0  0  0  0  0
    0.4591   -1.2383   -0.9007 C   0  0  0  0  0  0  0  0  0  0  0  0
   -0.8997   -0.7516   -0.6618 C   0  0  0  0  0  0  0  0  0  0  0  0
   -1.5234   -0.9256    0.6804 C   0  0  0  0  0  0  0  0  0  0  0  0
   -2.2788    0.3830    0.3926 C   0  0  0  0  0  0  0  0  0  0  0  0
   -1.0864    0.7160   -0.5230 C   0  0  0  0  0  0  0  0  0  0  0  0
   -0.0550    1.4145    0.2887 C   0  0  0  0  0  0  0  0  0  0  0  0
    1.3047    1.3165   -0.3104 C   0  0  0  0  0  0  0  0  0  0  0  0
    3.1030    0.2738    0.0962 H   0  0  0  0  0  0  0  0  0  0  0  0
    1.9803    0.4501    1.4971 H   0  0  0  0  0  0  0  0  0  0  0  0
    0.9766   -1.5347    1.1288 H   0  0  0  0  0  0  0  0  0  0  0  0
    2.2832   -1.8454   -0.0240 H   0  0  0  0  0  0  0  0  0  0  0  0
    0.3865   -2.3326   -1.1802 H   0  0  0  0  0  0  0  0  0  0  0  0
    0.8484   -0.7594   -1.8456 H   0  0  0  0  0  0  0  0  0  0  0  0
   -1.6079   -1.1435   -1.4507 H   0  0  0  0  0  0  0  0  0  0  0  0
   -2.2640   -1.7353    0.7819 H   0  0  0  0  0  0  0  0  0  0  0  0
   -0.8973   -0.8616    1.5642 H   0  0  0  0  0  0  0  0  0  0  0  0
   -3.1664    0.2206   -0.2354 H   0  0  0  0  0  0  0  0  0  0  0  0
   -2.3742    1.0302    1.2635 H   0  0  0  0  0  0  0  0  0  0  0  0
   -1.3554    1.2911   -1.4161 H   0  0  0  0  0  0  0  0  0  0  0  0
   -0.0446    1.0260    1.3438 H   0  0  0  0  0  0  0  0  0  0  0  0
   -0.3506    2.4838    0.3717 H   0  0  0  0  0  0  0  0  0  0  0  0
    1.8477    2.2613   -0.0753 H   0  0  0  0  0  0  0  0  0  0  0  0
    1.2353    1.1900   -1.3920 H   0  0  0  0  0  0  0  0  0  0  0  0
  1  2  1  0
  2  3  1  0
  3  4  1  0
  4  5  1  0
  5  6  1  0
  6  7  1  0
  7  8  1  0
  8  9  1  0
  9  1  1  0
  7  4  1  0
  1 10  1  0
  1 11  1  0
  2 12  1  0
  2 13  1  0
  3 14  1  0
  3 15  1  0
  4 16  1  0
  5 17  1  0
  5 18  1  0
  6 19  1  0
  6 20  1  0
  7 21  1  0
  8 22  1  0
  8 23  1  0
  9 24  1  0
  9 25  1  0
M  END
