
     RDKit          3D

 21 23  0  0  0  0  0  0  0  0999 V2000
    1.8385   -1.2619   -0.2236 C   0  0  0  0  0  0  0  0  0  0  0  0
    1.6803    0.1735    0.3196 C   0  0  0  0  0  0  0  0  0  0  0  0
    0.3034    0.3861    0.1865 C   0  0  0  0  0  0  0  0  0  0  0  0
   -0.6648    1.0273    1.0558 C   0  0  0  0  0  0  0  0  0  0  0  0
   -1.5982    0.8141   -0.1513 C   0  0  0  0  0  0  0  0  0  0  0  0
   -1.6574   -0.6788   -0.3649 C   0  0  0  0  0  0  0  0  0  0  0  0
   -0.2800   -1.0432    0.1235 C   0  0  0  0  0  0  0  0  0  0  0  0
    0.5732   -1.5811   -0.7795 O   0  0  0  0  0  0  0  0  0  0  0  0
   -0.3251    1.1273   -0.9583 C   0  0  0  0  0  0  0  0  0  0  0  0
    2.6428   -1.3369   -0.9496 H   0  0  0  0  0  0  0  0  0  0  0  0
    1.9581   -1.9077    0.6732 H   0  0  0  0  0  0  0  0  0  0  0  0
    2.3016    0.8380   -0.3514 H   0  0  0  0  0  0  0  0  0  0  0  0
    2.1396    0.2588    1.3202 H   0  0  0  0  0  0  0  0  0  0  0  0
   -0.5803    2.0934    1.2642 H   0  0  0  0  0  0  0  0  0  0  0  0
   -0.9864    0.4242    1.9396 H   0  0  0  0  0  0  0  0  0  0  0  0
   -2.4350    1.4293   -0.2643 H   0  0  0  0  0  0  0  0  0  0  0  0
   -2.4156   -1.1333    0.3034 H   0  0  0  0  0  0  0  0  0  0  0  0
   -1.8012   -0.9554   -1.4252 H   0  0  0  0  0  0  0  0  0  0  0  0
   -0.2758   -1.4929    1.1244 H   0  0  0  0  0  0  0  0  0  0  0  0
   -0.3599    0.6364   -1.9243 H   0  0  0  0  0  0  0  0  0  0  0  0
   -0.0577    2.1827   -0.9181 H   0  0  0  0  0  0  0  0  0  0  0  0
  1  2  1  0
  2  3  1  0
  3  4  1  0
  4  5  1  0
  5  6  1  0
  6  7  1  0
  7  8  1  0
  5  9  1  0
  8  1  1  0
  7  3  1  0
  9  3  1  0
  1 10  1  0
  1 11  1  0
  2 12  1  0
  2 13  1  0
  4 14  1  0
  4 15  1  0
  5 16  1  0
  6 17  1  0
  6 18  1  0
  7 19  1  0
  9 20  1  0
  9 21  1  0
M  END
