
     RDKit          3D

 15 16  0  0  0  0  0  0  0  0999 V2000
   -1.2329   -0.8868    0.1511 C   0  0  0  0  0  0  0  0  0  0  0  0
   -1.2847    0.5778   -0.2848 C   0  0  0  0  0  0  0  0  0  0  0  0
    0.1744    0.9426   -0.2131 C   0  0  0  0  0  0  0  0  0  0  0  0
    0.9887    0.4273   -1.1904 O   0  0  0  0  0  0  0  0  0  0  0  0
    1.7335   -0.3707   -0.3060 C   0  0  0  0  0  0  0  0  0  0  0  0
    0.7413   -0.0284    0.7600 C   0  0  0  0  0  0  0  0  0  0  0  0
   -0.1771   -1.0021    1.0242 O   0  0  0  0  0  0  0  0  0  0  0  0
   -2.1780   -1.1016    0.6906 H   0  0  0  0  0  0  0  0  0  0  0  0
   -1.1644   -1.5275   -0.7383 H   0  0  0  0  0  0  0  0  0  0  0  0
   -1.7313    0.7075   -1.2734 H   0  0  0  0  0  0  0  0  0  0  0  0
   -1.8097    1.1279    0.5189 H   0  0  0  0  0  0  0  0  0  0  0  0
    0.3206    2.0074   -0.0220 H   0  0  0  0  0  0  0  0  0  0  0  0
    1.7154   -1.4134   -0.6852 H   0  0  0  0  0  0  0  0  0  0  0  0
    2.7528    0.0257   -0.0831 H   0  0  0  0  0  0  0  0  0  0  0  0
    1.1515    0.5143    1.6515 H   0  0  0  0  0  0  0  0  0  0  0  0
  1  2  1  0
  2  3  1  0
  3  4  1  0
  4  5  1  0
  5  6  1  0
  6  7  1  0
  7  1  1  0
  6  3  1  0
  1  8  1  0
  1  9  1  0
  2 10  1  0
  2 11  1  0
  3 12  1  0
  5 13  1  0
  5 14  1  0
  6 15  1  0
M  END
