
     RDKit          3D

 21 23  0  0  0  0  0  0  0  0999 V2000
   -1.9816    0.8506    0.1751 C   0  0  0  0  0  0  0  0  0  0  0  0
   -1.1049   -0.0533    1.0441 C   0  0  0  0  0  0  0  0  0  0  0  0
   -0.3218   -0.3683   -0.1585 C   0  0  0  0  0  0  0  0  0  0  0  0
   -1.2794    0.3092   -1.0626 C   0  0  0  0  0  0  0  0  0  0  0  0
    0.0503   -1.7766   -0.4421 C   0  0  0  0  0  0  0  0  0  0  0  0
    1.2635   -1.3160   -0.9953 O   0  0  0  0  0  0  0  0  0  0  0  0
    1.0951   -0.1641   -0.2483 C   0  0  0  0  0  0  0  0  0  0  0  0
    2.0143    0.2084    0.8394 C   0  0  0  0  0  0  0  0  0  0  0  0
    1.8694    1.0394   -0.3895 C   0  0  0  0  0  0  0  0  0  0  0  0
   -1.8571    1.9255    0.3549 H   0  0  0  0  0  0  0  0  0  0  0  0
   -3.0450    0.5369    0.2748 H   0  0  0  0  0  0  0  0  0  0  0  0
   -1.6690   -0.8910    1.5268 H   0  0  0  0  0  0  0  0  0  0  0  0
   -0.5825    0.5453    1.8215 H   0  0  0  0  0  0  0  0  0  0  0  0
   -1.9029   -0.4505   -1.6081 H   0  0  0  0  0  0  0  0  0  0  0  0
   -0.7920    1.0613   -1.6952 H   0  0  0  0  0  0  0  0  0  0  0  0
    0.1830   -2.4197    0.4589 H   0  0  0  0  0  0  0  0  0  0  0  0
   -0.6015   -2.2158   -1.2342 H   0  0  0  0  0  0  0  0  0  0  0  0
    1.5484    0.4946    1.7960 H   0  0  0  0  0  0  0  0  0  0  0  0
    2.9240   -0.4448    0.9222 H   0  0  0  0  0  0  0  0  0  0  0  0
    1.3992    2.0546   -0.3383 H   0  0  0  0  0  0  0  0  0  0  0  0
    2.7907    1.0745   -1.0418 H   0  0  0  0  0  0  0  0  0  0  0  0
  1  2  1  0
  2  3  1  0
  3  4  1  0
  3  5  1  0
  5  6  1  0
  6  7  1  0
  7  8  1  0
  8  9  1  0
  4  1  1  0
  9  7  1  0
  7  3  1  0
  1 10  1  0
  1 11  1  0
  2 12  1  0
  2 13  1  0
  4 14  1  0
  4 15  1  0
  5 16  1  0
  5 17  1  0
  8 18  1  0
  8 19  1  0
  9 20  1  0
  9 21  1  0
M  END
