
     RDKit          3D

 19 21  0  0  0  0  0  0  0  0999 V2000
   -2.2539   -0.1695   -0.2669 C   0  0  0  0  0  0  0  0  0  0  0  0
   -1.2044   -0.9959    0.4893 C   0  0  0  0  0  0  0  0  0  0  0  0
   -0.3267   -0.0747   -0.2706 C   0  0  0  0  0  0  0  0  0  0  0  0
    0.0558    1.2148    0.4816 C   0  0  0  0  0  0  0  0  0  0  0  0
    1.5695    1.0123    0.3671 C   0  0  0  0  0  0  0  0  0  0  0  0
    1.7922   -0.4249    0.6836 C   0  0  0  0  0  0  0  0  0  0  0  0
    1.0391   -0.5310   -0.6325 C   0  0  0  0  0  0  0  0  0  0  0  0
    1.6950    0.6656   -0.9900 O   0  0  0  0  0  0  0  0  0  0  0  0
   -1.2585    0.0715   -1.2437 O   0  0  0  0  0  0  0  0  0  0  0  0
   -2.5135    0.7388    0.3253 H   0  0  0  0  0  0  0  0  0  0  0  0
   -3.1111   -0.7611   -0.6367 H   0  0  0  0  0  0  0  0  0  0  0  0
   -1.1599   -2.0399    0.1929 H   0  0  0  0  0  0  0  0  0  0  0  0
   -1.2270   -0.8163    1.5990 H   0  0  0  0  0  0  0  0  0  0  0  0
   -0.2932    1.1677    1.5176 H   0  0  0  0  0  0  0  0  0  0  0  0
   -0.2811    2.0802   -0.0929 H   0  0  0  0  0  0  0  0  0  0  0  0
    2.2025    1.7696    0.7563 H   0  0  0  0  0  0  0  0  0  0  0  0
    1.2257   -0.8187    1.5534 H   0  0  0  0  0  0  0  0  0  0  0  0
    2.8506   -0.7003    0.6358 H   0  0  0  0  0  0  0  0  0  0  0  0
    1.1990   -1.3883   -1.2415 H   0  0  0  0  0  0  0  0  0  0  0  0
  1  2  1  0
  2  3  1  0
  3  4  1  0
  4  5  1  0
  5  6  1  0
  6  7  1  0
  7  8  1  0
  3  9  1  0
  9  1  1  0
  7  3  1  0
  8  5  1  0
  1 10  1  0
  1 11  1  0
  2 12  1  0
  2 13  1  0
  4 14  1  0
  4 15  1  0
  5 16  1  0
  6 17  1  0
  6 18  1  0
  7 19  1  0
M  END
