
     RDKit          3D

 19 21  0  0  0  0  0  0  0  0999 V2000
    1.7771   -0.3329    0.2761 C   0  0  0  0  0  0  0  0  0  0  0  0
    1.1489   -0.0464   -1.0567 C   0  0  0  0  0  0  0  0  0  0  0  0
   -0.3219   -0.0128   -0.9518 C   0  0  0  0  0  0  0  0  0  0  0  0
   -0.9290   -0.9124    0.0725 C   0  0  0  0  0  0  0  0  0  0  0  0
   -1.9655    0.2057    0.2813 C   0  0  0  0  0  0  0  0  0  0  0  0
   -0.7835    1.1320   -0.0379 C   0  0  0  0  0  0  0  0  0  0  0  0
    0.0907    1.2213    1.0087 O   0  0  0  0  0  0  0  0  0  0  0  0
    0.7237    0.0452    1.3263 C   0  0  0  0  0  0  0  0  0  0  0  0
   -0.2248   -1.0002    1.2509 O   0  0  0  0  0  0  0  0  0  0  0  0
    1.9485   -1.4406    0.3183 H   0  0  0  0  0  0  0  0  0  0  0  0
    2.7303    0.1619    0.4507 H   0  0  0  0  0  0  0  0  0  0  0  0
    1.4926    0.9587   -1.4402 H   0  0  0  0  0  0  0  0  0  0  0  0
    1.4572   -0.7722   -1.8196 H   0  0  0  0  0  0  0  0  0  0  0  0
   -0.9125   -0.0069   -1.8734 H   0  0  0  0  0  0  0  0  0  0  0  0
   -1.3492   -1.8614   -0.2561 H   0  0  0  0  0  0  0  0  0  0  0  0
   -2.3459    0.2913    1.2980 H   0  0  0  0  0  0  0  0  0  0  0  0
   -2.6966    0.2306   -0.5451 H   0  0  0  0  0  0  0  0  0  0  0  0
   -1.0177    2.0106   -0.6149 H   0  0  0  0  0  0  0  0  0  0  0  0
    1.1774    0.1283    2.3130 H   0  0  0  0  0  0  0  0  0  0  0  0
  1  2  1  0
  2  3  1  0
  3  4  1  0
  4  5  1  0
  5  6  1  0
  6  7  1  0
  7  8  1  0
  8  9  1  0
  8  1  1  0
  6  3  1  0
  9  4  1  0
  1 10  1  0
  1 11  1  0
  2 12  1  0
  2 13  1  0
  3 14  1  0
  4 15  1  0
  5 16  1  0
  5 17  1  0
  6 18  1  0
  8 19  1  0
M  END
