
     RDKit          3D

 17 18  0  0  0  0  0  0  0  0999 V2000
    2.7455    0.4835    0.3204 C   0  0  0  0  0  0  0  0  0  0  0  0
    1.9792   -0.6609    0.3721 C   0  0  0  0  0  0  0  0  0  0  0  0
    0.6891   -0.3212    0.0547 C   0  0  0  0  0  0  0  0  0  0  0  0
    0.7089    1.0345   -0.1834 C   0  0  0  0  0  0  0  0  0  0  0  0
    1.9404    1.4602   -0.0143 O   0  0  0  0  0  0  0  0  0  0  0  0
   -0.4973    1.6349   -0.5307 O   0  0  0  0  0  0  0  0  0  0  0  0
   -1.6670    1.0641    0.0293 C   0  0  0  0  0  0  0  0  0  0  0  0
   -1.7257   -0.3588   -0.5209 C   0  0  0  0  0  0  0  0  0  0  0  0
   -0.5453   -1.1353   -0.0460 C   0  0  0  0  0  0  0  0  0  0  0  0
    3.7989    0.6098    0.5075 H   0  0  0  0  0  0  0  0  0  0  0  0
    2.3354   -1.6630    0.6219 H   0  0  0  0  0  0  0  0  0  0  0  0
   -1.5815    0.9489    1.1432 H   0  0  0  0  0  0  0  0  0  0  0  0
   -2.5736    1.6173   -0.1962 H   0  0  0  0  0  0  0  0  0  0  0  0
   -2.6933   -0.7777   -0.1225 H   0  0  0  0  0  0  0  0  0  0  0  0
   -1.8189   -0.3287   -1.6244 H   0  0  0  0  0  0  0  0  0  0  0  0
   -0.3787   -1.9987   -0.7539 H   0  0  0  0  0  0  0  0  0  0  0  0
   -0.7161   -1.6089    0.9433 H   0  0  0  0  0  0  0  0  0  0  0  0
  1  2  2  0
  2  3  1  0
  3  4  2  0
  4  5  1  0
  4  6  1  0
  6  7  1  0
  7  8  1  0
  8  9  1  0
  5  1  1  0
  9  3  1  0
  1 10  1  0
  2 11  1  0
  7 12  1  0
  7 13  1  0
  8 14  1  0
  8 15  1  0
  9 16  1  0
  9 17  1  0
M  END
