
     RDKit          3D

 21 22  0  0  0  0  0  0  0  0999 V2000
   -2.2182    0.0952   -0.4477 C   0  0  0  0  0  0  0  0  0  0  0  0
   -1.4835    0.8095    0.6843 C   0  0  0  0  0  0  0  0  0  0  0  0
   -0.2207    0.2113    0.1763 C   0  0  0  0  0  0  0  0  0  0  0  0
   -1.0000   -0.8352   -0.5350 C   0  0  0  0  0  0  0  0  0  0  0  0
    0.5629    1.0824   -0.8059 C   0  0  0  0  0  0  0  0  0  0  0  0
    1.5437    0.2159   -1.3350 O   0  0  0  0  0  0  0  0  0  0  0  0
    2.4500   -0.0034   -0.3099 C   0  0  0  0  0  0  0  0  0  0  0  0
    1.9463   -0.6385    0.7801 O   0  0  0  0  0  0  0  0  0  0  0  0
    0.7323   -0.2198    1.2328 C   0  0  0  0  0  0  0  0  0  0  0  0
   -2.3688    0.7320   -1.3259 H   0  0  0  0  0  0  0  0  0  0  0  0
   -3.0886   -0.4864   -0.1533 H   0  0  0  0  0  0  0  0  0  0  0  0
   -1.7216    0.4596    1.6920 H   0  0  0  0  0  0  0  0  0  0  0  0
   -1.4607    1.9145    0.5886 H   0  0  0  0  0  0  0  0  0  0  0  0
   -1.1091   -1.7769    0.0198 H   0  0  0  0  0  0  0  0  0  0  0  0
   -0.7530   -1.0266   -1.5961 H   0  0  0  0  0  0  0  0  0  0  0  0
   -0.0943    1.4953   -1.5617 H   0  0  0  0  0  0  0  0  0  0  0  0
    1.0568    1.8636   -0.1651 H   0  0  0  0  0  0  0  0  0  0  0  0
    3.2658   -0.6346   -0.7374 H   0  0  0  0  0  0  0  0  0  0  0  0
    2.8310    0.9997   -0.0035 H   0  0  0  0  0  0  0  0  0  0  0  0
    0.8553    0.6495    1.9439 H   0  0  0  0  0  0  0  0  0  0  0  0
    0.2744   -1.0246    1.8588 H   0  0  0  0  0  0  0  0  0  0  0  0
  1  2  1  0
  2  3  1  0
  3  4  1  0
  3  5  1  0
  5  6  1  0
  6  7  1  0
  7  8  1  0
  8  9  1  0
  4  1  1  0
  9  3  1  0
  1 10  1  0
  1 11  1  0
  2 12  1  0
  2 13  1  0
  4 14  1  0
  4 15  1  0
  5 16  1  0
  5 17  1  0
  7 18  1  0
  7 19  1  0
  9 20  1  0
  9 21  1  0
M  END
