
     RDKit          3D

 21 23  0  0  0  0  0  0  0  0999 V2000
    1.4762    0.6413   -0.3384 C   0  0  0  0  0  0  0  0  0  0  0  0
    1.3804   -0.8227   -0.1716 C   0  0  0  0  0  0  0  0  0  0  0  0
    0.1183   -1.3559    0.3855 C   0  0  0  0  0  0  0  0  0  0  0  0
   -1.1733   -0.9564   -0.2023 C   0  0  0  0  0  0  0  0  0  0  0  0
   -1.3205    0.0432   -1.2721 C   0  0  0  0  0  0  0  0  0  0  0  0
   -0.6306    1.1942   -1.1803 O   0  0  0  0  0  0  0  0  0  0  0  0
    0.1814    1.3858   -0.1167 C   0  0  0  0  0  0  0  0  0  0  0  0
   -0.3666    0.9538    1.2073 C   0  0  0  0  0  0  0  0  0  0  0  0
   -0.7592   -0.4816    1.1217 C   0  0  0  0  0  0  0  0  0  0  0  0
    1.7851    0.9056   -1.3938 H   0  0  0  0  0  0  0  0  0  0  0  0
    2.3076    1.0765    0.2907 H   0  0  0  0  0  0  0  0  0  0  0  0
    2.2485   -1.1712    0.4604 H   0  0  0  0  0  0  0  0  0  0  0  0
    1.5560   -1.3253   -1.1621 H   0  0  0  0  0  0  0  0  0  0  0  0
    0.2105   -2.4152    0.7724 H   0  0  0  0  0  0  0  0  0  0  0  0
   -1.9666   -1.7622   -0.2322 H   0  0  0  0  0  0  0  0  0  0  0  0
   -1.0858   -0.4580   -2.2558 H   0  0  0  0  0  0  0  0  0  0  0  0
   -2.4190    0.2941   -1.3637 H   0  0  0  0  0  0  0  0  0  0  0  0
    0.4430    2.4755   -0.0572 H   0  0  0  0  0  0  0  0  0  0  0  0
    0.4911    1.0158    1.9379 H   0  0  0  0  0  0  0  0  0  0  0  0
   -1.1411    1.6216    1.5661 H   0  0  0  0  0  0  0  0  0  0  0  0
   -1.3353   -0.8591    2.0043 H   0  0  0  0  0  0  0  0  0  0  0  0
  1  2  1  0
  2  3  1  0
  3  4  1  0
  4  5  1  0
  5  6  1  0
  6  7  1  0
  7  8  1  0
  8  9  1  0
  7  1  1  0
  9  3  1  0
  9  4  1  0
  1 10  1  0
  1 11  1  0
  2 12  1  0
  2 13  1  0
  3 14  1  0
  4 15  1  0
  5 16  1  0
  5 17  1  0
  7 18  1  0
  8 19  1  0
  8 20  1  0
  9 21  1  0
M  END
