
     RDKit          3D

 18 20  0  0  0  0  0  0  0  0999 V2000
   -1.0614    1.1160    0.1047 C   0  0  0  0  0  0  0  0  0  0  0  0
   -1.4701   -0.3193    0.0942 C   0  0  0  0  0  0  0  0  0  0  0  0
   -0.3833   -1.2764   -0.2192 C   0  0  0  0  0  0  0  0  0  0  0  0
    0.9348   -1.0045    0.3487 C   0  0  0  0  0  0  0  0  0  0  0  0
    1.1921    0.3888    0.8102 C   0  0  0  0  0  0  0  0  0  0  0  0
    0.4172    1.2128   -0.1962 C   0  0  0  0  0  0  0  0  0  0  0  0
    0.6739    0.5492   -1.3718 O   0  0  0  0  0  0  0  0  0  0  0  0
    0.6564   -0.7983   -1.1425 C   0  0  0  0  0  0  0  0  0  0  0  0
   -1.5893    1.7181   -0.6727 H   0  0  0  0  0  0  0  0  0  0  0  0
   -1.2699    1.6126    1.0982 H   0  0  0  0  0  0  0  0  0  0  0  0
   -2.2904   -0.4801   -0.6668 H   0  0  0  0  0  0  0  0  0  0  0  0
   -1.8857   -0.5599    1.1131 H   0  0  0  0  0  0  0  0  0  0  0  0
   -0.6855   -2.3260   -0.3168 H   0  0  0  0  0  0  0  0  0  0  0  0
    1.6100   -1.8289    0.6376 H   0  0  0  0  0  0  0  0  0  0  0  0
    2.2756    0.6117    0.6308 H   0  0  0  0  0  0  0  0  0  0  0  0
    0.8980    0.5973    1.8474 H   0  0  0  0  0  0  0  0  0  0  0  0
    0.7782    2.2526   -0.2735 H   0  0  0  0  0  0  0  0  0  0  0  0
    1.1994   -1.4658   -1.8254 H   0  0  0  0  0  0  0  0  0  0  0  0
  1  2  1  0
  2  3  1  0
  3  4  1  0
  4  5  1  0
  5  6  1  0
  6  7  1  0
  7  8  1  0
  6  1  1  0
  8  3  1  0
  8  4  1  0
  1  9  1  0
  1 10  1  0
  2 11  1  0
  2 12  1  0
  3 13  1  0
  4 14  1  0
  5 15  1  0
  5 16  1  0
  6 17  1  0
  8 18  1  0
M  END
