
     RDKit          3D

 19 21  0  0  0  0  0  0  0  0999 V2000
   -1.4494    0.9795   -0.0075 C   0  0  0  0  0  0  0  0  0  0  0  0
   -1.5088   -0.5016    0.1859 C   0  0  0  0  0  0  0  0  0  0  0  0
   -0.1421   -1.0717   -0.0768 C   0  0  0  0  0  0  0  0  0  0  0  0
    0.8172   -0.7333    1.0815 C   0  0  0  0  0  0  0  0  0  0  0  0
    1.7716    0.1297    0.2591 C   0  0  0  0  0  0  0  0  0  0  0  0
    1.8557   -0.5126   -0.9772 O   0  0  0  0  0  0  0  0  0  0  0  0
    0.5112   -0.2038   -1.1284 C   0  0  0  0  0  0  0  0  0  0  0  0
    0.8183    1.0897   -0.3933 C   0  0  0  0  0  0  0  0  0  0  0  0
   -0.2234    1.4968    0.4089 O   0  0  0  0  0  0  0  0  0  0  0  0
   -1.5803    1.2189   -1.0873 H   0  0  0  0  0  0  0  0  0  0  0  0
   -2.2392    1.4558    0.5893 H   0  0  0  0  0  0  0  0  0  0  0  0
   -2.1899   -0.9262   -0.5793 H   0  0  0  0  0  0  0  0  0  0  0  0
   -1.9185   -0.8050    1.1678 H   0  0  0  0  0  0  0  0  0  0  0  0
   -0.1335   -2.1329   -0.3126 H   0  0  0  0  0  0  0  0  0  0  0  0
    1.2865   -1.6157    1.4987 H   0  0  0  0  0  0  0  0  0  0  0  0
    0.3160   -0.0649    1.7852 H   0  0  0  0  0  0  0  0  0  0  0  0
    2.6557    0.4861    0.7241 H   0  0  0  0  0  0  0  0  0  0  0  0
    0.0843   -0.1495   -2.1001 H   0  0  0  0  0  0  0  0  0  0  0  0
    1.2687    1.8606   -1.0378 H   0  0  0  0  0  0  0  0  0  0  0  0
  1  2  1  0
  2  3  1  0
  3  4  1  0
  4  5  1  0
  5  6  1  0
  6  7  1  0
  7  8  1  0
  8  9  1  0
  9  1  1  0
  7  3  1  0
  8  5  1  0
  1 10  1  0
  1 11  1  0
  2 12  1  0
  2 13  1  0
  3 14  1  0
  4 15  1  0
  4 16  1  0
  5 17  1  0
  7 18  1  0
  8 19  1  0
M  END
