
     RDKit          3D

 21 23  0  0  0  0  0  0  0  0999 V2000
   -1.7376    0.6736    0.2059 C   0  0  0  0  0  0  0  0  0  0  0  0
   -2.0009   -0.8132    0.1716 C   0  0  0  0  0  0  0  0  0  0  0  0
   -0.7174   -0.9677   -0.6227 C   0  0  0  0  0  0  0  0  0  0  0  0
    0.4826   -1.0285    0.2848 C   0  0  0  0  0  0  0  0  0  0  0  0
    1.3781    0.0292   -0.2738 C   0  0  0  0  0  0  0  0  0  0  0  0
    2.6452    0.2771    0.4148 C   0  0  0  0  0  0  0  0  0  0  0  0
    2.5898   -0.2816   -0.8480 O   0  0  0  0  0  0  0  0  0  0  0  0
    0.5308    1.0974   -0.8717 C   0  0  0  0  0  0  0  0  0  0  0  0
   -0.8299    0.4917   -0.9888 C   0  0  0  0  0  0  0  0  0  0  0  0
   -2.6190    1.3198    0.0223 H   0  0  0  0  0  0  0  0  0  0  0  0
   -1.1671    1.0178    1.0760 H   0  0  0  0  0  0  0  0  0  0  0  0
   -1.8838   -1.2641    1.1771 H   0  0  0  0  0  0  0  0  0  0  0  0
   -2.9177   -1.1351   -0.3257 H   0  0  0  0  0  0  0  0  0  0  0  0
   -0.7538   -1.6816   -1.4480 H   0  0  0  0  0  0  0  0  0  0  0  0
    0.1941   -0.7051    1.3213 H   0  0  0  0  0  0  0  0  0  0  0  0
    0.9654   -2.0313    0.3007 H   0  0  0  0  0  0  0  0  0  0  0  0
    2.9298    1.3490    0.5385 H   0  0  0  0  0  0  0  0  0  0  0  0
    2.9500   -0.4404    1.2036 H   0  0  0  0  0  0  0  0  0  0  0  0
    0.4534    2.0196   -0.2602 H   0  0  0  0  0  0  0  0  0  0  0  0
    0.8742    1.4124   -1.8914 H   0  0  0  0  0  0  0  0  0  0  0  0
   -1.3664    0.6609   -1.9408 H   0  0  0  0  0  0  0  0  0  0  0  0
  1  2  1  0
  2  3  1  0
  3  4  1  0
  4  5  1  0
  5  6  1  0
  6  7  1  0
  5  8  1  0
  8  9  1  0
  9  1  1  0
  9  3  1  0
  7  5  1  0
  1 10  1  0
  1 11  1  0
  2 12  1  0
  2 13  1  0
  3 14  1  0
  4 15  1  0
  4 16  1  0
  6 17  1  0
  6 18  1  0
  8 19  1  0
  8 20  1  0
  9 21  1  0
M  END
