
     RDKit          3D

 23 24  0  0  0  0  0  0  0  0999 V2000
   -2.0208   -0.3882   -0.5851 C   0  0  0  0  0  0  0  0  0  0  0  0
   -1.7025    1.0514   -0.2834 C   0  0  0  0  0  0  0  0  0  0  0  0
   -0.5627    0.9923    0.7340 C   0  0  0  0  0  0  0  0  0  0  0  0
    0.1802   -0.2297    0.2729 C   0  0  0  0  0  0  0  0  0  0  0  0
   -0.8835   -1.2204   -0.0480 C   0  0  0  0  0  0  0  0  0  0  0  0
    1.0294    0.1553   -0.9039 C   0  0  0  0  0  0  0  0  0  0  0  0
    2.3862    0.3499   -0.2746 C   0  0  0  0  0  0  0  0  0  0  0  0
    2.2462    0.1491    1.0864 O   0  0  0  0  0  0  0  0  0  0  0  0
    1.1827   -0.7372    1.2603 C   0  0  0  0  0  0  0  0  0  0  0  0
   -2.9795   -0.7171   -0.1106 H   0  0  0  0  0  0  0  0  0  0  0  0
   -2.1518   -0.5772   -1.6782 H   0  0  0  0  0  0  0  0  0  0  0  0
   -2.5713    1.6143    0.1038 H   0  0  0  0  0  0  0  0  0  0  0  0
   -1.3266    1.5262   -1.2217 H   0  0  0  0  0  0  0  0  0  0  0  0
    0.0504    1.9165    0.7153 H   0  0  0  0  0  0  0  0  0  0  0  0
   -0.9653    0.8988    1.7640 H   0  0  0  0  0  0  0  0  0  0  0  0
   -1.2131   -1.7119    0.9044 H   0  0  0  0  0  0  0  0  0  0  0  0
   -0.5566   -1.9900   -0.7745 H   0  0  0  0  0  0  0  0  0  0  0  0
    1.0078   -0.6981   -1.6238 H   0  0  0  0  0  0  0  0  0  0  0  0
    0.7204    1.0829   -1.4016 H   0  0  0  0  0  0  0  0  0  0  0  0
    3.0725   -0.3718   -0.7622 H   0  0  0  0  0  0  0  0  0  0  0  0
    2.7355    1.3969   -0.4157 H   0  0  0  0  0  0  0  0  0  0  0  0
    0.8431   -0.7251    2.3005 H   0  0  0  0  0  0  0  0  0  0  0  0
    1.4794   -1.7669    0.9416 H   0  0  0  0  0  0  0  0  0  0  0  0
  1  2  1  0
  2  3  1  0
  3  4  1  0
  4  5  1  0
  4  6  1  0
  6  7  1  0
  7  8  1  0
  8  9  1  0
  5  1  1  0
  9  4  1  0
  1 10  1  0
  1 11  1  0
  2 12  1  0
  2 13  1  0
  3 14  1  0
  3 15  1  0
  5 16  1  0
  5 17  1  0
  6 18  1  0
  6 19  1  0
  7 20  1  0
  7 21  1  0
  9 22  1  0
  9 23  1  0
M  END
