
     RDKit          3D

 25 26  0  0  0  0  0  0  0  0999 V2000
   -1.3966    0.3012   -1.0979 C   0  0  0  0  0  0  0  0  0  0  0  0
   -1.5945   -0.9020   -0.2483 C   0  0  0  0  0  0  0  0  0  0  0  0
   -0.3876   -1.1853    0.6278 C   0  0  0  0  0  0  0  0  0  0  0  0
    0.7974   -1.4844   -0.2428 C   0  0  0  0  0  0  0  0  0  0  0  0
    1.9138   -0.4995   -0.0862 C   0  0  0  0  0  0  0  0  0  0  0  0
    1.4809    0.9296   -0.1806 C   0  0  0  0  0  0  0  0  0  0  0  0
    0.2230    1.2348    0.5680 C   0  0  0  0  0  0  0  0  0  0  0  0
   -0.8944    1.5065   -0.3869 C   0  0  0  0  0  0  0  0  0  0  0  0
   -0.1695    0.0689    1.4699 C   0  0  0  0  0  0  0  0  0  0  0  0
   -2.4025    0.5663   -1.5397 H   0  0  0  0  0  0  0  0  0  0  0  0
   -0.7572    0.0508   -1.9769 H   0  0  0  0  0  0  0  0  0  0  0  0
   -1.7184   -1.7914   -0.9008 H   0  0  0  0  0  0  0  0  0  0  0  0
   -2.4674   -0.8032    0.4107 H   0  0  0  0  0  0  0  0  0  0  0  0
   -0.6293   -1.9925    1.3392 H   0  0  0  0  0  0  0  0  0  0  0  0
    0.5000   -1.6475   -1.3041 H   0  0  0  0  0  0  0  0  0  0  0  0
    1.1993   -2.4818    0.0983 H   0  0  0  0  0  0  0  0  0  0  0  0
    2.4047   -0.6604    0.8960 H   0  0  0  0  0  0  0  0  0  0  0  0
    2.6679   -0.6842   -0.8632 H   0  0  0  0  0  0  0  0  0  0  0  0
    2.2983    1.5501    0.2866 H   0  0  0  0  0  0  0  0  0  0  0  0
    1.4150    1.2705   -1.2402 H   0  0  0  0  0  0  0  0  0  0  0  0
    0.3273    2.1135    1.2544 H   0  0  0  0  0  0  0  0  0  0  0  0
   -1.6801    2.0705    0.1507 H   0  0  0  0  0  0  0  0  0  0  0  0
   -0.4998    2.2155   -1.1690 H   0  0  0  0  0  0  0  0  0  0  0  0
   -1.1889    0.3323    1.8664 H   0  0  0  0  0  0  0  0  0  0  0  0
    0.5588   -0.0780    2.2686 H   0  0  0  0  0  0  0  0  0  0  0  0
  1  2  1  0
  2  3  1  0
  3  4  1  0
  4  5  1  0
  5  6  1  0
  6  7  1  0
  7  8  1  0
  7  9  1  0
  8  1  1  0
  9  3  1  0
  1 10  1  0
  1 11  1  0
  2 12  1  0
  2 13  1  0
  3 14  1  0
  4 15  1  0
  4 16  1  0
  5 17  1  0
  5 18  1  0
  6 19  1  0
  6 20  1  0
  7 21  1  0
  8 22  1  0
  8 23  1  0
  9 24  1  0
  9 25  1  0
M  END
