
     RDKit          3D

 19 20  0  0  0  0  0  0  0  0999 V2000
   -2.2001   -0.1524    0.1959 C   0  0  0  0  0  0  0  0  0  0  0  0
   -0.9798   -0.8159    0.7780 C   0  0  0  0  0  0  0  0  0  0  0  0
    0.1427   -0.1394    0.0408 C   0  0  0  0  0  0  0  0  0  0  0  0
   -0.5247    0.5551   -1.1042 C   0  0  0  0  0  0  0  0  0  0  0  0
   -1.8613    0.2148   -1.0982 O   0  0  0  0  0  0  0  0  0  0  0  0
    0.9700    0.7599    0.8989 C   0  0  0  0  0  0  0  0  0  0  0  0
    2.2842    0.5875    0.4315 O   0  0  0  0  0  0  0  0  0  0  0  0
    2.2334   -0.3709   -0.5559 C   0  0  0  0  0  0  0  0  0  0  0  0
    1.0587   -1.1086   -0.3555 O   0  0  0  0  0  0  0  0  0  0  0  0
   -2.5190    0.7307    0.7817 H   0  0  0  0  0  0  0  0  0  0  0  0
   -3.0788   -0.8253    0.1377 H   0  0  0  0  0  0  0  0  0  0  0  0
   -1.0131   -1.8940    0.4739 H   0  0  0  0  0  0  0  0  0  0  0  0
   -0.9106   -0.7321    1.8719 H   0  0  0  0  0  0  0  0  0  0  0  0
   -0.0756    0.1821   -2.0625 H   0  0  0  0  0  0  0  0  0  0  0  0
   -0.4745    1.6706   -1.0354 H   0  0  0  0  0  0  0  0  0  0  0  0
    0.7473    1.8463    0.7486 H   0  0  0  0  0  0  0  0  0  0  0  0
    0.9190    0.4761    1.9687 H   0  0  0  0  0  0  0  0  0  0  0  0
    2.1684    0.0659   -1.5819 H   0  0  0  0  0  0  0  0  0  0  0  0
    3.1138   -1.0504   -0.5342 H   0  0  0  0  0  0  0  0  0  0  0  0
  1  2  1  0
  2  3  1  0
  3  4  1  0
  4  5  1  0
  3  6  1  0
  6  7  1  0
  7  8  1  0
  8  9  1  0
  5  1  1  0
  9  3  1  0
  1 10  1  0
  1 11  1  0
  2 12  1  0
  2 13  1  0
  4 14  1  0
  4 15  1  0
  6 16  1  0
  6 17  1  0
  8 18  1  0
  8 19  1  0
M  END
