
     RDKit          3D

 19 21  0  0  0  0  0  0  0  0999 V2000
    2.6714    0.2584   -0.3569 C   0  0  0  0  0  0  0  0  0  0  0  0
    1.7675   -0.2123    0.7793 C   0  0  0  0  0  0  0  0  0  0  0  0
    0.7426   -0.2480   -0.3166 C   0  0  0  0  0  0  0  0  0  0  0  0
   -0.5779    0.3322    0.0215 C   0  0  0  0  0  0  0  0  0  0  0  0
   -1.3519   -0.2516    1.1383 C   0  0  0  0  0  0  0  0  0  0  0  0
   -2.5736    0.3602    0.4952 C   0  0  0  0  0  0  0  0  0  0  0  0
   -1.7880   -0.3197   -0.5639 C   0  0  0  0  0  0  0  0  0  0  0  0
   -1.5894   -1.3571    0.3385 O   0  0  0  0  0  0  0  0  0  0  0  0
    1.5190    0.6705   -1.0237 O   0  0  0  0  0  0  0  0  0  0  0  0
    3.3647    1.0515   -0.0688 H   0  0  0  0  0  0  0  0  0  0  0  0
    3.0965   -0.6226   -0.8759 H   0  0  0  0  0  0  0  0  0  0  0  0
    2.0634   -1.1928    1.2023 H   0  0  0  0  0  0  0  0  0  0  0  0
    1.6410    0.5777    1.5328 H   0  0  0  0  0  0  0  0  0  0  0  0
    0.7456   -1.2119   -0.8609 H   0  0  0  0  0  0  0  0  0  0  0  0
   -0.5616    1.4247    0.0582 H   0  0  0  0  0  0  0  0  0  0  0  0
   -1.1454   -0.2491    2.1252 H   0  0  0  0  0  0  0  0  0  0  0  0
   -2.4745    1.4558    0.4300 H   0  0  0  0  0  0  0  0  0  0  0  0
   -3.5364   -0.0499    0.7859 H   0  0  0  0  0  0  0  0  0  0  0  0
   -2.0132   -0.4162   -1.5436 H   0  0  0  0  0  0  0  0  0  0  0  0
  1  2  1  0
  2  3  1  0
  3  4  1  0
  4  5  1  0
  5  6  1  0
  6  7  1  0
  7  8  1  0
  3  9  1  0
  9  1  1  0
  7  4  1  0
  8  5  1  0
  1 10  1  0
  1 11  1  0
  2 12  1  0
  2 13  1  0
  3 14  1  0
  4 15  1  0
  5 16  1  0
  6 17  1  0
  6 18  1  0
  7 19  1  0
M  END
