
     RDKit          3D

 23 25  0  0  0  0  0  0  0  0999 V2000
    1.9431    0.2847    0.1001 C   0  0  0  0  0  0  0  0  0  0  0  0
    1.0502    1.4556   -0.0503 C   0  0  0  0  0  0  0  0  0  0  0  0
   -0.3922    1.1094   -0.2798 C   0  0  0  0  0  0  0  0  0  0  0  0
   -0.9193    0.5252    1.0479 C   0  0  0  0  0  0  0  0  0  0  0  0
   -1.2403   -0.8507    0.5943 C   0  0  0  0  0  0  0  0  0  0  0  0
   -1.9525   -0.5693   -0.7376 C   0  0  0  0  0  0  0  0  0  0  0  0
   -0.5495   -0.1037   -1.1561 C   0  0  0  0  0  0  0  0  0  0  0  0
   -0.0448   -1.2104   -0.2940 C   0  0  0  0  0  0  0  0  0  0  0  0
    1.2863   -1.0263    0.2922 C   0  0  0  0  0  0  0  0  0  0  0  0
    2.6180    0.4553    0.9900 H   0  0  0  0  0  0  0  0  0  0  0  0
    2.6595    0.2846   -0.7733 H   0  0  0  0  0  0  0  0  0  0  0  0
    1.0684    2.0894    0.8858 H   0  0  0  0  0  0  0  0  0  0  0  0
    1.4179    2.1649   -0.8495 H   0  0  0  0  0  0  0  0  0  0  0  0
   -0.9596    1.9794   -0.5982 H   0  0  0  0  0  0  0  0  0  0  0  0
   -0.1861    0.6069    1.8481 H   0  0  0  0  0  0  0  0  0  0  0  0
   -1.8686    1.0599    1.2474 H   0  0  0  0  0  0  0  0  0  0  0  0
   -1.6397   -1.5884    1.2280 H   0  0  0  0  0  0  0  0  0  0  0  0
   -2.6940    0.2346   -0.6646 H   0  0  0  0  0  0  0  0  0  0  0  0
   -2.2647   -1.5228   -1.1637 H   0  0  0  0  0  0  0  0  0  0  0  0
   -0.3319   -0.0573   -2.1890 H   0  0  0  0  0  0  0  0  0  0  0  0
   -0.2119   -2.2171   -0.7382 H   0  0  0  0  0  0  0  0  0  0  0  0
    1.2369   -1.2865    1.3916 H   0  0  0  0  0  0  0  0  0  0  0  0
    1.9748   -1.8175   -0.1310 H   0  0  0  0  0  0  0  0  0  0  0  0
  1  2  1  0
  2  3  1  0
  3  4  1  0
  4  5  1  0
  5  6  1  0
  6  7  1  0
  7  8  1  0
  8  9  1  0
  9  1  1  0
  7  3  1  0
  8  5  1  0
  1 10  1  0
  1 11  1  0
  2 12  1  0
  2 13  1  0
  3 14  1  0
  4 15  1  0
  4 16  1  0
  5 17  1  0
  6 18  1  0
  6 19  1  0
  7 20  1  0
  8 21  1  0
  9 22  1  0
  9 23  1  0
M  END
