
     RDKit          3D

 19 21  0  0  0  0  0  0  0  0999 V2000
   -1.8286    0.1814   -0.4127 C   0  0  0  0  0  0  0  0  0  0  0  0
   -0.5056   -0.1216   -1.0598 C   0  0  0  0  0  0  0  0  0  0  0  0
    0.5288    0.0163    0.0122 C   0  0  0  0  0  0  0  0  0  0  0  0
    1.8070   -0.7210   -0.3065 C   0  0  0  0  0  0  0  0  0  0  0  0
    2.5039    0.4110    0.1515 O   0  0  0  0  0  0  0  0  0  0  0  0
    1.3634    1.2325    0.0252 C   0  0  0  0  0  0  0  0  0  0  0  0
   -0.1695   -0.3886    1.2602 C   0  0  0  0  0  0  0  0  0  0  0  0
   -0.9293   -1.5535    1.1562 O   0  0  0  0  0  0  0  0  0  0  0  0
   -1.6637   -0.3999    0.9624 C   0  0  0  0  0  0  0  0  0  0  0  0
   -2.6211   -0.2930   -1.0094 H   0  0  0  0  0  0  0  0  0  0  0  0
   -2.0464    1.2559   -0.3244 H   0  0  0  0  0  0  0  0  0  0  0  0
   -0.5333   -1.2063   -1.3496 H   0  0  0  0  0  0  0  0  0  0  0  0
   -0.2877    0.4922   -1.9396 H   0  0  0  0  0  0  0  0  0  0  0  0
    1.9994   -1.6201    0.3004 H   0  0  0  0  0  0  0  0  0  0  0  0
    1.9292   -0.9173   -1.3830 H   0  0  0  0  0  0  0  0  0  0  0  0
    1.3176    1.8988    0.8961 H   0  0  0  0  0  0  0  0  0  0  0  0
    1.4052    1.7474   -0.9664 H   0  0  0  0  0  0  0  0  0  0  0  0
    0.0844    0.0169    2.2427 H   0  0  0  0  0  0  0  0  0  0  0  0
   -2.3536   -0.0313    1.7447 H   0  0  0  0  0  0  0  0  0  0  0  0
  1  2  1  0
  2  3  1  0
  3  4  1  0
  4  5  1  0
  5  6  1  0
  3  7  1  0
  7  8  1  0
  8  9  1  0
  9  1  1  0
  6  3  1  0
  9  7  1  0
  1 10  1  0
  1 11  1  0
  2 12  1  0
  2 13  1  0
  4 14  1  0
  4 15  1  0
  6 16  1  0
  6 17  1  0
  7 18  1  0
  9 19  1  0
M  END
