
     RDKit          3D

 19 21  0  0  0  0  0  0  0  0999 V2000
   -1.5696    0.3958   -0.6938 C   0  0  0  0  0  0  0  0  0  0  0  0
   -1.5952    0.2837    0.8056 C   0  0  0  0  0  0  0  0  0  0  0  0
   -0.6985   -0.9081    0.7646 C   0  0  0  0  0  0  0  0  0  0  0  0
    0.5801   -0.7550    1.2489 O   0  0  0  0  0  0  0  0  0  0  0  0
    1.2725    0.2941    0.7152 C   0  0  0  0  0  0  0  0  0  0  0  0
    2.4806    0.0541   -0.1393 C   0  0  0  0  0  0  0  0  0  0  0  0
    1.1369    0.4325   -0.7456 C   0  0  0  0  0  0  0  0  0  0  0  0
    0.4729   -0.6268   -1.3270 O   0  0  0  0  0  0  0  0  0  0  0  0
   -0.7377   -0.8694   -0.7288 C   0  0  0  0  0  0  0  0  0  0  0  0
   -2.5202    0.3095   -1.2188 H   0  0  0  0  0  0  0  0  0  0  0  0
   -1.0199    1.3156   -1.0155 H   0  0  0  0  0  0  0  0  0  0  0  0
   -1.2045    1.1803    1.3342 H   0  0  0  0  0  0  0  0  0  0  0  0
   -2.6423    0.0220    1.1285 H   0  0  0  0  0  0  0  0  0  0  0  0
   -1.1635   -1.8158    1.2282 H   0  0  0  0  0  0  0  0  0  0  0  0
    1.3688    1.1741    1.3885 H   0  0  0  0  0  0  0  0  0  0  0  0
    2.8197   -0.9931   -0.2060 H   0  0  0  0  0  0  0  0  0  0  0  0
    3.2666    0.8055   -0.2356 H   0  0  0  0  0  0  0  0  0  0  0  0
    1.0155    1.4485   -1.1726 H   0  0  0  0  0  0  0  0  0  0  0  0
   -1.2621   -1.7476   -1.1305 H   0  0  0  0  0  0  0  0  0  0  0  0
  1  2  1  0
  2  3  1  0
  3  4  1  0
  4  5  1  0
  5  6  1  0
  6  7  1  0
  7  8  1  0
  8  9  1  0
  9  1  1  0
  9  3  1  0
  7  5  1  0
  1 10  1  0
  1 11  1  0
  2 12  1  0
  2 13  1  0
  3 14  1  0
  5 15  1  0
  6 16  1  0
  6 17  1  0
  7 18  1  0
  9 19  1  0
M  END
