
     RDKit          3D

 19 21  0  0  0  0  0  0  0  0999 V2000
    0.9361   -1.2618    0.1634 C   0  0  0  0  0  0  0  0  0  0  0  0
    1.5497    0.0289   -0.3875 C   0  0  0  0  0  0  0  0  0  0  0  0
    0.8615    1.2501    0.0528 C   0  0  0  0  0  0  0  0  0  0  0  0
    0.1031    2.0755   -0.7020 O   0  0  0  0  0  0  0  0  0  0  0  0
   -0.6334    1.0868   -0.2772 C   0  0  0  0  0  0  0  0  0  0  0  0
   -1.3952    0.8606    0.9583 C   0  0  0  0  0  0  0  0  0  0  0  0
   -1.0239   -0.4428    1.3177 O   0  0  0  0  0  0  0  0  0  0  0  0
   -0.5932   -1.1203    0.2050 C   0  0  0  0  0  0  0  0  0  0  0  0
   -0.8874   -0.2139   -1.0033 C   0  0  0  0  0  0  0  0  0  0  0  0
    1.3517   -1.5489    1.1259 H   0  0  0  0  0  0  0  0  0  0  0  0
    1.1286   -2.0625   -0.6080 H   0  0  0  0  0  0  0  0  0  0  0  0
    1.7255   -0.0302   -1.4792 H   0  0  0  0  0  0  0  0  0  0  0  0
    2.5909    0.0419    0.0571 H   0  0  0  0  0  0  0  0  0  0  0  0
    1.1592    1.6575    1.0361 H   0  0  0  0  0  0  0  0  0  0  0  0
   -1.1431    1.5406    1.7864 H   0  0  0  0  0  0  0  0  0  0  0  0
   -2.4811    0.9247    0.7393 H   0  0  0  0  0  0  0  0  0  0  0  0
   -1.0542   -2.1149    0.0817 H   0  0  0  0  0  0  0  0  0  0  0  0
   -0.2384   -0.4079   -1.8472 H   0  0  0  0  0  0  0  0  0  0  0  0
   -1.9564   -0.2634   -1.2195 H   0  0  0  0  0  0  0  0  0  0  0  0
  1  2  1  0
  2  3  1  0
  3  4  1  0
  4  5  1  0
  5  6  1  0
  6  7  1  0
  7  8  1  0
  8  9  1  0
  8  1  1  0
  5  3  1  0
  9  5  1  0
  1 10  1  0
  1 11  1  0
  2 12  1  0
  2 13  1  0
  3 14  1  0
  6 15  1  0
  6 16  1  0
  8 17  1  0
  9 18  1  0
  9 19  1  0
M  END
