
     RDKit          3D

 19 21  0  0  0  0  0  0  0  0999 V2000
   -1.6212    0.5513   -0.4576 C   0  0  0  0  0  0  0  0  0  0  0  0
   -1.4544   -0.7292    0.3754 C   0  0  0  0  0  0  0  0  0  0  0  0
   -0.0031   -0.8230    0.6263 C   0  0  0  0  0  0  0  0  0  0  0  0
    0.7565   -1.0976   -0.6806 C   0  0  0  0  0  0  0  0  0  0  0  0
    2.0587   -0.7973   -0.2258 O   0  0  0  0  0  0  0  0  0  0  0  0
    1.9102    0.4566    0.3903 C   0  0  0  0  0  0  0  0  0  0  0  0
    0.4445    0.6519    0.6225 C   0  0  0  0  0  0  0  0  0  0  0  0
   -0.1860    0.9508   -0.7229 C   0  0  0  0  0  0  0  0  0  0  0  0
    0.3811   -0.0622   -1.5120 O   0  0  0  0  0  0  0  0  0  0  0  0
   -2.2097    0.3864   -1.3575 H   0  0  0  0  0  0  0  0  0  0  0  0
   -2.0747    1.3250    0.1904 H   0  0  0  0  0  0  0  0  0  0  0  0
   -1.8240   -1.6097   -0.2261 H   0  0  0  0  0  0  0  0  0  0  0  0
   -2.0157   -0.6728    1.3118 H   0  0  0  0  0  0  0  0  0  0  0  0
    0.3471   -1.3785    1.4638 H   0  0  0  0  0  0  0  0  0  0  0  0
    0.6362   -2.0915   -1.0523 H   0  0  0  0  0  0  0  0  0  0  0  0
    2.2408    1.2009   -0.3849 H   0  0  0  0  0  0  0  0  0  0  0  0
    2.5296    0.5699    1.2792 H   0  0  0  0  0  0  0  0  0  0  0  0
    0.1253    1.2216    1.4482 H   0  0  0  0  0  0  0  0  0  0  0  0
   -0.0412    1.9475   -1.0883 H   0  0  0  0  0  0  0  0  0  0  0  0
  1  2  1  0
  2  3  1  0
  3  4  1  0
  4  5  1  0
  5  6  1  0
  6  7  1  0
  7  8  1  0
  8  9  1  0
  8  1  1  0
  7  3  1  0
  9  4  1  0
  1 10  1  0
  1 11  1  0
  2 12  1  0
  2 13  1  0
  3 14  1  0
  4 15  1  0
  6 16  1  0
  6 17  1  0
  7 18  1  0
  8 19  1  0
M  END
