
     RDKit          3D

 19 22  0  0  0  0  0  0  0  0999 V2000
   -2.6528    0.4507    0.4139 C   0  0  0  0  0  0  0  0  0  0  0  0
   -1.9526    0.1153   -0.9122 C   0  0  0  0  0  0  0  0  0  0  0  0
   -0.9031   -0.2680    0.0461 C   0  0  0  0  0  0  0  0  0  0  0  0
   -1.8237   -0.5128    1.0221 O   0  0  0  0  0  0  0  0  0  0  0  0
    0.2670    0.5229    0.4148 C   0  0  0  0  0  0  0  0  0  0  0  0
    1.6802   -0.0070    0.6978 C   0  0  0  0  0  0  0  0  0  0  0  0
    2.6749    0.3635   -0.2587 C   0  0  0  0  0  0  0  0  0  0  0  0
    1.6131   -0.5320   -0.7482 C   0  0  0  0  0  0  0  0  0  0  0  0
    0.3049   -0.9355   -0.1616 C   0  0  0  0  0  0  0  0  0  0  0  0
   -2.4214    1.4839    0.7649 H   0  0  0  0  0  0  0  0  0  0  0  0
   -3.7181    0.1790    0.3855 H   0  0  0  0  0  0  0  0  0  0  0  0
   -1.7125    0.9960   -1.5293 H   0  0  0  0  0  0  0  0  0  0  0  0
   -2.4175   -0.7390   -1.4087 H   0  0  0  0  0  0  0  0  0  0  0  0
    0.2989    1.3868   -0.2824 H   0  0  0  0  0  0  0  0  0  0  0  0
    1.7711   -0.8465    1.4137 H   0  0  0  0  0  0  0  0  0  0  0  0
    3.7235    0.0780   -0.0481 H   0  0  0  0  0  0  0  0  0  0  0  0
    2.6445    1.4295   -0.6412 H   0  0  0  0  0  0  0  0  0  0  0  0
    2.1377   -1.4854   -1.0654 H   0  0  0  0  0  0  0  0  0  0  0  0
    0.4858   -1.6793    0.6971 H   0  0  0  0  0  0  0  0  0  0  0  0
  1  2  1  0
  2  3  1  0
  3  4  1  0
  3  5  1  0
  5  6  1  0
  6  7  1  0
  7  8  1  0
  8  9  1  0
  4  1  1  0
  9  5  1  0
  9  3  1  0
  8  6  1  0
  1 10  1  0
  1 11  1  0
  2 12  1  0
  2 13  1  0
  5 14  1  0
  6 15  1  0
  7 16  1  0
  7 17  1  0
  8 18  1  0
  9 19  1  0
M  END
