
     RDKit          3D

 21 21  0  0  0  0  0  0  0  0999 V2000
   -1.6817   -0.1401    0.0941 C   0  0  0  0  0  0  0  0  0  0  0  0
   -1.1260    1.1974   -0.2602 C   0  0  0  0  0  0  0  0  0  0  0  0
    0.2235    1.4678    0.3340 C   0  0  0  0  0  0  0  0  0  0  0  0
    1.2489    0.7523   -0.5261 C   0  0  0  0  0  0  0  0  0  0  0  0
    1.6324   -0.5832    0.0176 C   0  0  0  0  0  0  0  0  0  0  0  0
    0.4634   -1.3291    0.6404 C   0  0  0  0  0  0  0  0  0  0  0  0
   -0.7566   -1.2822   -0.2036 C   0  0  0  0  0  0  0  0  0  0  0  0
   -2.5945   -0.2961   -0.5486 H   0  0  0  0  0  0  0  0  0  0  0  0
   -2.0202   -0.2049    1.1334 H   0  0  0  0  0  0  0  0  0  0  0  0
   -1.0152    1.2697   -1.3691 H   0  0  0  0  0  0  0  0  0  0  0  0
   -1.8551    1.9668    0.0550 H   0  0  0  0  0  0  0  0  0  0  0  0
    0.4215    2.5627    0.2971 H   0  0  0  0  0  0  0  0  0  0  0  0
    0.3141    1.1497    1.3853 H   0  0  0  0  0  0  0  0  0  0  0  0
    0.8972    0.7201   -1.5842 H   0  0  0  0  0  0  0  0  0  0  0  0
    2.1722    1.3868   -0.5418 H   0  0  0  0  0  0  0  0  0  0  0  0
    1.9799   -1.2090   -0.8316 H   0  0  0  0  0  0  0  0  0  0  0  0
    2.3992   -0.4350    0.7977 H   0  0  0  0  0  0  0  0  0  0  0  0
    0.7973   -2.4081    0.6857 H   0  0  0  0  0  0  0  0  0  0  0  0
    0.3133   -1.0231    1.6907 H   0  0  0  0  0  0  0  0  0  0  0  0
   -0.4704   -1.3370   -1.2665 H   0  0  0  0  0  0  0  0  0  0  0  0
   -1.3432   -2.2253    0.0008 H   0  0  0  0  0  0  0  0  0  0  0  0
  1  2  1  0
  2  3  1  0
  3  4  1  0
  4  5  1  0
  5  6  1  0
  6  7  1  0
  7  1  1  0
  1  8  1  0
  1  9  1  0
  2 10  1  0
  2 11  1  0
  3 12  1  0
  3 13  1  0
  4 14  1  0
  4 15  1  0
  5 16  1  0
  5 17  1  0
  6 18  1  0
  6 19  1  0
  7 20  1  0
  7 21  1  0
M  END
