
     RDKit          3D

 23 25  0  0  0  0  0  0  0  0999 V2000
    0.7176    1.5003    0.1275 C   0  0  0  0  0  0  0  0  0  0  0  0
    1.6569    0.3686   -0.0460 C   0  0  0  0  0  0  0  0  0  0  0  0
    1.2229   -0.9395    0.4644 C   0  0  0  0  0  0  0  0  0  0  0  0
    0.0488   -1.5698   -0.2475 C   0  0  0  0  0  0  0  0  0  0  0  0
   -0.6289   -0.8597   -1.3437 C   0  0  0  0  0  0  0  0  0  0  0  0
   -1.2422    0.4456   -1.0191 C   0  0  0  0  0  0  0  0  0  0  0  0
   -0.7222    1.1006    0.2223 C   0  0  0  0  0  0  0  0  0  0  0  0
   -0.8655    0.1316    1.3623 C   0  0  0  0  0  0  0  0  0  0  0  0
   -0.0570   -1.0846    1.1009 C   0  0  0  0  0  0  0  0  0  0  0  0
    0.9555    2.0718    1.0680 H   0  0  0  0  0  0  0  0  0  0  0  0
    0.8696    2.2509   -0.6929 H   0  0  0  0  0  0  0  0  0  0  0  0
    2.6488    0.6762    0.3995 H   0  0  0  0  0  0  0  0  0  0  0  0
    1.8586    0.2649   -1.1534 H   0  0  0  0  0  0  0  0  0  0  0  0
    2.0649   -1.6203    0.7878 H   0  0  0  0  0  0  0  0  0  0  0  0
    0.1608   -2.6816   -0.4090 H   0  0  0  0  0  0  0  0  0  0  0  0
    0.0933   -0.7334   -2.2040 H   0  0  0  0  0  0  0  0  0  0  0  0
   -1.4264   -1.5268   -1.7586 H   0  0  0  0  0  0  0  0  0  0  0  0
   -2.3566    0.3268   -0.8735 H   0  0  0  0  0  0  0  0  0  0  0  0
   -1.1695    1.1558   -1.8949 H   0  0  0  0  0  0  0  0  0  0  0  0
   -1.3208    2.0062    0.4118 H   0  0  0  0  0  0  0  0  0  0  0  0
   -0.4391    0.6378    2.2675 H   0  0  0  0  0  0  0  0  0  0  0  0
   -1.9324   -0.0606    1.5116 H   0  0  0  0  0  0  0  0  0  0  0  0
   -0.1369   -1.8608    1.9192 H   0  0  0  0  0  0  0  0  0  0  0  0
  1  2  1  0
  2  3  1  0
  3  4  1  0
  4  5  1  0
  5  6  1  0
  6  7  1  0
  7  8  1  0
  8  9  1  0
  7  1  1  0
  9  3  1  0
  9  4  1  0
  1 10  1  0
  1 11  1  0
  2 12  1  0
  2 13  1  0
  3 14  1  0
  4 15  1  0
  5 16  1  0
  5 17  1  0
  6 18  1  0
  6 19  1  0
  7 20  1  0
  8 21  1  0
  8 22  1  0
  9 23  1  0
M  END
