
     RDKit          3D

 18 19  0  0  0  0  0  0  0  0999 V2000
    1.6550    0.2727    0.1588 C   0  0  0  0  0  0  0  0  0  0  0  0
    0.9428   -0.9241   -0.3453 C   0  0  0  0  0  0  0  0  0  0  0  0
   -0.5559   -0.8448   -0.2416 C   0  0  0  0  0  0  0  0  0  0  0  0
   -1.0010    0.2741   -1.1652 C   0  0  0  0  0  0  0  0  0  0  0  0
   -0.5132    1.4019   -0.5670 O   0  0  0  0  0  0  0  0  0  0  0  0
   -0.3617    1.1839    0.7833 C   0  0  0  0  0  0  0  0  0  0  0  0
   -0.9949   -0.1878    1.0732 C   0  0  0  0  0  0  0  0  0  0  0  0
    1.0024    1.0027    1.1127 O   0  0  0  0  0  0  0  0  0  0  0  0
    2.6240   -0.0798    0.6210 H   0  0  0  0  0  0  0  0  0  0  0  0
    1.9967    0.9704   -0.6613 H   0  0  0  0  0  0  0  0  0  0  0  0
    1.2902   -1.8798    0.1069 H   0  0  0  0  0  0  0  0  0  0  0  0
    1.1731   -1.0040   -1.4497 H   0  0  0  0  0  0  0  0  0  0  0  0
   -1.0330   -1.7925   -0.4246 H   0  0  0  0  0  0  0  0  0  0  0  0
   -0.6468    0.0979   -2.1830 H   0  0  0  0  0  0  0  0  0  0  0  0
   -2.1304    0.2613   -1.1813 H   0  0  0  0  0  0  0  0  0  0  0  0
   -0.7968    1.9727    1.3908 H   0  0  0  0  0  0  0  0  0  0  0  0
   -2.0712   -0.0648    1.0267 H   0  0  0  0  0  0  0  0  0  0  0  0
   -0.5791   -0.6601    1.9455 H   0  0  0  0  0  0  0  0  0  0  0  0
  1  2  1  0
  2  3  1  0
  3  4  1  0
  4  5  1  0
  5  6  1  0
  6  7  1  0
  6  8  1  0
  8  1  1  0
  7  3  1  0
  1  9  1  0
  1 10  1  0
  2 11  1  0
  2 12  1  0
  3 13  1  0
  4 14  1  0
  4 15  1  0
  6 16  1  0
  7 17  1  0
  7 18  1  0
M  END
