
     RDKit          3D

 21 23  0  0  0  0  0  0  0  0999 V2000
   -1.5261    1.1564   -0.1693 C   0  0  0  0  0  0  0  0  0  0  0  0
   -1.5678   -0.3076   -0.1766 C   0  0  0  0  0  0  0  0  0  0  0  0
   -0.4934   -1.0232    0.5681 C   0  0  0  0  0  0  0  0  0  0  0  0
    0.6395   -1.4182   -0.3935 C   0  0  0  0  0  0  0  0  0  0  0  0
    1.0265   -0.0845   -0.9401 C   0  0  0  0  0  0  0  0  0  0  0  0
    2.0323    0.7924   -0.3604 C   0  0  0  0  0  0  0  0  0  0  0  0
    0.7233    0.8999    0.2064 C   0  0  0  0  0  0  0  0  0  0  0  0
    0.2726    0.0379    1.3714 C   0  0  0  0  0  0  0  0  0  0  0  0
   -0.2821    1.7510   -0.0969 O   0  0  0  0  0  0  0  0  0  0  0  0
   -2.1499    1.5994    0.6441 H   0  0  0  0  0  0  0  0  0  0  0  0
   -2.0039    1.5296   -1.1236 H   0  0  0  0  0  0  0  0  0  0  0  0
   -2.5516   -0.6526    0.2578 H   0  0  0  0  0  0  0  0  0  0  0  0
   -1.5837   -0.7240   -1.2253 H   0  0  0  0  0  0  0  0  0  0  0  0
   -0.8165   -1.8477    1.1961 H   0  0  0  0  0  0  0  0  0  0  0  0
    0.1915   -2.0596   -1.1722 H   0  0  0  0  0  0  0  0  0  0  0  0
    1.4618   -1.8841    0.1499 H   0  0  0  0  0  0  0  0  0  0  0  0
    0.6653    0.1708   -1.9569 H   0  0  0  0  0  0  0  0  0  0  0  0
    2.4387    1.6033   -0.9680 H   0  0  0  0  0  0  0  0  0  0  0  0
    2.8250    0.2893    0.2600 H   0  0  0  0  0  0  0  0  0  0  0  0
    1.1287   -0.4032    1.9014 H   0  0  0  0  0  0  0  0  0  0  0  0
   -0.4303    0.5750    2.0278 H   0  0  0  0  0  0  0  0  0  0  0  0
  1  2  1  0
  2  3  1  0
  3  4  1  0
  4  5  1  0
  5  6  1  0
  6  7  1  0
  7  8  1  0
  7  9  1  0
  9  1  1  0
  8  3  1  0
  7  5  1  0
  1 10  1  0
  1 11  1  0
  2 12  1  0
  2 13  1  0
  3 14  1  0
  4 15  1  0
  4 16  1  0
  5 17  1  0
  6 18  1  0
  6 19  1  0
  8 20  1  0
  8 21  1  0
M  END
