
     RDKit          3D

 23 24  0  0  0  0  0  0  0  0999 V2000
   -2.1309    0.5995   -0.6842 C   0  0  0  0  0  0  0  0  0  0  0  0
   -2.2561   -0.4018    0.5262 C   0  0  0  0  0  0  0  0  0  0  0  0
   -0.8676   -1.0213    0.8205 C   0  0  0  0  0  0  0  0  0  0  0  0
    0.1760   -0.2562    1.0785 O   0  0  0  0  0  0  0  0  0  0  0  0
    1.2080    0.0194    0.1893 C   0  0  0  0  0  0  0  0  0  0  0  0
    0.6367    0.9560   -0.9494 C   0  0  0  0  0  0  0  0  0  0  0  0
   -0.7618    0.8155   -0.8564 C   0  0  0  0  0  0  0  0  0  0  0  0
    2.3089   -0.8397   -0.1412 C   0  0  0  0  0  0  0  0  0  0  0  0
    2.5034    0.4355    0.7380 C   0  0  0  0  0  0  0  0  0  0  0  0
   -2.7080    0.1528   -1.5432 H   0  0  0  0  0  0  0  0  0  0  0  0
   -2.7638    1.5022   -0.4452 H   0  0  0  0  0  0  0  0  0  0  0  0
   -2.9077   -1.2239    0.2646 H   0  0  0  0  0  0  0  0  0  0  0  0
   -2.5512    0.1816    1.4217 H   0  0  0  0  0  0  0  0  0  0  0  0
   -1.1057   -1.5547    1.8059 H   0  0  0  0  0  0  0  0  0  0  0  0
   -0.7029   -1.9224    0.1542 H   0  0  0  0  0  0  0  0  0  0  0  0
    1.1227    0.6637   -1.9189 H   0  0  0  0  0  0  0  0  0  0  0  0
    1.0587    1.9878   -0.7919 H   0  0  0  0  0  0  0  0  0  0  0  0
   -0.6310   -0.3073   -1.0477 H   0  0  0  0  0  0  0  0  0  0  0  0
   -0.7056    1.1940    0.2262 H   0  0  0  0  0  0  0  0  0  0  0  0
    2.5382   -1.8021    0.3018 H   0  0  0  0  0  0  0  0  0  0  0  0
    2.7397   -0.7345   -1.1813 H   0  0  0  0  0  0  0  0  0  0  0  0
    2.7698    0.2722    1.7895 H   0  0  0  0  0  0  0  0  0  0  0  0
    3.0301    1.2837    0.2429 H   0  0  0  0  0  0  0  0  0  0  0  0
  1  2  1  0
  2  3  1  0
  3  4  1  0
  4  5  1  0
  5  6  1  0
  6  7  1  0
  5  8  1  0
  8  9  1  0
  7  1  1  0
  9  5  1  0
  1 10  1  0
  1 11  1  0
  2 12  1  0
  2 13  1  0
  3 14  1  0
  3 15  1  0
  6 16  1  0
  6 17  1  0
  7 18  1  0
  7 19  1  0
  8 20  1  0
  8 21  1  0
  9 22  1  0
  9 23  1  0
M  END
