
     RDKit          2D

 19 22  0  0  0  0  0  0  0  0999 V2000
    2.3137   -1.7937    0.0000 C   0  0  0  0  0  0  0  0  0  0  0  0
    0.8906   -2.2677    0.0000 C   0  0  0  0  0  0  0  0  0  0  0  0
   -0.0000   -1.0607    0.0000 C   0  0  0  0  0  0  0  0  0  0  0  0
    1.0607    0.0000    0.0000 C   0  0  0  0  0  0  0  0  0  0  0  0
    0.0000    1.0607    0.0000 C   0  0  0  0  0  0  0  0  0  0  0  0
   -1.0607    0.0000    0.0000 O   0  0  0  0  0  0  0  0  0  0  0  0
    1.4266    0.5971    0.0000 C   0  0  0  0  0  0  0  0  0  0  0  0
    2.7256   -0.1529    0.0000 C   0  0  0  0  0  0  0  0  0  0  0  0
    1.4266   -0.9029    0.0000 C   0  0  0  0  0  0  0  0  0  0  0  0
    2.6363   -3.2586    0.0000 H   0  0  0  0  0  0  0  0  0  0  0  0
    3.8043   -1.6259    0.0000 H   0  0  0  0  0  0  0  0  0  0  0  0
   -0.4029   -3.0272    0.0000 H   0  0  0  0  0  0  0  0  0  0  0  0
    1.5107   -3.6335    0.0000 H   0  0  0  0  0  0  0  0  0  0  0  0
    2.1213    1.0607    0.0000 H   0  0  0  0  0  0  0  0  0  0  0  0
    1.9077   -0.2589    0.0000 H   0  0  0  0  0  0  0  0  0  0  0  0
    0.0000    2.5607    0.0000 H   0  0  0  0  0  0  0  0  0  0  0  0
    2.0367    1.9675    0.0000 H   0  0  0  0  0  0  0  0  0  0  0  0
    4.2256   -0.1529    0.0000 H   0  0  0  0  0  0  0  0  0  0  0  0
    1.6870   -2.3801    0.0000 H   0  0  0  0  0  0  0  0  0  0  0  0
  1  2  1  0
  2  3  1  0
  3  4  1  0
  4  5  1  0
  5  6  1  0
  5  7  1  0
  7  8  1  0
  8  9  1  0
  8  1  1  0
  6  3  1  0
  9  7  1  0
  9  3  1  0
  1 10  1  0
  1 11  1  0
  2 12  1  0
  2 13  1  0
  4 14  1  0
  4 15  1  0
  5 16  1  0
  7 17  1  0
  8 18  1  0
  9 19  1  0
M  END
