
     RDKit          3D

 21 22  0  0  0  0  0  0  0  0999 V2000
    1.6005   -0.2255    0.1917 C   0  0  0  0  0  0  0  0  0  0  0  0
    1.0570    1.0601   -0.4106 C   0  0  0  0  0  0  0  0  0  0  0  0
   -0.3063    1.2849    0.1773 C   0  0  0  0  0  0  0  0  0  0  0  0
   -1.4164    0.8084   -0.7036 C   0  0  0  0  0  0  0  0  0  0  0  0
   -1.4810   -0.5090   -0.9537 O   0  0  0  0  0  0  0  0  0  0  0  0
   -0.3595   -1.2570   -0.8455 C   0  0  0  0  0  0  0  0  0  0  0  0
    0.3904   -1.1146    0.4491 C   0  0  0  0  0  0  0  0  0  0  0  0
   -0.5329   -0.5499    1.4792 C   0  0  0  0  0  0  0  0  0  0  0  0
   -0.4148    0.8144    1.4868 O   0  0  0  0  0  0  0  0  0  0  0  0
    2.2198   -0.7300   -0.5535 H   0  0  0  0  0  0  0  0  0  0  0  0
    2.1665   -0.0432    1.1173 H   0  0  0  0  0  0  0  0  0  0  0  0
    1.7359    1.9203   -0.2503 H   0  0  0  0  0  0  0  0  0  0  0  0
    0.9324    0.9181   -1.5008 H   0  0  0  0  0  0  0  0  0  0  0  0
   -0.4268    2.4057    0.2631 H   0  0  0  0  0  0  0  0  0  0  0  0
   -2.3758    1.1286   -0.2057 H   0  0  0  0  0  0  0  0  0  0  0  0
   -1.3800    1.4332   -1.6393 H   0  0  0  0  0  0  0  0  0  0  0  0
    0.3709   -1.1404   -1.6895 H   0  0  0  0  0  0  0  0  0  0  0  0
   -0.6648   -2.3448   -0.9051 H   0  0  0  0  0  0  0  0  0  0  0  0
    0.7930   -2.0857    0.7975 H   0  0  0  0  0  0  0  0  0  0  0  0
   -1.5851   -0.8441    1.2004 H   0  0  0  0  0  0  0  0  0  0  0  0
   -0.3229   -0.9295    2.4956 H   0  0  0  0  0  0  0  0  0  0  0  0
  1  2  1  0
  2  3  1  0
  3  4  1  0
  4  5  1  0
  5  6  1  0
  6  7  1  0
  7  8  1  0
  8  9  1  0
  7  1  1  0
  9  3  1  0
  1 10  1  0
  1 11  1  0
  2 12  1  0
  2 13  1  0
  3 14  1  0
  4 15  1  0
  4 16  1  0
  6 17  1  0
  6 18  1  0
  7 19  1  0
  8 20  1  0
  8 21  1  0
M  END
