
     RDKit          3D

 19 21  0  0  0  0  0  0  0  0999 V2000
    2.5725   -0.9369    0.5174 C   0  0  0  0  0  0  0  0  0  0  0  0
    2.7541    0.2614   -0.3979 C   0  0  0  0  0  0  0  0  0  0  0  0
    1.4919    0.0930    0.4217 C   0  0  0  0  0  0  0  0  0  0  0  0
    0.3435   -0.2991   -0.2363 O   0  0  0  0  0  0  0  0  0  0  0  0
   -0.8081    0.2421    0.2970 C   0  0  0  0  0  0  0  0  0  0  0  0
   -1.7615    0.6499   -0.7774 C   0  0  0  0  0  0  0  0  0  0  0  0
   -2.8830    0.4138    0.1753 C   0  0  0  0  0  0  0  0  0  0  0  0
   -1.9348   -0.7369    0.2907 C   0  0  0  0  0  0  0  0  0  0  0  0
   -1.8506   -0.7033   -1.0949 O   0  0  0  0  0  0  0  0  0  0  0  0
    3.2527   -0.9540    1.4103 H   0  0  0  0  0  0  0  0  0  0  0  0
    2.4317   -1.9359    0.0389 H   0  0  0  0  0  0  0  0  0  0  0  0
    3.5027    1.0255   -0.0854 H   0  0  0  0  0  0  0  0  0  0  0  0
    2.6685    0.1125   -1.4902 H   0  0  0  0  0  0  0  0  0  0  0  0
    1.4278    0.7800    1.2900 H   0  0  0  0  0  0  0  0  0  0  0  0
   -0.7014    0.9030    1.1554 H   0  0  0  0  0  0  0  0  0  0  0  0
   -1.6580    1.4073   -1.4342 H   0  0  0  0  0  0  0  0  0  0  0  0
   -2.9698    1.0847    1.0371 H   0  0  0  0  0  0  0  0  0  0  0  0
   -3.8393    0.1512   -0.3421 H   0  0  0  0  0  0  0  0  0  0  0  0
   -2.0389   -1.5579    0.8657 H   0  0  0  0  0  0  0  0  0  0  0  0
  1  2  1  0
  2  3  1  0
  3  4  1  0
  4  5  1  0
  5  6  1  0
  6  7  1  0
  7  8  1  0
  8  9  1  0
  3  1  1  0
  8  5  1  0
  9  6  1  0
  1 10  1  0
  1 11  1  0
  2 12  1  0
  2 13  1  0
  3 14  1  0
  5 15  1  0
  6 16  1  0
  7 17  1  0
  7 18  1  0
  8 19  1  0
M  END
