
     RDKit          3D

 19 21  0  0  0  0  0  0  0  0999 V2000
   -0.1427   -1.0644   -1.1032 C   0  0  0  0  0  0  0  0  0  0  0  0
    1.3339   -0.8222   -0.7726 C   0  0  0  0  0  0  0  0  0  0  0  0
    0.8760    0.3786    0.0343 C   0  0  0  0  0  0  0  0  0  0  0  0
    1.6759    1.0369    0.9054 C   0  0  0  0  0  0  0  0  0  0  0  0
    1.3004    1.6226   -0.4136 O   0  0  0  0  0  0  0  0  0  0  0  0
   -0.4873   -0.0735   -0.0410 C   0  0  0  0  0  0  0  0  0  0  0  0
   -1.2535   -0.5110    1.1244 C   0  0  0  0  0  0  0  0  0  0  0  0
   -1.8989    0.7358    1.1440 O   0  0  0  0  0  0  0  0  0  0  0  0
   -1.6203    0.8301   -0.2404 C   0  0  0  0  0  0  0  0  0  0  0  0
   -0.4637   -2.0956   -0.9301 H   0  0  0  0  0  0  0  0  0  0  0  0
   -0.4278   -0.6711   -2.1077 H   0  0  0  0  0  0  0  0  0  0  0  0
    1.7892   -1.5902   -0.1324 H   0  0  0  0  0  0  0  0  0  0  0  0
    1.8998   -0.5681   -1.6772 H   0  0  0  0  0  0  0  0  0  0  0  0
    1.3246    1.7424    1.6939 H   0  0  0  0  0  0  0  0  0  0  0  0
    2.7864    0.8964    0.9600 H   0  0  0  0  0  0  0  0  0  0  0  0
   -2.0319   -1.2837    0.8605 H   0  0  0  0  0  0  0  0  0  0  0  0
   -0.7532   -0.8077    2.0411 H   0  0  0  0  0  0  0  0  0  0  0  0
   -1.4236    1.8676   -0.5733 H   0  0  0  0  0  0  0  0  0  0  0  0
   -2.4832    0.3773   -0.7720 H   0  0  0  0  0  0  0  0  0  0  0  0
  1  2  1  0
  2  3  1  0
  3  4  1  0
  4  5  1  0
  3  6  1  0
  6  7  1  0
  7  8  1  0
  8  9  1  0
  6  1  1  0
  5  3  1  0
  9  6  1  0
  1 10  1  0
  1 11  1  0
  2 12  1  0
  2 13  1  0
  4 14  1  0
  4 15  1  0
  7 16  1  0
  7 17  1  0
  9 18  1  0
  9 19  1  0
M  END
