
     RDKit          3D

 21 23  0  0  0  0  0  0  0  0999 V2000
   -0.5210    1.6375   -0.1912 C   0  0  0  0  0  0  0  0  0  0  0  0
   -1.0537    0.9258    1.0400 C   0  0  0  0  0  0  0  0  0  0  0  0
   -0.9513   -0.5746    0.7247 C   0  0  0  0  0  0  0  0  0  0  0  0
   -1.4236   -0.6407   -0.6073 O   0  0  0  0  0  0  0  0  0  0  0  0
   -0.2324   -0.5046   -1.3411 C   0  0  0  0  0  0  0  0  0  0  0  0
    0.5376   -1.6714   -0.6939 C   0  0  0  0  0  0  0  0  0  0  0  0
    0.4660   -1.0456    0.7120 C   0  0  0  0  0  0  0  0  0  0  0  0
    1.3274    0.1847    0.3923 C   0  0  0  0  0  0  0  0  0  0  0  0
    0.5071    0.6800   -0.8157 C   0  0  0  0  0  0  0  0  0  0  0  0
   -1.2945    1.9033   -0.9107 H   0  0  0  0  0  0  0  0  0  0  0  0
    0.0865    2.5154    0.1578 H   0  0  0  0  0  0  0  0  0  0  0  0
   -0.5461    1.1940    1.9585 H   0  0  0  0  0  0  0  0  0  0  0  0
   -2.1409    1.1479    1.0932 H   0  0  0  0  0  0  0  0  0  0  0  0
   -1.5405   -1.1827    1.4086 H   0  0  0  0  0  0  0  0  0  0  0  0
   -0.3375   -0.5932   -2.3981 H   0  0  0  0  0  0  0  0  0  0  0  0
    1.5554   -1.7418   -1.0604 H   0  0  0  0  0  0  0  0  0  0  0  0
   -0.0534   -2.5814   -0.6936 H   0  0  0  0  0  0  0  0  0  0  0  0
    0.8135   -1.6571    1.4947 H   0  0  0  0  0  0  0  0  0  0  0  0
    1.3301    0.9091    1.2044 H   0  0  0  0  0  0  0  0  0  0  0  0
    2.3392   -0.1047    0.0697 H   0  0  0  0  0  0  0  0  0  0  0  0
    1.1319    1.2001   -1.5440 H   0  0  0  0  0  0  0  0  0  0  0  0
  1  2  1  0
  2  3  1  0
  3  4  1  0
  4  5  1  0
  5  6  1  0
  6  7  1  0
  7  8  1  0
  8  9  1  0
  9  1  1  0
  7  3  1  0
  9  5  1  0
  1 10  1  0
  1 11  1  0
  2 12  1  0
  2 13  1  0
  3 14  1  0
  5 15  1  0
  6 16  1  0
  6 17  1  0
  7 18  1  0
  8 19  1  0
  8 20  1  0
  9 21  1  0
M  END
