
     RDKit          3D

 21 23  0  0  0  0  0  0  0  0999 V2000
   -1.3467    1.0377   -0.2809 C   0  0  0  0  0  0  0  0  0  0  0  0
    0.0863    1.4287   -0.5384 C   0  0  0  0  0  0  0  0  0  0  0  0
    0.9308    0.4066    0.2255 C   0  0  0  0  0  0  0  0  0  0  0  0
    0.0713    0.0799    1.3383 C   0  0  0  0  0  0  0  0  0  0  0  0
   -1.2437   -0.1975    0.5868 C   0  0  0  0  0  0  0  0  0  0  0  0
   -1.0398   -1.3623   -0.3530 C   0  0  0  0  0  0  0  0  0  0  0  0
    0.0233   -1.0866   -1.2488 O   0  0  0  0  0  0  0  0  0  0  0  0
    1.1252   -0.9932   -0.4687 C   0  0  0  0  0  0  0  0  0  0  0  0
    2.1322   -0.0060   -0.3455 C   0  0  0  0  0  0  0  0  0  0  0  0
   -1.7985    0.7631   -1.2541 H   0  0  0  0  0  0  0  0  0  0  0  0
   -1.8975    1.8569    0.1736 H   0  0  0  0  0  0  0  0  0  0  0  0
    0.3542    1.4673   -1.6002 H   0  0  0  0  0  0  0  0  0  0  0  0
    0.3177    2.4024   -0.0846 H   0  0  0  0  0  0  0  0  0  0  0  0
   -0.0915    0.9149    2.0275 H   0  0  0  0  0  0  0  0  0  0  0  0
    0.3610   -0.8502    1.8999 H   0  0  0  0  0  0  0  0  0  0  0  0
   -2.0796   -0.3611    1.2467 H   0  0  0  0  0  0  0  0  0  0  0  0
   -1.9392   -1.6913   -0.8471 H   0  0  0  0  0  0  0  0  0  0  0  0
   -0.6708   -2.2138    0.2855 H   0  0  0  0  0  0  0  0  0  0  0  0
    1.1958   -1.8806    0.2340 H   0  0  0  0  0  0  0  0  0  0  0  0
    3.0257   -0.2265    0.2921 H   0  0  0  0  0  0  0  0  0  0  0  0
    2.4837    0.5114   -1.2887 H   0  0  0  0  0  0  0  0  0  0  0  0
  1  2  1  0
  2  3  1  0
  3  4  1  0
  4  5  1  0
  5  6  1  0
  6  7  1  0
  7  8  1  0
  8  9  1  0
  5  1  1  0
  8  3  1  0
  9  3  1  0
  1 10  1  0
  1 11  1  0
  2 12  1  0
  2 13  1  0
  4 14  1  0
  4 15  1  0
  5 16  1  0
  6 17  1  0
  6 18  1  0
  8 19  1  0
  9 20  1  0
  9 21  1  0
M  END
