
     RDKit          3D

 19 21  0  0  0  0  0  0  0  0999 V2000
    2.0778   -0.6995    1.0735 C   0  0  0  0  0  0  0  0  0  0  0  0
    1.9722   -0.2173   -0.3569 C   0  0  0  0  0  0  0  0  0  0  0  0
    0.6338    0.2306    0.1197 C   0  0  0  0  0  0  0  0  0  0  0  0
    0.1290    1.5410   -0.2581 C   0  0  0  0  0  0  0  0  0  0  0  0
   -0.5502    0.2231   -0.7053 C   0  0  0  0  0  0  0  0  0  0  0  0
   -1.9460    0.0912   -0.2363 C   0  0  0  0  0  0  0  0  0  0  0  0
   -2.4925   -1.0055    0.4885 C   0  0  0  0  0  0  0  0  0  0  0  0
   -2.0395    0.1931    1.2289 O   0  0  0  0  0  0  0  0  0  0  0  0
    0.7821   -0.2505    1.3690 O   0  0  0  0  0  0  0  0  0  0  0  0
    2.8821   -0.1631    1.6344 H   0  0  0  0  0  0  0  0  0  0  0  0
    2.2181   -1.7828    1.0912 H   0  0  0  0  0  0  0  0  0  0  0  0
    2.6206    0.6862   -0.5456 H   0  0  0  0  0  0  0  0  0  0  0  0
    2.0131   -0.9846   -1.1317 H   0  0  0  0  0  0  0  0  0  0  0  0
    0.6218    2.1271   -1.0807 H   0  0  0  0  0  0  0  0  0  0  0  0
   -0.3732    2.1437    0.5015 H   0  0  0  0  0  0  0  0  0  0  0  0
   -0.4058   -0.0328   -1.7954 H   0  0  0  0  0  0  0  0  0  0  0  0
   -2.6530    0.8559   -0.6633 H   0  0  0  0  0  0  0  0  0  0  0  0
   -3.5763   -1.0962    0.6225 H   0  0  0  0  0  0  0  0  0  0  0  0
   -1.9140   -1.8596    0.8342 H   0  0  0  0  0  0  0  0  0  0  0  0
  1  2  1  0
  2  3  1  0
  3  4  1  0
  4  5  1  0
  5  6  1  0
  6  7  1  0
  7  8  1  0
  3  9  1  0
  9  1  1  0
  5  3  1  0
  8  6  1  0
  1 10  1  0
  1 11  1  0
  2 12  1  0
  2 13  1  0
  4 14  1  0
  4 15  1  0
  5 16  1  0
  6 17  1  0
  7 18  1  0
  7 19  1  0
M  END
