
     RDKit          3D

 18 20  0  0  0  0  0  0  0  0999 V2000
   -1.8094   -0.3208   -0.0489 C   0  0  0  0  0  0  0  0  0  0  0  0
   -1.3940    1.1304    0.0908 C   0  0  0  0  0  0  0  0  0  0  0  0
   -0.0285    0.7475   -0.3648 C   0  0  0  0  0  0  0  0  0  0  0  0
   -0.5929   -0.5253   -0.9248 C   0  0  0  0  0  0  0  0  0  0  0  0
    0.2344   -1.5589   -0.5974 O   0  0  0  0  0  0  0  0  0  0  0  0
    1.1078   -1.1647    0.3810 C   0  0  0  0  0  0  0  0  0  0  0  0
    2.2439   -0.2583    0.1437 C   0  0  0  0  0  0  0  0  0  0  0  0
    0.9333    0.2668    0.6726 C   0  0  0  0  0  0  0  0  0  0  0  0
   -2.7839   -0.3905   -0.5626 H   0  0  0  0  0  0  0  0  0  0  0  0
   -1.7644   -0.8048    0.9439 H   0  0  0  0  0  0  0  0  0  0  0  0
   -1.8747    1.7986   -0.6791 H   0  0  0  0  0  0  0  0  0  0  0  0
   -1.5086    1.5755    1.0764 H   0  0  0  0  0  0  0  0  0  0  0  0
    0.4307    1.4472   -1.0669 H   0  0  0  0  0  0  0  0  0  0  0  0
   -0.8475   -0.4031   -2.0063 H   0  0  0  0  0  0  0  0  0  0  0  0
    1.1699   -1.8615    1.2474 H   0  0  0  0  0  0  0  0  0  0  0  0
    2.5330    0.0965   -0.8649 H   0  0  0  0  0  0  0  0  0  0  0  0
    3.1084   -0.3405    0.8308 H   0  0  0  0  0  0  0  0  0  0  0  0
    0.8427    0.5659    1.7291 H   0  0  0  0  0  0  0  0  0  0  0  0
  1  2  1  0
  2  3  1  0
  3  4  1  0
  4  5  1  0
  5  6  1  0
  6  7  1  0
  7  8  1  0
  4  1  1  0
  8  6  1  0
  8  3  1  0
  1  9  1  0
  1 10  1  0
  2 11  1  0
  2 12  1  0
  3 13  1  0
  4 14  1  0
  6 15  1  0
  7 16  1  0
  7 17  1  0
  8 18  1  0
M  END
