
     RDKit          3D

 25 26  0  0  0  0  0  0  0  0999 V2000
   -1.5781    0.2862   -0.7498 C   0  0  0  0  0  0  0  0  0  0  0  0
   -0.5185   -0.5052   -1.4663 C   0  0  0  0  0  0  0  0  0  0  0  0
    0.8719   -0.1004   -1.1272 C   0  0  0  0  0  0  0  0  0  0  0  0
    0.9802    1.2585   -0.4955 C   0  0  0  0  0  0  0  0  0  0  0  0
    0.3847    1.3141    0.8753 C   0  0  0  0  0  0  0  0  0  0  0  0
   -0.2378    0.0238    1.3207 C   0  0  0  0  0  0  0  0  0  0  0  0
   -1.6231   -0.0513    0.7280 C   0  0  0  0  0  0  0  0  0  0  0  0
    0.5944   -1.1829    1.0616 C   0  0  0  0  0  0  0  0  0  0  0  0
    1.4455   -1.1073   -0.1627 C   0  0  0  0  0  0  0  0  0  0  0  0
   -2.5632   -0.0518   -1.1689 H   0  0  0  0  0  0  0  0  0  0  0  0
   -1.4887    1.3671   -0.9261 H   0  0  0  0  0  0  0  0  0  0  0  0
   -0.7075   -1.5845   -1.2170 H   0  0  0  0  0  0  0  0  0  0  0  0
   -0.7311   -0.4135   -2.5650 H   0  0  0  0  0  0  0  0  0  0  0  0
    1.4630   -0.0821   -2.0735 H   0  0  0  0  0  0  0  0  0  0  0  0
    0.5236    2.0372   -1.1604 H   0  0  0  0  0  0  0  0  0  0  0  0
    2.0785    1.4711   -0.3823 H   0  0  0  0  0  0  0  0  0  0  0  0
   -0.4422    2.0825    0.8804 H   0  0  0  0  0  0  0  0  0  0  0  0
    1.0893    1.6373    1.6524 H   0  0  0  0  0  0  0  0  0  0  0  0
   -0.3809    0.1042    2.4358 H   0  0  0  0  0  0  0  0  0  0  0  0
   -2.1598   -0.9706    0.9521 H   0  0  0  0  0  0  0  0  0  0  0  0
   -2.2094    0.7824    1.2091 H   0  0  0  0  0  0  0  0  0  0  0  0
    1.2370   -1.4149    1.9510 H   0  0  0  0  0  0  0  0  0  0  0  0
   -0.0986   -2.0582    0.9446 H   0  0  0  0  0  0  0  0  0  0  0  0
    1.6083   -2.1059   -0.6361 H   0  0  0  0  0  0  0  0  0  0  0  0
    2.4628   -0.7359    0.1199 H   0  0  0  0  0  0  0  0  0  0  0  0
  1  2  1  0
  2  3  1  0
  3  4  1  0
  4  5  1  0
  5  6  1  0
  6  7  1  0
  6  8  1  0
  8  9  1  0
  7  1  1  0
  9  3  1  0
  1 10  1  0
  1 11  1  0
  2 12  1  0
  2 13  1  0
  3 14  1  0
  4 15  1  0
  4 16  1  0
  5 17  1  0
  5 18  1  0
  6 19  1  0
  7 20  1  0
  7 21  1  0
  8 22  1  0
  8 23  1  0
  9 24  1  0
  9 25  1  0
M  END
