
     RDKit          3D

 17 18  0  0  0  0  0  0  0  0999 V2000
   -1.2961   -1.0084   -0.0478 C   0  0  0  0  0  0  0  0  0  0  0  0
    0.1515   -1.3811    0.1701 C   0  0  0  0  0  0  0  0  0  0  0  0
    0.8307   -0.1507    0.6008 C   0  0  0  0  0  0  0  0  0  0  0  0
    1.7145    0.7616   -0.0032 C   0  0  0  0  0  0  0  0  0  0  0  0
    0.4118    0.8143   -0.5476 C   0  0  0  0  0  0  0  0  0  0  0  0
   -0.8868    1.3017   -0.0554 C   0  0  0  0  0  0  0  0  0  0  0  0
   -1.6735    0.2387    0.2819 O   0  0  0  0  0  0  0  0  0  0  0  0
   -1.5402   -1.2079   -1.1101 H   0  0  0  0  0  0  0  0  0  0  0  0
   -1.8880   -1.7358    0.5475 H   0  0  0  0  0  0  0  0  0  0  0  0
    0.2881   -2.1687    0.9384 H   0  0  0  0  0  0  0  0  0  0  0  0
    0.6083   -1.7950   -0.7647 H   0  0  0  0  0  0  0  0  0  0  0  0
    0.4863    0.1144    1.6484 H   0  0  0  0  0  0  0  0  0  0  0  0
    2.5539    0.3741   -0.6341 H   0  0  0  0  0  0  0  0  0  0  0  0
    2.0846    1.6420    0.5845 H   0  0  0  0  0  0  0  0  0  0  0  0
    0.2897    0.3701   -1.5814 H   0  0  0  0  0  0  0  0  0  0  0  0
   -1.3994    1.8788   -0.8484 H   0  0  0  0  0  0  0  0  0  0  0  0
   -0.7353    1.9518    0.8209 H   0  0  0  0  0  0  0  0  0  0  0  0
  1  2  1  0
  2  3  1  0
  3  4  1  0
  4  5  1  0
  5  6  1  0
  6  7  1  0
  7  1  1  0
  5  3  1  0
  1  8  1  0
  1  9  1  0
  2 10  1  0
  2 11  1  0
  3 12  1  0
  4 13  1  0
  4 14  1  0
  5 15  1  0
  6 16  1  0
  6 17  1  0
M  END
