
     RDKit          3D

 21 23  0  0  0  0  0  0  0  0999 V2000
    2.2451   -0.0055    0.3209 C   0  0  0  0  0  0  0  0  0  0  0  0
    0.9911    0.7078    0.8394 C   0  0  0  0  0  0  0  0  0  0  0  0
    0.1965   -0.1247   -0.1114 C   0  0  0  0  0  0  0  0  0  0  0  0
    1.4057   -0.3824   -0.9084 C   0  0  0  0  0  0  0  0  0  0  0  0
   -0.5254   -1.3099    0.4753 C   0  0  0  0  0  0  0  0  0  0  0  0
   -1.7298   -0.9145   -0.3959 C   0  0  0  0  0  0  0  0  0  0  0  0
   -1.0319    0.3496   -0.6632 C   0  0  0  0  0  0  0  0  0  0  0  0
   -1.6757    1.5698    0.0075 C   0  0  0  0  0  0  0  0  0  0  0  0
   -1.3954    1.4083   -1.3364 O   0  0  0  0  0  0  0  0  0  0  0  0
    2.4419   -0.8683    0.9801 H   0  0  0  0  0  0  0  0  0  0  0  0
    3.0856    0.6530    0.0857 H   0  0  0  0  0  0  0  0  0  0  0  0
    0.9716    1.7869    0.5359 H   0  0  0  0  0  0  0  0  0  0  0  0
    0.7999    0.5848    1.9087 H   0  0  0  0  0  0  0  0  0  0  0  0
    1.5655   -1.4562   -1.1491 H   0  0  0  0  0  0  0  0  0  0  0  0
    1.6221    0.2386   -1.7815 H   0  0  0  0  0  0  0  0  0  0  0  0
   -0.0522   -2.2443    0.1424 H   0  0  0  0  0  0  0  0  0  0  0  0
   -0.6922   -1.1877    1.5551 H   0  0  0  0  0  0  0  0  0  0  0  0
   -2.6236   -0.8716    0.2628 H   0  0  0  0  0  0  0  0  0  0  0  0
   -1.8140   -1.5716   -1.2758 H   0  0  0  0  0  0  0  0  0  0  0  0
   -2.7458    1.4776    0.2962 H   0  0  0  0  0  0  0  0  0  0  0  0
   -1.0390    2.1604    0.6654 H   0  0  0  0  0  0  0  0  0  0  0  0
  1  2  1  0
  2  3  1  0
  3  4  1  0
  3  5  1  0
  5  6  1  0
  6  7  1  0
  7  8  1  0
  8  9  1  0
  4  1  1  0
  9  7  1  0
  7  3  1  0
  1 10  1  0
  1 11  1  0
  2 12  1  0
  2 13  1  0
  4 14  1  0
  4 15  1  0
  5 16  1  0
  5 17  1  0
  6 18  1  0
  6 19  1  0
  8 20  1  0
  8 21  1  0
M  END
