
     RDKit          3D

 21 23  0  0  0  0  0  0  0  0999 V2000
    2.5116    0.0828   -0.5174 C   0  0  0  0  0  0  0  0  0  0  0  0
    1.1147   -0.0989   -1.1369 C   0  0  0  0  0  0  0  0  0  0  0  0
    0.6778   -0.5609    0.2225 C   0  0  0  0  0  0  0  0  0  0  0  0
   -0.7097   -0.2800    0.6439 C   0  0  0  0  0  0  0  0  0  0  0  0
   -1.8315   -0.8160   -0.1417 C   0  0  0  0  0  0  0  0  0  0  0  0
   -2.7113    0.2407    0.4671 C   0  0  0  0  0  0  0  0  0  0  0  0
   -1.4188    0.8828    0.0497 C   0  0  0  0  0  0  0  0  0  0  0  0
   -1.5444    0.1342   -1.1144 O   0  0  0  0  0  0  0  0  0  0  0  0
    1.7648    0.3024    0.8061 C   0  0  0  0  0  0  0  0  0  0  0  0
    3.0593    0.9496   -0.8847 H   0  0  0  0  0  0  0  0  0  0  0  0
    3.1078   -0.8557   -0.5364 H   0  0  0  0  0  0  0  0  0  0  0  0
    0.7667    0.8835   -1.4632 H   0  0  0  0  0  0  0  0  0  0  0  0
    1.0760   -0.9078   -1.8783 H   0  0  0  0  0  0  0  0  0  0  0  0
    0.9349   -1.6303    0.3607 H   0  0  0  0  0  0  0  0  0  0  0  0
   -0.8488   -0.3991    1.7303 H   0  0  0  0  0  0  0  0  0  0  0  0
   -2.0947   -1.7759   -0.3123 H   0  0  0  0  0  0  0  0  0  0  0  0
   -2.9059    0.1721    1.5368 H   0  0  0  0  0  0  0  0  0  0  0  0
   -3.5376    0.5173   -0.1877 H   0  0  0  0  0  0  0  0  0  0  0  0
   -1.1855    1.8606    0.1135 H   0  0  0  0  0  0  0  0  0  0  0  0
    1.5019    1.3975    0.8550 H   0  0  0  0  0  0  0  0  0  0  0  0
    2.2728   -0.0992    1.6870 H   0  0  0  0  0  0  0  0  0  0  0  0
  1  2  1  0
  2  3  1  0
  3  4  1  0
  4  5  1  0
  5  6  1  0
  6  7  1  0
  7  8  1  0
  3  9  1  0
  9  1  1  0
  7  4  1  0
  8  5  1  0
  1 10  1  0
  1 11  1  0
  2 12  1  0
  2 13  1  0
  3 14  1  0
  4 15  1  0
  5 16  1  0
  6 17  1  0
  6 18  1  0
  7 19  1  0
  9 20  1  0
  9 21  1  0
M  END
