
     RDKit          3D

 19 20  0  0  0  0  0  0  0  0999 V2000
    2.5207    0.2623   -0.1977 C   0  0  0  0  0  0  0  0  0  0  0  0
    1.4334   -0.1590    0.7929 C   0  0  0  0  0  0  0  0  0  0  0  0
    0.2206    0.2077    0.0111 C   0  0  0  0  0  0  0  0  0  0  0  0
   -0.9805   -0.2958    0.1287 C   0  0  0  0  0  0  0  0  0  0  0  0
   -2.2857   -0.0646   -0.5444 C   0  0  0  0  0  0  0  0  0  0  0  0
   -2.5670   -1.4214   -0.3115 O   0  0  0  0  0  0  0  0  0  0  0  0
   -1.8092   -1.2785    0.8636 C   0  0  0  0  0  0  0  0  0  0  0  0
    0.6547    1.2588   -0.9259 C   0  0  0  0  0  0  0  0  0  0  0  0
    2.0209    1.3023   -0.9284 O   0  0  0  0  0  0  0  0  0  0  0  0
    2.7233   -0.6588   -0.8126 H   0  0  0  0  0  0  0  0  0  0  0  0
    3.4118    0.5165    0.4068 H   0  0  0  0  0  0  0  0  0  0  0  0
    1.4997   -1.2322    1.0119 H   0  0  0  0  0  0  0  0  0  0  0  0
    1.5378    0.4243    1.7240 H   0  0  0  0  0  0  0  0  0  0  0  0
   -2.2204    0.2199   -1.6103 H   0  0  0  0  0  0  0  0  0  0  0  0
   -2.9324    0.5606    0.0843 H   0  0  0  0  0  0  0  0  0  0  0  0
   -1.2973   -2.2056    1.1795 H   0  0  0  0  0  0  0  0  0  0  0  0
   -2.4483   -0.7970    1.6275 H   0  0  0  0  0  0  0  0  0  0  0  0
    0.2524    2.2343   -0.5441 H   0  0  0  0  0  0  0  0  0  0  0  0
    0.2654    1.1264   -1.9554 H   0  0  0  0  0  0  0  0  0  0  0  0
  1  2  1  0
  2  3  1  0
  3  4  2  3
  4  5  1  0
  5  6  1  0
  6  7  1  0
  3  8  1  0
  8  9  1  0
  9  1  1  0
  7  4  1  0
  1 10  1  0
  1 11  1  0
  2 12  1  0
  2 13  1  0
  5 14  1  0
  5 15  1  0
  7 16  1  0
  7 17  1  0
  8 18  1  0
  8 19  1  0
M  END
