
     RDKit          3D

 17 18  0  0  0  0  0  0  0  0999 V2000
    1.3392   -1.0372   -0.1690 C   0  0  0  0  0  0  0  0  0  0  0  0
    1.3380    0.4883   -0.1713 C   0  0  0  0  0  0  0  0  0  0  0  0
    0.0369    0.8483    0.4950 C   0  0  0  0  0  0  0  0  0  0  0  0
   -1.0831    0.9439   -0.5113 C   0  0  0  0  0  0  0  0  0  0  0  0
   -1.4293   -0.4984   -0.1776 C   0  0  0  0  0  0  0  0  0  0  0  0
   -0.4788   -0.4679    0.9951 C   0  0  0  0  0  0  0  0  0  0  0  0
    0.5535   -1.3851    0.9207 O   0  0  0  0  0  0  0  0  0  0  0  0
    2.3910   -1.3440   -0.0745 H   0  0  0  0  0  0  0  0  0  0  0  0
    0.8828   -1.4383   -1.0990 H   0  0  0  0  0  0  0  0  0  0  0  0
    2.1815    0.9025    0.4124 H   0  0  0  0  0  0  0  0  0  0  0  0
    1.3181    0.8010   -1.2228 H   0  0  0  0  0  0  0  0  0  0  0  0
    0.1185    1.6655    1.2192 H   0  0  0  0  0  0  0  0  0  0  0  0
   -0.7094    1.1089   -1.5352 H   0  0  0  0  0  0  0  0  0  0  0  0
   -1.9113    1.6142   -0.2315 H   0  0  0  0  0  0  0  0  0  0  0  0
   -1.1587   -1.1675   -1.0047 H   0  0  0  0  0  0  0  0  0  0  0  0
   -2.4548   -0.6685    0.1651 H   0  0  0  0  0  0  0  0  0  0  0  0
   -0.9339   -0.3656    1.9895 H   0  0  0  0  0  0  0  0  0  0  0  0
  1  2  1  0
  2  3  1  0
  3  4  1  0
  4  5  1  0
  5  6  1  0
  6  7  1  0
  7  1  1  0
  6  3  1  0
  1  8  1  0
  1  9  1  0
  2 10  1  0
  2 11  1  0
  3 12  1  0
  4 13  1  0
  4 14  1  0
  5 15  1  0
  5 16  1  0
  6 17  1  0
M  END
