
     RDKit          2D

 21 23  0  0  0  0  0  0  0  0999 V2000
   -0.0692    2.6401    0.0000 C   0  0  0  0  0  0  0  0  0  0  0  0
   -1.4958    2.1766    0.0000 C   0  0  0  0  0  0  0  0  0  0  0  0
   -1.0323    0.7500    0.0000 C   0  0  0  0  0  0  0  0  0  0  0  0
   -0.5688   -0.6766    0.0000 C   0  0  0  0  0  0  0  0  0  0  0  0
    0.8578   -0.2131    0.0000 C   0  0  0  0  0  0  0  0  0  0  0  0
    0.3943    1.2135    0.0000 C   0  0  0  0  0  0  0  0  0  0  0  0
   -0.0880    1.4842    0.0000 C   0  0  0  0  0  0  0  0  0  0  0  0
   -0.2546    0.7837    0.0000 O   0  0  0  0  0  0  0  0  0  0  0  0
   -0.8013    1.2525    0.0000 C   0  0  0  0  0  0  0  0  0  0  0  0
    1.3574    3.1036    0.0000 H   0  0  0  0  0  0  0  0  0  0  0  0
   -0.5328    4.0667    0.0000 H   0  0  0  0  0  0  0  0  0  0  0  0
   -1.9593    3.6032    0.0000 H   0  0  0  0  0  0  0  0  0  0  0  0
   -2.9224    1.7131    0.0000 H   0  0  0  0  0  0  0  0  0  0  0  0
   -0.1052   -2.1032    0.0000 H   0  0  0  0  0  0  0  0  0  0  0  0
   -2.0412   -0.9628    0.0000 H   0  0  0  0  0  0  0  0  0  0  0  0
    2.2173    0.4209    0.0000 H   0  0  0  0  0  0  0  0  0  0  0  0
    1.3213   -1.6396    0.0000 H   0  0  0  0  0  0  0  0  0  0  0  0
    2.5047    0.8603    0.0000 H   0  0  0  0  0  0  0  0  0  0  0  0
    2.3907   -1.0037    0.0000 H   0  0  0  0  0  0  0  0  0  0  0  0
   -1.3442   -2.2172    0.0000 H   0  0  0  0  0  0  0  0  0  0  0  0
   -2.5321   -0.7762    0.0000 H   0  0  0  0  0  0  0  0  0  0  0  0
  1  2  1  0
  2  3  1  0
  3  4  1  0
  4  5  1  0
  5  6  1  0
  6  7  1  0
  7  8  1  0
  8  9  1  0
  6  1  1  0
  6  3  1  0
  9  3  1  0
  1 10  1  0
  1 11  1  0
  2 12  1  0
  2 13  1  0
  4 14  1  0
  4 15  1  0
  5 16  1  0
  5 17  1  0
  7 18  1  0
  7 19  1  0
  9 20  1  0
  9 21  1  0
M  END
