
     RDKit          2D

 19 22  0  0  0  0  0  0  0  0999 V2000
   -0.7076    3.3760    0.0000 C   0  0  0  0  0  0  0  0  0  0  0  0
    0.6290    2.6951    0.0000 C   0  0  0  0  0  0  0  0  0  0  0  0
    0.3943    1.2135    0.0000 C   0  0  0  0  0  0  0  0  0  0  0  0
    1.2760    0.0000    0.0000 C   0  0  0  0  0  0  0  0  0  0  0  0
    0.3943   -1.2135    0.0000 O   0  0  0  0  0  0  0  0  0  0  0  0
   -1.0323   -0.7500    0.0000 C   0  0  0  0  0  0  0  0  0  0  0  0
   -1.0323    0.7500    0.0000 C   0  0  0  0  0  0  0  0  0  0  0  0
   -1.4958    2.1766    0.0000 C   0  0  0  0  0  0  0  0  0  0  0  0
   -0.0692    2.6401    0.0000 C   0  0  0  0  0  0  0  0  0  0  0  0
   -0.0500    4.7243    0.0000 H   0  0  0  0  0  0  0  0  0  0  0  0
   -1.8733    4.3200    0.0000 H   0  0  0  0  0  0  0  0  0  0  0  0
    2.0778    2.3068    0.0000 H   0  0  0  0  0  0  0  0  0  0  0  0
    1.0448    3.4771    0.0000 H   0  0  0  0  0  0  0  0  0  0  0  0
    2.3907    1.0037    0.0000 H   0  0  0  0  0  0  0  0  0  0  0  0
    2.3907   -1.0037    0.0000 H   0  0  0  0  0  0  0  0  0  0  0  0
   -2.2458   -1.6317    0.0000 H   0  0  0  0  0  0  0  0  0  0  0  0
   -2.5138    0.5153    0.0000 H   0  0  0  0  0  0  0  0  0  0  0  0
   -2.8323    2.8576    0.0000 H   0  0  0  0  0  0  0  0  0  0  0  0
    0.2927    3.3504    0.0000 H   0  0  0  0  0  0  0  0  0  0  0  0
  1  2  1  0
  2  3  1  0
  3  4  1  0
  4  5  1  0
  5  6  1  0
  6  7  1  0
  7  8  1  0
  8  9  1  0
  8  1  1  0
  7  3  1  0
  9  3  1  0
  9  6  1  0
  1 10  1  0
  1 11  1  0
  2 12  1  0
  2 13  1  0
  4 14  1  0
  4 15  1  0
  6 16  1  0
  7 17  1  0
  8 18  1  0
  9 19  1  0
M  END
