
     RDKit          3D

 19 21  0  0  0  0  0  0  0  0999 V2000
    1.4626    0.0605   -0.1778 C   0  0  0  0  0  0  0  0  0  0  0  0
    0.9540   -1.3278    0.2412 C   0  0  0  0  0  0  0  0  0  0  0  0
   -0.5736   -1.1929    0.1461 C   0  0  0  0  0  0  0  0  0  0  0  0
   -0.8475   -0.8764   -1.1583 O   0  0  0  0  0  0  0  0  0  0  0  0
   -0.9782    0.4761   -1.2891 C   0  0  0  0  0  0  0  0  0  0  0  0
   -0.7863    1.1301    0.0309 C   0  0  0  0  0  0  0  0  0  0  0  0
    0.6277    1.0727    0.5132 C   0  0  0  0  0  0  0  0  0  0  0  0
    0.1387    0.5042    1.7118 O   0  0  0  0  0  0  0  0  0  0  0  0
   -0.9329   -0.0149    1.0041 C   0  0  0  0  0  0  0  0  0  0  0  0
    1.4226    0.0735   -1.2722 H   0  0  0  0  0  0  0  0  0  0  0  0
    2.5059    0.1511    0.2038 H   0  0  0  0  0  0  0  0  0  0  0  0
    1.3205   -2.1177   -0.4110 H   0  0  0  0  0  0  0  0  0  0  0  0
    1.1680   -1.4919    1.3247 H   0  0  0  0  0  0  0  0  0  0  0  0
   -1.0720   -2.1269    0.4294 H   0  0  0  0  0  0  0  0  0  0  0  0
   -0.2706    0.9425   -2.0126 H   0  0  0  0  0  0  0  0  0  0  0  0
   -2.0004    0.7002   -1.7152 H   0  0  0  0  0  0  0  0  0  0  0  0
   -1.3500    2.0315    0.2318 H   0  0  0  0  0  0  0  0  0  0  0  0
    1.0696    2.0712    0.6267 H   0  0  0  0  0  0  0  0  0  0  0  0
   -1.8581   -0.0651    1.5726 H   0  0  0  0  0  0  0  0  0  0  0  0
  1  2  1  0
  2  3  1  0
  3  4  1  0
  4  5  1  0
  5  6  1  0
  6  7  1  0
  7  8  1  0
  8  9  1  0
  7  1  1  0
  9  3  1  0
  9  6  1  0
  1 10  1  0
  1 11  1  0
  2 12  1  0
  2 13  1  0
  3 14  1  0
  5 15  1  0
  5 16  1  0
  6 17  1  0
  7 18  1  0
  9 19  1  0
M  END
