
     RDKit          3D

 18 19  0  0  0  0  0  0  0  0999 V2000
    1.7629    0.3172    0.5470 C   0  0  0  0  0  0  0  0  0  0  0  0
    1.1405   -0.8159   -0.2734 C   0  0  0  0  0  0  0  0  0  0  0  0
   -0.2373   -1.0200    0.3155 C   0  0  0  0  0  0  0  0  0  0  0  0
   -1.1956   -1.5145   -0.5241 O   0  0  0  0  0  0  0  0  0  0  0  0
   -1.9884   -0.3622   -0.4452 C   0  0  0  0  0  0  0  0  0  0  0  0
   -0.9194    0.3224    0.3508 C   0  0  0  0  0  0  0  0  0  0  0  0
   -0.0945    1.3353   -0.3856 C   0  0  0  0  0  0  0  0  0  0  0  0
    1.1090    1.5132    0.2955 O   0  0  0  0  0  0  0  0  0  0  0  0
    2.8409    0.3719    0.3728 H   0  0  0  0  0  0  0  0  0  0  0  0
    1.6239   -0.0047    1.6188 H   0  0  0  0  0  0  0  0  0  0  0  0
    1.1324   -0.6025   -1.3434 H   0  0  0  0  0  0  0  0  0  0  0  0
    1.7989   -1.7075   -0.1282 H   0  0  0  0  0  0  0  0  0  0  0  0
   -0.1486   -1.4576    1.3194 H   0  0  0  0  0  0  0  0  0  0  0  0
   -2.1679    0.0166   -1.4616 H   0  0  0  0  0  0  0  0  0  0  0  0
   -2.8925   -0.5074    0.1854 H   0  0  0  0  0  0  0  0  0  0  0  0
   -1.1870    0.6709    1.3537 H   0  0  0  0  0  0  0  0  0  0  0  0
   -0.6154    2.3287   -0.3418 H   0  0  0  0  0  0  0  0  0  0  0  0
    0.0381    1.1161   -1.4555 H   0  0  0  0  0  0  0  0  0  0  0  0
  1  2  1  0
  2  3  1  0
  3  4  1  0
  4  5  1  0
  5  6  1  0
  6  7  1  0
  7  8  1  0
  8  1  1  0
  6  3  1  0
  1  9  1  0
  1 10  1  0
  2 11  1  0
  2 12  1  0
  3 13  1  0
  5 14  1  0
  5 15  1  0
  6 16  1  0
  7 17  1  0
  7 18  1  0
M  END
