
     RDKit          2D

 21 23  0  0  0  0  0  0  0  0999 V2000
    1.2760    0.0000    0.0000 C   0  0  0  0  0  0  0  0  0  0  0  0
    0.3943    1.2135    0.0000 C   0  0  0  0  0  0  0  0  0  0  0  0
   -1.0323    0.7500    0.0000 C   0  0  0  0  0  0  0  0  0  0  0  0
   -2.5323    0.7500    0.0000 C   0  0  0  0  0  0  0  0  0  0  0  0
   -2.5323   -0.7500    0.0000 C   0  0  0  0  0  0  0  0  0  0  0  0
   -1.0323   -0.7500    0.0000 C   0  0  0  0  0  0  0  0  0  0  0  0
   -1.0323   -0.6876    0.0000 C   0  0  0  0  0  0  0  0  0  0  0  0
   -1.0323    0.6876    0.0000 C   0  0  0  0  0  0  0  0  0  0  0  0
    0.3943   -1.2135    0.0000 O   0  0  0  0  0  0  0  0  0  0  0  0
    2.5047    0.8603    0.0000 H   0  0  0  0  0  0  0  0  0  0  0  0
    2.5047   -0.8603    0.0000 H   0  0  0  0  0  0  0  0  0  0  0  0
   -0.3783    2.4993    0.0000 H   0  0  0  0  0  0  0  0  0  0  0  0
    1.6933    1.9635    0.0000 H   0  0  0  0  0  0  0  0  0  0  0  0
   -4.0323    0.7500    0.0000 H   0  0  0  0  0  0  0  0  0  0  0  0
   -2.5323    2.2500    0.0000 H   0  0  0  0  0  0  0  0  0  0  0  0
   -2.5323   -2.2500    0.0000 H   0  0  0  0  0  0  0  0  0  0  0  0
   -4.0323   -0.7500    0.0000 H   0  0  0  0  0  0  0  0  0  0  0  0
    1.9565   -0.9328    0.0000 H   0  0  0  0  0  0  0  0  0  0  0  0
    0.4677   -2.2500    0.0000 H   0  0  0  0  0  0  0  0  0  0  0  0
    0.6506    2.2388    0.0000 H   0  0  0  0  0  0  0  0  0  0  0  0
    1.9565    0.9328    0.0000 H   0  0  0  0  0  0  0  0  0  0  0  0
  1  2  1  0
  2  3  1  0
  3  4  1  0
  4  5  1  0
  5  6  1  0
  6  7  1  0
  7  8  1  0
  6  9  1  0
  9  1  1  0
  6  3  1  0
  8  3  1  0
  1 10  1  0
  1 11  1  0
  2 12  1  0
  2 13  1  0
  4 14  1  0
  4 15  1  0
  5 16  1  0
  5 17  1  0
  7 18  1  0
  7 19  1  0
  8 20  1  0
  8 21  1  0
M  END
