
     RDKit          3D

 21 24  0  0  0  0  0  0  0  0999 V2000
   -2.4315    0.6182    0.3835 C   0  0  0  0  0  0  0  0  0  0  0  0
   -2.5186   -0.7954   -0.1667 C   0  0  0  0  0  0  0  0  0  0  0  0
   -1.7189    0.2748   -0.8458 C   0  0  0  0  0  0  0  0  0  0  0  0
   -0.2314    0.1922   -0.9168 C   0  0  0  0  0  0  0  0  0  0  0  0
    0.5396   -0.7560   -0.0730 C   0  0  0  0  0  0  0  0  0  0  0  0
    2.0251   -0.7101   -0.2005 C   0  0  0  0  0  0  0  0  0  0  0  0
    2.8921   -0.1948    0.8896 C   0  0  0  0  0  0  0  0  0  0  0  0
    2.0271    0.7978    0.2133 C   0  0  0  0  0  0  0  0  0  0  0  0
    0.5238    0.6811    0.2778 C   0  0  0  0  0  0  0  0  0  0  0  0
   -1.9547    0.6639    1.3717 H   0  0  0  0  0  0  0  0  0  0  0  0
   -3.3275    1.2699    0.3064 H   0  0  0  0  0  0  0  0  0  0  0  0
   -2.0297   -1.6113    0.3707 H   0  0  0  0  0  0  0  0  0  0  0  0
   -3.5261   -1.0613   -0.5555 H   0  0  0  0  0  0  0  0  0  0  0  0
   -2.1948    0.6240   -1.8086 H   0  0  0  0  0  0  0  0  0  0  0  0
    0.2825    0.4458   -1.8903 H   0  0  0  0  0  0  0  0  0  0  0  0
    0.0601   -1.4492    0.6270 H   0  0  0  0  0  0  0  0  0  0  0  0
    2.4521   -0.9386   -1.1816 H   0  0  0  0  0  0  0  0  0  0  0  0
    2.7143   -0.4529    1.9436 H   0  0  0  0  0  0  0  0  0  0  0  0
    3.9695   -0.1327    0.6345 H   0  0  0  0  0  0  0  0  0  0  0  0
    2.4116    1.4751   -0.5502 H   0  0  0  0  0  0  0  0  0  0  0  0
    0.0352    1.0594    1.1710 H   0  0  0  0  0  0  0  0  0  0  0  0
  1  2  1  0
  2  3  1  0
  3  4  1  0
  4  5  1  0
  5  6  1  0
  6  7  1  0
  7  8  1  0
  8  9  1  0
  3  1  1  0
  9  4  1  0
  9  5  1  0
  8  6  1  0
  1 10  1  0
  1 11  1  0
  2 12  1  0
  2 13  1  0
  3 14  1  0
  4 15  1  0
  5 16  1  0
  6 17  1  0
  7 18  1  0
  7 19  1  0
  8 20  1  0
  9 21  1  0
M  END
