
     RDKit          3D

 17 18  0  0  0  0  0  0  0  0999 V2000
   -1.5217    0.4921    0.3631 C   0  0  0  0  0  0  0  0  0  0  0  0
   -1.3097   -0.8404   -0.3345 C   0  0  0  0  0  0  0  0  0  0  0  0
    0.0772   -1.2042    0.0989 C   0  0  0  0  0  0  0  0  0  0  0  0
    0.7864    0.1231    0.1627 C   0  0  0  0  0  0  0  0  0  0  0  0
   -0.2154    1.2017   -0.0178 C   0  0  0  0  0  0  0  0  0  0  0  0
    2.1526    0.1894   -0.2758 C   0  0  0  0  0  0  0  0  0  0  0  0
    1.7280    0.3530    1.1631 O   0  0  0  0  0  0  0  0  0  0  0  0
   -1.5830    0.4015    1.4549 H   0  0  0  0  0  0  0  0  0  0  0  0
   -2.3764    1.0288   -0.0954 H   0  0  0  0  0  0  0  0  0  0  0  0
   -2.0755   -1.5780   -0.1151 H   0  0  0  0  0  0  0  0  0  0  0  0
   -1.2537   -0.5976   -1.4300 H   0  0  0  0  0  0  0  0  0  0  0  0
    0.1195   -1.7624    1.0480 H   0  0  0  0  0  0  0  0  0  0  0  0
    0.5405   -1.7834   -0.7462 H   0  0  0  0  0  0  0  0  0  0  0  0
   -0.3188    1.5522   -1.0497 H   0  0  0  0  0  0  0  0  0  0  0  0
   -0.0979    2.0547    0.6891 H   0  0  0  0  0  0  0  0  0  0  0  0
    2.6025    1.1253   -0.6316 H   0  0  0  0  0  0  0  0  0  0  0  0
    2.7456   -0.7556   -0.2836 H   0  0  0  0  0  0  0  0  0  0  0  0
  1  2  1  0
  2  3  1  0
  3  4  1  0
  4  5  1  0
  4  6  1  0
  6  7  1  0
  5  1  1  0
  7  4  1  0
  1  8  1  0
  1  9  1  0
  2 10  1  0
  2 11  1  0
  3 12  1  0
  3 13  1  0
  5 14  1  0
  5 15  1  0
  6 16  1  0
  6 17  1  0
M  END
