
     RDKit          3D

 19 21  0  0  0  0  0  0  0  0999 V2000
   -1.6975   -0.8600    0.4888 C   0  0  0  0  0  0  0  0  0  0  0  0
   -0.4161   -1.5180    0.0170 C   0  0  0  0  0  0  0  0  0  0  0  0
    0.3749   -0.3158   -0.3978 C   0  0  0  0  0  0  0  0  0  0  0  0
    1.7637   -0.3400   -0.7811 C   0  0  0  0  0  0  0  0  0  0  0  0
    1.4118    0.2651    0.5315 C   0  0  0  0  0  0  0  0  0  0  0  0
    1.2437    1.6327    0.5344 O   0  0  0  0  0  0  0  0  0  0  0  0
   -0.0604    1.9215    0.2270 C   0  0  0  0  0  0  0  0  0  0  0  0
   -0.5932    0.7692   -0.5800 C   0  0  0  0  0  0  0  0  0  0  0  0
   -1.8012    0.3550   -0.1111 O   0  0  0  0  0  0  0  0  0  0  0  0
   -2.5301   -1.5450    0.2446 H   0  0  0  0  0  0  0  0  0  0  0  0
   -1.6084   -0.7690    1.5988 H   0  0  0  0  0  0  0  0  0  0  0  0
   -0.6041   -2.2220   -0.8292 H   0  0  0  0  0  0  0  0  0  0  0  0
    0.1368   -2.0070    0.8452 H   0  0  0  0  0  0  0  0  0  0  0  0
    2.2486   -1.3602   -0.8115 H   0  0  0  0  0  0  0  0  0  0  0  0
    2.1940    0.3221   -1.5515 H   0  0  0  0  0  0  0  0  0  0  0  0
    1.5108   -0.2891    1.4791 H   0  0  0  0  0  0  0  0  0  0  0  0
   -0.6869    2.0405    1.1431 H   0  0  0  0  0  0  0  0  0  0  0  0
   -0.1655    2.8549   -0.3965 H   0  0  0  0  0  0  0  0  0  0  0  0
   -0.7208    1.0652   -1.6509 H   0  0  0  0  0  0  0  0  0  0  0  0
  1  2  1  0
  2  3  1  0
  3  4  1  0
  4  5  1  0
  5  6  1  0
  6  7  1  0
  7  8  1  0
  8  9  1  0
  9  1  1  0
  5  3  1  0
  8  3  1  0
  1 10  1  0
  1 11  1  0
  2 12  1  0
  2 13  1  0
  4 14  1  0
  4 15  1  0
  5 16  1  0
  7 17  1  0
  7 18  1  0
  8 19  1  0
M  END
