
     RDKit          3D

 21 23  0  0  0  0  0  0  0  0999 V2000
   -0.9912   -1.2385   -0.3356 C   0  0  0  0  0  0  0  0  0  0  0  0
    0.5153   -1.3443   -0.0475 C   0  0  0  0  0  0  0  0  0  0  0  0
    1.3336   -0.2632   -0.5921 C   0  0  0  0  0  0  0  0  0  0  0  0
    2.3367    0.3338    0.4444 C   0  0  0  0  0  0  0  0  0  0  0  0
    1.2439    1.0946   -0.1324 C   0  0  0  0  0  0  0  0  0  0  0  0
    0.1148    1.5035    0.5634 O   0  0  0  0  0  0  0  0  0  0  0  0
   -0.9867    1.1315   -0.1239 C   0  0  0  0  0  0  0  0  0  0  0  0
   -2.3340    0.9266    0.3382 C   0  0  0  0  0  0  0  0  0  0  0  0
   -1.4681   -0.1778    0.5708 C   0  0  0  0  0  0  0  0  0  0  0  0
   -1.4221   -2.2487   -0.1556 H   0  0  0  0  0  0  0  0  0  0  0  0
   -1.0578   -0.9662   -1.4298 H   0  0  0  0  0  0  0  0  0  0  0  0
    0.9080   -2.3233   -0.4001 H   0  0  0  0  0  0  0  0  0  0  0  0
    0.5680   -1.4131    1.0790 H   0  0  0  0  0  0  0  0  0  0  0  0
    1.7740   -0.4797   -1.6098 H   0  0  0  0  0  0  0  0  0  0  0  0
    3.3630    0.4676    0.0427 H   0  0  0  0  0  0  0  0  0  0  0  0
    2.3235   -0.0652    1.4608 H   0  0  0  0  0  0  0  0  0  0  0  0
    1.5482    1.8873   -0.8839 H   0  0  0  0  0  0  0  0  0  0  0  0
   -0.8374    1.1053   -1.2299 H   0  0  0  0  0  0  0  0  0  0  0  0
   -2.6667    1.5295    1.2243 H   0  0  0  0  0  0  0  0  0  0  0  0
   -3.1565    0.8821   -0.4133 H   0  0  0  0  0  0  0  0  0  0  0  0
   -1.1087   -0.3417    1.6301 H   0  0  0  0  0  0  0  0  0  0  0  0
  1  2  1  0
  2  3  1  0
  3  4  1  0
  4  5  1  0
  5  6  1  0
  6  7  1  0
  7  8  1  0
  8  9  1  0
  9  1  1  0
  5  3  1  0
  9  7  1  0
  1 10  1  0
  1 11  1  0
  2 12  1  0
  2 13  1  0
  3 14  1  0
  4 15  1  0
  4 16  1  0
  5 17  1  0
  7 18  1  0
  8 19  1  0
  8 20  1  0
  9 21  1  0
M  END
