
     RDKit          3D

 19 21  0  0  0  0  0  0  0  0999 V2000
   -1.4069   -0.4349    0.2739 C   0  0  0  0  0  0  0  0  0  0  0  0
   -0.5034   -1.2521   -0.6478 C   0  0  0  0  0  0  0  0  0  0  0  0
    0.8924   -1.1975   -0.0953 C   0  0  0  0  0  0  0  0  0  0  0  0
    0.8815   -1.0508    1.2922 O   0  0  0  0  0  0  0  0  0  0  0  0
    0.7983    0.3128    1.1321 C   0  0  0  0  0  0  0  0  0  0  0  0
   -0.5637    0.7831    0.6732 C   0  0  0  0  0  0  0  0  0  0  0  0
   -0.2332    1.4914   -0.6129 C   0  0  0  0  0  0  0  0  0  0  0  0
    0.9673    1.0389   -1.0711 O   0  0  0  0  0  0  0  0  0  0  0  0
    1.5195    0.1644   -0.1834 C   0  0  0  0  0  0  0  0  0  0  0  0
   -1.7651   -0.9967    1.1303 H   0  0  0  0  0  0  0  0  0  0  0  0
   -2.2183   -0.0162   -0.3739 H   0  0  0  0  0  0  0  0  0  0  0  0
   -0.8569   -2.2869   -0.5950 H   0  0  0  0  0  0  0  0  0  0  0  0
   -0.5649   -0.8726   -1.6979 H   0  0  0  0  0  0  0  0  0  0  0  0
    1.5197   -2.0019   -0.4926 H   0  0  0  0  0  0  0  0  0  0  0  0
    1.2961    0.9411    1.8877 H   0  0  0  0  0  0  0  0  0  0  0  0
   -1.0832    1.4092    1.4092 H   0  0  0  0  0  0  0  0  0  0  0  0
   -0.2902    2.6046   -0.4996 H   0  0  0  0  0  0  0  0  0  0  0  0
   -1.0030    1.2594   -1.4069 H   0  0  0  0  0  0  0  0  0  0  0  0
    2.6140    0.1046   -0.1222 H   0  0  0  0  0  0  0  0  0  0  0  0
  1  2  1  0
  2  3  1  0
  3  4  1  0
  4  5  1  0
  5  6  1  0
  6  7  1  0
  7  8  1  0
  8  9  1  0
  6  1  1  0
  9  3  1  0
  9  5  1  0
  1 10  1  0
  1 11  1  0
  2 12  1  0
  2 13  1  0
  3 14  1  0
  5 15  1  0
  6 16  1  0
  7 17  1  0
  7 18  1  0
  9 19  1  0
M  END
