
     RDKit          3D

 21 23  0  0  0  0  0  0  0  0999 V2000
   -0.2124    1.4699   -0.0364 C   0  0  0  0  0  0  0  0  0  0  0  0
    0.8004    0.8623   -0.9447 C   0  0  0  0  0  0  0  0  0  0  0  0
    1.9310    0.3561   -0.0797 C   0  0  0  0  0  0  0  0  0  0  0  0
    2.5093   -0.8565   -0.2751 O   0  0  0  0  0  0  0  0  0  0  0  0
    1.4294   -0.7139    0.7583 C   0  0  0  0  0  0  0  0  0  0  0  0
    0.1954   -1.4248    0.3025 C   0  0  0  0  0  0  0  0  0  0  0  0
   -1.0833   -0.7942    0.6618 C   0  0  0  0  0  0  0  0  0  0  0  0
   -1.9622   -0.3827   -0.5657 C   0  0  0  0  0  0  0  0  0  0  0  0
   -1.3321    0.5852    0.3635 C   0  0  0  0  0  0  0  0  0  0  0  0
   -0.6587    2.4107   -0.4737 H   0  0  0  0  0  0  0  0  0  0  0  0
    0.2816    1.8327    0.9140 H   0  0  0  0  0  0  0  0  0  0  0  0
    1.2421    1.6962   -1.5660 H   0  0  0  0  0  0  0  0  0  0  0  0
    0.4113    0.1350   -1.6523 H   0  0  0  0  0  0  0  0  0  0  0  0
    2.5405    1.1535    0.3683 H   0  0  0  0  0  0  0  0  0  0  0  0
    1.8151   -0.8657    1.7672 H   0  0  0  0  0  0  0  0  0  0  0  0
    0.2380   -2.4414    0.8044 H   0  0  0  0  0  0  0  0  0  0  0  0
    0.2210   -1.7024   -0.7940 H   0  0  0  0  0  0  0  0  0  0  0  0
   -1.6935   -1.2714    1.4873 H   0  0  0  0  0  0  0  0  0  0  0  0
   -1.5418   -0.5599   -1.5563 H   0  0  0  0  0  0  0  0  0  0  0  0
   -3.0422   -0.6144   -0.4911 H   0  0  0  0  0  0  0  0  0  0  0  0
   -2.0893    1.1257    1.0078 H   0  0  0  0  0  0  0  0  0  0  0  0
  1  2  1  0
  2  3  1  0
  3  4  1  0
  4  5  1  0
  5  6  1  0
  6  7  1  0
  7  8  1  0
  8  9  1  0
  9  1  1  0
  5  3  1  0
  9  7  1  0
  1 10  1  0
  1 11  1  0
  2 12  1  0
  2 13  1  0
  3 14  1  0
  5 15  1  0
  6 16  1  0
  6 17  1  0
  7 18  1  0
  8 19  1  0
  8 20  1  0
  9 21  1  0
M  END
