
     RDKit          3D

 19 21  0  0  0  0  0  0  0  0999 V2000
    1.4754   -0.7940   -0.4324 C   0  0  0  0  0  0  0  0  0  0  0  0
    1.3692    0.7282   -0.2380 C   0  0  0  0  0  0  0  0  0  0  0  0
   -0.0524    1.1250   -0.4039 C   0  0  0  0  0  0  0  0  0  0  0  0
   -0.9213    1.6499    0.6320 C   0  0  0  0  0  0  0  0  0  0  0  0
   -0.8758    0.2342    0.5724 C   0  0  0  0  0  0  0  0  0  0  0  0
   -1.7242   -0.7344   -0.1393 C   0  0  0  0  0  0  0  0  0  0  0  0
   -0.7601   -1.7145   -0.4877 O   0  0  0  0  0  0  0  0  0  0  0  0
    0.3556   -1.4842    0.2822 C   0  0  0  0  0  0  0  0  0  0  0  0
   -0.0398   -0.5901    1.3095 O   0  0  0  0  0  0  0  0  0  0  0  0
    2.4241   -1.0720    0.1163 H   0  0  0  0  0  0  0  0  0  0  0  0
    1.5964   -1.0626   -1.4789 H   0  0  0  0  0  0  0  0  0  0  0  0
    1.8247    1.0346    0.7282 H   0  0  0  0  0  0  0  0  0  0  0  0
    1.9527    1.1803   -1.0887 H   0  0  0  0  0  0  0  0  0  0  0  0
   -0.4071    1.1995   -1.4471 H   0  0  0  0  0  0  0  0  0  0  0  0
   -1.8217    2.2012    0.3334 H   0  0  0  0  0  0  0  0  0  0  0  0
   -0.4088    2.1454    1.5089 H   0  0  0  0  0  0  0  0  0  0  0  0
   -2.4624   -1.1981    0.5760 H   0  0  0  0  0  0  0  0  0  0  0  0
   -2.2001   -0.3915   -1.0594 H   0  0  0  0  0  0  0  0  0  0  0  0
    0.6756   -2.4570    0.7165 H   0  0  0  0  0  0  0  0  0  0  0  0
  1  2  1  0
  2  3  1  0
  3  4  1  0
  4  5  1  0
  5  6  1  0
  6  7  1  0
  7  8  1  0
  8  9  1  0
  8  1  1  0
  5  3  1  0
  9  5  1  0
  1 10  1  0
  1 11  1  0
  2 12  1  0
  2 13  1  0
  3 14  1  0
  4 15  1  0
  4 16  1  0
  6 17  1  0
  6 18  1  0
  8 19  1  0
M  END
