
     RDKit          3D

 25 26  0  0  0  0  0  0  0  0999 V2000
   -2.1738   -0.4863    0.1385 C   0  0  0  0  0  0  0  0  0  0  0  0
   -1.9653    0.9859    0.3047 C   0  0  0  0  0  0  0  0  0  0  0  0
   -0.7534    1.5191   -0.3483 C   0  0  0  0  0  0  0  0  0  0  0  0
    0.3440    0.6033   -0.6387 C   0  0  0  0  0  0  0  0  0  0  0  0
    1.5654    0.8787    0.2528 C   0  0  0  0  0  0  0  0  0  0  0  0
    2.4491   -0.2880   -0.1791 C   0  0  0  0  0  0  0  0  0  0  0  0
    1.4769   -1.4484   -0.0221 C   0  0  0  0  0  0  0  0  0  0  0  0
    0.1323   -0.8431   -0.4413 C   0  0  0  0  0  0  0  0  0  0  0  0
   -0.8761   -1.1299    0.6447 C   0  0  0  0  0  0  0  0  0  0  0  0
   -2.2726   -0.6752   -0.9706 H   0  0  0  0  0  0  0  0  0  0  0  0
   -3.0488   -0.8277    0.6794 H   0  0  0  0  0  0  0  0  0  0  0  0
   -2.8957    1.4904   -0.0744 H   0  0  0  0  0  0  0  0  0  0  0  0
   -1.9583    1.2182    1.4093 H   0  0  0  0  0  0  0  0  0  0  0  0
   -0.3631    2.3656    0.2915 H   0  0  0  0  0  0  0  0  0  0  0  0
   -1.0750    2.0398   -1.2976 H   0  0  0  0  0  0  0  0  0  0  0  0
    0.7358    0.7546   -1.6883 H   0  0  0  0  0  0  0  0  0  0  0  0
    2.0105    1.8500    0.0555 H   0  0  0  0  0  0  0  0  0  0  0  0
    1.2294    0.7046    1.2835 H   0  0  0  0  0  0  0  0  0  0  0  0
    3.3491   -0.3906    0.4142 H   0  0  0  0  0  0  0  0  0  0  0  0
    2.6251   -0.1752   -1.2765 H   0  0  0  0  0  0  0  0  0  0  0  0
    1.4307   -1.7357    1.0528 H   0  0  0  0  0  0  0  0  0  0  0  0
    1.7632   -2.2957   -0.6492 H   0  0  0  0  0  0  0  0  0  0  0  0
   -0.2127   -1.3835   -1.3600 H   0  0  0  0  0  0  0  0  0  0  0  0
   -0.5270   -0.5479    1.5463 H   0  0  0  0  0  0  0  0  0  0  0  0
   -0.9899   -2.1828    0.8728 H   0  0  0  0  0  0  0  0  0  0  0  0
  1  2  1  0
  2  3  1  0
  3  4  1  0
  4  5  1  0
  5  6  1  0
  6  7  1  0
  7  8  1  0
  8  9  1  0
  9  1  1  0
  8  4  1  0
  1 10  1  0
  1 11  1  0
  2 12  1  0
  2 13  1  0
  3 14  1  0
  3 15  1  0
  4 16  1  0
  5 17  1  0
  5 18  1  0
  6 19  1  0
  6 20  1  0
  7 21  1  0
  7 22  1  0
  8 23  1  0
  9 24  1  0
  9 25  1  0
M  END
