
     RDKit          3D

 19 22  0  0  0  0  0  0  0  0999 V2000
    1.6155    0.8476   -0.3710 C   0  0  0  0  0  0  0  0  0  0  0  0
    2.0998   -0.3541    0.4133 C   0  0  0  0  0  0  0  0  0  0  0  0
    0.6732   -0.1973    0.2598 C   0  0  0  0  0  0  0  0  0  0  0  0
   -0.2675    0.3717    1.2485 C   0  0  0  0  0  0  0  0  0  0  0  0
   -1.5312    0.5832    0.4291 C   0  0  0  0  0  0  0  0  0  0  0  0
   -2.3166   -0.5800    0.5585 O   0  0  0  0  0  0  0  0  0  0  0  0
   -1.6176   -1.2038   -0.4747 C   0  0  0  0  0  0  0  0  0  0  0  0
   -1.2313    0.1202   -0.9512 C   0  0  0  0  0  0  0  0  0  0  0  0
   -0.1890   -0.8970   -0.7342 C   0  0  0  0  0  0  0  0  0  0  0  0
    1.6601    1.8453    0.0900 H   0  0  0  0  0  0  0  0  0  0  0  0
    1.7124    0.8598   -1.4664 H   0  0  0  0  0  0  0  0  0  0  0  0
    2.5626   -0.1161    1.3723 H   0  0  0  0  0  0  0  0  0  0  0  0
    2.6198   -1.0994   -0.2085 H   0  0  0  0  0  0  0  0  0  0  0  0
    0.0527    1.3507    1.6609 H   0  0  0  0  0  0  0  0  0  0  0  0
   -0.4603   -0.2894    2.1188 H   0  0  0  0  0  0  0  0  0  0  0  0
   -2.0459    1.5210    0.5765 H   0  0  0  0  0  0  0  0  0  0  0  0
   -2.1137   -1.9420   -1.1049 H   0  0  0  0  0  0  0  0  0  0  0  0
   -1.4962    0.6051   -1.8541 H   0  0  0  0  0  0  0  0  0  0  0  0
    0.2730   -1.4254   -1.5628 H   0  0  0  0  0  0  0  0  0  0  0  0
  1  2  1  0
  2  3  1  0
  3  4  1  0
  4  5  1  0
  5  6  1  0
  6  7  1  0
  7  8  1  0
  8  9  1  0
  3  1  1  0
  8  5  1  0
  9  3  1  0
  9  7  1  0
  1 10  1  0
  1 11  1  0
  2 12  1  0
  2 13  1  0
  4 14  1  0
  4 15  1  0
  5 16  1  0
  7 17  1  0
  8 18  1  0
  9 19  1  0
M  END
