
     RDKit          3D

 19 21  0  0  0  0  0  0  0  0999 V2000
    1.7635    0.1882    0.1931 C   0  0  0  0  0  0  0  0  0  0  0  0
    1.0329   -1.0582   -0.0858 C   0  0  0  0  0  0  0  0  0  0  0  0
   -0.3229   -0.9355   -0.6502 C   0  0  0  0  0  0  0  0  0  0  0  0
   -1.4417   -0.5679    0.2783 C   0  0  0  0  0  0  0  0  0  0  0  0
   -0.9348    0.6228    1.0899 C   0  0  0  0  0  0  0  0  0  0  0  0
   -0.2388    1.3391   -0.0848 C   0  0  0  0  0  0  0  0  0  0  0  0
    1.0805    1.3546    0.1647 O   0  0  0  0  0  0  0  0  0  0  0  0
   -0.6877    0.4063   -1.1784 C   0  0  0  0  0  0  0  0  0  0  0  0
   -2.0188    0.0942   -0.8107 O   0  0  0  0  0  0  0  0  0  0  0  0
    2.6591    0.3134   -0.4878 H   0  0  0  0  0  0  0  0  0  0  0  0
    2.2356    0.0918    1.2168 H   0  0  0  0  0  0  0  0  0  0  0  0
    0.9719   -1.7325    0.8199 H   0  0  0  0  0  0  0  0  0  0  0  0
    1.6384   -1.6678   -0.8198 H   0  0  0  0  0  0  0  0  0  0  0  0
   -0.6159   -1.7350   -1.3268 H   0  0  0  0  0  0  0  0  0  0  0  0
   -1.9954   -1.3195    0.7797 H   0  0  0  0  0  0  0  0  0  0  0  0
   -0.2207    0.3359    1.8594 H   0  0  0  0  0  0  0  0  0  0  0  0
   -1.7795    1.2411    1.4466 H   0  0  0  0  0  0  0  0  0  0  0  0
   -0.6155    2.3649   -0.2068 H   0  0  0  0  0  0  0  0  0  0  0  0
   -0.5101    0.6642   -2.1972 H   0  0  0  0  0  0  0  0  0  0  0  0
  1  2  1  0
  2  3  1  0
  3  4  1  0
  4  5  1  0
  5  6  1  0
  6  7  1  0
  6  8  1  0
  8  9  1  0
  7  1  1  0
  8  3  1  0
  9  4  1  0
  1 10  1  0
  1 11  1  0
  2 12  1  0
  2 13  1  0
  3 14  1  0
  4 15  1  0
  5 16  1  0
  5 17  1  0
  6 18  1  0
  8 19  1  0
M  END
