
     RDKit          3D

 19 21  0  0  0  0  0  0  0  0999 V2000
   -1.9087   -0.1234   -0.3938 C   0  0  0  0  0  0  0  0  0  0  0  0
   -1.2155    1.0770    0.1364 C   0  0  0  0  0  0  0  0  0  0  0  0
    0.0602    0.7757    0.8828 C   0  0  0  0  0  0  0  0  0  0  0  0
    0.0341   -0.4758    1.4812 O   0  0  0  0  0  0  0  0  0  0  0  0
   -0.0846   -1.3237    0.3619 C   0  0  0  0  0  0  0  0  0  0  0  0
   -1.3862   -1.3262   -0.0413 O   0  0  0  0  0  0  0  0  0  0  0  0
    0.8925   -0.7831   -0.6322 C   0  0  0  0  0  0  0  0  0  0  0  0
    2.2131   -0.3757   -0.0320 C   0  0  0  0  0  0  0  0  0  0  0  0
    1.1697    0.6670   -0.1142 C   0  0  0  0  0  0  0  0  0  0  0  0
   -2.9801   -0.0810   -0.0403 H   0  0  0  0  0  0  0  0  0  0  0  0
   -2.0039   -0.1100   -1.5188 H   0  0  0  0  0  0  0  0  0  0  0  0
   -1.8566    1.7286    0.7688 H   0  0  0  0  0  0  0  0  0  0  0  0
   -0.9185    1.7111   -0.7506 H   0  0  0  0  0  0  0  0  0  0  0  0
    0.2375    1.5383    1.6707 H   0  0  0  0  0  0  0  0  0  0  0  0
    0.2108   -2.3600    0.6022 H   0  0  0  0  0  0  0  0  0  0  0  0
    0.7382   -0.8357   -1.7023 H   0  0  0  0  0  0  0  0  0  0  0  0
    2.4964   -0.8470    0.9461 H   0  0  0  0  0  0  0  0  0  0  0  0
    3.0316   -0.3038   -0.7508 H   0  0  0  0  0  0  0  0  0  0  0  0
    1.2701    1.4475   -0.8738 H   0  0  0  0  0  0  0  0  0  0  0  0
  1  2  1  0
  2  3  1  0
  3  4  1  0
  4  5  1  0
  5  6  1  0
  5  7  1  0
  7  8  1  0
  8  9  1  0
  6  1  1  0
  9  7  1  0
  9  3  1  0
  1 10  1  0
  1 11  1  0
  2 12  1  0
  2 13  1  0
  3 14  1  0
  5 15  1  0
  7 16  1  0
  8 17  1  0
  8 18  1  0
  9 19  1  0
M  END
