
     RDKit          3D

 25 26  0  0  0  0  0  0  0  0999 V2000
    1.7130    0.9158   -0.1333 C   0  0  0  0  0  0  0  0  0  0  0  0
    1.7094   -0.5399    0.3494 C   0  0  0  0  0  0  0  0  0  0  0  0
    0.7206   -1.3688   -0.3801 C   0  0  0  0  0  0  0  0  0  0  0  0
   -0.6145   -1.5078    0.2161 C   0  0  0  0  0  0  0  0  0  0  0  0
   -1.6356   -0.8047   -0.6913 C   0  0  0  0  0  0  0  0  0  0  0  0
   -1.5324    0.3769    0.2856 C   0  0  0  0  0  0  0  0  0  0  0  0
   -0.6626    1.4305   -0.2319 C   0  0  0  0  0  0  0  0  0  0  0  0
    0.5945    1.7127    0.4917 C   0  0  0  0  0  0  0  0  0  0  0  0
   -0.9986   -0.5647    1.2840 C   0  0  0  0  0  0  0  0  0  0  0  0
    2.6991    1.3834    0.0135 H   0  0  0  0  0  0  0  0  0  0  0  0
    1.5142    0.8930   -1.2293 H   0  0  0  0  0  0  0  0  0  0  0  0
    2.7390   -0.9172    0.0646 H   0  0  0  0  0  0  0  0  0  0  0  0
    1.6771   -0.6093    1.4430 H   0  0  0  0  0  0  0  0  0  0  0  0
    1.1533   -2.4044   -0.5188 H   0  0  0  0  0  0  0  0  0  0  0  0
    0.6580   -0.9756   -1.4382 H   0  0  0  0  0  0  0  0  0  0  0  0
   -0.9409   -2.5727    0.4118 H   0  0  0  0  0  0  0  0  0  0  0  0
   -1.2915   -0.5998   -1.7008 H   0  0  0  0  0  0  0  0  0  0  0  0
   -2.6164   -1.3258   -0.6550 H   0  0  0  0  0  0  0  0  0  0  0  0
   -2.5874    0.7257    0.4803 H   0  0  0  0  0  0  0  0  0  0  0  0
   -1.2392    2.3976   -0.3390 H   0  0  0  0  0  0  0  0  0  0  0  0
   -0.3899    1.1790   -1.3008 H   0  0  0  0  0  0  0  0  0  0  0  0
    0.8745    2.7969    0.3265 H   0  0  0  0  0  0  0  0  0  0  0  0
    0.5502    1.6055    1.5917 H   0  0  0  0  0  0  0  0  0  0  0  0
   -0.2431   -0.2251    1.9999 H   0  0  0  0  0  0  0  0  0  0  0  0
   -1.8510   -1.0010    1.8928 H   0  0  0  0  0  0  0  0  0  0  0  0
  1  2  1  0
  2  3  1  0
  3  4  1  0
  4  5  1  0
  5  6  1  0
  6  7  1  0
  7  8  1  0
  6  9  1  0
  8  1  1  0
  9  4  1  0
  1 10  1  0
  1 11  1  0
  2 12  1  0
  2 13  1  0
  3 14  1  0
  3 15  1  0
  4 16  1  0
  5 17  1  0
  5 18  1  0
  6 19  1  0
  7 20  1  0
  7 21  1  0
  8 22  1  0
  8 23  1  0
  9 24  1  0
  9 25  1  0
M  END
