
     RDKit          3D

 21 23  0  0  0  0  0  0  0  0999 V2000
    1.9602   -0.7039    0.5976 C   0  0  0  0  0  0  0  0  0  0  0  0
    2.3319    0.4353   -0.3056 C   0  0  0  0  0  0  0  0  0  0  0  0
    1.0161    0.9519   -0.8432 C   0  0  0  0  0  0  0  0  0  0  0  0
    0.5134   -0.0917   -1.8108 O   0  0  0  0  0  0  0  0  0  0  0  0
   -0.0103    0.1646   -0.4662 C   0  0  0  0  0  0  0  0  0  0  0  0
   -1.4597    0.5075   -0.5256 C   0  0  0  0  0  0  0  0  0  0  0  0
   -2.4120   -0.5620   -0.0450 C   0  0  0  0  0  0  0  0  0  0  0  0
   -2.2637    0.6817    0.7163 C   0  0  0  0  0  0  0  0  0  0  0  0
    0.4696   -0.8639    0.5331 C   0  0  0  0  0  0  0  0  0  0  0  0
    2.3253   -0.4892    1.6216 H   0  0  0  0  0  0  0  0  0  0  0  0
    2.4390   -1.6588    0.2955 H   0  0  0  0  0  0  0  0  0  0  0  0
    2.9515    0.0110   -1.1321 H   0  0  0  0  0  0  0  0  0  0  0  0
    2.9258    1.1953    0.1941 H   0  0  0  0  0  0  0  0  0  0  0  0
    0.9643    1.9538   -1.2886 H   0  0  0  0  0  0  0  0  0  0  0  0
   -1.7913    1.0411   -1.4415 H   0  0  0  0  0  0  0  0  0  0  0  0
   -3.3290   -0.7741   -0.6393 H   0  0  0  0  0  0  0  0  0  0  0  0
   -1.9867   -1.4998    0.3957 H   0  0  0  0  0  0  0  0  0  0  0  0
   -3.0709    1.4583    0.6525 H   0  0  0  0  0  0  0  0  0  0  0  0
   -1.7546    0.6915    1.7073 H   0  0  0  0  0  0  0  0  0  0  0  0
    0.1322   -1.8694    0.2710 H   0  0  0  0  0  0  0  0  0  0  0  0
    0.0490   -0.5792    1.5133 H   0  0  0  0  0  0  0  0  0  0  0  0
  1  2  1  0
  2  3  1  0
  3  4  1  0
  4  5  1  0
  5  6  1  0
  6  7  1  0
  7  8  1  0
  5  9  1  0
  9  1  1  0
  5  3  1  0
  8  6  1  0
  1 10  1  0
  1 11  1  0
  2 12  1  0
  2 13  1  0
  3 14  1  0
  6 15  1  0
  7 16  1  0
  7 17  1  0
  8 18  1  0
  8 19  1  0
  9 20  1  0
  9 21  1  0
M  END
