
     RDKit          3D

 22 23  0  0  0  0  0  0  0  0999 V2000
    1.8346    0.7690   -0.7208 C   0  0  0  0  0  0  0  0  0  0  0  0
    2.8527   -0.3263   -0.6350 C   0  0  0  0  0  0  0  0  0  0  0  0
    1.8532   -0.1493    0.4606 C   0  0  0  0  0  0  0  0  0  0  0  0
    0.7019   -1.0728    0.6535 C   0  0  0  0  0  0  0  0  0  0  0  0
   -0.6339   -0.5166    0.9009 C   0  0  0  0  0  0  0  0  0  0  0  0
   -1.2645    0.4049   -0.0565 C   0  0  0  0  0  0  0  0  0  0  0  0
   -2.6919    0.8287    0.3984 C   0  0  0  0  0  0  0  0  0  0  0  0
   -2.4048    0.1359   -0.9183 C   0  0  0  0  0  0  0  0  0  0  0  0
    2.1950    1.7911   -0.5357 H   0  0  0  0  0  0  0  0  0  0  0  0
    1.0737    0.6873   -1.5284 H   0  0  0  0  0  0  0  0  0  0  0  0
    2.7279   -1.2571   -1.2291 H   0  0  0  0  0  0  0  0  0  0  0  0
    3.9016   -0.0209   -0.4942 H   0  0  0  0  0  0  0  0  0  0  0  0
    2.2556    0.2867    1.4310 H   0  0  0  0  0  0  0  0  0  0  0  0
    0.6825   -1.8414   -0.1753 H   0  0  0  0  0  0  0  0  0  0  0  0
    0.9940   -1.7243    1.5465 H   0  0  0  0  0  0  0  0  0  0  0  0
   -0.6111    0.0349    1.8986 H   0  0  0  0  0  0  0  0  0  0  0  0
   -1.3455   -1.3735    1.1491 H   0  0  0  0  0  0  0  0  0  0  0  0
   -0.6284    1.3222   -0.2705 H   0  0  0  0  0  0  0  0  0  0  0  0
   -2.9278    1.9041    0.4038 H   0  0  0  0  0  0  0  0  0  0  0  0
   -3.2077    0.1826    1.1196 H   0  0  0  0  0  0  0  0  0  0  0  0
   -2.7981   -0.8760   -1.1067 H   0  0  0  0  0  0  0  0  0  0  0  0
   -2.5590    0.8105   -1.7978 H   0  0  0  0  0  0  0  0  0  0  0  0
  1  2  1  0
  2  3  1  0
  3  4  1  0
  4  5  1  0
  5  6  1  0
  6  7  1  0
  7  8  1  0
  3  1  1  0
  8  6  1  0
  1  9  1  0
  1 10  1  0
  2 11  1  0
  2 12  1  0
  3 13  1  0
  4 14  1  0
  4 15  1  0
  5 16  1  0
  5 17  1  0
  6 18  1  0
  7 19  1  0
  7 20  1  0
  8 21  1  0
  8 22  1  0
M  END
