
     RDKit          3D

 21 23  0  0  0  0  0  0  0  0999 V2000
   -2.3867    0.0488   -0.5325 C   0  0  0  0  0  0  0  0  0  0  0  0
   -1.6978   -0.0413    0.7934 C   0  0  0  0  0  0  0  0  0  0  0  0
   -0.5891   -0.8101    0.1374 C   0  0  0  0  0  0  0  0  0  0  0  0
    0.5715   -0.0126   -0.3680 C   0  0  0  0  0  0  0  0  0  0  0  0
    1.4016    0.8238    0.5194 C   0  0  0  0  0  0  0  0  0  0  0  0
    2.6303    1.4351   -0.1360 C   0  0  0  0  0  0  0  0  0  0  0  0
    3.0728    0.1320   -0.3721 O   0  0  0  0  0  0  0  0  0  0  0  0
    1.9219   -0.5403   -0.0025 C   0  0  0  0  0  0  0  0  0  0  0  0
   -1.5714   -1.1479   -0.9884 C   0  0  0  0  0  0  0  0  0  0  0  0
   -2.1461    0.9952   -1.0330 H   0  0  0  0  0  0  0  0  0  0  0  0
   -3.4593   -0.2025   -0.5474 H   0  0  0  0  0  0  0  0  0  0  0  0
   -2.3026   -0.6719    1.4906 H   0  0  0  0  0  0  0  0  0  0  0  0
   -1.4277    0.8932    1.2907 H   0  0  0  0  0  0  0  0  0  0  0  0
   -0.3217   -1.6942    0.7611 H   0  0  0  0  0  0  0  0  0  0  0  0
    0.5232    0.3511   -1.4372 H   0  0  0  0  0  0  0  0  0  0  0  0
    1.2385    0.9307    1.5885 H   0  0  0  0  0  0  0  0  0  0  0  0
    2.4117    1.9052   -1.1385 H   0  0  0  0  0  0  0  0  0  0  0  0
    3.2602    2.0486    0.5059 H   0  0  0  0  0  0  0  0  0  0  0  0
    2.0275   -1.3144    0.7849 H   0  0  0  0  0  0  0  0  0  0  0  0
   -1.1051   -1.0097   -1.9977 H   0  0  0  0  0  0  0  0  0  0  0  0
   -2.0517   -2.1188   -0.9088 H   0  0  0  0  0  0  0  0  0  0  0  0
  1  2  1  0
  2  3  1  0
  3  4  1  0
  4  5  1  0
  5  6  1  0
  6  7  1  0
  7  8  1  0
  3  9  1  0
  9  1  1  0
  8  4  1  0
  8  5  1  0
  1 10  1  0
  1 11  1  0
  2 12  1  0
  2 13  1  0
  3 14  1  0
  4 15  1  0
  5 16  1  0
  6 17  1  0
  6 18  1  0
  8 19  1  0
  9 20  1  0
  9 21  1  0
M  END
