
     RDKit          3D

 23 24  0  0  0  0  0  0  0  0999 V2000
   -0.3212   -1.6384    0.5090 C   0  0  0  0  0  0  0  0  0  0  0  0
    1.0263   -1.6053   -0.1413 C   0  0  0  0  0  0  0  0  0  0  0  0
    1.5321   -0.2450   -0.4557 C   0  0  0  0  0  0  0  0  0  0  0  0
    1.2224    0.8001    0.5555 C   0  0  0  0  0  0  0  0  0  0  0  0
    0.3662    1.9033    0.0081 C   0  0  0  0  0  0  0  0  0  0  0  0
   -0.4543    2.6078    0.9134 O   0  0  0  0  0  0  0  0  0  0  0  0
   -1.0203    1.6857   -0.1190 C   0  0  0  0  0  0  0  0  0  0  0  0
   -1.6127    0.4600    0.4763 C   0  0  0  0  0  0  0  0  0  0  0  0
   -1.2857   -0.8075   -0.2845 C   0  0  0  0  0  0  0  0  0  0  0  0
   -0.6790   -2.6910    0.5203 H   0  0  0  0  0  0  0  0  0  0  0  0
   -0.3275   -1.2893    1.5500 H   0  0  0  0  0  0  0  0  0  0  0  0
    1.7624   -2.2260    0.4384 H   0  0  0  0  0  0  0  0  0  0  0  0
    0.9229   -2.1582   -1.1206 H   0  0  0  0  0  0  0  0  0  0  0  0
    2.6344   -0.3392   -0.6755 H   0  0  0  0  0  0  0  0  0  0  0  0
    1.0656    0.0758   -1.4260 H   0  0  0  0  0  0  0  0  0  0  0  0
    2.2035    1.2792    0.8494 H   0  0  0  0  0  0  0  0  0  0  0  0
    0.8271    0.3922    1.5230 H   0  0  0  0  0  0  0  0  0  0  0  0
    0.8875    2.5861   -0.7019 H   0  0  0  0  0  0  0  0  0  0  0  0
   -1.6258    2.2396   -0.8488 H   0  0  0  0  0  0  0  0  0  0  0  0
   -1.2925    0.3300    1.5326 H   0  0  0  0  0  0  0  0  0  0  0  0
   -2.7336    0.5945    0.5052 H   0  0  0  0  0  0  0  0  0  0  0  0
   -0.8691   -0.5643   -1.2811 H   0  0  0  0  0  0  0  0  0  0  0  0
   -2.2288   -1.3900   -0.4993 H   0  0  0  0  0  0  0  0  0  0  0  0
  1  2  1  0
  2  3  1  0
  3  4  1  0
  4  5  1  0
  5  6  1  0
  6  7  1  0
  7  8  1  0
  8  9  1  0
  9  1  1  0
  7  5  1  0
  1 10  1  0
  1 11  1  0
  2 12  1  0
  2 13  1  0
  3 14  1  0
  3 15  1  0
  4 16  1  0
  4 17  1  0
  5 18  1  0
  7 19  1  0
  8 20  1  0
  8 21  1  0
  9 22  1  0
  9 23  1  0
M  END
