
     RDKit          3D

 19 22  0  0  0  0  0  0  0  0999 V2000
   -1.1528    0.7966   -0.7853 C   0  0  0  0  0  0  0  0  0  0  0  0
   -1.6982   -0.5050   -0.2423 C   0  0  0  0  0  0  0  0  0  0  0  0
   -0.4262   -0.5978    0.6078 C   0  0  0  0  0  0  0  0  0  0  0  0
   -0.3277    0.4201    1.6599 C   0  0  0  0  0  0  0  0  0  0  0  0
   -0.1124    0.8769    0.2766 C   0  0  0  0  0  0  0  0  0  0  0  0
    1.3071    0.8898   -0.2103 C   0  0  0  0  0  0  0  0  0  0  0  0
    1.6332   -0.4959   -0.6695 C   0  0  0  0  0  0  0  0  0  0  0  0
    0.7528   -1.2402   -1.4084 O   0  0  0  0  0  0  0  0  0  0  0  0
    0.7228   -1.3623    0.0722 C   0  0  0  0  0  0  0  0  0  0  0  0
   -1.8825    1.6168   -0.8497 H   0  0  0  0  0  0  0  0  0  0  0  0
   -0.7597    0.6045   -1.8261 H   0  0  0  0  0  0  0  0  0  0  0  0
   -2.6040   -0.2922    0.3620 H   0  0  0  0  0  0  0  0  0  0  0  0
   -1.7332   -1.3485   -0.9257 H   0  0  0  0  0  0  0  0  0  0  0  0
    0.5342    0.3932    2.3192 H   0  0  0  0  0  0  0  0  0  0  0  0
   -1.2893    0.6342    2.2075 H   0  0  0  0  0  0  0  0  0  0  0  0
    1.3908    1.6344   -1.0049 H   0  0  0  0  0  0  0  0  0  0  0  0
    1.9540    1.1059    0.6777 H   0  0  0  0  0  0  0  0  0  0  0  0
    2.7093   -0.7734   -0.6945 H   0  0  0  0  0  0  0  0  0  0  0  0
    0.9816   -2.3570    0.4339 H   0  0  0  0  0  0  0  0  0  0  0  0
  1  2  1  0
  2  3  1  0
  3  4  1  0
  4  5  1  0
  5  6  1  0
  6  7  1  0
  7  8  1  0
  8  9  1  0
  5  1  1  0
  9  7  1  0
  5  3  1  0
  9  3  1  0
  1 10  1  0
  1 11  1  0
  2 12  1  0
  2 13  1  0
  4 14  1  0
  4 15  1  0
  6 16  1  0
  6 17  1  0
  7 18  1  0
  9 19  1  0
M  END
