
     RDKit          2D

 18 20  0  0  0  0  0  0  0  0999 V2000
    1.5915   -2.3938    0.0000 C   0  0  0  0  0  0  0  0  0  0  0  0
    0.1006   -2.5587    0.0000 C   0  0  0  0  0  0  0  0  0  0  0  0
   -0.0000   -1.0607    0.0000 C   0  0  0  0  0  0  0  0  0  0  0  0
    1.0607    0.0000    0.0000 C   0  0  0  0  0  0  0  0  0  0  0  0
    0.0000    1.0607    0.0000 C   0  0  0  0  0  0  0  0  0  0  0  0
    1.4266    0.5971    0.0000 C   0  0  0  0  0  0  0  0  0  0  0  0
    1.4266   -0.9029    0.0000 C   0  0  0  0  0  0  0  0  0  0  0  0
   -1.0607    0.0000    0.0000 O   0  0  0  0  0  0  0  0  0  0  0  0
    3.0824   -2.2289    0.0000 H   0  0  0  0  0  0  0  0  0  0  0  0
    1.7564   -3.8847    0.0000 H   0  0  0  0  0  0  0  0  0  0  0  0
    0.2655   -4.0496    0.0000 H   0  0  0  0  0  0  0  0  0  0  0  0
   -1.3903   -2.7236    0.0000 H   0  0  0  0  0  0  0  0  0  0  0  0
    2.1213    1.0607    0.0000 H   0  0  0  0  0  0  0  0  0  0  0  0
    1.7889   -0.3242    0.0000 H   0  0  0  0  0  0  0  0  0  0  0  0
    0.0000    2.5607    0.0000 H   0  0  0  0  0  0  0  0  0  0  0  0
    1.7385    2.0644    0.0000 H   0  0  0  0  0  0  0  0  0  0  0  0
    2.9184    0.4403    0.0000 H   0  0  0  0  0  0  0  0  0  0  0  0
    2.5194   -0.8647    0.0000 H   0  0  0  0  0  0  0  0  0  0  0  0
  1  2  1  0
  2  3  1  0
  3  4  1  0
  4  5  1  0
  5  6  1  0
  6  7  1  0
  5  8  1  0
  7  1  1  0
  7  3  1  0
  8  3  1  0
  1  9  1  0
  1 10  1  0
  2 11  1  0
  2 12  1  0
  4 13  1  0
  4 14  1  0
  5 15  1  0
  6 16  1  0
  6 17  1  0
  7 18  1  0
M  END
