
     RDKit          3D

 21 23  0  0  0  0  0  0  0  0999 V2000
    1.4513   -0.4853    0.2339 C   0  0  0  0  0  0  0  0  0  0  0  0
    0.7433   -1.1989   -0.8446 C   0  0  0  0  0  0  0  0  0  0  0  0
   -0.7159   -1.0502   -0.9181 C   0  0  0  0  0  0  0  0  0  0  0  0
   -1.4232   -0.3408    0.1231 C   0  0  0  0  0  0  0  0  0  0  0  0
   -0.6533   -0.0080    1.3519 C   0  0  0  0  0  0  0  0  0  0  0  0
    0.6747    0.5999    0.9117 C   0  0  0  0  0  0  0  0  0  0  0  0
    0.3404    1.7540    0.0218 C   0  0  0  0  0  0  0  0  0  0  0  0
   -0.2734    1.3832   -1.1345 O   0  0  0  0  0  0  0  0  0  0  0  0
   -1.2076    0.4158   -1.0693 C   0  0  0  0  0  0  0  0  0  0  0  0
    2.4526   -0.1271   -0.1228 H   0  0  0  0  0  0  0  0  0  0  0  0
    1.7051   -1.2371    1.0381 H   0  0  0  0  0  0  0  0  0  0  0  0
    1.1827   -0.8685   -1.8316 H   0  0  0  0  0  0  0  0  0  0  0  0
    0.9828   -2.3032   -0.8116 H   0  0  0  0  0  0  0  0  0  0  0  0
   -1.2324   -1.8037   -1.5704 H   0  0  0  0  0  0  0  0  0  0  0  0
   -2.4770   -0.6882    0.3399 H   0  0  0  0  0  0  0  0  0  0  0  0
   -1.1969    0.6338    2.0413 H   0  0  0  0  0  0  0  0  0  0  0  0
   -0.3740   -0.9749    1.8594 H   0  0  0  0  0  0  0  0  0  0  0  0
    1.2739    0.9520    1.7753 H   0  0  0  0  0  0  0  0  0  0  0  0
   -0.3869    2.4001    0.5962 H   0  0  0  0  0  0  0  0  0  0  0  0
    1.1969    2.4172   -0.2021 H   0  0  0  0  0  0  0  0  0  0  0  0
   -2.0632    0.5299   -1.7877 H   0  0  0  0  0  0  0  0  0  0  0  0
  1  2  1  0
  2  3  1  0
  3  4  1  0
  4  5  1  0
  5  6  1  0
  6  7  1  0
  7  8  1  0
  8  9  1  0
  6  1  1  0
  9  3  1  0
  9  4  1  0
  1 10  1  0
  1 11  1  0
  2 12  1  0
  2 13  1  0
  3 14  1  0
  4 15  1  0
  5 16  1  0
  5 17  1  0
  6 18  1  0
  7 19  1  0
  7 20  1  0
  9 21  1  0
M  END
