
     RDKit          3D

 21 23  0  0  0  0  0  0  0  0999 V2000
   -1.6561    1.1275   -0.4555 C   0  0  0  0  0  0  0  0  0  0  0  0
   -2.1954   -0.1879    0.0251 C   0  0  0  0  0  0  0  0  0  0  0  0
   -1.0132   -1.0375    0.4131 C   0  0  0  0  0  0  0  0  0  0  0  0
    0.1985   -0.3610   -0.1161 C   0  0  0  0  0  0  0  0  0  0  0  0
   -0.2250    0.8405   -0.9043 C   0  0  0  0  0  0  0  0  0  0  0  0
    1.3473   -0.1650    0.8007 C   0  0  0  0  0  0  0  0  0  0  0  0
    2.5660    0.4663    0.1534 C   0  0  0  0  0  0  0  0  0  0  0  0
    2.6232   -0.6349   -0.6904 O   0  0  0  0  0  0  0  0  0  0  0  0
    1.3828   -1.1501   -0.4063 C   0  0  0  0  0  0  0  0  0  0  0  0
   -1.6929    1.8593    0.3703 H   0  0  0  0  0  0  0  0  0  0  0  0
   -2.2344    1.5229   -1.3237 H   0  0  0  0  0  0  0  0  0  0  0  0
   -2.7980   -0.6211   -0.7926 H   0  0  0  0  0  0  0  0  0  0  0  0
   -2.8827   -0.0290    0.8755 H   0  0  0  0  0  0  0  0  0  0  0  0
   -1.0689   -2.0717    0.0206 H   0  0  0  0  0  0  0  0  0  0  0  0
   -0.9680   -1.0325    1.5269 H   0  0  0  0  0  0  0  0  0  0  0  0
   -0.2289    0.6370   -1.9815 H   0  0  0  0  0  0  0  0  0  0  0  0
    0.3530    1.7652   -0.6330 H   0  0  0  0  0  0  0  0  0  0  0  0
    1.4220   -0.6372    1.7810 H   0  0  0  0  0  0  0  0  0  0  0  0
    3.3687    0.5737    0.8855 H   0  0  0  0  0  0  0  0  0  0  0  0
    2.3478    1.3750   -0.4585 H   0  0  0  0  0  0  0  0  0  0  0  0
    1.3544   -2.2394   -0.1200 H   0  0  0  0  0  0  0  0  0  0  0  0
  1  2  1  0
  2  3  1  0
  3  4  1  0
  4  5  1  0
  4  6  1  0
  6  7  1  0
  7  8  1  0
  8  9  1  0
  5  1  1  0
  9  6  1  0
  9  4  1  0
  1 10  1  0
  1 11  1  0
  2 12  1  0
  2 13  1  0
  3 14  1  0
  3 15  1  0
  5 16  1  0
  5 17  1  0
  6 18  1  0
  7 19  1  0
  7 20  1  0
  9 21  1  0
M  END
