
     RDKit          3D

 18 20  0  0  0  0  0  0  0  0999 V2000
   -2.0646    0.1969    0.2248 C   0  0  0  0  0  0  0  0  0  0  0  0
   -0.8300    1.0546    0.0683 C   0  0  0  0  0  0  0  0  0  0  0  0
    0.0145   -0.1615    0.0371 C   0  0  0  0  0  0  0  0  0  0  0  0
    1.3543   -0.2342    0.6545 C   0  0  0  0  0  0  0  0  0  0  0  0
    2.3477    0.7760    0.0782 C   0  0  0  0  0  0  0  0  0  0  0  0
    1.8902    0.8221    1.3741 O   0  0  0  0  0  0  0  0  0  0  0  0
   -0.3639   -1.3261   -0.8428 C   0  0  0  0  0  0  0  0  0  0  0  0
   -1.1227   -0.9978    0.3767 C   0  0  0  0  0  0  0  0  0  0  0  0
   -2.6318    0.1139   -0.7343 H   0  0  0  0  0  0  0  0  0  0  0  0
   -2.6870    0.3902    1.0941 H   0  0  0  0  0  0  0  0  0  0  0  0
   -0.7823    1.6907   -0.8149 H   0  0  0  0  0  0  0  0  0  0  0  0
   -0.6593    1.6770    0.9815 H   0  0  0  0  0  0  0  0  0  0  0  0
    1.7895   -1.2425    0.7816 H   0  0  0  0  0  0  0  0  0  0  0  0
    3.3660    0.4380   -0.1613 H   0  0  0  0  0  0  0  0  0  0  0  0
    1.9685    1.5830   -0.5691 H   0  0  0  0  0  0  0  0  0  0  0  0
   -0.7659   -1.0113   -1.8253 H   0  0  0  0  0  0  0  0  0  0  0  0
    0.2923   -2.1935   -0.8505 H   0  0  0  0  0  0  0  0  0  0  0  0
   -1.1155   -1.5756    1.2897 H   0  0  0  0  0  0  0  0  0  0  0  0
  1  2  1  0
  2  3  1  0
  3  4  1  0
  4  5  1  0
  5  6  1  0
  3  7  1  0
  7  8  1  0
  8  1  1  0
  8  3  1  0
  6  4  1  0
  1  9  1  0
  1 10  1  0
  2 11  1  0
  2 12  1  0
  4 13  1  0
  5 14  1  0
  5 15  1  0
  7 16  1  0
  7 17  1  0
  8 18  1  0
M  END
