
     RDKit          3D

 14 15  0  0  0  0  0  0  0  0999 V2000
    2.2598   -0.6649   -0.0136 C   0  0  0  0  0  0  0  0  0  0  0  0
    1.8331    0.6383   -0.1538 C   0  0  0  0  0  0  0  0  0  0  0  0
    0.4528    0.6699   -0.2083 C   0  0  0  0  0  0  0  0  0  0  0  0
    0.0920   -0.6739   -0.0935 C   0  0  0  0  0  0  0  0  0  0  0  0
    1.1633   -1.4076    0.0165 O   0  0  0  0  0  0  0  0  0  0  0  0
   -1.3874   -0.6991   -0.1461 C   0  0  0  0  0  0  0  0  0  0  0  0
   -1.7344    0.6966    0.3382 C   0  0  0  0  0  0  0  0  0  0  0  0
   -0.7010    1.4452   -0.3252 O   0  0  0  0  0  0  0  0  0  0  0  0
    3.2562   -1.0733    0.0625 H   0  0  0  0  0  0  0  0  0  0  0  0
    2.5122    1.4743   -0.2083 H   0  0  0  0  0  0  0  0  0  0  0  0
   -1.6767   -0.7416   -1.2114 H   0  0  0  0  0  0  0  0  0  0  0  0
   -1.8242   -1.4927    0.4689 H   0  0  0  0  0  0  0  0  0  0  0  0
   -2.7333    1.0224    0.0517 H   0  0  0  0  0  0  0  0  0  0  0  0
   -1.5124    0.8064    1.4225 H   0  0  0  0  0  0  0  0  0  0  0  0
  1  2  2  0
  2  3  1  0
  3  4  2  0
  4  5  1  0
  4  6  1  0
  6  7  1  0
  7  8  1  0
  5  1  1  0
  8  3  1  0
  1  9  1  0
  2 10  1  0
  6 11  1  0
  6 12  1  0
  7 13  1  0
  7 14  1  0
M  END
