
     RDKit          3D

 20 21  0  0  0  0  0  0  0  0999 V2000
   -2.1675   -0.4537   -0.7134 C   0  0  0  0  0  0  0  0  0  0  0  0
   -1.1218    0.6290   -0.9800 C   0  0  0  0  0  0  0  0  0  0  0  0
   -0.3402    0.6850    0.2884 C   0  0  0  0  0  0  0  0  0  0  0  0
    1.1481    0.7255    0.0920 C   0  0  0  0  0  0  0  0  0  0  0  0
    1.8977   -0.3214   -0.5882 C   0  0  0  0  0  0  0  0  0  0  0  0
    2.0491   -0.1388    0.9188 C   0  0  0  0  0  0  0  0  0  0  0  0
   -0.8142   -0.5197    1.0441 C   0  0  0  0  0  0  0  0  0  0  0  0
   -2.1703   -0.5758    0.6767 O   0  0  0  0  0  0  0  0  0  0  0  0
   -3.1408   -0.0962   -1.0871 H   0  0  0  0  0  0  0  0  0  0  0  0
   -1.8630   -1.4305   -1.1314 H   0  0  0  0  0  0  0  0  0  0  0  0
   -0.5740    0.3417   -1.8674 H   0  0  0  0  0  0  0  0  0  0  0  0
   -1.6202    1.6117   -1.1965 H   0  0  0  0  0  0  0  0  0  0  0  0
   -0.6869    1.5741    0.8582 H   0  0  0  0  0  0  0  0  0  0  0  0
    1.5444    1.7671   -0.0207 H   0  0  0  0  0  0  0  0  0  0  0  0
    2.7823   -0.0298   -1.2287 H   0  0  0  0  0  0  0  0  0  0  0  0
    1.5084   -1.3081   -0.8603 H   0  0  0  0  0  0  0  0  0  0  0  0
    1.6410   -0.9072    1.5944 H   0  0  0  0  0  0  0  0  0  0  0  0
    3.0459    0.2330    1.2384 H   0  0  0  0  0  0  0  0  0  0  0  0
   -0.2871   -1.4420    0.8038 H   0  0  0  0  0  0  0  0  0  0  0  0
   -0.8312   -0.3440    2.1589 H   0  0  0  0  0  0  0  0  0  0  0  0
  1  2  1  0
  2  3  1  0
  3  4  1  0
  4  5  1  0
  5  6  1  0
  3  7  1  0
  7  8  1  0
  8  1  1  0
  6  4  1  0
  1  9  1  0
  1 10  1  0
  2 11  1  0
  2 12  1  0
  3 13  1  0
  4 14  1  0
  5 15  1  0
  5 16  1  0
  6 17  1  0
  6 18  1  0
  7 19  1  0
  7 20  1  0
M  END
