
     RDKit          3D

 18 20  0  0  0  0  0  0  0  0999 V2000
    0.7551    1.3368   -0.0265 C   0  0  0  0  0  0  0  0  0  0  0  0
    1.1910    0.1187    0.8001 C   0  0  0  0  0  0  0  0  0  0  0  0
    0.6013   -1.0735    0.1203 C   0  0  0  0  0  0  0  0  0  0  0  0
   -0.8782   -1.1989    0.3046 C   0  0  0  0  0  0  0  0  0  0  0  0
   -1.4082    0.2255    0.3407 C   0  0  0  0  0  0  0  0  0  0  0  0
   -0.4444    0.7946   -0.7179 C   0  0  0  0  0  0  0  0  0  0  0  0
    0.0805   -0.5548   -1.2097 C   0  0  0  0  0  0  0  0  0  0  0  0
   -0.9537   -1.4538   -1.0854 O   0  0  0  0  0  0  0  0  0  0  0  0
    1.5481    1.5017   -0.7821 H   0  0  0  0  0  0  0  0  0  0  0  0
    0.5807    2.1747    0.6469 H   0  0  0  0  0  0  0  0  0  0  0  0
    0.6787    0.2112    1.8000 H   0  0  0  0  0  0  0  0  0  0  0  0
    2.2612    0.0866    0.9668 H   0  0  0  0  0  0  0  0  0  0  0  0
    1.1464   -1.9984    0.1094 H   0  0  0  0  0  0  0  0  0  0  0  0
   -1.2885   -1.9195    0.9651 H   0  0  0  0  0  0  0  0  0  0  0  0
   -2.4382    0.2069   -0.0171 H   0  0  0  0  0  0  0  0  0  0  0  0
   -1.2405    0.7169    1.2957 H   0  0  0  0  0  0  0  0  0  0  0  0
   -0.9156    1.3914   -1.4603 H   0  0  0  0  0  0  0  0  0  0  0  0
    0.7244   -0.5663   -2.0504 H   0  0  0  0  0  0  0  0  0  0  0  0
  1  2  1  0
  2  3  1  0
  3  4  1  0
  4  5  1  0
  5  6  1  0
  6  7  1  0
  7  8  1  0
  6  1  1  0
  7  3  1  0
  8  4  1  0
  1  9  1  0
  1 10  1  0
  2 11  1  0
  2 12  1  0
  3 13  1  0
  4 14  1  0
  5 15  1  0
  5 16  1  0
  6 17  1  0
  7 18  1  0
M  END
