
     RDKit          3D

 21 22  0  0  0  0  0  0  0  0999 V2000
    1.1710   -0.8933    1.1453 C   0  0  0  0  0  0  0  0  0  0  0  0
   -0.1498   -0.1927    1.2219 C   0  0  0  0  0  0  0  0  0  0  0  0
   -0.7516    0.1128   -0.1176 C   0  0  0  0  0  0  0  0  0  0  0  0
   -2.1793    0.6066   -0.0580 C   0  0  0  0  0  0  0  0  0  0  0  0
   -1.8411   -0.6920   -0.6954 C   0  0  0  0  0  0  0  0  0  0  0  0
    0.1709    0.8261   -1.0498 C   0  0  0  0  0  0  0  0  0  0  0  0
    1.2606    1.3979   -0.4059 O   0  0  0  0  0  0  0  0  0  0  0  0
    2.2510    0.4181   -0.3120 C   0  0  0  0  0  0  0  0  0  0  0  0
    2.2501   -0.0054    1.0303 O   0  0  0  0  0  0  0  0  0  0  0  0
    1.3575   -1.4654    2.0890 H   0  0  0  0  0  0  0  0  0  0  0  0
    1.2374   -1.5852    0.2697 H   0  0  0  0  0  0  0  0  0  0  0  0
   -0.0630    0.6859    1.8803 H   0  0  0  0  0  0  0  0  0  0  0  0
   -0.8607   -0.9088    1.7307 H   0  0  0  0  0  0  0  0  0  0  0  0
   -2.7007    0.6351    0.9325 H   0  0  0  0  0  0  0  0  0  0  0  0
   -2.4553    1.4476   -0.7023 H   0  0  0  0  0  0  0  0  0  0  0  0
   -2.1409   -1.6152   -0.1464 H   0  0  0  0  0  0  0  0  0  0  0  0
   -1.9014   -0.7213   -1.8163 H   0  0  0  0  0  0  0  0  0  0  0  0
    0.5066    0.0751   -1.8193 H   0  0  0  0  0  0  0  0  0  0  0  0
   -0.3856    1.6010   -1.6240 H   0  0  0  0  0  0  0  0  0  0  0  0
    1.9886   -0.4901   -0.9081 H   0  0  0  0  0  0  0  0  0  0  0  0
    3.2355    0.7633   -0.6449 H   0  0  0  0  0  0  0  0  0  0  0  0
  1  2  1  0
  2  3  1  0
  3  4  1  0
  4  5  1  0
  3  6  1  0
  6  7  1  0
  7  8  1  0
  8  9  1  0
  9  1  1  0
  5  3  1  0
  1 10  1  0
  1 11  1  0
  2 12  1  0
  2 13  1  0
  4 14  1  0
  4 15  1  0
  5 16  1  0
  5 17  1  0
  6 18  1  0
  6 19  1  0
  8 20  1  0
  8 21  1  0
M  END
