
     RDKit          3D

 21 23  0  0  0  0  0  0  0  0999 V2000
   -1.5595   -0.4235   -0.3271 C   0  0  0  0  0  0  0  0  0  0  0  0
   -1.2264    1.0131   -0.0614 C   0  0  0  0  0  0  0  0  0  0  0  0
    0.2637    1.2742   -0.0480 C   0  0  0  0  0  0  0  0  0  0  0  0
    0.8015    0.4938    1.1609 C   0  0  0  0  0  0  0  0  0  0  0  0
    0.7341   -0.9099    0.5800 C   0  0  0  0  0  0  0  0  0  0  0  0
   -0.6756   -1.3767    0.3972 C   0  0  0  0  0  0  0  0  0  0  0  0
    1.4189   -0.6819   -0.7661 C   0  0  0  0  0  0  0  0  0  0  0  0
    0.6314   -0.4242   -1.8561 O   0  0  0  0  0  0  0  0  0  0  0  0
    0.9938    0.7183   -1.1995 C   0  0  0  0  0  0  0  0  0  0  0  0
   -1.6550   -0.6510   -1.4278 H   0  0  0  0  0  0  0  0  0  0  0  0
   -2.6077   -0.5828    0.0643 H   0  0  0  0  0  0  0  0  0  0  0  0
   -1.7892    1.6837   -0.7098 H   0  0  0  0  0  0  0  0  0  0  0  0
   -1.5738    1.2312    0.9900 H   0  0  0  0  0  0  0  0  0  0  0  0
    0.4488    2.3439    0.0389 H   0  0  0  0  0  0  0  0  0  0  0  0
    0.1492    0.6367    2.0218 H   0  0  0  0  0  0  0  0  0  0  0  0
    1.8652    0.7109    1.3405 H   0  0  0  0  0  0  0  0  0  0  0  0
    1.2663   -1.6443    1.1944 H   0  0  0  0  0  0  0  0  0  0  0  0
   -1.0943   -1.5881    1.3990 H   0  0  0  0  0  0  0  0  0  0  0  0
   -0.6318   -2.3243   -0.1955 H   0  0  0  0  0  0  0  0  0  0  0  0
    2.5025   -0.8424   -0.8441 H   0  0  0  0  0  0  0  0  0  0  0  0
    1.7380    1.3433   -1.7514 H   0  0  0  0  0  0  0  0  0  0  0  0
  1  2  1  0
  2  3  1  0
  3  4  1  0
  4  5  1  0
  5  6  1  0
  5  7  1  0
  7  8  1  0
  8  9  1  0
  6  1  1  0
  9  7  1  0
  9  3  1  0
  1 10  1  0
  1 11  1  0
  2 12  1  0
  2 13  1  0
  3 14  1  0
  4 15  1  0
  4 16  1  0
  5 17  1  0
  6 18  1  0
  6 19  1  0
  7 20  1  0
  9 21  1  0
M  END
