
     RDKit          2D

 19 21  0  0  0  0  0  0  0  0999 V2000
   -1.4958    2.1766    0.0000 C   0  0  0  0  0  0  0  0  0  0  0  0
   -0.0692    2.6401    0.0000 C   0  0  0  0  0  0  0  0  0  0  0  0
    0.3943    1.2135    0.0000 C   0  0  0  0  0  0  0  0  0  0  0  0
    1.2760    0.0000    0.0000 C   0  0  0  0  0  0  0  0  0  0  0  0
    0.3943   -1.2135    0.0000 O   0  0  0  0  0  0  0  0  0  0  0  0
   -1.0323   -0.7500    0.0000 C   0  0  0  0  0  0  0  0  0  0  0  0
   -0.2686    0.3011    0.0000 O   0  0  0  0  0  0  0  0  0  0  0  0
   -0.3694    0.1624    0.0000 C   0  0  0  0  0  0  0  0  0  0  0  0
   -1.0323    0.7500    0.0000 C   0  0  0  0  0  0  0  0  0  0  0  0
   -2.9224    1.7131    0.0000 H   0  0  0  0  0  0  0  0  0  0  0  0
   -1.9593    3.6032    0.0000 H   0  0  0  0  0  0  0  0  0  0  0  0
   -0.5328    4.0667    0.0000 H   0  0  0  0  0  0  0  0  0  0  0  0
    1.3574    3.1036    0.0000 H   0  0  0  0  0  0  0  0  0  0  0  0
    2.3907    1.0037    0.0000 H   0  0  0  0  0  0  0  0  0  0  0  0
    2.3907   -1.0037    0.0000 H   0  0  0  0  0  0  0  0  0  0  0  0
   -2.2458   -1.6317    0.0000 H   0  0  0  0  0  0  0  0  0  0  0  0
   -2.3313    2.4271    0.0000 H   0  0  0  0  0  0  0  0  0  0  0  0
   -0.7719    3.1543    0.0000 H   0  0  0  0  0  0  0  0  0  0  0  0
   -2.5266    0.8808    0.0000 H   0  0  0  0  0  0  0  0  0  0  0  0
  1  2  1  0
  2  3  1  0
  3  4  1  0
  4  5  1  0
  5  6  1  0
  6  7  1  0
  7  8  1  0
  6  9  1  0
  9  1  1  0
  8  3  1  0
  9  3  1  0
  1 10  1  0
  1 11  1  0
  2 12  1  0
  2 13  1  0
  4 14  1  0
  4 15  1  0
  6 16  1  0
  8 17  1  0
  8 18  1  0
  9 19  1  0
M  END
