
     RDKit          3D

 21 23  0  0  0  0  0  0  0  0999 V2000
    1.9105    1.1331   -0.6107 C   0  0  0  0  0  0  0  0  0  0  0  0
    1.6812    0.0932    0.4925 C   0  0  0  0  0  0  0  0  0  0  0  0
    0.5836   -0.7178   -0.0854 C   0  0  0  0  0  0  0  0  0  0  0  0
   -0.4728   -1.1927    0.8329 C   0  0  0  0  0  0  0  0  0  0  0  0
   -1.6981   -1.1812   -0.0996 C   0  0  0  0  0  0  0  0  0  0  0  0
   -1.4569    0.0365   -1.0091 C   0  0  0  0  0  0  0  0  0  0  0  0
   -1.1186    1.2588   -0.1974 C   0  0  0  0  0  0  0  0  0  0  0  0
   -0.1156    0.3825   -0.8500 C   0  0  0  0  0  0  0  0  0  0  0  0
    0.8593    0.9503   -1.5388 O   0  0  0  0  0  0  0  0  0  0  0  0
    2.8397    0.8340   -1.1500 H   0  0  0  0  0  0  0  0  0  0  0  0
    1.9613    2.1486   -0.2265 H   0  0  0  0  0  0  0  0  0  0  0  0
    1.2792    0.6027    1.4147 H   0  0  0  0  0  0  0  0  0  0  0  0
    2.6017   -0.4698    0.7190 H   0  0  0  0  0  0  0  0  0  0  0  0
    0.9166   -1.5198   -0.7710 H   0  0  0  0  0  0  0  0  0  0  0  0
   -0.2898   -2.2691    1.0571 H   0  0  0  0  0  0  0  0  0  0  0  0
   -0.6186   -0.5722    1.7122 H   0  0  0  0  0  0  0  0  0  0  0  0
   -1.7890   -2.1055   -0.6684 H   0  0  0  0  0  0  0  0  0  0  0  0
   -2.5627   -0.9723    0.5754 H   0  0  0  0  0  0  0  0  0  0  0  0
   -2.1023    0.0941   -1.8794 H   0  0  0  0  0  0  0  0  0  0  0  0
   -1.3074    2.2235   -0.7376 H   0  0  0  0  0  0  0  0  0  0  0  0
   -1.1013    1.2429    0.8917 H   0  0  0  0  0  0  0  0  0  0  0  0
  1  2  1  0
  2  3  1  0
  3  4  1  0
  4  5  1  0
  5  6  1  0
  6  7  1  0
  7  8  1  0
  8  9  1  0
  9  1  1  0
  8  3  1  0
  8  6  1  0
  1 10  1  0
  1 11  1  0
  2 12  1  0
  2 13  1  0
  3 14  1  0
  4 15  1  0
  4 16  1  0
  5 17  1  0
  5 18  1  0
  6 19  1  0
  7 20  1  0
  7 21  1  0
M  END
