
     RDKit          3D

 19 21  0  0  0  0  0  0  0  0999 V2000
    2.2321    0.0152   -0.3708 C   0  0  0  0  0  0  0  0  0  0  0  0
    1.5035    0.5883    0.8226 C   0  0  0  0  0  0  0  0  0  0  0  0
    0.3119   -0.2081    0.4392 C   0  0  0  0  0  0  0  0  0  0  0  0
    1.1684   -1.0635   -0.4498 C   0  0  0  0  0  0  0  0  0  0  0  0
   -0.5462   -0.7509    1.3523 O   0  0  0  0  0  0  0  0  0  0  0  0
   -0.9806    0.0084    0.3035 C   0  0  0  0  0  0  0  0  0  0  0  0
   -1.9688    1.0760    0.3909 C   0  0  0  0  0  0  0  0  0  0  0  0
   -2.9677    0.1589   -0.0132 O   0  0  0  0  0  0  0  0  0  0  0  0
   -1.9483   -0.5264   -0.7016 C   0  0  0  0  0  0  0  0  0  0  0  0
    2.2479    0.7262   -1.2172 H   0  0  0  0  0  0  0  0  0  0  0  0
    3.2056   -0.4470   -0.1718 H   0  0  0  0  0  0  0  0  0  0  0  0
    1.9838    0.2037    1.7621 H   0  0  0  0  0  0  0  0  0  0  0  0
    1.3763    1.6853    0.8259 H   0  0  0  0  0  0  0  0  0  0  0  0
    1.4465   -2.0493   -0.0904 H   0  0  0  0  0  0  0  0  0  0  0  0
    0.7429   -1.0608   -1.4831 H   0  0  0  0  0  0  0  0  0  0  0  0
   -2.1703    1.5541    1.3574 H   0  0  0  0  0  0  0  0  0  0  0  0
   -1.8652    1.8364   -0.4288 H   0  0  0  0  0  0  0  0  0  0  0  0
   -2.0072   -1.6318   -0.6227 H   0  0  0  0  0  0  0  0  0  0  0  0
   -1.7646   -0.1146   -1.7047 H   0  0  0  0  0  0  0  0  0  0  0  0
  1  2  1  0
  2  3  1  0
  3  4  1  0
  3  5  1  0
  5  6  1  0
  6  7  1  0
  7  8  1  0
  8  9  1  0
  4  1  1  0
  9  6  1  0
  6  3  1  0
  1 10  1  0
  1 11  1  0
  2 12  1  0
  2 13  1  0
  4 14  1  0
  4 15  1  0
  7 16  1  0
  7 17  1  0
  9 18  1  0
  9 19  1  0
M  END
