
     RDKit          3D

 23 24  0  0  0  0  0  0  0  0999 V2000
   -1.4684   -0.6773    0.3421 C   0  0  0  0  0  0  0  0  0  0  0  0
   -1.7376    0.7802    0.2618 C   0  0  0  0  0  0  0  0  0  0  0  0
   -0.9121    1.5668   -0.6663 C   0  0  0  0  0  0  0  0  0  0  0  0
    0.3887    1.1823   -0.8164 O   0  0  0  0  0  0  0  0  0  0  0  0
    1.0666    0.9343    0.3469 C   0  0  0  0  0  0  0  0  0  0  0  0
    2.4589    0.3950    0.1750 C   0  0  0  0  0  0  0  0  0  0  0  0
    1.2767   -0.4576    0.7053 C   0  0  0  0  0  0  0  0  0  0  0  0
    0.7984   -1.4939   -0.2419 C   0  0  0  0  0  0  0  0  0  0  0  0
   -0.6217   -1.2490   -0.7380 C   0  0  0  0  0  0  0  0  0  0  0  0
   -0.9839   -0.9661    1.3225 H   0  0  0  0  0  0  0  0  0  0  0  0
   -2.4712   -1.1978    0.3877 H   0  0  0  0  0  0  0  0  0  0  0  0
   -2.8241    1.0014    0.0388 H   0  0  0  0  0  0  0  0  0  0  0  0
   -1.5974    1.2032    1.3012 H   0  0  0  0  0  0  0  0  0  0  0  0
   -1.3834    1.6069   -1.6671 H   0  0  0  0  0  0  0  0  0  0  0  0
   -0.9001    2.6379   -0.3057 H   0  0  0  0  0  0  0  0  0  0  0  0
    0.8699    1.6738    1.1594 H   0  0  0  0  0  0  0  0  0  0  0  0
    3.2376    0.6762    0.8798 H   0  0  0  0  0  0  0  0  0  0  0  0
    2.8171    0.1775   -0.8435 H   0  0  0  0  0  0  0  0  0  0  0  0
    1.3437   -0.6854    1.8031 H   0  0  0  0  0  0  0  0  0  0  0  0
    1.4964   -1.6281   -1.0934 H   0  0  0  0  0  0  0  0  0  0  0  0
    0.8248   -2.4815    0.3068 H   0  0  0  0  0  0  0  0  0  0  0  0
   -0.6519   -0.7172   -1.6952 H   0  0  0  0  0  0  0  0  0  0  0  0
   -1.0270   -2.2815   -0.9628 H   0  0  0  0  0  0  0  0  0  0  0  0
  1  2  1  0
  2  3  1  0
  3  4  1  0
  4  5  1  0
  5  6  1  0
  6  7  1  0
  7  8  1  0
  8  9  1  0
  9  1  1  0
  7  5  1  0
  1 10  1  0
  1 11  1  0
  2 12  1  0
  2 13  1  0
  3 14  1  0
  3 15  1  0
  5 16  1  0
  6 17  1  0
  6 18  1  0
  7 19  1  0
  8 20  1  0
  8 21  1  0
  9 22  1  0
  9 23  1  0
M  END
