
     RDKit          3D

 19 21  0  0  0  0  0  0  0  0999 V2000
   -1.8365    0.6227   -0.1475 C   0  0  0  0  0  0  0  0  0  0  0  0
   -1.3957   -0.8067   -0.2105 C   0  0  0  0  0  0  0  0  0  0  0  0
    0.0411   -0.9574    0.0735 C   0  0  0  0  0  0  0  0  0  0  0  0
    0.6366   -2.1666    0.3057 O   0  0  0  0  0  0  0  0  0  0  0  0
    1.0711   -1.4321   -0.7678 C   0  0  0  0  0  0  0  0  0  0  0  0
    1.9535   -0.2411   -0.4471 C   0  0  0  0  0  0  0  0  0  0  0  0
    0.7940    0.2778    0.4088 C   0  0  0  0  0  0  0  0  0  0  0  0
    0.1850    1.5455   -0.0506 C   0  0  0  0  0  0  0  0  0  0  0  0
   -0.9085    1.3620   -0.9187 O   0  0  0  0  0  0  0  0  0  0  0  0
   -1.7661    0.9299    0.9379 H   0  0  0  0  0  0  0  0  0  0  0  0
   -2.8655    0.7989   -0.4635 H   0  0  0  0  0  0  0  0  0  0  0  0
   -1.6355   -1.1961   -1.2400 H   0  0  0  0  0  0  0  0  0  0  0  0
   -1.9804   -1.4189    0.4939 H   0  0  0  0  0  0  0  0  0  0  0  0
    0.9357   -1.7665   -1.7937 H   0  0  0  0  0  0  0  0  0  0  0  0
    2.8340   -0.5738    0.1468 H   0  0  0  0  0  0  0  0  0  0  0  0
    2.1896    0.3573   -1.3243 H   0  0  0  0  0  0  0  0  0  0  0  0
    1.1188    0.3261    1.4722 H   0  0  0  0  0  0  0  0  0  0  0  0
   -0.2727    2.0494    0.8522 H   0  0  0  0  0  0  0  0  0  0  0  0
    0.9015    2.2894   -0.4530 H   0  0  0  0  0  0  0  0  0  0  0  0
  1  2  1  0
  2  3  1  0
  3  4  1  0
  4  5  1  0
  5  6  1  0
  6  7  1  0
  7  8  1  0
  8  9  1  0
  9  1  1  0
  5  3  1  0
  7  3  1  0
  1 10  1  0
  1 11  1  0
  2 12  1  0
  2 13  1  0
  5 14  1  0
  6 15  1  0
  6 16  1  0
  7 17  1  0
  8 18  1  0
  8 19  1  0
M  END
