
     RDKit          3D

 19 21  0  0  0  0  0  0  0  0999 V2000
    2.3434   -0.1343    0.0965 C   0  0  0  0  0  0  0  0  0  0  0  0
    1.3241    0.6226    0.9198 C   0  0  0  0  0  0  0  0  0  0  0  0
    0.0709    0.4397    0.1323 C   0  0  0  0  0  0  0  0  0  0  0  0
   -1.0103    1.2650    0.2658 O   0  0  0  0  0  0  0  0  0  0  0  0
   -2.1042    0.4063    0.5147 C   0  0  0  0  0  0  0  0  0  0  0  0
   -1.8773   -0.6640   -0.5605 C   0  0  0  0  0  0  0  0  0  0  0  0
   -0.3593   -0.8487   -0.4230 C   0  0  0  0  0  0  0  0  0  0  0  0
    0.5343    0.0492   -1.2110 C   0  0  0  0  0  0  0  0  0  0  0  0
    1.8687   -0.2452   -1.1777 O   0  0  0  0  0  0  0  0  0  0  0  0
    2.5206   -1.1064    0.6099 H   0  0  0  0  0  0  0  0  0  0  0  0
    3.2941    0.4573    0.0554 H   0  0  0  0  0  0  0  0  0  0  0  0
    1.5525    1.7079    0.9891 H   0  0  0  0  0  0  0  0  0  0  0  0
    1.2669    0.2511    1.9603 H   0  0  0  0  0  0  0  0  0  0  0  0
   -3.0647    0.9062    0.4109 H   0  0  0  0  0  0  0  0  0  0  0  0
   -1.9891   -0.0868    1.5068 H   0  0  0  0  0  0  0  0  0  0  0  0
   -2.1402   -0.2055   -1.5317 H   0  0  0  0  0  0  0  0  0  0  0  0
   -2.4113   -1.5917   -0.3393 H   0  0  0  0  0  0  0  0  0  0  0  0
    0.0288   -1.8196   -0.1201 H   0  0  0  0  0  0  0  0  0  0  0  0
    0.1521    0.5970   -2.0981 H   0  0  0  0  0  0  0  0  0  0  0  0
  1  2  1  0
  2  3  1  0
  3  4  1  0
  4  5  1  0
  5  6  1  0
  6  7  1  0
  7  8  1  0
  8  9  1  0
  9  1  1  0
  7  3  1  0
  8  3  1  0
  1 10  1  0
  1 11  1  0
  2 12  1  0
  2 13  1  0
  5 14  1  0
  5 15  1  0
  6 16  1  0
  6 17  1  0
  7 18  1  0
  8 19  1  0
M  END
