
     RDKit          3D

 21 23  0  0  0  0  0  0  0  0999 V2000
    2.9913   -0.3801    1.0926 C   0  0  0  0  0  0  0  0  0  0  0  0
    3.0038    1.0780    0.6056 C   0  0  0  0  0  0  0  0  0  0  0  0
    1.9552    0.1536    0.1509 C   0  0  0  0  0  0  0  0  0  0  0  0
    0.6436    0.2384    0.4972 O   0  0  0  0  0  0  0  0  0  0  0  0
   -0.2532   -0.1558   -0.5219 C   0  0  0  0  0  0  0  0  0  0  0  0
   -1.3830   -0.9024   -0.1203 C   0  0  0  0  0  0  0  0  0  0  0  0
   -2.7239   -0.3766    0.4175 C   0  0  0  0  0  0  0  0  0  0  0  0
   -2.8421   -0.0129   -1.0812 C   0  0  0  0  0  0  0  0  0  0  0  0
   -1.4529    0.5504   -0.7608 C   0  0  0  0  0  0  0  0  0  0  0  0
    3.8427   -0.9988    0.6865 H   0  0  0  0  0  0  0  0  0  0  0  0
    2.7441   -0.5702    2.1536 H   0  0  0  0  0  0  0  0  0  0  0  0
    3.8228    1.3729   -0.0933 H   0  0  0  0  0  0  0  0  0  0  0  0
    2.8684    1.8023    1.4218 H   0  0  0  0  0  0  0  0  0  0  0  0
    2.0984   -0.2228   -0.9065 H   0  0  0  0  0  0  0  0  0  0  0  0
    0.3444   -0.4667   -1.4308 H   0  0  0  0  0  0  0  0  0  0  0  0
   -1.6751   -1.7329   -0.8413 H   0  0  0  0  0  0  0  0  0  0  0  0
   -3.3966   -1.1687    0.7420 H   0  0  0  0  0  0  0  0  0  0  0  0
   -2.6194    0.5037    1.0487 H   0  0  0  0  0  0  0  0  0  0  0  0
   -3.5785    0.7610   -1.2964 H   0  0  0  0  0  0  0  0  0  0  0  0
   -2.7453   -0.8461   -1.7659 H   0  0  0  0  0  0  0  0  0  0  0  0
   -1.6448    1.3736    0.0020 H   0  0  0  0  0  0  0  0  0  0  0  0
  1  2  1  0
  2  3  1  0
  3  4  1  0
  4  5  1  0
  5  6  1  0
  6  7  1  0
  7  8  1  0
  8  9  1  0
  3  1  1  0
  9  5  1  0
  9  6  1  0
  1 10  1  0
  1 11  1  0
  2 12  1  0
  2 13  1  0
  3 14  1  0
  5 15  1  0
  6 16  1  0
  7 17  1  0
  7 18  1  0
  8 19  1  0
  8 20  1  0
  9 21  1  0
M  END
