
     RDKit          3D

 21 22  0  0  0  0  0  0  0  0999 V2000
   -1.2594   -0.7357    0.4735 C   0  0  0  0  0  0  0  0  0  0  0  0
   -1.6409    0.5179   -0.2732 C   0  0  0  0  0  0  0  0  0  0  0  0
   -0.4778    1.4286   -0.5347 C   0  0  0  0  0  0  0  0  0  0  0  0
    0.6207    1.3360    0.4446 C   0  0  0  0  0  0  0  0  0  0  0  0
    1.9171    1.7211   -0.1753 O   0  0  0  0  0  0  0  0  0  0  0  0
    1.6581    0.4138    0.3147 C   0  0  0  0  0  0  0  0  0  0  0  0
    1.5970   -0.6826   -0.6718 C   0  0  0  0  0  0  0  0  0  0  0  0
    0.3841   -0.8970   -1.2666 O   0  0  0  0  0  0  0  0  0  0  0  0
   -0.4139   -1.6560   -0.4010 C   0  0  0  0  0  0  0  0  0  0  0  0
   -2.2054   -1.2821    0.6730 H   0  0  0  0  0  0  0  0  0  0  0  0
   -0.7853   -0.5446    1.4416 H   0  0  0  0  0  0  0  0  0  0  0  0
   -2.4452    1.0111    0.3214 H   0  0  0  0  0  0  0  0  0  0  0  0
   -2.0670    0.2123   -1.2459 H   0  0  0  0  0  0  0  0  0  0  0  0
   -0.9073    2.4744   -0.4719 H   0  0  0  0  0  0  0  0  0  0  0  0
   -0.1457    1.3529   -1.6119 H   0  0  0  0  0  0  0  0  0  0  0  0
    0.5074    1.9320    1.3748 H   0  0  0  0  0  0  0  0  0  0  0  0
    2.2920    0.1977    1.2131 H   0  0  0  0  0  0  0  0  0  0  0  0
    1.9115   -1.6615   -0.2066 H   0  0  0  0  0  0  0  0  0  0  0  0
    2.3486   -0.5336   -1.5014 H   0  0  0  0  0  0  0  0  0  0  0  0
    0.1882   -2.3423    0.2071 H   0  0  0  0  0  0  0  0  0  0  0  0
   -1.0768   -2.2624   -1.0604 H   0  0  0  0  0  0  0  0  0  0  0  0
  1  2  1  0
  2  3  1  0
  3  4  1  0
  4  5  1  0
  5  6  1  0
  6  7  1  0
  7  8  1  0
  8  9  1  0
  9  1  1  0
  6  4  1  0
  1 10  1  0
  1 11  1  0
  2 12  1  0
  2 13  1  0
  3 14  1  0
  3 15  1  0
  4 16  1  0
  6 17  1  0
  7 18  1  0
  7 19  1  0
  9 20  1  0
  9 21  1  0
M  END
