
     RDKit          3D

 19 20  0  0  0  0  0  0  0  0999 V2000
   -1.4264   -1.1852   -0.2744 C   0  0  0  0  0  0  0  0  0  0  0  0
   -1.5405    0.3210   -0.2789 C   0  0  0  0  0  0  0  0  0  0  0  0
   -0.4382    0.8476    0.6152 C   0  0  0  0  0  0  0  0  0  0  0  0
    0.6307    1.5726   -0.1305 C   0  0  0  0  0  0  0  0  0  0  0  0
    1.4738    0.7889   -0.8588 O   0  0  0  0  0  0  0  0  0  0  0  0
    1.8853   -0.3696   -0.2593 C   0  0  0  0  0  0  0  0  0  0  0  0
    0.7137   -1.0758    0.4105 C   0  0  0  0  0  0  0  0  0  0  0  0
   -0.1231   -1.5105   -0.6059 O   0  0  0  0  0  0  0  0  0  0  0  0
    0.0857   -0.2381    1.3166 O   0  0  0  0  0  0  0  0  0  0  0  0
   -1.6263   -1.5165    0.7761 H   0  0  0  0  0  0  0  0  0  0  0  0
   -2.0999   -1.6833   -0.9757 H   0  0  0  0  0  0  0  0  0  0  0  0
   -1.5013    0.7613   -1.2794 H   0  0  0  0  0  0  0  0  0  0  0  0
   -2.5562    0.5568    0.1314 H   0  0  0  0  0  0  0  0  0  0  0  0
   -0.9081    1.5528    1.3209 H   0  0  0  0  0  0  0  0  0  0  0  0
    1.2138    2.1779    0.5964 H   0  0  0  0  0  0  0  0  0  0  0  0
    0.1570    2.3108   -0.8204 H   0  0  0  0  0  0  0  0  0  0  0  0
    2.2391   -1.0842   -1.0563 H   0  0  0  0  0  0  0  0  0  0  0  0
    2.7275   -0.2649    0.4378 H   0  0  0  0  0  0  0  0  0  0  0  0
    1.0933   -1.9616    0.9345 H   0  0  0  0  0  0  0  0  0  0  0  0
  1  2  1  0
  2  3  1  0
  3  4  1  0
  4  5  1  0
  5  6  1  0
  6  7  1  0
  7  8  1  0
  7  9  1  0
  8  1  1  0
  9  3  1  0
  1 10  1  0
  1 11  1  0
  2 12  1  0
  2 13  1  0
  3 14  1  0
  4 15  1  0
  4 16  1  0
  6 17  1  0
  6 18  1  0
  7 19  1  0
M  END
