
     RDKit          3D

 16 18  0  0  0  0  0  0  0  0999 V2000
    1.4562    0.3320    0.0977 C   0  0  0  0  0  0  0  0  0  0  0  0
    0.7649   -1.0129    0.2412 C   0  0  0  0  0  0  0  0  0  0  0  0
   -0.6060   -1.0140   -0.3165 C   0  0  0  0  0  0  0  0  0  0  0  0
   -1.1094    0.1698   -0.9600 C   0  0  0  0  0  0  0  0  0  0  0  0
   -0.3295    1.2766   -1.0439 O   0  0  0  0  0  0  0  0  0  0  0  0
    0.3195    1.3604    0.2008 C   0  0  0  0  0  0  0  0  0  0  0  0
   -0.5955    0.9054    1.1461 O   0  0  0  0  0  0  0  0  0  0  0  0
   -1.4178    0.0163    0.4673 C   0  0  0  0  0  0  0  0  0  0  0  0
    2.2238    0.5123    0.8430 H   0  0  0  0  0  0  0  0  0  0  0  0
    1.8528    0.3595   -0.9537 H   0  0  0  0  0  0  0  0  0  0  0  0
    0.6700   -1.1755    1.3562 H   0  0  0  0  0  0  0  0  0  0  0  0
    1.4106   -1.8528   -0.1041 H   0  0  0  0  0  0  0  0  0  0  0  0
   -1.0717   -1.9833   -0.5427 H   0  0  0  0  0  0  0  0  0  0  0  0
   -1.9131    0.0634   -1.7140 H   0  0  0  0  0  0  0  0  0  0  0  0
    0.7069    2.3554    0.4116 H   0  0  0  0  0  0  0  0  0  0  0  0
   -2.3619   -0.3126    0.8707 H   0  0  0  0  0  0  0  0  0  0  0  0
  1  2  1  0
  2  3  1  0
  3  4  1  0
  4  5  1  0
  5  6  1  0
  6  7  1  0
  7  8  1  0
  6  1  1  0
  8  3  1  0
  8  4  1  0
  1  9  1  0
  1 10  1  0
  2 11  1  0
  2 12  1  0
  3 13  1  0
  4 14  1  0
  6 15  1  0
  8 16  1  0
M  END
