
     RDKit          3D

 22 22  0  0  0  0  0  0  0  0999 V2000
    0.1052   -1.2454   -0.8874 C   0  0  0  0  0  0  0  0  0  0  0  0
   -0.9485   -1.3843    0.1721 C   0  0  0  0  0  0  0  0  0  0  0  0
   -1.9002   -0.2434    0.2472 C   0  0  0  0  0  0  0  0  0  0  0  0
   -1.2114    1.1076    0.0427 C   0  0  0  0  0  0  0  0  0  0  0  0
   -0.3604    1.3556    1.0644 O   0  0  0  0  0  0  0  0  0  0  0  0
    0.9538    1.4682    0.8112 C   0  0  0  0  0  0  0  0  0  0  0  0
    1.5079    0.6943   -0.3409 C   0  0  0  0  0  0  0  0  0  0  0  0
    1.3748   -0.7936   -0.1956 C   0  0  0  0  0  0  0  0  0  0  0  0
    0.3433   -2.2358   -1.3743 H   0  0  0  0  0  0  0  0  0  0  0  0
   -0.1760   -0.5752   -1.7164 H   0  0  0  0  0  0  0  0  0  0  0  0
   -0.4633   -1.5834    1.1699 H   0  0  0  0  0  0  0  0  0  0  0  0
   -1.5399   -2.3097   -0.0397 H   0  0  0  0  0  0  0  0  0  0  0  0
   -2.7664   -0.3689   -0.4107 H   0  0  0  0  0  0  0  0  0  0  0  0
   -2.2947   -0.2043    1.3009 H   0  0  0  0  0  0  0  0  0  0  0  0
   -0.8179    1.2157   -0.9708 H   0  0  0  0  0  0  0  0  0  0  0  0
   -2.0534    1.8615    0.1049 H   0  0  0  0  0  0  0  0  0  0  0  0
    1.3059    2.5321    0.6763 H   0  0  0  0  0  0  0  0  0  0  0  0
    1.5161    1.1221    1.7294 H   0  0  0  0  0  0  0  0  0  0  0  0
    2.6258    0.8787   -0.3202 H   0  0  0  0  0  0  0  0  0  0  0  0
    1.1856    1.0751   -1.3279 H   0  0  0  0  0  0  0  0  0  0  0  0
    1.3480   -1.0303    0.8779 H   0  0  0  0  0  0  0  0  0  0  0  0
    2.2657   -1.3367   -0.6129 H   0  0  0  0  0  0  0  0  0  0  0  0
  1  2  1  0
  2  3  1  0
  3  4  1  0
  4  5  1  0
  5  6  1  0
  6  7  1  0
  7  8  1  0
  8  1  1  0
  1  9  1  0
  1 10  1  0
  2 11  1  0
  2 12  1  0
  3 13  1  0
  3 14  1  0
  4 15  1  0
  4 16  1  0
  6 17  1  0
  6 18  1  0
  7 19  1  0
  7 20  1  0
  8 21  1  0
  8 22  1  0
M  END
