
     RDKit          3D

 19 20  0  0  0  0  0  0  0  0999 V2000
    2.0885    0.0508   -0.3397 C   0  0  0  0  0  0  0  0  0  0  0  0
    1.1583   -1.0988   -0.1285 C   0  0  0  0  0  0  0  0  0  0  0  0
   -0.2197   -0.6243   -0.0037 C   0  0  0  0  0  0  0  0  0  0  0  0
   -0.5251    0.6547    0.1192 C   0  0  0  0  0  0  0  0  0  0  0  0
    0.5806    1.6375    0.1296 C   0  0  0  0  0  0  0  0  0  0  0  0
    1.4973    1.1815   -0.8473 O   0  0  0  0  0  0  0  0  0  0  0  0
   -2.0070    0.7145    0.2171 C   0  0  0  0  0  0  0  0  0  0  0  0
   -2.2783   -0.4982    0.8495 O   0  0  0  0  0  0  0  0  0  0  0  0
   -1.5347   -1.3665    0.0185 C   0  0  0  0  0  0  0  0  0  0  0  0
    2.4969    0.3278    0.6730 H   0  0  0  0  0  0  0  0  0  0  0  0
    2.9344   -0.2629   -0.9948 H   0  0  0  0  0  0  0  0  0  0  0  0
    1.2077   -1.8526   -0.9634 H   0  0  0  0  0  0  0  0  0  0  0  0
    1.4106   -1.6889    0.7889 H   0  0  0  0  0  0  0  0  0  0  0  0
    1.1377    1.6137    1.0979 H   0  0  0  0  0  0  0  0  0  0  0  0
    0.2541    2.6681   -0.0796 H   0  0  0  0  0  0  0  0  0  0  0  0
   -2.4657    0.6641   -0.7917 H   0  0  0  0  0  0  0  0  0  0  0  0
   -2.3420    1.5905    0.8033 H   0  0  0  0  0  0  0  0  0  0  0  0
   -1.4109   -2.3553    0.4511 H   0  0  0  0  0  0  0  0  0  0  0  0
   -1.9826   -1.3557   -0.9993 H   0  0  0  0  0  0  0  0  0  0  0  0
  1  2  1  0
  2  3  1  0
  3  4  2  0
  4  5  1  0
  5  6  1  0
  4  7  1  0
  7  8  1  0
  8  9  1  0
  6  1  1  0
  9  3  1  0
  1 10  1  0
  1 11  1  0
  2 12  1  0
  2 13  1  0
  5 14  1  0
  5 15  1  0
  7 16  1  0
  7 17  1  0
  9 18  1  0
  9 19  1  0
M  END
