
     RDKit          3D

 19 21  0  0  0  0  0  0  0  0999 V2000
    1.6767    0.0223    0.6530 C   0  0  0  0  0  0  0  0  0  0  0  0
    0.8801   -1.2092    0.2237 C   0  0  0  0  0  0  0  0  0  0  0  0
    0.1349   -0.6836   -0.9765 C   0  0  0  0  0  0  0  0  0  0  0  0
    0.9498    0.3779   -1.4401 O   0  0  0  0  0  0  0  0  0  0  0  0
    1.0663    1.0873   -0.2182 C   0  0  0  0  0  0  0  0  0  0  0  0
   -0.3914    1.3129    0.1285 C   0  0  0  0  0  0  0  0  0  0  0  0
   -1.0441    0.0932   -0.4687 C   0  0  0  0  0  0  0  0  0  0  0  0
   -2.2093   -0.4437    0.1352 C   0  0  0  0  0  0  0  0  0  0  0  0
   -2.2213    0.1572   -1.1372 O   0  0  0  0  0  0  0  0  0  0  0  0
    2.7297   -0.1239    0.2709 H   0  0  0  0  0  0  0  0  0  0  0  0
    1.6255    0.2161    1.7175 H   0  0  0  0  0  0  0  0  0  0  0  0
    0.1144   -1.4292    1.0206 H   0  0  0  0  0  0  0  0  0  0  0  0
    1.5041   -2.0749    0.0276 H   0  0  0  0  0  0  0  0  0  0  0  0
   -0.0815   -1.4164   -1.7391 H   0  0  0  0  0  0  0  0  0  0  0  0
    1.6488    1.9945   -0.3120 H   0  0  0  0  0  0  0  0  0  0  0  0
   -0.4788    1.1953    1.2468 H   0  0  0  0  0  0  0  0  0  0  0  0
   -0.7767    2.2596   -0.2386 H   0  0  0  0  0  0  0  0  0  0  0  0
   -2.7716    0.1893    0.8815 H   0  0  0  0  0  0  0  0  0  0  0  0
   -2.3556   -1.5244    0.2251 H   0  0  0  0  0  0  0  0  0  0  0  0
  1  2  1  0
  2  3  1  0
  3  4  1  0
  4  5  1  0
  5  6  1  0
  6  7  1  0
  7  8  1  0
  8  9  1  0
  5  1  1  0
  9  7  1  0
  7  3  1  0
  1 10  1  0
  1 11  1  0
  2 12  1  0
  2 13  1  0
  3 14  1  0
  5 15  1  0
  6 16  1  0
  6 17  1  0
  8 18  1  0
  8 19  1  0
M  END
