
     RDKit          2D

 19 21  0  0  0  0  0  0  0  0999 V2000
    0.2003   -3.3500    0.0000 C   0  0  0  0  0  0  0  0  0  0  0  0
    1.6946   -3.4808    0.0000 C   0  0  0  0  0  0  0  0  0  0  0  0
    1.0607   -2.1213    0.0000 C   0  0  0  0  0  0  0  0  0  0  0  0
   -0.0000   -1.0607    0.0000 C   0  0  0  0  0  0  0  0  0  0  0  0
    1.0607    0.0000    0.0000 O   0  0  0  0  0  0  0  0  0  0  0  0
    0.0000    1.0607    0.0000 C   0  0  0  0  0  0  0  0  0  0  0  0
   -1.0607    2.1213    0.0000 C   0  0  0  0  0  0  0  0  0  0  0  0
   -2.1213    1.0607    0.0000 O   0  0  0  0  0  0  0  0  0  0  0  0
   -1.0607    0.0000    0.0000 C   0  0  0  0  0  0  0  0  0  0  0  0
   -0.1879   -4.7989    0.0000 H   0  0  0  0  0  0  0  0  0  0  0  0
   -1.0836   -2.9329    0.0000 H   0  0  0  0  0  0  0  0  0  0  0  0
    3.1435   -3.0926    0.0000 H   0  0  0  0  0  0  0  0  0  0  0  0
    1.8253   -4.9751    0.0000 H   0  0  0  0  0  0  0  0  0  0  0  0
    2.2894   -1.2610    0.0000 H   0  0  0  0  0  0  0  0  0  0  0  0
   -1.0638   -1.8918    0.0000 H   0  0  0  0  0  0  0  0  0  0  0  0
    1.0607    2.1213    0.0000 H   0  0  0  0  0  0  0  0  0  0  0  0
   -2.1213    3.1820    0.0000 H   0  0  0  0  0  0  0  0  0  0  0  0
   -0.0000    3.1820    0.0000 H   0  0  0  0  0  0  0  0  0  0  0  0
   -2.1213   -1.0607    0.0000 H   0  0  0  0  0  0  0  0  0  0  0  0
  1  2  1  0
  2  3  1  0
  3  4  1  0
  4  5  1  0
  5  6  1  0
  6  7  1  0
  7  8  1  0
  8  9  1  0
  3  1  1  0
  9  4  1  0
  9  6  1  0
  1 10  1  0
  1 11  1  0
  2 12  1  0
  2 13  1  0
  3 14  1  0
  4 15  1  0
  6 16  1  0
  7 17  1  0
  7 18  1  0
  9 19  1  0
M  END
