
     RDKit          3D

 14 15  0  0  0  0  0  0  0  0999 V2000
   -0.8126    0.7390   -0.3609 C   0  0  0  0  0  0  0  0  0  0  0  0
    0.3844    1.0790    0.5409 C   0  0  0  0  0  0  0  0  0  0  0  0
    1.3274   -0.0491    0.1193 C   0  0  0  0  0  0  0  0  0  0  0  0
    1.3115   -1.1975    0.8690 O   0  0  0  0  0  0  0  0  0  0  0  0
    0.4109   -1.2435   -0.1601 C   0  0  0  0  0  0  0  0  0  0  0  0
   -0.9938   -0.7326   -0.0028 C   0  0  0  0  0  0  0  0  0  0  0  0
   -0.4179    0.8510   -1.3989 H   0  0  0  0  0  0  0  0  0  0  0  0
   -1.6844    1.3454   -0.1428 H   0  0  0  0  0  0  0  0  0  0  0  0
    0.7709    2.0663    0.2967 H   0  0  0  0  0  0  0  0  0  0  0  0
    0.0502    0.9474    1.5827 H   0  0  0  0  0  0  0  0  0  0  0  0
    2.0619    0.1349   -0.6666 H   0  0  0  0  0  0  0  0  0  0  0  0
    0.6499   -1.9120   -0.9966 H   0  0  0  0  0  0  0  0  0  0  0  0
   -1.3807   -0.7802    1.0205 H   0  0  0  0  0  0  0  0  0  0  0  0
   -1.6775   -1.2481   -0.7005 H   0  0  0  0  0  0  0  0  0  0  0  0
  1  2  1  0
  2  3  1  0
  3  4  1  0
  4  5  1  0
  5  6  1  0
  6  1  1  0
  5  3  1  0
  1  7  1  0
  1  8  1  0
  2  9  1  0
  2 10  1  0
  3 11  1  0
  5 12  1  0
  6 13  1  0
  6 14  1  0
M  END
