
     RDKit          3D

 21 23  0  0  0  0  0  0  0  0999 V2000
   -2.3857    0.1213    0.3326 C   0  0  0  0  0  0  0  0  0  0  0  0
   -1.3133   -0.9404    0.5748 C   0  0  0  0  0  0  0  0  0  0  0  0
   -0.4435   -0.1722   -0.4131 C   0  0  0  0  0  0  0  0  0  0  0  0
    0.9030    0.0629    0.1404 C   0  0  0  0  0  0  0  0  0  0  0  0
    1.7088   -1.1482    0.4966 C   0  0  0  0  0  0  0  0  0  0  0  0
    2.5222   -0.8546   -0.6231 O   0  0  0  0  0  0  0  0  0  0  0  0
    1.9797    0.3810   -0.9133 C   0  0  0  0  0  0  0  0  0  0  0  0
    1.6079    1.3455    0.1437 C   0  0  0  0  0  0  0  0  0  0  0  0
   -1.4022    0.9539   -0.4882 C   0  0  0  0  0  0  0  0  0  0  0  0
   -3.2117   -0.3152   -0.2587 H   0  0  0  0  0  0  0  0  0  0  0  0
   -2.6768    0.6478    1.2467 H   0  0  0  0  0  0  0  0  0  0  0  0
   -0.9254   -0.8712    1.6273 H   0  0  0  0  0  0  0  0  0  0  0  0
   -1.5831   -1.9547    0.2675 H   0  0  0  0  0  0  0  0  0  0  0  0
   -0.4158   -0.7333   -1.3787 H   0  0  0  0  0  0  0  0  0  0  0  0
    1.2054   -2.1132    0.4633 H   0  0  0  0  0  0  0  0  0  0  0  0
    2.3464   -0.9989    1.4152 H   0  0  0  0  0  0  0  0  0  0  0  0
    1.6507    0.5971   -1.9391 H   0  0  0  0  0  0  0  0  0  0  0  0
    1.0997    2.2543   -0.1700 H   0  0  0  0  0  0  0  0  0  0  0  0
    2.2883    1.5146    1.0301 H   0  0  0  0  0  0  0  0  0  0  0  0
   -1.1362    1.9091   -0.0353 H   0  0  0  0  0  0  0  0  0  0  0  0
   -1.8184    1.1523   -1.5188 H   0  0  0  0  0  0  0  0  0  0  0  0
  1  2  1  0
  2  3  1  0
  3  4  1  0
  4  5  1  0
  5  6  1  0
  6  7  1  0
  7  8  1  0
  3  9  1  0
  9  1  1  0
  7  4  1  0
  8  4  1  0
  1 10  1  0
  1 11  1  0
  2 12  1  0
  2 13  1  0
  3 14  1  0
  5 15  1  0
  5 16  1  0
  7 17  1  0
  8 18  1  0
  8 19  1  0
  9 20  1  0
  9 21  1  0
M  END
