
     RDKit          3D

 23 25  0  0  0  0  0  0  0  0999 V2000
   -1.5342    0.7947    0.4314 C   0  0  0  0  0  0  0  0  0  0  0  0
   -1.6032   -0.6866    0.4012 C   0  0  0  0  0  0  0  0  0  0  0  0
   -0.3832   -1.1852    1.1892 C   0  0  0  0  0  0  0  0  0  0  0  0
    0.6528   -1.4881    0.1399 C   0  0  0  0  0  0  0  0  0  0  0  0
    1.8233   -0.6337   -0.0768 C   0  0  0  0  0  0  0  0  0  0  0  0
    1.6574    0.8615    0.0703 C   0  0  0  0  0  0  0  0  0  0  0  0
    0.5679    0.7724   -0.9722 C   0  0  0  0  0  0  0  0  0  0  0  0
   -0.6766    1.4394   -0.5676 C   0  0  0  0  0  0  0  0  0  0  0  0
    0.6102   -0.6803   -1.0662 C   0  0  0  0  0  0  0  0  0  0  0  0
   -1.2682    1.1125    1.4823 H   0  0  0  0  0  0  0  0  0  0  0  0
   -2.5876    1.1810    0.3012 H   0  0  0  0  0  0  0  0  0  0  0  0
   -1.6083   -1.0765   -0.6222 H   0  0  0  0  0  0  0  0  0  0  0  0
   -2.5443   -1.0420    0.8909 H   0  0  0  0  0  0  0  0  0  0  0  0
   -0.0147   -0.4274    1.8837 H   0  0  0  0  0  0  0  0  0  0  0  0
   -0.7317   -2.0889    1.7337 H   0  0  0  0  0  0  0  0  0  0  0  0
    0.8161   -2.5798   -0.0034 H   0  0  0  0  0  0  0  0  0  0  0  0
    2.7590   -1.0690   -0.4153 H   0  0  0  0  0  0  0  0  0  0  0  0
    2.5883    1.3716   -0.2409 H   0  0  0  0  0  0  0  0  0  0  0  0
    1.3376    1.1972    1.0657 H   0  0  0  0  0  0  0  0  0  0  0  0
    0.9599    1.2529   -1.9207 H   0  0  0  0  0  0  0  0  0  0  0  0
   -0.4080    2.4661   -0.1760 H   0  0  0  0  0  0  0  0  0  0  0  0
   -1.2980    1.6658   -1.4840 H   0  0  0  0  0  0  0  0  0  0  0  0
    0.8853   -1.1578   -2.0440 H   0  0  0  0  0  0  0  0  0  0  0  0
  1  2  1  0
  2  3  1  0
  3  4  1  0
  4  5  1  0
  5  6  1  0
  6  7  1  0
  7  8  1  0
  7  9  1  0
  8  1  1  0
  9  4  1  0
  9  5  1  0
  1 10  1  0
  1 11  1  0
  2 12  1  0
  2 13  1  0
  3 14  1  0
  3 15  1  0
  4 16  1  0
  5 17  1  0
  6 18  1  0
  6 19  1  0
  7 20  1  0
  8 21  1  0
  8 22  1  0
  9 23  1  0
M  END
