
     RDKit          3D

 19 21  0  0  0  0  0  0  0  0999 V2000
    2.5531   -0.1876    0.7406 C   0  0  0  0  0  0  0  0  0  0  0  0
    1.9784   -0.4688   -0.6304 C   0  0  0  0  0  0  0  0  0  0  0  0
    0.9895    0.5598   -0.0910 C   0  0  0  0  0  0  0  0  0  0  0  0
   -0.3588    0.3356   -0.6861 C   0  0  0  0  0  0  0  0  0  0  0  0
   -0.7607   -0.9555   -0.8983 O   0  0  0  0  0  0  0  0  0  0  0  0
   -1.9971   -0.8722   -0.2830 C   0  0  0  0  0  0  0  0  0  0  0  0
   -2.8559    0.3411   -0.4347 C   0  0  0  0  0  0  0  0  0  0  0  0
   -1.5340    0.5232    0.2360 C   0  0  0  0  0  0  0  0  0  0  0  0
    1.2168    0.0147    1.1620 O   0  0  0  0  0  0  0  0  0  0  0  0
    3.0263   -1.0881    1.1475 H   0  0  0  0  0  0  0  0  0  0  0  0
    3.1815    0.7058    0.8225 H   0  0  0  0  0  0  0  0  0  0  0  0
    1.5424   -1.4647   -0.6711 H   0  0  0  0  0  0  0  0  0  0  0  0
    2.5816   -0.1262   -1.4841 H   0  0  0  0  0  0  0  0  0  0  0  0
    1.3212    1.5945   -0.1510 H   0  0  0  0  0  0  0  0  0  0  0  0
   -0.4921    0.9524   -1.5977 H   0  0  0  0  0  0  0  0  0  0  0  0
   -2.2730   -1.6107    0.4770 H   0  0  0  0  0  0  0  0  0  0  0  0
   -2.9091    0.8435   -1.4438 H   0  0  0  0  0  0  0  0  0  0  0  0
   -3.7920    0.3304    0.1169 H   0  0  0  0  0  0  0  0  0  0  0  0
   -1.4183    0.5727    1.3132 H   0  0  0  0  0  0  0  0  0  0  0  0
  1  2  1  0
  2  3  1  0
  3  4  1  0
  4  5  1  0
  5  6  1  0
  6  7  1  0
  7  8  1  0
  3  9  1  0
  9  1  1  0
  8  4  1  0
  8  6  1  0
  1 10  1  0
  1 11  1  0
  2 12  1  0
  2 13  1  0
  3 14  1  0
  4 15  1  0
  6 16  1  0
  7 17  1  0
  7 18  1  0
  8 19  1  0
M  END
