
     RDKit          3D

 19 22  0  0  0  0  0  0  0  0999 V2000
   -0.9095    1.2816    0.0721 C   0  0  0  0  0  0  0  0  0  0  0  0
   -1.5544    0.1067   -0.5889 C   0  0  0  0  0  0  0  0  0  0  0  0
   -0.8639   -1.1362   -0.1736 C   0  0  0  0  0  0  0  0  0  0  0  0
   -0.0178   -0.7743    0.9612 C   0  0  0  0  0  0  0  0  0  0  0  0
    0.2196    0.7041    0.8880 C   0  0  0  0  0  0  0  0  0  0  0  0
    1.4772    0.8128    0.0834 C   0  0  0  0  0  0  0  0  0  0  0  0
    1.2826    0.7828   -1.3022 O   0  0  0  0  0  0  0  0  0  0  0  0
    1.5839   -0.4394   -0.7561 C   0  0  0  0  0  0  0  0  0  0  0  0
    0.5652   -1.3852   -0.2538 C   0  0  0  0  0  0  0  0  0  0  0  0
   -0.5315    1.9693   -0.7275 H   0  0  0  0  0  0  0  0  0  0  0  0
   -1.6178    1.8846    0.6745 H   0  0  0  0  0  0  0  0  0  0  0  0
   -1.6240    0.2219   -1.7074 H   0  0  0  0  0  0  0  0  0  0  0  0
   -2.6131    0.0737   -0.2453 H   0  0  0  0  0  0  0  0  0  0  0  0
   -1.5400   -2.0304   -0.1124 H   0  0  0  0  0  0  0  0  0  0  0  0
   -0.0247   -1.2909    1.9349 H   0  0  0  0  0  0  0  0  0  0  0  0
    0.2867    1.1934    1.8710 H   0  0  0  0  0  0  0  0  0  0  0  0
    2.3858    1.2631    0.4983 H   0  0  0  0  0  0  0  0  0  0  0  0
    2.5943   -0.7983   -0.9498 H   0  0  0  0  0  0  0  0  0  0  0  0
    0.9014   -2.4392   -0.1667 H   0  0  0  0  0  0  0  0  0  0  0  0
  1  2  1  0
  2  3  1  0
  3  4  1  0
  4  5  1  0
  5  6  1  0
  6  7  1  0
  7  8  1  0
  8  9  1  0
  5  1  1  0
  8  6  1  0
  9  3  1  0
  9  4  1  0
  1 10  1  0
  1 11  1  0
  2 12  1  0
  2 13  1  0
  3 14  1  0
  4 15  1  0
  5 16  1  0
  6 17  1  0
  8 18  1  0
  9 19  1  0
M  END
