
     RDKit          3D

 23 25  0  0  0  0  0  0  0  0999 V2000
   -2.2140    0.1408   -0.2325 C   0  0  0  0  0  0  0  0  0  0  0  0
   -1.4124   -1.1541   -0.0775 C   0  0  0  0  0  0  0  0  0  0  0  0
   -0.0931   -0.6610    0.4431 C   0  0  0  0  0  0  0  0  0  0  0  0
    1.1746   -1.2572   -0.0807 C   0  0  0  0  0  0  0  0  0  0  0  0
    2.2287   -0.1885   -0.0711 C   0  0  0  0  0  0  0  0  0  0  0  0
    1.4323    1.0618   -0.3271 C   0  0  0  0  0  0  0  0  0  0  0  0
    0.0285    0.7841    0.1514 C   0  0  0  0  0  0  0  0  0  0  0  0
   -1.1399    1.0800   -0.7313 C   0  0  0  0  0  0  0  0  0  0  0  0
   -0.1129    0.3285    1.5409 C   0  0  0  0  0  0  0  0  0  0  0  0
   -3.0513    0.0216   -0.9369 H   0  0  0  0  0  0  0  0  0  0  0  0
   -2.6303    0.4348    0.7339 H   0  0  0  0  0  0  0  0  0  0  0  0
   -1.2437   -1.5198   -1.1172 H   0  0  0  0  0  0  0  0  0  0  0  0
   -1.9140   -1.8789    0.5696 H   0  0  0  0  0  0  0  0  0  0  0  0
    1.5114   -2.1349    0.5206 H   0  0  0  0  0  0  0  0  0  0  0  0
    0.9942   -1.5278   -1.1511 H   0  0  0  0  0  0  0  0  0  0  0  0
    2.7304   -0.1998    0.9092 H   0  0  0  0  0  0  0  0  0  0  0  0
    2.9814   -0.2983   -0.8685 H   0  0  0  0  0  0  0  0  0  0  0  0
    1.4913    1.4321   -1.3511 H   0  0  0  0  0  0  0  0  0  0  0  0
    1.8489    1.8466    0.3665 H   0  0  0  0  0  0  0  0  0  0  0  0
   -0.8634    0.7186   -1.7649 H   0  0  0  0  0  0  0  0  0  0  0  0
   -1.4477    2.1234   -0.7684 H   0  0  0  0  0  0  0  0  0  0  0  0
    0.7706    0.3621    2.1828 H   0  0  0  0  0  0  0  0  0  0  0  0
   -1.0694    0.4859    2.0604 H   0  0  0  0  0  0  0  0  0  0  0  0
  1  2  1  0
  2  3  1  0
  3  4  1  0
  4  5  1  0
  5  6  1  0
  6  7  1  0
  7  8  1  0
  7  9  1  0
  8  1  1  0
  7  3  1  0
  9  3  1  0
  1 10  1  0
  1 11  1  0
  2 12  1  0
  2 13  1  0
  4 14  1  0
  4 15  1  0
  5 16  1  0
  5 17  1  0
  6 18  1  0
  6 19  1  0
  8 20  1  0
  8 21  1  0
  9 22  1  0
  9 23  1  0
M  END
