
     RDKit          3D

 21 23  0  0  0  0  0  0  0  0999 V2000
   -1.4895    0.8271    0.0118 C   0  0  0  0  0  0  0  0  0  0  0  0
   -0.2964    1.7390    0.0550 C   0  0  0  0  0  0  0  0  0  0  0  0
    0.9045    0.9876   -0.3901 C   0  0  0  0  0  0  0  0  0  0  0  0
    0.7320    0.1615   -1.5137 O   0  0  0  0  0  0  0  0  0  0  0  0
    1.7562   -0.6384   -0.9550 C   0  0  0  0  0  0  0  0  0  0  0  0
    1.1880   -0.2279    0.4069 C   0  0  0  0  0  0  0  0  0  0  0  0
    0.0179   -0.9961    0.8770 C   0  0  0  0  0  0  0  0  0  0  0  0
   -0.9331   -1.6373   -0.0640 C   0  0  0  0  0  0  0  0  0  0  0  0
   -1.2960   -0.4140    0.7849 C   0  0  0  0  0  0  0  0  0  0  0  0
   -1.7215    0.6490   -1.0745 H   0  0  0  0  0  0  0  0  0  0  0  0
   -2.3642    1.4208    0.3855 H   0  0  0  0  0  0  0  0  0  0  0  0
   -0.1219    2.0452    1.1282 H   0  0  0  0  0  0  0  0  0  0  0  0
   -0.4378    2.6513   -0.5162 H   0  0  0  0  0  0  0  0  0  0  0  0
    1.8316    1.6028   -0.5090 H   0  0  0  0  0  0  0  0  0  0  0  0
    1.6984   -1.6978   -1.1831 H   0  0  0  0  0  0  0  0  0  0  0  0
    2.7254   -0.1254   -1.1084 H   0  0  0  0  0  0  0  0  0  0  0  0
    1.9576   -0.0417    1.1719 H   0  0  0  0  0  0  0  0  0  0  0  0
    0.2250   -1.6174    1.7998 H   0  0  0  0  0  0  0  0  0  0  0  0
   -0.8718   -1.5171   -1.1511 H   0  0  0  0  0  0  0  0  0  0  0  0
   -1.4536   -2.5793    0.2371 H   0  0  0  0  0  0  0  0  0  0  0  0
   -2.0508   -0.5918    1.6072 H   0  0  0  0  0  0  0  0  0  0  0  0
  1  2  1  0
  2  3  1  0
  3  4  1  0
  4  5  1  0
  5  6  1  0
  6  7  1  0
  7  8  1  0
  8  9  1  0
  9  1  1  0
  6  3  1  0
  9  7  1  0
  1 10  1  0
  1 11  1  0
  2 12  1  0
  2 13  1  0
  3 14  1  0
  5 15  1  0
  5 16  1  0
  6 17  1  0
  7 18  1  0
  8 19  1  0
  8 20  1  0
  9 21  1  0
M  END
