
     RDKit          3D

 21 23  0  0  0  0  0  0  0  0999 V2000
   -2.2942    0.6641    0.4261 C   0  0  0  0  0  0  0  0  0  0  0  0
   -1.3987    0.5934   -0.8226 C   0  0  0  0  0  0  0  0  0  0  0  0
   -0.4194   -0.1313    0.1104 C   0  0  0  0  0  0  0  0  0  0  0  0
   -1.6248   -0.6663    0.8074 C   0  0  0  0  0  0  0  0  0  0  0  0
    0.5004   -1.0845   -0.5394 C   0  0  0  0  0  0  0  0  0  0  0  0
    1.7961   -0.2976   -0.6331 C   0  0  0  0  0  0  0  0  0  0  0  0
    2.5946    0.0186    0.5508 C   0  0  0  0  0  0  0  0  0  0  0  0
    1.5078    0.9318    0.1144 C   0  0  0  0  0  0  0  0  0  0  0  0
    0.3198    0.8160    0.7890 O   0  0  0  0  0  0  0  0  0  0  0  0
   -1.9905    1.4801    1.1199 H   0  0  0  0  0  0  0  0  0  0  0  0
   -3.3478    0.5921    0.1710 H   0  0  0  0  0  0  0  0  0  0  0  0
   -1.8759   -0.0357   -1.5684 H   0  0  0  0  0  0  0  0  0  0  0  0
   -1.0524    1.5878   -1.1136 H   0  0  0  0  0  0  0  0  0  0  0  0
   -1.5515   -0.8383    1.8840 H   0  0  0  0  0  0  0  0  0  0  0  0
   -2.0869   -1.4798    0.2121 H   0  0  0  0  0  0  0  0  0  0  0  0
    0.6710   -1.9786    0.1272 H   0  0  0  0  0  0  0  0  0  0  0  0
    0.2036   -1.4697   -1.5120 H   0  0  0  0  0  0  0  0  0  0  0  0
    2.2812   -0.3275   -1.6122 H   0  0  0  0  0  0  0  0  0  0  0  0
    3.6308    0.3207    0.4008 H   0  0  0  0  0  0  0  0  0  0  0  0
    2.4375   -0.5792    1.4821 H   0  0  0  0  0  0  0  0  0  0  0  0
    1.6994    1.8836   -0.3937 H   0  0  0  0  0  0  0  0  0  0  0  0
  1  2  1  0
  2  3  1  0
  3  4  1  0
  3  5  1  0
  5  6  1  0
  6  7  1  0
  7  8  1  0
  8  9  1  0
  4  1  1  0
  8  6  1  0
  9  3  1  0
  1 10  1  0
  1 11  1  0
  2 12  1  0
  2 13  1  0
  4 14  1  0
  4 15  1  0
  5 16  1  0
  5 17  1  0
  6 18  1  0
  7 19  1  0
  7 20  1  0
  8 21  1  0
M  END
