
     RDKit          3D

 21 23  0  0  0  0  0  0  0  0999 V2000
    1.4807   -0.7803   -0.6869 C   0  0  0  0  0  0  0  0  0  0  0  0
    0.9391    0.5535   -1.0278 C   0  0  0  0  0  0  0  0  0  0  0  0
    0.1519    1.2095    0.0811 C   0  0  0  0  0  0  0  0  0  0  0  0
    0.5777    0.5042    1.3754 C   0  0  0  0  0  0  0  0  0  0  0  0
   -0.0035   -0.8864    1.0912 C   0  0  0  0  0  0  0  0  0  0  0  0
    0.7508   -1.5392    0.1686 O   0  0  0  0  0  0  0  0  0  0  0  0
   -1.3947   -0.5724    0.6240 C   0  0  0  0  0  0  0  0  0  0  0  0
   -1.6030   -0.4196   -0.8682 C   0  0  0  0  0  0  0  0  0  0  0  0
   -1.2860    0.7433   -0.0287 C   0  0  0  0  0  0  0  0  0  0  0  0
    1.5867   -1.3609   -1.6510 H   0  0  0  0  0  0  0  0  0  0  0  0
    2.5442   -0.6918   -0.3183 H   0  0  0  0  0  0  0  0  0  0  0  0
    0.3534    0.5849   -1.9833 H   0  0  0  0  0  0  0  0  0  0  0  0
    1.8152    1.2396   -1.2249 H   0  0  0  0  0  0  0  0  0  0  0  0
    0.2646    2.2881    0.1357 H   0  0  0  0  0  0  0  0  0  0  0  0
    1.6722    0.4379    1.4336 H   0  0  0  0  0  0  0  0  0  0  0  0
    0.1049    0.9869    2.2279 H   0  0  0  0  0  0  0  0  0  0  0  0
   -0.1079   -1.4273    2.0690 H   0  0  0  0  0  0  0  0  0  0  0  0
   -2.2759   -0.9254    1.1594 H   0  0  0  0  0  0  0  0  0  0  0  0
   -0.8685   -0.9663   -1.4705 H   0  0  0  0  0  0  0  0  0  0  0  0
   -2.6302   -0.4679   -1.2715 H   0  0  0  0  0  0  0  0  0  0  0  0
   -2.0717    1.4894    0.1655 H   0  0  0  0  0  0  0  0  0  0  0  0
  1  2  1  0
  2  3  1  0
  3  4  1  0
  4  5  1  0
  5  6  1  0
  5  7  1  0
  7  8  1  0
  8  9  1  0
  6  1  1  0
  9  7  1  0
  9  3  1  0
  1 10  1  0
  1 11  1  0
  2 12  1  0
  2 13  1  0
  3 14  1  0
  4 15  1  0
  4 16  1  0
  5 17  1  0
  7 18  1  0
  8 19  1  0
  8 20  1  0
  9 21  1  0
M  END
