
     RDKit          3D

 21 22  0  0  0  0  0  0  0  0999 V2000
   -2.3154    0.1593    0.3498 C   0  0  0  0  0  0  0  0  0  0  0  0
   -1.6776   -0.2958   -0.9738 C   0  0  0  0  0  0  0  0  0  0  0  0
   -0.3318   -0.0936   -0.2588 C   0  0  0  0  0  0  0  0  0  0  0  0
   -1.0774   -0.3759    1.0241 C   0  0  0  0  0  0  0  0  0  0  0  0
    0.6768   -1.1662   -0.5259 C   0  0  0  0  0  0  0  0  0  0  0  0
    1.7539   -0.6930   -1.2550 O   0  0  0  0  0  0  0  0  0  0  0  0
    2.3507    0.3092   -0.4662 C   0  0  0  0  0  0  0  0  0  0  0  0
    1.4078    1.4355   -0.2020 C   0  0  0  0  0  0  0  0  0  0  0  0
    0.0975    1.1782   -0.4634 O   0  0  0  0  0  0  0  0  0  0  0  0
   -3.2115   -0.4125    0.6254 H   0  0  0  0  0  0  0  0  0  0  0  0
   -2.3694    1.2478    0.4738 H   0  0  0  0  0  0  0  0  0  0  0  0
   -1.8421    0.3922   -1.8133 H   0  0  0  0  0  0  0  0  0  0  0  0
   -1.8363   -1.3577   -1.1561 H   0  0  0  0  0  0  0  0  0  0  0  0
   -0.7362    0.1331    1.9190 H   0  0  0  0  0  0  0  0  0  0  0  0
   -1.1907   -1.4786    1.1678 H   0  0  0  0  0  0  0  0  0  0  0  0
    0.1540   -2.0154   -1.0202 H   0  0  0  0  0  0  0  0  0  0  0  0
    1.0573   -1.5098    0.4797 H   0  0  0  0  0  0  0  0  0  0  0  0
    2.6047   -0.1983    0.4987 H   0  0  0  0  0  0  0  0  0  0  0  0
    3.2734    0.6263   -1.0035 H   0  0  0  0  0  0  0  0  0  0  0  0
    1.4813    1.7947    0.8599 H   0  0  0  0  0  0  0  0  0  0  0  0
    1.7310    2.3206   -0.8148 H   0  0  0  0  0  0  0  0  0  0  0  0
  1  2  1  0
  2  3  1  0
  3  4  1  0
  3  5  1  0
  5  6  1  0
  6  7  1  0
  7  8  1  0
  8  9  1  0
  4  1  1  0
  9  3  1  0
  1 10  1  0
  1 11  1  0
  2 12  1  0
  2 13  1  0
  4 14  1  0
  4 15  1  0
  5 16  1  0
  5 17  1  0
  7 18  1  0
  7 19  1  0
  8 20  1  0
  8 21  1  0
M  END
