
     RDKit          3D

 23 25  0  0  0  0  0  0  0  0999 V2000
    1.6435    0.8620   -0.2488 C   0  0  0  0  0  0  0  0  0  0  0  0
    1.4876   -0.6155   -0.3226 C   0  0  0  0  0  0  0  0  0  0  0  0
    0.4632   -1.1995    0.5993 C   0  0  0  0  0  0  0  0  0  0  0  0
   -0.7317   -1.6010   -0.2825 C   0  0  0  0  0  0  0  0  0  0  0  0
   -1.1533   -0.2795   -0.8240 C   0  0  0  0  0  0  0  0  0  0  0  0
   -2.0802    0.6352   -0.1825 C   0  0  0  0  0  0  0  0  0  0  0  0
   -0.7270    0.7407    0.2693 C   0  0  0  0  0  0  0  0  0  0  0  0
    0.3481    1.6272   -0.1735 C   0  0  0  0  0  0  0  0  0  0  0  0
   -0.2392   -0.1080    1.4203 C   0  0  0  0  0  0  0  0  0  0  0  0
    2.3345    1.1951    0.5621 H   0  0  0  0  0  0  0  0  0  0  0  0
    2.1460    1.1909   -1.2039 H   0  0  0  0  0  0  0  0  0  0  0  0
    1.3333   -0.9607   -1.3706 H   0  0  0  0  0  0  0  0  0  0  0  0
    2.4801   -1.0674   -0.0240 H   0  0  0  0  0  0  0  0  0  0  0  0
    0.8117   -2.0238    1.2229 H   0  0  0  0  0  0  0  0  0  0  0  0
   -0.3152   -2.2432   -1.0862 H   0  0  0  0  0  0  0  0  0  0  0  0
   -1.4911   -2.1248    0.3150 H   0  0  0  0  0  0  0  0  0  0  0  0
   -0.8615   -0.0703   -1.8621 H   0  0  0  0  0  0  0  0  0  0  0  0
   -2.5252    1.4325   -0.7885 H   0  0  0  0  0  0  0  0  0  0  0  0
   -2.8317    0.1887    0.5334 H   0  0  0  0  0  0  0  0  0  0  0  0
    0.0786    2.1236   -1.1299 H   0  0  0  0  0  0  0  0  0  0  0  0
    0.4636    2.4661    0.5737 H   0  0  0  0  0  0  0  0  0  0  0  0
    0.4432    0.4363    2.0617 H   0  0  0  0  0  0  0  0  0  0  0  0
   -1.0771   -0.6047    1.9414 H   0  0  0  0  0  0  0  0  0  0  0  0
  1  2  1  0
  2  3  1  0
  3  4  1  0
  4  5  1  0
  5  6  1  0
  6  7  1  0
  7  8  1  0
  7  9  1  0
  8  1  1  0
  9  3  1  0
  7  5  1  0
  1 10  1  0
  1 11  1  0
  2 12  1  0
  2 13  1  0
  3 14  1  0
  4 15  1  0
  4 16  1  0
  5 17  1  0
  6 18  1  0
  6 19  1  0
  8 20  1  0
  8 21  1  0
  9 22  1  0
  9 23  1  0
M  END
