
     RDKit          3D

 23 25  0  0  0  0  0  0  0  0999 V2000
    2.3971    0.1381    0.0084 C   0  0  0  0  0  0  0  0  0  0  0  0
    1.5324   -0.6744   -0.9672 C   0  0  0  0  0  0  0  0  0  0  0  0
    0.3552   -0.1630   -0.2382 C   0  0  0  0  0  0  0  0  0  0  0  0
    1.1991    0.0548    0.9667 C   0  0  0  0  0  0  0  0  0  0  0  0
   -0.2733    1.1164   -0.8256 C   0  0  0  0  0  0  0  0  0  0  0  0
   -1.7222    1.0806   -0.2919 C   0  0  0  0  0  0  0  0  0  0  0  0
   -1.5821    0.0911    0.7908 C   0  0  0  0  0  0  0  0  0  0  0  0
   -1.7710   -1.2958    0.8988 C   0  0  0  0  0  0  0  0  0  0  0  0
   -0.8587   -0.9819   -0.1261 C   0  0  0  0  0  0  0  0  0  0  0  0
    2.4970    1.1661   -0.3961 H   0  0  0  0  0  0  0  0  0  0  0  0
    3.2985   -0.3605    0.3519 H   0  0  0  0  0  0  0  0  0  0  0  0
    1.7105   -1.7486   -0.7575 H   0  0  0  0  0  0  0  0  0  0  0  0
    1.6572   -0.3809   -2.0251 H   0  0  0  0  0  0  0  0  0  0  0  0
    1.2604   -0.8740    1.5794 H   0  0  0  0  0  0  0  0  0  0  0  0
    1.0986    0.9970    1.5028 H   0  0  0  0  0  0  0  0  0  0  0  0
   -0.2950    0.9774   -1.9070 H   0  0  0  0  0  0  0  0  0  0  0  0
    0.2596    2.0040   -0.4700 H   0  0  0  0  0  0  0  0  0  0  0  0
   -2.4280    0.8408   -1.0820 H   0  0  0  0  0  0  0  0  0  0  0  0
   -1.9164    2.1068    0.1137 H   0  0  0  0  0  0  0  0  0  0  0  0
   -0.9307    0.5398    1.6050 H   0  0  0  0  0  0  0  0  0  0  0  0
   -1.3941   -1.8553    1.7907 H   0  0  0  0  0  0  0  0  0  0  0  0
   -2.7986   -1.6974    0.6523 H   0  0  0  0  0  0  0  0  0  0  0  0
   -1.2955   -1.0809   -1.1737 H   0  0  0  0  0  0  0  0  0  0  0  0
  1  2  1  0
  2  3  1  0
  3  4  1  0
  3  5  1  0
  5  6  1  0
  6  7  1  0
  7  8  1  0
  8  9  1  0
  4  1  1  0
  9  7  1  0
  9  3  1  0
  1 10  1  0
  1 11  1  0
  2 12  1  0
  2 13  1  0
  4 14  1  0
  4 15  1  0
  5 16  1  0
  5 17  1  0
  6 18  1  0
  6 19  1  0
  7 20  1  0
  8 21  1  0
  8 22  1  0
  9 23  1  0
M  END
