
     RDKit          3D

 15 17  0  0  0  0  0  0  0  0999 V2000
    2.4196   -0.4328    0.2522 C   0  0  0  0  0  0  0  0  0  0  0  0
    1.7606    0.7729    0.1498 C   0  0  0  0  0  0  0  0  0  0  0  0
    0.4248    0.4686    0.0032 C   0  0  0  0  0  0  0  0  0  0  0  0
    0.3146   -0.8954    0.0208 C   0  0  0  0  0  0  0  0  0  0  0  0
    1.5182   -1.3766    0.1696 O   0  0  0  0  0  0  0  0  0  0  0  0
   -1.1301   -1.2317   -0.1375 C   0  0  0  0  0  0  0  0  0  0  0  0
   -1.9473   -0.7895    0.9580 O   0  0  0  0  0  0  0  0  0  0  0  0
   -1.8521   -0.0576   -0.2286 C   0  0  0  0  0  0  0  0  0  0  0  0
   -0.9113    1.1041   -0.1642 C   0  0  0  0  0  0  0  0  0  0  0  0
    3.4853   -0.5763    0.3776 H   0  0  0  0  0  0  0  0  0  0  0  0
    2.2007    1.7732    0.1781 H   0  0  0  0  0  0  0  0  0  0  0  0
   -1.3607   -2.2667   -0.4084 H   0  0  0  0  0  0  0  0  0  0  0  0
   -2.7730    0.1249   -0.8080 H   0  0  0  0  0  0  0  0  0  0  0  0
   -0.9836    1.6851   -1.1022 H   0  0  0  0  0  0  0  0  0  0  0  0
   -1.1657    1.6979    0.7395 H   0  0  0  0  0  0  0  0  0  0  0  0
  1  2  2  0
  2  3  1  0
  3  4  2  0
  4  5  1  0
  4  6  1  0
  6  7  1  0
  7  8  1  0
  8  9  1  0
  5  1  1  0
  8  6  1  0
  9  3  1  0
  1 10  1  0
  2 11  1  0
  6 12  1  0
  8 13  1  0
  9 14  1  0
  9 15  1  0
M  END
