
     RDKit          3D

 21 22  0  0  0  0  0  0  0  0999 V2000
   -1.5373    0.8098    0.5335 C   0  0  0  0  0  0  0  0  0  0  0  0
   -1.5354   -0.5505   -0.1660 C   0  0  0  0  0  0  0  0  0  0  0  0
   -0.3702   -1.3201    0.4459 C   0  0  0  0  0  0  0  0  0  0  0  0
    0.7730   -1.2390   -0.5032 C   0  0  0  0  0  0  0  0  0  0  0  0
    1.9879   -1.3043    0.1939 O   0  0  0  0  0  0  0  0  0  0  0  0
    1.8964    0.0995    0.3229 C   0  0  0  0  0  0  0  0  0  0  0  0
    1.1398    0.1392   -0.9334 C   0  0  0  0  0  0  0  0  0  0  0  0
    0.1408    1.0021   -1.1479 O   0  0  0  0  0  0  0  0  0  0  0  0
   -0.4232    1.6312   -0.0817 C   0  0  0  0  0  0  0  0  0  0  0  0
   -2.5220    1.2712    0.4519 H   0  0  0  0  0  0  0  0  0  0  0  0
   -1.2449    0.6251    1.5913 H   0  0  0  0  0  0  0  0  0  0  0  0
   -1.3924   -0.4299   -1.2722 H   0  0  0  0  0  0  0  0  0  0  0  0
   -2.4874   -1.0841   -0.0408 H   0  0  0  0  0  0  0  0  0  0  0  0
   -0.0978   -0.9097    1.4534 H   0  0  0  0  0  0  0  0  0  0  0  0
   -0.6125   -2.3830    0.6143 H   0  0  0  0  0  0  0  0  0  0  0  0
    0.6837   -1.9174   -1.3628 H   0  0  0  0  0  0  0  0  0  0  0  0
    2.9478    0.4962    0.2682 H   0  0  0  0  0  0  0  0  0  0  0  0
    1.4452    0.4147    1.2549 H   0  0  0  0  0  0  0  0  0  0  0  0
    1.8325    0.0811   -1.8226 H   0  0  0  0  0  0  0  0  0  0  0  0
   -0.9252    2.5669   -0.4721 H   0  0  0  0  0  0  0  0  0  0  0  0
    0.3014    2.0008    0.6726 H   0  0  0  0  0  0  0  0  0  0  0  0
  1  2  1  0
  2  3  1  0
  3  4  1  0
  4  5  1  0
  5  6  1  0
  6  7  1  0
  7  8  1  0
  8  9  1  0
  9  1  1  0
  7  4  1  0
  1 10  1  0
  1 11  1  0
  2 12  1  0
  2 13  1  0
  3 14  1  0
  3 15  1  0
  4 16  1  0
  6 17  1  0
  6 18  1  0
  7 19  1  0
  9 20  1  0
  9 21  1  0
M  END
