
     RDKit          3D

 19 21  0  0  0  0  0  0  0  0999 V2000
    1.7087    0.1667    0.3119 C   0  0  0  0  0  0  0  0  0  0  0  0
    0.7606   -0.9633    0.5668 C   0  0  0  0  0  0  0  0  0  0  0  0
   -0.2964   -0.8623   -0.5167 C   0  0  0  0  0  0  0  0  0  0  0  0
   -1.6023   -1.2241   -0.1672 C   0  0  0  0  0  0  0  0  0  0  0  0
   -1.4615    0.1733   -0.3086 C   0  0  0  0  0  0  0  0  0  0  0  0
   -0.7778    1.2052    0.4869 C   0  0  0  0  0  0  0  0  0  0  0  0
    0.1844    1.7478   -0.4049 O   0  0  0  0  0  0  0  0  0  0  0  0
    1.0227    0.7938   -0.9141 C   0  0  0  0  0  0  0  0  0  0  0  0
    0.3638   -0.3053   -1.5195 O   0  0  0  0  0  0  0  0  0  0  0  0
    2.7361   -0.1305    0.0993 H   0  0  0  0  0  0  0  0  0  0  0  0
    1.7464    0.8985    1.1549 H   0  0  0  0  0  0  0  0  0  0  0  0
    0.3478   -1.0034    1.5781 H   0  0  0  0  0  0  0  0  0  0  0  0
    1.2966   -1.9111    0.3567 H   0  0  0  0  0  0  0  0  0  0  0  0
   -1.7998   -1.6366    0.8657 H   0  0  0  0  0  0  0  0  0  0  0  0
   -2.2485   -1.7794   -0.8961 H   0  0  0  0  0  0  0  0  0  0  0  0
   -1.8876    0.6286   -1.2563 H   0  0  0  0  0  0  0  0  0  0  0  0
   -1.4961    2.0373    0.7002 H   0  0  0  0  0  0  0  0  0  0  0  0
   -0.3467    0.9071    1.4366 H   0  0  0  0  0  0  0  0  0  0  0  0
    1.7495    1.2578   -1.5736 H   0  0  0  0  0  0  0  0  0  0  0  0
  1  2  1  0
  2  3  1  0
  3  4  1  0
  4  5  1  0
  5  6  1  0
  6  7  1  0
  7  8  1  0
  8  9  1  0
  8  1  1  0
  5  3  1  0
  9  3  1  0
  1 10  1  0
  1 11  1  0
  2 12  1  0
  2 13  1  0
  4 14  1  0
  4 15  1  0
  5 16  1  0
  6 17  1  0
  6 18  1  0
  8 19  1  0
M  END
