
     RDKit          3D

 23 25  0  0  0  0  0  0  0  0999 V2000
   -3.2610    0.0037    0.3670 C   0  0  0  0  0  0  0  0  0  0  0  0
   -2.5419    0.8785   -0.6142 C   0  0  0  0  0  0  0  0  0  0  0  0
   -1.8047    0.3843    0.6092 C   0  0  0  0  0  0  0  0  0  0  0  0
   -0.8481   -0.7585    0.4428 C   0  0  0  0  0  0  0  0  0  0  0  0
    0.5742   -0.4069    0.6747 C   0  0  0  0  0  0  0  0  0  0  0  0
    1.2411    0.6323   -0.1629 C   0  0  0  0  0  0  0  0  0  0  0  0
    2.7120    0.8220   -0.1188 C   0  0  0  0  0  0  0  0  0  0  0  0
    2.9862   -0.6611   -0.2637 C   0  0  0  0  0  0  0  0  0  0  0  0
    1.5071   -0.8696   -0.4386 C   0  0  0  0  0  0  0  0  0  0  0  0
   -4.0348    0.4313    1.0419 H   0  0  0  0  0  0  0  0  0  0  0  0
   -3.4912   -1.0143   -0.0002 H   0  0  0  0  0  0  0  0  0  0  0  0
   -2.2014    0.4259   -1.5641 H   0  0  0  0  0  0  0  0  0  0  0  0
   -2.8820    1.9183   -0.6788 H   0  0  0  0  0  0  0  0  0  0  0  0
   -1.6151    1.1763    1.3564 H   0  0  0  0  0  0  0  0  0  0  0  0
   -1.0457   -1.2165   -0.5568 H   0  0  0  0  0  0  0  0  0  0  0  0
   -1.1332   -1.5528    1.1843 H   0  0  0  0  0  0  0  0  0  0  0  0
    0.9973   -0.5878    1.6879 H   0  0  0  0  0  0  0  0  0  0  0  0
    0.5960    1.1696   -0.8574 H   0  0  0  0  0  0  0  0  0  0  0  0
    3.1483    1.1745    0.8389 H   0  0  0  0  0  0  0  0  0  0  0  0
    3.1208    1.3656   -0.9979 H   0  0  0  0  0  0  0  0  0  0  0  0
    3.3753   -1.1606    0.6380 H   0  0  0  0  0  0  0  0  0  0  0  0
    3.5122   -0.9377   -1.2016 H   0  0  0  0  0  0  0  0  0  0  0  0
    1.0889   -1.2164   -1.3859 H   0  0  0  0  0  0  0  0  0  0  0  0
  1  2  1  0
  2  3  1  0
  3  4  1  0
  4  5  1  0
  5  6  1  0
  6  7  1  0
  7  8  1  0
  8  9  1  0
  3  1  1  0
  9  5  1  0
  9  6  1  0
  1 10  1  0
  1 11  1  0
  2 12  1  0
  2 13  1  0
  3 14  1  0
  4 15  1  0
  4 16  1  0
  5 17  1  0
  6 18  1  0
  7 19  1  0
  7 20  1  0
  8 21  1  0
  8 22  1  0
  9 23  1  0
M  END
