
     RDKit          3D

 21 23  0  0  0  0  0  0  0  0999 V2000
    0.1332    1.7639   -0.1569 C   0  0  0  0  0  0  0  0  0  0  0  0
   -1.0024    0.9603   -0.7768 C   0  0  0  0  0  0  0  0  0  0  0  0
   -1.2674   -0.1110    0.2208 C   0  0  0  0  0  0  0  0  0  0  0  0
   -1.0051   -1.5210   -0.1971 C   0  0  0  0  0  0  0  0  0  0  0  0
    0.2996   -1.5558    0.5696 C   0  0  0  0  0  0  0  0  0  0  0  0
    1.4462   -1.4907   -0.1683 O   0  0  0  0  0  0  0  0  0  0  0  0
    1.6650   -0.1829   -0.5445 C   0  0  0  0  0  0  0  0  0  0  0  0
    0.9894    0.6921    0.4781 C   0  0  0  0  0  0  0  0  0  0  0  0
   -0.0199   -0.2041    1.1092 C   0  0  0  0  0  0  0  0  0  0  0  0
    0.6541    2.3762   -0.8894 H   0  0  0  0  0  0  0  0  0  0  0  0
   -0.2755    2.3820    0.6592 H   0  0  0  0  0  0  0  0  0  0  0  0
   -1.8670    1.6554   -0.9362 H   0  0  0  0  0  0  0  0  0  0  0  0
   -0.7015    0.5418   -1.7437 H   0  0  0  0  0  0  0  0  0  0  0  0
   -2.1984    0.0521    0.7861 H   0  0  0  0  0  0  0  0  0  0  0  0
   -1.7288   -2.2190    0.3032 H   0  0  0  0  0  0  0  0  0  0  0  0
   -0.9562   -1.7443   -1.2596 H   0  0  0  0  0  0  0  0  0  0  0  0
    0.3749   -2.3622    1.3348 H   0  0  0  0  0  0  0  0  0  0  0  0
    2.7522    0.0508   -0.6443 H   0  0  0  0  0  0  0  0  0  0  0  0
    1.2406   -0.0616   -1.5679 H   0  0  0  0  0  0  0  0  0  0  0  0
    1.6731    1.0811    1.2482 H   0  0  0  0  0  0  0  0  0  0  0  0
   -0.2061   -0.1030    2.1755 H   0  0  0  0  0  0  0  0  0  0  0  0
  1  2  1  0
  2  3  1  0
  3  4  1  0
  4  5  1  0
  5  6  1  0
  6  7  1  0
  7  8  1  0
  8  9  1  0
  8  1  1  0
  9  3  1  0
  9  5  1  0
  1 10  1  0
  1 11  1  0
  2 12  1  0
  2 13  1  0
  3 14  1  0
  4 15  1  0
  4 16  1  0
  5 17  1  0
  7 18  1  0
  7 19  1  0
  8 20  1  0
  9 21  1  0
M  END
