
     RDKit          3D

 21 23  0  0  0  0  0  0  0  0999 V2000
   -2.6372   -0.2181    0.7864 C   0  0  0  0  0  0  0  0  0  0  0  0
   -1.4966   -1.1578    0.3674 C   0  0  0  0  0  0  0  0  0  0  0  0
   -0.5937    0.0109    0.3695 C   0  0  0  0  0  0  0  0  0  0  0  0
   -1.7401    0.9435    0.3569 C   0  0  0  0  0  0  0  0  0  0  0  0
    0.3983    0.1549   -0.7267 C   0  0  0  0  0  0  0  0  0  0  0  0
    1.3288    0.1634    0.4178 C   0  0  0  0  0  0  0  0  0  0  0  0
    2.5132   -0.6680    0.3866 C   0  0  0  0  0  0  0  0  0  0  0  0
    2.5781    0.8767    0.5214 C   0  0  0  0  0  0  0  0  0  0  0  0
    0.3415    0.1213    1.3654 O   0  0  0  0  0  0  0  0  0  0  0  0
   -2.8241   -0.2217    1.8632 H   0  0  0  0  0  0  0  0  0  0  0  0
   -3.5558   -0.3356    0.2167 H   0  0  0  0  0  0  0  0  0  0  0  0
   -1.2752   -1.8628    1.2201 H   0  0  0  0  0  0  0  0  0  0  0  0
   -1.6648   -1.6519   -0.5984 H   0  0  0  0  0  0  0  0  0  0  0  0
   -1.9500    1.2858   -0.6993 H   0  0  0  0  0  0  0  0  0  0  0  0
   -1.7032    1.7855    1.0498 H   0  0  0  0  0  0  0  0  0  0  0  0
    0.4256   -0.7026   -1.4186 H   0  0  0  0  0  0  0  0  0  0  0  0
    0.2873    1.1343   -1.2385 H   0  0  0  0  0  0  0  0  0  0  0  0
    2.8315   -1.0455   -0.6302 H   0  0  0  0  0  0  0  0  0  0  0  0
    2.9038   -1.2659    1.2136 H   0  0  0  0  0  0  0  0  0  0  0  0
    2.9547    1.4435   -0.3372 H   0  0  0  0  0  0  0  0  0  0  0  0
    2.8780    1.2099    1.5597 H   0  0  0  0  0  0  0  0  0  0  0  0
  1  2  1  0
  2  3  1  0
  3  4  1  0
  3  5  1  0
  5  6  1  0
  6  7  1  0
  7  8  1  0
  6  9  1  0
  4  1  1  0
  8  6  1  0
  9  3  1  0
  1 10  1  0
  1 11  1  0
  2 12  1  0
  2 13  1  0
  4 14  1  0
  4 15  1  0
  5 16  1  0
  5 17  1  0
  7 18  1  0
  7 19  1  0
  8 20  1  0
  8 21  1  0
M  END
