
     RDKit          3D

 19 21  0  0  0  0  0  0  0  0999 V2000
    0.4607    0.6873    1.2116 C   0  0  0  0  0  0  0  0  0  0  0  0
    0.5549    1.4527   -0.1119 C   0  0  0  0  0  0  0  0  0  0  0  0
    0.0412    0.4872   -1.1824 C   0  0  0  0  0  0  0  0  0  0  0  0
    1.1394   -0.3625   -1.4521 O   0  0  0  0  0  0  0  0  0  0  0  0
    1.4112   -1.0027   -0.2440 C   0  0  0  0  0  0  0  0  0  0  0  0
    0.2623   -0.7123    0.6913 C   0  0  0  0  0  0  0  0  0  0  0  0
   -0.8203   -0.4183   -0.3626 C   0  0  0  0  0  0  0  0  0  0  0  0
   -2.1317   -0.4772   -0.1098 C   0  0  0  0  0  0  0  0  0  0  0  0
   -1.4479   -1.5170   -0.8679 O   0  0  0  0  0  0  0  0  0  0  0  0
    1.3466    0.8180    1.8319 H   0  0  0  0  0  0  0  0  0  0  0  0
   -0.4751    1.0628    1.6938 H   0  0  0  0  0  0  0  0  0  0  0  0
    1.6631    1.6143   -0.2609 H   0  0  0  0  0  0  0  0  0  0  0  0
    0.0102    2.3933   -0.0944 H   0  0  0  0  0  0  0  0  0  0  0  0
   -0.3868    0.9439   -2.0384 H   0  0  0  0  0  0  0  0  0  0  0  0
    2.3721   -0.6023    0.1635 H   0  0  0  0  0  0  0  0  0  0  0  0
    1.4947   -2.0896   -0.4106 H   0  0  0  0  0  0  0  0  0  0  0  0
    0.0055   -1.4648    1.3938 H   0  0  0  0  0  0  0  0  0  0  0  0
   -2.5692   -0.8406    0.8648 H   0  0  0  0  0  0  0  0  0  0  0  0
   -2.9308    0.0275   -0.7158 H   0  0  0  0  0  0  0  0  0  0  0  0
  1  2  1  0
  2  3  1  0
  3  4  1  0
  4  5  1  0
  5  6  1  0
  6  7  1  0
  7  8  1  0
  8  9  1  0
  6  1  1  0
  9  7  1  0
  7  3  1  0
  1 10  1  0
  1 11  1  0
  2 12  1  0
  2 13  1  0
  3 14  1  0
  5 15  1  0
  5 16  1  0
  6 17  1  0
  8 18  1  0
  8 19  1  0
M  END
