
     RDKit          3D

 21 23  0  0  0  0  0  0  0  0999 V2000
   -0.5732    1.4563   -0.4794 C   0  0  0  0  0  0  0  0  0  0  0  0
    0.7006    1.2473    0.3380 C   0  0  0  0  0  0  0  0  0  0  0  0
    1.0439   -0.2083    0.2194 C   0  0  0  0  0  0  0  0  0  0  0  0
    2.3489   -0.7097   -0.1323 C   0  0  0  0  0  0  0  0  0  0  0  0
    1.5279   -0.4364   -1.1898 O   0  0  0  0  0  0  0  0  0  0  0  0
   -0.1422   -1.0721    0.4515 C   0  0  0  0  0  0  0  0  0  0  0  0
   -1.2604   -0.3098    1.1707 C   0  0  0  0  0  0  0  0  0  0  0  0
   -1.5312    0.3441   -0.1910 C   0  0  0  0  0  0  0  0  0  0  0  0
   -1.0343   -0.9663   -0.7926 C   0  0  0  0  0  0  0  0  0  0  0  0
   -1.0042    2.4434   -0.3530 H   0  0  0  0  0  0  0  0  0  0  0  0
   -0.2490    1.3402   -1.5496 H   0  0  0  0  0  0  0  0  0  0  0  0
    0.6002    1.6017    1.3619 H   0  0  0  0  0  0  0  0  0  0  0  0
    1.5416    1.8322   -0.1323 H   0  0  0  0  0  0  0  0  0  0  0  0
    3.2248   -0.0180   -0.0022 H   0  0  0  0  0  0  0  0  0  0  0  0
    2.5969   -1.7496    0.0486 H   0  0  0  0  0  0  0  0  0  0  0  0
    0.0060   -2.0931    0.7778 H   0  0  0  0  0  0  0  0  0  0  0  0
   -0.9288    0.3719    1.9522 H   0  0  0  0  0  0  0  0  0  0  0  0
   -2.0910   -0.9615    1.4447 H   0  0  0  0  0  0  0  0  0  0  0  0
   -2.5826    0.4987   -0.4274 H   0  0  0  0  0  0  0  0  0  0  0  0
   -1.8005   -1.7547   -0.8371 H   0  0  0  0  0  0  0  0  0  0  0  0
   -0.3936   -0.8563   -1.6783 H   0  0  0  0  0  0  0  0  0  0  0  0
  1  2  1  0
  2  3  1  0
  3  4  1  0
  4  5  1  0
  3  6  1  0
  6  7  1  0
  7  8  1  0
  8  9  1  0
  8  1  1  0
  5  3  1  0
  9  6  1  0
  1 10  1  0
  1 11  1  0
  2 12  1  0
  2 13  1  0
  4 14  1  0
  4 15  1  0
  6 16  1  0
  7 17  1  0
  7 18  1  0
  8 19  1  0
  9 20  1  0
  9 21  1  0
M  END
