
     RDKit          3D

 19 21  0  0  0  0  0  0  0  0999 V2000
   -1.8746    0.0961   -0.3433 C   0  0  0  0  0  0  0  0  0  0  0  0
   -1.0586    1.0905    0.4329 C   0  0  0  0  0  0  0  0  0  0  0  0
    0.3881    0.7803    0.5072 C   0  0  0  0  0  0  0  0  0  0  0  0
    0.7851   -0.3485    1.4268 C   0  0  0  0  0  0  0  0  0  0  0  0
    0.8429   -0.4959   -0.0257 C   0  0  0  0  0  0  0  0  0  0  0  0
   -0.1361   -1.2203   -0.8516 C   0  0  0  0  0  0  0  0  0  0  0  0
   -1.1330   -0.3776   -1.3943 O   0  0  0  0  0  0  0  0  0  0  0  0
    1.9883    0.2810   -0.6882 C   0  0  0  0  0  0  0  0  0  0  0  0
    1.3292    1.4437   -0.2271 O   0  0  0  0  0  0  0  0  0  0  0  0
   -2.7781    0.6205   -0.7314 H   0  0  0  0  0  0  0  0  0  0  0  0
   -2.1991   -0.7670    0.3095 H   0  0  0  0  0  0  0  0  0  0  0  0
   -1.2254    2.1414    0.1109 H   0  0  0  0  0  0  0  0  0  0  0  0
   -1.4665    1.0491    1.4870 H   0  0  0  0  0  0  0  0  0  0  0  0
    1.7175   -0.1376    1.9823 H   0  0  0  0  0  0  0  0  0  0  0  0
   -0.0106   -0.8523    1.9676 H   0  0  0  0  0  0  0  0  0  0  0  0
   -0.5723   -2.0628   -0.3177 H   0  0  0  0  0  0  0  0  0  0  0  0
    0.4005   -1.6243   -1.7595 H   0  0  0  0  0  0  0  0  0  0  0  0
    2.9511    0.2067   -0.1180 H   0  0  0  0  0  0  0  0  0  0  0  0
    2.0515    0.1768   -1.7672 H   0  0  0  0  0  0  0  0  0  0  0  0
  1  2  1  0
  2  3  1  0
  3  4  1  0
  4  5  1  0
  5  6  1  0
  6  7  1  0
  5  8  1  0
  8  9  1  0
  7  1  1  0
  5  3  1  0
  9  3  1  0
  1 10  1  0
  1 11  1  0
  2 12  1  0
  2 13  1  0
  4 14  1  0
  4 15  1  0
  6 16  1  0
  6 17  1  0
  8 18  1  0
  8 19  1  0
M  END
