
     RDKit          3D

 19 21  0  0  0  0  0  0  0  0999 V2000
    1.2167   -0.5735   -0.5926 C   0  0  0  0  0  0  0  0  0  0  0  0
    1.3052    0.8504   -0.1351 C   0  0  0  0  0  0  0  0  0  0  0  0
   -0.0184    1.2849    0.4347 C   0  0  0  0  0  0  0  0  0  0  0  0
   -0.2150    0.5765    1.6164 O   0  0  0  0  0  0  0  0  0  0  0  0
   -0.3439   -0.7697    1.3648 C   0  0  0  0  0  0  0  0  0  0  0  0
   -0.0971   -1.1372   -0.0820 C   0  0  0  0  0  0  0  0  0  0  0  0
   -1.1744   -0.4714   -0.9024 C   0  0  0  0  0  0  0  0  0  0  0  0
   -0.8972    0.5546   -1.7504 O   0  0  0  0  0  0  0  0  0  0  0  0
   -1.1804    0.9781   -0.4835 C   0  0  0  0  0  0  0  0  0  0  0  0
    2.0797   -1.1935   -0.3393 H   0  0  0  0  0  0  0  0  0  0  0  0
    1.1250   -0.5950   -1.7193 H   0  0  0  0  0  0  0  0  0  0  0  0
    2.0455    0.8884    0.7032 H   0  0  0  0  0  0  0  0  0  0  0  0
    1.6174    1.5182   -0.9596 H   0  0  0  0  0  0  0  0  0  0  0  0
    0.0365    2.3651    0.6195 H   0  0  0  0  0  0  0  0  0  0  0  0
   -1.4270   -1.0271    1.5590 H   0  0  0  0  0  0  0  0  0  0  0  0
    0.3162   -1.3514    2.0394 H   0  0  0  0  0  0  0  0  0  0  0  0
   -0.1498   -2.2185   -0.1870 H   0  0  0  0  0  0  0  0  0  0  0  0
   -2.0952   -1.0342   -1.0188 H   0  0  0  0  0  0  0  0  0  0  0  0
   -2.1438    1.3551   -0.1669 H   0  0  0  0  0  0  0  0  0  0  0  0
  1  2  1  0
  2  3  1  0
  3  4  1  0
  4  5  1  0
  5  6  1  0
  6  7  1  0
  7  8  1  0
  8  9  1  0
  6  1  1  0
  9  7  1  0
  9  3  1  0
  1 10  1  0
  1 11  1  0
  2 12  1  0
  2 13  1  0
  3 14  1  0
  5 15  1  0
  5 16  1  0
  6 17  1  0
  7 18  1  0
  9 19  1  0
M  END
