
     RDKit          3D

 19 22  0  0  0  0  0  0  0  0999 V2000
    1.5457    0.5347    0.9288 C   0  0  0  0  0  0  0  0  0  0  0  0
    2.4189    0.1043   -0.1885 C   0  0  0  0  0  0  0  0  0  0  0  0
    1.0709   -0.5795    0.0073 C   0  0  0  0  0  0  0  0  0  0  0  0
   -0.0040   -0.2122   -0.9864 C   0  0  0  0  0  0  0  0  0  0  0  0
   -0.1225   -1.3342   -1.7586 O   0  0  0  0  0  0  0  0  0  0  0  0
   -1.2674   -1.0223   -1.2313 C   0  0  0  0  0  0  0  0  0  0  0  0
   -1.7470   -0.6317    0.0848 C   0  0  0  0  0  0  0  0  0  0  0  0
   -1.3660    0.4735    0.9840 C   0  0  0  0  0  0  0  0  0  0  0  0
   -1.0612    0.6603   -0.4014 C   0  0  0  0  0  0  0  0  0  0  0  0
    1.0267    1.5159    0.8320 H   0  0  0  0  0  0  0  0  0  0  0  0
    1.7168    0.2255    1.9631 H   0  0  0  0  0  0  0  0  0  0  0  0
    2.5300    0.8389   -1.0114 H   0  0  0  0  0  0  0  0  0  0  0  0
    3.3319   -0.4591    0.1296 H   0  0  0  0  0  0  0  0  0  0  0  0
    1.1384   -1.6031    0.4314 H   0  0  0  0  0  0  0  0  0  0  0  0
   -1.8807   -0.5075   -2.0604 H   0  0  0  0  0  0  0  0  0  0  0  0
   -2.8770   -0.7080    0.1334 H   0  0  0  0  0  0  0  0  0  0  0  0
   -2.1027    1.2223    1.4065 H   0  0  0  0  0  0  0  0  0  0  0  0
   -0.6687    0.1710    1.7809 H   0  0  0  0  0  0  0  0  0  0  0  0
   -1.6822    1.3111   -1.0439 H   0  0  0  0  0  0  0  0  0  0  0  0
  1  2  1  0
  2  3  1  0
  3  4  1  0
  4  5  1  0
  5  6  1  0
  6  7  1  0
  7  8  1  0
  8  9  1  0
  3  1  1  0
  6  4  1  0
  9  7  1  0
  9  4  1  0
  1 10  1  0
  1 11  1  0
  2 12  1  0
  2 13  1  0
  3 14  1  0
  6 15  1  0
  7 16  1  0
  8 17  1  0
  8 18  1  0
  9 19  1  0
M  END
