
     RDKit          3D

 20 21  0  0  0  0  0  0  0  0999 V2000
    2.5315   -0.6718    1.0246 C   0  0  0  0  0  0  0  0  0  0  0  0
    1.3313    0.1098    1.5804 C   0  0  0  0  0  0  0  0  0  0  0  0
    0.6122   -0.3247    0.2956 C   0  0  0  0  0  0  0  0  0  0  0  0
   -0.2877    0.5754   -0.1997 O   0  0  0  0  0  0  0  0  0  0  0  0
   -1.5208    0.0135   -0.5163 C   0  0  0  0  0  0  0  0  0  0  0  0
   -2.7856    0.7496   -0.3242 C   0  0  0  0  0  0  0  0  0  0  0  0
   -2.2827    0.5032   -1.7150 C   0  0  0  0  0  0  0  0  0  0  0  0
    2.0023   -0.2517   -0.3541 C   0  0  0  0  0  0  0  0  0  0  0  0
    3.5056   -0.2718    1.2884 H   0  0  0  0  0  0  0  0  0  0  0  0
    2.3938   -1.7754    1.1069 H   0  0  0  0  0  0  0  0  0  0  0  0
    0.9111   -0.2855    2.5017 H   0  0  0  0  0  0  0  0  0  0  0  0
    1.5853    1.1839    1.5432 H   0  0  0  0  0  0  0  0  0  0  0  0
    0.2976   -1.3638    0.3956 H   0  0  0  0  0  0  0  0  0  0  0  0
   -1.5524   -1.0831   -0.3061 H   0  0  0  0  0  0  0  0  0  0  0  0
   -3.6682    0.1733    0.0527 H   0  0  0  0  0  0  0  0  0  0  0  0
   -2.8242    1.8077   -0.0343 H   0  0  0  0  0  0  0  0  0  0  0  0
   -1.9006    1.3523   -2.3078 H   0  0  0  0  0  0  0  0  0  0  0  0
   -2.7753   -0.2713   -2.3506 H   0  0  0  0  0  0  0  0  0  0  0  0
    2.1754   -0.9703   -1.1529 H   0  0  0  0  0  0  0  0  0  0  0  0
    2.2513    0.8007   -0.5281 H   0  0  0  0  0  0  0  0  0  0  0  0
  1  2  1  0
  2  3  1  0
  3  4  1  0
  4  5  1  0
  5  6  1  0
  6  7  1  0
  3  8  1  0
  8  1  1  0
  7  5  1  0
  1  9  1  0
  1 10  1  0
  2 11  1  0
  2 12  1  0
  3 13  1  0
  5 14  1  0
  6 15  1  0
  6 16  1  0
  7 17  1  0
  7 18  1  0
  8 19  1  0
  8 20  1  0
M  END
