
     RDKit          3D

 20 22  0  0  0  0  0  0  0  0999 V2000
    2.1971    0.4956    0.0231 C   0  0  0  0  0  0  0  0  0  0  0  0
    1.9041   -0.8323   -0.5502 C   0  0  0  0  0  0  0  0  0  0  0  0
    0.9879   -0.3147    0.5289 C   0  0  0  0  0  0  0  0  0  0  0  0
   -0.3011    0.2024    0.3902 C   0  0  0  0  0  0  0  0  0  0  0  0
   -1.3561   -0.7238    0.9619 C   0  0  0  0  0  0  0  0  0  0  0  0
   -2.1613   -0.5324   -0.3048 C   0  0  0  0  0  0  0  0  0  0  0  0
   -1.4803    0.8000   -0.1025 C   0  0  0  0  0  0  0  0  0  0  0  0
   -0.3289    1.2107   -0.6602 C   0  0  0  0  0  0  0  0  0  0  0  0
    1.9849    1.3682   -0.6383 H   0  0  0  0  0  0  0  0  0  0  0  0
    3.0586    0.6667    0.6720 H   0  0  0  0  0  0  0  0  0  0  0  0
    1.5462   -0.8776   -1.5983 H   0  0  0  0  0  0  0  0  0  0  0  0
    2.6540   -1.6180   -0.3376 H   0  0  0  0  0  0  0  0  0  0  0  0
    1.2626   -0.7975    1.5257 H   0  0  0  0  0  0  0  0  0  0  0  0
   -1.8399   -0.2260    1.8244 H   0  0  0  0  0  0  0  0  0  0  0  0
   -1.0966   -1.7721    1.0752 H   0  0  0  0  0  0  0  0  0  0  0  0
   -3.2380   -0.5636   -0.1190 H   0  0  0  0  0  0  0  0  0  0  0  0
   -1.7893   -1.1106   -1.1676 H   0  0  0  0  0  0  0  0  0  0  0  0
   -2.0755    1.4509    0.6072 H   0  0  0  0  0  0  0  0  0  0  0  0
   -0.0733    0.9706   -1.7362 H   0  0  0  0  0  0  0  0  0  0  0  0
    0.1449    2.2034   -0.3940 H   0  0  0  0  0  0  0  0  0  0  0  0
  1  2  1  0
  2  3  1  0
  3  4  1  0
  4  5  1  0
  5  6  1  0
  6  7  1  0
  7  8  1  0
  3  1  1  0
  7  4  1  0
  8  4  1  0
  1  9  1  0
  1 10  1  0
  2 11  1  0
  2 12  1  0
  3 13  1  0
  5 14  1  0
  5 15  1  0
  6 16  1  0
  6 17  1  0
  7 18  1  0
  8 19  1  0
  8 20  1  0
M  END
