
     RDKit          3D

 19 22  0  0  0  0  0  0  0  0999 V2000
   -1.8415   -0.6509    0.4425 C   0  0  0  0  0  0  0  0  0  0  0  0
   -1.8715    0.6038   -0.4522 C   0  0  0  0  0  0  0  0  0  0  0  0
   -0.4001    0.8608   -0.5549 C   0  0  0  0  0  0  0  0  0  0  0  0
    0.2108    0.5842    0.8001 C   0  0  0  0  0  0  0  0  0  0  0  0
   -0.3570   -0.7923    0.6136 C   0  0  0  0  0  0  0  0  0  0  0  0
    0.2770   -0.4751   -0.7170 C   0  0  0  0  0  0  0  0  0  0  0  0
    1.3954    0.1081    0.0485 C   0  0  0  0  0  0  0  0  0  0  0  0
    2.6326   -0.2772    0.3739 C   0  0  0  0  0  0  0  0  0  0  0  0
    2.3592    0.9193   -0.4686 O   0  0  0  0  0  0  0  0  0  0  0  0
   -2.3115   -1.4947   -0.0567 H   0  0  0  0  0  0  0  0  0  0  0  0
   -2.2841   -0.4414    1.4295 H   0  0  0  0  0  0  0  0  0  0  0  0
   -2.4180    1.4167    0.0306 H   0  0  0  0  0  0  0  0  0  0  0  0
   -2.2671    0.3021   -1.4408 H   0  0  0  0  0  0  0  0  0  0  0  0
   -0.0416    1.6962   -1.1171 H   0  0  0  0  0  0  0  0  0  0  0  0
    0.1518    1.1679    1.6095 H   0  0  0  0  0  0  0  0  0  0  0  0
    0.0331   -1.6049    1.1911 H   0  0  0  0  0  0  0  0  0  0  0  0
    0.2780   -1.0527   -1.5341 H   0  0  0  0  0  0  0  0  0  0  0  0
    3.1864    0.0959    1.2822 H   0  0  0  0  0  0  0  0  0  0  0  0
    3.2683   -0.9657   -0.2172 H   0  0  0  0  0  0  0  0  0  0  0  0
  1  2  1  0
  2  3  1  0
  3  4  1  0
  4  5  1  0
  5  6  1  0
  6  7  1  0
  7  8  1  0
  8  9  1  0
  5  1  1  0
  9  7  1  0
  6  3  1  0
  7  4  1  0
  1 10  1  0
  1 11  1  0
  2 12  1  0
  2 13  1  0
  3 14  1  0
  4 15  1  0
  5 16  1  0
  6 17  1  0
  8 18  1  0
  8 19  1  0
M  END
