
     RDKit          3D

 21 23  0  0  0  0  0  0  0  0999 V2000
   -2.2442   -0.5914    0.4685 C   0  0  0  0  0  0  0  0  0  0  0  0
   -1.9300    0.5403   -0.5039 C   0  0  0  0  0  0  0  0  0  0  0  0
   -0.5856    0.6609    0.1756 C   0  0  0  0  0  0  0  0  0  0  0  0
   -0.7846   -0.7220    0.7951 C   0  0  0  0  0  0  0  0  0  0  0  0
   -0.0561   -1.5992    0.0316 O   0  0  0  0  0  0  0  0  0  0  0  0
    0.9716   -0.9298   -0.5737 C   0  0  0  0  0  0  0  0  0  0  0  0
    2.1058   -0.4713    0.2811 C   0  0  0  0  0  0  0  0  0  0  0  0
    1.8475    0.9801   -0.1303 C   0  0  0  0  0  0  0  0  0  0  0  0
    0.5599    0.5047   -0.7580 C   0  0  0  0  0  0  0  0  0  0  0  0
   -2.8054   -0.2356    1.3696 H   0  0  0  0  0  0  0  0  0  0  0  0
   -2.7411   -1.4617    0.0327 H   0  0  0  0  0  0  0  0  0  0  0  0
   -2.5211    1.4665   -0.2895 H   0  0  0  0  0  0  0  0  0  0  0  0
   -1.9016    0.2462   -1.5628 H   0  0  0  0  0  0  0  0  0  0  0  0
   -0.5130    1.4028    0.9715 H   0  0  0  0  0  0  0  0  0  0  0  0
   -0.5213   -0.7974    1.8563 H   0  0  0  0  0  0  0  0  0  0  0  0
    1.3363   -1.4108   -1.5001 H   0  0  0  0  0  0  0  0  0  0  0  0
    3.1304   -0.7410   -0.0631 H   0  0  0  0  0  0  0  0  0  0  0  0
    2.0254   -0.6146    1.3605 H   0  0  0  0  0  0  0  0  0  0  0  0
    1.6841    1.6641    0.7402 H   0  0  0  0  0  0  0  0  0  0  0  0
    2.5310    1.3740   -0.8878 H   0  0  0  0  0  0  0  0  0  0  0  0
    0.4120    0.7353   -1.8136 H   0  0  0  0  0  0  0  0  0  0  0  0
  1  2  1  0
  2  3  1  0
  3  4  1  0
  4  5  1  0
  5  6  1  0
  6  7  1  0
  7  8  1  0
  8  9  1  0
  4  1  1  0
  9  6  1  0
  9  3  1  0
  1 10  1  0
  1 11  1  0
  2 12  1  0
  2 13  1  0
  3 14  1  0
  4 15  1  0
  6 16  1  0
  7 17  1  0
  7 18  1  0
  8 19  1  0
  8 20  1  0
  9 21  1  0
M  END
