
     RDKit          3D

 23 25  0  0  0  0  0  0  0  0999 V2000
   -1.0229   -0.9762    0.8326 C   0  0  0  0  0  0  0  0  0  0  0  0
   -2.0161   -0.0269    0.2098 C   0  0  0  0  0  0  0  0  0  0  0  0
   -1.1330    0.9002   -0.5880 C   0  0  0  0  0  0  0  0  0  0  0  0
   -0.1382    1.6801    0.2455 C   0  0  0  0  0  0  0  0  0  0  0  0
    0.9679    0.9973   -0.4968 C   0  0  0  0  0  0  0  0  0  0  0  0
    1.8780    0.1191    0.2995 C   0  0  0  0  0  0  0  0  0  0  0  0
    1.3798   -1.2941    0.1822 C   0  0  0  0  0  0  0  0  0  0  0  0
   -0.0435   -1.1950   -0.2937 C   0  0  0  0  0  0  0  0  0  0  0  0
   -0.0233    0.0612   -1.1194 C   0  0  0  0  0  0  0  0  0  0  0  0
   -0.4991   -0.5323    1.7008 H   0  0  0  0  0  0  0  0  0  0  0  0
   -1.4840   -1.9150    1.1933 H   0  0  0  0  0  0  0  0  0  0  0  0
   -2.6327   -0.5902   -0.5074 H   0  0  0  0  0  0  0  0  0  0  0  0
   -2.5986    0.5489    0.9274 H   0  0  0  0  0  0  0  0  0  0  0  0
   -1.6259    1.4786   -1.3834 H   0  0  0  0  0  0  0  0  0  0  0  0
   -0.2275    2.7801    0.0929 H   0  0  0  0  0  0  0  0  0  0  0  0
   -0.2317    1.4574    1.3204 H   0  0  0  0  0  0  0  0  0  0  0  0
    1.4419    1.6742   -1.2320 H   0  0  0  0  0  0  0  0  0  0  0  0
    2.8879    0.1629   -0.1912 H   0  0  0  0  0  0  0  0  0  0  0  0
    2.0337    0.4455    1.3383 H   0  0  0  0  0  0  0  0  0  0  0  0
    1.4523   -1.8232    1.1634 H   0  0  0  0  0  0  0  0  0  0  0  0
    1.9415   -1.8498   -0.6173 H   0  0  0  0  0  0  0  0  0  0  0  0
   -0.3812   -2.0549   -0.8785 H   0  0  0  0  0  0  0  0  0  0  0  0
    0.0749   -0.0478   -2.1985 H   0  0  0  0  0  0  0  0  0  0  0  0
  1  2  1  0
  2  3  1  0
  3  4  1  0
  4  5  1  0
  5  6  1  0
  6  7  1  0
  7  8  1  0
  8  9  1  0
  8  1  1  0
  9  3  1  0
  9  5  1  0
  1 10  1  0
  1 11  1  0
  2 12  1  0
  2 13  1  0
  3 14  1  0
  4 15  1  0
  4 16  1  0
  5 17  1  0
  6 18  1  0
  6 19  1  0
  7 20  1  0
  7 21  1  0
  8 22  1  0
  9 23  1  0
M  END
