
     RDKit          3D

 19 22  0  0  0  0  0  0  0  0999 V2000
    1.7719   -0.3202    0.8730 C   0  0  0  0  0  0  0  0  0  0  0  0
    2.0295    0.4768   -0.4021 C   0  0  0  0  0  0  0  0  0  0  0  0
    0.6786    0.0390   -0.0567 C   0  0  0  0  0  0  0  0  0  0  0  0
   -0.0361   -1.0835   -0.7197 C   0  0  0  0  0  0  0  0  0  0  0  0
   -1.4990   -0.7971   -0.4111 C   0  0  0  0  0  0  0  0  0  0  0  0
   -1.8726   -0.0494    0.8154 C   0  0  0  0  0  0  0  0  0  0  0  0
   -0.9669    0.7168    1.5082 O   0  0  0  0  0  0  0  0  0  0  0  0
   -0.3345    1.0979    0.3122 C   0  0  0  0  0  0  0  0  0  0  0  0
   -1.5519    0.6681   -0.4145 C   0  0  0  0  0  0  0  0  0  0  0  0
    2.1248   -1.3864    0.8560 H   0  0  0  0  0  0  0  0  0  0  0  0
    1.8912    0.1876    1.8503 H   0  0  0  0  0  0  0  0  0  0  0  0
    2.5445   -0.0188   -1.2317 H   0  0  0  0  0  0  0  0  0  0  0  0
    2.2935    1.5516   -0.2074 H   0  0  0  0  0  0  0  0  0  0  0  0
    0.2651   -2.0858   -0.4149 H   0  0  0  0  0  0  0  0  0  0  0  0
    0.0566   -0.9519   -1.8367 H   0  0  0  0  0  0  0  0  0  0  0  0
   -2.2842   -1.3380   -0.9292 H   0  0  0  0  0  0  0  0  0  0  0  0
   -2.9052   -0.1335    1.1544 H   0  0  0  0  0  0  0  0  0  0  0  0
   -0.0137    2.1335    0.2488 H   0  0  0  0  0  0  0  0  0  0  0  0
   -2.1912    1.2933   -0.9943 H   0  0  0  0  0  0  0  0  0  0  0  0
  1  2  1  0
  2  3  1  0
  3  4  1  0
  4  5  1  0
  5  6  1  0
  6  7  1  0
  7  8  1  0
  8  9  1  0
  3  1  1  0
  9  5  1  0
  8  3  1  0
  9  6  1  0
  1 10  1  0
  1 11  1  0
  2 12  1  0
  2 13  1  0
  4 14  1  0
  4 15  1  0
  5 16  1  0
  6 17  1  0
  8 18  1  0
  9 19  1  0
M  END
