
     RDKit          3D

 19 21  0  0  0  0  0  0  0  0999 V2000
    0.6935   -1.3804    0.0355 C   0  0  0  0  0  0  0  0  0  0  0  0
    1.3344   -0.0328    0.2230 C   0  0  0  0  0  0  0  0  0  0  0  0
    0.9200    1.0093   -0.7385 C   0  0  0  0  0  0  0  0  0  0  0  0
    0.9206    2.3418   -0.0275 O   0  0  0  0  0  0  0  0  0  0  0  0
   -0.2863    1.8144   -0.3530 C   0  0  0  0  0  0  0  0  0  0  0  0
   -1.0605    0.9747    0.5990 C   0  0  0  0  0  0  0  0  0  0  0  0
   -2.3399    0.5897    0.4269 O   0  0  0  0  0  0  0  0  0  0  0  0
   -1.5117   -0.2344   -0.2402 C   0  0  0  0  0  0  0  0  0  0  0  0
   -0.7832   -1.4043    0.3316 C   0  0  0  0  0  0  0  0  0  0  0  0
    1.1735   -2.0625    0.7880 H   0  0  0  0  0  0  0  0  0  0  0  0
    0.9534   -1.7945   -0.9530 H   0  0  0  0  0  0  0  0  0  0  0  0
    1.2969    0.2445    1.2865 H   0  0  0  0  0  0  0  0  0  0  0  0
    2.4358   -0.2136    0.0174 H   0  0  0  0  0  0  0  0  0  0  0  0
    1.4329    1.1863   -1.6949 H   0  0  0  0  0  0  0  0  0  0  0  0
   -0.8553    2.2236   -1.2234 H   0  0  0  0  0  0  0  0  0  0  0  0
   -0.6417    0.7820    1.6053 H   0  0  0  0  0  0  0  0  0  0  0  0
   -1.5141   -0.1741   -1.3220 H   0  0  0  0  0  0  0  0  0  0  0  0
   -1.1822   -2.3200   -0.1741 H   0  0  0  0  0  0  0  0  0  0  0  0
   -0.9861   -1.5498    1.4135 H   0  0  0  0  0  0  0  0  0  0  0  0
  1  2  1  0
  2  3  1  0
  3  4  1  0
  4  5  1  0
  5  6  1  0
  6  7  1  0
  7  8  1  0
  8  9  1  0
  9  1  1  0
  5  3  1  0
  8  6  1  0
  1 10  1  0
  1 11  1  0
  2 12  1  0
  2 13  1  0
  3 14  1  0
  5 15  1  0
  6 16  1  0
  8 17  1  0
  9 18  1  0
  9 19  1  0
M  END
