
     RDKit          3D

 19 21  0  0  0  0  0  0  0  0999 V2000
    0.9842    1.1910    0.6573 C   0  0  0  0  0  0  0  0  0  0  0  0
    1.8716    0.0822    0.2187 C   0  0  0  0  0  0  0  0  0  0  0  0
    1.1788   -1.1709   -0.1866 C   0  0  0  0  0  0  0  0  0  0  0  0
    0.3659   -1.1722   -1.3237 O   0  0  0  0  0  0  0  0  0  0  0  0
   -0.2036   -1.3308    0.0619 C   0  0  0  0  0  0  0  0  0  0  0  0
   -1.0284   -0.1459    0.3643 C   0  0  0  0  0  0  0  0  0  0  0  0
   -0.3491    1.1287   -0.0192 C   0  0  0  0  0  0  0  0  0  0  0  0
   -2.4795   -0.2330   -0.1216 C   0  0  0  0  0  0  0  0  0  0  0  0
   -2.1009   -0.1704    1.2149 O   0  0  0  0  0  0  0  0  0  0  0  0
    1.4458    2.1804    0.3737 H   0  0  0  0  0  0  0  0  0  0  0  0
    0.8799    1.2365    1.7681 H   0  0  0  0  0  0  0  0  0  0  0  0
    2.5504   -0.1691    1.0723 H   0  0  0  0  0  0  0  0  0  0  0  0
    2.5655    0.4215   -0.6051 H   0  0  0  0  0  0  0  0  0  0  0  0
    1.8392   -2.0814   -0.1355 H   0  0  0  0  0  0  0  0  0  0  0  0
   -0.6388   -2.3376    0.2038 H   0  0  0  0  0  0  0  0  0  0  0  0
   -0.9529    2.0214    0.1435 H   0  0  0  0  0  0  0  0  0  0  0  0
   -0.1497    1.0746   -1.1255 H   0  0  0  0  0  0  0  0  0  0  0  0
   -2.9585    0.6802   -0.5120 H   0  0  0  0  0  0  0  0  0  0  0  0
   -2.8200   -1.2052   -0.5451 H   0  0  0  0  0  0  0  0  0  0  0  0
  1  2  1  0
  2  3  1  0
  3  4  1  0
  4  5  1  0
  5  6  1  0
  6  7  1  0
  6  8  1  0
  8  9  1  0
  7  1  1  0
  5  3  1  0
  9  6  1  0
  1 10  1  0
  1 11  1  0
  2 12  1  0
  2 13  1  0
  3 14  1  0
  5 15  1  0
  7 16  1  0
  7 17  1  0
  8 18  1  0
  8 19  1  0
M  END
