
     RDKit          3D

 21 23  0  0  0  0  0  0  0  0999 V2000
    2.6697   -0.1433    0.3009 C   0  0  0  0  0  0  0  0  0  0  0  0
    2.1333    0.1893   -1.0957 C   0  0  0  0  0  0  0  0  0  0  0  0
    1.4610   -0.8055   -0.1872 C   0  0  0  0  0  0  0  0  0  0  0  0
    0.0850   -0.4795    0.2864 C   0  0  0  0  0  0  0  0  0  0  0  0
   -0.5271    0.8368    0.1616 C   0  0  0  0  0  0  0  0  0  0  0  0
   -1.8542    1.0332    0.8685 C   0  0  0  0  0  0  0  0  0  0  0  0
   -2.4007   -0.2463    0.8611 O   0  0  0  0  0  0  0  0  0  0  0  0
   -2.3210   -0.6627   -0.4759 C   0  0  0  0  0  0  0  0  0  0  0  0
   -0.9199   -0.2772   -0.8373 C   0  0  0  0  0  0  0  0  0  0  0  0
    3.6305   -0.7364    0.2946 H   0  0  0  0  0  0  0  0  0  0  0  0
    2.6769    0.6979    0.9986 H   0  0  0  0  0  0  0  0  0  0  0  0
    2.6782   -0.2077   -1.9727 H   0  0  0  0  0  0  0  0  0  0  0  0
    1.6859    1.1891   -1.2504 H   0  0  0  0  0  0  0  0  0  0  0  0
    1.5745   -1.8841   -0.5048 H   0  0  0  0  0  0  0  0  0  0  0  0
   -0.2393   -1.0957    1.1707 H   0  0  0  0  0  0  0  0  0  0  0  0
   -0.0224    1.7156   -0.2668 H   0  0  0  0  0  0  0  0  0  0  0  0
   -2.5345    1.6684    0.2528 H   0  0  0  0  0  0  0  0  0  0  0  0
   -1.7509    1.3988    1.8889 H   0  0  0  0  0  0  0  0  0  0  0  0
   -3.0885   -0.2211   -1.1127 H   0  0  0  0  0  0  0  0  0  0  0  0
   -2.3533   -1.7885   -0.4690 H   0  0  0  0  0  0  0  0  0  0  0  0
   -0.5835   -0.1813   -1.8633 H   0  0  0  0  0  0  0  0  0  0  0  0
  1  2  1  0
  2  3  1  0
  3  4  1  0
  4  5  1  0
  5  6  1  0
  6  7  1  0
  7  8  1  0
  8  9  1  0
  3  1  1  0
  9  4  1  0
  9  5  1  0
  1 10  1  0
  1 11  1  0
  2 12  1  0
  2 13  1  0
  3 14  1  0
  4 15  1  0
  5 16  1  0
  6 17  1  0
  6 18  1  0
  8 19  1  0
  8 20  1  0
  9 21  1  0
M  END
