
     RDKit          3D

 22 23  0  0  0  0  0  0  0  0999 V2000
    1.6409    0.5287    0.5247 C   0  0  0  0  0  0  0  0  0  0  0  0
    1.5666   -0.9580    0.4604 C   0  0  0  0  0  0  0  0  0  0  0  0
    0.2363   -1.5350    0.1860 C   0  0  0  0  0  0  0  0  0  0  0  0
   -0.7922   -0.7069   -0.4251 C   0  0  0  0  0  0  0  0  0  0  0  0
   -1.9508   -0.3615    0.5231 C   0  0  0  0  0  0  0  0  0  0  0  0
   -1.4396    1.0514    0.5989 C   0  0  0  0  0  0  0  0  0  0  0  0
   -0.5664    0.7291   -0.6161 C   0  0  0  0  0  0  0  0  0  0  0  0
    0.8236    1.2205   -0.5277 C   0  0  0  0  0  0  0  0  0  0  0  0
    1.3371    0.8951    1.5244 H   0  0  0  0  0  0  0  0  0  0  0  0
    2.7017    0.8463    0.3750 H   0  0  0  0  0  0  0  0  0  0  0  0
    1.9960   -1.3485    1.4120 H   0  0  0  0  0  0  0  0  0  0  0  0
    2.3097   -1.2877   -0.3264 H   0  0  0  0  0  0  0  0  0  0  0  0
   -0.1628   -1.9486    1.1614 H   0  0  0  0  0  0  0  0  0  0  0  0
    0.3940   -2.4714   -0.4312 H   0  0  0  0  0  0  0  0  0  0  0  0
   -1.2529   -1.1632   -1.3516 H   0  0  0  0  0  0  0  0  0  0  0  0
   -2.9435   -0.3862    0.0713 H   0  0  0  0  0  0  0  0  0  0  0  0
   -1.8621   -0.8924    1.5070 H   0  0  0  0  0  0  0  0  0  0  0  0
   -2.1819    1.8373    0.4422 H   0  0  0  0  0  0  0  0  0  0  0  0
   -0.8434    1.2723    1.5115 H   0  0  0  0  0  0  0  0  0  0  0  0
   -1.0787    1.1689   -1.5163 H   0  0  0  0  0  0  0  0  0  0  0  0
    1.2890    1.1995   -1.5294 H   0  0  0  0  0  0  0  0  0  0  0  0
    0.7793    2.3104   -0.2326 H   0  0  0  0  0  0  0  0  0  0  0  0
  1  2  1  0
  2  3  1  0
  3  4  1  0
  4  5  1  0
  5  6  1  0
  6  7  1  0
  7  8  1  0
  8  1  1  0
  7  4  1  0
  1  9  1  0
  1 10  1  0
  2 11  1  0
  2 12  1  0
  3 13  1  0
  3 14  1  0
  4 15  1  0
  5 16  1  0
  5 17  1  0
  6 18  1  0
  6 19  1  0
  7 20  1  0
  8 21  1  0
  8 22  1  0
M  END
