
     RDKit          3D

 23 25  0  0  0  0  0  0  0  0999 V2000
   -1.3001   -1.0574   -0.5518 C   0  0  0  0  0  0  0  0  0  0  0  0
   -1.2078   -0.9047    0.9720 C   0  0  0  0  0  0  0  0  0  0  0  0
   -0.1228    0.1241    1.1491 C   0  0  0  0  0  0  0  0  0  0  0  0
   -0.7254    1.4438    0.6382 C   0  0  0  0  0  0  0  0  0  0  0  0
   -0.7442    1.3072   -0.8857 C   0  0  0  0  0  0  0  0  0  0  0  0
   -0.2607   -0.0935   -1.1049 C   0  0  0  0  0  0  0  0  0  0  0  0
    0.7945   -0.1801    0.0062 C   0  0  0  0  0  0  0  0  0  0  0  0
    2.1319    0.3598   -0.1516 C   0  0  0  0  0  0  0  0  0  0  0  0
    1.8639   -1.1324   -0.0036 C   0  0  0  0  0  0  0  0  0  0  0  0
   -2.3230   -0.8214   -0.9167 H   0  0  0  0  0  0  0  0  0  0  0  0
   -1.0164   -2.1075   -0.7644 H   0  0  0  0  0  0  0  0  0  0  0  0
   -2.1832   -0.4920    1.3634 H   0  0  0  0  0  0  0  0  0  0  0  0
   -1.0222   -1.8499    1.4761 H   0  0  0  0  0  0  0  0  0  0  0  0
    0.3142    0.1946    2.1205 H   0  0  0  0  0  0  0  0  0  0  0  0
   -1.7849    1.5304    0.9440 H   0  0  0  0  0  0  0  0  0  0  0  0
   -0.1038    2.2990    0.9615 H   0  0  0  0  0  0  0  0  0  0  0  0
   -1.7390    1.4419   -1.3088 H   0  0  0  0  0  0  0  0  0  0  0  0
    0.0180    1.9889   -1.3427 H   0  0  0  0  0  0  0  0  0  0  0  0
    0.1100   -0.3337   -2.0794 H   0  0  0  0  0  0  0  0  0  0  0  0
    2.4141    0.7587   -1.1470 H   0  0  0  0  0  0  0  0  0  0  0  0
    2.5817    0.8922    0.7309 H   0  0  0  0  0  0  0  0  0  0  0  0
    2.0504   -1.6932   -0.9670 H   0  0  0  0  0  0  0  0  0  0  0  0
    2.2546   -1.6751    0.8617 H   0  0  0  0  0  0  0  0  0  0  0  0
  1  2  1  0
  2  3  1  0
  3  4  1  0
  4  5  1  0
  5  6  1  0
  6  7  1  0
  7  8  1  0
  8  9  1  0
  6  1  1  0
  9  7  1  0
  7  3  1  0
  1 10  1  0
  1 11  1  0
  2 12  1  0
  2 13  1  0
  3 14  1  0
  4 15  1  0
  4 16  1  0
  5 17  1  0
  5 18  1  0
  6 19  1  0
  8 20  1  0
  8 21  1  0
  9 22  1  0
  9 23  1  0
M  END
