
     RDKit          3D

 17 20  0  0  0  0  0  0  0  0999 V2000
   -1.8188   -0.5621    0.6147 C   0  0  0  0  0  0  0  0  0  0  0  0
   -1.7498    0.2654   -0.6609 C   0  0  0  0  0  0  0  0  0  0  0  0
   -0.9573    0.6712    0.5022 C   0  0  0  0  0  0  0  0  0  0  0  0
    0.5102    0.4307    0.6299 C   0  0  0  0  0  0  0  0  0  0  0  0
    1.0275   -0.1328    1.8017 O   0  0  0  0  0  0  0  0  0  0  0  0
    1.1353   -0.8617    0.6394 C   0  0  0  0  0  0  0  0  0  0  0  0
    2.1371   -0.4250   -0.4016 C   0  0  0  0  0  0  0  0  0  0  0  0
    1.6546    0.1411   -1.5678 O   0  0  0  0  0  0  0  0  0  0  0  0
    1.4633    0.9176   -0.4280 C   0  0  0  0  0  0  0  0  0  0  0  0
   -2.7077   -0.5150    1.2453 H   0  0  0  0  0  0  0  0  0  0  0  0
   -1.3777   -1.5581    0.5027 H   0  0  0  0  0  0  0  0  0  0  0  0
   -1.2791   -0.1538   -1.5536 H   0  0  0  0  0  0  0  0  0  0  0  0
   -2.6937    0.8086   -0.8646 H   0  0  0  0  0  0  0  0  0  0  0  0
   -1.3336    1.5553    1.0820 H   0  0  0  0  0  0  0  0  0  0  0  0
    0.6448   -1.8266    0.5174 H   0  0  0  0  0  0  0  0  0  0  0  0
    3.2087   -0.5282   -0.2314 H   0  0  0  0  0  0  0  0  0  0  0  0
    2.1361    1.7736   -0.2246 H   0  0  0  0  0  0  0  0  0  0  0  0
  1  2  1  0
  2  3  1  0
  3  4  1  0
  4  5  1  0
  5  6  1  0
  6  7  1  0
  7  8  1  0
  8  9  1  0
  3  1  1  0
  6  4  1  0
  9  7  1  0
  9  4  1  0
  1 10  1  0
  1 11  1  0
  2 12  1  0
  2 13  1  0
  3 14  1  0
  6 15  1  0
  7 16  1  0
  9 17  1  0
M  END
