
     RDKit          3D

 21 23  0  0  0  0  0  0  0  0999 V2000
   -2.4770    0.0049   -0.6640 C   0  0  0  0  0  0  0  0  0  0  0  0
   -1.9789   -0.0363    0.7783 C   0  0  0  0  0  0  0  0  0  0  0  0
   -0.6403   -0.3402    0.2593 C   0  0  0  0  0  0  0  0  0  0  0  0
   -1.0119    0.1008   -1.0985 C   0  0  0  0  0  0  0  0  0  0  0  0
    0.2266   -1.4274    0.6180 C   0  0  0  0  0  0  0  0  0  0  0  0
    0.6337    0.0618    0.8493 C   0  0  0  0  0  0  0  0  0  0  0  0
    1.6759    0.5731   -0.1070 C   0  0  0  0  0  0  0  0  0  0  0  0
    2.9723    1.0067    0.2998 C   0  0  0  0  0  0  0  0  0  0  0  0
    2.8338   -0.3890   -0.0801 O   0  0  0  0  0  0  0  0  0  0  0  0
   -2.8777   -0.9657   -1.0181 H   0  0  0  0  0  0  0  0  0  0  0  0
   -3.0814    0.8993   -0.9063 H   0  0  0  0  0  0  0  0  0  0  0  0
   -2.4881   -0.8318    1.3770 H   0  0  0  0  0  0  0  0  0  0  0  0
   -2.1368    0.9504    1.2797 H   0  0  0  0  0  0  0  0  0  0  0  0
   -0.7417   -0.5202   -1.9530 H   0  0  0  0  0  0  0  0  0  0  0  0
   -0.7099    1.1757   -1.2675 H   0  0  0  0  0  0  0  0  0  0  0  0
    0.0025   -2.0161    1.5280 H   0  0  0  0  0  0  0  0  0  0  0  0
    0.8551   -1.9885   -0.1069 H   0  0  0  0  0  0  0  0  0  0  0  0
    0.7560    0.3261    1.9025 H   0  0  0  0  0  0  0  0  0  0  0  0
    1.3861    0.6838   -1.1810 H   0  0  0  0  0  0  0  0  0  0  0  0
    3.6143    1.5576   -0.3916 H   0  0  0  0  0  0  0  0  0  0  0  0
    3.1873    1.1751    1.3766 H   0  0  0  0  0  0  0  0  0  0  0  0
  1  2  1  0
  2  3  1  0
  3  4  1  0
  3  5  1  0
  5  6  1  0
  6  7  1  0
  7  8  1  0
  8  9  1  0
  4  1  1  0
  9  7  1  0
  6  3  1  0
  1 10  1  0
  1 11  1  0
  2 12  1  0
  2 13  1  0
  4 14  1  0
  4 15  1  0
  5 16  1  0
  5 17  1  0
  6 18  1  0
  7 19  1  0
  8 20  1  0
  8 21  1  0
M  END
