
     RDKit          2D

 19 21  0  0  0  0  0  0  0  0999 V2000
    1.2760    0.0000    0.0000 C   0  0  0  0  0  0  0  0  0  0  0  0
    0.3943    1.2135    0.0000 C   0  0  0  0  0  0  0  0  0  0  0  0
   -1.0323    0.7500    0.0000 C   0  0  0  0  0  0  0  0  0  0  0  0
   -2.5323    0.7500    0.0000 C   0  0  0  0  0  0  0  0  0  0  0  0
   -2.5323   -0.7500    0.0000 C   0  0  0  0  0  0  0  0  0  0  0  0
   -3.2133    0.5865    0.0000 C   0  0  0  0  0  0  0  0  0  0  0  0
   -2.1526    1.6472    0.0000 O   0  0  0  0  0  0  0  0  0  0  0  0
   -1.0323   -0.7500    0.0000 C   0  0  0  0  0  0  0  0  0  0  0  0
    0.3943   -1.2135    0.0000 O   0  0  0  0  0  0  0  0  0  0  0  0
    2.3907    1.0037    0.0000 H   0  0  0  0  0  0  0  0  0  0  0  0
    2.3907   -1.0037    0.0000 H   0  0  0  0  0  0  0  0  0  0  0  0
   -0.2158    2.5838    0.0000 H   0  0  0  0  0  0  0  0  0  0  0  0
    1.6933    1.9635    0.0000 H   0  0  0  0  0  0  0  0  0  0  0  0
   -4.0323    0.7500    0.0000 H   0  0  0  0  0  0  0  0  0  0  0  0
   -2.8952    2.2054    0.0000 H   0  0  0  0  0  0  0  0  0  0  0  0
   -3.5929   -1.8107    0.0000 H   0  0  0  0  0  0  0  0  0  0  0  0
   -4.4713   -0.2304    0.0000 H   0  0  0  0  0  0  0  0  0  0  0  0
   -4.1573    1.7522    0.0000 H   0  0  0  0  0  0  0  0  0  0  0  0
   -1.2669   -2.2315    0.0000 H   0  0  0  0  0  0  0  0  0  0  0  0
  1  2  1  0
  2  3  1  0
  3  4  1  0
  4  5  1  0
  5  6  1  0
  6  7  1  0
  5  8  1  0
  8  9  1  0
  9  1  1  0
  7  3  1  0
  8  3  1  0
  1 10  1  0
  1 11  1  0
  2 12  1  0
  2 13  1  0
  4 14  1  0
  4 15  1  0
  5 16  1  0
  6 17  1  0
  6 18  1  0
  8 19  1  0
M  END
