
     RDKit          3D

 21 23  0  0  0  0  0  0  0  0999 V2000
   -2.0609    0.2412    0.5497 C   0  0  0  0  0  0  0  0  0  0  0  0
   -1.4962   -1.1225    0.1944 C   0  0  0  0  0  0  0  0  0  0  0  0
   -0.3829   -0.7733   -0.7734 C   0  0  0  0  0  0  0  0  0  0  0  0
    0.7522   -1.5188   -0.5826 O   0  0  0  0  0  0  0  0  0  0  0  0
    1.8514   -0.6982   -0.6852 C   0  0  0  0  0  0  0  0  0  0  0  0
    2.2176    0.0932    0.5892 C   0  0  0  0  0  0  0  0  0  0  0  0
    1.4299    0.7095   -0.4742 C   0  0  0  0  0  0  0  0  0  0  0  0
   -0.0475    0.6725   -0.5587 C   0  0  0  0  0  0  0  0  0  0  0  0
   -0.7632    1.0458    0.7056 C   0  0  0  0  0  0  0  0  0  0  0  0
   -2.6626    0.2421    1.4577 H   0  0  0  0  0  0  0  0  0  0  0  0
   -2.6406    0.6037   -0.3131 H   0  0  0  0  0  0  0  0  0  0  0  0
   -1.0529   -1.5291    1.1402 H   0  0  0  0  0  0  0  0  0  0  0  0
   -2.2516   -1.7873   -0.2287 H   0  0  0  0  0  0  0  0  0  0  0  0
   -0.8084   -0.8905   -1.7917 H   0  0  0  0  0  0  0  0  0  0  0  0
    2.6590   -0.9882   -1.3585 H   0  0  0  0  0  0  0  0  0  0  0  0
    1.7927   -0.3306    1.5140 H   0  0  0  0  0  0  0  0  0  0  0  0
    3.2817    0.3777    0.6609 H   0  0  0  0  0  0  0  0  0  0  0  0
    1.9147    1.5452   -1.0570 H   0  0  0  0  0  0  0  0  0  0  0  0
   -0.4216    1.2970   -1.3775 H   0  0  0  0  0  0  0  0  0  0  0  0
   -1.0430    2.1071    0.7637 H   0  0  0  0  0  0  0  0  0  0  0  0
   -0.2678    0.7037    1.6251 H   0  0  0  0  0  0  0  0  0  0  0  0
  1  2  1  0
  2  3  1  0
  3  4  1  0
  4  5  1  0
  5  6  1  0
  6  7  1  0
  7  8  1  0
  8  9  1  0
  9  1  1  0
  8  3  1  0
  7  5  1  0
  1 10  1  0
  1 11  1  0
  2 12  1  0
  2 13  1  0
  3 14  1  0
  5 15  1  0
  6 16  1  0
  6 17  1  0
  7 18  1  0
  8 19  1  0
  9 20  1  0
  9 21  1  0
M  END
