
     RDKit          3D

 17 19  0  0  0  0  0  0  0  0999 V2000
    2.6945   -0.2270    0.0983 C   0  0  0  0  0  0  0  0  0  0  0  0
    1.9169    0.8095   -0.3381 C   0  0  0  0  0  0  0  0  0  0  0  0
    0.6113    0.3994   -0.3197 C   0  0  0  0  0  0  0  0  0  0  0  0
    0.6479   -0.8947    0.1358 C   0  0  0  0  0  0  0  0  0  0  0  0
    1.8958   -1.2187    0.3683 O   0  0  0  0  0  0  0  0  0  0  0  0
   -0.7250   -1.3919    0.1780 C   0  0  0  0  0  0  0  0  0  0  0  0
   -1.6611   -0.2780   -0.0515 C   0  0  0  0  0  0  0  0  0  0  0  0
   -1.6190    1.0189    0.6333 C   0  0  0  0  0  0  0  0  0  0  0  0
   -0.7704    0.8251   -0.5991 C   0  0  0  0  0  0  0  0  0  0  0  0
    3.7600   -0.2440    0.2061 H   0  0  0  0  0  0  0  0  0  0  0  0
    2.2897    1.7742   -0.6395 H   0  0  0  0  0  0  0  0  0  0  0  0
   -0.8543   -2.1406   -0.6591 H   0  0  0  0  0  0  0  0  0  0  0  0
   -0.9062   -1.9773    1.1000 H   0  0  0  0  0  0  0  0  0  0  0  0
   -2.5923   -0.5406   -0.6249 H   0  0  0  0  0  0  0  0  0  0  0  0
   -1.1298    1.1794    1.6104 H   0  0  0  0  0  0  0  0  0  0  0  0
   -2.4845    1.6879    0.4673 H   0  0  0  0  0  0  0  0  0  0  0  0
   -1.0734    1.2185   -1.5656 H   0  0  0  0  0  0  0  0  0  0  0  0
  1  2  2  0
  2  3  1  0
  3  4  2  0
  4  5  1  0
  4  6  1  0
  6  7  1  0
  7  8  1  0
  8  9  1  0
  5  1  1  0
  9  7  1  0
  9  3  1  0
  1 10  1  0
  2 11  1  0
  6 12  1  0
  6 13  1  0
  7 14  1  0
  8 15  1  0
  8 16  1  0
  9 17  1  0
M  END
