
     RDKit          3D

 21 23  0  0  0  0  0  0  0  0999 V2000
    2.4023    0.5480   -0.0185 C   0  0  0  0  0  0  0  0  0  0  0  0
    1.5448   -0.1285    1.0325 C   0  0  0  0  0  0  0  0  0  0  0  0
    0.4921    0.2695    0.0808 C   0  0  0  0  0  0  0  0  0  0  0  0
    0.0638   -0.8225   -0.9187 C   0  0  0  0  0  0  0  0  0  0  0  0
   -1.4312   -0.6919   -0.7679 C   0  0  0  0  0  0  0  0  0  0  0  0
   -1.6185    0.7957   -0.7272 C   0  0  0  0  0  0  0  0  0  0  0  0
   -0.8333    0.6837    0.5904 C   0  0  0  0  0  0  0  0  0  0  0  0
   -1.5630   -0.6426    0.7597 C   0  0  0  0  0  0  0  0  0  0  0  0
    1.2644    1.2524   -0.4785 O   0  0  0  0  0  0  0  0  0  0  0  0
    3.1151    1.3053    0.3728 H   0  0  0  0  0  0  0  0  0  0  0  0
    2.7780   -0.1115   -0.8121 H   0  0  0  0  0  0  0  0  0  0  0  0
    1.5586    0.4142    1.9760 H   0  0  0  0  0  0  0  0  0  0  0  0
    1.7485   -1.2026    1.1777 H   0  0  0  0  0  0  0  0  0  0  0  0
    0.4106   -1.8046   -0.5856 H   0  0  0  0  0  0  0  0  0  0  0  0
    0.3347   -0.5427   -1.9375 H   0  0  0  0  0  0  0  0  0  0  0  0
   -2.0867   -1.3143   -1.3085 H   0  0  0  0  0  0  0  0  0  0  0  0
   -2.6289    1.1801   -0.6271 H   0  0  0  0  0  0  0  0  0  0  0  0
   -0.9733    1.3299   -1.4713 H   0  0  0  0  0  0  0  0  0  0  0  0
   -0.9665    1.4405    1.3111 H   0  0  0  0  0  0  0  0  0  0  0  0
   -0.9845   -1.4132    1.2905 H   0  0  0  0  0  0  0  0  0  0  0  0
   -2.6270   -0.5449    1.0617 H   0  0  0  0  0  0  0  0  0  0  0  0
  1  2  1  0
  2  3  1  0
  3  4  1  0
  4  5  1  0
  5  6  1  0
  6  7  1  0
  7  8  1  0
  3  9  1  0
  9  1  1  0
  7  3  1  0
  8  5  1  0
  1 10  1  0
  1 11  1  0
  2 12  1  0
  2 13  1  0
  4 14  1  0
  4 15  1  0
  5 16  1  0
  6 17  1  0
  6 18  1  0
  7 19  1  0
  8 20  1  0
  8 21  1  0
M  END
