
     RDKit          2D

 20 22  0  0  0  0  0  0  0  0999 V2000
   -2.1625   -2.1625    0.0000 C   0  0  0  0  0  0  0  0  0  0  0  0
   -0.6810   -2.3972    0.0000 C   0  0  0  0  0  0  0  0  0  0  0  0
   -0.0000   -1.0607    0.0000 C   0  0  0  0  0  0  0  0  0  0  0  0
    1.0607    0.0000    0.0000 C   0  0  0  0  0  0  0  0  0  0  0  0
    0.0000    1.0607    0.0000 C   0  0  0  0  0  0  0  0  0  0  0  0
   -2.1625    0.8005    0.0000 C   0  0  0  0  0  0  0  0  0  0  0  0
   -2.3972   -0.6810    0.0000 C   0  0  0  0  0  0  0  0  0  0  0  0
   -1.0607    0.0000    0.0000 C   0  0  0  0  0  0  0  0  0  0  0  0
   -2.2410   -3.6605    0.0000 H   0  0  0  0  0  0  0  0  0  0  0  0
   -3.6605   -2.2410    0.0000 H   0  0  0  0  0  0  0  0  0  0  0  0
    0.7194   -2.9347    0.0000 H   0  0  0  0  0  0  0  0  0  0  0  0
   -1.0692   -3.8461    0.0000 H   0  0  0  0  0  0  0  0  0  0  0  0
    1.2135   -1.9423    0.0000 H   0  0  0  0  0  0  0  0  0  0  0  0
    2.1213    1.0607    0.0000 H   0  0  0  0  0  0  0  0  0  0  0  0
    2.1213   -1.0607    0.0000 H   0  0  0  0  0  0  0  0  0  0  0  0
    0.0000    2.5607    0.0000 H   0  0  0  0  0  0  0  0  0  0  0  0
   -3.6441    1.0352    0.0000 H   0  0  0  0  0  0  0  0  0  0  0  0
   -1.9279    2.2821    0.0000 H   0  0  0  0  0  0  0  0  0  0  0  0
   -3.7337    0.0000    0.0000 H   0  0  0  0  0  0  0  0  0  0  0  0
   -0.6382   -0.6760    0.0000 H   0  0  0  0  0  0  0  0  0  0  0  0
  1  2  1  0
  2  3  1  0
  3  4  1  0
  4  5  1  0
  5  6  1  0
  6  7  1  0
  7  8  1  0
  7  1  1  0
  8  3  1  0
  8  5  1  0
  1  9  1  0
  1 10  1  0
  2 11  1  0
  2 12  1  0
  3 13  1  0
  4 14  1  0
  4 15  1  0
  5 16  1  0
  6 17  1  0
  6 18  1  0
  7 19  1  0
  8 20  1  0
M  END
