
     RDKit          3D

 23 25  0  0  0  0  0  0  0  0999 V2000
    1.5322    0.3724   -0.7609 C   0  0  0  0  0  0  0  0  0  0  0  0
    1.3231    0.9554    0.6273 C   0  0  0  0  0  0  0  0  0  0  0  0
   -0.1732    0.8071    0.9412 C   0  0  0  0  0  0  0  0  0  0  0  0
   -0.8436    1.2818   -0.3623 C   0  0  0  0  0  0  0  0  0  0  0  0
   -0.9215   -0.0893   -1.0466 C   0  0  0  0  0  0  0  0  0  0  0  0
   -1.6998   -0.7775    0.0890 C   0  0  0  0  0  0  0  0  0  0  0  0
   -0.5621   -0.6266    1.1158 C   0  0  0  0  0  0  0  0  0  0  0  0
    0.4631   -1.4682    0.3708 C   0  0  0  0  0  0  0  0  0  0  0  0
    0.4458   -0.6970   -0.9649 C   0  0  0  0  0  0  0  0  0  0  0  0
    1.4874    1.1127   -1.5589 H   0  0  0  0  0  0  0  0  0  0  0  0
    2.4977   -0.2140   -0.7826 H   0  0  0  0  0  0  0  0  0  0  0  0
    1.4738    2.0681    0.5221 H   0  0  0  0  0  0  0  0  0  0  0  0
    1.9555    0.5166    1.3881 H   0  0  0  0  0  0  0  0  0  0  0  0
   -0.4800    1.3949    1.7996 H   0  0  0  0  0  0  0  0  0  0  0  0
   -0.2324    1.9926   -0.9083 H   0  0  0  0  0  0  0  0  0  0  0  0
   -1.8367    1.6427   -0.0645 H   0  0  0  0  0  0  0  0  0  0  0  0
   -1.4117   -0.0948   -1.9833 H   0  0  0  0  0  0  0  0  0  0  0  0
   -2.5365   -0.1286    0.3318 H   0  0  0  0  0  0  0  0  0  0  0  0
   -1.9243   -1.8135   -0.1300 H   0  0  0  0  0  0  0  0  0  0  0  0
   -0.8095   -0.9586    2.0935 H   0  0  0  0  0  0  0  0  0  0  0  0
    0.1362   -2.5048    0.2259 H   0  0  0  0  0  0  0  0  0  0  0  0
    1.4266   -1.4135    0.8663 H   0  0  0  0  0  0  0  0  0  0  0  0
    0.6897   -1.3579   -1.8091 H   0  0  0  0  0  0  0  0  0  0  0  0
  1  2  1  0
  2  3  1  0
  3  4  1  0
  4  5  1  0
  5  6  1  0
  6  7  1  0
  7  8  1  0
  8  9  1  0
  9  1  1  0
  7  3  1  0
  9  5  1  0
  1 10  1  0
  1 11  1  0
  2 12  1  0
  2 13  1  0
  3 14  1  0
  4 15  1  0
  4 16  1  0
  5 17  1  0
  6 18  1  0
  6 19  1  0
  7 20  1  0
  8 21  1  0
  8 22  1  0
  9 23  1  0
M  END
