
     RDKit          3D

 20 22  0  0  0  0  0  0  0  0999 V2000
   -1.7190   -0.7849   -0.1570 C   0  0  0  0  0  0  0  0  0  0  0  0
   -1.7496    0.6070    0.5060 C   0  0  0  0  0  0  0  0  0  0  0  0
   -0.2711    0.8524    0.5753 C   0  0  0  0  0  0  0  0  0  0  0  0
    0.1503    0.5439   -0.8698 C   0  0  0  0  0  0  0  0  0  0  0  0
    1.6502    0.4715   -0.8339 C   0  0  0  0  0  0  0  0  0  0  0  0
    1.8204   -0.3091    0.4861 C   0  0  0  0  0  0  0  0  0  0  0  0
    0.3746   -0.4770    0.8498 C   0  0  0  0  0  0  0  0  0  0  0  0
   -0.2586   -0.8508   -0.4994 C   0  0  0  0  0  0  0  0  0  0  0  0
   -1.9024   -1.4982    0.6634 H   0  0  0  0  0  0  0  0  0  0  0  0
   -2.3929   -0.8529   -1.0017 H   0  0  0  0  0  0  0  0  0  0  0  0
   -2.2319    1.2692   -0.2567 H   0  0  0  0  0  0  0  0  0  0  0  0
   -2.2592    0.5904    1.4662 H   0  0  0  0  0  0  0  0  0  0  0  0
    0.1115    1.7354    1.0176 H   0  0  0  0  0  0  0  0  0  0  0  0
   -0.3473    1.0642   -1.6470 H   0  0  0  0  0  0  0  0  0  0  0  0
    1.9770   -0.1767   -1.6817 H   0  0  0  0  0  0  0  0  0  0  0  0
    2.1523    1.4405   -0.7977 H   0  0  0  0  0  0  0  0  0  0  0  0
    2.3459   -1.2405    0.2728 H   0  0  0  0  0  0  0  0  0  0  0  0
    2.3182    0.3484    1.2228 H   0  0  0  0  0  0  0  0  0  0  0  0
    0.0911   -1.0461    1.6976 H   0  0  0  0  0  0  0  0  0  0  0  0
    0.1404   -1.6867   -1.0127 H   0  0  0  0  0  0  0  0  0  0  0  0
  1  2  1  0
  2  3  1  0
  3  4  1  0
  4  5  1  0
  5  6  1  0
  6  7  1  0
  7  8  1  0
  8  1  1  0
  7  3  1  0
  8  4  1  0
  1  9  1  0
  1 10  1  0
  2 11  1  0
  2 12  1  0
  3 13  1  0
  4 14  1  0
  5 15  1  0
  5 16  1  0
  6 17  1  0
  6 18  1  0
  7 19  1  0
  8 20  1  0
M  END
