
     RDKit          3D

 18 20  0  0  0  0  0  0  0  0999 V2000
    1.9438    0.4548    0.2241 C   0  0  0  0  0  0  0  0  0  0  0  0
    1.6941   -0.8808   -0.5110 C   0  0  0  0  0  0  0  0  0  0  0  0
    0.3999   -0.1308   -0.8325 C   0  0  0  0  0  0  0  0  0  0  0  0
    0.5472    0.1245    0.7303 C   0  0  0  0  0  0  0  0  0  0  0  0
   -0.6783    0.1342    0.0253 C   0  0  0  0  0  0  0  0  0  0  0  0
   -1.8248   -0.7694    0.3063 C   0  0  0  0  0  0  0  0  0  0  0  0
   -2.4118    0.3342    0.9718 O   0  0  0  0  0  0  0  0  0  0  0  0
   -1.7117    1.1379    0.0360 C   0  0  0  0  0  0  0  0  0  0  0  0
    2.0108    1.2443   -0.5219 H   0  0  0  0  0  0  0  0  0  0  0  0
    2.7133    0.3757    0.9795 H   0  0  0  0  0  0  0  0  0  0  0  0
    1.5073   -1.7058    0.1754 H   0  0  0  0  0  0  0  0  0  0  0  0
    2.3438   -1.0427   -1.3616 H   0  0  0  0  0  0  0  0  0  0  0  0
    0.7058    0.7657   -1.4601 H   0  0  0  0  0  0  0  0  0  0  0  0
    0.6588   -0.8361    1.3322 H   0  0  0  0  0  0  0  0  0  0  0  0
   -2.4424   -0.9878   -0.5836 H   0  0  0  0  0  0  0  0  0  0  0  0
   -1.5433   -1.5999    0.9481 H   0  0  0  0  0  0  0  0  0  0  0  0
   -2.3886    1.2255   -0.8647 H   0  0  0  0  0  0  0  0  0  0  0  0
   -1.5238    2.1565    0.4063 H   0  0  0  0  0  0  0  0  0  0  0  0
  1  2  1  0
  2  3  1  0
  3  4  1  0
  4  5  1  0
  5  6  1  0
  6  7  1  0
  7  8  1  0
  4  1  1  0
  8  5  1  0
  5  3  1  0
  1  9  1  0
  1 10  1  0
  2 11  1  0
  2 12  1  0
  3 13  1  0
  4 14  1  0
  6 15  1  0
  6 16  1  0
  8 17  1  0
  8 18  1  0
M  END
