
     RDKit          3D

 19 21  0  0  0  0  0  0  0  0999 V2000
    1.6812   -0.2115   -0.3191 C   0  0  0  0  0  0  0  0  0  0  0  0
    1.1403    1.2064   -0.0571 C   0  0  0  0  0  0  0  0  0  0  0  0
   -0.2350    1.0140    0.4356 C   0  0  0  0  0  0  0  0  0  0  0  0
   -0.2466   -0.2443    1.2971 C   0  0  0  0  0  0  0  0  0  0  0  0
   -0.3401   -1.2647    0.1516 C   0  0  0  0  0  0  0  0  0  0  0  0
   -1.6111   -0.6861   -0.4963 C   0  0  0  0  0  0  0  0  0  0  0  0
   -1.2113    0.7200   -0.7171 C   0  0  0  0  0  0  0  0  0  0  0  0
   -1.3267    1.7236    0.1878 O   0  0  0  0  0  0  0  0  0  0  0  0
    0.6792   -1.0651   -0.7428 O   0  0  0  0  0  0  0  0  0  0  0  0
    2.4357   -0.1592   -1.1181 H   0  0  0  0  0  0  0  0  0  0  0  0
    2.2133   -0.5972    0.5862 H   0  0  0  0  0  0  0  0  0  0  0  0
    1.1463    1.6921   -1.0752 H   0  0  0  0  0  0  0  0  0  0  0  0
    1.8222    1.7440    0.6014 H   0  0  0  0  0  0  0  0  0  0  0  0
    0.6550   -0.3619    1.8815 H   0  0  0  0  0  0  0  0  0  0  0  0
   -1.1169   -0.2857    1.9486 H   0  0  0  0  0  0  0  0  0  0  0  0
   -0.4796   -2.2785    0.5052 H   0  0  0  0  0  0  0  0  0  0  0  0
   -2.4896   -0.8278    0.1545 H   0  0  0  0  0  0  0  0  0  0  0  0
   -1.7774   -1.1700   -1.4822 H   0  0  0  0  0  0  0  0  0  0  0  0
   -0.9389    1.0519   -1.7415 H   0  0  0  0  0  0  0  0  0  0  0  0
  1  2  1  0
  2  3  1  0
  3  4  1  0
  4  5  1  0
  5  6  1  0
  6  7  1  0
  7  8  1  0
  5  9  1  0
  9  1  1  0
  7  3  1  0
  8  3  1  0
  1 10  1  0
  1 11  1  0
  2 12  1  0
  2 13  1  0
  4 14  1  0
  4 15  1  0
  5 16  1  0
  6 17  1  0
  6 18  1  0
  7 19  1  0
M  END
