
     RDKit          3D

 19 21  0  0  0  0  0  0  0  0999 V2000
    1.4789   -0.5126   -0.3675 C   0  0  0  0  0  0  0  0  0  0  0  0
    0.4495   -1.2706    0.3933 C   0  0  0  0  0  0  0  0  0  0  0  0
   -0.8856   -0.5801    0.2499 C   0  0  0  0  0  0  0  0  0  0  0  0
   -1.6855   -0.5827   -0.9356 C   0  0  0  0  0  0  0  0  0  0  0  0
   -2.0547   -1.2867    0.3326 O   0  0  0  0  0  0  0  0  0  0  0  0
   -0.7404    0.7350    1.0007 C   0  0  0  0  0  0  0  0  0  0  0  0
    0.2101    1.5848    0.2108 C   0  0  0  0  0  0  0  0  0  0  0  0
    1.4669    1.7305    0.7369 O   0  0  0  0  0  0  0  0  0  0  0  0
    1.2994    0.9572   -0.4100 C   0  0  0  0  0  0  0  0  0  0  0  0
    2.4908   -0.8122    0.0064 H   0  0  0  0  0  0  0  0  0  0  0  0
    1.4455   -0.8920   -1.4228 H   0  0  0  0  0  0  0  0  0  0  0  0
    0.4372   -2.3184    0.0333 H   0  0  0  0  0  0  0  0  0  0  0  0
    0.6994   -1.2865    1.4844 H   0  0  0  0  0  0  0  0  0  0  0  0
   -1.6975   -1.3255   -1.7318 H   0  0  0  0  0  0  0  0  0  0  0  0
   -2.3623    0.2883   -1.1219 H   0  0  0  0  0  0  0  0  0  0  0  0
   -0.3136    0.4812    2.0131 H   0  0  0  0  0  0  0  0  0  0  0  0
   -1.7354    1.1788    1.1359 H   0  0  0  0  0  0  0  0  0  0  0  0
   -0.2834    2.4614   -0.3006 H   0  0  0  0  0  0  0  0  0  0  0  0
    1.7805    1.4501   -1.3071 H   0  0  0  0  0  0  0  0  0  0  0  0
  1  2  1  0
  2  3  1  0
  3  4  1  0
  4  5  1  0
  3  6  1  0
  6  7  1  0
  7  8  1  0
  8  9  1  0
  9  1  1  0
  5  3  1  0
  9  7  1  0
  1 10  1  0
  1 11  1  0
  2 12  1  0
  2 13  1  0
  4 14  1  0
  4 15  1  0
  6 16  1  0
  6 17  1  0
  7 18  1  0
  9 19  1  0
M  END
