
     RDKit          3D

 17 20  0  0  0  0  0  0  0  0999 V2000
   -1.6827    1.1460    0.2763 C   0  0  0  0  0  0  0  0  0  0  0  0
   -2.0200   -0.3265    0.0419 C   0  0  0  0  0  0  0  0  0  0  0  0
   -0.6261    0.1203    0.2879 C   0  0  0  0  0  0  0  0  0  0  0  0
    0.0765   -0.2424    1.3974 O   0  0  0  0  0  0  0  0  0  0  0  0
    1.3713   -0.5620    1.0444 C   0  0  0  0  0  0  0  0  0  0  0  0
    2.0152    0.3156    0.0026 C   0  0  0  0  0  0  0  0  0  0  0  0
    1.2343    1.0110   -0.9090 O   0  0  0  0  0  0  0  0  0  0  0  0
    0.2908    0.0013   -0.9185 C   0  0  0  0  0  0  0  0  0  0  0  0
    1.3277   -0.9216   -0.3512 C   0  0  0  0  0  0  0  0  0  0  0  0
   -1.7374    1.8393   -0.5878 H   0  0  0  0  0  0  0  0  0  0  0  0
   -2.1249    1.5428    1.1900 H   0  0  0  0  0  0  0  0  0  0  0  0
   -2.4090   -0.5249   -0.9694 H   0  0  0  0  0  0  0  0  0  0  0  0
   -2.4835   -0.9003    0.8589 H   0  0  0  0  0  0  0  0  0  0  0  0
    2.0286   -0.9558    1.8024 H   0  0  0  0  0  0  0  0  0  0  0  0
    3.1111    0.4263    0.0061 H   0  0  0  0  0  0  0  0  0  0  0  0
   -0.1734   -0.2635   -1.8617 H   0  0  0  0  0  0  0  0  0  0  0  0
    1.8018   -1.7058   -0.8863 H   0  0  0  0  0  0  0  0  0  0  0  0
  1  2  1  0
  2  3  1  0
  3  4  1  0
  4  5  1  0
  5  6  1  0
  6  7  1  0
  7  8  1  0
  8  9  1  0
  3  1  1  0
  9  5  1  0
  8  3  1  0
  9  6  1  0
  1 10  1  0
  1 11  1  0
  2 12  1  0
  2 13  1  0
  5 14  1  0
  6 15  1  0
  8 16  1  0
  9 17  1  0
M  END
