
     RDKit          3D

 20 22  0  0  0  0  0  0  0  0999 V2000
   -1.3509   -0.8497    0.6109 C   0  0  0  0  0  0  0  0  0  0  0  0
   -1.8559    0.4482   -0.0577 C   0  0  0  0  0  0  0  0  0  0  0  0
   -0.5655    1.1970   -0.1381 C   0  0  0  0  0  0  0  0  0  0  0  0
    0.7170    1.1359   -0.7746 C   0  0  0  0  0  0  0  0  0  0  0  0
    1.9489    0.4358   -0.1298 C   0  0  0  0  0  0  0  0  0  0  0  0
    1.1819   -0.5602    0.7698 C   0  0  0  0  0  0  0  0  0  0  0  0
    0.0125   -1.0355   -0.0257 C   0  0  0  0  0  0  0  0  0  0  0  0
   -0.0564    0.0474   -1.0668 C   0  0  0  0  0  0  0  0  0  0  0  0
   -1.2881   -0.7289    1.7048 H   0  0  0  0  0  0  0  0  0  0  0  0
   -1.9941   -1.6711    0.2966 H   0  0  0  0  0  0  0  0  0  0  0  0
   -2.5642    0.9967    0.5423 H   0  0  0  0  0  0  0  0  0  0  0  0
   -2.3291    0.2060   -1.0167 H   0  0  0  0  0  0  0  0  0  0  0  0
   -0.2738    1.2480    0.9553 H   0  0  0  0  0  0  0  0  0  0  0  0
    1.0469    1.8827   -1.5050 H   0  0  0  0  0  0  0  0  0  0  0  0
    2.5335    1.1387    0.4580 H   0  0  0  0  0  0  0  0  0  0  0  0
    2.4875   -0.1591   -0.8628 H   0  0  0  0  0  0  0  0  0  0  0  0
    1.8462   -1.4594    0.9395 H   0  0  0  0  0  0  0  0  0  0  0  0
    0.9688   -0.1528    1.7526 H   0  0  0  0  0  0  0  0  0  0  0  0
    0.1222   -2.0379   -0.4569 H   0  0  0  0  0  0  0  0  0  0  0  0
   -0.5876   -0.0815   -1.9956 H   0  0  0  0  0  0  0  0  0  0  0  0
  1  2  1  0
  2  3  1  0
  3  4  1  0
  4  5  1  0
  5  6  1  0
  6  7  1  0
  7  8  1  0
  7  1  1  0
  8  3  1  0
  8  4  1  0
  1  9  1  0
  1 10  1  0
  2 11  1  0
  2 12  1  0
  3 13  1  0
  4 14  1  0
  5 15  1  0
  5 16  1  0
  6 17  1  0
  6 18  1  0
  7 19  1  0
  8 20  1  0
M  END
