
     RDKit          3D

 21 23  0  0  0  0  0  0  0  0999 V2000
    1.9800    0.1140    0.3858 C   0  0  0  0  0  0  0  0  0  0  0  0
    1.3982   -0.7103   -0.7787 C   0  0  0  0  0  0  0  0  0  0  0  0
    0.1998    0.0824   -1.1005 C   0  0  0  0  0  0  0  0  0  0  0  0
   -0.8818   -0.5561   -1.6322 O   0  0  0  0  0  0  0  0  0  0  0  0
   -1.8629   -0.3868   -0.6806 C   0  0  0  0  0  0  0  0  0  0  0  0
   -1.5794    0.9631    0.0096 C   0  0  0  0  0  0  0  0  0  0  0  0
   -0.3299    0.2985    0.3332 C   0  0  0  0  0  0  0  0  0  0  0  0
    0.7509    0.6700    1.1282 C   0  0  0  0  0  0  0  0  0  0  0  0
   -1.1407   -0.9626    0.5526 C   0  0  0  0  0  0  0  0  0  0  0  0
    2.4615    0.9847   -0.0834 H   0  0  0  0  0  0  0  0  0  0  0  0
    2.6164   -0.4855    1.0306 H   0  0  0  0  0  0  0  0  0  0  0  0
    1.2177   -1.7298   -0.4457 H   0  0  0  0  0  0  0  0  0  0  0  0
    2.1521   -0.6558   -1.6055 H   0  0  0  0  0  0  0  0  0  0  0  0
    0.4609    1.0353   -1.5671 H   0  0  0  0  0  0  0  0  0  0  0  0
   -2.8653   -0.6613   -0.8400 H   0  0  0  0  0  0  0  0  0  0  0  0
   -1.4580    1.7931   -0.7306 H   0  0  0  0  0  0  0  0  0  0  0  0
   -2.3055    1.1265    0.8019 H   0  0  0  0  0  0  0  0  0  0  0  0
    0.8641    1.7513    1.3245 H   0  0  0  0  0  0  0  0  0  0  0  0
    0.7699    0.1750    2.1415 H   0  0  0  0  0  0  0  0  0  0  0  0
   -1.7813   -0.9371    1.4522 H   0  0  0  0  0  0  0  0  0  0  0  0
   -0.6668   -1.9084    0.3042 H   0  0  0  0  0  0  0  0  0  0  0  0
  1  2  1  0
  2  3  1  0
  3  4  1  0
  4  5  1  0
  5  6  1  0
  6  7  1  0
  7  8  1  0
  7  9  1  0
  8  1  1  0
  7  3  1  0
  9  5  1  0
  1 10  1  0
  1 11  1  0
  2 12  1  0
  2 13  1  0
  3 14  1  0
  5 15  1  0
  6 16  1  0
  6 17  1  0
  8 18  1  0
  8 19  1  0
  9 20  1  0
  9 21  1  0
M  END
