
     RDKit          3D

 23 25  0  0  0  0  0  0  0  0999 V2000
   -2.0009    0.3027   -0.0774 C   0  0  0  0  0  0  0  0  0  0  0  0
   -1.4764   -1.0668    0.2727 C   0  0  0  0  0  0  0  0  0  0  0  0
   -0.3875   -1.4186   -0.6638 C   0  0  0  0  0  0  0  0  0  0  0  0
    0.6243   -0.3889   -0.9541 C   0  0  0  0  0  0  0  0  0  0  0  0
    0.3651    0.9910   -0.5613 C   0  0  0  0  0  0  0  0  0  0  0  0
   -0.9147    1.3270    0.0802 C   0  0  0  0  0  0  0  0  0  0  0  0
    1.5133    1.0382    0.4202 C   0  0  0  0  0  0  0  0  0  0  0  0
    1.7494   -0.0583    1.3739 C   0  0  0  0  0  0  0  0  0  0  0  0
    1.8585   -0.3881   -0.0651 C   0  0  0  0  0  0  0  0  0  0  0  0
   -2.3082    0.2944   -1.1303 H   0  0  0  0  0  0  0  0  0  0  0  0
   -2.8620    0.6064    0.5375 H   0  0  0  0  0  0  0  0  0  0  0  0
   -1.2516   -1.1890    1.3426 H   0  0  0  0  0  0  0  0  0  0  0  0
   -2.3384   -1.7772    0.0860 H   0  0  0  0  0  0  0  0  0  0  0  0
    0.1123   -2.3522   -0.2685 H   0  0  0  0  0  0  0  0  0  0  0  0
   -0.8704   -1.7726   -1.6232 H   0  0  0  0  0  0  0  0  0  0  0  0
    0.9876   -0.4939   -2.0225 H   0  0  0  0  0  0  0  0  0  0  0  0
    0.5898    1.7209   -1.3934 H   0  0  0  0  0  0  0  0  0  0  0  0
   -0.7977    1.4964    1.1875 H   0  0  0  0  0  0  0  0  0  0  0  0
   -1.3490    2.2991   -0.2942 H   0  0  0  0  0  0  0  0  0  0  0  0
    2.2720    1.8140    0.3351 H   0  0  0  0  0  0  0  0  0  0  0  0
    0.9148   -0.4057    2.0062 H   0  0  0  0  0  0  0  0  0  0  0  0
    2.7096   -0.0436    1.9212 H   0  0  0  0  0  0  0  0  0  0  0  0
    2.8600   -0.5353   -0.5092 H   0  0  0  0  0  0  0  0  0  0  0  0
  1  2  1  0
  2  3  1  0
  3  4  1  0
  4  5  1  0
  5  6  1  0
  5  7  1  0
  7  8  1  0
  8  9  1  0
  6  1  1  0
  9  7  1  0
  9  4  1  0
  1 10  1  0
  1 11  1  0
  2 12  1  0
  2 13  1  0
  3 14  1  0
  3 15  1  0
  4 16  1  0
  5 17  1  0
  6 18  1  0
  6 19  1  0
  7 20  1  0
  8 21  1  0
  8 22  1  0
  9 23  1  0
M  END
