
     RDKit          3D

 21 23  0  0  0  0  0  0  0  0999 V2000
   -2.3062   -0.7611   -0.2558 C   0  0  0  0  0  0  0  0  0  0  0  0
   -2.4287    0.7168   -0.2490 C   0  0  0  0  0  0  0  0  0  0  0  0
   -1.1684    0.1410   -0.7250 C   0  0  0  0  0  0  0  0  0  0  0  0
   -0.0038    0.1899    0.2363 C   0  0  0  0  0  0  0  0  0  0  0  0
    0.6046   -1.1875    0.4485 C   0  0  0  0  0  0  0  0  0  0  0  0
    1.8338   -0.8773    0.9699 O   0  0  0  0  0  0  0  0  0  0  0  0
    2.3335    0.2267    0.3244 C   0  0  0  0  0  0  0  0  0  0  0  0
    2.1889    0.3193   -1.1564 C   0  0  0  0  0  0  0  0  0  0  0  0
    1.1616    0.9543   -0.3093 C   0  0  0  0  0  0  0  0  0  0  0  0
   -2.1978   -1.2885    0.7137 H   0  0  0  0  0  0  0  0  0  0  0  0
   -2.8227   -1.3397   -1.0623 H   0  0  0  0  0  0  0  0  0  0  0  0
   -3.1770    1.1515   -0.9473 H   0  0  0  0  0  0  0  0  0  0  0  0
   -2.4478    1.1920    0.7478 H   0  0  0  0  0  0  0  0  0  0  0  0
   -0.9514    0.1757   -1.8070 H   0  0  0  0  0  0  0  0  0  0  0  0
   -0.3060    0.5801    1.2279 H   0  0  0  0  0  0  0  0  0  0  0  0
   -0.0129   -1.7566    1.1663 H   0  0  0  0  0  0  0  0  0  0  0  0
    0.6401   -1.7739   -0.4869 H   0  0  0  0  0  0  0  0  0  0  0  0
    3.0300    0.9105    0.8435 H   0  0  0  0  0  0  0  0  0  0  0  0
    2.0303   -0.6404   -1.6715 H   0  0  0  0  0  0  0  0  0  0  0  0
    2.8907    1.0134   -1.6597 H   0  0  0  0  0  0  0  0  0  0  0  0
    1.1090    2.0536   -0.2530 H   0  0  0  0  0  0  0  0  0  0  0  0
  1  2  1  0
  2  3  1  0
  3  4  1  0
  4  5  1  0
  5  6  1  0
  6  7  1  0
  7  8  1  0
  8  9  1  0
  3  1  1  0
  9  4  1  0
  9  7  1  0
  1 10  1  0
  1 11  1  0
  2 12  1  0
  2 13  1  0
  3 14  1  0
  4 15  1  0
  5 16  1  0
  5 17  1  0
  7 18  1  0
  8 19  1  0
  8 20  1  0
  9 21  1  0
M  END
