
     RDKit          3D

 21 23  0  0  0  0  0  0  0  0999 V2000
    0.5394    1.4713   -0.1174 C   0  0  0  0  0  0  0  0  0  0  0  0
   -0.4592    0.9873    0.8938 C   0  0  0  0  0  0  0  0  0  0  0  0
   -1.1988   -0.1676    0.3055 C   0  0  0  0  0  0  0  0  0  0  0  0
   -2.5704   -0.3560    0.3044 C   0  0  0  0  0  0  0  0  0  0  0  0
   -1.8604    0.1489   -0.9021 O   0  0  0  0  0  0  0  0  0  0  0  0
   -0.1951   -1.3125    0.2481 C   0  0  0  0  0  0  0  0  0  0  0  0
    0.8724   -0.9558   -0.7148 C   0  0  0  0  0  0  0  0  0  0  0  0
    2.1986   -0.4664   -0.2228 C   0  0  0  0  0  0  0  0  0  0  0  0
    1.1798    0.4313   -0.9323 C   0  0  0  0  0  0  0  0  0  0  0  0
    0.0097    2.1889   -0.8102 H   0  0  0  0  0  0  0  0  0  0  0  0
    1.3236    2.1007    0.3755 H   0  0  0  0  0  0  0  0  0  0  0  0
   -1.1034    1.8088    1.2395 H   0  0  0  0  0  0  0  0  0  0  0  0
    0.1185    0.6005    1.7773 H   0  0  0  0  0  0  0  0  0  0  0  0
   -3.0269   -1.3252    0.0209 H   0  0  0  0  0  0  0  0  0  0  0  0
   -3.2840    0.3909    0.7113 H   0  0  0  0  0  0  0  0  0  0  0  0
   -0.7047   -2.2617    0.0478 H   0  0  0  0  0  0  0  0  0  0  0  0
    0.2294   -1.3895    1.2788 H   0  0  0  0  0  0  0  0  0  0  0  0
    0.9318   -1.6456   -1.6073 H   0  0  0  0  0  0  0  0  0  0  0  0
    3.1179   -0.7470   -0.7763 H   0  0  0  0  0  0  0  0  0  0  0  0
    2.3719   -0.2515    0.8331 H   0  0  0  0  0  0  0  0  0  0  0  0
    1.5102    0.7501   -1.9527 H   0  0  0  0  0  0  0  0  0  0  0  0
  1  2  1  0
  2  3  1  0
  3  4  1  0
  4  5  1  0
  3  6  1  0
  6  7  1  0
  7  8  1  0
  8  9  1  0
  9  1  1  0
  5  3  1  0
  9  7  1  0
  1 10  1  0
  1 11  1  0
  2 12  1  0
  2 13  1  0
  4 14  1  0
  4 15  1  0
  6 16  1  0
  6 17  1  0
  7 18  1  0
  8 19  1  0
  8 20  1  0
  9 21  1  0
M  END
