
     RDKit          3D

 19 21  0  0  0  0  0  0  0  0999 V2000
   -0.9477   -1.0714   -0.7202 C   0  0  0  0  0  0  0  0  0  0  0  0
   -1.7647    0.1550   -0.4010 C   0  0  0  0  0  0  0  0  0  0  0  0
   -0.8394    1.0838    0.3252 C   0  0  0  0  0  0  0  0  0  0  0  0
    0.1895    1.6155   -0.4392 O   0  0  0  0  0  0  0  0  0  0  0  0
    1.1596    0.9922    0.3650 C   0  0  0  0  0  0  0  0  0  0  0  0
    1.9514   -0.0122   -0.3960 C   0  0  0  0  0  0  0  0  0  0  0  0
    1.3964   -1.2485   -0.2311 O   0  0  0  0  0  0  0  0  0  0  0  0
    0.1498   -1.1265    0.3190 C   0  0  0  0  0  0  0  0  0  0  0  0
    0.1026    0.1740    1.0387 C   0  0  0  0  0  0  0  0  0  0  0  0
   -0.5523   -1.0738   -1.7571 H   0  0  0  0  0  0  0  0  0  0  0  0
   -1.5787   -1.9947   -0.6048 H   0  0  0  0  0  0  0  0  0  0  0  0
   -2.1663    0.6555   -1.2931 H   0  0  0  0  0  0  0  0  0  0  0  0
   -2.5692   -0.1351    0.3177 H   0  0  0  0  0  0  0  0  0  0  0  0
   -1.2907    1.8591    0.9471 H   0  0  0  0  0  0  0  0  0  0  0  0
    1.7313    1.6919    1.0066 H   0  0  0  0  0  0  0  0  0  0  0  0
    3.0433   -0.0014   -0.1441 H   0  0  0  0  0  0  0  0  0  0  0  0
    1.9015    0.2596   -1.4821 H   0  0  0  0  0  0  0  0  0  0  0  0
    0.0056   -1.9915    1.0212 H   0  0  0  0  0  0  0  0  0  0  0  0
    0.0782    0.1683    2.1282 H   0  0  0  0  0  0  0  0  0  0  0  0
  1  2  1  0
  2  3  1  0
  3  4  1  0
  4  5  1  0
  5  6  1  0
  6  7  1  0
  7  8  1  0
  8  9  1  0
  8  1  1  0
  9  3  1  0
  9  5  1  0
  1 10  1  0
  1 11  1  0
  2 12  1  0
  2 13  1  0
  3 14  1  0
  5 15  1  0
  6 16  1  0
  6 17  1  0
  8 18  1  0
  9 19  1  0
M  END
