
     RDKit          3D

 21 23  0  0  0  0  0  0  0  0999 V2000
    2.2013    0.0280    0.0925 C   0  0  0  0  0  0  0  0  0  0  0  0
    1.2147   -1.1000    0.2544 C   0  0  0  0  0  0  0  0  0  0  0  0
    0.2266   -0.1780    0.9686 C   0  0  0  0  0  0  0  0  0  0  0  0
    1.2042    0.9379    0.7658 C   0  0  0  0  0  0  0  0  0  0  0  0
    0.6812    1.8562   -0.0799 O   0  0  0  0  0  0  0  0  0  0  0  0
   -0.5773    1.5053   -0.4621 C   0  0  0  0  0  0  0  0  0  0  0  0
   -0.9090    0.1586    0.0943 C   0  0  0  0  0  0  0  0  0  0  0  0
   -2.2636   -0.3294    0.1859 C   0  0  0  0  0  0  0  0  0  0  0  0
   -1.3617   -0.9549   -0.8255 C   0  0  0  0  0  0  0  0  0  0  0  0
    3.1227   -0.1850    0.6409 H   0  0  0  0  0  0  0  0  0  0  0  0
    2.4374    0.2982   -0.9736 H   0  0  0  0  0  0  0  0  0  0  0  0
    0.8773   -1.4382   -0.7479 H   0  0  0  0  0  0  0  0  0  0  0  0
    1.5471   -1.9621    0.8473 H   0  0  0  0  0  0  0  0  0  0  0  0
    0.0191   -0.4796    2.0043 H   0  0  0  0  0  0  0  0  0  0  0  0
    1.6619    1.3625    1.6920 H   0  0  0  0  0  0  0  0  0  0  0  0
   -1.2852    2.3100   -0.1197 H   0  0  0  0  0  0  0  0  0  0  0  0
   -0.6171    1.4597   -1.5691 H   0  0  0  0  0  0  0  0  0  0  0  0
   -3.0712    0.3346   -0.2413 H   0  0  0  0  0  0  0  0  0  0  0  0
   -2.6671   -0.9534    1.0115 H   0  0  0  0  0  0  0  0  0  0  0  0
   -1.3659   -0.6639   -1.8776 H   0  0  0  0  0  0  0  0  0  0  0  0
   -1.0751   -2.0066   -0.5842 H   0  0  0  0  0  0  0  0  0  0  0  0
  1  2  1  0
  2  3  1  0
  3  4  1  0
  4  5  1  0
  5  6  1  0
  6  7  1  0
  7  8  1  0
  8  9  1  0
  4  1  1  0
  9  7  1  0
  7  3  1  0
  1 10  1  0
  1 11  1  0
  2 12  1  0
  2 13  1  0
  3 14  1  0
  4 15  1  0
  6 16  1  0
  6 17  1  0
  8 18  1  0
  8 19  1  0
  9 20  1  0
  9 21  1  0
M  END
