
     RDKit          3D

 19 21  0  0  0  0  0  0  0  0999 V2000
    1.6701   -0.2236    0.8844 C   0  0  0  0  0  0  0  0  0  0  0  0
    1.6845   -0.1418   -0.6505 C   0  0  0  0  0  0  0  0  0  0  0  0
    0.2962    0.3542   -1.0278 C   0  0  0  0  0  0  0  0  0  0  0  0
   -0.4543   -0.8081   -1.3435 O   0  0  0  0  0  0  0  0  0  0  0  0
   -1.3376   -0.8925   -0.3103 C   0  0  0  0  0  0  0  0  0  0  0  0
   -1.8975    0.5393   -0.2443 C   0  0  0  0  0  0  0  0  0  0  0  0
   -0.4490    0.8275    0.1770 C   0  0  0  0  0  0  0  0  0  0  0  0
   -0.5884   -0.4629    0.9612 C   0  0  0  0  0  0  0  0  0  0  0  0
    0.6010   -1.0962    1.1771 O   0  0  0  0  0  0  0  0  0  0  0  0
    2.6231   -0.5751    1.2803 H   0  0  0  0  0  0  0  0  0  0  0  0
    1.4865    0.7949    1.2825 H   0  0  0  0  0  0  0  0  0  0  0  0
    1.8493   -1.1963   -0.9762 H   0  0  0  0  0  0  0  0  0  0  0  0
    2.4820    0.5206   -1.0145 H   0  0  0  0  0  0  0  0  0  0  0  0
    0.3371    1.0552   -1.8590 H   0  0  0  0  0  0  0  0  0  0  0  0
   -2.0332   -1.6872   -0.2196 H   0  0  0  0  0  0  0  0  0  0  0  0
   -2.1961    0.9591   -1.1955 H   0  0  0  0  0  0  0  0  0  0  0  0
   -2.5696    0.6357    0.6176 H   0  0  0  0  0  0  0  0  0  0  0  0
   -0.2326    1.7276    0.6648 H   0  0  0  0  0  0  0  0  0  0  0  0
   -1.2716   -0.3303    1.7963 H   0  0  0  0  0  0  0  0  0  0  0  0
  1  2  1  0
  2  3  1  0
  3  4  1  0
  4  5  1  0
  5  6  1  0
  6  7  1  0
  7  8  1  0
  8  9  1  0
  9  1  1  0
  7  3  1  0
  8  5  1  0
  1 10  1  0
  1 11  1  0
  2 12  1  0
  2 13  1  0
  3 14  1  0
  5 15  1  0
  6 16  1  0
  6 17  1  0
  7 18  1  0
  8 19  1  0
M  END
