
     RDKit          3D

 23 25  0  0  0  0  0  0  0  0999 V2000
   -0.1541    1.5543    0.1374 C   0  0  0  0  0  0  0  0  0  0  0  0
   -1.4030    1.0149    0.7358 C   0  0  0  0  0  0  0  0  0  0  0  0
   -1.5571   -0.4480    0.7912 C   0  0  0  0  0  0  0  0  0  0  0  0
   -1.8922   -1.2490   -0.4467 C   0  0  0  0  0  0  0  0  0  0  0  0
   -0.5420   -1.3099    0.2761 C   0  0  0  0  0  0  0  0  0  0  0  0
    0.5797   -0.7802   -0.5020 C   0  0  0  0  0  0  0  0  0  0  0  0
    1.9358   -0.7655    0.1645 C   0  0  0  0  0  0  0  0  0  0  0  0
    2.1225    0.6317   -0.4133 C   0  0  0  0  0  0  0  0  0  0  0  0
    0.6228    0.6790   -0.7428 C   0  0  0  0  0  0  0  0  0  0  0  0
   -0.4422    2.4923   -0.4194 H   0  0  0  0  0  0  0  0  0  0  0  0
    0.5351    1.9596    0.9367 H   0  0  0  0  0  0  0  0  0  0  0  0
   -1.4915    1.4329    1.7656 H   0  0  0  0  0  0  0  0  0  0  0  0
   -2.3196    1.4153    0.2030 H   0  0  0  0  0  0  0  0  0  0  0  0
   -2.1461   -0.8281    1.6814 H   0  0  0  0  0  0  0  0  0  0  0  0
   -1.9440   -0.7465   -1.4264 H   0  0  0  0  0  0  0  0  0  0  0  0
   -2.5254   -2.1493   -0.3844 H   0  0  0  0  0  0  0  0  0  0  0  0
   -0.3319   -2.2819    0.8065 H   0  0  0  0  0  0  0  0  0  0  0  0
    0.6686   -1.3550   -1.4627 H   0  0  0  0  0  0  0  0  0  0  0  0
    1.9030   -0.8222    1.2561 H   0  0  0  0  0  0  0  0  0  0  0  0
    2.6909   -1.4481   -0.2785 H   0  0  0  0  0  0  0  0  0  0  0  0
    2.7916    0.6949   -1.2675 H   0  0  0  0  0  0  0  0  0  0  0  0
    2.3680    1.3536    0.4111 H   0  0  0  0  0  0  0  0  0  0  0  0
    0.5312    0.9552   -1.8219 H   0  0  0  0  0  0  0  0  0  0  0  0
  1  2  1  0
  2  3  1  0
  3  4  1  0
  4  5  1  0
  5  6  1  0
  6  7  1  0
  7  8  1  0
  8  9  1  0
  9  1  1  0
  5  3  1  0
  9  6  1  0
  1 10  1  0
  1 11  1  0
  2 12  1  0
  2 13  1  0
  3 14  1  0
  4 15  1  0
  4 16  1  0
  5 17  1  0
  6 18  1  0
  7 19  1  0
  7 20  1  0
  8 21  1  0
  8 22  1  0
  9 23  1  0
M  END
