
     RDKit          3D

 17 18  0  0  0  0  0  0  0  0999 V2000
   -1.9221   -0.2332    0.1894 C   0  0  0  0  0  0  0  0  0  0  0  0
   -0.6797   -0.9266   -0.3857 C   0  0  0  0  0  0  0  0  0  0  0  0
    0.1432    0.0220    0.4147 C   0  0  0  0  0  0  0  0  0  0  0  0
   -1.0383    0.7737    0.9136 C   0  0  0  0  0  0  0  0  0  0  0  0
    1.2091    0.7839   -0.2913 C   0  0  0  0  0  0  0  0  0  0  0  0
    2.0313   -0.3357    0.3530 C   0  0  0  0  0  0  0  0  0  0  0  0
    1.0181   -0.4945    1.3276 O   0  0  0  0  0  0  0  0  0  0  0  0
   -2.5737    0.1935   -0.5909 H   0  0  0  0  0  0  0  0  0  0  0  0
   -2.4409   -0.8510    0.9580 H   0  0  0  0  0  0  0  0  0  0  0  0
   -0.5993   -0.8705   -1.4845 H   0  0  0  0  0  0  0  0  0  0  0  0
   -0.6003   -1.9996   -0.0634 H   0  0  0  0  0  0  0  0  0  0  0  0
   -1.0578    1.8009    0.4595 H   0  0  0  0  0  0  0  0  0  0  0  0
   -1.1145    0.7782    2.0007 H   0  0  0  0  0  0  0  0  0  0  0  0
    1.4029    1.7857    0.1043 H   0  0  0  0  0  0  0  0  0  0  0  0
    1.1822    0.7619   -1.3878 H   0  0  0  0  0  0  0  0  0  0  0  0
    2.9457   -0.0181    0.8467 H   0  0  0  0  0  0  0  0  0  0  0  0
    2.0940   -1.1706   -0.3686 H   0  0  0  0  0  0  0  0  0  0  0  0
  1  2  1  0
  2  3  1  0
  3  4  1  0
  3  5  1  0
  5  6  1  0
  6  7  1  0
  4  1  1  0
  7  3  1  0
  1  8  1  0
  1  9  1  0
  2 10  1  0
  2 11  1  0
  4 12  1  0
  4 13  1  0
  5 14  1  0
  5 15  1  0
  6 16  1  0
  6 17  1  0
M  END
