
     RDKit          3D

 21 23  0  0  0  0  0  0  0  0999 V2000
   -1.5934    0.2746    0.4384 C   0  0  0  0  0  0  0  0  0  0  0  0
   -1.5285   -1.2105    0.0783 C   0  0  0  0  0  0  0  0  0  0  0  0
   -0.1490   -1.1963   -0.5992 C   0  0  0  0  0  0  0  0  0  0  0  0
   -0.3922   -0.1702   -1.5120 O   0  0  0  0  0  0  0  0  0  0  0  0
   -0.8505    0.8872   -0.7268 C   0  0  0  0  0  0  0  0  0  0  0  0
    0.4240    1.5517   -0.1976 C   0  0  0  0  0  0  0  0  0  0  0  0
    1.1105    0.5634    0.6794 C   0  0  0  0  0  0  0  0  0  0  0  0
    2.1727   -0.2681    0.0076 C   0  0  0  0  0  0  0  0  0  0  0  0
    0.8746   -0.8418    0.4245 C   0  0  0  0  0  0  0  0  0  0  0  0
   -1.0397    0.4624    1.3930 H   0  0  0  0  0  0  0  0  0  0  0  0
   -2.6330    0.5859    0.5165 H   0  0  0  0  0  0  0  0  0  0  0  0
   -1.5644   -1.8586    0.9427 H   0  0  0  0  0  0  0  0  0  0  0  0
   -2.2722   -1.3781   -0.6987 H   0  0  0  0  0  0  0  0  0  0  0  0
    0.0503   -2.1352   -1.1294 H   0  0  0  0  0  0  0  0  0  0  0  0
   -1.4798    1.5949   -1.2794 H   0  0  0  0  0  0  0  0  0  0  0  0
    0.2239    2.5239    0.2551 H   0  0  0  0  0  0  0  0  0  0  0  0
    1.0349    1.7581   -1.1248 H   0  0  0  0  0  0  0  0  0  0  0  0
    1.3022    0.9341    1.7207 H   0  0  0  0  0  0  0  0  0  0  0  0
    3.0890   -0.3982    0.6106 H   0  0  0  0  0  0  0  0  0  0  0  0
    2.3170   -0.1465   -1.0956 H   0  0  0  0  0  0  0  0  0  0  0  0
    0.9039   -1.5328    1.2966 H   0  0  0  0  0  0  0  0  0  0  0  0
  1  2  1  0
  2  3  1  0
  3  4  1  0
  4  5  1  0
  5  6  1  0
  6  7  1  0
  7  8  1  0
  8  9  1  0
  5  1  1  0
  9  7  1  0
  9  3  1  0
  1 10  1  0
  1 11  1  0
  2 12  1  0
  2 13  1  0
  3 14  1  0
  5 15  1  0
  6 16  1  0
  6 17  1  0
  7 18  1  0
  8 19  1  0
  8 20  1  0
  9 21  1  0
M  END
