
     RDKit          3D

 21 23  0  0  0  0  0  0  0  0999 V2000
   -2.1305   -0.5955   -0.2032 C   0  0  0  0  0  0  0  0  0  0  0  0
   -1.2130   -0.5321    1.0264 C   0  0  0  0  0  0  0  0  0  0  0  0
   -0.1937    0.0952    0.1095 C   0  0  0  0  0  0  0  0  0  0  0  0
   -1.3843    0.6539   -0.6827 C   0  0  0  0  0  0  0  0  0  0  0  0
    0.7061    1.1158    0.7028 C   0  0  0  0  0  0  0  0  0  0  0  0
    2.0773    0.7457    0.1965 C   0  0  0  0  0  0  0  0  0  0  0  0
    2.4846   -0.5316    0.8284 O   0  0  0  0  0  0  0  0  0  0  0  0
    2.0605   -0.4703   -0.4894 C   0  0  0  0  0  0  0  0  0  0  0  0
    0.6204   -0.8574   -0.7058 C   0  0  0  0  0  0  0  0  0  0  0  0
   -3.1867   -0.4601    0.0018 H   0  0  0  0  0  0  0  0  0  0  0  0
   -1.8163   -1.4439   -0.8271 H   0  0  0  0  0  0  0  0  0  0  0  0
   -1.6372    0.2159    1.7225 H   0  0  0  0  0  0  0  0  0  0  0  0
   -0.9731   -1.5140    1.4358 H   0  0  0  0  0  0  0  0  0  0  0  0
   -1.2133    0.7010   -1.7635 H   0  0  0  0  0  0  0  0  0  0  0  0
   -1.7636    1.5688   -0.1938 H   0  0  0  0  0  0  0  0  0  0  0  0
    0.4644    2.1255    0.3019 H   0  0  0  0  0  0  0  0  0  0  0  0
    0.6708    1.0588    1.8016 H   0  0  0  0  0  0  0  0  0  0  0  0
    2.8763    1.5116    0.2733 H   0  0  0  0  0  0  0  0  0  0  0  0
    2.7547   -0.7382   -1.3088 H   0  0  0  0  0  0  0  0  0  0  0  0
    0.4068   -1.9132   -0.4508 H   0  0  0  0  0  0  0  0  0  0  0  0
    0.3900   -0.7362   -1.7754 H   0  0  0  0  0  0  0  0  0  0  0  0
  1  2  1  0
  2  3  1  0
  3  4  1  0
  3  5  1  0
  5  6  1  0
  6  7  1  0
  7  8  1  0
  8  9  1  0
  4  1  1  0
  8  6  1  0
  9  3  1  0
  1 10  1  0
  1 11  1  0
  2 12  1  0
  2 13  1  0
  4 14  1  0
  4 15  1  0
  5 16  1  0
  5 17  1  0
  6 18  1  0
  8 19  1  0
  9 20  1  0
  9 21  1  0
M  END
