
     RDKit          3D

 21 23  0  0  0  0  0  0  0  0999 V2000
    1.7098    0.6721    0.3113 C   0  0  0  0  0  0  0  0  0  0  0  0
    0.7993    0.1235    1.3932 C   0  0  0  0  0  0  0  0  0  0  0  0
   -0.2463   -0.6856    0.6879 C   0  0  0  0  0  0  0  0  0  0  0  0
   -1.6278   -0.1186    0.7893 C   0  0  0  0  0  0  0  0  0  0  0  0
   -2.0020    0.4410   -0.5461 C   0  0  0  0  0  0  0  0  0  0  0  0
   -2.1111   -0.3751   -1.6567 O   0  0  0  0  0  0  0  0  0  0  0  0
   -0.8477    0.1766   -1.4864 C   0  0  0  0  0  0  0  0  0  0  0  0
    0.1229   -0.7074   -0.7672 C   0  0  0  0  0  0  0  0  0  0  0  0
    1.5452   -0.2726   -0.8735 C   0  0  0  0  0  0  0  0  0  0  0  0
    1.4219    1.6762   -0.0271 H   0  0  0  0  0  0  0  0  0  0  0  0
    2.7691    0.6541    0.6256 H   0  0  0  0  0  0  0  0  0  0  0  0
    1.4093   -0.4898    2.1045 H   0  0  0  0  0  0  0  0  0  0  0  0
    0.3505    0.9798    1.9194 H   0  0  0  0  0  0  0  0  0  0  0  0
   -0.2073   -1.7195    1.1092 H   0  0  0  0  0  0  0  0  0  0  0  0
   -1.6073    0.7220    1.5135 H   0  0  0  0  0  0  0  0  0  0  0  0
   -2.3806   -0.8362    1.1722 H   0  0  0  0  0  0  0  0  0  0  0  0
   -2.5325    1.4095   -0.5946 H   0  0  0  0  0  0  0  0  0  0  0  0
   -0.5269    1.0499   -2.0559 H   0  0  0  0  0  0  0  0  0  0  0  0
   -0.0378   -1.7517   -1.1575 H   0  0  0  0  0  0  0  0  0  0  0  0
    2.1869   -1.1594   -0.6379 H   0  0  0  0  0  0  0  0  0  0  0  0
    1.8127    0.2114   -1.8232 H   0  0  0  0  0  0  0  0  0  0  0  0
  1  2  1  0
  2  3  1  0
  3  4  1  0
  4  5  1  0
  5  6  1  0
  6  7  1  0
  7  8  1  0
  8  9  1  0
  9  1  1  0
  8  3  1  0
  7  5  1  0
  1 10  1  0
  1 11  1  0
  2 12  1  0
  2 13  1  0
  3 14  1  0
  4 15  1  0
  4 16  1  0
  5 17  1  0
  7 18  1  0
  8 19  1  0
  9 20  1  0
  9 21  1  0
M  END
