
     RDKit          3D

 17 18  0  0  0  0  0  0  0  0999 V2000
   -1.8332    0.8197   -0.0364 C   0  0  0  0  0  0  0  0  0  0  0  0
   -1.8467   -0.6618    0.4178 C   0  0  0  0  0  0  0  0  0  0  0  0
   -0.6958   -0.0609   -0.3792 C   0  0  0  0  0  0  0  0  0  0  0  0
    0.5974    0.0184    0.3570 C   0  0  0  0  0  0  0  0  0  0  0  0
    1.5971   -0.9842   -0.1823 C   0  0  0  0  0  0  0  0  0  0  0  0
    2.0077   -0.0520   -1.1204 O   0  0  0  0  0  0  0  0  0  0  0  0
    1.6352    0.9459   -0.2129 C   0  0  0  0  0  0  0  0  0  0  0  0
   -2.5808    1.0413   -0.8187 H   0  0  0  0  0  0  0  0  0  0  0  0
   -1.6861    1.5748    0.7599 H   0  0  0  0  0  0  0  0  0  0  0  0
   -2.5534   -1.3377   -0.0975 H   0  0  0  0  0  0  0  0  0  0  0  0
   -1.7180   -0.8021    1.5088 H   0  0  0  0  0  0  0  0  0  0  0  0
   -0.6299   -0.4773   -1.4240 H   0  0  0  0  0  0  0  0  0  0  0  0
    0.5483    0.1058    1.4412 H   0  0  0  0  0  0  0  0  0  0  0  0
    2.3448   -1.2636    0.5877 H   0  0  0  0  0  0  0  0  0  0  0  0
    1.0745   -1.8450   -0.6499 H   0  0  0  0  0  0  0  0  0  0  0  0
    2.4574    1.1008    0.5032 H   0  0  0  0  0  0  0  0  0  0  0  0
    1.2816    1.8780   -0.6542 H   0  0  0  0  0  0  0  0  0  0  0  0
  1  2  1  0
  2  3  1  0
  3  4  1  0
  4  5  1  0
  5  6  1  0
  6  7  1  0
  3  1  1  0
  7  4  1  0
  1  8  1  0
  1  9  1  0
  2 10  1  0
  2 11  1  0
  3 12  1  0
  4 13  1  0
  5 14  1  0
  5 15  1  0
  7 16  1  0
  7 17  1  0
M  END
