
     RDKit          3D

 23 24  0  0  0  0  0  0  0  0999 V2000
   -1.9277    0.7927    0.0849 C   0  0  0  0  0  0  0  0  0  0  0  0
   -0.6578    1.5731    0.4362 C   0  0  0  0  0  0  0  0  0  0  0  0
    0.4007    1.1261   -0.5359 C   0  0  0  0  0  0  0  0  0  0  0  0
    1.6489    0.6297    0.1130 C   0  0  0  0  0  0  0  0  0  0  0  0
    1.6447   -0.8074    0.4778 C   0  0  0  0  0  0  0  0  0  0  0  0
    0.7131   -1.6660   -0.2982 C   0  0  0  0  0  0  0  0  0  0  0  0
   -0.5112   -0.9657   -0.8034 C   0  0  0  0  0  0  0  0  0  0  0  0
   -1.5301   -0.6792    0.2534 C   0  0  0  0  0  0  0  0  0  0  0  0
   -0.0743    0.1988   -1.4633 O   0  0  0  0  0  0  0  0  0  0  0  0
   -2.0674    0.9412   -1.0087 H   0  0  0  0  0  0  0  0  0  0  0  0
   -2.7790    1.0714    0.6957 H   0  0  0  0  0  0  0  0  0  0  0  0
   -0.4023    1.3632    1.4921 H   0  0  0  0  0  0  0  0  0  0  0  0
   -0.9181    2.6310    0.3623 H   0  0  0  0  0  0  0  0  0  0  0  0
    0.6737    2.0380   -1.1401 H   0  0  0  0  0  0  0  0  0  0  0  0
    1.8824    1.2693    1.0078 H   0  0  0  0  0  0  0  0  0  0  0  0
    2.5033    0.8384   -0.5956 H   0  0  0  0  0  0  0  0  0  0  0  0
    1.4775   -0.8805    1.5839 H   0  0  0  0  0  0  0  0  0  0  0  0
    2.6853   -1.2131    0.3225 H   0  0  0  0  0  0  0  0  0  0  0  0
    0.4758   -2.5625    0.3137 H   0  0  0  0  0  0  0  0  0  0  0  0
    1.2442   -2.0752   -1.2068 H   0  0  0  0  0  0  0  0  0  0  0  0
   -0.9959   -1.6112   -1.5685 H   0  0  0  0  0  0  0  0  0  0  0  0
   -2.4331   -1.2868    0.2073 H   0  0  0  0  0  0  0  0  0  0  0  0
   -1.0527   -0.7253    1.2701 H   0  0  0  0  0  0  0  0  0  0  0  0
  1  2  1  0
  2  3  1  0
  3  4  1  0
  4  5  1  0
  5  6  1  0
  6  7  1  0
  7  8  1  0
  7  9  1  0
  8  1  1  0
  9  3  1  0
  1 10  1  0
  1 11  1  0
  2 12  1  0
  2 13  1  0
  3 14  1  0
  4 15  1  0
  4 16  1  0
  5 17  1  0
  5 18  1  0
  6 19  1  0
  6 20  1  0
  7 21  1  0
  8 22  1  0
  8 23  1  0
M  END
