
     RDKit          3D

 21 23  0  0  0  0  0  0  0  0999 V2000
    1.2190    1.0378   -0.3396 C   0  0  0  0  0  0  0  0  0  0  0  0
   -0.1579    1.5839   -0.2925 C   0  0  0  0  0  0  0  0  0  0  0  0
   -1.1704    0.7926    0.4025 C   0  0  0  0  0  0  0  0  0  0  0  0
   -2.0149    0.1259   -0.5153 O   0  0  0  0  0  0  0  0  0  0  0  0
   -1.2171   -0.9990   -0.3212 C   0  0  0  0  0  0  0  0  0  0  0  0
    0.0533   -1.0536   -1.0998 C   0  0  0  0  0  0  0  0  0  0  0  0
    1.1516   -0.4757   -0.2711 C   0  0  0  0  0  0  0  0  0  0  0  0
    0.6593   -0.7676    1.1496 C   0  0  0  0  0  0  0  0  0  0  0  0
   -0.7944   -0.4746    1.0259 C   0  0  0  0  0  0  0  0  0  0  0  0
    1.8251    1.4097   -1.1653 H   0  0  0  0  0  0  0  0  0  0  0  0
    1.7420    1.3591    0.6090 H   0  0  0  0  0  0  0  0  0  0  0  0
   -0.4737    1.7918   -1.3589 H   0  0  0  0  0  0  0  0  0  0  0  0
   -0.0944    2.6182    0.1591 H   0  0  0  0  0  0  0  0  0  0  0  0
   -1.8241    1.4079    1.0711 H   0  0  0  0  0  0  0  0  0  0  0  0
   -1.8356   -1.9147   -0.3107 H   0  0  0  0  0  0  0  0  0  0  0  0
   -0.0548   -0.6119   -2.0981 H   0  0  0  0  0  0  0  0  0  0  0  0
    0.2909   -2.1408   -1.2676 H   0  0  0  0  0  0  0  0  0  0  0  0
    2.1040   -0.9537   -0.4926 H   0  0  0  0  0  0  0  0  0  0  0  0
    1.1528   -0.1023    1.8910 H   0  0  0  0  0  0  0  0  0  0  0  0
    0.8328   -1.8327    1.3386 H   0  0  0  0  0  0  0  0  0  0  0  0
   -1.3936   -0.8003    1.8859 H   0  0  0  0  0  0  0  0  0  0  0  0
  1  2  1  0
  2  3  1  0
  3  4  1  0
  4  5  1  0
  5  6  1  0
  6  7  1  0
  7  8  1  0
  8  9  1  0
  7  1  1  0
  9  3  1  0
  9  5  1  0
  1 10  1  0
  1 11  1  0
  2 12  1  0
  2 13  1  0
  3 14  1  0
  5 15  1  0
  6 16  1  0
  6 17  1  0
  7 18  1  0
  8 19  1  0
  8 20  1  0
  9 21  1  0
M  END
