
     RDKit          3D

 21 22  0  0  0  0  0  0  0  0999 V2000
   -1.1900    1.0929   -0.4297 C   0  0  0  0  0  0  0  0  0  0  0  0
   -1.6314   -0.1543    0.2577 C   0  0  0  0  0  0  0  0  0  0  0  0
   -0.9113   -1.3872   -0.0987 C   0  0  0  0  0  0  0  0  0  0  0  0
    0.4315   -1.2958   -0.6689 C   0  0  0  0  0  0  0  0  0  0  0  0
    1.4171   -1.4908    0.3208 O   0  0  0  0  0  0  0  0  0  0  0  0
    1.8556   -0.2344    0.6911 C   0  0  0  0  0  0  0  0  0  0  0  0
    1.2721    0.7208   -0.3260 C   0  0  0  0  0  0  0  0  0  0  0  0
    0.1192    1.5155    0.2443 C   0  0  0  0  0  0  0  0  0  0  0  0
    0.7895   -0.1426   -1.2907 O   0  0  0  0  0  0  0  0  0  0  0  0
   -0.9784    0.8390   -1.4938 H   0  0  0  0  0  0  0  0  0  0  0  0
   -1.9607    1.8682   -0.3418 H   0  0  0  0  0  0  0  0  0  0  0  0
   -2.7409   -0.2573    0.0651 H   0  0  0  0  0  0  0  0  0  0  0  0
   -1.5835    0.0506    1.3682 H   0  0  0  0  0  0  0  0  0  0  0  0
   -0.8616   -2.0415    0.8227 H   0  0  0  0  0  0  0  0  0  0  0  0
   -1.5646   -1.9831   -0.8028 H   0  0  0  0  0  0  0  0  0  0  0  0
    0.6043   -2.1416   -1.3990 H   0  0  0  0  0  0  0  0  0  0  0  0
    2.9737   -0.2560    0.6286 H   0  0  0  0  0  0  0  0  0  0  0  0
    1.5691    0.0352    1.7308 H   0  0  0  0  0  0  0  0  0  0  0  0
    2.0917    1.3687   -0.6955 H   0  0  0  0  0  0  0  0  0  0  0  0
    0.0273    1.2989    1.3473 H   0  0  0  0  0  0  0  0  0  0  0  0
    0.2712    2.5948    0.0703 H   0  0  0  0  0  0  0  0  0  0  0  0
  1  2  1  0
  2  3  1  0
  3  4  1  0
  4  5  1  0
  5  6  1  0
  6  7  1  0
  7  8  1  0
  7  9  1  0
  8  1  1  0
  9  4  1  0
  1 10  1  0
  1 11  1  0
  2 12  1  0
  2 13  1  0
  3 14  1  0
  3 15  1  0
  4 16  1  0
  6 17  1  0
  6 18  1  0
  7 19  1  0
  8 20  1  0
  8 21  1  0
M  END
