
     RDKit          3D

 20 21  0  0  0  0  0  0  0  0999 V2000
   -1.3329   -0.7394    0.0063 C   0  0  0  0  0  0  0  0  0  0  0  0
   -0.2529   -1.2291   -0.9073 C   0  0  0  0  0  0  0  0  0  0  0  0
    1.1121   -1.0942   -0.2969 C   0  0  0  0  0  0  0  0  0  0  0  0
    1.4758    0.3560   -0.1970 C   0  0  0  0  0  0  0  0  0  0  0  0
    0.9145    0.8953    1.0896 C   0  0  0  0  0  0  0  0  0  0  0  0
   -0.1004    1.4438    0.1613 C   0  0  0  0  0  0  0  0  0  0  0  0
   -1.4104    0.7345    0.1497 C   0  0  0  0  0  0  0  0  0  0  0  0
    0.6037    1.1051   -0.9744 O   0  0  0  0  0  0  0  0  0  0  0  0
   -1.2312   -1.2839    0.9845 H   0  0  0  0  0  0  0  0  0  0  0  0
   -2.3092   -1.0846   -0.4470 H   0  0  0  0  0  0  0  0  0  0  0  0
   -0.4459   -2.3310   -1.0615 H   0  0  0  0  0  0  0  0  0  0  0  0
   -0.3134   -0.7450   -1.8922 H   0  0  0  0  0  0  0  0  0  0  0  0
    1.0719   -1.5355    0.7208 H   0  0  0  0  0  0  0  0  0  0  0  0
    1.8767   -1.6215   -0.8559 H   0  0  0  0  0  0  0  0  0  0  0  0
    2.5135    0.6308   -0.4314 H   0  0  0  0  0  0  0  0  0  0  0  0
    0.5898    0.1579    1.8361 H   0  0  0  0  0  0  0  0  0  0  0  0
    1.5217    1.7040    1.5652 H   0  0  0  0  0  0  0  0  0  0  0  0
   -0.2452    2.5334    0.2651 H   0  0  0  0  0  0  0  0  0  0  0  0
   -2.0521    0.9741    1.0249 H   0  0  0  0  0  0  0  0  0  0  0  0
   -1.9860    1.1291   -0.7397 H   0  0  0  0  0  0  0  0  0  0  0  0
  1  2  1  0
  2  3  1  0
  3  4  1  0
  4  5  1  0
  5  6  1  0
  6  7  1  0
  6  8  1  0
  7  1  1  0
  8  4  1  0
  1  9  1  0
  1 10  1  0
  2 11  1  0
  2 12  1  0
  3 13  1  0
  3 14  1  0
  4 15  1  0
  5 16  1  0
  5 17  1  0
  6 18  1  0
  7 19  1  0
  7 20  1  0
M  END
