
     RDKit          3D

 16 17  0  0  0  0  0  0  0  0999 V2000
    0.9412    0.5660    0.7940 C   0  0  0  0  0  0  0  0  0  0  0  0
    0.8223   -0.9477    0.5260 C   0  0  0  0  0  0  0  0  0  0  0  0
   -0.3680   -0.9422   -0.3711 C   0  0  0  0  0  0  0  0  0  0  0  0
   -1.3441    0.0389    0.2926 C   0  0  0  0  0  0  0  0  0  0  0  0
   -0.2626    1.0332    0.0089 C   0  0  0  0  0  0  0  0  0  0  0  0
   -0.0478    0.2444   -1.2933 C   0  0  0  0  0  0  0  0  0  0  0  0
    0.8795    0.7725    1.8652 H   0  0  0  0  0  0  0  0  0  0  0  0
    1.8501    0.9793    0.3133 H   0  0  0  0  0  0  0  0  0  0  0  0
    1.7235   -1.2835   -0.0455 H   0  0  0  0  0  0  0  0  0  0  0  0
    0.6735   -1.5072    1.4620 H   0  0  0  0  0  0  0  0  0  0  0  0
   -0.7557   -1.8197   -0.8044 H   0  0  0  0  0  0  0  0  0  0  0  0
   -1.5864   -0.1752    1.3271 H   0  0  0  0  0  0  0  0  0  0  0  0
   -2.2242    0.2399   -0.3547 H   0  0  0  0  0  0  0  0  0  0  0  0
   -0.4744    2.0668   -0.0735 H   0  0  0  0  0  0  0  0  0  0  0  0
    0.9974    0.3048   -1.6045 H   0  0  0  0  0  0  0  0  0  0  0  0
   -0.8241    0.4296   -2.0421 H   0  0  0  0  0  0  0  0  0  0  0  0
  1  2  1  0
  2  3  1  0
  3  4  1  0
  4  5  1  0
  5  6  1  0
  5  1  1  0
  6  3  1  0
  1  7  1  0
  1  8  1  0
  2  9  1  0
  2 10  1  0
  3 11  1  0
  4 12  1  0
  4 13  1  0
  5 14  1  0
  6 15  1  0
  6 16  1  0
M  END
