
     RDKit          3D

 17 19  0  0  0  0  0  0  0  0999 V2000
    2.5327    0.0623    0.6973 C   0  0  0  0  0  0  0  0  0  0  0  0
    2.0726   -0.2833   -0.5469 C   0  0  0  0  0  0  0  0  0  0  0  0
    0.6879   -0.1731   -0.4525 C   0  0  0  0  0  0  0  0  0  0  0  0
    0.4350    0.2383    0.8706 C   0  0  0  0  0  0  0  0  0  0  0  0
    1.5667    0.3603    1.5014 O   0  0  0  0  0  0  0  0  0  0  0  0
   -1.0466    0.3247    0.8662 C   0  0  0  0  0  0  0  0  0  0  0  0
   -1.4220   -0.9429    0.1390 C   0  0  0  0  0  0  0  0  0  0  0  0
   -0.6649   -0.2601   -1.0123 C   0  0  0  0  0  0  0  0  0  0  0  0
   -1.3284    1.0083   -0.4832 C   0  0  0  0  0  0  0  0  0  0  0  0
    3.5766    0.0815    0.9673 H   0  0  0  0  0  0  0  0  0  0  0  0
    2.5802   -0.5841   -1.4507 H   0  0  0  0  0  0  0  0  0  0  0  0
   -1.5569    0.6461    1.7189 H   0  0  0  0  0  0  0  0  0  0  0  0
   -2.5226   -1.0343   -0.0641 H   0  0  0  0  0  0  0  0  0  0  0  0
   -0.9435   -1.8676    0.4931 H   0  0  0  0  0  0  0  0  0  0  0  0
   -0.8371   -0.5752   -1.9929 H   0  0  0  0  0  0  0  0  0  0  0  0
   -0.7261    1.9151   -0.5466 H   0  0  0  0  0  0  0  0  0  0  0  0
   -2.4039    1.0839   -0.7047 H   0  0  0  0  0  0  0  0  0  0  0  0
  1  2  2  0
  2  3  1  0
  3  4  2  0
  4  5  1  0
  4  6  1  0
  6  7  1  0
  7  8  1  0
  8  9  1  0
  5  1  1  0
  9  6  1  0
  8  3  1  0
  1 10  1  0
  2 11  1  0
  6 12  1  0
  7 13  1  0
  7 14  1  0
  8 15  1  0
  9 16  1  0
  9 17  1  0
M  END
