
     RDKit          3D

 23 25  0  0  0  0  0  0  0  0999 V2000
    2.5539    0.0233   -0.1293 C   0  0  0  0  0  0  0  0  0  0  0  0
    1.6969   -0.3978    1.0836 C   0  0  0  0  0  0  0  0  0  0  0  0
    0.4506    0.3399    0.7629 C   0  0  0  0  0  0  0  0  0  0  0  0
    0.3400   -0.2662   -0.6978 C   0  0  0  0  0  0  0  0  0  0  0  0
    1.5290    0.4763   -1.1908 C   0  0  0  0  0  0  0  0  0  0  0  0
   -0.7455    0.0311    0.1188 C   0  0  0  0  0  0  0  0  0  0  0  0
   -1.7669   -0.9892    0.4690 C   0  0  0  0  0  0  0  0  0  0  0  0
   -2.8003   -0.1366   -0.2316 C   0  0  0  0  0  0  0  0  0  0  0  0
   -1.8226    1.0346   -0.0594 C   0  0  0  0  0  0  0  0  0  0  0  0
    3.1319   -0.8447   -0.5102 H   0  0  0  0  0  0  0  0  0  0  0  0
    3.1831    0.8513    0.2028 H   0  0  0  0  0  0  0  0  0  0  0  0
    1.4977   -1.4901    1.0588 H   0  0  0  0  0  0  0  0  0  0  0  0
    2.2022   -0.0894    2.0038 H   0  0  0  0  0  0  0  0  0  0  0  0
    0.6771    1.4538    0.7927 H   0  0  0  0  0  0  0  0  0  0  0  0
    0.5726   -1.3783   -0.7647 H   0  0  0  0  0  0  0  0  0  0  0  0
    1.4302    1.5774   -1.1425 H   0  0  0  0  0  0  0  0  0  0  0  0
    1.9026    0.1024   -2.1515 H   0  0  0  0  0  0  0  0  0  0  0  0
   -1.9089   -1.0832    1.5748 H   0  0  0  0  0  0  0  0  0  0  0  0
   -1.5372   -1.9588   -0.0283 H   0  0  0  0  0  0  0  0  0  0  0  0
   -2.8937   -0.4818   -1.2874 H   0  0  0  0  0  0  0  0  0  0  0  0
   -3.7555   -0.0172    0.2807 H   0  0  0  0  0  0  0  0  0  0  0  0
   -2.1259    1.6087    0.8398 H   0  0  0  0  0  0  0  0  0  0  0  0
   -1.8115    1.6343   -0.9942 H   0  0  0  0  0  0  0  0  0  0  0  0
  1  2  1  0
  2  3  1  0
  3  4  1  0
  4  5  1  0
  4  6  1  0
  6  7  1  0
  7  8  1  0
  8  9  1  0
  5  1  1  0
  9  6  1  0
  6  3  1  0
  1 10  1  0
  1 11  1  0
  2 12  1  0
  2 13  1  0
  3 14  1  0
  4 15  1  0
  5 16  1  0
  5 17  1  0
  7 18  1  0
  7 19  1  0
  8 20  1  0
  8 21  1  0
  9 22  1  0
  9 23  1  0
M  END
