
     RDKit          3D

 19 21  0  0  0  0  0  0  0  0999 V2000
    2.1676    0.7938   -0.4590 C   0  0  0  0  0  0  0  0  0  0  0  0
    2.2483   -0.2942    0.6129 C   0  0  0  0  0  0  0  0  0  0  0  0
    0.9825    0.5687    0.3631 C   0  0  0  0  0  0  0  0  0  0  0  0
   -0.1958   -0.2302   -0.0704 C   0  0  0  0  0  0  0  0  0  0  0  0
   -0.9871    0.1742   -1.2948 C   0  0  0  0  0  0  0  0  0  0  0  0
   -2.2917   -0.2271   -1.0920 O   0  0  0  0  0  0  0  0  0  0  0  0
   -2.5052   -0.3490    0.2627 C   0  0  0  0  0  0  0  0  0  0  0  0
   -1.1686   -0.6926    0.8773 C   0  0  0  0  0  0  0  0  0  0  0  0
   -0.3118   -1.5632    0.2625 O   0  0  0  0  0  0  0  0  0  0  0  0
    2.1492    0.4496   -1.5242 H   0  0  0  0  0  0  0  0  0  0  0  0
    2.7565    1.7275   -0.2513 H   0  0  0  0  0  0  0  0  0  0  0  0
    2.8174   -0.0801    1.5378 H   0  0  0  0  0  0  0  0  0  0  0  0
    2.2459   -1.3177    0.2224 H   0  0  0  0  0  0  0  0  0  0  0  0
    0.7671    1.2936    1.1939 H   0  0  0  0  0  0  0  0  0  0  0  0
   -0.9072    1.2402   -1.5355 H   0  0  0  0  0  0  0  0  0  0  0  0
   -0.6202   -0.3867   -2.1989 H   0  0  0  0  0  0  0  0  0  0  0  0
   -2.8155    0.6452    0.6622 H   0  0  0  0  0  0  0  0  0  0  0  0
   -3.2313   -1.1355    0.4720 H   0  0  0  0  0  0  0  0  0  0  0  0
   -1.0999   -0.6165    1.9594 H   0  0  0  0  0  0  0  0  0  0  0  0
  1  2  1  0
  2  3  1  0
  3  4  1  0
  4  5  1  0
  5  6  1  0
  6  7  1  0
  7  8  1  0
  8  9  1  0
  3  1  1  0
  8  4  1  0
  9  4  1  0
  1 10  1  0
  1 11  1  0
  2 12  1  0
  2 13  1  0
  3 14  1  0
  5 15  1  0
  5 16  1  0
  7 17  1  0
  7 18  1  0
  8 19  1  0
M  END
