
     RDKit          3D

 19 21  0  0  0  0  0  0  0  0999 V2000
   -2.2107    0.0712   -0.2254 C   0  0  0  0  0  0  0  0  0  0  0  0
   -1.2561   -0.9484    0.3657 C   0  0  0  0  0  0  0  0  0  0  0  0
    0.0192   -0.1968    0.3212 C   0  0  0  0  0  0  0  0  0  0  0  0
   -0.4553    1.2138    0.5677 C   0  0  0  0  0  0  0  0  0  0  0  0
   -1.6022    1.2931   -0.1724 O   0  0  0  0  0  0  0  0  0  0  0  0
    0.9988   -0.3516   -0.7834 C   0  0  0  0  0  0  0  0  0  0  0  0
    2.2024    0.5405   -0.7313 C   0  0  0  0  0  0  0  0  0  0  0  0
    2.4131    0.1037    0.5768 O   0  0  0  0  0  0  0  0  0  0  0  0
    1.3130   -0.6985    0.7099 C   0  0  0  0  0  0  0  0  0  0  0  0
   -2.3054   -0.2087   -1.3152 H   0  0  0  0  0  0  0  0  0  0  0  0
   -3.1951    0.0561    0.2552 H   0  0  0  0  0  0  0  0  0  0  0  0
   -1.5144   -1.1237    1.4487 H   0  0  0  0  0  0  0  0  0  0  0  0
   -1.2611   -1.8985   -0.1821 H   0  0  0  0  0  0  0  0  0  0  0  0
    0.2601    1.9809    0.2730 H   0  0  0  0  0  0  0  0  0  0  0  0
   -0.7395    1.3075    1.6543 H   0  0  0  0  0  0  0  0  0  0  0  0
    0.9469   -1.2017   -1.4728 H   0  0  0  0  0  0  0  0  0  0  0  0
    1.9976    1.6370   -0.7419 H   0  0  0  0  0  0  0  0  0  0  0  0
    2.9695    0.2100   -1.4604 H   0  0  0  0  0  0  0  0  0  0  0  0
    1.4194   -1.7859    0.9125 H   0  0  0  0  0  0  0  0  0  0  0  0
  1  2  1  0
  2  3  1  0
  3  4  1  0
  4  5  1  0
  3  6  1  0
  6  7  1  0
  7  8  1  0
  8  9  1  0
  5  1  1  0
  9  6  1  0
  9  3  1  0
  1 10  1  0
  1 11  1  0
  2 12  1  0
  2 13  1  0
  4 14  1  0
  4 15  1  0
  6 16  1  0
  7 17  1  0
  7 18  1  0
  9 19  1  0
M  END
