
     RDKit          3D

 21 23  0  0  0  0  0  0  0  0999 V2000
   -1.8267    0.2973   -0.0199 C   0  0  0  0  0  0  0  0  0  0  0  0
   -1.3198   -1.0469    0.3950 C   0  0  0  0  0  0  0  0  0  0  0  0
    0.1617   -1.1190    0.5419 C   0  0  0  0  0  0  0  0  0  0  0  0
    0.9643   -1.2442   -0.7228 C   0  0  0  0  0  0  0  0  0  0  0  0
    1.7311   -0.0189   -0.2876 C   0  0  0  0  0  0  0  0  0  0  0  0
    1.0081    1.2131    0.0896 C   0  0  0  0  0  0  0  0  0  0  0  0
   -0.1976    1.6873   -0.6606 C   0  0  0  0  0  0  0  0  0  0  0  0
   -1.0222    0.6960   -1.1136 O   0  0  0  0  0  0  0  0  0  0  0  0
    0.8364    0.0999    0.9934 C   0  0  0  0  0  0  0  0  0  0  0  0
   -2.8553    0.2076   -0.4155 H   0  0  0  0  0  0  0  0  0  0  0  0
   -1.7685    1.0430    0.8087 H   0  0  0  0  0  0  0  0  0  0  0  0
   -1.6087   -1.7695   -0.4194 H   0  0  0  0  0  0  0  0  0  0  0  0
   -1.8362   -1.4270    1.3109 H   0  0  0  0  0  0  0  0  0  0  0  0
    0.4220   -1.9922    1.2125 H   0  0  0  0  0  0  0  0  0  0  0  0
    1.6258   -2.1323   -0.7954 H   0  0  0  0  0  0  0  0  0  0  0  0
    0.3818   -1.1358   -1.6611 H   0  0  0  0  0  0  0  0  0  0  0  0
    2.8156   -0.1146   -0.0929 H   0  0  0  0  0  0  0  0  0  0  0  0
    1.6581    2.0457    0.4414 H   0  0  0  0  0  0  0  0  0  0  0  0
   -0.7714    2.3743   -0.0059 H   0  0  0  0  0  0  0  0  0  0  0  0
    0.1838    2.2541   -1.5594 H   0  0  0  0  0  0  0  0  0  0  0  0
    1.4177    0.0821    1.9607 H   0  0  0  0  0  0  0  0  0  0  0  0
  1  2  1  0
  2  3  1  0
  3  4  1  0
  4  5  1  0
  5  6  1  0
  6  7  1  0
  7  8  1  0
  6  9  1  0
  8  1  1  0
  9  3  1  0
  9  5  1  0
  1 10  1  0
  1 11  1  0
  2 12  1  0
  2 13  1  0
  3 14  1  0
  4 15  1  0
  4 16  1  0
  5 17  1  0
  6 18  1  0
  7 19  1  0
  7 20  1  0
  9 21  1  0
M  END
