
     RDKit          3D

 19 20  0  0  0  0  0  0  0  0999 V2000
    1.5512    0.3573   -0.6479 C   0  0  0  0  0  0  0  0  0  0  0  0
    0.5977    1.2924    0.0371 C   0  0  0  0  0  0  0  0  0  0  0  0
   -0.3282    0.6252    0.9972 C   0  0  0  0  0  0  0  0  0  0  0  0
   -1.5632    1.2954    1.0261 O   0  0  0  0  0  0  0  0  0  0  0  0
   -2.0239    0.4530    0.0035 C   0  0  0  0  0  0  0  0  0  0  0  0
   -0.9993   -0.5913    0.4355 C   0  0  0  0  0  0  0  0  0  0  0  0
   -0.3583   -1.1640   -0.6234 O   0  0  0  0  0  0  0  0  0  0  0  0
    0.8391   -1.7683   -0.3280 C   0  0  0  0  0  0  0  0  0  0  0  0
    1.7893   -0.8031    0.0713 O   0  0  0  0  0  0  0  0  0  0  0  0
    2.5166    0.8967   -0.7999 H   0  0  0  0  0  0  0  0  0  0  0  0
    1.1622    0.0361   -1.6475 H   0  0  0  0  0  0  0  0  0  0  0  0
    0.0011    1.7977   -0.7637 H   0  0  0  0  0  0  0  0  0  0  0  0
    1.1641    2.0765    0.6012 H   0  0  0  0  0  0  0  0  0  0  0  0
    0.0289    0.5309    2.0505 H   0  0  0  0  0  0  0  0  0  0  0  0
   -1.8503    0.8664   -1.0143 H   0  0  0  0  0  0  0  0  0  0  0  0
   -3.0680    0.1003    0.1718 H   0  0  0  0  0  0  0  0  0  0  0  0
   -1.4396   -1.2517    1.1928 H   0  0  0  0  0  0  0  0  0  0  0  0
    0.7851   -2.4885    0.5140 H   0  0  0  0  0  0  0  0  0  0  0  0
    1.1955   -2.2610   -1.2763 H   0  0  0  0  0  0  0  0  0  0  0  0
  1  2  1  0
  2  3  1  0
  3  4  1  0
  4  5  1  0
  5  6  1  0
  6  7  1  0
  7  8  1  0
  8  9  1  0
  9  1  1  0
  6  3  1  0
  1 10  1  0
  1 11  1  0
  2 12  1  0
  2 13  1  0
  3 14  1  0
  5 15  1  0
  5 16  1  0
  6 17  1  0
  8 18  1  0
  8 19  1  0
M  END
