
     RDKit          3D

 19 20  0  0  0  0  0  0  0  0999 V2000
    2.1157   -0.1672   -0.2576 C   0  0  0  0  0  0  0  0  0  0  0  0
    1.3155   -1.1226    0.6224 C   0  0  0  0  0  0  0  0  0  0  0  0
   -0.0594   -0.4590    0.7339 C   0  0  0  0  0  0  0  0  0  0  0  0
   -0.9654   -1.1622    0.0002 O   0  0  0  0  0  0  0  0  0  0  0  0
   -2.1449   -0.5492   -0.2730 C   0  0  0  0  0  0  0  0  0  0  0  0
   -2.1674    0.8012   -0.2681 O   0  0  0  0  0  0  0  0  0  0  0  0
   -1.0011    1.4387   -0.5986 C   0  0  0  0  0  0  0  0  0  0  0  0
    0.2256    0.8578    0.0330 C   0  0  0  0  0  0  0  0  0  0  0  0
    1.1544    0.5584   -0.9551 O   0  0  0  0  0  0  0  0  0  0  0  0
    2.7597   -0.7307   -0.9578 H   0  0  0  0  0  0  0  0  0  0  0  0
    2.6799    0.5135    0.4010 H   0  0  0  0  0  0  0  0  0  0  0  0
    1.2616   -2.0939    0.1155 H   0  0  0  0  0  0  0  0  0  0  0  0
    1.7802   -1.2825    1.6030 H   0  0  0  0  0  0  0  0  0  0  0  0
   -0.3000   -0.3254    1.7970 H   0  0  0  0  0  0  0  0  0  0  0  0
   -2.9318   -0.9161    0.4461 H   0  0  0  0  0  0  0  0  0  0  0  0
   -2.4849   -0.9008   -1.2907 H   0  0  0  0  0  0  0  0  0  0  0  0
   -1.0882    2.4970   -0.2128 H   0  0  0  0  0  0  0  0  0  0  0  0
   -0.8642    1.5340   -1.7075 H   0  0  0  0  0  0  0  0  0  0  0  0
    0.7147    1.5090    0.7689 H   0  0  0  0  0  0  0  0  0  0  0  0
  1  2  1  0
  2  3  1  0
  3  4  1  0
  4  5  1  0
  5  6  1  0
  6  7  1  0
  7  8  1  0
  8  9  1  0
  9  1  1  0
  8  3  1  0
  1 10  1  0
  1 11  1  0
  2 12  1  0
  2 13  1  0
  3 14  1  0
  5 15  1  0
  5 16  1  0
  7 17  1  0
  7 18  1  0
  8 19  1  0
M  END
