
     RDKit          3D

 23 24  0  0  0  0  0  0  0  0999 V2000
   -2.0695   -0.4081    0.2574 C   0  0  0  0  0  0  0  0  0  0  0  0
   -1.4460    0.8439   -0.3729 C   0  0  0  0  0  0  0  0  0  0  0  0
   -0.2437    1.4532    0.1067 C   0  0  0  0  0  0  0  0  0  0  0  0
    1.1484    1.1269   -0.4479 C   0  0  0  0  0  0  0  0  0  0  0  0
    1.4400   -0.4099   -0.2630 C   0  0  0  0  0  0  0  0  0  0  0  0
    0.1951   -0.9932   -0.0224 C   0  0  0  0  0  0  0  0  0  0  0  0
   -1.0456   -1.6027    0.2223 C   0  0  0  0  0  0  0  0  0  0  0  0
    2.6784   -0.7492    0.3815 C   0  0  0  0  0  0  0  0  0  0  0  0
    2.4398   -0.9300   -1.0198 O   0  0  0  0  0  0  0  0  0  0  0  0
   -2.9151   -0.6697   -0.3744 H   0  0  0  0  0  0  0  0  0  0  0  0
   -2.3278   -0.1811    1.2957 H   0  0  0  0  0  0  0  0  0  0  0  0
   -1.5063    0.8374   -1.4869 H   0  0  0  0  0  0  0  0  0  0  0  0
   -2.2922    1.5853   -0.1439 H   0  0  0  0  0  0  0  0  0  0  0  0
   -0.2979    2.5558   -0.2069 H   0  0  0  0  0  0  0  0  0  0  0  0
   -0.2192    1.5979    1.2282 H   0  0  0  0  0  0  0  0  0  0  0  0
    1.1197    1.3639   -1.5163 H   0  0  0  0  0  0  0  0  0  0  0  0
    1.8510    1.6980    0.1522 H   0  0  0  0  0  0  0  0  0  0  0  0
    0.0964   -0.3563    0.9169 H   0  0  0  0  0  0  0  0  0  0  0  0
   -0.1853   -0.5921   -1.0184 H   0  0  0  0  0  0  0  0  0  0  0  0
   -1.1934   -2.1288    1.2029 H   0  0  0  0  0  0  0  0  0  0  0  0
   -1.4128   -2.3640   -0.5195 H   0  0  0  0  0  0  0  0  0  0  0  0
    2.7278   -1.6645    0.9997 H   0  0  0  0  0  0  0  0  0  0  0  0
    3.4581   -0.0127    0.6288 H   0  0  0  0  0  0  0  0  0  0  0  0
  1  2  1  0
  2  3  1  0
  3  4  1  0
  4  5  1  0
  5  6  1  0
  6  7  1  0
  5  8  1  0
  8  9  1  0
  7  1  1  0
  9  5  1  0
  1 10  1  0
  1 11  1  0
  2 12  1  0
  2 13  1  0
  3 14  1  0
  3 15  1  0
  4 16  1  0
  4 17  1  0
  6 18  1  0
  6 19  1  0
  7 20  1  0
  7 21  1  0
  8 22  1  0
  8 23  1  0
M  END
