
     RDKit          3D

 23 25  0  0  0  0  0  0  0  0999 V2000
   -2.2228   -0.4494    0.3252 C   0  0  0  0  0  0  0  0  0  0  0  0
   -2.1477    1.0023   -0.0915 C   0  0  0  0  0  0  0  0  0  0  0  0
   -0.7583    0.7802   -0.5552 C   0  0  0  0  0  0  0  0  0  0  0  0
    0.3405    1.1196    0.4573 C   0  0  0  0  0  0  0  0  0  0  0  0
    1.1748   -0.1122    0.3528 C   0  0  0  0  0  0  0  0  0  0  0  0
    2.5932   -0.2123    0.4930 C   0  0  0  0  0  0  0  0  0  0  0  0
    2.0317   -0.1720   -0.9310 C   0  0  0  0  0  0  0  0  0  0  0  0
    0.1873   -1.2183    0.4454 C   0  0  0  0  0  0  0  0  0  0  0  0
   -0.9518   -0.7126   -0.4312 C   0  0  0  0  0  0  0  0  0  0  0  0
   -2.0938   -0.6087    1.4214 H   0  0  0  0  0  0  0  0  0  0  0  0
   -3.0566   -1.0268   -0.1305 H   0  0  0  0  0  0  0  0  0  0  0  0
   -2.8247    1.1861   -0.9746 H   0  0  0  0  0  0  0  0  0  0  0  0
   -2.3390    1.7457    0.6791 H   0  0  0  0  0  0  0  0  0  0  0  0
   -0.4925    1.0742   -1.5777 H   0  0  0  0  0  0  0  0  0  0  0  0
    0.8437    2.0537    0.2385 H   0  0  0  0  0  0  0  0  0  0  0  0
   -0.1089    1.1325    1.4838 H   0  0  0  0  0  0  0  0  0  0  0  0
    3.1872    0.6683    0.7567 H   0  0  0  0  0  0  0  0  0  0  0  0
    3.0223   -1.1871    0.8474 H   0  0  0  0  0  0  0  0  0  0  0  0
    2.1303    0.7363   -1.5227 H   0  0  0  0  0  0  0  0  0  0  0  0
    2.0395   -1.1068   -1.5018 H   0  0  0  0  0  0  0  0  0  0  0  0
   -0.1386   -1.3002    1.5110 H   0  0  0  0  0  0  0  0  0  0  0  0
    0.6190   -2.1533    0.0892 H   0  0  0  0  0  0  0  0  0  0  0  0
   -1.0347   -1.2388   -1.3846 H   0  0  0  0  0  0  0  0  0  0  0  0
  1  2  1  0
  2  3  1  0
  3  4  1  0
  4  5  1  0
  5  6  1  0
  6  7  1  0
  5  8  1  0
  8  9  1  0
  9  1  1  0
  9  3  1  0
  7  5  1  0
  1 10  1  0
  1 11  1  0
  2 12  1  0
  2 13  1  0
  3 14  1  0
  4 15  1  0
  4 16  1  0
  6 17  1  0
  6 18  1  0
  7 19  1  0
  7 20  1  0
  8 21  1  0
  8 22  1  0
  9 23  1  0
M  END
