
     RDKit          3D

 21 22  0  0  0  0  0  0  0  0999 V2000
   -2.1659   -0.1205    0.5834 C   0  0  0  0  0  0  0  0  0  0  0  0
   -1.3906   -1.2503   -0.1198 C   0  0  0  0  0  0  0  0  0  0  0  0
   -0.0271   -0.6417   -0.2245 C   0  0  0  0  0  0  0  0  0  0  0  0
   -0.1195    0.6809   -0.2208 C   0  0  0  0  0  0  0  0  0  0  0  0
   -1.5497    1.0665   -0.1145 C   0  0  0  0  0  0  0  0  0  0  0  0
    1.0729    1.5606   -0.3126 C   0  0  0  0  0  0  0  0  0  0  0  0
    2.2642    0.9777   -0.0563 O   0  0  0  0  0  0  0  0  0  0  0  0
    2.2646   -0.2933    0.4236 C   0  0  0  0  0  0  0  0  0  0  0  0
    1.3221   -1.2239   -0.3250 C   0  0  0  0  0  0  0  0  0  0  0  0
   -1.8947   -0.0865    1.6606 H   0  0  0  0  0  0  0  0  0  0  0  0
   -3.2396   -0.2078    0.3931 H   0  0  0  0  0  0  0  0  0  0  0  0
   -1.3991   -2.1297    0.5328 H   0  0  0  0  0  0  0  0  0  0  0  0
   -1.8576   -1.3968   -1.1039 H   0  0  0  0  0  0  0  0  0  0  0  0
   -1.6929    1.9777    0.5100 H   0  0  0  0  0  0  0  0  0  0  0  0
   -2.0214    1.1992   -1.1039 H   0  0  0  0  0  0  0  0  0  0  0  0
    1.0927    1.9571   -1.3700 H   0  0  0  0  0  0  0  0  0  0  0  0
    0.9242    2.4581    0.3264 H   0  0  0  0  0  0  0  0  0  0  0  0
    3.2862   -0.7199    0.2785 H   0  0  0  0  0  0  0  0  0  0  0  0
    2.0771   -0.3556    1.5308 H   0  0  0  0  0  0  0  0  0  0  0  0
    1.4076   -2.2302    0.0950 H   0  0  0  0  0  0  0  0  0  0  0  0
    1.6464   -1.2216   -1.3830 H   0  0  0  0  0  0  0  0  0  0  0  0
  1  2  1  0
  2  3  1  0
  3  4  2  0
  4  5  1  0
  4  6  1  0
  6  7  1  0
  7  8  1  0
  8  9  1  0
  5  1  1  0
  9  3  1  0
  1 10  1  0
  1 11  1  0
  2 12  1  0
  2 13  1  0
  5 14  1  0
  5 15  1  0
  6 16  1  0
  6 17  1  0
  8 18  1  0
  8 19  1  0
  9 20  1  0
  9 21  1  0
M  END
