
     RDKit          3D

 16 18  0  0  0  0  0  0  0  0999 V2000
   -0.8551    0.8734    0.3586 C   0  0  0  0  0  0  0  0  0  0  0  0
   -1.3584   -0.5819    0.2325 C   0  0  0  0  0  0  0  0  0  0  0  0
   -0.0150   -1.1187   -0.3299 C   0  0  0  0  0  0  0  0  0  0  0  0
   -0.0238   -0.2050   -1.4237 O   0  0  0  0  0  0  0  0  0  0  0  0
    0.2765    0.9249   -0.5986 C   0  0  0  0  0  0  0  0  0  0  0  0
    1.6138    0.5252   -0.1544 C   0  0  0  0  0  0  0  0  0  0  0  0
    2.2620   -0.3779    0.5632 O   0  0  0  0  0  0  0  0  0  0  0  0
    1.0284   -0.6949    0.6052 C   0  0  0  0  0  0  0  0  0  0  0  0
   -0.6466    1.1507    1.3843 H   0  0  0  0  0  0  0  0  0  0  0  0
   -1.6902    1.4919   -0.0804 H   0  0  0  0  0  0  0  0  0  0  0  0
   -2.1591   -0.6748   -0.4917 H   0  0  0  0  0  0  0  0  0  0  0  0
   -1.5363   -0.9913    1.2243 H   0  0  0  0  0  0  0  0  0  0  0  0
   -0.0738   -2.1438   -0.6311 H   0  0  0  0  0  0  0  0  0  0  0  0
    0.3345    1.8424   -1.1733 H   0  0  0  0  0  0  0  0  0  0  0  0
    2.1922    0.3780   -1.1256 H   0  0  0  0  0  0  0  0  0  0  0  0
    0.6509   -0.3984    1.6406 H   0  0  0  0  0  0  0  0  0  0  0  0
  1  2  1  0
  2  3  1  0
  3  4  1  0
  4  5  1  0
  5  6  1  0
  6  7  1  0
  7  8  1  0
  5  1  1  0
  8  6  1  0
  8  3  1  0
  1  9  1  0
  1 10  1  0
  2 11  1  0
  2 12  1  0
  3 13  1  0
  5 14  1  0
  6 15  1  0
  8 16  1  0
M  END
