
     RDKit          3D

 19 21  0  0  0  0  0  0  0  0999 V2000
    0.8941   -0.7684    0.6710 C   0  0  0  0  0  0  0  0  0  0  0  0
   -0.4847   -1.3025    0.2592 C   0  0  0  0  0  0  0  0  0  0  0  0
   -1.2101   -0.0444   -0.0716 C   0  0  0  0  0  0  0  0  0  0  0  0
   -2.5478    0.1894    0.1494 C   0  0  0  0  0  0  0  0  0  0  0  0
   -1.6194    0.6553    1.1595 O   0  0  0  0  0  0  0  0  0  0  0  0
   -0.2310    0.7533   -0.8474 C   0  0  0  0  0  0  0  0  0  0  0  0
    1.0773    0.4678   -0.1624 C   0  0  0  0  0  0  0  0  0  0  0  0
    2.3753    0.6783   -0.7868 C   0  0  0  0  0  0  0  0  0  0  0  0
    1.9011    1.4843    0.2338 O   0  0  0  0  0  0  0  0  0  0  0  0
    1.6318   -1.5580    0.4186 H   0  0  0  0  0  0  0  0  0  0  0  0
    0.8856   -0.5114    1.7487 H   0  0  0  0  0  0  0  0  0  0  0  0
   -0.9538   -1.8020    1.1259 H   0  0  0  0  0  0  0  0  0  0  0  0
   -0.4027   -1.9445   -0.6364 H   0  0  0  0  0  0  0  0  0  0  0  0
   -3.0967    1.0496   -0.2990 H   0  0  0  0  0  0  0  0  0  0  0  0
   -3.2318   -0.5855    0.5344 H   0  0  0  0  0  0  0  0  0  0  0  0
   -0.1525    0.3693   -1.8858 H   0  0  0  0  0  0  0  0  0  0  0  0
   -0.4703    1.8255   -0.9237 H   0  0  0  0  0  0  0  0  0  0  0  0
    2.4076    1.0206   -1.8226 H   0  0  0  0  0  0  0  0  0  0  0  0
    3.2279    0.0235   -0.4489 H   0  0  0  0  0  0  0  0  0  0  0  0
  1  2  1  0
  2  3  1  0
  3  4  1  0
  4  5  1  0
  3  6  1  0
  6  7  1  0
  7  8  1  0
  8  9  1  0
  7  1  1  0
  5  3  1  0
  9  7  1  0
  1 10  1  0
  1 11  1  0
  2 12  1  0
  2 13  1  0
  4 14  1  0
  4 15  1  0
  6 16  1  0
  6 17  1  0
  8 18  1  0
  8 19  1  0
M  END
