
     RDKit          3D

 19 21  0  0  0  0  0  0  0  0999 V2000
   -1.4014   -0.4337    0.6385 C   0  0  0  0  0  0  0  0  0  0  0  0
   -1.2866    1.0063    0.2226 C   0  0  0  0  0  0  0  0  0  0  0  0
   -0.1327    0.9966   -0.8041 C   0  0  0  0  0  0  0  0  0  0  0  0
   -0.4212   -0.2810   -1.3565 O   0  0  0  0  0  0  0  0  0  0  0  0
   -0.3881   -1.1031   -0.2252 C   0  0  0  0  0  0  0  0  0  0  0  0
    1.0163   -1.1078    0.3788 C   0  0  0  0  0  0  0  0  0  0  0  0
    1.8433   -0.2316   -0.4832 C   0  0  0  0  0  0  0  0  0  0  0  0
    2.4072    0.9321   -0.4179 O   0  0  0  0  0  0  0  0  0  0  0  0
    1.1357    1.1115   -0.1076 C   0  0  0  0  0  0  0  0  0  0  0  0
   -1.2896   -0.6052    1.7121 H   0  0  0  0  0  0  0  0  0  0  0  0
   -2.4085   -0.7988    0.2975 H   0  0  0  0  0  0  0  0  0  0  0  0
   -0.9563    1.5676    1.1320 H   0  0  0  0  0  0  0  0  0  0  0  0
   -2.1908    1.4423   -0.1840 H   0  0  0  0  0  0  0  0  0  0  0  0
   -0.3891    1.7618   -1.5465 H   0  0  0  0  0  0  0  0  0  0  0  0
   -0.6929   -2.1312   -0.5156 H   0  0  0  0  0  0  0  0  0  0  0  0
    0.9360   -0.7649    1.4331 H   0  0  0  0  0  0  0  0  0  0  0  0
    1.4414   -2.1332    0.3881 H   0  0  0  0  0  0  0  0  0  0  0  0
    1.7074   -0.5482   -1.5683 H   0  0  0  0  0  0  0  0  0  0  0  0
    1.0699    1.3205    1.0062 H   0  0  0  0  0  0  0  0  0  0  0  0
  1  2  1  0
  2  3  1  0
  3  4  1  0
  4  5  1  0
  5  6  1  0
  6  7  1  0
  7  8  1  0
  8  9  1  0
  5  1  1  0
  9  7  1  0
  9  3  1  0
  1 10  1  0
  1 11  1  0
  2 12  1  0
  2 13  1  0
  3 14  1  0
  5 15  1  0
  6 16  1  0
  6 17  1  0
  7 18  1  0
  9 19  1  0
M  END
