
     RDKit          3D

 19 21  0  0  0  0  0  0  0  0999 V2000
   -2.1182   -0.5405   -0.0551 C   0  0  0  0  0  0  0  0  0  0  0  0
   -1.4978    0.2778    1.0856 C   0  0  0  0  0  0  0  0  0  0  0  0
   -0.3576    0.9463    0.3060 C   0  0  0  0  0  0  0  0  0  0  0  0
    0.8154    0.9703    1.0089 O   0  0  0  0  0  0  0  0  0  0  0  0
    1.8389    0.5406    0.1821 C   0  0  0  0  0  0  0  0  0  0  0  0
    2.0271   -0.9375    0.1203 C   0  0  0  0  0  0  0  0  0  0  0  0
    1.2715   -0.2462   -0.9288 C   0  0  0  0  0  0  0  0  0  0  0  0
   -0.1957    0.0065   -0.8574 C   0  0  0  0  0  0  0  0  0  0  0  0
   -0.9534   -1.1242   -0.5905 O   0  0  0  0  0  0  0  0  0  0  0  0
   -2.8437   -1.2639    0.2923 H   0  0  0  0  0  0  0  0  0  0  0  0
   -2.4642    0.1874   -0.7938 H   0  0  0  0  0  0  0  0  0  0  0  0
   -2.1991    1.0027    1.4995 H   0  0  0  0  0  0  0  0  0  0  0  0
   -1.1015   -0.4468    1.8305 H   0  0  0  0  0  0  0  0  0  0  0  0
   -0.6812    1.9655   -0.0298 H   0  0  0  0  0  0  0  0  0  0  0  0
    2.6770    1.2242   -0.0635 H   0  0  0  0  0  0  0  0  0  0  0  0
    1.5702   -1.5408    0.9165 H   0  0  0  0  0  0  0  0  0  0  0  0
    3.0330   -1.3257   -0.1815 H   0  0  0  0  0  0  0  0  0  0  0  0
    1.7412   -0.1230   -1.9333 H   0  0  0  0  0  0  0  0  0  0  0  0
   -0.5617    0.4274   -1.8080 H   0  0  0  0  0  0  0  0  0  0  0  0
  1  2  1  0
  2  3  1  0
  3  4  1  0
  4  5  1  0
  5  6  1  0
  6  7  1  0
  7  8  1  0
  8  9  1  0
  9  1  1  0
  8  3  1  0
  7  5  1  0
  1 10  1  0
  1 11  1  0
  2 12  1  0
  2 13  1  0
  3 14  1  0
  5 15  1  0
  6 16  1  0
  6 17  1  0
  7 18  1  0
  8 19  1  0
M  END
