
     RDKit          3D

 18 20  0  0  0  0  0  0  0  0999 V2000
   -2.1858    0.0721    0.0607 C   0  0  0  0  0  0  0  0  0  0  0  0
   -1.1633    1.0084    0.7216 C   0  0  0  0  0  0  0  0  0  0  0  0
   -0.1148    0.0940    0.2295 C   0  0  0  0  0  0  0  0  0  0  0  0
   -1.0831   -0.9987    0.1085 C   0  0  0  0  0  0  0  0  0  0  0  0
    1.2490    0.0244    0.6874 C   0  0  0  0  0  0  0  0  0  0  0  0
    2.3239   -0.6473   -0.0793 C   0  0  0  0  0  0  0  0  0  0  0  0
    1.6472   -0.6224   -1.2706 O   0  0  0  0  0  0  0  0  0  0  0  0
    0.8951    0.4553   -0.7671 C   0  0  0  0  0  0  0  0  0  0  0  0
   -3.0654   -0.1481    0.6613 H   0  0  0  0  0  0  0  0  0  0  0  0
   -2.3856    0.3552   -1.0001 H   0  0  0  0  0  0  0  0  0  0  0  0
   -1.3311    0.9299    1.8343 H   0  0  0  0  0  0  0  0  0  0  0  0
   -1.2024    2.0257    0.3221 H   0  0  0  0  0  0  0  0  0  0  0  0
   -1.0517   -1.6631   -0.7517 H   0  0  0  0  0  0  0  0  0  0  0  0
   -1.2117   -1.5509    1.0730 H   0  0  0  0  0  0  0  0  0  0  0  0
    1.6020    0.8637    1.3566 H   0  0  0  0  0  0  0  0  0  0  0  0
    2.6346   -1.6469    0.2836 H   0  0  0  0  0  0  0  0  0  0  0  0
    3.2572   -0.0197   -0.1661 H   0  0  0  0  0  0  0  0  0  0  0  0
    1.1860    1.4683   -1.0238 H   0  0  0  0  0  0  0  0  0  0  0  0
  1  2  1  0
  2  3  1  0
  3  4  1  0
  3  5  1  0
  5  6  1  0
  6  7  1  0
  7  8  1  0
  4  1  1  0
  8  5  1  0
  8  3  1  0
  1  9  1  0
  1 10  1  0
  2 11  1  0
  2 12  1  0
  4 13  1  0
  4 14  1  0
  5 15  1  0
  6 16  1  0
  6 17  1  0
  8 18  1  0
M  END
