
     RDKit          3D

 23 25  0  0  0  0  0  0  0  0999 V2000
   -1.9239   -0.0724    0.2034 C   0  0  0  0  0  0  0  0  0  0  0  0
   -1.0139    1.0354    0.7489 C   0  0  0  0  0  0  0  0  0  0  0  0
    0.1720    1.0995   -0.1189 C   0  0  0  0  0  0  0  0  0  0  0  0
    1.5223    1.3521    0.4465 C   0  0  0  0  0  0  0  0  0  0  0  0
    1.9878    0.1230   -0.3670 C   0  0  0  0  0  0  0  0  0  0  0  0
    0.6468   -0.3249   -0.3301 C   0  0  0  0  0  0  0  0  0  0  0  0
    0.1214   -1.2812    0.6846 C   0  0  0  0  0  0  0  0  0  0  0  0
   -1.1311   -1.2802   -0.2114 C   0  0  0  0  0  0  0  0  0  0  0  0
   -0.1561   -0.9502   -1.3553 C   0  0  0  0  0  0  0  0  0  0  0  0
   -2.5694   -0.3894    1.0454 H   0  0  0  0  0  0  0  0  0  0  0  0
   -2.5554    0.2930   -0.6160 H   0  0  0  0  0  0  0  0  0  0  0  0
   -1.6120    1.9818    0.5899 H   0  0  0  0  0  0  0  0  0  0  0  0
   -0.8496    0.9558    1.8198 H   0  0  0  0  0  0  0  0  0  0  0  0
    0.0008    1.6261   -1.0813 H   0  0  0  0  0  0  0  0  0  0  0  0
    1.6408    1.1707    1.5327 H   0  0  0  0  0  0  0  0  0  0  0  0
    2.0265    2.2443    0.0419 H   0  0  0  0  0  0  0  0  0  0  0  0
    2.7379   -0.4737    0.2014 H   0  0  0  0  0  0  0  0  0  0  0  0
    2.4027    0.3936   -1.3489 H   0  0  0  0  0  0  0  0  0  0  0  0
   -0.0699   -0.9228    1.6935 H   0  0  0  0  0  0  0  0  0  0  0  0
    0.6795   -2.2456    0.6189 H   0  0  0  0  0  0  0  0  0  0  0  0
   -1.6557   -2.2138   -0.2859 H   0  0  0  0  0  0  0  0  0  0  0  0
   -0.5862   -0.2198   -2.0911 H   0  0  0  0  0  0  0  0  0  0  0  0
    0.1848   -1.9014   -1.8211 H   0  0  0  0  0  0  0  0  0  0  0  0
  1  2  1  0
  2  3  1  0
  3  4  1  0
  4  5  1  0
  5  6  1  0
  6  7  1  0
  7  8  1  0
  8  9  1  0
  8  1  1  0
  6  3  1  0
  9  6  1  0
  1 10  1  0
  1 11  1  0
  2 12  1  0
  2 13  1  0
  3 14  1  0
  4 15  1  0
  4 16  1  0
  5 17  1  0
  5 18  1  0
  7 19  1  0
  7 20  1  0
  8 21  1  0
  9 22  1  0
  9 23  1  0
M  END
