
     RDKit          3D

 21 23  0  0  0  0  0  0  0  0999 V2000
   -0.9622   -0.5504    1.1013 C   0  0  0  0  0  0  0  0  0  0  0  0
   -1.4138    0.5696    0.2121 C   0  0  0  0  0  0  0  0  0  0  0  0
   -0.5334    0.5011   -1.0437 C   0  0  0  0  0  0  0  0  0  0  0  0
   -0.4171   -1.0322   -1.1223 C   0  0  0  0  0  0  0  0  0  0  0  0
    0.1532   -1.2278    0.2949 C   0  0  0  0  0  0  0  0  0  0  0  0
    1.4097   -0.4170    0.3508 C   0  0  0  0  0  0  0  0  0  0  0  0
    1.2157    1.0182    0.6866 C   0  0  0  0  0  0  0  0  0  0  0  0
    0.8386    1.0295   -0.7854 C   0  0  0  0  0  0  0  0  0  0  0  0
    1.8185    0.0188   -0.9360 O   0  0  0  0  0  0  0  0  0  0  0  0
   -1.7769   -1.3153    1.2658 H   0  0  0  0  0  0  0  0  0  0  0  0
   -0.6356   -0.2503    2.0970 H   0  0  0  0  0  0  0  0  0  0  0  0
   -2.4495    0.3049   -0.1494 H   0  0  0  0  0  0  0  0  0  0  0  0
   -1.4237    1.5541    0.6665 H   0  0  0  0  0  0  0  0  0  0  0  0
   -1.0178    0.9230   -1.9178 H   0  0  0  0  0  0  0  0  0  0  0  0
   -1.3839   -1.5137   -1.2308 H   0  0  0  0  0  0  0  0  0  0  0  0
    0.3254   -1.2468   -1.8917 H   0  0  0  0  0  0  0  0  0  0  0  0
    0.2632   -2.2802    0.5329 H   0  0  0  0  0  0  0  0  0  0  0  0
    2.2505   -0.9209    0.8549 H   0  0  0  0  0  0  0  0  0  0  0  0
    0.4650    1.3138    1.3939 H   0  0  0  0  0  0  0  0  0  0  0  0
    2.1685    1.5288    0.8446 H   0  0  0  0  0  0  0  0  0  0  0  0
    1.1057    1.9928   -1.2244 H   0  0  0  0  0  0  0  0  0  0  0  0
  1  2  1  0
  2  3  1  0
  3  4  1  0
  4  5  1  0
  5  6  1  0
  6  7  1  0
  7  8  1  0
  8  9  1  0
  5  1  1  0
  9  6  1  0
  8  3  1  0
  1 10  1  0
  1 11  1  0
  2 12  1  0
  2 13  1  0
  3 14  1  0
  4 15  1  0
  4 16  1  0
  5 17  1  0
  6 18  1  0
  7 19  1  0
  7 20  1  0
  8 21  1  0
M  END
