
     RDKit          3D

 18 20  0  0  0  0  0  0  0  0999 V2000
   -2.1696   -0.0856    0.1699 C   0  0  0  0  0  0  0  0  0  0  0  0
   -0.9223   -0.5003    0.9646 C   0  0  0  0  0  0  0  0  0  0  0  0
   -0.1362    0.1836   -0.1298 C   0  0  0  0  0  0  0  0  0  0  0  0
   -1.2409   -0.0500   -1.0548 C   0  0  0  0  0  0  0  0  0  0  0  0
    0.3210    1.4324    0.1204 O   0  0  0  0  0  0  0  0  0  0  0  0
    1.6430    1.0896    0.1657 C   0  0  0  0  0  0  0  0  0  0  0  0
    2.1603   -0.1234    0.8137 C   0  0  0  0  0  0  0  0  0  0  0  0
    1.2220   -0.2962   -0.4002 C   0  0  0  0  0  0  0  0  0  0  0  0
   -2.4942    0.9082    0.4947 H   0  0  0  0  0  0  0  0  0  0  0  0
   -2.8870   -0.9017    0.1750 H   0  0  0  0  0  0  0  0  0  0  0  0
   -0.8016    0.0205    1.9214 H   0  0  0  0  0  0  0  0  0  0  0  0
   -0.8050   -1.6136    0.9937 H   0  0  0  0  0  0  0  0  0  0  0  0
   -1.2240   -1.0796   -1.4814 H   0  0  0  0  0  0  0  0  0  0  0  0
   -1.5082    0.6913   -1.8086 H   0  0  0  0  0  0  0  0  0  0  0  0
    2.3226    1.6949   -0.4297 H   0  0  0  0  0  0  0  0  0  0  0  0
    1.6629   -0.5108    1.7469 H   0  0  0  0  0  0  0  0  0  0  0  0
    3.2141   -0.3548    0.6824 H   0  0  0  0  0  0  0  0  0  0  0  0
    1.6432   -0.5046   -1.3697 H   0  0  0  0  0  0  0  0  0  0  0  0
  1  2  1  0
  2  3  1  0
  3  4  1  0
  3  5  1  0
  5  6  1  0
  6  7  1  0
  7  8  1  0
  4  1  1  0
  8  6  1  0
  8  3  1  0
  1  9  1  0
  1 10  1  0
  2 11  1  0
  2 12  1  0
  4 13  1  0
  4 14  1  0
  6 15  1  0
  7 16  1  0
  7 17  1  0
  8 18  1  0
M  END
