
     RDKit          3D

 21 23  0  0  0  0  0  0  0  0999 V2000
    2.0222   -0.0746    0.3742 C   0  0  0  0  0  0  0  0  0  0  0  0
    1.1239   -1.3045    0.1756 C   0  0  0  0  0  0  0  0  0  0  0  0
   -0.0589   -0.8141   -0.6461 C   0  0  0  0  0  0  0  0  0  0  0  0
   -1.2995   -0.9918    0.1742 C   0  0  0  0  0  0  0  0  0  0  0  0
   -1.8142    0.3794    0.5026 C   0  0  0  0  0  0  0  0  0  0  0  0
   -0.9281    1.3854   -0.1388 C   0  0  0  0  0  0  0  0  0  0  0  0
    0.4908    1.5229    0.0960 C   0  0  0  0  0  0  0  0  0  0  0  0
    1.1928    0.8325    1.0775 O   0  0  0  0  0  0  0  0  0  0  0  0
    0.0505    0.6439   -0.9884 C   0  0  0  0  0  0  0  0  0  0  0  0
    2.8945   -0.3767    0.9612 H   0  0  0  0  0  0  0  0  0  0  0  0
    2.2654    0.3492   -0.6219 H   0  0  0  0  0  0  0  0  0  0  0  0
    0.8016   -1.5793    1.2213 H   0  0  0  0  0  0  0  0  0  0  0  0
    1.6533   -2.1376   -0.2789 H   0  0  0  0  0  0  0  0  0  0  0  0
   -0.0847   -1.4167   -1.5878 H   0  0  0  0  0  0  0  0  0  0  0  0
   -2.0241   -1.6325   -0.3481 H   0  0  0  0  0  0  0  0  0  0  0  0
   -1.0893   -1.5093    1.1533 H   0  0  0  0  0  0  0  0  0  0  0  0
   -2.8452    0.4474    0.0605 H   0  0  0  0  0  0  0  0  0  0  0  0
   -1.9637    0.5420    1.5948 H   0  0  0  0  0  0  0  0  0  0  0  0
   -1.4733    2.2783   -0.5613 H   0  0  0  0  0  0  0  0  0  0  0  0
    0.9755    2.4795   -0.1806 H   0  0  0  0  0  0  0  0  0  0  0  0
    0.1105    0.9766   -2.0393 H   0  0  0  0  0  0  0  0  0  0  0  0
  1  2  1  0
  2  3  1  0
  3  4  1  0
  4  5  1  0
  5  6  1  0
  6  7  1  0
  7  8  1  0
  7  9  1  0
  8  1  1  0
  9  3  1  0
  9  6  1  0
  1 10  1  0
  1 11  1  0
  2 12  1  0
  2 13  1  0
  3 14  1  0
  4 15  1  0
  4 16  1  0
  5 17  1  0
  5 18  1  0
  6 19  1  0
  7 20  1  0
  9 21  1  0
M  END
