
     RDKit          3D

 20 22  0  0  0  0  0  0  0  0999 V2000
   -2.2314   -0.2665   -0.0161 C   0  0  0  0  0  0  0  0  0  0  0  0
   -0.9839   -1.1071    0.2968 C   0  0  0  0  0  0  0  0  0  0  0  0
   -0.1770    0.0808   -0.0921 C   0  0  0  0  0  0  0  0  0  0  0  0
   -1.3102    0.5909   -0.8962 C   0  0  0  0  0  0  0  0  0  0  0  0
    0.4027    0.9288    0.9631 C   0  0  0  0  0  0  0  0  0  0  0  0
    1.7792    0.6726    0.3809 C   0  0  0  0  0  0  0  0  0  0  0  0
    2.2175   -0.7090    0.1148 C   0  0  0  0  0  0  0  0  0  0  0  0
    1.1335   -0.1230   -0.7301 C   0  0  0  0  0  0  0  0  0  0  0  0
   -3.0177   -0.7963   -0.5527 H   0  0  0  0  0  0  0  0  0  0  0  0
   -2.5498    0.3721    0.8429 H   0  0  0  0  0  0  0  0  0  0  0  0
   -0.9203   -1.4670    1.3236 H   0  0  0  0  0  0  0  0  0  0  0  0
   -0.9597   -1.9372   -0.4623 H   0  0  0  0  0  0  0  0  0  0  0  0
   -1.2467    0.2132   -1.9518 H   0  0  0  0  0  0  0  0  0  0  0  0
   -1.4742    1.6645   -0.8263 H   0  0  0  0  0  0  0  0  0  0  0  0
    0.1368    2.0055    0.8053 H   0  0  0  0  0  0  0  0  0  0  0  0
    0.2648    0.6474    2.0104 H   0  0  0  0  0  0  0  0  0  0  0  0
    2.4579    1.4909    0.1655 H   0  0  0  0  0  0  0  0  0  0  0  0
    3.1916   -0.8249   -0.3803 H   0  0  0  0  0  0  0  0  0  0  0  0
    1.9638   -1.5593    0.7797 H   0  0  0  0  0  0  0  0  0  0  0  0
    1.3232    0.1236   -1.7751 H   0  0  0  0  0  0  0  0  0  0  0  0
  1  2  1  0
  2  3  1  0
  3  4  1  0
  3  5  1  0
  5  6  1  0
  6  7  1  0
  7  8  1  0
  4  1  1  0
  8  6  1  0
  8  3  1  0
  1  9  1  0
  1 10  1  0
  2 11  1  0
  2 12  1  0
  4 13  1  0
  4 14  1  0
  5 15  1  0
  5 16  1  0
  6 17  1  0
  7 18  1  0
  7 19  1  0
  8 20  1  0
M  END
