
     RDKit          3D

 21 23  0  0  0  0  0  0  0  0999 V2000
   -2.6432   -0.1959    0.1894 C   0  0  0  0  0  0  0  0  0  0  0  0
   -1.7172   -0.6669   -0.8939 C   0  0  0  0  0  0  0  0  0  0  0  0
   -0.5752   -0.0515   -0.1577 C   0  0  0  0  0  0  0  0  0  0  0  0
   -1.5151    0.6914    0.7203 C   0  0  0  0  0  0  0  0  0  0  0  0
    0.5674    0.3874   -0.8216 C   0  0  0  0  0  0  0  0  0  0  0  0
    1.8841    0.9344   -0.4055 C   0  0  0  0  0  0  0  0  0  0  0  0
    2.6213   -0.4018   -0.1793 C   0  0  0  0  0  0  0  0  0  0  0  0
    1.6038   -1.3922   -0.1729 O   0  0  0  0  0  0  0  0  0  0  0  0
    0.5650   -0.6807    0.3515 C   0  0  0  0  0  0  0  0  0  0  0  0
   -2.9233   -1.0287    0.8445 H   0  0  0  0  0  0  0  0  0  0  0  0
   -3.4638    0.4334   -0.1786 H   0  0  0  0  0  0  0  0  0  0  0  0
   -1.8698   -0.1512   -1.8751 H   0  0  0  0  0  0  0  0  0  0  0  0
   -1.6579   -1.7681   -1.0413 H   0  0  0  0  0  0  0  0  0  0  0  0
   -1.3376    0.4618    1.8052 H   0  0  0  0  0  0  0  0  0  0  0  0
   -1.6512    1.7610    0.5575 H   0  0  0  0  0  0  0  0  0  0  0  0
    0.6982   -0.0636   -1.8594 H   0  0  0  0  0  0  0  0  0  0  0  0
    2.3537    1.5199   -1.2005 H   0  0  0  0  0  0  0  0  0  0  0  0
    1.7744    1.4706    0.5528 H   0  0  0  0  0  0  0  0  0  0  0  0
    3.1995   -0.5888   -1.0957 H   0  0  0  0  0  0  0  0  0  0  0  0
    3.1960   -0.3964    0.7461 H   0  0  0  0  0  0  0  0  0  0  0  0
    0.8910   -0.2740    1.3622 H   0  0  0  0  0  0  0  0  0  0  0  0
  1  2  1  0
  2  3  1  0
  3  4  1  0
  3  5  1  0
  5  6  1  0
  6  7  1  0
  7  8  1  0
  8  9  1  0
  4  1  1  0
  9  5  1  0
  9  3  1  0
  1 10  1  0
  1 11  1  0
  2 12  1  0
  2 13  1  0
  4 14  1  0
  4 15  1  0
  5 16  1  0
  6 17  1  0
  6 18  1  0
  7 19  1  0
  7 20  1  0
  9 21  1  0
M  END
