
     RDKit          3D

 21 23  0  0  0  0  0  0  0  0999 V2000
    2.0138   -0.1170    0.6419 C   0  0  0  0  0  0  0  0  0  0  0  0
    1.0724   -1.2998    0.4082 C   0  0  0  0  0  0  0  0  0  0  0  0
   -0.0585   -0.7632   -0.4286 C   0  0  0  0  0  0  0  0  0  0  0  0
    0.6815    0.3644   -1.1781 C   0  0  0  0  0  0  0  0  0  0  0  0
    1.1500    1.0259    0.1350 C   0  0  0  0  0  0  0  0  0  0  0  0
    0.0144    1.0614    0.9021 O   0  0  0  0  0  0  0  0  0  0  0  0
   -0.8861    0.1313    0.4440 C   0  0  0  0  0  0  0  0  0  0  0  0
   -2.1952   -0.1268    0.9351 C   0  0  0  0  0  0  0  0  0  0  0  0
   -2.0895    0.7662   -0.2862 C   0  0  0  0  0  0  0  0  0  0  0  0
    2.3122   -0.0092    1.6784 H   0  0  0  0  0  0  0  0  0  0  0  0
    2.8788   -0.1833   -0.0754 H   0  0  0  0  0  0  0  0  0  0  0  0
    0.7239   -1.7011    1.3941 H   0  0  0  0  0  0  0  0  0  0  0  0
    1.6233   -2.0678   -0.1305 H   0  0  0  0  0  0  0  0  0  0  0  0
   -0.5660   -1.4487   -1.0622 H   0  0  0  0  0  0  0  0  0  0  0  0
   -0.0187    0.9992   -1.7229 H   0  0  0  0  0  0  0  0  0  0  0  0
    1.5233   -0.0228   -1.7527 H   0  0  0  0  0  0  0  0  0  0  0  0
    1.6686    1.9474   -0.0207 H   0  0  0  0  0  0  0  0  0  0  0  0
   -2.6836   -1.0853    0.7420 H   0  0  0  0  0  0  0  0  0  0  0  0
   -2.5097    0.3295    1.9063 H   0  0  0  0  0  0  0  0  0  0  0  0
   -2.3044    1.8312   -0.0647 H   0  0  0  0  0  0  0  0  0  0  0  0
   -2.3506    0.3686   -1.2723 H   0  0  0  0  0  0  0  0  0  0  0  0
  1  2  1  0
  2  3  1  0
  3  4  1  0
  4  5  1  0
  5  6  1  0
  6  7  1  0
  7  8  1  0
  8  9  1  0
  5  1  1  0
  9  7  1  0
  7  3  1  0
  1 10  1  0
  1 11  1  0
  2 12  1  0
  2 13  1  0
  3 14  1  0
  4 15  1  0
  4 16  1  0
  5 17  1  0
  8 18  1  0
  8 19  1  0
  9 20  1  0
  9 21  1  0
M  END
