
     RDKit          3D

 19 23  0  0  0  0  0  0  0  0999 V2000
    1.7393    0.4064    0.0886 C   0  0  0  0  0  0  0  0  0  0  0  0
    1.0440   -0.5623   -0.8582 C   0  0  0  0  0  0  0  0  0  0  0  0
   -0.1516   -0.9687   -0.2650 C   0  0  0  0  0  0  0  0  0  0  0  0
   -1.6655   -0.7652   -0.8505 C   0  0  0  0  0  0  0  0  0  0  0  0
   -1.2567   -1.1238    0.1686 C   0  0  0  0  0  0  0  0  0  0  0  0
   -0.9148    0.4581   -0.2672 C   0  0  0  0  0  0  0  0  0  0  0  0
   -1.8953    0.3876    0.2908 C   0  0  0  0  0  0  0  0  0  0  0  0
   -0.4313    0.1355    0.8439 C   0  0  0  0  0  0  0  0  0  0  0  0
    0.7137    0.8451    1.1395 C   0  0  0  0  0  0  0  0  0  0  0  0
    2.5730   -0.0569    0.6533 H   0  0  0  0  0  0  0  0  0  0  0  0
    2.1816    1.2613   -0.4521 H   0  0  0  0  0  0  0  0  0  0  0  0
    1.7577   -1.4558   -0.8844 H   0  0  0  0  0  0  0  0  0  0  0  0
    1.1173   -0.2288   -1.9196 H   0  0  0  0  0  0  0  0  0  0  0  0
   -1.7157   -0.4228   -1.8747 H   0  0  0  0  0  0  0  0  0  0  0  0
   -1.6727   -1.3190    1.1533 H   0  0  0  0  0  0  0  0  0  0  0  0
   -0.5290    0.7013   -1.2320 H   0  0  0  0  0  0  0  0  0  0  0  0
   -2.7053    0.0960    0.9857 H   0  0  0  0  0  0  0  0  0  0  0  0
    1.0844    0.6351    2.1825 H   0  0  0  0  0  0  0  0  0  0  0  0
    0.7268    1.9768    1.0976 H   0  0  0  0  0  0  0  0  0  0  0  0
  1  2  1  0
  2  3  1  0
  3  4  1  0
  4  5  1  0
  5  6  1  0
  6  7  1  0
  7  8  1  0
  8  9  1  0
  9  1  1  0
  5  3  1  0
  8  6  1  0
  8  3  1  0
  7  4  1  0
  1 10  1  0
  1 11  1  0
  2 12  1  0
  2 13  1  0
  4 14  1  0
  5 15  1  0
  6 16  1  0
  7 17  1  0
  9 18  1  0
  9 19  1  0
M  END
