
     RDKit          3D

 23 25  0  0  0  0  0  0  0  0999 V2000
   -0.8489   -1.5525   -0.4012 C   0  0  0  0  0  0  0  0  0  0  0  0
    0.5625   -1.1045   -0.5617 C   0  0  0  0  0  0  0  0  0  0  0  0
    0.8618    0.2326    0.0475 C   0  0  0  0  0  0  0  0  0  0  0  0
    2.2064    0.7988   -0.0874 C   0  0  0  0  0  0  0  0  0  0  0  0
    1.7612    0.2262    1.2429 C   0  0  0  0  0  0  0  0  0  0  0  0
   -0.3468    1.1164    0.0541 C   0  0  0  0  0  0  0  0  0  0  0  0
   -1.3646    0.4679    0.9967 C   0  0  0  0  0  0  0  0  0  0  0  0
   -1.7761   -0.3893   -0.1698 C   0  0  0  0  0  0  0  0  0  0  0  0
   -1.2869    0.7375   -1.0854 C   0  0  0  0  0  0  0  0  0  0  0  0
   -1.1649   -2.0227   -1.3662 H   0  0  0  0  0  0  0  0  0  0  0  0
   -0.9690   -2.3035    0.4057 H   0  0  0  0  0  0  0  0  0  0  0  0
    1.2152   -1.8961   -0.0946 H   0  0  0  0  0  0  0  0  0  0  0  0
    0.8644   -1.0784   -1.6457 H   0  0  0  0  0  0  0  0  0  0  0  0
    2.9446    0.1933   -0.6574 H   0  0  0  0  0  0  0  0  0  0  0  0
    2.3387    1.8946   -0.1456 H   0  0  0  0  0  0  0  0  0  0  0  0
    1.6526    0.9478    2.0572 H   0  0  0  0  0  0  0  0  0  0  0  0
    2.2139   -0.7599    1.5376 H   0  0  0  0  0  0  0  0  0  0  0  0
   -0.2007    2.1846    0.1861 H   0  0  0  0  0  0  0  0  0  0  0  0
   -2.1807    1.1312    1.3160 H   0  0  0  0  0  0  0  0  0  0  0  0
   -0.8706   -0.0457    1.8353 H   0  0  0  0  0  0  0  0  0  0  0  0
   -2.8399   -0.5939   -0.2098 H   0  0  0  0  0  0  0  0  0  0  0  0
   -2.0784    1.4520   -1.3009 H   0  0  0  0  0  0  0  0  0  0  0  0
   -0.6937    0.3636   -1.9535 H   0  0  0  0  0  0  0  0  0  0  0  0
  1  2  1  0
  2  3  1  0
  3  4  1  0
  4  5  1  0
  3  6  1  0
  6  7  1  0
  7  8  1  0
  8  9  1  0
  8  1  1  0
  5  3  1  0
  9  6  1  0
  1 10  1  0
  1 11  1  0
  2 12  1  0
  2 13  1  0
  4 14  1  0
  4 15  1  0
  5 16  1  0
  5 17  1  0
  6 18  1  0
  7 19  1  0
  7 20  1  0
  8 21  1  0
  9 22  1  0
  9 23  1  0
M  END
