
     RDKit          3D

 21 23  0  0  0  0  0  0  0  0999 V2000
    2.8911    0.4904   -0.1416 C   0  0  0  0  0  0  0  0  0  0  0  0
    2.1041   -0.6775    0.4641 C   0  0  0  0  0  0  0  0  0  0  0  0
    1.2569   -0.3584   -0.7230 C   0  0  0  0  0  0  0  0  0  0  0  0
   -0.2201   -0.6111   -0.5808 C   0  0  0  0  0  0  0  0  0  0  0  0
   -0.9383    0.1082    0.4689 C   0  0  0  0  0  0  0  0  0  0  0  0
   -2.4272   -0.2379    0.5932 C   0  0  0  0  0  0  0  0  0  0  0  0
   -2.6010    0.4328   -0.7530 C   0  0  0  0  0  0  0  0  0  0  0  0
   -1.1416    0.4213   -1.0386 C   0  0  0  0  0  0  0  0  0  0  0  0
    1.6519    0.9595   -0.6254 O   0  0  0  0  0  0  0  0  0  0  0  0
    3.5013    0.1384   -0.9792 H   0  0  0  0  0  0  0  0  0  0  0  0
    3.3622    1.1364    0.6044 H   0  0  0  0  0  0  0  0  0  0  0  0
    2.6511   -1.6401    0.4232 H   0  0  0  0  0  0  0  0  0  0  0  0
    1.7318   -0.3714    1.4467 H   0  0  0  0  0  0  0  0  0  0  0  0
    1.6923   -0.8104   -1.6415 H   0  0  0  0  0  0  0  0  0  0  0  0
   -0.5108   -1.6722   -0.7346 H   0  0  0  0  0  0  0  0  0  0  0  0
   -0.5654    0.9524    1.0365 H   0  0  0  0  0  0  0  0  0  0  0  0
   -2.5960   -1.3463    0.5619 H   0  0  0  0  0  0  0  0  0  0  0  0
   -2.8888    0.2833    1.4496 H   0  0  0  0  0  0  0  0  0  0  0  0
   -2.9683    1.4854   -0.5624 H   0  0  0  0  0  0  0  0  0  0  0  0
   -3.2754   -0.0457   -1.4563 H   0  0  0  0  0  0  0  0  0  0  0  0
   -0.7099    1.3627   -1.4152 H   0  0  0  0  0  0  0  0  0  0  0  0
  1  2  1  0
  2  3  1  0
  3  4  1  0
  4  5  1  0
  5  6  1  0
  6  7  1  0
  7  8  1  0
  3  9  1  0
  9  1  1  0
  8  4  1  0
  8  5  1  0
  1 10  1  0
  1 11  1  0
  2 12  1  0
  2 13  1  0
  3 14  1  0
  4 15  1  0
  5 16  1  0
  6 17  1  0
  6 18  1  0
  7 19  1  0
  7 20  1  0
  8 21  1  0
M  END
