
     RDKit          3D

 20 21  0  0  0  0  0  0  0  0999 V2000
   -1.5399    0.1598   -0.0541 C   0  0  0  0  0  0  0  0  0  0  0  0
   -0.6213    1.1106    0.6772 C   0  0  0  0  0  0  0  0  0  0  0  0
    0.7891    0.9536    0.1793 C   0  0  0  0  0  0  0  0  0  0  0  0
    0.8355    0.6961   -1.3280 C   0  0  0  0  0  0  0  0  0  0  0  0
    0.3690   -0.5748   -1.5188 O   0  0  0  0  0  0  0  0  0  0  0  0
    0.4055   -1.2705   -0.3415 C   0  0  0  0  0  0  0  0  0  0  0  0
   -1.0182   -1.2507    0.2341 C   0  0  0  0  0  0  0  0  0  0  0  0
    1.2373   -0.4398    0.6468 C   0  0  0  0  0  0  0  0  0  0  0  0
   -2.5489    0.2534    0.3856 H   0  0  0  0  0  0  0  0  0  0  0  0
   -1.4923    0.4095   -1.1196 H   0  0  0  0  0  0  0  0  0  0  0  0
   -0.6124    0.7591    1.7507 H   0  0  0  0  0  0  0  0  0  0  0  0
   -0.9826    2.1411    0.6838 H   0  0  0  0  0  0  0  0  0  0  0  0
    1.4654    1.7386    0.4984 H   0  0  0  0  0  0  0  0  0  0  0  0
    0.3565    1.4806   -1.9082 H   0  0  0  0  0  0  0  0  0  0  0  0
    1.9378    0.6815   -1.5778 H   0  0  0  0  0  0  0  0  0  0  0  0
    0.7871   -2.2971   -0.4172 H   0  0  0  0  0  0  0  0  0  0  0  0
   -1.6402   -2.0187   -0.2505 H   0  0  0  0  0  0  0  0  0  0  0  0
   -0.9544   -1.3697    1.3290 H   0  0  0  0  0  0  0  0  0  0  0  0
    2.3041   -0.5657    0.4494 H   0  0  0  0  0  0  0  0  0  0  0  0
    0.9229   -0.5967    1.6813 H   0  0  0  0  0  0  0  0  0  0  0  0
  1  2  1  0
  2  3  1  0
  3  4  1  0
  4  5  1  0
  5  6  1  0
  6  7  1  0
  6  8  1  0
  7  1  1  0
  8  3  1  0
  1  9  1  0
  1 10  1  0
  2 11  1  0
  2 12  1  0
  3 13  1  0
  4 14  1  0
  4 15  1  0
  6 16  1  0
  7 17  1  0
  7 18  1  0
  8 19  1  0
  8 20  1  0
M  END
