
     RDKit          3D

 21 23  0  0  0  0  0  0  0  0999 V2000
    2.8522   -0.0847    0.3899 C   0  0  0  0  0  0  0  0  0  0  0  0
    1.8615   -1.1345   -0.1354 C   0  0  0  0  0  0  0  0  0  0  0  0
    0.9531    0.0414    0.1735 C   0  0  0  0  0  0  0  0  0  0  0  0
   -0.4079   -0.2860    0.6432 C   0  0  0  0  0  0  0  0  0  0  0  0
   -1.2480    0.9055    0.9272 C   0  0  0  0  0  0  0  0  0  0  0  0
   -1.4149    1.0820   -0.5269 C   0  0  0  0  0  0  0  0  0  0  0  0
   -1.4872   -0.4037   -0.3617 C   0  0  0  0  0  0  0  0  0  0  0  0
   -2.4120   -0.0819    0.7973 C   0  0  0  0  0  0  0  0  0  0  0  0
    1.8146    0.2738    1.2824 O   0  0  0  0  0  0  0  0  0  0  0  0
    3.7460   -0.4850    0.8537 H   0  0  0  0  0  0  0  0  0  0  0  0
    2.9607    0.7311   -0.3443 H   0  0  0  0  0  0  0  0  0  0  0  0
    1.7581   -2.0002    0.5411 H   0  0  0  0  0  0  0  0  0  0  0  0
    2.0663   -1.3263   -1.1862 H   0  0  0  0  0  0  0  0  0  0  0  0
    1.0796    0.8043   -0.5854 H   0  0  0  0  0  0  0  0  0  0  0  0
   -0.4640   -1.0718    1.4422 H   0  0  0  0  0  0  0  0  0  0  0  0
   -1.1638    1.5778    1.6600 H   0  0  0  0  0  0  0  0  0  0  0  0
   -2.4153    1.5515   -0.7720 H   0  0  0  0  0  0  0  0  0  0  0  0
   -0.6457    1.5195   -1.1442 H   0  0  0  0  0  0  0  0  0  0  0  0
   -1.6466   -1.0947   -1.0633 H   0  0  0  0  0  0  0  0  0  0  0  0
   -3.3726    0.3588    0.5455 H   0  0  0  0  0  0  0  0  0  0  0  0
   -2.4139   -0.8768    1.5380 H   0  0  0  0  0  0  0  0  0  0  0  0
  1  2  1  0
  2  3  1  0
  3  4  1  0
  4  5  1  0
  5  6  1  0
  6  7  1  0
  7  8  1  0
  3  9  1  0
  9  1  1  0
  7  4  1  0
  8  5  1  0
  1 10  1  0
  1 11  1  0
  2 12  1  0
  2 13  1  0
  3 14  1  0
  4 15  1  0
  5 16  1  0
  6 17  1  0
  6 18  1  0
  7 19  1  0
  8 20  1  0
  8 21  1  0
M  END
