
     RDKit          3D

 19 21  0  0  0  0  0  0  0  0999 V2000
    1.3024    0.6937   -0.4884 C   0  0  0  0  0  0  0  0  0  0  0  0
    1.2849   -0.4369    0.4975 C   0  0  0  0  0  0  0  0  0  0  0  0
    0.1047   -1.3242    0.4297 C   0  0  0  0  0  0  0  0  0  0  0  0
   -1.2851   -0.9133    0.6074 C   0  0  0  0  0  0  0  0  0  0  0  0
   -1.7336    0.3727    0.6986 O   0  0  0  0  0  0  0  0  0  0  0  0
   -0.8495    1.3559    0.3868 C   0  0  0  0  0  0  0  0  0  0  0  0
   -0.1175    0.9932   -0.8829 C   0  0  0  0  0  0  0  0  0  0  0  0
   -0.6438   -0.1010   -1.5199 O   0  0  0  0  0  0  0  0  0  0  0  0
   -0.7553   -1.2205   -0.7456 C   0  0  0  0  0  0  0  0  0  0  0  0
    1.6668    1.6011    0.0769 H   0  0  0  0  0  0  0  0  0  0  0  0
    1.9786    0.5637   -1.3293 H   0  0  0  0  0  0  0  0  0  0  0  0
    1.3898   -0.0767    1.5589 H   0  0  0  0  0  0  0  0  0  0  0  0
    2.2064   -1.0262    0.3040 H   0  0  0  0  0  0  0  0  0  0  0  0
    0.3314   -2.3846    0.7611 H   0  0  0  0  0  0  0  0  0  0  0  0
   -2.0231   -1.6607    0.9897 H   0  0  0  0  0  0  0  0  0  0  0  0
   -1.4292    2.3117    0.2631 H   0  0  0  0  0  0  0  0  0  0  0  0
   -0.1730    1.5235    1.2462 H   0  0  0  0  0  0  0  0  0  0  0  0
   -0.1846    1.8608   -1.5618 H   0  0  0  0  0  0  0  0  0  0  0  0
   -1.0701   -2.1323   -1.2920 H   0  0  0  0  0  0  0  0  0  0  0  0
  1  2  1  0
  2  3  1  0
  3  4  1  0
  4  5  1  0
  5  6  1  0
  6  7  1  0
  7  8  1  0
  8  9  1  0
  7  1  1  0
  9  3  1  0
  9  4  1  0
  1 10  1  0
  1 11  1  0
  2 12  1  0
  2 13  1  0
  3 14  1  0
  4 15  1  0
  6 16  1  0
  6 17  1  0
  7 18  1  0
  9 19  1  0
M  END
