
     RDKit          3D

 22 23  0  0  0  0  0  0  0  0999 V2000
    1.5055   -0.6841    0.1953 C   0  0  0  0  0  0  0  0  0  0  0  0
    0.3269   -1.5121   -0.0778 C   0  0  0  0  0  0  0  0  0  0  0  0
   -0.9253   -0.8127   -0.4530 C   0  0  0  0  0  0  0  0  0  0  0  0
   -1.5982   -0.1343    0.7498 C   0  0  0  0  0  0  0  0  0  0  0  0
   -0.5945    0.9487    1.0564 C   0  0  0  0  0  0  0  0  0  0  0  0
    0.0378    1.2816   -0.2555 C   0  0  0  0  0  0  0  0  0  0  0  0
    1.4679    0.7367   -0.2085 C   0  0  0  0  0  0  0  0  0  0  0  0
   -0.6515    0.4305   -1.3087 C   0  0  0  0  0  0  0  0  0  0  0  0
    1.7784   -0.7228    1.2913 H   0  0  0  0  0  0  0  0  0  0  0  0
    2.3989   -1.1565   -0.3107 H   0  0  0  0  0  0  0  0  0  0  0  0
    0.0836   -2.1374    0.8335 H   0  0  0  0  0  0  0  0  0  0  0  0
    0.5314   -2.2870   -0.8743 H   0  0  0  0  0  0  0  0  0  0  0  0
   -1.6176   -1.4619   -0.9984 H   0  0  0  0  0  0  0  0  0  0  0  0
   -2.5039    0.3672    0.3514 H   0  0  0  0  0  0  0  0  0  0  0  0
   -1.7816   -0.8247    1.5676 H   0  0  0  0  0  0  0  0  0  0  0  0
   -1.0538    1.8168    1.5721 H   0  0  0  0  0  0  0  0  0  0  0  0
    0.1271    0.5087    1.7961 H   0  0  0  0  0  0  0  0  0  0  0  0
    0.0123    2.3419   -0.4689 H   0  0  0  0  0  0  0  0  0  0  0  0
    2.0034    1.3918    0.5150 H   0  0  0  0  0  0  0  0  0  0  0  0
    1.9684    0.9323   -1.2004 H   0  0  0  0  0  0  0  0  0  0  0  0
    0.0587    0.1130   -2.0920 H   0  0  0  0  0  0  0  0  0  0  0  0
   -1.5739    0.8644   -1.6803 H   0  0  0  0  0  0  0  0  0  0  0  0
  1  2  1  0
  2  3  1  0
  3  4  1  0
  4  5  1  0
  5  6  1  0
  6  7  1  0
  6  8  1  0
  7  1  1  0
  8  3  1  0
  1  9  1  0
  1 10  1  0
  2 11  1  0
  2 12  1  0
  3 13  1  0
  4 14  1  0
  4 15  1  0
  5 16  1  0
  5 17  1  0
  6 18  1  0
  7 19  1  0
  7 20  1  0
  8 21  1  0
  8 22  1  0
M  END
