
     RDKit          3D

 19 21  0  0  0  0  0  0  0  0999 V2000
   -2.1532   -0.2777    0.2648 C   0  0  0  0  0  0  0  0  0  0  0  0
   -0.9195   -0.9078   -0.3688 C   0  0  0  0  0  0  0  0  0  0  0  0
    0.1343    0.1116   -0.0706 C   0  0  0  0  0  0  0  0  0  0  0  0
   -0.6049    1.3366    0.2965 C   0  0  0  0  0  0  0  0  0  0  0  0
   -1.7277    0.8246    0.9686 O   0  0  0  0  0  0  0  0  0  0  0  0
    1.1897   -0.3064    0.9319 C   0  0  0  0  0  0  0  0  0  0  0  0
    2.1881   -0.2143   -0.2309 C   0  0  0  0  0  0  0  0  0  0  0  0
    1.8725   -1.0071   -1.3406 O   0  0  0  0  0  0  0  0  0  0  0  0
    1.2332    0.2339   -1.0842 C   0  0  0  0  0  0  0  0  0  0  0  0
   -2.8974   -0.0172   -0.4947 H   0  0  0  0  0  0  0  0  0  0  0  0
   -2.5260   -1.0296    1.0093 H   0  0  0  0  0  0  0  0  0  0  0  0
   -0.7122   -1.9125    0.0012 H   0  0  0  0  0  0  0  0  0  0  0  0
   -1.0600   -0.9277   -1.4743 H   0  0  0  0  0  0  0  0  0  0  0  0
    0.0017    1.9241    1.0367 H   0  0  0  0  0  0  0  0  0  0  0  0
   -0.8882    2.0021   -0.5154 H   0  0  0  0  0  0  0  0  0  0  0  0
    1.3861    0.5377    1.6347 H   0  0  0  0  0  0  0  0  0  0  0  0
    1.0809   -1.2977    1.3685 H   0  0  0  0  0  0  0  0  0  0  0  0
    3.2254    0.0100   -0.0087 H   0  0  0  0  0  0  0  0  0  0  0  0
    1.1772    0.9172   -1.9239 H   0  0  0  0  0  0  0  0  0  0  0  0
  1  2  1  0
  2  3  1  0
  3  4  1  0
  4  5  1  0
  3  6  1  0
  6  7  1  0
  7  8  1  0
  8  9  1  0
  5  1  1  0
  9  7  1  0
  9  3  1  0
  1 10  1  0
  1 11  1  0
  2 12  1  0
  2 13  1  0
  4 14  1  0
  4 15  1  0
  6 16  1  0
  6 17  1  0
  7 18  1  0
  9 19  1  0
M  END
