
     RDKit          3D

 23 25  0  0  0  0  0  0  0  0999 V2000
    2.5389   -0.1479   -0.5967 C   0  0  0  0  0  0  0  0  0  0  0  0
    2.2878   -0.3614    0.8852 C   0  0  0  0  0  0  0  0  0  0  0  0
    1.5050    0.6649    0.2120 C   0  0  0  0  0  0  0  0  0  0  0  0
    0.1243    0.5187   -0.3032 C   0  0  0  0  0  0  0  0  0  0  0  0
   -0.5005   -0.8539   -0.3070 C   0  0  0  0  0  0  0  0  0  0  0  0
   -1.7952   -0.5762   -1.0341 C   0  0  0  0  0  0  0  0  0  0  0  0
   -2.1816    0.7471   -0.3417 C   0  0  0  0  0  0  0  0  0  0  0  0
   -1.0177    0.8727    0.6011 C   0  0  0  0  0  0  0  0  0  0  0  0
   -0.9164   -0.5658    1.1153 C   0  0  0  0  0  0  0  0  0  0  0  0
    2.1704   -0.9243   -1.2777 H   0  0  0  0  0  0  0  0  0  0  0  0
    3.4068    0.4438   -0.9271 H   0  0  0  0  0  0  0  0  0  0  0  0
    3.1576   -0.0076    1.5039 H   0  0  0  0  0  0  0  0  0  0  0  0
    1.9560   -1.3672    1.1591 H   0  0  0  0  0  0  0  0  0  0  0  0
    1.7779    1.7402    0.4272 H   0  0  0  0  0  0  0  0  0  0  0  0
    0.0605    0.9872   -1.3273 H   0  0  0  0  0  0  0  0  0  0  0  0
    0.0736   -1.7065   -0.5357 H   0  0  0  0  0  0  0  0  0  0  0  0
   -2.5849   -1.3062   -0.8258 H   0  0  0  0  0  0  0  0  0  0  0  0
   -1.6259   -0.3726   -2.1027 H   0  0  0  0  0  0  0  0  0  0  0  0
   -3.1081    0.6334    0.2376 H   0  0  0  0  0  0  0  0  0  0  0  0
   -2.2094    1.5756   -1.0783 H   0  0  0  0  0  0  0  0  0  0  0  0
   -0.9512    1.6645    1.2912 H   0  0  0  0  0  0  0  0  0  0  0  0
   -1.9611   -0.9208    1.3115 H   0  0  0  0  0  0  0  0  0  0  0  0
   -0.2068   -0.7376    1.9131 H   0  0  0  0  0  0  0  0  0  0  0  0
  1  2  1  0
  2  3  1  0
  3  4  1  0
  4  5  1  0
  5  6  1  0
  6  7  1  0
  7  8  1  0
  8  9  1  0
  3  1  1  0
  8  4  1  0
  9  5  1  0
  1 10  1  0
  1 11  1  0
  2 12  1  0
  2 13  1  0
  3 14  1  0
  4 15  1  0
  5 16  1  0
  6 17  1  0
  6 18  1  0
  7 19  1  0
  7 20  1  0
  8 21  1  0
  9 22  1  0
  9 23  1  0
M  END
