
     RDKit          3D

 21 23  0  0  0  0  0  0  0  0999 V2000
    2.3068    1.1393   -0.2189 C   0  0  0  0  0  0  0  0  0  0  0  0
    2.1558    0.2167    0.9809 C   0  0  0  0  0  0  0  0  0  0  0  0
    1.1044    0.3146   -0.0203 C   0  0  0  0  0  0  0  0  0  0  0  0
    0.8198   -0.9104   -0.8447 C   0  0  0  0  0  0  0  0  0  0  0  0
   -0.5893   -1.2635   -0.3774 C   0  0  0  0  0  0  0  0  0  0  0  0
   -1.1211    0.0732    0.0288 C   0  0  0  0  0  0  0  0  0  0  0  0
   -2.2472    0.2332    0.9695 C   0  0  0  0  0  0  0  0  0  0  0  0
   -2.4577    0.4358   -0.4875 C   0  0  0  0  0  0  0  0  0  0  0  0
   -0.0862    0.9561    0.1363 O   0  0  0  0  0  0  0  0  0  0  0  0
    2.2453    2.2159    0.0778 H   0  0  0  0  0  0  0  0  0  0  0  0
    2.9891    0.8826   -1.0287 H   0  0  0  0  0  0  0  0  0  0  0  0
    2.0555    0.6315    1.9849 H   0  0  0  0  0  0  0  0  0  0  0  0
    2.8604   -0.6462    0.9310 H   0  0  0  0  0  0  0  0  0  0  0  0
    0.8272   -0.6271   -1.9041 H   0  0  0  0  0  0  0  0  0  0  0  0
    1.4772   -1.7437   -0.5909 H   0  0  0  0  0  0  0  0  0  0  0  0
   -1.1237   -1.6938   -1.2511 H   0  0  0  0  0  0  0  0  0  0  0  0
   -0.5925   -1.9222    0.4968 H   0  0  0  0  0  0  0  0  0  0  0  0
   -2.6937   -0.6052    1.5217 H   0  0  0  0  0  0  0  0  0  0  0  0
   -2.2668    1.1853    1.5775 H   0  0  0  0  0  0  0  0  0  0  0  0
   -3.0071   -0.3338   -1.0969 H   0  0  0  0  0  0  0  0  0  0  0  0
   -2.6563    1.4615   -0.8847 H   0  0  0  0  0  0  0  0  0  0  0  0
  1  2  1  0
  2  3  1  0
  3  4  1  0
  4  5  1  0
  5  6  1  0
  6  7  1  0
  7  8  1  0
  6  9  1  0
  3  1  1  0
  8  6  1  0
  9  3  1  0
  1 10  1  0
  1 11  1  0
  2 12  1  0
  2 13  1  0
  4 14  1  0
  4 15  1  0
  5 16  1  0
  5 17  1  0
  7 18  1  0
  7 19  1  0
  8 20  1  0
  8 21  1  0
M  END
