
     RDKit          3D

 17 18  0  0  0  0  0  0  0  0999 V2000
   -2.3417    0.4592    0.0741 C   0  0  0  0  0  0  0  0  0  0  0  0
   -1.4724   -0.6049   -0.5566 C   0  0  0  0  0  0  0  0  0  0  0  0
   -0.4104    0.3643   -0.1295 C   0  0  0  0  0  0  0  0  0  0  0  0
    0.8124   -0.3801    0.3655 C   0  0  0  0  0  0  0  0  0  0  0  0
    2.0033    0.3499    0.8448 C   0  0  0  0  0  0  0  0  0  0  0  0
    1.9991   -0.3292   -0.5139 C   0  0  0  0  0  0  0  0  0  0  0  0
   -1.2719    0.7608    0.9147 O   0  0  0  0  0  0  0  0  0  0  0  0
   -3.2254    0.0119    0.5650 H   0  0  0  0  0  0  0  0  0  0  0  0
   -2.5891    1.2937   -0.6029 H   0  0  0  0  0  0  0  0  0  0  0  0
   -1.4232   -1.5285    0.0313 H   0  0  0  0  0  0  0  0  0  0  0  0
   -1.6343   -0.7115   -1.6411 H   0  0  0  0  0  0  0  0  0  0  0  0
   -0.2215    1.2233   -0.7826 H   0  0  0  0  0  0  0  0  0  0  0  0
    0.5688   -1.3209    0.8915 H   0  0  0  0  0  0  0  0  0  0  0  0
    1.9910    1.4520    0.8947 H   0  0  0  0  0  0  0  0  0  0  0  0
    2.6134   -0.1213    1.6482 H   0  0  0  0  0  0  0  0  0  0  0  0
    2.5529   -1.2779   -0.6375 H   0  0  0  0  0  0  0  0  0  0  0  0
    2.0489    0.3592   -1.3656 H   0  0  0  0  0  0  0  0  0  0  0  0
  1  2  1  0
  2  3  1  0
  3  4  1  0
  4  5  1  0
  5  6  1  0
  3  7  1  0
  7  1  1  0
  6  4  1  0
  1  8  1  0
  1  9  1  0
  2 10  1  0
  2 11  1  0
  3 12  1  0
  4 13  1  0
  5 14  1  0
  5 15  1  0
  6 16  1  0
  6 17  1  0
M  END
