
     RDKit          3D

 21 23  0  0  0  0  0  0  0  0999 V2000
   -1.5315    0.9331   -0.8155 C   0  0  0  0  0  0  0  0  0  0  0  0
   -1.8521    0.1321    0.4484 C   0  0  0  0  0  0  0  0  0  0  0  0
   -1.3013   -1.1598    0.0402 C   0  0  0  0  0  0  0  0  0  0  0  0
   -0.0482   -1.7883    0.0398 C   0  0  0  0  0  0  0  0  0  0  0  0
    0.0093   -0.5102   -0.5539 C   0  0  0  0  0  0  0  0  0  0  0  0
    0.7546    0.5032    0.2532 C   0  0  0  0  0  0  0  0  0  0  0  0
    1.9871    1.0121   -0.4725 C   0  0  0  0  0  0  0  0  0  0  0  0
    2.1789    0.0545    0.6459 C   0  0  0  0  0  0  0  0  0  0  0  0
   -0.6567    0.1019   -1.5728 O   0  0  0  0  0  0  0  0  0  0  0  0
   -2.4484    1.0025   -1.4374 H   0  0  0  0  0  0  0  0  0  0  0  0
   -1.0790    1.8983   -0.5922 H   0  0  0  0  0  0  0  0  0  0  0  0
   -1.5239    0.5762    1.3706 H   0  0  0  0  0  0  0  0  0  0  0  0
   -2.9808    0.0940    0.5511 H   0  0  0  0  0  0  0  0  0  0  0  0
   -2.0082   -1.5972   -0.7430 H   0  0  0  0  0  0  0  0  0  0  0  0
    0.1770   -2.6677   -0.6360 H   0  0  0  0  0  0  0  0  0  0  0  0
    0.4284   -2.0029    1.0290 H   0  0  0  0  0  0  0  0  0  0  0  0
    0.3283    1.2188    0.9253 H   0  0  0  0  0  0  0  0  0  0  0  0
    2.1810    0.7300   -1.5114 H   0  0  0  0  0  0  0  0  0  0  0  0
    2.3493    2.0520   -0.2447 H   0  0  0  0  0  0  0  0  0  0  0  0
    2.4619   -0.9932    0.4322 H   0  0  0  0  0  0  0  0  0  0  0  0
    2.5745    0.4108    1.6177 H   0  0  0  0  0  0  0  0  0  0  0  0
  1  2  1  0
  2  3  1  0
  3  4  1  0
  4  5  1  0
  5  6  1  0
  6  7  1  0
  7  8  1  0
  5  9  1  0
  9  1  1  0
  5  3  1  0
  8  6  1  0
  1 10  1  0
  1 11  1  0
  2 12  1  0
  2 13  1  0
  3 14  1  0
  4 15  1  0
  4 16  1  0
  6 17  1  0
  7 18  1  0
  7 19  1  0
  8 20  1  0
  8 21  1  0
M  END
