
     RDKit          3D

 21 23  0  0  0  0  0  0  0  0999 V2000
    2.1488   -0.2583   -0.6209 C   0  0  0  0  0  0  0  0  0  0  0  0
    0.8233   -1.0104   -0.6431 C   0  0  0  0  0  0  0  0  0  0  0  0
    0.2874   -0.0811    0.3862 C   0  0  0  0  0  0  0  0  0  0  0  0
   -1.1187    0.3402    0.4391 C   0  0  0  0  0  0  0  0  0  0  0  0
   -1.7194    1.0580   -0.7101 C   0  0  0  0  0  0  0  0  0  0  0  0
   -2.7473    0.0943   -0.8422 O   0  0  0  0  0  0  0  0  0  0  0  0
   -2.0118   -0.7908   -0.0830 C   0  0  0  0  0  0  0  0  0  0  0  0
    1.1231    0.2454    1.6143 C   0  0  0  0  0  0  0  0  0  0  0  0
    1.4536    0.7700    0.2759 C   0  0  0  0  0  0  0  0  0  0  0  0
    2.8892   -0.8959   -0.0715 H   0  0  0  0  0  0  0  0  0  0  0  0
    2.4885    0.1230   -1.5844 H   0  0  0  0  0  0  0  0  0  0  0  0
    0.3554   -0.8543   -1.6462 H   0  0  0  0  0  0  0  0  0  0  0  0
    0.8751   -2.0636   -0.3534 H   0  0  0  0  0  0  0  0  0  0  0  0
   -1.4375    0.7417    1.4157 H   0  0  0  0  0  0  0  0  0  0  0  0
   -2.2254    2.0143   -0.3935 H   0  0  0  0  0  0  0  0  0  0  0  0
   -1.1435    1.1617   -1.6300 H   0  0  0  0  0  0  0  0  0  0  0  0
   -2.5144   -1.2610    0.7710 H   0  0  0  0  0  0  0  0  0  0  0  0
   -1.4687   -1.5460   -0.6855 H   0  0  0  0  0  0  0  0  0  0  0  0
    1.7892   -0.5459    2.0289 H   0  0  0  0  0  0  0  0  0  0  0  0
    0.6966    0.9415    2.3290 H   0  0  0  0  0  0  0  0  0  0  0  0
    1.4564    1.8171    0.0035 H   0  0  0  0  0  0  0  0  0  0  0  0
  1  2  1  0
  2  3  1  0
  3  4  1  0
  4  5  1  0
  5  6  1  0
  6  7  1  0
  3  8  1  0
  8  9  1  0
  9  1  1  0
  9  3  1  0
  7  4  1  0
  1 10  1  0
  1 11  1  0
  2 12  1  0
  2 13  1  0
  4 14  1  0
  5 15  1  0
  5 16  1  0
  7 17  1  0
  7 18  1  0
  8 19  1  0
  8 20  1  0
  9 21  1  0
M  END
