
     RDKit          3D

 19 20  0  0  0  0  0  0  0  0999 V2000
    1.2862    0.0705    0.8354 C   0  0  0  0  0  0  0  0  0  0  0  0
    1.0337    1.0335   -0.3296 C   0  0  0  0  0  0  0  0  0  0  0  0
   -0.1175    0.4080   -1.1115 C   0  0  0  0  0  0  0  0  0  0  0  0
   -1.3578    0.6351   -0.3131 C   0  0  0  0  0  0  0  0  0  0  0  0
   -1.1922   -0.2999    0.8931 C   0  0  0  0  0  0  0  0  0  0  0  0
    0.1648   -0.9262    0.7113 C   0  0  0  0  0  0  0  0  0  0  0  0
    0.1520   -1.0772   -0.8224 C   0  0  0  0  0  0  0  0  0  0  0  0
    1.3394    0.5780    1.7959 H   0  0  0  0  0  0  0  0  0  0  0  0
    2.2280   -0.4887    0.5726 H   0  0  0  0  0  0  0  0  0  0  0  0
    0.6968    1.9870    0.1064 H   0  0  0  0  0  0  0  0  0  0  0  0
    1.9334    1.1338   -0.9689 H   0  0  0  0  0  0  0  0  0  0  0  0
   -0.1436    0.6525   -2.1487 H   0  0  0  0  0  0  0  0  0  0  0  0
   -1.2853    1.6737    0.1168 H   0  0  0  0  0  0  0  0  0  0  0  0
   -2.2941    0.4760   -0.8366 H   0  0  0  0  0  0  0  0  0  0  0  0
   -1.9412   -1.1138    0.7231 H   0  0  0  0  0  0  0  0  0  0  0  0
   -1.3347    0.2126    1.8391 H   0  0  0  0  0  0  0  0  0  0  0  0
    0.3160   -1.8627    1.2223 H   0  0  0  0  0  0  0  0  0  0  0  0
   -0.6508   -1.7208   -1.1651 H   0  0  0  0  0  0  0  0  0  0  0  0
    1.1668   -1.3713   -1.1200 H   0  0  0  0  0  0  0  0  0  0  0  0
  1  2  1  0
  2  3  1  0
  3  4  1  0
  4  5  1  0
  5  6  1  0
  6  7  1  0
  6  1  1  0
  7  3  1  0
  1  8  1  0
  1  9  1  0
  2 10  1  0
  2 11  1  0
  3 12  1  0
  4 13  1  0
  4 14  1  0
  5 15  1  0
  5 16  1  0
  6 17  1  0
  7 18  1  0
  7 19  1  0
M  END
