
     RDKit          3D

 19 21  0  0  0  0  0  0  0  0999 V2000
    2.5687    0.5095   -0.2390 C   0  0  0  0  0  0  0  0  0  0  0  0
    1.4619    0.4341   -1.2969 C   0  0  0  0  0  0  0  0  0  0  0  0
    0.8333   -0.3019   -0.1061 C   0  0  0  0  0  0  0  0  0  0  0  0
   -0.6482   -0.1746   -0.1472 C   0  0  0  0  0  0  0  0  0  0  0  0
   -1.4793   -1.4354   -0.0408 C   0  0  0  0  0  0  0  0  0  0  0  0
   -1.5219   -0.3919    1.0050 C   0  0  0  0  0  0  0  0  0  0  0  0
   -2.0925    0.9376    0.5697 C   0  0  0  0  0  0  0  0  0  0  0  0
   -1.2732    0.9666   -0.5695 O   0  0  0  0  0  0  0  0  0  0  0  0
    1.5157    0.5994    0.7030 O   0  0  0  0  0  0  0  0  0  0  0  0
    3.0693   -0.4857   -0.2033 H   0  0  0  0  0  0  0  0  0  0  0  0
    3.2117    1.3821   -0.3004 H   0  0  0  0  0  0  0  0  0  0  0  0
    1.6679   -0.2357   -2.1306 H   0  0  0  0  0  0  0  0  0  0  0  0
    0.9680    1.3908   -1.5106 H   0  0  0  0  0  0  0  0  0  0  0  0
    1.1929   -1.3282   -0.0104 H   0  0  0  0  0  0  0  0  0  0  0  0
   -2.3821   -1.4697   -0.7127 H   0  0  0  0  0  0  0  0  0  0  0  0
   -0.8901   -2.3711    0.0894 H   0  0  0  0  0  0  0  0  0  0  0  0
   -1.1756   -0.5463    2.0291 H   0  0  0  0  0  0  0  0  0  0  0  0
   -3.1657    0.8091    0.3208 H   0  0  0  0  0  0  0  0  0  0  0  0
   -1.8609    1.7112    1.3113 H   0  0  0  0  0  0  0  0  0  0  0  0
  1  2  1  0
  2  3  1  0
  3  4  1  0
  4  5  1  0
  5  6  1  0
  6  7  1  0
  7  8  1  0
  3  9  1  0
  9  1  1  0
  6  4  1  0
  8  4  1  0
  1 10  1  0
  1 11  1  0
  2 12  1  0
  2 13  1  0
  3 14  1  0
  5 15  1  0
  5 16  1  0
  6 17  1  0
  7 18  1  0
  7 19  1  0
M  END
