
     RDKit          3D

 23 25  0  0  0  0  0  0  0  0999 V2000
   -1.8228   -0.3652   -0.3918 C   0  0  0  0  0  0  0  0  0  0  0  0
   -1.2333   -0.9143    0.8593 C   0  0  0  0  0  0  0  0  0  0  0  0
    0.1440   -0.3874    1.1016 C   0  0  0  0  0  0  0  0  0  0  0  0
    0.0771    1.1467    1.1792 C   0  0  0  0  0  0  0  0  0  0  0  0
    0.1776    1.1035   -0.3585 C   0  0  0  0  0  0  0  0  0  0  0  0
   -1.2718    0.9546   -0.8210 C   0  0  0  0  0  0  0  0  0  0  0  0
    0.8434   -0.1878   -0.1780 C   0  0  0  0  0  0  0  0  0  0  0  0
    2.3513   -0.2167   -0.2522 C   0  0  0  0  0  0  0  0  0  0  0  0
    1.4406   -1.0797   -1.0778 C   0  0  0  0  0  0  0  0  0  0  0  0
   -2.9198   -0.2369   -0.2302 H   0  0  0  0  0  0  0  0  0  0  0  0
   -1.7332   -1.0628   -1.2664 H   0  0  0  0  0  0  0  0  0  0  0  0
   -1.8949   -0.7811    1.7551 H   0  0  0  0  0  0  0  0  0  0  0  0
   -1.1551   -2.0328    0.7379 H   0  0  0  0  0  0  0  0  0  0  0  0
    0.7575   -0.8628    1.8566 H   0  0  0  0  0  0  0  0  0  0  0  0
    1.0137    1.5092    1.6106 H   0  0  0  0  0  0  0  0  0  0  0  0
   -0.8640    1.5433    1.5546 H   0  0  0  0  0  0  0  0  0  0  0  0
    0.7236    1.9369   -0.7990 H   0  0  0  0  0  0  0  0  0  0  0  0
   -1.8172    1.8113   -0.3268 H   0  0  0  0  0  0  0  0  0  0  0  0
   -1.3739    1.1258   -1.9051 H   0  0  0  0  0  0  0  0  0  0  0  0
    2.8430    0.6678   -0.6856 H   0  0  0  0  0  0  0  0  0  0  0  0
    2.8185   -0.6255    0.6748 H   0  0  0  0  0  0  0  0  0  0  0  0
    1.4385   -0.8659   -2.1782 H   0  0  0  0  0  0  0  0  0  0  0  0
    1.4573   -2.1800   -0.8593 H   0  0  0  0  0  0  0  0  0  0  0  0
  1  2  1  0
  2  3  1  0
  3  4  1  0
  4  5  1  0
  5  6  1  0
  5  7  1  0
  7  8  1  0
  8  9  1  0
  6  1  1  0
  9  7  1  0
  7  3  1  0
  1 10  1  0
  1 11  1  0
  2 12  1  0
  2 13  1  0
  3 14  1  0
  4 15  1  0
  4 16  1  0
  5 17  1  0
  6 18  1  0
  6 19  1  0
  8 20  1  0
  8 21  1  0
  9 22  1  0
  9 23  1  0
M  END
