
     RDKit          3D

 17 19  0  0  0  0  0  0  0  0999 V2000
    1.1194   -0.9931    0.4697 C   0  0  0  0  0  0  0  0  0  0  0  0
    1.6338    0.3843    0.1241 C   0  0  0  0  0  0  0  0  0  0  0  0
    0.4187    1.2260   -0.2603 C   0  0  0  0  0  0  0  0  0  0  0  0
   -0.4504    1.1203    0.8142 O   0  0  0  0  0  0  0  0  0  0  0  0
   -1.4514    0.2811    0.4493 C   0  0  0  0  0  0  0  0  0  0  0  0
   -1.1412   -1.0289   -0.0600 C   0  0  0  0  0  0  0  0  0  0  0  0
    0.1043   -1.4229   -0.3216 O   0  0  0  0  0  0  0  0  0  0  0  0
   -1.4101    0.1795   -0.9999 C   0  0  0  0  0  0  0  0  0  0  0  0
   -0.2159    0.7606   -1.3806 O   0  0  0  0  0  0  0  0  0  0  0  0
    1.9928   -1.6924    0.3071 H   0  0  0  0  0  0  0  0  0  0  0  0
    0.8948   -1.0905    1.5671 H   0  0  0  0  0  0  0  0  0  0  0  0
    2.4130    0.3940   -0.6346 H   0  0  0  0  0  0  0  0  0  0  0  0
    2.0179    0.8479    1.0619 H   0  0  0  0  0  0  0  0  0  0  0  0
    0.6831    2.2829   -0.3921 H   0  0  0  0  0  0  0  0  0  0  0  0
   -2.4216    0.4451    0.9344 H   0  0  0  0  0  0  0  0  0  0  0  0
   -1.9251   -1.8057   -0.0161 H   0  0  0  0  0  0  0  0  0  0  0  0
   -2.2620    0.1118   -1.6624 H   0  0  0  0  0  0  0  0  0  0  0  0
  1  2  1  0
  2  3  1  0
  3  4  1  0
  4  5  1  0
  5  6  1  0
  6  7  1  0
  6  8  1  0
  8  9  1  0
  7  1  1  0
  9  3  1  0
  8  5  1  0
  1 10  1  0
  1 11  1  0
  2 12  1  0
  2 13  1  0
  3 14  1  0
  5 15  1  0
  6 16  1  0
  8 17  1  0
M  END
