
     RDKit          3D

 21 22  0  0  0  0  0  0  0  0999 V2000
   -2.2010    0.5892    0.8619 C   0  0  0  0  0  0  0  0  0  0  0  0
   -1.1514   -0.4647    1.1206 C   0  0  0  0  0  0  0  0  0  0  0  0
   -0.5784   -0.6690   -0.2652 C   0  0  0  0  0  0  0  0  0  0  0  0
    0.7148    0.0436   -0.4531 C   0  0  0  0  0  0  0  0  0  0  0  0
    1.8048   -0.3662    0.4755 C   0  0  0  0  0  0  0  0  0  0  0  0
    3.1130    0.3696    0.2696 C   0  0  0  0  0  0  0  0  0  0  0  0
    2.9355   -1.0109   -0.0253 O   0  0  0  0  0  0  0  0  0  0  0  0
   -1.6021   -0.0231   -1.1937 C   0  0  0  0  0  0  0  0  0  0  0  0
   -2.6770    0.3260   -0.4004 O   0  0  0  0  0  0  0  0  0  0  0  0
   -3.0140    0.5905    1.5986 H   0  0  0  0  0  0  0  0  0  0  0  0
   -1.7576    1.6276    0.8909 H   0  0  0  0  0  0  0  0  0  0  0  0
   -0.4012   -0.1120    1.8523 H   0  0  0  0  0  0  0  0  0  0  0  0
   -1.6853   -1.3732    1.4858 H   0  0  0  0  0  0  0  0  0  0  0  0
   -0.5377   -1.7403   -0.5366 H   0  0  0  0  0  0  0  0  0  0  0  0
    0.5310    1.1355   -0.3306 H   0  0  0  0  0  0  0  0  0  0  0  0
    1.0573   -0.1271   -1.4916 H   0  0  0  0  0  0  0  0  0  0  0  0
    1.5620   -0.5685    1.5487 H   0  0  0  0  0  0  0  0  0  0  0  0
    3.7811    0.5042    1.1459 H   0  0  0  0  0  0  0  0  0  0  0  0
    3.2122    1.0649   -0.5844 H   0  0  0  0  0  0  0  0  0  0  0  0
   -1.9064   -0.7006   -2.0057 H   0  0  0  0  0  0  0  0  0  0  0  0
   -1.1996    0.9046   -1.6640 H   0  0  0  0  0  0  0  0  0  0  0  0
  1  2  1  0
  2  3  1  0
  3  4  1  0
  4  5  1  0
  5  6  1  0
  6  7  1  0
  3  8  1  0
  8  9  1  0
  9  1  1  0
  7  5  1  0
  1 10  1  0
  1 11  1  0
  2 12  1  0
  2 13  1  0
  3 14  1  0
  4 15  1  0
  4 16  1  0
  5 17  1  0
  6 18  1  0
  6 19  1  0
  8 20  1  0
  8 21  1  0
M  END
