
     RDKit          3D

 17 20  0  0  0  0  0  0  0  0999 V2000
   -1.2421    0.9079    0.4330 C   0  0  0  0  0  0  0  0  0  0  0  0
   -1.8795   -0.5076    0.2257 C   0  0  0  0  0  0  0  0  0  0  0  0
   -0.4914   -0.2147    0.0422 C   0  0  0  0  0  0  0  0  0  0  0  0
    0.6724   -0.8629    0.6693 C   0  0  0  0  0  0  0  0  0  0  0  0
    0.7158   -1.6629   -0.5023 O   0  0  0  0  0  0  0  0  0  0  0  0
    0.3353   -0.4613   -1.1537 C   0  0  0  0  0  0  0  0  0  0  0  0
    1.4899    0.5285   -0.9653 C   0  0  0  0  0  0  0  0  0  0  0  0
    2.6959    0.0791   -0.4907 O   0  0  0  0  0  0  0  0  0  0  0  0
    1.7676    0.1954    0.5162 C   0  0  0  0  0  0  0  0  0  0  0  0
   -1.6387    1.6688   -0.2656 H   0  0  0  0  0  0  0  0  0  0  0  0
   -1.2969    1.2599    1.4971 H   0  0  0  0  0  0  0  0  0  0  0  0
   -2.2127   -1.0239    1.1406 H   0  0  0  0  0  0  0  0  0  0  0  0
   -2.5328   -0.6181   -0.6552 H   0  0  0  0  0  0  0  0  0  0  0  0
    0.6070   -1.3746    1.6032 H   0  0  0  0  0  0  0  0  0  0  0  0
   -0.0852   -0.5486   -2.1290 H   0  0  0  0  0  0  0  0  0  0  0  0
    1.3085    1.5891   -1.1736 H   0  0  0  0  0  0  0  0  0  0  0  0
    1.7867    1.0458    1.2082 H   0  0  0  0  0  0  0  0  0  0  0  0
  1  2  1  0
  2  3  1  0
  3  4  1  0
  4  5  1  0
  5  6  1  0
  6  7  1  0
  7  8  1  0
  8  9  1  0
  3  1  1  0
  9  4  1  0
  6  3  1  0
  9  7  1  0
  1 10  1  0
  1 11  1  0
  2 12  1  0
  2 13  1  0
  4 14  1  0
  6 15  1  0
  7 16  1  0
  9 17  1  0
M  END
