
     RDKit          3D

 17 19  0  0  0  0  0  0  0  0999 V2000
   -1.4966    0.5956   -0.1307 C   0  0  0  0  0  0  0  0  0  0  0  0
   -1.3162   -0.9273    0.0207 C   0  0  0  0  0  0  0  0  0  0  0  0
    0.1794   -0.9843    0.1046 C   0  0  0  0  0  0  0  0  0  0  0  0
    0.6823    0.0184   -0.8994 C   0  0  0  0  0  0  0  0  0  0  0  0
    1.8305    0.2230    0.0395 C   0  0  0  0  0  0  0  0  0  0  0  0
    0.6336    0.1718    0.9478 C   0  0  0  0  0  0  0  0  0  0  0  0
   -0.0581    1.0261   -0.0667 C   0  0  0  0  0  0  0  0  0  0  0  0
   -2.0613    1.0110    0.7273 H   0  0  0  0  0  0  0  0  0  0  0  0
   -1.9600    0.8165   -1.0966 H   0  0  0  0  0  0  0  0  0  0  0  0
   -1.7068   -1.4646   -0.8475 H   0  0  0  0  0  0  0  0  0  0  0  0
   -1.7242   -1.2757    0.9791 H   0  0  0  0  0  0  0  0  0  0  0  0
    0.6741   -1.9283    0.1920 H   0  0  0  0  0  0  0  0  0  0  0  0
    0.6953   -0.0679   -1.8925 H   0  0  0  0  0  0  0  0  0  0  0  0
    2.3711    1.1655   -0.0111 H   0  0  0  0  0  0  0  0  0  0  0  0
    2.4515   -0.6914    0.1427 H   0  0  0  0  0  0  0  0  0  0  0  0
    0.6170    0.2494    1.9432 H   0  0  0  0  0  0  0  0  0  0  0  0
    0.1885    2.0622   -0.1525 H   0  0  0  0  0  0  0  0  0  0  0  0
  1  2  1  0
  2  3  1  0
  3  4  1  0
  4  5  1  0
  5  6  1  0
  6  7  1  0
  7  1  1  0
  6  3  1  0
  7  4  1  0
  1  8  1  0
  1  9  1  0
  2 10  1  0
  2 11  1  0
  3 12  1  0
  4 13  1  0
  5 14  1  0
  5 15  1  0
  6 16  1  0
  7 17  1  0
M  END
