
     RDKit          3D

 21 23  0  0  0  0  0  0  0  0999 V2000
   -1.5576    0.1871   -0.8176 C   0  0  0  0  0  0  0  0  0  0  0  0
   -1.2933   -1.1541   -0.1111 C   0  0  0  0  0  0  0  0  0  0  0  0
    0.0292   -0.8134    0.6387 C   0  0  0  0  0  0  0  0  0  0  0  0
   -0.5385    0.5161    1.1750 C   0  0  0  0  0  0  0  0  0  0  0  0
   -0.6884    1.2206   -0.1211 C   0  0  0  0  0  0  0  0  0  0  0  0
    0.5220    1.4324   -0.8218 O   0  0  0  0  0  0  0  0  0  0  0  0
    1.5127    0.8330   -0.1452 C   0  0  0  0  0  0  0  0  0  0  0  0
    2.4287   -0.2321   -0.3410 C   0  0  0  0  0  0  0  0  0  0  0  0
    1.0609   -0.6584   -0.3680 C   0  0  0  0  0  0  0  0  0  0  0  0
   -2.6190    0.4525   -0.5508 H   0  0  0  0  0  0  0  0  0  0  0  0
   -1.3869    0.1311   -1.8862 H   0  0  0  0  0  0  0  0  0  0  0  0
   -1.0945   -1.9023   -0.9018 H   0  0  0  0  0  0  0  0  0  0  0  0
   -2.0817   -1.4164    0.5892 H   0  0  0  0  0  0  0  0  0  0  0  0
    0.1723   -1.5438    1.4330 H   0  0  0  0  0  0  0  0  0  0  0  0
   -0.0629    0.9359    2.0129 H   0  0  0  0  0  0  0  0  0  0  0  0
   -1.6059    0.3402    1.5304 H   0  0  0  0  0  0  0  0  0  0  0  0
   -1.1951    2.2064   -0.0401 H   0  0  0  0  0  0  0  0  0  0  0  0
    1.5335    1.2269    0.8854 H   0  0  0  0  0  0  0  0  0  0  0  0
    3.0685   -0.2073   -1.2401 H   0  0  0  0  0  0  0  0  0  0  0  0
    3.0375   -0.6374    0.5115 H   0  0  0  0  0  0  0  0  0  0  0  0
    0.7584   -0.9173   -1.4312 H   0  0  0  0  0  0  0  0  0  0  0  0
  1  2  1  0
  2  3  1  0
  3  4  1  0
  4  5  1  0
  5  6  1  0
  6  7  1  0
  7  8  1  0
  8  9  1  0
  5  1  1  0
  9  7  1  0
  9  3  1  0
  1 10  1  0
  1 11  1  0
  2 12  1  0
  2 13  1  0
  3 14  1  0
  4 15  1  0
  4 16  1  0
  5 17  1  0
  7 18  1  0
  8 19  1  0
  8 20  1  0
  9 21  1  0
M  END
