
     RDKit          3D

 16 18  0  0  0  0  0  0  0  0999 V2000
    2.1844    0.2213    0.4823 C   0  0  0  0  0  0  0  0  0  0  0  0
    1.4077   -0.8899   -0.2136 C   0  0  0  0  0  0  0  0  0  0  0  0
    0.2961    0.0105    0.1393 C   0  0  0  0  0  0  0  0  0  0  0  0
    0.9912    0.6297    1.1178 O   0  0  0  0  0  0  0  0  0  0  0  0
   -1.0972   -0.4246    0.2153 C   0  0  0  0  0  0  0  0  0  0  0  0
   -2.2595    0.4998    0.1567 C   0  0  0  0  0  0  0  0  0  0  0  0
   -1.5123    1.5745   -0.2720 O   0  0  0  0  0  0  0  0  0  0  0  0
   -0.6027    0.6459   -0.8172 C   0  0  0  0  0  0  0  0  0  0  0  0
    2.5694    0.9359   -0.2646 H   0  0  0  0  0  0  0  0  0  0  0  0
    2.9312   -0.2274    1.1653 H   0  0  0  0  0  0  0  0  0  0  0  0
    1.5612   -0.9565   -1.3002 H   0  0  0  0  0  0  0  0  0  0  0  0
    1.4042   -1.8166    0.3586 H   0  0  0  0  0  0  0  0  0  0  0  0
   -1.3081   -1.4382   -0.2381 H   0  0  0  0  0  0  0  0  0  0  0  0
   -2.8411    0.6431    1.0933 H   0  0  0  0  0  0  0  0  0  0  0  0
   -3.0043    0.2337   -0.6514 H   0  0  0  0  0  0  0  0  0  0  0  0
   -0.7204    0.3585   -1.8610 H   0  0  0  0  0  0  0  0  0  0  0  0
  1  2  1  0
  2  3  1  0
  3  4  1  0
  3  5  1  0
  5  6  1  0
  6  7  1  0
  7  8  1  0
  4  1  1  0
  8  5  1  0
  8  3  1  0
  1  9  1  0
  1 10  1  0
  2 11  1  0
  2 12  1  0
  5 13  1  0
  6 14  1  0
  6 15  1  0
  8 16  1  0
M  END
