
     RDKit          3D

 21 23  0  0  0  0  0  0  0  0999 V2000
   -2.1050    0.4823   -0.0187 C   0  0  0  0  0  0  0  0  0  0  0  0
   -1.8199   -0.7144    0.8531 C   0  0  0  0  0  0  0  0  0  0  0  0
   -0.8450   -1.2151   -0.1760 C   0  0  0  0  0  0  0  0  0  0  0  0
    0.4253   -1.2667    0.3114 O   0  0  0  0  0  0  0  0  0  0  0  0
    1.0868   -0.1098    0.0466 C   0  0  0  0  0  0  0  0  0  0  0  0
    1.9564    0.5885    1.0110 C   0  0  0  0  0  0  0  0  0  0  0  0
    2.5660   -0.1992   -0.1360 C   0  0  0  0  0  0  0  0  0  0  0  0
    0.2826    0.7340   -0.8789 C   0  0  0  0  0  0  0  0  0  0  0  0
   -1.0317    0.0346   -0.9635 C   0  0  0  0  0  0  0  0  0  0  0  0
   -1.9622    1.4717    0.4586 H   0  0  0  0  0  0  0  0  0  0  0  0
   -3.1435    0.4456   -0.4339 H   0  0  0  0  0  0  0  0  0  0  0  0
   -2.6524   -1.4265    0.9637 H   0  0  0  0  0  0  0  0  0  0  0  0
   -1.3521   -0.3647    1.8074 H   0  0  0  0  0  0  0  0  0  0  0  0
   -1.1919   -2.1033   -0.7700 H   0  0  0  0  0  0  0  0  0  0  0  0
    2.0380    1.7016    0.9212 H   0  0  0  0  0  0  0  0  0  0  0  0
    2.1100    0.2338    2.0495 H   0  0  0  0  0  0  0  0  0  0  0  0
    3.0355    0.3813   -0.9713 H   0  0  0  0  0  0  0  0  0  0  0  0
    3.0816   -1.1299    0.2099 H   0  0  0  0  0  0  0  0  0  0  0  0
    0.7893    0.7905   -1.8741 H   0  0  0  0  0  0  0  0  0  0  0  0
    0.1310    1.7226   -0.4155 H   0  0  0  0  0  0  0  0  0  0  0  0
   -1.3990   -0.0568   -1.9943 H   0  0  0  0  0  0  0  0  0  0  0  0
  1  2  1  0
  2  3  1  0
  3  4  1  0
  4  5  1  0
  5  6  1  0
  6  7  1  0
  5  8  1  0
  8  9  1  0
  9  1  1  0
  9  3  1  0
  7  5  1  0
  1 10  1  0
  1 11  1  0
  2 12  1  0
  2 13  1  0
  3 14  1  0
  6 15  1  0
  6 16  1  0
  7 17  1  0
  7 18  1  0
  8 19  1  0
  8 20  1  0
  9 21  1  0
M  END
