
     RDKit          3D

 21 22  0  0  0  0  0  0  0  0999 V2000
    2.0459    0.1138    0.2807 C   0  0  0  0  0  0  0  0  0  0  0  0
    1.0203    1.1919   -0.0311 C   0  0  0  0  0  0  0  0  0  0  0  0
   -0.2279    0.5227   -0.5287 C   0  0  0  0  0  0  0  0  0  0  0  0
   -1.4888    1.0475    0.0604 C   0  0  0  0  0  0  0  0  0  0  0  0
   -2.2220   -0.2321    0.4538 C   0  0  0  0  0  0  0  0  0  0  0  0
   -1.4864   -1.2789   -0.1308 O   0  0  0  0  0  0  0  0  0  0  0  0
   -0.1996   -0.8859    0.0864 C   0  0  0  0  0  0  0  0  0  0  0  0
    0.8449   -1.6194   -0.6809 C   0  0  0  0  0  0  0  0  0  0  0  0
    2.0239   -0.9216   -0.6324 O   0  0  0  0  0  0  0  0  0  0  0  0
    1.9610   -0.2445    1.3301 H   0  0  0  0  0  0  0  0  0  0  0  0
    3.0379    0.6071    0.1980 H   0  0  0  0  0  0  0  0  0  0  0  0
    0.7750    1.7121    0.9146 H   0  0  0  0  0  0  0  0  0  0  0  0
    1.4322    1.9440   -0.7296 H   0  0  0  0  0  0  0  0  0  0  0  0
   -0.2482    0.4598   -1.6388 H   0  0  0  0  0  0  0  0  0  0  0  0
   -2.0994    1.6206   -0.6623 H   0  0  0  0  0  0  0  0  0  0  0  0
   -1.2499    1.6503    0.9819 H   0  0  0  0  0  0  0  0  0  0  0  0
   -2.0944   -0.3618    1.5536 H   0  0  0  0  0  0  0  0  0  0  0  0
   -3.2656   -0.2344    0.1431 H   0  0  0  0  0  0  0  0  0  0  0  0
   -0.0078   -0.7783    1.1521 H   0  0  0  0  0  0  0  0  0  0  0  0
    0.5169   -1.6366   -1.7554 H   0  0  0  0  0  0  0  0  0  0  0  0
    0.9318   -2.6761   -0.3650 H   0  0  0  0  0  0  0  0  0  0  0  0
  1  2  1  0
  2  3  1  0
  3  4  1  0
  4  5  1  0
  5  6  1  0
  6  7  1  0
  7  8  1  0
  8  9  1  0
  9  1  1  0
  7  3  1  0
  1 10  1  0
  1 11  1  0
  2 12  1  0
  2 13  1  0
  3 14  1  0
  4 15  1  0
  4 16  1  0
  5 17  1  0
  5 18  1  0
  7 19  1  0
  8 20  1  0
  8 21  1  0
M  END
