
     RDKit          3D

 21 23  0  0  0  0  0  0  0  0999 V2000
    1.1872    1.2321   -0.7382 C   0  0  0  0  0  0  0  0  0  0  0  0
   -0.3148    0.9651   -0.9850 C   0  0  0  0  0  0  0  0  0  0  0  0
   -0.6259   -0.0989    0.0739 C   0  0  0  0  0  0  0  0  0  0  0  0
   -1.2106   -1.3546   -0.4035 C   0  0  0  0  0  0  0  0  0  0  0  0
   -2.1318   -1.3023    0.6700 O   0  0  0  0  0  0  0  0  0  0  0  0
   -1.9294    0.0907    0.7855 C   0  0  0  0  0  0  0  0  0  0  0  0
    0.5643   -0.0843    0.9234 C   0  0  0  0  0  0  0  0  0  0  0  0
    1.8067   -0.7402    0.9411 C   0  0  0  0  0  0  0  0  0  0  0  0
    1.5738   -0.1250   -0.2980 C   0  0  0  0  0  0  0  0  0  0  0  0
    1.6785    1.6181   -1.6266 H   0  0  0  0  0  0  0  0  0  0  0  0
    1.1893    1.9729    0.1107 H   0  0  0  0  0  0  0  0  0  0  0  0
   -0.3521    0.5289   -2.0068 H   0  0  0  0  0  0  0  0  0  0  0  0
   -0.9104    1.8691   -0.8568 H   0  0  0  0  0  0  0  0  0  0  0  0
   -1.7842   -1.2830   -1.3479 H   0  0  0  0  0  0  0  0  0  0  0  0
   -0.5915   -2.2509   -0.2758 H   0  0  0  0  0  0  0  0  0  0  0  0
   -2.6877    0.6927    0.2430 H   0  0  0  0  0  0  0  0  0  0  0  0
   -1.7623    0.4392    1.8162 H   0  0  0  0  0  0  0  0  0  0  0  0
    0.5570    0.8910    1.5093 H   0  0  0  0  0  0  0  0  0  0  0  0
    2.6590   -0.3558    1.5695 H   0  0  0  0  0  0  0  0  0  0  0  0
    1.8051   -1.8635    1.0265 H   0  0  0  0  0  0  0  0  0  0  0  0
    1.2798   -0.8413   -1.1306 H   0  0  0  0  0  0  0  0  0  0  0  0
  1  2  1  0
  2  3  1  0
  3  4  1  0
  4  5  1  0
  5  6  1  0
  3  7  1  0
  7  8  1  0
  8  9  1  0
  9  1  1  0
  6  3  1  0
  9  7  1  0
  1 10  1  0
  1 11  1  0
  2 12  1  0
  2 13  1  0
  4 14  1  0
  4 15  1  0
  6 16  1  0
  6 17  1  0
  7 18  1  0
  8 19  1  0
  8 20  1  0
  9 21  1  0
M  END
