
     RDKit          3D

 18 19  0  0  0  0  0  0  0  0999 V2000
   -2.4456    1.1844    0.4280 C   0  0  0  0  0  0  0  0  0  0  0  0
   -2.6902   -0.2526    0.5586 C   0  0  0  0  0  0  0  0  0  0  0  0
   -1.4060    0.2946   -0.1426 C   0  0  0  0  0  0  0  0  0  0  0  0
   -0.2363    0.0237    0.5600 O   0  0  0  0  0  0  0  0  0  0  0  0
    0.7227   -0.4033   -0.3537 C   0  0  0  0  0  0  0  0  0  0  0  0
    2.0380   -0.7249    0.3130 C   0  0  0  0  0  0  0  0  0  0  0  0
    3.2268   -0.0306   -0.3004 C   0  0  0  0  0  0  0  0  0  0  0  0
    2.7118    0.2478    1.0101 O   0  0  0  0  0  0  0  0  0  0  0  0
   -2.2187    1.7908    1.3183 H   0  0  0  0  0  0  0  0  0  0  0  0
   -3.0578    1.7341   -0.3454 H   0  0  0  0  0  0  0  0  0  0  0  0
   -2.5371   -0.7943    1.5106 H   0  0  0  0  0  0  0  0  0  0  0  0
   -3.3904   -0.7979   -0.1261 H   0  0  0  0  0  0  0  0  0  0  0  0
   -1.3754    0.1338   -1.2416 H   0  0  0  0  0  0  0  0  0  0  0  0
    0.3705   -1.2715   -0.9428 H   0  0  0  0  0  0  0  0  0  0  0  0
    0.8346    0.4301   -1.0889 H   0  0  0  0  0  0  0  0  0  0  0  0
    2.2011   -1.7777    0.6489 H   0  0  0  0  0  0  0  0  0  0  0  0
    3.0656    0.8161   -0.9717 H   0  0  0  0  0  0  0  0  0  0  0  0
    4.1863   -0.6026   -0.3239 H   0  0  0  0  0  0  0  0  0  0  0  0
  1  2  1  0
  2  3  1  0
  3  4  1  0
  4  5  1  0
  5  6  1  0
  6  7  1  0
  7  8  1  0
  3  1  1  0
  8  6  1  0
  1  9  1  0
  1 10  1  0
  2 11  1  0
  2 12  1  0
  3 13  1  0
  5 14  1  0
  5 15  1  0
  6 16  1  0
  7 17  1  0
  7 18  1  0
M  END
