
     RDKit          3D

 20 21  0  0  0  0  0  0  0  0999 V2000
   -2.4277    0.0466    0.0919 C   0  0  0  0  0  0  0  0  0  0  0  0
   -1.1774    0.9356    0.0529 C   0  0  0  0  0  0  0  0  0  0  0  0
   -0.3439   -0.2825    0.3802 C   0  0  0  0  0  0  0  0  0  0  0  0
    0.8105   -0.4354   -0.5801 C   0  0  0  0  0  0  0  0  0  0  0  0
    1.7341    0.7577   -0.5473 C   0  0  0  0  0  0  0  0  0  0  0  0
    2.5227   -0.1219    0.3948 C   0  0  0  0  0  0  0  0  0  0  0  0
    1.7990   -1.2300   -0.0564 O   0  0  0  0  0  0  0  0  0  0  0  0
   -1.5255   -1.1563    0.1450 C   0  0  0  0  0  0  0  0  0  0  0  0
   -3.0029    0.1843   -0.8360 H   0  0  0  0  0  0  0  0  0  0  0  0
   -3.0003    0.2662    1.0032 H   0  0  0  0  0  0  0  0  0  0  0  0
   -0.9773    1.3810   -0.9308 H   0  0  0  0  0  0  0  0  0  0  0  0
   -1.1689    1.7284    0.8255 H   0  0  0  0  0  0  0  0  0  0  0  0
    0.0429   -0.3106    1.4254 H   0  0  0  0  0  0  0  0  0  0  0  0
    0.5030   -0.6325   -1.6254 H   0  0  0  0  0  0  0  0  0  0  0  0
    1.2477    1.6301   -0.0790 H   0  0  0  0  0  0  0  0  0  0  0  0
    2.2642    0.9537   -1.5037 H   0  0  0  0  0  0  0  0  0  0  0  0
    2.3333    0.1128    1.4675 H   0  0  0  0  0  0  0  0  0  0  0  0
    3.6021   -0.2308    0.1322 H   0  0  0  0  0  0  0  0  0  0  0  0
   -1.7209   -1.8073    1.0390 H   0  0  0  0  0  0  0  0  0  0  0  0
   -1.5147   -1.7891   -0.7560 H   0  0  0  0  0  0  0  0  0  0  0  0
  1  2  1  0
  2  3  1  0
  3  4  1  0
  4  5  1  0
  5  6  1  0
  6  7  1  0
  3  8  1  0
  8  1  1  0
  7  4  1  0
  1  9  1  0
  1 10  1  0
  2 11  1  0
  2 12  1  0
  3 13  1  0
  4 14  1  0
  5 15  1  0
  5 16  1  0
  6 17  1  0
  6 18  1  0
  8 19  1  0
  8 20  1  0
M  END
