
     RDKit          3D

 15 17  0  0  0  0  0  0  0  0999 V2000
    2.4441    0.6951   -0.4756 C   0  0  0  0  0  0  0  0  0  0  0  0
    2.1333   -0.1694    0.5506 C   0  0  0  0  0  0  0  0  0  0  0  0
    0.7762   -0.4729    0.4962 C   0  0  0  0  0  0  0  0  0  0  0  0
    0.3392    0.2578   -0.6038 C   0  0  0  0  0  0  0  0  0  0  0  0
    1.3355    0.9001   -1.1119 O   0  0  0  0  0  0  0  0  0  0  0  0
   -1.1089   -0.0061   -0.7401 C   0  0  0  0  0  0  0  0  0  0  0  0
   -2.0347    0.4193    0.3747 C   0  0  0  0  0  0  0  0  0  0  0  0
   -1.4792   -0.9465    0.3455 C   0  0  0  0  0  0  0  0  0  0  0  0
   -0.2812   -1.1691    1.0543 O   0  0  0  0  0  0  0  0  0  0  0  0
    3.3869    1.1326   -0.7339 H   0  0  0  0  0  0  0  0  0  0  0  0
    2.8388   -0.5415    1.2712 H   0  0  0  0  0  0  0  0  0  0  0  0
   -1.5268   -0.0937   -1.7524 H   0  0  0  0  0  0  0  0  0  0  0  0
   -3.0789    0.6403    0.1039 H   0  0  0  0  0  0  0  0  0  0  0  0
   -1.5844    1.1249    1.0871 H   0  0  0  0  0  0  0  0  0  0  0  0
   -2.1598   -1.7710    0.1340 H   0  0  0  0  0  0  0  0  0  0  0  0
  1  2  2  0
  2  3  1  0
  3  4  2  0
  4  5  1  0
  4  6  1  0
  6  7  1  0
  7  8  1  0
  8  9  1  0
  5  1  1  0
  8  6  1  0
  9  3  1  0
  1 10  1  0
  2 11  1  0
  6 12  1  0
  7 13  1  0
  7 14  1  0
  8 15  1  0
M  END
