
     RDKit          3D

 18 19  0  0  0  0  0  0  0  0999 V2000
   -1.2400    1.0234    0.4345 C   0  0  0  0  0  0  0  0  0  0  0  0
    0.0973    1.2958   -0.2631 C   0  0  0  0  0  0  0  0  0  0  0  0
    1.1326    0.4736    0.4088 C   0  0  0  0  0  0  0  0  0  0  0  0
    2.0650   -0.4197   -0.2656 C   0  0  0  0  0  0  0  0  0  0  0  0
    0.7341   -0.9919    0.1704 C   0  0  0  0  0  0  0  0  0  0  0  0
   -0.1770   -1.1064   -0.8522 O   0  0  0  0  0  0  0  0  0  0  0  0
   -1.4917   -1.0796   -0.4632 C   0  0  0  0  0  0  0  0  0  0  0  0
   -2.0148    0.2051   -0.3611 O   0  0  0  0  0  0  0  0  0  0  0  0
   -1.7765    1.9419    0.6794 H   0  0  0  0  0  0  0  0  0  0  0  0
   -1.0760    0.4680    1.3974 H   0  0  0  0  0  0  0  0  0  0  0  0
    0.0071    1.0294   -1.3501 H   0  0  0  0  0  0  0  0  0  0  0  0
    0.2577    2.3907   -0.1891 H   0  0  0  0  0  0  0  0  0  0  0  0
    1.3636    0.7746    1.4585 H   0  0  0  0  0  0  0  0  0  0  0  0
    2.9301   -0.7811    0.3049 H   0  0  0  0  0  0  0  0  0  0  0  0
    2.2849   -0.3571   -1.3656 H   0  0  0  0  0  0  0  0  0  0  0  0
    0.6544   -1.5805    1.0847 H   0  0  0  0  0  0  0  0  0  0  0  0
   -2.0809   -1.5958   -1.2750 H   0  0  0  0  0  0  0  0  0  0  0  0
   -1.6700   -1.6903    0.4465 H   0  0  0  0  0  0  0  0  0  0  0  0
  1  2  1  0
  2  3  1  0
  3  4  1  0
  4  5  1  0
  5  6  1  0
  6  7  1  0
  7  8  1  0
  8  1  1  0
  5  3  1  0
  1  9  1  0
  1 10  1  0
  2 11  1  0
  2 12  1  0
  3 13  1  0
  4 14  1  0
  4 15  1  0
  5 16  1  0
  7 17  1  0
  7 18  1  0
M  END
