
     RDKit          3D

 21 22  0  0  0  0  0  0  0  0999 V2000
    1.5587   -1.3132    0.2356 C   0  0  0  0  0  0  0  0  0  0  0  0
    0.0395   -1.4108    0.3982 C   0  0  0  0  0  0  0  0  0  0  0  0
   -0.5621   -0.3728   -0.4892 C   0  0  0  0  0  0  0  0  0  0  0  0
   -2.0159   -0.1318   -0.4106 C   0  0  0  0  0  0  0  0  0  0  0  0
   -1.7365    1.3336   -0.1396 C   0  0  0  0  0  0  0  0  0  0  0  0
   -0.3294    0.9794    0.1956 C   0  0  0  0  0  0  0  0  0  0  0  0
    0.6740    1.6085   -0.4954 O   0  0  0  0  0  0  0  0  0  0  0  0
    1.8771    0.9445   -0.1708 C   0  0  0  0  0  0  0  0  0  0  0  0
    1.9160   -0.3388   -0.6834 O   0  0  0  0  0  0  0  0  0  0  0  0
    1.9171   -2.2871   -0.1852 H   0  0  0  0  0  0  0  0  0  0  0  0
    2.0677   -1.2023    1.2086 H   0  0  0  0  0  0  0  0  0  0  0  0
   -0.3270   -2.4323    0.2316 H   0  0  0  0  0  0  0  0  0  0  0  0
   -0.1952   -1.1240    1.4527 H   0  0  0  0  0  0  0  0  0  0  0  0
   -0.1671   -0.4124   -1.5269 H   0  0  0  0  0  0  0  0  0  0  0  0
   -2.5147   -0.2342   -1.4137 H   0  0  0  0  0  0  0  0  0  0  0  0
   -2.6099   -0.6502    0.3390 H   0  0  0  0  0  0  0  0  0  0  0  0
   -1.8912    2.0181   -0.9769 H   0  0  0  0  0  0  0  0  0  0  0  0
   -2.2785    1.6647    0.7790 H   0  0  0  0  0  0  0  0  0  0  0  0
   -0.0835    0.8886    1.2830 H   0  0  0  0  0  0  0  0  0  0  0  0
    2.7141    1.5515   -0.5687 H   0  0  0  0  0  0  0  0  0  0  0  0
    1.9467    0.9208    0.9371 H   0  0  0  0  0  0  0  0  0  0  0  0
  1  2  1  0
  2  3  1  0
  3  4  1  0
  4  5  1  0
  5  6  1  0
  6  7  1  0
  7  8  1  0
  8  9  1  0
  9  1  1  0
  6  3  1  0
  1 10  1  0
  1 11  1  0
  2 12  1  0
  2 13  1  0
  3 14  1  0
  4 15  1  0
  4 16  1  0
  5 17  1  0
  5 18  1  0
  6 19  1  0
  8 20  1  0
  8 21  1  0
M  END
