
     RDKit          3D

 23 25  0  0  0  0  0  0  0  0999 V2000
   -2.1527    0.8609   -0.2305 C   0  0  0  0  0  0  0  0  0  0  0  0
   -2.0195   -0.6252   -0.3974 C   0  0  0  0  0  0  0  0  0  0  0  0
   -0.6532   -0.9613    0.1204 C   0  0  0  0  0  0  0  0  0  0  0  0
   -0.4175   -0.4892    1.5370 C   0  0  0  0  0  0  0  0  0  0  0  0
    0.0815    0.2913    0.3976 C   0  0  0  0  0  0  0  0  0  0  0  0
    1.5840    0.3704    0.2572 C   0  0  0  0  0  0  0  0  0  0  0  0
    2.2326    0.0965   -1.0516 C   0  0  0  0  0  0  0  0  0  0  0  0
    2.4076   -0.8499    0.1254 C   0  0  0  0  0  0  0  0  0  0  0  0
   -0.7314    1.3402   -0.2792 C   0  0  0  0  0  0  0  0  0  0  0  0
   -2.6463    1.1440    0.7398 H   0  0  0  0  0  0  0  0  0  0  0  0
   -2.7209    1.2994   -1.0871 H   0  0  0  0  0  0  0  0  0  0  0  0
   -2.7627   -1.0944    0.3123 H   0  0  0  0  0  0  0  0  0  0  0  0
   -2.2096   -0.9758   -1.4249 H   0  0  0  0  0  0  0  0  0  0  0  0
   -0.0901   -1.8150   -0.2736 H   0  0  0  0  0  0  0  0  0  0  0  0
    0.2906   -1.1027    2.0971 H   0  0  0  0  0  0  0  0  0  0  0  0
   -1.2914   -0.1617    2.1489 H   0  0  0  0  0  0  0  0  0  0  0  0
    2.0465    1.1953    0.8394 H   0  0  0  0  0  0  0  0  0  0  0  0
    3.1332    0.6928   -1.3665 H   0  0  0  0  0  0  0  0  0  0  0  0
    1.5727   -0.2297   -1.8781 H   0  0  0  0  0  0  0  0  0  0  0  0
    1.9296   -1.8384    0.0950 H   0  0  0  0  0  0  0  0  0  0  0  0
    3.4429   -0.8477    0.5747 H   0  0  0  0  0  0  0  0  0  0  0  0
   -0.4334    1.3389   -1.3690 H   0  0  0  0  0  0  0  0  0  0  0  0
   -0.5926    2.3610    0.1130 H   0  0  0  0  0  0  0  0  0  0  0  0
  1  2  1  0
  2  3  1  0
  3  4  1  0
  4  5  1  0
  5  6  1  0
  6  7  1  0
  7  8  1  0
  5  9  1  0
  9  1  1  0
  5  3  1  0
  8  6  1  0
  1 10  1  0
  1 11  1  0
  2 12  1  0
  2 13  1  0
  3 14  1  0
  4 15  1  0
  4 16  1  0
  6 17  1  0
  7 18  1  0
  7 19  1  0
  8 20  1  0
  8 21  1  0
  9 22  1  0
  9 23  1  0
M  END
