
     RDKit          3D

 19 21  0  0  0  0  0  0  0  0999 V2000
    0.2308   -1.4911    0.5303 C   0  0  0  0  0  0  0  0  0  0  0  0
   -1.1019   -0.7468    0.5661 C   0  0  0  0  0  0  0  0  0  0  0  0
   -0.7582    0.6247    0.0580 C   0  0  0  0  0  0  0  0  0  0  0  0
   -1.6560    1.7170    0.1059 C   0  0  0  0  0  0  0  0  0  0  0  0
   -0.4343    1.6424    0.9228 O   0  0  0  0  0  0  0  0  0  0  0  0
    0.1918    0.3388   -1.0622 C   0  0  0  0  0  0  0  0  0  0  0  0
    1.3629    1.0777   -1.0091 O   0  0  0  0  0  0  0  0  0  0  0  0
    1.9525    0.1952   -0.1171 C   0  0  0  0  0  0  0  0  0  0  0  0
    0.9815   -0.8585   -0.5900 C   0  0  0  0  0  0  0  0  0  0  0  0
    0.7111   -1.3479    1.5196 H   0  0  0  0  0  0  0  0  0  0  0  0
    0.0790   -2.5761    0.3792 H   0  0  0  0  0  0  0  0  0  0  0  0
   -1.5722   -0.7634    1.5489 H   0  0  0  0  0  0  0  0  0  0  0  0
   -1.7285   -1.2370   -0.2302 H   0  0  0  0  0  0  0  0  0  0  0  0
   -2.5299    1.7052    0.7738 H   0  0  0  0  0  0  0  0  0  0  0  0
   -1.6276    2.5038   -0.6657 H   0  0  0  0  0  0  0  0  0  0  0  0
   -0.2940    0.2450   -2.0352 H   0  0  0  0  0  0  0  0  0  0  0  0
    3.0058   -0.0465   -0.2816 H   0  0  0  0  0  0  0  0  0  0  0  0
    1.7706    0.5142    0.9367 H   0  0  0  0  0  0  0  0  0  0  0  0
    1.4167   -1.4970   -1.3501 H   0  0  0  0  0  0  0  0  0  0  0  0
  1  2  1  0
  2  3  1  0
  3  4  1  0
  4  5  1  0
  3  6  1  0
  6  7  1  0
  7  8  1  0
  8  9  1  0
  9  1  1  0
  5  3  1  0
  9  6  1  0
  1 10  1  0
  1 11  1  0
  2 12  1  0
  2 13  1  0
  4 14  1  0
  4 15  1  0
  6 16  1  0
  8 17  1  0
  8 18  1  0
  9 19  1  0
M  END
