
     RDKit          3D

 19 21  0  0  0  0  0  0  0  0999 V2000
    1.3994    1.3589    0.1754 C   0  0  0  0  0  0  0  0  0  0  0  0
   -0.1217    1.3775    0.1757 C   0  0  0  0  0  0  0  0  0  0  0  0
   -0.5872    0.0720    0.7552 C   0  0  0  0  0  0  0  0  0  0  0  0
   -1.9124   -0.3344    0.0937 C   0  0  0  0  0  0  0  0  0  0  0  0
   -1.0650   -1.2990   -0.7438 C   0  0  0  0  0  0  0  0  0  0  0  0
   -0.5088   -2.3205    0.0102 O   0  0  0  0  0  0  0  0  0  0  0  0
    0.0439   -1.0683   -0.0101 C   0  0  0  0  0  0  0  0  0  0  0  0
    1.4716   -0.8441   -0.3417 C   0  0  0  0  0  0  0  0  0  0  0  0
    1.7596    0.4149   -0.8082 O   0  0  0  0  0  0  0  0  0  0  0  0
    1.8034    2.3556   -0.1356 H   0  0  0  0  0  0  0  0  0  0  0  0
    1.7542    1.0568    1.1816 H   0  0  0  0  0  0  0  0  0  0  0  0
   -0.5423    2.2499    0.6774 H   0  0  0  0  0  0  0  0  0  0  0  0
   -0.4689    1.4302   -0.8919 H   0  0  0  0  0  0  0  0  0  0  0  0
   -0.5892   -0.0049    1.8410 H   0  0  0  0  0  0  0  0  0  0  0  0
   -2.3783    0.4730   -0.5057 H   0  0  0  0  0  0  0  0  0  0  0  0
   -2.6035   -0.8663    0.7826 H   0  0  0  0  0  0  0  0  0  0  0  0
   -1.3275   -1.4897   -1.7766 H   0  0  0  0  0  0  0  0  0  0  0  0
    1.8059   -1.5784   -1.0835 H   0  0  0  0  0  0  0  0  0  0  0  0
    2.0667   -0.9830    0.6042 H   0  0  0  0  0  0  0  0  0  0  0  0
  1  2  1  0
  2  3  1  0
  3  4  1  0
  4  5  1  0
  5  6  1  0
  6  7  1  0
  7  8  1  0
  8  9  1  0
  9  1  1  0
  7  3  1  0
  7  5  1  0
  1 10  1  0
  1 11  1  0
  2 12  1  0
  2 13  1  0
  3 14  1  0
  4 15  1  0
  4 16  1  0
  5 17  1  0
  8 18  1  0
  8 19  1  0
M  END
