
     RDKit          3D

 19 22  0  0  0  0  0  0  0  0999 V2000
    1.5408   -0.1347   -0.6740 C   0  0  0  0  0  0  0  0  0  0  0  0
    1.1967   -0.4533    0.7398 C   0  0  0  0  0  0  0  0  0  0  0  0
   -0.2321   -0.1027    0.9620 C   0  0  0  0  0  0  0  0  0  0  0  0
   -0.5879    1.3258    1.0560 C   0  0  0  0  0  0  0  0  0  0  0  0
   -0.7039    0.6712   -0.2675 C   0  0  0  0  0  0  0  0  0  0  0  0
    0.4037    0.6466   -1.2575 C   0  0  0  0  0  0  0  0  0  0  0  0
   -1.7452   -0.4414   -0.4429 C   0  0  0  0  0  0  0  0  0  0  0  0
   -1.1094   -1.6688   -0.7864 O   0  0  0  0  0  0  0  0  0  0  0  0
   -1.2520   -1.1485    0.5940 C   0  0  0  0  0  0  0  0  0  0  0  0
    1.7039   -1.1044   -1.2085 H   0  0  0  0  0  0  0  0  0  0  0  0
    2.4717    0.4902   -0.6633 H   0  0  0  0  0  0  0  0  0  0  0  0
    1.3389   -1.5376    0.9803 H   0  0  0  0  0  0  0  0  0  0  0  0
    1.8134    0.1205    1.4765 H   0  0  0  0  0  0  0  0  0  0  0  0
    0.2335    2.0312    1.1785 H   0  0  0  0  0  0  0  0  0  0  0  0
   -1.5340    1.5570    1.5834 H   0  0  0  0  0  0  0  0  0  0  0  0
    0.0171    0.1850   -2.2017 H   0  0  0  0  0  0  0  0  0  0  0  0
    0.7371    1.6778   -1.4816 H   0  0  0  0  0  0  0  0  0  0  0  0
   -2.7088   -0.2095   -0.8801 H   0  0  0  0  0  0  0  0  0  0  0  0
   -1.5833   -1.9043    1.2931 H   0  0  0  0  0  0  0  0  0  0  0  0
  1  2  1  0
  2  3  1  0
  3  4  1  0
  4  5  1  0
  5  6  1  0
  5  7  1  0
  7  8  1  0
  8  9  1  0
  6  1  1  0
  9  7  1  0
  5  3  1  0
  9  3  1  0
  1 10  1  0
  1 11  1  0
  2 12  1  0
  2 13  1  0
  4 14  1  0
  4 15  1  0
  6 16  1  0
  6 17  1  0
  7 18  1  0
  9 19  1  0
M  END
