
     RDKit          3D

 23 25  0  0  0  0  0  0  0  0999 V2000
    0.8437   -1.4840    0.0721 C   0  0  0  0  0  0  0  0  0  0  0  0
    1.2642   -0.3154   -0.8385 C   0  0  0  0  0  0  0  0  0  0  0  0
    1.2678    0.8697    0.0234 C   0  0  0  0  0  0  0  0  0  0  0  0
    0.5975    2.1145   -0.0534 C   0  0  0  0  0  0  0  0  0  0  0  0
   -0.2624    1.0752    0.3129 C   0  0  0  0  0  0  0  0  0  0  0  0
   -1.2462    0.5606   -0.7128 C   0  0  0  0  0  0  0  0  0  0  0  0
   -1.4301   -0.8966   -0.4992 C   0  0  0  0  0  0  0  0  0  0  0  0
   -0.5038   -1.1689    0.6966 C   0  0  0  0  0  0  0  0  0  0  0  0
   -0.4787    0.1860    1.4314 C   0  0  0  0  0  0  0  0  0  0  0  0
    0.7070   -2.4055   -0.5089 H   0  0  0  0  0  0  0  0  0  0  0  0
    1.6195   -1.5716    0.8549 H   0  0  0  0  0  0  0  0  0  0  0  0
    2.3263   -0.5615   -1.1206 H   0  0  0  0  0  0  0  0  0  0  0  0
    0.6981   -0.2827   -1.7620 H   0  0  0  0  0  0  0  0  0  0  0  0
    1.9241    0.7080    0.9346 H   0  0  0  0  0  0  0  0  0  0  0  0
    0.4254    2.6118   -1.0546 H   0  0  0  0  0  0  0  0  0  0  0  0
    0.8615    2.9152    0.6908 H   0  0  0  0  0  0  0  0  0  0  0  0
   -2.2075    1.0700   -0.4823 H   0  0  0  0  0  0  0  0  0  0  0  0
   -0.9905    0.8567   -1.7479 H   0  0  0  0  0  0  0  0  0  0  0  0
   -2.4510   -1.2287   -0.3135 H   0  0  0  0  0  0  0  0  0  0  0  0
   -1.0732   -1.4561   -1.4041 H   0  0  0  0  0  0  0  0  0  0  0  0
   -0.8636   -1.9728    1.3274 H   0  0  0  0  0  0  0  0  0  0  0  0
    0.3724    0.1062    2.1543 H   0  0  0  0  0  0  0  0  0  0  0  0
   -1.4007    0.2700    1.9993 H   0  0  0  0  0  0  0  0  0  0  0  0
  1  2  1  0
  2  3  1  0
  3  4  1  0
  4  5  1  0
  5  6  1  0
  6  7  1  0
  7  8  1  0
  8  9  1  0
  8  1  1  0
  5  3  1  0
  9  5  1  0
  1 10  1  0
  1 11  1  0
  2 12  1  0
  2 13  1  0
  3 14  1  0
  4 15  1  0
  4 16  1  0
  6 17  1  0
  6 18  1  0
  7 19  1  0
  7 20  1  0
  8 21  1  0
  9 22  1  0
  9 23  1  0
M  END
