
     RDKit          3D

 23 25  0  0  0  0  0  0  0  0999 V2000
    1.8863   -0.7459   -1.0833 C   0  0  0  0  0  0  0  0  0  0  0  0
    2.5473    0.3704   -0.3572 C   0  0  0  0  0  0  0  0  0  0  0  0
    1.4398   -0.3361    0.2718 C   0  0  0  0  0  0  0  0  0  0  0  0
    0.0496    0.2257    0.3719 C   0  0  0  0  0  0  0  0  0  0  0  0
   -1.0213   -0.7184   -0.0720 C   0  0  0  0  0  0  0  0  0  0  0  0
   -2.4495   -0.3723   -0.0514 C   0  0  0  0  0  0  0  0  0  0  0  0
   -1.8681   -1.4420    0.8898 C   0  0  0  0  0  0  0  0  0  0  0  0
   -0.1725    1.2219    1.4344 C   0  0  0  0  0  0  0  0  0  0  0  0
   -0.1847    1.6666    0.0088 C   0  0  0  0  0  0  0  0  0  0  0  0
    2.3617   -1.7532   -1.1276 H   0  0  0  0  0  0  0  0  0  0  0  0
    1.2944   -0.5017   -1.9784 H   0  0  0  0  0  0  0  0  0  0  0  0
    2.4658    1.3695   -0.8317 H   0  0  0  0  0  0  0  0  0  0  0  0
    3.5886    0.1978    0.0417 H   0  0  0  0  0  0  0  0  0  0  0  0
    1.7019   -0.9890    1.1446 H   0  0  0  0  0  0  0  0  0  0  0  0
   -0.7047   -1.3049   -0.9850 H   0  0  0  0  0  0  0  0  0  0  0  0
   -2.8448    0.5375    0.4213 H   0  0  0  0  0  0  0  0  0  0  0  0
   -3.1233   -0.7874   -0.8273 H   0  0  0  0  0  0  0  0  0  0  0  0
   -2.1443   -2.5035    0.6824 H   0  0  0  0  0  0  0  0  0  0  0  0
   -1.9270   -1.1907    1.9555 H   0  0  0  0  0  0  0  0  0  0  0  0
    0.7134    1.5814    2.0121 H   0  0  0  0  0  0  0  0  0  0  0  0
   -1.1052    1.2851    2.0143 H   0  0  0  0  0  0  0  0  0  0  0  0
    0.6772    2.2436   -0.3878 H   0  0  0  0  0  0  0  0  0  0  0  0
   -1.1806    1.9454   -0.3950 H   0  0  0  0  0  0  0  0  0  0  0  0
  1  2  1  0
  2  3  1  0
  3  4  1  0
  4  5  1  0
  5  6  1  0
  6  7  1  0
  4  8  1  0
  8  9  1  0
  3  1  1  0
  9  4  1  0
  7  5  1  0
  1 10  1  0
  1 11  1  0
  2 12  1  0
  2 13  1  0
  3 14  1  0
  5 15  1  0
  6 16  1  0
  6 17  1  0
  7 18  1  0
  7 19  1  0
  8 20  1  0
  8 21  1  0
  9 22  1  0
  9 23  1  0
M  END
