
     RDKit          3D

 18 20  0  0  0  0  0  0  0  0999 V2000
    1.6259   -0.4587   -0.2284 C   0  0  0  0  0  0  0  0  0  0  0  0
    1.2047    0.9038    0.2328 C   0  0  0  0  0  0  0  0  0  0  0  0
   -0.2572    0.8216    0.4518 C   0  0  0  0  0  0  0  0  0  0  0  0
   -0.6298   -0.6294    0.6455 C   0  0  0  0  0  0  0  0  0  0  0  0
    0.4141   -1.3431   -0.1548 C   0  0  0  0  0  0  0  0  0  0  0  0
   -1.8578   -0.3142   -0.1913 C   0  0  0  0  0  0  0  0  0  0  0  0
   -1.5803   -0.0418   -1.5045 O   0  0  0  0  0  0  0  0  0  0  0  0
   -1.1772    0.9694   -0.6870 C   0  0  0  0  0  0  0  0  0  0  0  0
    2.4858   -0.8257    0.3522 H   0  0  0  0  0  0  0  0  0  0  0  0
    1.9949   -0.3429   -1.2823 H   0  0  0  0  0  0  0  0  0  0  0  0
    1.4267    1.6993   -0.4930 H   0  0  0  0  0  0  0  0  0  0  0  0
    1.6863    1.2090    1.1953 H   0  0  0  0  0  0  0  0  0  0  0  0
   -0.6006    1.3967    1.3549 H   0  0  0  0  0  0  0  0  0  0  0  0
   -0.8117   -0.9608    1.6640 H   0  0  0  0  0  0  0  0  0  0  0  0
    0.0568   -1.5247   -1.1949 H   0  0  0  0  0  0  0  0  0  0  0  0
    0.6484   -2.3104    0.3158 H   0  0  0  0  0  0  0  0  0  0  0  0
   -2.8189   -0.1394    0.2725 H   0  0  0  0  0  0  0  0  0  0  0  0
   -1.8100    1.8912   -0.7485 H   0  0  0  0  0  0  0  0  0  0  0  0
  1  2  1  0
  2  3  1  0
  3  4  1  0
  4  5  1  0
  4  6  1  0
  6  7  1  0
  7  8  1  0
  5  1  1  0
  8  6  1  0
  8  3  1  0
  1  9  1  0
  1 10  1  0
  2 11  1  0
  2 12  1  0
  3 13  1  0
  4 14  1  0
  5 15  1  0
  5 16  1  0
  6 17  1  0
  8 18  1  0
M  END
