
     RDKit          3D

 19 22  0  0  0  0  0  0  0  0999 V2000
    1.5384    0.5895   -0.3411 C   0  0  0  0  0  0  0  0  0  0  0  0
    1.2350   -0.9128   -0.4496 C   0  0  0  0  0  0  0  0  0  0  0  0
   -0.0387   -1.1444    0.2968 C   0  0  0  0  0  0  0  0  0  0  0  0
   -0.0133    0.0111    1.2967 C   0  0  0  0  0  0  0  0  0  0  0  0
   -1.3187    0.2151    1.5779 O   0  0  0  0  0  0  0  0  0  0  0  0
   -1.9285    0.2485    0.3205 C   0  0  0  0  0  0  0  0  0  0  0  0
   -0.9168    0.8131   -0.6489 C   0  0  0  0  0  0  0  0  0  0  0  0
    0.2617    1.1062    0.2526 C   0  0  0  0  0  0  0  0  0  0  0  0
   -1.1747   -0.6319   -0.5787 C   0  0  0  0  0  0  0  0  0  0  0  0
    1.8075    1.0244   -1.3044 H   0  0  0  0  0  0  0  0  0  0  0  0
    2.3538    0.6625    0.4093 H   0  0  0  0  0  0  0  0  0  0  0  0
    2.0784   -1.5273   -0.1407 H   0  0  0  0  0  0  0  0  0  0  0  0
    1.0811   -1.0969   -1.5458 H   0  0  0  0  0  0  0  0  0  0  0  0
   -0.1911   -2.1070    0.7274 H   0  0  0  0  0  0  0  0  0  0  0  0
    0.7055   -0.0627    2.0658 H   0  0  0  0  0  0  0  0  0  0  0  0
   -2.9838    0.4877    0.2160 H   0  0  0  0  0  0  0  0  0  0  0  0
   -1.1986    1.4687   -1.4557 H   0  0  0  0  0  0  0  0  0  0  0  0
    0.2918    2.0954    0.6673 H   0  0  0  0  0  0  0  0  0  0  0  0
   -1.5890   -1.2392   -1.3653 H   0  0  0  0  0  0  0  0  0  0  0  0
  1  2  1  0
  2  3  1  0
  3  4  1  0
  4  5  1  0
  5  6  1  0
  6  7  1  0
  7  8  1  0
  7  9  1  0
  8  1  1  0
  9  3  1  0
  8  4  1  0
  9  6  1  0
  1 10  1  0
  1 11  1  0
  2 12  1  0
  2 13  1  0
  3 14  1  0
  4 15  1  0
  6 16  1  0
  7 17  1  0
  8 18  1  0
  9 19  1  0
M  END
