
     RDKit          3D

 23 24  0  0  0  0  0  0  0  0999 V2000
   -1.7513    1.1688   -0.0834 C   0  0  0  0  0  0  0  0  0  0  0  0
   -0.3400    1.4994    0.2537 C   0  0  0  0  0  0  0  0  0  0  0  0
    0.6904    0.7660   -0.5180 C   0  0  0  0  0  0  0  0  0  0  0  0
    1.9658    0.5392    0.2863 C   0  0  0  0  0  0  0  0  0  0  0  0
    1.9812   -0.8749   -0.2564 C   0  0  0  0  0  0  0  0  0  0  0  0
    0.5094   -0.6978   -0.6207 C   0  0  0  0  0  0  0  0  0  0  0  0
   -0.3541   -1.3087    0.4323 C   0  0  0  0  0  0  0  0  0  0  0  0
   -1.8201   -1.0820    0.1672 C   0  0  0  0  0  0  0  0  0  0  0  0
   -2.2111    0.1304    0.7367 O   0  0  0  0  0  0  0  0  0  0  0  0
   -2.3792    2.0598    0.1931 H   0  0  0  0  0  0  0  0  0  0  0  0
   -1.9266    0.8920   -1.1353 H   0  0  0  0  0  0  0  0  0  0  0  0
   -0.2068    1.3597    1.3544 H   0  0  0  0  0  0  0  0  0  0  0  0
   -0.1857    2.5961    0.0782 H   0  0  0  0  0  0  0  0  0  0  0  0
    0.9635    1.2056   -1.5088 H   0  0  0  0  0  0  0  0  0  0  0  0
    2.8125    1.1584   -0.0656 H   0  0  0  0  0  0  0  0  0  0  0  0
    1.7460    0.6193    1.3770 H   0  0  0  0  0  0  0  0  0  0  0  0
    2.1651   -1.6090    0.5517 H   0  0  0  0  0  0  0  0  0  0  0  0
    2.6320   -0.9574   -1.1348 H   0  0  0  0  0  0  0  0  0  0  0  0
    0.3392   -1.1224   -1.6360 H   0  0  0  0  0  0  0  0  0  0  0  0
   -0.0718   -0.9212    1.4225 H   0  0  0  0  0  0  0  0  0  0  0  0
   -0.1323   -2.4138    0.4361 H   0  0  0  0  0  0  0  0  0  0  0  0
   -2.4131   -1.9194    0.6057 H   0  0  0  0  0  0  0  0  0  0  0  0
   -2.0130   -1.0881   -0.9359 H   0  0  0  0  0  0  0  0  0  0  0  0
  1  2  1  0
  2  3  1  0
  3  4  1  0
  4  5  1  0
  5  6  1  0
  6  7  1  0
  7  8  1  0
  8  9  1  0
  9  1  1  0
  6  3  1  0
  1 10  1  0
  1 11  1  0
  2 12  1  0
  2 13  1  0
  3 14  1  0
  4 15  1  0
  4 16  1  0
  5 17  1  0
  5 18  1  0
  6 19  1  0
  7 20  1  0
  7 21  1  0
  8 22  1  0
  8 23  1  0
M  END
