
     RDKit          3D

 19 21  0  0  0  0  0  0  0  0999 V2000
    1.1771   -1.1658   -0.1396 C   0  0  0  0  0  0  0  0  0  0  0  0
    1.5731    0.1269    0.5490 C   0  0  0  0  0  0  0  0  0  0  0  0
    0.7668    1.2323   -0.0295 C   0  0  0  0  0  0  0  0  0  0  0  0
   -0.0030    2.0797    0.7084 O   0  0  0  0  0  0  0  0  0  0  0  0
   -0.7111    1.0705    0.3258 C   0  0  0  0  0  0  0  0  0  0  0  0
   -1.0100   -0.2292    0.9108 C   0  0  0  0  0  0  0  0  0  0  0  0
   -1.0732   -0.7474   -0.5337 C   0  0  0  0  0  0  0  0  0  0  0  0
   -1.4031    0.7113   -0.9126 C   0  0  0  0  0  0  0  0  0  0  0  0
    0.1602   -1.0164   -1.0450 O   0  0  0  0  0  0  0  0  0  0  0  0
    2.0601   -1.5708   -0.7209 H   0  0  0  0  0  0  0  0  0  0  0  0
    0.9785   -1.9824    0.6161 H   0  0  0  0  0  0  0  0  0  0  0  0
    2.6536    0.3468    0.2973 H   0  0  0  0  0  0  0  0  0  0  0  0
    1.5397    0.0681    1.6419 H   0  0  0  0  0  0  0  0  0  0  0  0
    1.0300    1.6012   -1.0398 H   0  0  0  0  0  0  0  0  0  0  0  0
   -0.3278   -0.7420    1.5680 H   0  0  0  0  0  0  0  0  0  0  0  0
   -2.0504   -0.2726    1.3171 H   0  0  0  0  0  0  0  0  0  0  0  0
   -1.8846   -1.4491   -0.7256 H   0  0  0  0  0  0  0  0  0  0  0  0
   -2.5032    0.9081   -0.9215 H   0  0  0  0  0  0  0  0  0  0  0  0
   -0.9726    1.0309   -1.8662 H   0  0  0  0  0  0  0  0  0  0  0  0
  1  2  1  0
  2  3  1  0
  3  4  1  0
  4  5  1  0
  5  6  1  0
  6  7  1  0
  7  8  1  0
  7  9  1  0
  9  1  1  0
  5  3  1  0
  8  5  1  0
  1 10  1  0
  1 11  1  0
  2 12  1  0
  2 13  1  0
  3 14  1  0
  6 15  1  0
  6 16  1  0
  7 17  1  0
  8 18  1  0
  8 19  1  0
M  END
