
     RDKit          3D

 19 21  0  0  0  0  0  0  0  0999 V2000
   -1.2463   -1.2863   -0.4808 C   0  0  0  0  0  0  0  0  0  0  0  0
   -1.4833    0.2277   -0.5393 C   0  0  0  0  0  0  0  0  0  0  0  0
   -0.2560    0.4001    0.2185 C   0  0  0  0  0  0  0  0  0  0  0  0
    0.0250    1.4923    1.1011 C   0  0  0  0  0  0  0  0  0  0  0  0
    1.3275    1.5995    0.5511 O   0  0  0  0  0  0  0  0  0  0  0  0
    1.0296    0.6726   -0.4728 C   0  0  0  0  0  0  0  0  0  0  0  0
    1.7939   -0.5978   -0.3326 C   0  0  0  0  0  0  0  0  0  0  0  0
    1.0264   -1.5329    0.2884 O   0  0  0  0  0  0  0  0  0  0  0  0
   -0.1944   -1.0126    0.6058 C   0  0  0  0  0  0  0  0  0  0  0  0
   -0.8097   -1.6896   -1.4180 H   0  0  0  0  0  0  0  0  0  0  0  0
   -2.1563   -1.7814   -0.1142 H   0  0  0  0  0  0  0  0  0  0  0  0
   -2.4090    0.5469    0.0158 H   0  0  0  0  0  0  0  0  0  0  0  0
   -1.4458    0.6447   -1.5712 H   0  0  0  0  0  0  0  0  0  0  0  0
   -0.5112    2.4440    0.8223 H   0  0  0  0  0  0  0  0  0  0  0  0
    0.0022    1.3949    2.1930 H   0  0  0  0  0  0  0  0  0  0  0  0
    0.9315    1.1080   -1.4718 H   0  0  0  0  0  0  0  0  0  0  0  0
    2.2187   -0.9142   -1.3121 H   0  0  0  0  0  0  0  0  0  0  0  0
    2.6833   -0.3909    0.3174 H   0  0  0  0  0  0  0  0  0  0  0  0
   -0.5260   -1.3250    1.5995 H   0  0  0  0  0  0  0  0  0  0  0  0
  1  2  1  0
  2  3  1  0
  3  4  1  0
  4  5  1  0
  5  6  1  0
  6  7  1  0
  7  8  1  0
  8  9  1  0
  9  1  1  0
  6  3  1  0
  9  3  1  0
  1 10  1  0
  1 11  1  0
  2 12  1  0
  2 13  1  0
  4 14  1  0
  4 15  1  0
  6 16  1  0
  7 17  1  0
  7 18  1  0
  9 19  1  0
M  END
