
     RDKit          3D

 21 23  0  0  0  0  0  0  0  0999 V2000
    2.0784    1.0510   -0.3984 C   0  0  0  0  0  0  0  0  0  0  0  0
    2.4473   -0.3847   -0.2739 C   0  0  0  0  0  0  0  0  0  0  0  0
    1.0477    0.1421    0.1727 C   0  0  0  0  0  0  0  0  0  0  0  0
   -0.0860   -0.3380   -0.6790 C   0  0  0  0  0  0  0  0  0  0  0  0
   -0.9753   -1.2245    0.1873 C   0  0  0  0  0  0  0  0  0  0  0  0
   -2.1028   -0.2933    0.6751 C   0  0  0  0  0  0  0  0  0  0  0  0
   -1.4945    1.0276    0.3776 C   0  0  0  0  0  0  0  0  0  0  0  0
   -1.4840    1.8162   -0.6615 O   0  0  0  0  0  0  0  0  0  0  0  0
   -1.0928    0.6504   -1.0840 C   0  0  0  0  0  0  0  0  0  0  0  0
    2.5538    1.8073    0.2810 H   0  0  0  0  0  0  0  0  0  0  0  0
    1.8805    1.5021   -1.4028 H   0  0  0  0  0  0  0  0  0  0  0  0
    3.1650   -0.6748    0.5005 H   0  0  0  0  0  0  0  0  0  0  0  0
    2.4572   -0.9455   -1.2386 H   0  0  0  0  0  0  0  0  0  0  0  0
    0.9618    0.0504    1.2956 H   0  0  0  0  0  0  0  0  0  0  0  0
    0.2919   -0.9223   -1.5675 H   0  0  0  0  0  0  0  0  0  0  0  0
   -1.4457   -1.9934   -0.4825 H   0  0  0  0  0  0  0  0  0  0  0  0
   -0.4460   -1.6938    1.0075 H   0  0  0  0  0  0  0  0  0  0  0  0
   -3.0502   -0.5090    0.1853 H   0  0  0  0  0  0  0  0  0  0  0  0
   -2.1567   -0.4420    1.7754 H   0  0  0  0  0  0  0  0  0  0  0  0
   -0.6369    1.2451    1.0806 H   0  0  0  0  0  0  0  0  0  0  0  0
   -1.9126    0.1291   -1.6776 H   0  0  0  0  0  0  0  0  0  0  0  0
  1  2  1  0
  2  3  1  0
  3  4  1  0
  4  5  1  0
  5  6  1  0
  6  7  1  0
  7  8  1  0
  8  9  1  0
  3  1  1  0
  9  4  1  0
  9  7  1  0
  1 10  1  0
  1 11  1  0
  2 12  1  0
  2 13  1  0
  3 14  1  0
  4 15  1  0
  5 16  1  0
  5 17  1  0
  6 18  1  0
  6 19  1  0
  7 20  1  0
  9 21  1  0
M  END
