
     RDKit          3D

 21 23  0  0  0  0  0  0  0  0999 V2000
    2.0583    0.2493   -0.1184 C   0  0  0  0  0  0  0  0  0  0  0  0
    0.9802    1.1209    0.4762 C   0  0  0  0  0  0  0  0  0  0  0  0
   -0.2591    0.6124   -0.1543 C   0  0  0  0  0  0  0  0  0  0  0  0
   -1.6015    0.7768    0.5247 C   0  0  0  0  0  0  0  0  0  0  0  0
   -2.1022   -0.6433    0.5733 C   0  0  0  0  0  0  0  0  0  0  0  0
   -1.0254   -1.4817    0.4428 O   0  0  0  0  0  0  0  0  0  0  0  0
   -0.0398   -0.8561   -0.2660 C   0  0  0  0  0  0  0  0  0  0  0  0
    1.4132   -1.1345    0.0428 C   0  0  0  0  0  0  0  0  0  0  0  0
   -0.2885   -0.0484   -1.4713 C   0  0  0  0  0  0  0  0  0  0  0  0
    2.2800    0.4770   -1.1660 H   0  0  0  0  0  0  0  0  0  0  0  0
    3.0145    0.2996    0.4406 H   0  0  0  0  0  0  0  0  0  0  0  0
    0.9440    0.8588    1.5734 H   0  0  0  0  0  0  0  0  0  0  0  0
    1.1662    2.1864    0.4011 H   0  0  0  0  0  0  0  0  0  0  0  0
   -2.2463    1.3340   -0.2114 H   0  0  0  0  0  0  0  0  0  0  0  0
   -1.5553    1.2755    1.4884 H   0  0  0  0  0  0  0  0  0  0  0  0
   -2.7847   -0.8541   -0.3017 H   0  0  0  0  0  0  0  0  0  0  0  0
   -2.7096   -0.8476    1.4734 H   0  0  0  0  0  0  0  0  0  0  0  0
    1.8763   -1.8268   -0.6932 H   0  0  0  0  0  0  0  0  0  0  0  0
    1.5889   -1.4254    1.0904 H   0  0  0  0  0  0  0  0  0  0  0  0
    0.5487    0.1068   -2.1801 H   0  0  0  0  0  0  0  0  0  0  0  0
   -1.2576   -0.1796   -1.9646 H   0  0  0  0  0  0  0  0  0  0  0  0
  1  2  1  0
  2  3  1  0
  3  4  1  0
  4  5  1  0
  5  6  1  0
  6  7  1  0
  7  8  1  0
  7  9  1  0
  8  1  1  0
  7  3  1  0
  9  3  1  0
  1 10  1  0
  1 11  1  0
  2 12  1  0
  2 13  1  0
  4 14  1  0
  4 15  1  0
  5 16  1  0
  5 17  1  0
  8 18  1  0
  8 19  1  0
  9 20  1  0
  9 21  1  0
M  END
