
     RDKit          3D

 23 25  0  0  0  0  0  0  0  0999 V2000
    2.5772    0.9540    0.5302 C   0  0  0  0  0  0  0  0  0  0  0  0
    1.3173    0.4518    1.2497 C   0  0  0  0  0  0  0  0  0  0  0  0
    0.9431   -0.2368    0.0145 C   0  0  0  0  0  0  0  0  0  0  0  0
    2.1607    0.1940   -0.7234 C   0  0  0  0  0  0  0  0  0  0  0  0
    0.4494   -1.5923   -0.1123 C   0  0  0  0  0  0  0  0  0  0  0  0
   -0.3740   -0.3608   -0.5710 C   0  0  0  0  0  0  0  0  0  0  0  0
   -1.6521   -0.1897    0.1684 C   0  0  0  0  0  0  0  0  0  0  0  0
   -2.9227   -0.3743   -0.6879 C   0  0  0  0  0  0  0  0  0  0  0  0
   -2.5686    0.9300   -0.0484 C   0  0  0  0  0  0  0  0  0  0  0  0
    3.5197    0.6425    0.9825 H   0  0  0  0  0  0  0  0  0  0  0  0
    2.5782    2.0303    0.3142 H   0  0  0  0  0  0  0  0  0  0  0  0
    0.7359    1.3243    1.5835 H   0  0  0  0  0  0  0  0  0  0  0  0
    1.6303   -0.1742    2.1063 H   0  0  0  0  0  0  0  0  0  0  0  0
    1.9942    0.7930   -1.6126 H   0  0  0  0  0  0  0  0  0  0  0  0
    2.8622   -0.6763   -0.8444 H   0  0  0  0  0  0  0  0  0  0  0  0
    0.1090   -2.1319    0.7691 H   0  0  0  0  0  0  0  0  0  0  0  0
    0.7717   -2.2777   -0.9458 H   0  0  0  0  0  0  0  0  0  0  0  0
   -0.4302   -0.2108   -1.6886 H   0  0  0  0  0  0  0  0  0  0  0  0
   -1.7453   -0.6974    1.1735 H   0  0  0  0  0  0  0  0  0  0  0  0
   -3.7181   -1.0163   -0.3058 H   0  0  0  0  0  0  0  0  0  0  0  0
   -2.7668   -0.3972   -1.7994 H   0  0  0  0  0  0  0  0  0  0  0  0
   -2.2202    1.7718   -0.6770 H   0  0  0  0  0  0  0  0  0  0  0  0
   -3.2508    1.2440    0.7720 H   0  0  0  0  0  0  0  0  0  0  0  0
  1  2  1  0
  2  3  1  0
  3  4  1  0
  3  5  1  0
  5  6  1  0
  6  7  1  0
  7  8  1  0
  8  9  1  0
  4  1  1  0
  9  7  1  0
  6  3  1  0
  1 10  1  0
  1 11  1  0
  2 12  1  0
  2 13  1  0
  4 14  1  0
  4 15  1  0
  5 16  1  0
  5 17  1  0
  6 18  1  0
  7 19  1  0
  8 20  1  0
  8 21  1  0
  9 22  1  0
  9 23  1  0
M  END
