
     RDKit          3D

 19 21  0  0  0  0  0  0  0  0999 V2000
   -2.1128    0.2260    0.4162 C   0  0  0  0  0  0  0  0  0  0  0  0
   -1.4191   -0.9861   -0.1459 C   0  0  0  0  0  0  0  0  0  0  0  0
    0.0111   -0.6312   -0.1024 C   0  0  0  0  0  0  0  0  0  0  0  0
    0.1636    0.6716   -0.0624 C   0  0  0  0  0  0  0  0  0  0  0  0
   -1.1964    1.3287   -0.0751 C   0  0  0  0  0  0  0  0  0  0  0  0
    1.5882    1.0377   -0.0196 C   0  0  0  0  0  0  0  0  0  0  0  0
    2.4299    0.6406   -1.0536 O   0  0  0  0  0  0  0  0  0  0  0  0
    2.3202   -0.1841    0.0945 C   0  0  0  0  0  0  0  0  0  0  0  0
    1.3396   -1.3052   -0.0901 C   0  0  0  0  0  0  0  0  0  0  0  0
   -3.1227    0.3781   -0.0104 H   0  0  0  0  0  0  0  0  0  0  0  0
   -2.1409    0.2368    1.5276 H   0  0  0  0  0  0  0  0  0  0  0  0
   -1.7201   -1.0703   -1.2068 H   0  0  0  0  0  0  0  0  0  0  0  0
   -1.6539   -1.8979    0.4388 H   0  0  0  0  0  0  0  0  0  0  0  0
   -1.1873    2.1904    0.5980 H   0  0  0  0  0  0  0  0  0  0  0  0
   -1.4291    1.5916   -1.1091 H   0  0  0  0  0  0  0  0  0  0  0  0
    1.9187    1.9797    0.4686 H   0  0  0  0  0  0  0  0  0  0  0  0
    3.2389   -0.3267    0.6880 H   0  0  0  0  0  0  0  0  0  0  0  0
    1.4109   -2.0777    0.7022 H   0  0  0  0  0  0  0  0  0  0  0  0
    1.5613   -1.8022   -1.0585 H   0  0  0  0  0  0  0  0  0  0  0  0
  1  2  1  0
  2  3  1  0
  3  4  2  0
  4  5  1  0
  4  6  1  0
  6  7  1  0
  7  8  1  0
  8  9  1  0
  5  1  1  0
  8  6  1  0
  9  3  1  0
  1 10  1  0
  1 11  1  0
  2 12  1  0
  2 13  1  0
  5 14  1  0
  5 15  1  0
  6 16  1  0
  8 17  1  0
  9 18  1  0
  9 19  1  0
M  END
