
     RDKit          3D

 19 21  0  0  0  0  0  0  0  0999 V2000
    1.8290    0.3589    0.1922 C   0  0  0  0  0  0  0  0  0  0  0  0
    1.0029   -0.8514    0.1508 C   0  0  0  0  0  0  0  0  0  0  0  0
   -0.4092   -0.6325   -0.4247 C   0  0  0  0  0  0  0  0  0  0  0  0
   -0.3333    0.7098   -1.0250 C   0  0  0  0  0  0  0  0  0  0  0  0
   -0.1520    1.4942    0.2918 C   0  0  0  0  0  0  0  0  0  0  0  0
    1.2289    1.5399    0.4812 O   0  0  0  0  0  0  0  0  0  0  0  0
   -0.6309    0.6310    1.3112 O   0  0  0  0  0  0  0  0  0  0  0  0
   -1.4944   -0.1578    0.6316 C   0  0  0  0  0  0  0  0  0  0  0  0
   -1.4057   -1.4594    0.0923 C   0  0  0  0  0  0  0  0  0  0  0  0
    2.6376    0.1946    0.9668 H   0  0  0  0  0  0  0  0  0  0  0  0
    2.4139    0.4686   -0.7681 H   0  0  0  0  0  0  0  0  0  0  0  0
    1.4747   -1.5821   -0.5697 H   0  0  0  0  0  0  0  0  0  0  0  0
    0.9614   -1.3870    1.1150 H   0  0  0  0  0  0  0  0  0  0  0  0
    0.5178    0.8328   -1.6906 H   0  0  0  0  0  0  0  0  0  0  0  0
   -1.3090    1.0345   -1.4669 H   0  0  0  0  0  0  0  0  0  0  0  0
   -0.6454    2.4528    0.2782 H   0  0  0  0  0  0  0  0  0  0  0  0
   -2.3312    0.4823    0.2107 H   0  0  0  0  0  0  0  0  0  0  0  0
   -2.2227   -1.8332   -0.5798 H   0  0  0  0  0  0  0  0  0  0  0  0
   -1.1321   -2.2958    0.8028 H   0  0  0  0  0  0  0  0  0  0  0  0
  1  2  1  0
  2  3  1  0
  3  4  1  0
  4  5  1  0
  5  6  1  0
  5  7  1  0
  7  8  1  0
  8  9  1  0
  6  1  1  0
  8  3  1  0
  9  3  1  0
  1 10  1  0
  1 11  1  0
  2 12  1  0
  2 13  1  0
  4 14  1  0
  4 15  1  0
  5 16  1  0
  8 17  1  0
  9 18  1  0
  9 19  1  0
M  END
