
     RDKit          3D

 16 18  0  0  0  0  0  0  0  0999 V2000
    1.7920    0.8434    0.3033 C   0  0  0  0  0  0  0  0  0  0  0  0
    1.3097   -0.5260    0.8064 C   0  0  0  0  0  0  0  0  0  0  0  0
    0.0546    0.0207    0.3355 C   0  0  0  0  0  0  0  0  0  0  0  0
    0.4557    1.3122    0.2832 O   0  0  0  0  0  0  0  0  0  0  0  0
   -1.2421   -0.3673    0.8488 C   0  0  0  0  0  0  0  0  0  0  0  0
   -1.8482    0.2615   -0.3839 C   0  0  0  0  0  0  0  0  0  0  0  0
   -0.6750   -0.5727   -0.8051 C   0  0  0  0  0  0  0  0  0  0  0  0
   -1.1495   -1.5349    0.0752 O   0  0  0  0  0  0  0  0  0  0  0  0
    2.3740    1.4179    1.0244 H   0  0  0  0  0  0  0  0  0  0  0  0
    2.1487    0.8023   -0.7371 H   0  0  0  0  0  0  0  0  0  0  0  0
    1.8096   -1.3484    0.2958 H   0  0  0  0  0  0  0  0  0  0  0  0
    1.4069   -0.5267    1.9103 H   0  0  0  0  0  0  0  0  0  0  0  0
   -1.6441   -0.3282    1.7749 H   0  0  0  0  0  0  0  0  0  0  0  0
   -1.5980    1.3354   -0.4626 H   0  0  0  0  0  0  0  0  0  0  0  0
   -2.8376   -0.0614   -0.6735 H   0  0  0  0  0  0  0  0  0  0  0  0
   -0.3568   -0.7278   -1.7505 H   0  0  0  0  0  0  0  0  0  0  0  0
  1  2  1  0
  2  3  1  0
  3  4  1  0
  3  5  1  0
  5  6  1  0
  6  7  1  0
  7  8  1  0
  4  1  1  0
  8  5  1  0
  7  3  1  0
  1  9  1  0
  1 10  1  0
  2 11  1  0
  2 12  1  0
  5 13  1  0
  6 14  1  0
  6 15  1  0
  7 16  1  0
M  END
