
     RDKit          3D

 21 23  0  0  0  0  0  0  0  0999 V2000
   -1.3224   -1.2550    0.1105 C   0  0  0  0  0  0  0  0  0  0  0  0
   -1.5202    0.1597    0.5314 C   0  0  0  0  0  0  0  0  0  0  0  0
   -0.7699    1.1932   -0.1591 C   0  0  0  0  0  0  0  0  0  0  0  0
    0.2774    0.8986   -1.0925 C   0  0  0  0  0  0  0  0  0  0  0  0
    0.8298   -0.4519   -1.2059 C   0  0  0  0  0  0  0  0  0  0  0  0
    0.9733   -1.0146    0.1807 C   0  0  0  0  0  0  0  0  0  0  0  0
    1.1954    0.1908    1.0310 C   0  0  0  0  0  0  0  0  0  0  0  0
    0.6520    1.3687    0.2645 C   0  0  0  0  0  0  0  0  0  0  0  0
   -0.1031   -1.7829    0.5236 O   0  0  0  0  0  0  0  0  0  0  0  0
   -1.5368   -1.4279   -0.9575 H   0  0  0  0  0  0  0  0  0  0  0  0
   -2.1062   -1.8597    0.6614 H   0  0  0  0  0  0  0  0  0  0  0  0
   -2.6289    0.3701    0.4530 H   0  0  0  0  0  0  0  0  0  0  0  0
   -1.3309    0.1980    1.6456 H   0  0  0  0  0  0  0  0  0  0  0  0
   -1.3043    2.1762   -0.3156 H   0  0  0  0  0  0  0  0  0  0  0  0
    0.4756    1.5834   -1.9477 H   0  0  0  0  0  0  0  0  0  0  0  0
    0.2421   -1.0754   -1.8889 H   0  0  0  0  0  0  0  0  0  0  0  0
    1.8647   -0.4056   -1.6588 H   0  0  0  0  0  0  0  0  0  0  0  0
    1.8810   -1.6774    0.2028 H   0  0  0  0  0  0  0  0  0  0  0  0
    2.3097    0.3547    1.1006 H   0  0  0  0  0  0  0  0  0  0  0  0
    0.8361    0.1127    2.0550 H   0  0  0  0  0  0  0  0  0  0  0  0
    1.0857    2.3445    0.4659 H   0  0  0  0  0  0  0  0  0  0  0  0
  1  2  1  0
  2  3  1  0
  3  4  1  0
  4  5  1  0
  5  6  1  0
  6  7  1  0
  7  8  1  0
  6  9  1  0
  9  1  1  0
  8  3  1  0
  8  4  1  0
  1 10  1  0
  1 11  1  0
  2 12  1  0
  2 13  1  0
  3 14  1  0
  4 15  1  0
  5 16  1  0
  5 17  1  0
  6 18  1  0
  7 19  1  0
  7 20  1  0
  8 21  1  0
M  END
