
     RDKit          3D

 19 20  0  0  0  0  0  0  0  0999 V2000
   -0.9743   -1.3901    0.3249 C   0  0  0  0  0  0  0  0  0  0  0  0
    0.2838   -1.0558   -0.3728 C   0  0  0  0  0  0  0  0  0  0  0  0
    0.9351    0.2136    0.0267 C   0  0  0  0  0  0  0  0  0  0  0  0
    0.0357    1.3208    0.4233 C   0  0  0  0  0  0  0  0  0  0  0  0
   -1.2220    0.8747    0.7787 O   0  0  0  0  0  0  0  0  0  0  0  0
   -1.9583    0.5264   -0.3421 C   0  0  0  0  0  0  0  0  0  0  0  0
   -2.1203   -0.8616   -0.3068 O   0  0  0  0  0  0  0  0  0  0  0  0
    2.3169    0.2166    0.4697 C   0  0  0  0  0  0  0  0  0  0  0  0
    1.9901    0.5548   -0.9238 O   0  0  0  0  0  0  0  0  0  0  0  0
   -0.9679   -1.0961    1.3960 H   0  0  0  0  0  0  0  0  0  0  0  0
   -1.1164   -2.5087    0.2622 H   0  0  0  0  0  0  0  0  0  0  0  0
    1.0218   -1.8878   -0.2321 H   0  0  0  0  0  0  0  0  0  0  0  0
    0.0960   -1.0289   -1.4793 H   0  0  0  0  0  0  0  0  0  0  0  0
   -0.1207    2.0768   -0.3984 H   0  0  0  0  0  0  0  0  0  0  0  0
    0.4345    1.8994    1.3072 H   0  0  0  0  0  0  0  0  0  0  0  0
   -2.9075    1.0736   -0.3953 H   0  0  0  0  0  0  0  0  0  0  0  0
   -1.3590    0.7389   -1.2639 H   0  0  0  0  0  0  0  0  0  0  0  0
    2.8074    1.0919    0.9181 H   0  0  0  0  0  0  0  0  0  0  0  0
    2.8251   -0.7585    0.5840 H   0  0  0  0  0  0  0  0  0  0  0  0
  1  2  1  0
  2  3  1  0
  3  4  1  0
  4  5  1  0
  5  6  1  0
  6  7  1  0
  3  8  1  0
  8  9  1  0
  7  1  1  0
  9  3  1  0
  1 10  1  0
  1 11  1  0
  2 12  1  0
  2 13  1  0
  4 14  1  0
  4 15  1  0
  6 16  1  0
  6 17  1  0
  8 18  1  0
  8 19  1  0
M  END
