
     RDKit          3D

 20 21  0  0  0  0  0  0  0  0999 V2000
   -1.6239    0.8807    0.2602 C   0  0  0  0  0  0  0  0  0  0  0  0
   -1.3691   -0.4191   -0.4920 C   0  0  0  0  0  0  0  0  0  0  0  0
   -0.1397   -1.1102    0.0486 C   0  0  0  0  0  0  0  0  0  0  0  0
    1.0502   -0.8755   -0.8935 C   0  0  0  0  0  0  0  0  0  0  0  0
    1.2802    0.5920   -0.7335 C   0  0  0  0  0  0  0  0  0  0  0  0
    0.6637    1.0064    0.5899 C   0  0  0  0  0  0  0  0  0  0  0  0
    0.4036   -0.3293    1.2538 C   0  0  0  0  0  0  0  0  0  0  0  0
   -0.5032    1.6942    0.2954 O   0  0  0  0  0  0  0  0  0  0  0  0
   -1.9136    0.6672    1.3032 H   0  0  0  0  0  0  0  0  0  0  0  0
   -2.4568    1.4008   -0.2154 H   0  0  0  0  0  0  0  0  0  0  0  0
   -1.2965   -0.1666   -1.5581 H   0  0  0  0  0  0  0  0  0  0  0  0
   -2.2826   -1.0461   -0.3146 H   0  0  0  0  0  0  0  0  0  0  0  0
   -0.2734   -2.1663    0.2605 H   0  0  0  0  0  0  0  0  0  0  0  0
    0.8584   -1.2171   -1.9038 H   0  0  0  0  0  0  0  0  0  0  0  0
    1.9160   -1.3978   -0.4018 H   0  0  0  0  0  0  0  0  0  0  0  0
    0.8550    1.1315   -1.5896 H   0  0  0  0  0  0  0  0  0  0  0  0
    2.3780    0.8036   -0.6557 H   0  0  0  0  0  0  0  0  0  0  0  0
    1.3518    1.6154    1.1915 H   0  0  0  0  0  0  0  0  0  0  0  0
    1.3921   -0.7715    1.4742 H   0  0  0  0  0  0  0  0  0  0  0  0
   -0.2904   -0.2926    2.0807 H   0  0  0  0  0  0  0  0  0  0  0  0
  1  2  1  0
  2  3  1  0
  3  4  1  0
  4  5  1  0
  5  6  1  0
  6  7  1  0
  6  8  1  0
  8  1  1  0
  7  3  1  0
  1  9  1  0
  1 10  1  0
  2 11  1  0
  2 12  1  0
  3 13  1  0
  4 14  1  0
  4 15  1  0
  5 16  1  0
  5 17  1  0
  6 18  1  0
  7 19  1  0
  7 20  1  0
M  END
