
     RDKit          3D

 22 23  0  0  0  0  0  0  0  0999 V2000
    2.0261   -0.4852   -0.5179 C   0  0  0  0  0  0  0  0  0  0  0  0
    1.9189    0.6674    0.4394 C   0  0  0  0  0  0  0  0  0  0  0  0
    0.4642    0.9438    0.6491 C   0  0  0  0  0  0  0  0  0  0  0  0
   -0.2813   -0.1348   -0.0553 C   0  0  0  0  0  0  0  0  0  0  0  0
    0.6680   -1.1362   -0.5828 C   0  0  0  0  0  0  0  0  0  0  0  0
   -1.3998   -0.6699    0.8339 C   0  0  0  0  0  0  0  0  0  0  0  0
   -2.2794    0.4037    0.1773 C   0  0  0  0  0  0  0  0  0  0  0  0
   -1.3501    0.3073   -1.0264 C   0  0  0  0  0  0  0  0  0  0  0  0
    2.7906   -1.2214   -0.2147 H   0  0  0  0  0  0  0  0  0  0  0  0
    2.2943   -0.0736   -1.5173 H   0  0  0  0  0  0  0  0  0  0  0  0
    2.4590    0.4080    1.3733 H   0  0  0  0  0  0  0  0  0  0  0  0
    2.4070    1.5679    0.0345 H   0  0  0  0  0  0  0  0  0  0  0  0
    0.2766    0.9103    1.7588 H   0  0  0  0  0  0  0  0  0  0  0  0
    0.1646    1.9745    0.3371 H   0  0  0  0  0  0  0  0  0  0  0  0
    0.6572   -2.0783   -0.0146 H   0  0  0  0  0  0  0  0  0  0  0  0
    0.4039   -1.3746   -1.6486 H   0  0  0  0  0  0  0  0  0  0  0  0
   -1.2769   -0.4273    1.9130 H   0  0  0  0  0  0  0  0  0  0  0  0
   -1.7031   -1.6998    0.6225 H   0  0  0  0  0  0  0  0  0  0  0  0
   -2.1369    1.3809    0.6590 H   0  0  0  0  0  0  0  0  0  0  0  0
   -3.2928    0.0410    0.0273 H   0  0  0  0  0  0  0  0  0  0  0  0
   -1.1646    1.2414   -1.5585 H   0  0  0  0  0  0  0  0  0  0  0  0
   -1.6457   -0.5452   -1.6891 H   0  0  0  0  0  0  0  0  0  0  0  0
  1  2  1  0
  2  3  1  0
  3  4  1  0
  4  5  1  0
  4  6  1  0
  6  7  1  0
  7  8  1  0
  5  1  1  0
  8  4  1  0
  1  9  1  0
  1 10  1  0
  2 11  1  0
  2 12  1  0
  3 13  1  0
  3 14  1  0
  5 15  1  0
  5 16  1  0
  6 17  1  0
  6 18  1  0
  7 19  1  0
  7 20  1  0
  8 21  1  0
  8 22  1  0
M  END
