
     RDKit          3D

 21 23  0  0  0  0  0  0  0  0999 V2000
    2.7648    0.6505    0.0622 C   0  0  0  0  0  0  0  0  0  0  0  0
    2.5638   -0.8488    0.0355 C   0  0  0  0  0  0  0  0  0  0  0  0
    1.4451   -0.0153    0.4744 C   0  0  0  0  0  0  0  0  0  0  0  0
    0.3025    0.3577   -0.4342 C   0  0  0  0  0  0  0  0  0  0  0  0
   -0.9864   -0.2912   -0.0335 C   0  0  0  0  0  0  0  0  0  0  0  0
   -1.5741   -0.0444    1.2964 C   0  0  0  0  0  0  0  0  0  0  0  0
   -2.2480    0.4677    0.0706 C   0  0  0  0  0  0  0  0  0  0  0  0
   -2.7127   -0.4772   -1.0025 C   0  0  0  0  0  0  0  0  0  0  0  0
   -1.5476   -1.2334   -0.8804 O   0  0  0  0  0  0  0  0  0  0  0  0
    3.3729    1.1047    0.8607 H   0  0  0  0  0  0  0  0  0  0  0  0
    2.8308    1.1331   -0.9183 H   0  0  0  0  0  0  0  0  0  0  0  0
    2.6126   -1.3438   -0.9421 H   0  0  0  0  0  0  0  0  0  0  0  0
    3.1081   -1.4111    0.8381 H   0  0  0  0  0  0  0  0  0  0  0  0
    1.1795    0.0186    1.5498 H   0  0  0  0  0  0  0  0  0  0  0  0
    0.5008    0.0786   -1.5012 H   0  0  0  0  0  0  0  0  0  0  0  0
    0.2458    1.4759   -0.4351 H   0  0  0  0  0  0  0  0  0  0  0  0
   -1.1044    0.7042    1.9352 H   0  0  0  0  0  0  0  0  0  0  0  0
   -2.0196   -0.9326    1.7947 H   0  0  0  0  0  0  0  0  0  0  0  0
   -2.2960    1.5590   -0.1003 H   0  0  0  0  0  0  0  0  0  0  0  0
   -2.8096    0.0787   -1.9689 H   0  0  0  0  0  0  0  0  0  0  0  0
   -3.6283   -1.0309   -0.7012 H   0  0  0  0  0  0  0  0  0  0  0  0
  1  2  1  0
  2  3  1  0
  3  4  1  0
  4  5  1  0
  5  6  1  0
  6  7  1  0
  7  8  1  0
  8  9  1  0
  3  1  1  0
  7  5  1  0
  9  5  1  0
  1 10  1  0
  1 11  1  0
  2 12  1  0
  2 13  1  0
  3 14  1  0
  4 15  1  0
  4 16  1  0
  6 17  1  0
  6 18  1  0
  7 19  1  0
  8 20  1  0
  8 21  1  0
M  END
