
     RDKit          3D

 25 26  0  0  0  0  0  0  0  0999 V2000
   -1.9918    0.3830   -0.4792 C   0  0  0  0  0  0  0  0  0  0  0  0
   -1.8417   -0.8746    0.3136 C   0  0  0  0  0  0  0  0  0  0  0  0
   -0.5892   -1.6301    0.0621 C   0  0  0  0  0  0  0  0  0  0  0  0
    0.3919   -0.9352   -0.8352 C   0  0  0  0  0  0  0  0  0  0  0  0
    1.0515    0.1971   -0.1045 C   0  0  0  0  0  0  0  0  0  0  0  0
    0.1136    0.9967    0.7343 C   0  0  0  0  0  0  0  0  0  0  0  0
   -1.1027    1.4791    0.0066 C   0  0  0  0  0  0  0  0  0  0  0  0
    2.3681    0.7200   -0.5405 C   0  0  0  0  0  0  0  0  0  0  0  0
    2.3408   -0.1848    0.6074 C   0  0  0  0  0  0  0  0  0  0  0  0
   -1.8969    0.1873   -1.5780 H   0  0  0  0  0  0  0  0  0  0  0  0
   -3.0638    0.7177   -0.3549 H   0  0  0  0  0  0  0  0  0  0  0  0
   -1.9200   -0.5887    1.3979 H   0  0  0  0  0  0  0  0  0  0  0  0
   -2.7125   -1.5564    0.1427 H   0  0  0  0  0  0  0  0  0  0  0  0
   -0.7584   -2.6564   -0.3435 H   0  0  0  0  0  0  0  0  0  0  0  0
   -0.0534   -1.8030    1.0414 H   0  0  0  0  0  0  0  0  0  0  0  0
   -0.0350   -0.6170   -1.7961 H   0  0  0  0  0  0  0  0  0  0  0  0
    1.1745   -1.7080   -1.0987 H   0  0  0  0  0  0  0  0  0  0  0  0
   -0.1963    0.4810    1.6505 H   0  0  0  0  0  0  0  0  0  0  0  0
    0.6709    1.9133    1.0713 H   0  0  0  0  0  0  0  0  0  0  0  0
   -0.8324    2.1977   -0.8206 H   0  0  0  0  0  0  0  0  0  0  0  0
   -1.6752    2.1194    0.7364 H   0  0  0  0  0  0  0  0  0  0  0  0
    2.7255    0.3464   -1.5365 H   0  0  0  0  0  0  0  0  0  0  0  0
    2.5525    1.7910   -0.3435 H   0  0  0  0  0  0  0  0  0  0  0  0
    2.5485    0.2322    1.6001 H   0  0  0  0  0  0  0  0  0  0  0  0
    2.7314   -1.2078    0.4668 H   0  0  0  0  0  0  0  0  0  0  0  0
  1  2  1  0
  2  3  1  0
  3  4  1  0
  4  5  1  0
  5  6  1  0
  6  7  1  0
  5  8  1  0
  8  9  1  0
  7  1  1  0
  9  5  1  0
  1 10  1  0
  1 11  1  0
  2 12  1  0
  2 13  1  0
  3 14  1  0
  3 15  1  0
  4 16  1  0
  4 17  1  0
  6 18  1  0
  6 19  1  0
  7 20  1  0
  7 21  1  0
  8 22  1  0
  8 23  1  0
  9 24  1  0
  9 25  1  0
M  END
