
     RDKit          3D

 23 25  0  0  0  0  0  0  0  0999 V2000
    1.5848    0.8049   -0.2435 C   0  0  0  0  0  0  0  0  0  0  0  0
    0.4726    1.2515    0.6836 C   0  0  0  0  0  0  0  0  0  0  0  0
   -0.8994    0.9713    0.1664 C   0  0  0  0  0  0  0  0  0  0  0  0
   -1.5940   -0.0953    1.0296 C   0  0  0  0  0  0  0  0  0  0  0  0
   -0.9262   -1.3640    0.4686 C   0  0  0  0  0  0  0  0  0  0  0  0
    0.4891   -1.2959    0.2765 C   0  0  0  0  0  0  0  0  0  0  0  0
    1.5318   -0.6996   -0.4588 C   0  0  0  0  0  0  0  0  0  0  0  0
   -0.5316   -1.1369   -0.7574 C   0  0  0  0  0  0  0  0  0  0  0  0
   -0.8874    0.2579   -1.1654 C   0  0  0  0  0  0  0  0  0  0  0  0
    1.5065    1.3735   -1.1838 H   0  0  0  0  0  0  0  0  0  0  0  0
    2.5332    1.1399    0.2352 H   0  0  0  0  0  0  0  0  0  0  0  0
    0.6391    0.9059    1.7311 H   0  0  0  0  0  0  0  0  0  0  0  0
    0.5751    2.3727    0.7466 H   0  0  0  0  0  0  0  0  0  0  0  0
   -1.5277    1.8755    0.0715 H   0  0  0  0  0  0  0  0  0  0  0  0
   -2.6703   -0.1075    0.8800 H   0  0  0  0  0  0  0  0  0  0  0  0
   -1.2500    0.0633    2.0550 H   0  0  0  0  0  0  0  0  0  0  0  0
   -1.3228   -2.3575    0.8284 H   0  0  0  0  0  0  0  0  0  0  0  0
    0.7028   -1.0911    1.3340 H   0  0  0  0  0  0  0  0  0  0  0  0
    2.5319   -1.0822   -0.0807 H   0  0  0  0  0  0  0  0  0  0  0  0
    1.6690   -0.8628   -1.5649 H   0  0  0  0  0  0  0  0  0  0  0  0
   -0.4131   -1.8731   -1.5950 H   0  0  0  0  0  0  0  0  0  0  0  0
   -1.9427    0.2422   -1.5332 H   0  0  0  0  0  0  0  0  0  0  0  0
   -0.2708    0.7073   -1.9241 H   0  0  0  0  0  0  0  0  0  0  0  0
  1  2  1  0
  2  3  1  0
  3  4  1  0
  4  5  1  0
  5  6  1  0
  6  7  1  0
  6  8  1  0
  8  9  1  0
  7  1  1  0
  9  3  1  0
  8  5  1  0
  1 10  1  0
  1 11  1  0
  2 12  1  0
  2 13  1  0
  3 14  1  0
  4 15  1  0
  4 16  1  0
  5 17  1  0
  6 18  1  0
  7 19  1  0
  7 20  1  0
  8 21  1  0
  9 22  1  0
  9 23  1  0
M  END
