
     RDKit          3D

 21 22  0  0  0  0  0  0  0  0999 V2000
    1.4639   -0.6754   -0.3377 C   0  0  0  0  0  0  0  0  0  0  0  0
    0.1906   -1.4041   -0.3381 C   0  0  0  0  0  0  0  0  0  0  0  0
   -0.9909   -0.6771    0.2003 C   0  0  0  0  0  0  0  0  0  0  0  0
   -1.5112    0.3866   -0.7377 C   0  0  0  0  0  0  0  0  0  0  0  0
   -0.8800    1.5834   -0.5320 O   0  0  0  0  0  0  0  0  0  0  0  0
    0.3080    1.4973    0.1707 C   0  0  0  0  0  0  0  0  0  0  0  0
    1.4029    0.7939   -0.5560 C   0  0  0  0  0  0  0  0  0  0  0  0
    0.1764    0.9521    1.4309 O   0  0  0  0  0  0  0  0  0  0  0  0
   -0.7614   -0.0395    1.5341 C   0  0  0  0  0  0  0  0  0  0  0  0
    2.1194   -1.1044   -1.1524 H   0  0  0  0  0  0  0  0  0  0  0  0
    2.0108   -0.8779    0.6082 H   0  0  0  0  0  0  0  0  0  0  0  0
    0.3149   -2.3386    0.2841 H   0  0  0  0  0  0  0  0  0  0  0  0
   -0.0730   -1.7798   -1.3520 H   0  0  0  0  0  0  0  0  0  0  0  0
   -1.8152   -1.4302    0.3326 H   0  0  0  0  0  0  0  0  0  0  0  0
   -2.5937    0.5339   -0.4615 H   0  0  0  0  0  0  0  0  0  0  0  0
   -1.5120    0.0193   -1.7672 H   0  0  0  0  0  0  0  0  0  0  0  0
    0.6401    2.5671    0.3320 H   0  0  0  0  0  0  0  0  0  0  0  0
    1.4225    1.0751   -1.6510 H   0  0  0  0  0  0  0  0  0  0  0  0
    2.3771    1.2199   -0.1659 H   0  0  0  0  0  0  0  0  0  0  0  0
   -0.5558   -0.7603    2.3374 H   0  0  0  0  0  0  0  0  0  0  0  0
   -1.7335    0.4589    1.8212 H   0  0  0  0  0  0  0  0  0  0  0  0
  1  2  1  0
  2  3  1  0
  3  4  1  0
  4  5  1  0
  5  6  1  0
  6  7  1  0
  6  8  1  0
  8  9  1  0
  7  1  1  0
  9  3  1  0
  1 10  1  0
  1 11  1  0
  2 12  1  0
  2 13  1  0
  3 14  1  0
  4 15  1  0
  4 16  1  0
  6 17  1  0
  7 18  1  0
  7 19  1  0
  9 20  1  0
  9 21  1  0
M  END
