
     RDKit          3D

 18 20  0  0  0  0  0  0  0  0999 V2000
    1.5732   -1.1371    0.2432 C   0  0  0  0  0  0  0  0  0  0  0  0
    2.0777    0.2573    0.1431 C   0  0  0  0  0  0  0  0  0  0  0  0
    0.7449   -0.0211   -0.3985 C   0  0  0  0  0  0  0  0  0  0  0  0
   -0.4066    0.5730    0.4063 C   0  0  0  0  0  0  0  0  0  0  0  0
   -1.0695    1.6239   -0.3088 C   0  0  0  0  0  0  0  0  0  0  0  0
   -1.8535    0.4264   -0.2047 C   0  0  0  0  0  0  0  0  0  0  0  0
   -1.3831   -0.9816    0.0654 C   0  0  0  0  0  0  0  0  0  0  0  0
   -0.9063   -0.3928    1.2524 O   0  0  0  0  0  0  0  0  0  0  0  0
    1.1340   -1.5068    1.2113 H   0  0  0  0  0  0  0  0  0  0  0  0
    1.9295   -1.9444   -0.4103 H   0  0  0  0  0  0  0  0  0  0  0  0
    2.2687    0.8104    1.0722 H   0  0  0  0  0  0  0  0  0  0  0  0
    2.9090    0.3818   -0.6096 H   0  0  0  0  0  0  0  0  0  0  0  0
    0.6268   -0.0740   -1.5119 H   0  0  0  0  0  0  0  0  0  0  0  0
   -0.7951    1.9183   -1.3661 H   0  0  0  0  0  0  0  0  0  0  0  0
   -1.2434    2.5797    0.2748 H   0  0  0  0  0  0  0  0  0  0  0  0
   -2.6995    0.6074    0.5388 H   0  0  0  0  0  0  0  0  0  0  0  0
   -0.6838   -1.4220   -0.6184 H   0  0  0  0  0  0  0  0  0  0  0  0
   -2.2231   -1.6984    0.2207 H   0  0  0  0  0  0  0  0  0  0  0  0
  1  2  1  0
  2  3  1  0
  3  4  1  0
  4  5  1  0
  5  6  1  0
  6  7  1  0
  7  8  1  0
  3  1  1  0
  6  4  1  0
  8  4  1  0
  1  9  1  0
  1 10  1  0
  2 11  1  0
  2 12  1  0
  3 13  1  0
  5 14  1  0
  5 15  1  0
  6 16  1  0
  7 17  1  0
  7 18  1  0
M  END
