
     RDKit          2D

 21 23  0  0  0  0  0  0  0  0999 V2000
   -2.8539   -2.8539    0.0000 C   0  0  0  0  0  0  0  0  0  0  0  0
   -1.4380   -3.3493    0.0000 C   0  0  0  0  0  0  0  0  0  0  0  0
   -0.1679   -2.5512    0.0000 C   0  0  0  0  0  0  0  0  0  0  0  0
   -0.0000   -1.0607    0.0000 C   0  0  0  0  0  0  0  0  0  0  0  0
    1.0607    0.0000    0.0000 C   0  0  0  0  0  0  0  0  0  0  0  0
    0.0000    1.0607    0.0000 C   0  0  0  0  0  0  0  0  0  0  0  0
   -1.0607    0.0000    0.0000 C   0  0  0  0  0  0  0  0  0  0  0  0
   -2.5512   -0.1679    0.0000 C   0  0  0  0  0  0  0  0  0  0  0  0
   -3.3493   -1.4380    0.0000 O   0  0  0  0  0  0  0  0  0  0  0  0
   -3.2022   -4.3128    0.0000 H   0  0  0  0  0  0  0  0  0  0  0  0
   -4.3444   -3.0218    0.0000 H   0  0  0  0  0  0  0  0  0  0  0  0
   -0.3774   -4.4099    0.0000 H   0  0  0  0  0  0  0  0  0  0  0  0
   -2.0753   -4.7072    0.0000 H   0  0  0  0  0  0  0  0  0  0  0  0
    1.1021   -3.3493    0.0000 H   0  0  0  0  0  0  0  0  0  0  0  0
    1.3515   -1.7115    0.0000 H   0  0  0  0  0  0  0  0  0  0  0  0
    2.1213    1.0607    0.0000 H   0  0  0  0  0  0  0  0  0  0  0  0
    2.1213   -1.0607    0.0000 H   0  0  0  0  0  0  0  0  0  0  0  0
    0.0000    2.5607    0.0000 H   0  0  0  0  0  0  0  0  0  0  0  0
   -1.5419    1.4207    0.0000 H   0  0  0  0  0  0  0  0  0  0  0  0
   -3.9671    0.3275    0.0000 H   0  0  0  0  0  0  0  0  0  0  0  0
   -2.5662    1.3320    0.0000 H   0  0  0  0  0  0  0  0  0  0  0  0
  1  2  1  0
  2  3  1  0
  3  4  1  0
  4  5  1  0
  5  6  1  0
  6  7  1  0
  7  8  1  0
  8  9  1  0
  9  1  1  0
  6  3  1  0
  7  4  1  0
  1 10  1  0
  1 11  1  0
  2 12  1  0
  2 13  1  0
  3 14  1  0
  4 15  1  0
  5 16  1  0
  5 17  1  0
  6 18  1  0
  7 19  1  0
  8 20  1  0
  8 21  1  0
M  END
