
     RDKit          3D

 21 23  0  0  0  0  0  0  0  0999 V2000
    1.8500    0.2851   -0.3924 C   0  0  0  0  0  0  0  0  0  0  0  0
    0.9250   -0.8175   -0.6277 C   0  0  0  0  0  0  0  0  0  0  0  0
   -0.3080   -0.8966    0.2466 C   0  0  0  0  0  0  0  0  0  0  0  0
   -0.0236   -0.0895    1.4362 C   0  0  0  0  0  0  0  0  0  0  0  0
    0.1239    1.2764    0.7248 C   0  0  0  0  0  0  0  0  0  0  0  0
   -0.7036    1.1224   -0.5690 C   0  0  0  0  0  0  0  0  0  0  0  0
   -1.5533   -0.0161   -0.1848 C   0  0  0  0  0  0  0  0  0  0  0  0
   -1.4663   -1.4108   -0.3567 C   0  0  0  0  0  0  0  0  0  0  0  0
    1.4406    1.3401    0.3640 O   0  0  0  0  0  0  0  0  0  0  0  0
    2.8032   -0.1001    0.0849 H   0  0  0  0  0  0  0  0  0  0  0  0
    2.2284    0.7184   -1.3696 H   0  0  0  0  0  0  0  0  0  0  0  0
    0.6494   -0.8547   -1.7183 H   0  0  0  0  0  0  0  0  0  0  0  0
    1.4501   -1.8084   -0.4688 H   0  0  0  0  0  0  0  0  0  0  0  0
    0.8711   -0.3395    2.0034 H   0  0  0  0  0  0  0  0  0  0  0  0
   -0.9154   -0.0133    2.1041 H   0  0  0  0  0  0  0  0  0  0  0  0
   -0.2187    2.0965    1.3395 H   0  0  0  0  0  0  0  0  0  0  0  0
   -1.3031    2.0691   -0.6543 H   0  0  0  0  0  0  0  0  0  0  0  0
   -0.0790    1.0243   -1.4523 H   0  0  0  0  0  0  0  0  0  0  0  0
   -2.2300    0.3139    0.6669 H   0  0  0  0  0  0  0  0  0  0  0  0
   -2.1254   -2.0948    0.2370 H   0  0  0  0  0  0  0  0  0  0  0  0
   -1.4152   -1.8047   -1.4135 H   0  0  0  0  0  0  0  0  0  0  0  0
  1  2  1  0
  2  3  1  0
  3  4  1  0
  4  5  1  0
  5  6  1  0
  6  7  1  0
  7  8  1  0
  5  9  1  0
  9  1  1  0
  7  3  1  0
  8  3  1  0
  1 10  1  0
  1 11  1  0
  2 12  1  0
  2 13  1  0
  4 14  1  0
  4 15  1  0
  5 16  1  0
  6 17  1  0
  6 18  1  0
  7 19  1  0
  8 20  1  0
  8 21  1  0
M  END
