
     RDKit          3D

 23 24  0  0  0  0  0  0  0  0999 V2000
    1.7985   -0.9429   -0.0038 C   0  0  0  0  0  0  0  0  0  0  0  0
    1.9407    0.5421   -0.0264 C   0  0  0  0  0  0  0  0  0  0  0  0
    0.7418    1.2559    0.6170 C   0  0  0  0  0  0  0  0  0  0  0  0
   -0.4485    0.8209   -0.1435 C   0  0  0  0  0  0  0  0  0  0  0  0
   -1.7733    1.2665    0.3549 C   0  0  0  0  0  0  0  0  0  0  0  0
   -2.6924    0.2459    0.1208 O   0  0  0  0  0  0  0  0  0  0  0  0
   -1.9940   -0.8530   -0.3771 C   0  0  0  0  0  0  0  0  0  0  0  0
   -0.6089   -0.6875    0.1252 C   0  0  0  0  0  0  0  0  0  0  0  0
    0.4625   -1.4218   -0.5652 C   0  0  0  0  0  0  0  0  0  0  0  0
    1.9080   -1.2939    1.0362 H   0  0  0  0  0  0  0  0  0  0  0  0
    2.5943   -1.3807   -0.6018 H   0  0  0  0  0  0  0  0  0  0  0  0
    2.8741    0.8119    0.4658 H   0  0  0  0  0  0  0  0  0  0  0  0
    1.9757    0.8924   -1.0935 H   0  0  0  0  0  0  0  0  0  0  0  0
    0.8943    2.3370    0.4689 H   0  0  0  0  0  0  0  0  0  0  0  0
    0.6797    0.9546    1.6779 H   0  0  0  0  0  0  0  0  0  0  0  0
   -0.2927    0.9651   -1.2311 H   0  0  0  0  0  0  0  0  0  0  0  0
   -2.1090    2.2396   -0.0153 H   0  0  0  0  0  0  0  0  0  0  0  0
   -1.6933    1.3769    1.4758 H   0  0  0  0  0  0  0  0  0  0  0  0
   -2.4671   -1.8046   -0.1045 H   0  0  0  0  0  0  0  0  0  0  0  0
   -1.9693   -0.7085   -1.4960 H   0  0  0  0  0  0  0  0  0  0  0  0
   -0.6133   -0.8324    1.2271 H   0  0  0  0  0  0  0  0  0  0  0  0
    0.3954   -1.2778   -1.6408 H   0  0  0  0  0  0  0  0  0  0  0  0
    0.3968   -2.5055   -0.2706 H   0  0  0  0  0  0  0  0  0  0  0  0
  1  2  1  0
  2  3  1  0
  3  4  1  0
  4  5  1  0
  5  6  1  0
  6  7  1  0
  7  8  1  0
  8  9  1  0
  9  1  1  0
  8  4  1  0
  1 10  1  0
  1 11  1  0
  2 12  1  0
  2 13  1  0
  3 14  1  0
  3 15  1  0
  4 16  1  0
  5 17  1  0
  5 18  1  0
  7 19  1  0
  7 20  1  0
  8 21  1  0
  9 22  1  0
  9 23  1  0
M  END
