
     RDKit          3D

 20 21  0  0  0  0  0  0  0  0999 V2000
    1.9841   -0.2844    0.1879 C   0  0  0  0  0  0  0  0  0  0  0  0
    0.7257   -0.8735    0.8405 C   0  0  0  0  0  0  0  0  0  0  0  0
   -0.1988   -0.7201   -0.3649 C   0  0  0  0  0  0  0  0  0  0  0  0
   -1.6277   -0.7505   -0.0309 C   0  0  0  0  0  0  0  0  0  0  0  0
   -2.0193    0.6947    0.0868 C   0  0  0  0  0  0  0  0  0  0  0  0
   -0.9521    1.4743   -0.2222 O   0  0  0  0  0  0  0  0  0  0  0  0
    0.0602    0.7162   -0.7394 C   0  0  0  0  0  0  0  0  0  0  0  0
    1.4205    1.0771   -0.1739 C   0  0  0  0  0  0  0  0  0  0  0  0
    2.1151   -0.8393   -0.7546 H   0  0  0  0  0  0  0  0  0  0  0  0
    2.8314   -0.2544    0.8494 H   0  0  0  0  0  0  0  0  0  0  0  0
    0.4636   -0.1727    1.6541 H   0  0  0  0  0  0  0  0  0  0  0  0
    0.8573   -1.9016    1.1537 H   0  0  0  0  0  0  0  0  0  0  0  0
    0.1536   -1.4298   -1.1191 H   0  0  0  0  0  0  0  0  0  0  0  0
   -1.9205   -1.3667    0.8326 H   0  0  0  0  0  0  0  0  0  0  0  0
   -2.1830   -1.1910   -0.9110 H   0  0  0  0  0  0  0  0  0  0  0  0
   -2.2843    0.8830    1.1692 H   0  0  0  0  0  0  0  0  0  0  0  0
   -2.9205    0.9075   -0.5399 H   0  0  0  0  0  0  0  0  0  0  0  0
    0.1451    0.7817   -1.8542 H   0  0  0  0  0  0  0  0  0  0  0  0
    2.0474    1.6315   -0.8753 H   0  0  0  0  0  0  0  0  0  0  0  0
    1.3022    1.6180    0.8111 H   0  0  0  0  0  0  0  0  0  0  0  0
  1  2  1  0
  2  3  1  0
  3  4  1  0
  4  5  1  0
  5  6  1  0
  6  7  1  0
  7  8  1  0
  8  1  1  0
  7  3  1  0
  1  9  1  0
  1 10  1  0
  2 11  1  0
  2 12  1  0
  3 13  1  0
  4 14  1  0
  4 15  1  0
  5 16  1  0
  5 17  1  0
  7 18  1  0
  8 19  1  0
  8 20  1  0
M  END
