
     RDKit          3D

 17 18  0  0  0  0  0  0  0  0999 V2000
   -2.0050   -0.1920   -0.3198 C   0  0  0  0  0  0  0  0  0  0  0  0
   -0.8324    0.7856   -0.4307 C   0  0  0  0  0  0  0  0  0  0  0  0
    0.0666   -0.4358   -0.2443 C   0  0  0  0  0  0  0  0  0  0  0  0
    1.3140   -0.1742    0.5285 C   0  0  0  0  0  0  0  0  0  0  0  0
    2.2514    0.8452   -0.0396 C   0  0  0  0  0  0  0  0  0  0  0  0
    2.4815   -0.5939   -0.1608 O   0  0  0  0  0  0  0  0  0  0  0  0
   -1.0862   -1.0133    0.5928 C   0  0  0  0  0  0  0  0  0  0  0  0
   -2.8945    0.2101    0.1581 H   0  0  0  0  0  0  0  0  0  0  0  0
   -2.1526   -0.7177   -1.2878 H   0  0  0  0  0  0  0  0  0  0  0  0
   -0.7425    1.2847   -1.3941 H   0  0  0  0  0  0  0  0  0  0  0  0
   -0.7367    1.4571    0.4375 H   0  0  0  0  0  0  0  0  0  0  0  0
    0.2010   -1.0415   -1.1392 H   0  0  0  0  0  0  0  0  0  0  0  0
    1.3116   -0.2926    1.6309 H   0  0  0  0  0  0  0  0  0  0  0  0
    3.0594    1.2757    0.5590 H   0  0  0  0  0  0  0  0  0  0  0  0
    1.9704    1.3405   -0.9794 H   0  0  0  0  0  0  0  0  0  0  0  0
   -1.0295   -0.6364    1.6210 H   0  0  0  0  0  0  0  0  0  0  0  0
   -1.1763   -2.1016    0.4678 H   0  0  0  0  0  0  0  0  0  0  0  0
  1  2  1  0
  2  3  1  0
  3  4  1  0
  4  5  1  0
  5  6  1  0
  3  7  1  0
  7  1  1  0
  6  4  1  0
  1  8  1  0
  1  9  1  0
  2 10  1  0
  2 11  1  0
  3 12  1  0
  4 13  1  0
  5 14  1  0
  5 15  1  0
  7 16  1  0
  7 17  1  0
M  END
