
     RDKit          3D

 15 15  0  0  0  0  0  0  0  0999 V2000
   -1.1507    0.4791   -0.2617 C   0  0  0  0  0  0  0  0  0  0  0  0
   -0.7207   -0.9769   -0.2496 C   0  0  0  0  0  0  0  0  0  0  0  0
    0.4157   -0.9168    0.7679 C   0  0  0  0  0  0  0  0  0  0  0  0
    1.2316    0.2102    0.1150 C   0  0  0  0  0  0  0  0  0  0  0  0
    0.1664    1.2110   -0.2821 C   0  0  0  0  0  0  0  0  0  0  0  0
   -1.7855    0.6730   -1.1259 H   0  0  0  0  0  0  0  0  0  0  0  0
   -1.7298    0.6465    0.6633 H   0  0  0  0  0  0  0  0  0  0  0  0
   -0.2255   -1.1549   -1.2333 H   0  0  0  0  0  0  0  0  0  0  0  0
   -1.5004   -1.6715    0.0070 H   0  0  0  0  0  0  0  0  0  0  0  0
    0.0751   -0.5912    1.7590 H   0  0  0  0  0  0  0  0  0  0  0  0
    1.0001   -1.8390    0.7914 H   0  0  0  0  0  0  0  0  0  0  0  0
    1.9927    0.6103    0.7772 H   0  0  0  0  0  0  0  0  0  0  0  0
    1.6632   -0.2691   -0.8117 H   0  0  0  0  0  0  0  0  0  0  0  0
    0.1981    2.0677    0.4223 H   0  0  0  0  0  0  0  0  0  0  0  0
    0.3697    1.5215   -1.3388 H   0  0  0  0  0  0  0  0  0  0  0  0
  1  2  1  0
  2  3  1  0
  3  4  1  0
  4  5  1  0
  5  1  1  0
  1  6  1  0
  1  7  1  0
  2  8  1  0
  2  9  1  0
  3 10  1  0
  3 11  1  0
  4 12  1  0
  4 13  1  0
  5 14  1  0
  5 15  1  0
M  END
