
     RDKit          3D

 18 19  0  0  0  0  0  0  0  0999 V2000
    1.6597    0.2166   -0.5068 C   0  0  0  0  0  0  0  0  0  0  0  0
    1.1418   -1.0900   -0.0092 C   0  0  0  0  0  0  0  0  0  0  0  0
   -0.1999   -0.8446    0.6578 C   0  0  0  0  0  0  0  0  0  0  0  0
   -1.3012   -0.5799   -0.3059 C   0  0  0  0  0  0  0  0  0  0  0  0
   -1.5213    0.9246   -0.1329 C   0  0  0  0  0  0  0  0  0  0  0  0
   -0.1505    1.3076    0.4445 C   0  0  0  0  0  0  0  0  0  0  0  0
    0.7510    1.2261   -0.5771 O   0  0  0  0  0  0  0  0  0  0  0  0
   -0.0112    0.3239    1.4161 O   0  0  0  0  0  0  0  0  0  0  0  0
    2.0716    0.0319   -1.5417 H   0  0  0  0  0  0  0  0  0  0  0  0
    2.5474    0.5928    0.0725 H   0  0  0  0  0  0  0  0  0  0  0  0
    1.8260   -1.4125    0.8315 H   0  0  0  0  0  0  0  0  0  0  0  0
    1.1242   -1.8992   -0.7402 H   0  0  0  0  0  0  0  0  0  0  0  0
   -0.4774   -1.7021    1.2939 H   0  0  0  0  0  0  0  0  0  0  0  0
   -1.0863   -0.8484   -1.3503 H   0  0  0  0  0  0  0  0  0  0  0  0
   -2.2228   -1.0958   -0.0108 H   0  0  0  0  0  0  0  0  0  0  0  0
   -2.3041    1.1384    0.6153 H   0  0  0  0  0  0  0  0  0  0  0  0
   -1.6673    1.4341   -1.0989 H   0  0  0  0  0  0  0  0  0  0  0  0
   -0.1797    2.2765    0.9423 H   0  0  0  0  0  0  0  0  0  0  0  0
  1  2  1  0
  2  3  1  0
  3  4  1  0
  4  5  1  0
  5  6  1  0
  6  7  1  0
  6  8  1  0
  7  1  1  0
  8  3  1  0
  1  9  1  0
  1 10  1  0
  2 11  1  0
  2 12  1  0
  3 13  1  0
  4 14  1  0
  4 15  1  0
  5 16  1  0
  5 17  1  0
  6 18  1  0
M  END
