
     RDKit          3D

 21 23  0  0  0  0  0  0  0  0999 V2000
   -0.5559    1.1662   -1.0612 C   0  0  0  0  0  0  0  0  0  0  0  0
   -1.3379    1.0069    0.2443 C   0  0  0  0  0  0  0  0  0  0  0  0
   -0.5909   -0.0995    0.9553 C   0  0  0  0  0  0  0  0  0  0  0  0
   -0.8637   -1.3670    0.1348 C   0  0  0  0  0  0  0  0  0  0  0  0
    0.0162   -1.2368   -1.1070 C   0  0  0  0  0  0  0  0  0  0  0  0
    0.5896    0.1735   -0.9509 C   0  0  0  0  0  0  0  0  0  0  0  0
    0.8204    0.1875    0.5356 C   0  0  0  0  0  0  0  0  0  0  0  0
    1.9096    0.5003    1.2723 C   0  0  0  0  0  0  0  0  0  0  0  0
    1.7027   -0.9113    1.0082 O   0  0  0  0  0  0  0  0  0  0  0  0
   -1.1833    0.9860   -1.9376 H   0  0  0  0  0  0  0  0  0  0  0  0
   -0.1140    2.1799   -1.1388 H   0  0  0  0  0  0  0  0  0  0  0  0
   -1.3165    1.9214    0.8458 H   0  0  0  0  0  0  0  0  0  0  0  0
   -2.3666    0.6841   -0.0297 H   0  0  0  0  0  0  0  0  0  0  0  0
   -0.7784   -0.1997    2.0015 H   0  0  0  0  0  0  0  0  0  0  0  0
   -1.9253   -1.4549   -0.1091 H   0  0  0  0  0  0  0  0  0  0  0  0
   -0.5365   -2.2363    0.7590 H   0  0  0  0  0  0  0  0  0  0  0  0
    0.8949   -1.9207   -0.9855 H   0  0  0  0  0  0  0  0  0  0  0  0
   -0.5292   -1.3725   -2.0348 H   0  0  0  0  0  0  0  0  0  0  0  0
    1.4396    0.3814   -1.5699 H   0  0  0  0  0  0  0  0  0  0  0  0
    2.8744    0.8184    0.8216 H   0  0  0  0  0  0  0  0  0  0  0  0
    1.8508    0.7931    2.3458 H   0  0  0  0  0  0  0  0  0  0  0  0
  1  2  1  0
  2  3  1  0
  3  4  1  0
  4  5  1  0
  5  6  1  0
  6  7  1  0
  7  8  1  0
  8  9  1  0
  6  1  1  0
  9  7  1  0
  7  3  1  0
  1 10  1  0
  1 11  1  0
  2 12  1  0
  2 13  1  0
  3 14  1  0
  4 15  1  0
  4 16  1  0
  5 17  1  0
  5 18  1  0
  6 19  1  0
  8 20  1  0
  8 21  1  0
M  END
