
     RDKit          3D

 23 25  0  0  0  0  0  0  0  0999 V2000
    0.8213    1.4605    0.5693 C   0  0  0  0  0  0  0  0  0  0  0  0
   -0.6201    1.7402    0.1303 C   0  0  0  0  0  0  0  0  0  0  0  0
   -1.0349    0.4998   -0.6295 C   0  0  0  0  0  0  0  0  0  0  0  0
   -2.0469   -0.3255    0.1804 C   0  0  0  0  0  0  0  0  0  0  0  0
   -1.0825   -1.5061   -0.0085 C   0  0  0  0  0  0  0  0  0  0  0  0
   -0.0392   -0.5298   -0.2863 C   0  0  0  0  0  0  0  0  0  0  0  0
    1.1291   -0.7931   -1.0887 C   0  0  0  0  0  0  0  0  0  0  0  0
    1.9791   -0.7795    0.1901 C   0  0  0  0  0  0  0  0  0  0  0  0
    0.8145   -0.0266    0.8418 C   0  0  0  0  0  0  0  0  0  0  0  0
    1.1136    2.0627    1.4365 H   0  0  0  0  0  0  0  0  0  0  0  0
    1.4413    1.6261   -0.3324 H   0  0  0  0  0  0  0  0  0  0  0  0
   -0.6869    2.5883   -0.5585 H   0  0  0  0  0  0  0  0  0  0  0  0
   -1.2757    1.9525    0.9912 H   0  0  0  0  0  0  0  0  0  0  0  0
   -1.3163    0.6469   -1.6798 H   0  0  0  0  0  0  0  0  0  0  0  0
   -2.0421   -0.0267    1.2579 H   0  0  0  0  0  0  0  0  0  0  0  0
   -3.0163   -0.4401   -0.2957 H   0  0  0  0  0  0  0  0  0  0  0  0
   -0.9859   -2.1107    0.9231 H   0  0  0  0  0  0  0  0  0  0  0  0
   -1.3736   -2.1034   -0.8976 H   0  0  0  0  0  0  0  0  0  0  0  0
    1.4703    0.0686   -1.7246 H   0  0  0  0  0  0  0  0  0  0  0  0
    1.2560   -1.7319   -1.6412 H   0  0  0  0  0  0  0  0  0  0  0  0
    2.0783   -1.7874    0.6197 H   0  0  0  0  0  0  0  0  0  0  0  0
    2.8583   -0.1420    0.1540 H   0  0  0  0  0  0  0  0  0  0  0  0
    0.5588   -0.3430    1.8486 H   0  0  0  0  0  0  0  0  0  0  0  0
  1  2  1  0
  2  3  1  0
  3  4  1  0
  4  5  1  0
  5  6  1  0
  6  7  1  0
  7  8  1  0
  8  9  1  0
  9  1  1  0
  6  3  1  0
  9  6  1  0
  1 10  1  0
  1 11  1  0
  2 12  1  0
  2 13  1  0
  3 14  1  0
  4 15  1  0
  4 16  1  0
  5 17  1  0
  5 18  1  0
  7 19  1  0
  7 20  1  0
  8 21  1  0
  8 22  1  0
  9 23  1  0
M  END
