
     RDKit          3D

 23 25  0  0  0  0  0  0  0  0999 V2000
   -1.1573    1.2802    0.0503 C   0  0  0  0  0  0  0  0  0  0  0  0
   -1.7756   -0.0665    0.0743 C   0  0  0  0  0  0  0  0  0  0  0  0
   -0.9666   -1.1762    0.6067 C   0  0  0  0  0  0  0  0  0  0  0  0
    0.1193   -0.8028    1.5927 C   0  0  0  0  0  0  0  0  0  0  0  0
    1.0207   -0.6122    0.5046 C   0  0  0  0  0  0  0  0  0  0  0  0
    0.1753   -1.3857   -0.4010 C   0  0  0  0  0  0  0  0  0  0  0  0
    2.2500   -0.0829    0.1506 C   0  0  0  0  0  0  0  0  0  0  0  0
    1.1799    0.8467    0.3042 C   0  0  0  0  0  0  0  0  0  0  0  0
    0.1869    1.3294   -0.6726 C   0  0  0  0  0  0  0  0  0  0  0  0
   -1.0008    1.7129    1.0583 H   0  0  0  0  0  0  0  0  0  0  0  0
   -1.8309    1.9693   -0.4900 H   0  0  0  0  0  0  0  0  0  0  0  0
   -2.0245   -0.3180   -1.0022 H   0  0  0  0  0  0  0  0  0  0  0  0
   -2.7707    0.0378    0.5575 H   0  0  0  0  0  0  0  0  0  0  0  0
   -1.5236   -2.0669    0.8677 H   0  0  0  0  0  0  0  0  0  0  0  0
    0.3380   -1.6778    2.2383 H   0  0  0  0  0  0  0  0  0  0  0  0
   -0.1402    0.0594    2.2451 H   0  0  0  0  0  0  0  0  0  0  0  0
    0.4519   -2.4784   -0.3666 H   0  0  0  0  0  0  0  0  0  0  0  0
   -0.0287   -1.1026   -1.4174 H   0  0  0  0  0  0  0  0  0  0  0  0
    3.1229   -0.0127    0.8531 H   0  0  0  0  0  0  0  0  0  0  0  0
    2.6366   -0.2670   -0.8975 H   0  0  0  0  0  0  0  0  0  0  0  0
    1.1834    1.4764    1.2498 H   0  0  0  0  0  0  0  0  0  0  0  0
    0.3751    2.4367   -0.8187 H   0  0  0  0  0  0  0  0  0  0  0  0
    0.1787    0.9009   -1.6580 H   0  0  0  0  0  0  0  0  0  0  0  0
  1  2  1  0
  2  3  1  0
  3  4  1  0
  4  5  1  0
  5  6  1  0
  5  7  1  0
  7  8  1  0
  8  9  1  0
  9  1  1  0
  6  3  1  0
  8  5  1  0
  1 10  1  0
  1 11  1  0
  2 12  1  0
  2 13  1  0
  3 14  1  0
  4 15  1  0
  4 16  1  0
  6 17  1  0
  6 18  1  0
  7 19  1  0
  7 20  1  0
  8 21  1  0
  9 22  1  0
  9 23  1  0
M  END
