
     RDKit          3D

 19 21  0  0  0  0  0  0  0  0999 V2000
   -1.6912    0.0560    0.6187 C   0  0  0  0  0  0  0  0  0  0  0  0
   -1.3936   -0.9377   -0.5143 C   0  0  0  0  0  0  0  0  0  0  0  0
    0.0291   -0.5201   -0.8228 C   0  0  0  0  0  0  0  0  0  0  0  0
    0.9882   -0.9390    0.2613 C   0  0  0  0  0  0  0  0  0  0  0  0
    1.7879    0.3009    0.6264 C   0  0  0  0  0  0  0  0  0  0  0  0
    1.1255    1.2448    1.4653 O   0  0  0  0  0  0  0  0  0  0  0  0
    1.2349    1.3782   -0.0234 C   0  0  0  0  0  0  0  0  0  0  0  0
   -0.0758    0.9789   -0.6265 C   0  0  0  0  0  0  0  0  0  0  0  0
   -1.1696    1.2270    0.1552 O   0  0  0  0  0  0  0  0  0  0  0  0
   -2.7970    0.0542    0.7208 H   0  0  0  0  0  0  0  0  0  0  0  0
   -1.2446   -0.3064    1.5644 H   0  0  0  0  0  0  0  0  0  0  0  0
   -1.4986   -1.9696   -0.2050 H   0  0  0  0  0  0  0  0  0  0  0  0
   -2.0146   -0.6168   -1.3586 H   0  0  0  0  0  0  0  0  0  0  0  0
    0.3309   -0.8023   -1.8287 H   0  0  0  0  0  0  0  0  0  0  0  0
    1.7193   -1.6492   -0.2028 H   0  0  0  0  0  0  0  0  0  0  0  0
    0.5115   -1.3731    1.1417 H   0  0  0  0  0  0  0  0  0  0  0  0
    2.8067    0.1023    0.9851 H   0  0  0  0  0  0  0  0  0  0  0  0
    1.6082    2.3560   -0.3284 H   0  0  0  0  0  0  0  0  0  0  0  0
   -0.2571    1.4158   -1.6286 H   0  0  0  0  0  0  0  0  0  0  0  0
  1  2  1  0
  2  3  1  0
  3  4  1  0
  4  5  1  0
  5  6  1  0
  6  7  1  0
  7  8  1  0
  8  9  1  0
  9  1  1  0
  8  3  1  0
  7  5  1  0
  1 10  1  0
  1 11  1  0
  2 12  1  0
  2 13  1  0
  3 14  1  0
  4 15  1  0
  4 16  1  0
  5 17  1  0
  7 18  1  0
  8 19  1  0
M  END
