
     RDKit          3D

 23 24  0  0  0  0  0  0  0  0999 V2000
   -2.1509   -0.4147   -0.1318 C   0  0  0  0  0  0  0  0  0  0  0  0
   -0.8458   -0.9119    0.0229 C   0  0  0  0  0  0  0  0  0  0  0  0
    0.2914   -1.7599    0.0610 C   0  0  0  0  0  0  0  0  0  0  0  0
    1.4361   -0.8281    0.4847 C   0  0  0  0  0  0  0  0  0  0  0  0
    2.5408   -0.2298   -0.0395 C   0  0  0  0  0  0  0  0  0  0  0  0
    1.3105    0.3600   -0.4945 C   0  0  0  0  0  0  0  0  0  0  0  0
    0.4948    1.4898    0.0517 C   0  0  0  0  0  0  0  0  0  0  0  0
   -0.7088    1.4939   -0.5610 O   0  0  0  0  0  0  0  0  0  0  0  0
   -1.9104    1.1584   -0.0639 C   0  0  0  0  0  0  0  0  0  0  0  0
   -2.8863   -0.6075    0.6773 H   0  0  0  0  0  0  0  0  0  0  0  0
   -2.7204   -0.6141   -1.0807 H   0  0  0  0  0  0  0  0  0  0  0  0
   -0.4919   -0.4141   -0.9153 H   0  0  0  0  0  0  0  0  0  0  0  0
   -0.6814   -0.4127    1.0292 H   0  0  0  0  0  0  0  0  0  0  0  0
    0.5811   -2.3661   -0.8356 H   0  0  0  0  0  0  0  0  0  0  0  0
    0.2010   -2.5331    0.8719 H   0  0  0  0  0  0  0  0  0  0  0  0
    1.1280   -0.4868    1.5411 H   0  0  0  0  0  0  0  0  0  0  0  0
    3.2533   -0.7485   -0.7366 H   0  0  0  0  0  0  0  0  0  0  0  0
    3.1784    0.4347    0.6178 H   0  0  0  0  0  0  0  0  0  0  0  0
    1.2113    0.2511   -1.5808 H   0  0  0  0  0  0  0  0  0  0  0  0
    0.5322    1.6299    1.1345 H   0  0  0  0  0  0  0  0  0  0  0  0
    1.0322    2.4188   -0.3368 H   0  0  0  0  0  0  0  0  0  0  0  0
   -2.6903    1.6110   -0.6985 H   0  0  0  0  0  0  0  0  0  0  0  0
   -2.1051    1.4799    0.9830 H   0  0  0  0  0  0  0  0  0  0  0  0
  1  2  1  0
  2  3  1  0
  3  4  1  0
  4  5  1  0
  5  6  1  0
  6  7  1  0
  7  8  1  0
  8  9  1  0
  9  1  1  0
  6  4  1  0
  1 10  1  0
  1 11  1  0
  2 12  1  0
  2 13  1  0
  3 14  1  0
  3 15  1  0
  4 16  1  0
  5 17  1  0
  5 18  1  0
  6 19  1  0
  7 20  1  0
  7 21  1  0
  9 22  1  0
  9 23  1  0
M  END
