
     RDKit          3D

 21 23  0  0  0  0  0  0  0  0999 V2000
   -1.5483    0.3692    0.9132 C   0  0  0  0  0  0  0  0  0  0  0  0
   -0.8935    1.2622   -0.1384 C   0  0  0  0  0  0  0  0  0  0  0  0
   -0.0787    0.3449   -1.0261 C   0  0  0  0  0  0  0  0  0  0  0  0
   -0.9076   -0.9486   -0.8944 C   0  0  0  0  0  0  0  0  0  0  0  0
   -0.9091   -0.9561    0.6423 C   0  0  0  0  0  0  0  0  0  0  0  0
    0.5737   -0.8135    0.9088 C   0  0  0  0  0  0  0  0  0  0  0  0
    1.1463   -0.0454   -0.2889 C   0  0  0  0  0  0  0  0  0  0  0  0
    2.3847    0.5648   -0.2301 C   0  0  0  0  0  0  0  0  0  0  0  0
    2.1303   -0.6449   -1.0407 O   0  0  0  0  0  0  0  0  0  0  0  0
   -1.3499    0.7063    1.9300 H   0  0  0  0  0  0  0  0  0  0  0  0
   -2.6486    0.2896    0.6798 H   0  0  0  0  0  0  0  0  0  0  0  0
   -1.6343    1.7566   -0.7804 H   0  0  0  0  0  0  0  0  0  0  0  0
   -0.2517    2.0051    0.3977 H   0  0  0  0  0  0  0  0  0  0  0  0
    0.0322    0.6720   -2.0416 H   0  0  0  0  0  0  0  0  0  0  0  0
   -0.3232   -1.7673   -1.3079 H   0  0  0  0  0  0  0  0  0  0  0  0
   -1.8990   -0.7945   -1.3095 H   0  0  0  0  0  0  0  0  0  0  0  0
   -1.3768   -1.8190    1.0703 H   0  0  0  0  0  0  0  0  0  0  0  0
    0.6744   -0.1333    1.7851 H   0  0  0  0  0  0  0  0  0  0  0  0
    1.0834   -1.7689    1.0524 H   0  0  0  0  0  0  0  0  0  0  0  0
    3.1259    0.2791    0.5448 H   0  0  0  0  0  0  0  0  0  0  0  0
    2.6698    1.4416   -0.8665 H   0  0  0  0  0  0  0  0  0  0  0  0
  1  2  1  0
  2  3  1  0
  3  4  1  0
  4  5  1  0
  5  6  1  0
  6  7  1  0
  7  8  1  0
  8  9  1  0
  5  1  1  0
  9  7  1  0
  7  3  1  0
  1 10  1  0
  1 11  1  0
  2 12  1  0
  2 13  1  0
  3 14  1  0
  4 15  1  0
  4 16  1  0
  5 17  1  0
  6 18  1  0
  6 19  1  0
  8 20  1  0
  8 21  1  0
M  END
