
     RDKit          3D

 19 21  0  0  0  0  0  0  0  0999 V2000
   -0.8996    1.1232    0.4587 C   0  0  0  0  0  0  0  0  0  0  0  0
   -0.8416   -0.0615    1.4403 C   0  0  0  0  0  0  0  0  0  0  0  0
    0.0438   -0.9601    0.6621 C   0  0  0  0  0  0  0  0  0  0  0  0
   -0.6522   -1.0012   -0.6616 C   0  0  0  0  0  0  0  0  0  0  0  0
   -0.7253    0.5101   -0.9299 C   0  0  0  0  0  0  0  0  0  0  0  0
    0.5150    0.8440   -1.4767 O   0  0  0  0  0  0  0  0  0  0  0  0
    1.5486    0.0269   -0.9735 C   0  0  0  0  0  0  0  0  0  0  0  0
    1.4145   -0.2955    0.4582 C   0  0  0  0  0  0  0  0  0  0  0  0
    1.1802   -1.5225    0.9808 O   0  0  0  0  0  0  0  0  0  0  0  0
    0.0294    1.7146    0.6716 H   0  0  0  0  0  0  0  0  0  0  0  0
   -1.8175    1.6966    0.5592 H   0  0  0  0  0  0  0  0  0  0  0  0
   -1.8666   -0.4847    1.4350 H   0  0  0  0  0  0  0  0  0  0  0  0
   -0.4864    0.2368    2.4237 H   0  0  0  0  0  0  0  0  0  0  0  0
   -0.1623   -1.5536   -1.4482 H   0  0  0  0  0  0  0  0  0  0  0  0
   -1.7114   -1.3086   -0.4726 H   0  0  0  0  0  0  0  0  0  0  0  0
   -1.5532    0.7564   -1.5936 H   0  0  0  0  0  0  0  0  0  0  0  0
    2.4753    0.6670   -1.0910 H   0  0  0  0  0  0  0  0  0  0  0  0
    1.7391   -0.8481   -1.6225 H   0  0  0  0  0  0  0  0  0  0  0  0
    1.7705    0.4602    1.1798 H   0  0  0  0  0  0  0  0  0  0  0  0
  1  2  1  0
  2  3  1  0
  3  4  1  0
  4  5  1  0
  5  6  1  0
  6  7  1  0
  7  8  1  0
  8  9  1  0
  5  1  1  0
  8  3  1  0
  9  3  1  0
  1 10  1  0
  1 11  1  0
  2 12  1  0
  2 13  1  0
  4 14  1  0
  4 15  1  0
  5 16  1  0
  7 17  1  0
  7 18  1  0
  8 19  1  0
M  END
