
     RDKit          3D

 16 18  0  0  0  0  0  0  0  0999 V2000
   -0.9445    0.1843    1.1494 C   0  0  0  0  0  0  0  0  0  0  0  0
   -1.3957   -0.4852   -0.1649 C   0  0  0  0  0  0  0  0  0  0  0  0
   -0.4244    0.2368   -1.0816 C   0  0  0  0  0  0  0  0  0  0  0  0
   -0.5504    1.5569   -0.5930 O   0  0  0  0  0  0  0  0  0  0  0  0
    0.1443    1.0728    0.5404 C   0  0  0  0  0  0  0  0  0  0  0  0
    0.8542    0.1599   -0.3551 C   0  0  0  0  0  0  0  0  0  0  0  0
    1.7814   -0.8181   -0.2013 C   0  0  0  0  0  0  0  0  0  0  0  0
    2.0550    0.4160   -0.9446 O   0  0  0  0  0  0  0  0  0  0  0  0
   -1.7501    0.7648    1.6014 H   0  0  0  0  0  0  0  0  0  0  0  0
   -0.5314   -0.5901    1.7958 H   0  0  0  0  0  0  0  0  0  0  0  0
   -1.2404   -1.5654   -0.1373 H   0  0  0  0  0  0  0  0  0  0  0  0
   -2.4259   -0.1818   -0.4141 H   0  0  0  0  0  0  0  0  0  0  0  0
   -0.4999    0.0871   -2.1303 H   0  0  0  0  0  0  0  0  0  0  0  0
    0.6225    1.7786    1.1694 H   0  0  0  0  0  0  0  0  0  0  0  0
    1.8112   -1.7301   -0.8604 H   0  0  0  0  0  0  0  0  0  0  0  0
    2.4941   -0.8864    0.6262 H   0  0  0  0  0  0  0  0  0  0  0  0
  1  2  1  0
  2  3  1  0
  3  4  1  0
  4  5  1  0
  5  6  1  0
  6  7  1  0
  7  8  1  0
  5  1  1  0
  8  6  1  0
  6  3  1  0
  1  9  1  0
  1 10  1  0
  2 11  1  0
  2 12  1  0
  3 13  1  0
  5 14  1  0
  7 15  1  0
  7 16  1  0
M  END
