
     RDKit          3D

 20 21  0  0  0  0  0  0  0  0999 V2000
   -1.3408   -0.1260   -0.3689 C   0  0  0  0  0  0  0  0  0  0  0  0
   -0.8902    1.0803    0.3597 C   0  0  0  0  0  0  0  0  0  0  0  0
    0.3858    1.7010   -0.2323 C   0  0  0  0  0  0  0  0  0  0  0  0
    1.4789    0.8150    0.2165 C   0  0  0  0  0  0  0  0  0  0  0  0
    2.4281    0.2176   -0.4980 O   0  0  0  0  0  0  0  0  0  0  0  0
    1.2838   -0.4652   -0.6138 C   0  0  0  0  0  0  0  0  0  0  0  0
    0.6986   -1.4477    0.3076 C   0  0  0  0  0  0  0  0  0  0  0  0
   -0.8070   -1.4314    0.1331 C   0  0  0  0  0  0  0  0  0  0  0  0
   -1.2115    0.0016   -1.4699 H   0  0  0  0  0  0  0  0  0  0  0  0
   -2.4639   -0.1894   -0.2383 H   0  0  0  0  0  0  0  0  0  0  0  0
   -1.6504    1.8846    0.4473 H   0  0  0  0  0  0  0  0  0  0  0  0
   -0.6167    0.8294    1.4265 H   0  0  0  0  0  0  0  0  0  0  0  0
    0.2964    1.8227   -1.3192 H   0  0  0  0  0  0  0  0  0  0  0  0
    0.5030    2.7086    0.2212 H   0  0  0  0  0  0  0  0  0  0  0  0
    1.5537    0.7061    1.3204 H   0  0  0  0  0  0  0  0  0  0  0  0
    0.7834   -0.3871   -1.5983 H   0  0  0  0  0  0  0  0  0  0  0  0
    0.8791   -1.2276    1.3964 H   0  0  0  0  0  0  0  0  0  0  0  0
    1.0457   -2.4950    0.1715 H   0  0  0  0  0  0  0  0  0  0  0  0
   -1.0160   -2.1896   -0.6801 H   0  0  0  0  0  0  0  0  0  0  0  0
   -1.3400   -1.8079    1.0185 H   0  0  0  0  0  0  0  0  0  0  0  0
  1  2  1  0
  2  3  1  0
  3  4  1  0
  4  5  1  0
  5  6  1  0
  6  7  1  0
  7  8  1  0
  8  1  1  0
  6  4  1  0
  1  9  1  0
  1 10  1  0
  2 11  1  0
  2 12  1  0
  3 13  1  0
  3 14  1  0
  4 15  1  0
  6 16  1  0
  7 17  1  0
  7 18  1  0
  8 19  1  0
  8 20  1  0
M  END
