
     RDKit          3D

 25 25  0  0  0  0  0  0  0  0999 V2000
   -0.1949   -1.5941   -0.4260 C   0  0  0  0  0  0  0  0  0  0  0  0
    1.1728   -1.5842    0.1483 C   0  0  0  0  0  0  0  0  0  0  0  0
    1.8310   -0.2826    0.2996 C   0  0  0  0  0  0  0  0  0  0  0  0
    1.5133    0.7668   -0.6897 C   0  0  0  0  0  0  0  0  0  0  0  0
    0.6255    1.8301   -0.0268 C   0  0  0  0  0  0  0  0  0  0  0  0
   -0.2434    1.1711    0.8125 O   0  0  0  0  0  0  0  0  0  0  0  0
   -1.5358    1.3627    0.3072 C   0  0  0  0  0  0  0  0  0  0  0  0
   -2.0325    0.0262   -0.1745 C   0  0  0  0  0  0  0  0  0  0  0  0
   -1.2567   -1.0823    0.5279 C   0  0  0  0  0  0  0  0  0  0  0  0
   -0.2744   -1.0966   -1.4008 H   0  0  0  0  0  0  0  0  0  0  0  0
   -0.4642   -2.6755   -0.6206 H   0  0  0  0  0  0  0  0  0  0  0  0
    1.1118   -2.0725    1.1655 H   0  0  0  0  0  0  0  0  0  0  0  0
    1.7974   -2.3039   -0.4529 H   0  0  0  0  0  0  0  0  0  0  0  0
    1.6544    0.1159    1.3362 H   0  0  0  0  0  0  0  0  0  0  0  0
    2.9475   -0.4579    0.2699 H   0  0  0  0  0  0  0  0  0  0  0  0
    2.4406    1.3388   -0.9936 H   0  0  0  0  0  0  0  0  0  0  0  0
    1.0647    0.4241   -1.6326 H   0  0  0  0  0  0  0  0  0  0  0  0
    1.2608    2.5041    0.6108 H   0  0  0  0  0  0  0  0  0  0  0  0
    0.1286    2.4684   -0.7583 H   0  0  0  0  0  0  0  0  0  0  0  0
   -2.1523    1.6856    1.1795 H   0  0  0  0  0  0  0  0  0  0  0  0
   -1.5713    2.0900   -0.5158 H   0  0  0  0  0  0  0  0  0  0  0  0
   -3.1140   -0.0353    0.0383 H   0  0  0  0  0  0  0  0  0  0  0  0
   -1.9043   -0.0824   -1.2789 H   0  0  0  0  0  0  0  0  0  0  0  0
   -0.8174   -0.6746    1.4575 H   0  0  0  0  0  0  0  0  0  0  0  0
   -1.9871   -1.8416    0.8174 H   0  0  0  0  0  0  0  0  0  0  0  0
  1  2  1  0
  2  3  1  0
  3  4  1  0
  4  5  1  0
  5  6  1  0
  6  7  1  0
  7  8  1  0
  8  9  1  0
  9  1  1  0
  1 10  1  0
  1 11  1  0
  2 12  1  0
  2 13  1  0
  3 14  1  0
  3 15  1  0
  4 16  1  0
  4 17  1  0
  5 18  1  0
  5 19  1  0
  7 20  1  0
  7 21  1  0
  8 22  1  0
  8 23  1  0
  9 24  1  0
  9 25  1  0
M  END
