
     RDKit          3D

 21 23  0  0  0  0  0  0  0  0999 V2000
    3.1213   -0.0072    0.5416 C   0  0  0  0  0  0  0  0  0  0  0  0
    3.0565    0.0460   -0.9790 C   0  0  0  0  0  0  0  0  0  0  0  0
    1.8984   -0.4711   -0.1117 C   0  0  0  0  0  0  0  0  0  0  0  0
    0.6363    0.3248   -0.1712 C   0  0  0  0  0  0  0  0  0  0  0  0
   -0.0101    0.7134    0.9939 O   0  0  0  0  0  0  0  0  0  0  0  0
   -0.6609   -0.2762    0.2941 C   0  0  0  0  0  0  0  0  0  0  0  0
   -1.8444    0.0168   -0.5658 C   0  0  0  0  0  0  0  0  0  0  0  0
   -3.1918   -0.5869   -0.1137 C   0  0  0  0  0  0  0  0  0  0  0  0
   -2.9349    0.9092   -0.1798 C   0  0  0  0  0  0  0  0  0  0  0  0
    3.1026    0.9119    1.1211 H   0  0  0  0  0  0  0  0  0  0  0  0
    3.7913   -0.8230    0.9427 H   0  0  0  0  0  0  0  0  0  0  0  0
    2.9145    1.0556   -1.4427 H   0  0  0  0  0  0  0  0  0  0  0  0
    3.6509   -0.6806   -1.5452 H   0  0  0  0  0  0  0  0  0  0  0  0
    1.7287   -1.5774   -0.2478 H   0  0  0  0  0  0  0  0  0  0  0  0
    0.5847    1.0948   -0.9703 H   0  0  0  0  0  0  0  0  0  0  0  0
   -0.6445   -1.2735    0.7725 H   0  0  0  0  0  0  0  0  0  0  0  0
   -1.6751   -0.0977   -1.6734 H   0  0  0  0  0  0  0  0  0  0  0  0
   -3.2015   -1.0767    0.8734 H   0  0  0  0  0  0  0  0  0  0  0  0
   -3.8225   -1.0650   -0.8699 H   0  0  0  0  0  0  0  0  0  0  0  0
   -3.4972    1.4484   -0.9830 H   0  0  0  0  0  0  0  0  0  0  0  0
   -3.0021    1.4144    0.7953 H   0  0  0  0  0  0  0  0  0  0  0  0
  1  2  1  0
  2  3  1  0
  3  4  1  0
  4  5  1  0
  5  6  1  0
  6  7  1  0
  7  8  1  0
  8  9  1  0
  3  1  1  0
  6  4  1  0
  9  7  1  0
  1 10  1  0
  1 11  1  0
  2 12  1  0
  2 13  1  0
  3 14  1  0
  4 15  1  0
  6 16  1  0
  7 17  1  0
  8 18  1  0
  8 19  1  0
  9 20  1  0
  9 21  1  0
M  END
