
     RDKit          3D

 21 23  0  0  0  0  0  0  0  0999 V2000
    1.7148    0.3538    0.2774 C   0  0  0  0  0  0  0  0  0  0  0  0
    1.5178   -0.7886   -0.7077 C   0  0  0  0  0  0  0  0  0  0  0  0
    0.0382   -0.6001   -1.0745 C   0  0  0  0  0  0  0  0  0  0  0  0
   -0.0604    0.6429   -1.6784 O   0  0  0  0  0  0  0  0  0  0  0  0
   -0.0958    1.6189   -0.6978 C   0  0  0  0  0  0  0  0  0  0  0  0
    0.3428    0.8720    0.5726 C   0  0  0  0  0  0  0  0  0  0  0  0
   -0.5071   -0.3401    0.2925 C   0  0  0  0  0  0  0  0  0  0  0  0
   -1.9959   -0.2314    0.3785 C   0  0  0  0  0  0  0  0  0  0  0  0
   -1.1138   -1.2169    1.2034 C   0  0  0  0  0  0  0  0  0  0  0  0
    2.2687    1.1529   -0.2946 H   0  0  0  0  0  0  0  0  0  0  0  0
    2.3085    0.0847    1.1423 H   0  0  0  0  0  0  0  0  0  0  0  0
    1.6588   -1.7500   -0.1418 H   0  0  0  0  0  0  0  0  0  0  0  0
    2.1680   -0.7110   -1.5822 H   0  0  0  0  0  0  0  0  0  0  0  0
   -0.3822   -1.4249   -1.6159 H   0  0  0  0  0  0  0  0  0  0  0  0
    0.5121    2.4938   -0.8929 H   0  0  0  0  0  0  0  0  0  0  0  0
   -1.1772    1.8628   -0.4807 H   0  0  0  0  0  0  0  0  0  0  0  0
    0.1779    1.3895    1.4800 H   0  0  0  0  0  0  0  0  0  0  0  0
   -2.4366    0.6111    0.9620 H   0  0  0  0  0  0  0  0  0  0  0  0
   -2.6402   -0.6989   -0.3936 H   0  0  0  0  0  0  0  0  0  0  0  0
   -1.2424   -2.2935    0.9578 H   0  0  0  0  0  0  0  0  0  0  0  0
   -1.0560   -1.0270    2.2934 H   0  0  0  0  0  0  0  0  0  0  0  0
  1  2  1  0
  2  3  1  0
  3  4  1  0
  4  5  1  0
  5  6  1  0
  6  7  1  0
  7  8  1  0
  8  9  1  0
  6  1  1  0
  9  7  1  0
  7  3  1  0
  1 10  1  0
  1 11  1  0
  2 12  1  0
  2 13  1  0
  3 14  1  0
  5 15  1  0
  5 16  1  0
  6 17  1  0
  8 18  1  0
  8 19  1  0
  9 20  1  0
  9 21  1  0
M  END
