
     RDKit          3D

 21 22  0  0  0  0  0  0  0  0999 V2000
    2.8445   -0.0566   -0.6897 C   0  0  0  0  0  0  0  0  0  0  0  0
    1.7477   -0.9915   -0.2470 C   0  0  0  0  0  0  0  0  0  0  0  0
    0.5349   -0.0613   -0.3366 C   0  0  0  0  0  0  0  0  0  0  0  0
   -0.4295   -0.3514    0.5813 O   0  0  0  0  0  0  0  0  0  0  0  0
   -1.6978   -0.4399   -0.0159 C   0  0  0  0  0  0  0  0  0  0  0  0
   -2.5781   -1.4812    0.5885 C   0  0  0  0  0  0  0  0  0  0  0  0
   -2.9045   -0.0452    0.7586 C   0  0  0  0  0  0  0  0  0  0  0  0
    1.2029    1.2514    0.0853 C   0  0  0  0  0  0  0  0  0  0  0  0
    2.3831    1.2260   -0.5939 O   0  0  0  0  0  0  0  0  0  0  0  0
    3.7643   -0.1501   -0.0876 H   0  0  0  0  0  0  0  0  0  0  0  0
    3.1170   -0.3491   -1.7259 H   0  0  0  0  0  0  0  0  0  0  0  0
    1.6411   -1.8781   -0.8756 H   0  0  0  0  0  0  0  0  0  0  0  0
    1.8780   -1.3203    0.7984 H   0  0  0  0  0  0  0  0  0  0  0  0
    0.1948    0.0569   -1.3696 H   0  0  0  0  0  0  0  0  0  0  0  0
   -1.6992   -0.2631   -1.1058 H   0  0  0  0  0  0  0  0  0  0  0  0
   -2.2318   -2.0590    1.4727 H   0  0  0  0  0  0  0  0  0  0  0  0
   -3.1692   -2.1060   -0.1219 H   0  0  0  0  0  0  0  0  0  0  0  0
   -2.6857    0.4030    1.7534 H   0  0  0  0  0  0  0  0  0  0  0  0
   -3.7272    0.4363    0.1851 H   0  0  0  0  0  0  0  0  0  0  0  0
    0.5080    2.0613   -0.2464 H   0  0  0  0  0  0  0  0  0  0  0  0
    1.3064    1.3070    1.1927 H   0  0  0  0  0  0  0  0  0  0  0  0
  1  2  1  0
  2  3  1  0
  3  4  1  0
  4  5  1  0
  5  6  1  0
  6  7  1  0
  3  8  1  0
  8  9  1  0
  9  1  1  0
  7  5  1  0
  1 10  1  0
  1 11  1  0
  2 12  1  0
  2 13  1  0
  3 14  1  0
  5 15  1  0
  6 16  1  0
  6 17  1  0
  7 18  1  0
  7 19  1  0
  8 20  1  0
  8 21  1  0
M  END
