
     RDKit          3D

 21 22  0  0  0  0  0  0  0  0999 V2000
   -2.4390    0.4537   -0.0142 C   0  0  0  0  0  0  0  0  0  0  0  0
   -1.9029   -0.9761    0.1002 C   0  0  0  0  0  0  0  0  0  0  0  0
   -0.7494   -0.4989   -0.7625 C   0  0  0  0  0  0  0  0  0  0  0  0
    0.1608    0.1899    0.0124 O   0  0  0  0  0  0  0  0  0  0  0  0
    1.4521   -0.1700   -0.2488 C   0  0  0  0  0  0  0  0  0  0  0  0
    2.4523    0.9443   -0.3589 C   0  0  0  0  0  0  0  0  0  0  0  0
    3.3663    0.1047    0.3199 O   0  0  0  0  0  0  0  0  0  0  0  0
    2.2432   -0.3867    1.0243 C   0  0  0  0  0  0  0  0  0  0  0  0
   -1.7533    0.4885   -1.3666 C   0  0  0  0  0  0  0  0  0  0  0  0
   -1.9259    1.1105    0.7036 H   0  0  0  0  0  0  0  0  0  0  0  0
   -3.5405    0.5169   -0.0529 H   0  0  0  0  0  0  0  0  0  0  0  0
   -1.6344   -1.2783    1.1196 H   0  0  0  0  0  0  0  0  0  0  0  0
   -2.5275   -1.6670   -0.4759 H   0  0  0  0  0  0  0  0  0  0  0  0
   -0.3558   -1.2288   -1.4732 H   0  0  0  0  0  0  0  0  0  0  0  0
    1.6287   -0.9390   -1.0169 H   0  0  0  0  0  0  0  0  0  0  0  0
    2.7644    1.2296   -1.3729 H   0  0  0  0  0  0  0  0  0  0  0  0
    2.2386    1.8094    0.3137 H   0  0  0  0  0  0  0  0  0  0  0  0
    1.9439    0.3222    1.7991 H   0  0  0  0  0  0  0  0  0  0  0  0
    2.3105   -1.4425    1.3115 H   0  0  0  0  0  0  0  0  0  0  0  0
   -1.3313    1.4490   -1.6644 H   0  0  0  0  0  0  0  0  0  0  0  0
   -2.4007   -0.0315   -2.1049 H   0  0  0  0  0  0  0  0  0  0  0  0
  1  2  1  0
  2  3  1  0
  3  4  1  0
  4  5  1  0
  5  6  1  0
  6  7  1  0
  7  8  1  0
  3  9  1  0
  9  1  1  0
  8  5  1  0
  1 10  1  0
  1 11  1  0
  2 12  1  0
  2 13  1  0
  3 14  1  0
  5 15  1  0
  6 16  1  0
  6 17  1  0
  8 18  1  0
  8 19  1  0
  9 20  1  0
  9 21  1  0
M  END
