
     RDKit          3D

 18 20  0  0  0  0  0  0  0  0999 V2000
    1.6885   -0.0726    0.1746 C   0  0  0  0  0  0  0  0  0  0  0  0
    0.6805    1.0060    0.5050 C   0  0  0  0  0  0  0  0  0  0  0  0
   -0.6660    0.3789    0.4885 C   0  0  0  0  0  0  0  0  0  0  0  0
   -1.7500    0.9891   -0.4072 C   0  0  0  0  0  0  0  0  0  0  0  0
   -1.3592    0.0287   -1.3623 O   0  0  0  0  0  0  0  0  0  0  0  0
   -0.5351   -0.7194   -0.5366 C   0  0  0  0  0  0  0  0  0  0  0  0
    0.9076   -0.8900   -0.8525 C   0  0  0  0  0  0  0  0  0  0  0  0
   -0.9398   -1.0067    0.8786 C   0  0  0  0  0  0  0  0  0  0  0  0
    1.9496   -0.6510    1.0598 H   0  0  0  0  0  0  0  0  0  0  0  0
    2.5710    0.3875   -0.3250 H   0  0  0  0  0  0  0  0  0  0  0  0
    0.9283    1.5832    1.3974 H   0  0  0  0  0  0  0  0  0  0  0  0
    0.7269    1.7349   -0.3562 H   0  0  0  0  0  0  0  0  0  0  0  0
   -2.7311    0.7217    0.0105 H   0  0  0  0  0  0  0  0  0  0  0  0
   -1.5808    2.0246   -0.6901 H   0  0  0  0  0  0  0  0  0  0  0  0
    1.2008   -0.6815   -1.8771 H   0  0  0  0  0  0  0  0  0  0  0  0
    1.1986   -1.9608   -0.6460 H   0  0  0  0  0  0  0  0  0  0  0  0
   -0.2653   -1.6429    1.4468 H   0  0  0  0  0  0  0  0  0  0  0  0
   -2.0247   -1.2296    1.0918 H   0  0  0  0  0  0  0  0  0  0  0  0
  1  2  1  0
  2  3  1  0
  3  4  1  0
  4  5  1  0
  5  6  1  0
  6  7  1  0
  6  8  1  0
  7  1  1  0
  6  3  1  0
  8  3  1  0
  1  9  1  0
  1 10  1  0
  2 11  1  0
  2 12  1  0
  4 13  1  0
  4 14  1  0
  7 15  1  0
  7 16  1  0
  8 17  1  0
  8 18  1  0
M  END
