
     RDKit          3D

 21 23  0  0  0  0  0  0  0  0999 V2000
    2.2110   -0.2538    0.0581 C   0  0  0  0  0  0  0  0  0  0  0  0
    1.4228    1.0297   -0.2012 C   0  0  0  0  0  0  0  0  0  0  0  0
    0.0640    0.5646   -0.6550 C   0  0  0  0  0  0  0  0  0  0  0  0
   -1.1636    1.3370   -0.2731 C   0  0  0  0  0  0  0  0  0  0  0  0
   -2.1462    0.3479    0.2904 C   0  0  0  0  0  0  0  0  0  0  0  0
   -1.4389   -1.0022    0.3014 C   0  0  0  0  0  0  0  0  0  0  0  0
   -0.0982   -0.7549   -0.2919 C   0  0  0  0  0  0  0  0  0  0  0  0
    1.1474   -1.3163    0.3073 C   0  0  0  0  0  0  0  0  0  0  0  0
   -0.0586   -0.4127   -1.6184 O   0  0  0  0  0  0  0  0  0  0  0  0
    2.8950   -0.1345    0.9077 H   0  0  0  0  0  0  0  0  0  0  0  0
    2.8243   -0.5335   -0.8333 H   0  0  0  0  0  0  0  0  0  0  0  0
    1.9507    1.5689   -0.9913 H   0  0  0  0  0  0  0  0  0  0  0  0
    1.3425    1.5530    0.7577 H   0  0  0  0  0  0  0  0  0  0  0  0
   -1.6103    1.7299   -1.2185 H   0  0  0  0  0  0  0  0  0  0  0  0
   -0.9273    2.1641    0.4076 H   0  0  0  0  0  0  0  0  0  0  0  0
   -2.4207    0.6831    1.3070 H   0  0  0  0  0  0  0  0  0  0  0  0
   -3.0798    0.2837   -0.2887 H   0  0  0  0  0  0  0  0  0  0  0  0
   -1.4228   -1.4100    1.3230 H   0  0  0  0  0  0  0  0  0  0  0  0
   -1.9945   -1.6911   -0.3977 H   0  0  0  0  0  0  0  0  0  0  0  0
    1.0792   -1.5153    1.3783 H   0  0  0  0  0  0  0  0  0  0  0  0
    1.4240   -2.2378   -0.2693 H   0  0  0  0  0  0  0  0  0  0  0  0
  1  2  1  0
  2  3  1  0
  3  4  1  0
  4  5  1  0
  5  6  1  0
  6  7  1  0
  7  8  1  0
  7  9  1  0
  8  1  1  0
  7  3  1  0
  9  3  1  0
  1 10  1  0
  1 11  1  0
  2 12  1  0
  2 13  1  0
  4 14  1  0
  4 15  1  0
  5 16  1  0
  5 17  1  0
  6 18  1  0
  6 19  1  0
  8 20  1  0
  8 21  1  0
M  END
