
     RDKit          3D

 23 24  0  0  0  0  0  0  0  0999 V2000
   -1.4998   -0.8008    0.7247 C   0  0  0  0  0  0  0  0  0  0  0  0
   -1.3435   -0.6298   -0.7563 C   0  0  0  0  0  0  0  0  0  0  0  0
   -0.2551    0.3200   -1.1412 C   0  0  0  0  0  0  0  0  0  0  0  0
   -0.2924    1.4942   -0.2070 C   0  0  0  0  0  0  0  0  0  0  0  0
    0.3491    1.1380    1.0907 C   0  0  0  0  0  0  0  0  0  0  0  0
    0.7086   -0.3154    1.2202 C   0  0  0  0  0  0  0  0  0  0  0  0
    1.6018   -0.7913    0.0937 C   0  0  0  0  0  0  0  0  0  0  0  0
    1.0984   -0.3140   -1.2288 C   0  0  0  0  0  0  0  0  0  0  0  0
   -0.3564   -1.1537    1.3856 O   0  0  0  0  0  0  0  0  0  0  0  0
   -2.2370   -1.6397    0.8725 H   0  0  0  0  0  0  0  0  0  0  0  0
   -2.0087    0.1009    1.1259 H   0  0  0  0  0  0  0  0  0  0  0  0
   -2.3125   -0.2067   -1.1363 H   0  0  0  0  0  0  0  0  0  0  0  0
   -1.1995   -1.6124   -1.2693 H   0  0  0  0  0  0  0  0  0  0  0  0
   -0.5013    0.7094   -2.1607 H   0  0  0  0  0  0  0  0  0  0  0  0
    0.1561    2.4007   -0.6930 H   0  0  0  0  0  0  0  0  0  0  0  0
   -1.3645    1.7365    0.0186 H   0  0  0  0  0  0  0  0  0  0  0  0
    1.3017    1.7259    1.1636 H   0  0  0  0  0  0  0  0  0  0  0  0
   -0.2633    1.4085    1.9670 H   0  0  0  0  0  0  0  0  0  0  0  0
    1.3397   -0.3954    2.1548 H   0  0  0  0  0  0  0  0  0  0  0  0
    2.6553   -0.4739    0.2385 H   0  0  0  0  0  0  0  0  0  0  0  0
    1.6225   -1.9123    0.1429 H   0  0  0  0  0  0  0  0  0  0  0  0
    1.7971    0.4074   -1.6947 H   0  0  0  0  0  0  0  0  0  0  0  0
    1.0039   -1.1961   -1.9113 H   0  0  0  0  0  0  0  0  0  0  0  0
  1  2  1  0
  2  3  1  0
  3  4  1  0
  4  5  1  0
  5  6  1  0
  6  7  1  0
  7  8  1  0
  6  9  1  0
  9  1  1  0
  8  3  1  0
  1 10  1  0
  1 11  1  0
  2 12  1  0
  2 13  1  0
  3 14  1  0
  4 15  1  0
  4 16  1  0
  5 17  1  0
  5 18  1  0
  6 19  1  0
  7 20  1  0
  7 21  1  0
  8 22  1  0
  8 23  1  0
M  END
