
     RDKit          3D

 23 25  0  0  0  0  0  0  0  0999 V2000
    3.0073    0.0650    0.2653 C   0  0  0  0  0  0  0  0  0  0  0  0
    2.3589    0.1986   -1.0394 C   0  0  0  0  0  0  0  0  0  0  0  0
    1.7672   -0.6750    0.0357 C   0  0  0  0  0  0  0  0  0  0  0  0
    0.4695   -0.2270    0.6107 C   0  0  0  0  0  0  0  0  0  0  0  0
   -0.6992   -1.1600    0.2532 C   0  0  0  0  0  0  0  0  0  0  0  0
   -1.5153    0.0685    0.0861 C   0  0  0  0  0  0  0  0  0  0  0  0
   -2.5774    0.5203    0.9508 C   0  0  0  0  0  0  0  0  0  0  0  0
   -2.7871    0.1856   -0.5648 C   0  0  0  0  0  0  0  0  0  0  0  0
   -0.2698    0.8168   -0.2425 C   0  0  0  0  0  0  0  0  0  0  0  0
    3.9566   -0.5278    0.2842 H   0  0  0  0  0  0  0  0  0  0  0  0
    3.0484    0.9391    0.9495 H   0  0  0  0  0  0  0  0  0  0  0  0
    1.9407    1.1766   -1.2795 H   0  0  0  0  0  0  0  0  0  0  0  0
    2.7459   -0.3589   -1.9252 H   0  0  0  0  0  0  0  0  0  0  0  0
    1.8416   -1.7850   -0.0835 H   0  0  0  0  0  0  0  0  0  0  0  0
    0.4478    0.0256    1.6723 H   0  0  0  0  0  0  0  0  0  0  0  0
   -0.9727   -1.8528    1.0676 H   0  0  0  0  0  0  0  0  0  0  0  0
   -0.4519   -1.6641   -0.6963 H   0  0  0  0  0  0  0  0  0  0  0  0
   -3.1328   -0.1085    1.6543 H   0  0  0  0  0  0  0  0  0  0  0  0
   -2.6256    1.6110    1.1932 H   0  0  0  0  0  0  0  0  0  0  0  0
   -3.0045    1.0406   -1.2164 H   0  0  0  0  0  0  0  0  0  0  0  0
   -3.3689   -0.7551   -0.7536 H   0  0  0  0  0  0  0  0  0  0  0  0
   -0.1694    1.8459    0.0973 H   0  0  0  0  0  0  0  0  0  0  0  0
   -0.0094    0.6205   -1.3190 H   0  0  0  0  0  0  0  0  0  0  0  0
  1  2  1  0
  2  3  1  0
  3  4  1  0
  4  5  1  0
  5  6  1  0
  6  7  1  0
  7  8  1  0
  6  9  1  0
  3  1  1  0
  9  4  1  0
  8  6  1  0
  1 10  1  0
  1 11  1  0
  2 12  1  0
  2 13  1  0
  3 14  1  0
  4 15  1  0
  5 16  1  0
  5 17  1  0
  7 18  1  0
  7 19  1  0
  8 20  1  0
  8 21  1  0
  9 22  1  0
  9 23  1  0
M  END
