
     RDKit          3D

 21 23  0  0  0  0  0  0  0  0999 V2000
   -0.9952    1.7900    0.6332 C   0  0  0  0  0  0  0  0  0  0  0  0
   -1.5044    0.7904   -0.3538 C   0  0  0  0  0  0  0  0  0  0  0  0
   -0.4534   -0.2812   -0.2870 C   0  0  0  0  0  0  0  0  0  0  0  0
   -0.8060   -1.5536    0.4672 C   0  0  0  0  0  0  0  0  0  0  0  0
   -0.4969   -1.5264   -1.0006 C   0  0  0  0  0  0  0  0  0  0  0  0
    0.7394    0.4485    0.1850 C   0  0  0  0  0  0  0  0  0  0  0  0
    1.9025   -0.3773    0.6288 C   0  0  0  0  0  0  0  0  0  0  0  0
    2.0130    0.5077   -0.5589 C   0  0  0  0  0  0  0  0  0  0  0  0
    0.3118    1.5263    0.9128 O   0  0  0  0  0  0  0  0  0  0  0  0
   -1.5871    1.6464    1.5814 H   0  0  0  0  0  0  0  0  0  0  0  0
   -1.1835    2.8430    0.2787 H   0  0  0  0  0  0  0  0  0  0  0  0
   -1.5087    1.2147   -1.3833 H   0  0  0  0  0  0  0  0  0  0  0  0
   -2.5059    0.4064   -0.1012 H   0  0  0  0  0  0  0  0  0  0  0  0
   -1.8555   -1.6428    0.8202 H   0  0  0  0  0  0  0  0  0  0  0  0
   -0.0717   -1.9890    1.1507 H   0  0  0  0  0  0  0  0  0  0  0  0
   -1.4091   -1.7243   -1.6369 H   0  0  0  0  0  0  0  0  0  0  0  0
    0.3959   -2.0567   -1.3244 H   0  0  0  0  0  0  0  0  0  0  0  0
    2.3589   -0.1032    1.5829 H   0  0  0  0  0  0  0  0  0  0  0  0
    1.9199   -1.4752    0.3794 H   0  0  0  0  0  0  0  0  0  0  0  0
    2.1194    0.1142   -1.5820 H   0  0  0  0  0  0  0  0  0  0  0  0
    2.6165    1.4423   -0.3922 H   0  0  0  0  0  0  0  0  0  0  0  0
  1  2  1  0
  2  3  1  0
  3  4  1  0
  4  5  1  0
  3  6  1  0
  6  7  1  0
  7  8  1  0
  6  9  1  0
  9  1  1  0
  5  3  1  0
  8  6  1  0
  1 10  1  0
  1 11  1  0
  2 12  1  0
  2 13  1  0
  4 14  1  0
  4 15  1  0
  5 16  1  0
  5 17  1  0
  7 18  1  0
  7 19  1  0
  8 20  1  0
  8 21  1  0
M  END
