
     RDKit          3D

 23 24  0  0  0  0  0  0  0  0999 V2000
   -1.9985   -0.2492    0.4672 C   0  0  0  0  0  0  0  0  0  0  0  0
   -1.5868    1.0875   -0.0455 C   0  0  0  0  0  0  0  0  0  0  0  0
   -0.1979    1.0229   -0.6282 C   0  0  0  0  0  0  0  0  0  0  0  0
    0.4961   -0.2576   -0.2636 C   0  0  0  0  0  0  0  0  0  0  0  0
    1.9084   -0.2627   -0.8605 C   0  0  0  0  0  0  0  0  0  0  0  0
    2.3357    0.4382    0.4324 C   0  0  0  0  0  0  0  0  0  0  0  0
    1.1550   -0.2929    1.0870 C   0  0  0  0  0  0  0  0  0  0  0  0
   -0.1813   -1.3672   -0.6653 O   0  0  0  0  0  0  0  0  0  0  0  0
   -1.5121   -1.4058   -0.3453 C   0  0  0  0  0  0  0  0  0  0  0  0
   -1.6359   -0.4005    1.5115 H   0  0  0  0  0  0  0  0  0  0  0  0
   -3.1172   -0.2820    0.4671 H   0  0  0  0  0  0  0  0  0  0  0  0
   -1.6596    1.8114    0.8066 H   0  0  0  0  0  0  0  0  0  0  0  0
   -2.2965    1.4660   -0.8161 H   0  0  0  0  0  0  0  0  0  0  0  0
    0.3581    1.8931   -0.2550 H   0  0  0  0  0  0  0  0  0  0  0  0
   -0.2867    1.0243   -1.7526 H   0  0  0  0  0  0  0  0  0  0  0  0
    2.3702   -1.2756   -0.8603 H   0  0  0  0  0  0  0  0  0  0  0  0
    2.0005    0.3280   -1.7661 H   0  0  0  0  0  0  0  0  0  0  0  0
    2.2496    1.5259    0.4153 H   0  0  0  0  0  0  0  0  0  0  0  0
    3.3228    0.1227    0.7959 H   0  0  0  0  0  0  0  0  0  0  0  0
    0.6439    0.2606    1.8688 H   0  0  0  0  0  0  0  0  0  0  0  0
    1.4861   -1.3159    1.3321 H   0  0  0  0  0  0  0  0  0  0  0  0
   -2.1855   -1.5430   -1.2140 H   0  0  0  0  0  0  0  0  0  0  0  0
   -1.6684   -2.3281    0.2884 H   0  0  0  0  0  0  0  0  0  0  0  0
  1  2  1  0
  2  3  1  0
  3  4  1  0
  4  5  1  0
  5  6  1  0
  6  7  1  0
  4  8  1  0
  8  9  1  0
  9  1  1  0
  7  4  1  0
  1 10  1  0
  1 11  1  0
  2 12  1  0
  2 13  1  0
  3 14  1  0
  3 15  1  0
  5 16  1  0
  5 17  1  0
  6 18  1  0
  6 19  1  0
  7 20  1  0
  7 21  1  0
  9 22  1  0
  9 23  1  0
M  END
