
     RDKit          3D

 19 21  0  0  0  0  0  0  0  0999 V2000
   -0.9794    0.7296    0.8120 C   0  0  0  0  0  0  0  0  0  0  0  0
   -1.7209   -0.4231    0.1774 C   0  0  0  0  0  0  0  0  0  0  0  0
   -0.5864   -1.1530   -0.5032 C   0  0  0  0  0  0  0  0  0  0  0  0
    0.4198   -1.5165    0.4035 O   0  0  0  0  0  0  0  0  0  0  0  0
    1.5491   -0.7975    0.0770 C   0  0  0  0  0  0  0  0  0  0  0  0
    1.4532    0.6625    0.5457 C   0  0  0  0  0  0  0  0  0  0  0  0
    0.1533    1.0402   -0.1614 C   0  0  0  0  0  0  0  0  0  0  0  0
    0.0950   -0.0043   -1.2250 C   0  0  0  0  0  0  0  0  0  0  0  0
    1.3984   -0.5515   -1.3130 O   0  0  0  0  0  0  0  0  0  0  0  0
   -0.6007    0.3659    1.7884 H   0  0  0  0  0  0  0  0  0  0  0  0
   -1.6245    1.6167    0.9681 H   0  0  0  0  0  0  0  0  0  0  0  0
   -2.2716   -1.0309    0.8928 H   0  0  0  0  0  0  0  0  0  0  0  0
   -2.3607   -0.0076   -0.6289 H   0  0  0  0  0  0  0  0  0  0  0  0
   -0.8990   -1.9599   -1.1572 H   0  0  0  0  0  0  0  0  0  0  0  0
    2.4920   -1.2578    0.3217 H   0  0  0  0  0  0  0  0  0  0  0  0
    1.3956    0.7522    1.6209 H   0  0  0  0  0  0  0  0  0  0  0  0
    2.2754    1.1967    0.0554 H   0  0  0  0  0  0  0  0  0  0  0  0
    0.1436    2.0710   -0.5119 H   0  0  0  0  0  0  0  0  0  0  0  0
   -0.3324    0.2673   -2.1621 H   0  0  0  0  0  0  0  0  0  0  0  0
  1  2  1  0
  2  3  1  0
  3  4  1  0
  4  5  1  0
  5  6  1  0
  6  7  1  0
  7  8  1  0
  8  9  1  0
  7  1  1  0
  8  3  1  0
  9  5  1  0
  1 10  1  0
  1 11  1  0
  2 12  1  0
  2 13  1  0
  3 14  1  0
  5 15  1  0
  6 16  1  0
  6 17  1  0
  7 18  1  0
  8 19  1  0
M  END
