
     RDKit          3D

 19 22  0  0  0  0  0  0  0  0999 V2000
   -1.5219    1.1315    0.4493 C   0  0  0  0  0  0  0  0  0  0  0  0
   -2.0153   -0.0795   -0.3127 C   0  0  0  0  0  0  0  0  0  0  0  0
   -0.8559   -0.8921    0.1929 C   0  0  0  0  0  0  0  0  0  0  0  0
   -0.3430    0.3534    0.9923 C   0  0  0  0  0  0  0  0  0  0  0  0
    0.4600   -0.3757    0.0770 C   0  0  0  0  0  0  0  0  0  0  0  0
    1.1534    0.1395   -1.1473 C   0  0  0  0  0  0  0  0  0  0  0  0
    2.2743    0.3215   -0.1428 C   0  0  0  0  0  0  0  0  0  0  0  0
    2.9584   -0.5911    0.5117 O   0  0  0  0  0  0  0  0  0  0  0  0
    1.7442   -1.0777    0.3111 C   0  0  0  0  0  0  0  0  0  0  0  0
   -2.2486    1.4854    1.1782 H   0  0  0  0  0  0  0  0  0  0  0  0
   -1.1932    1.9470   -0.2441 H   0  0  0  0  0  0  0  0  0  0  0  0
   -2.9600   -0.4993    0.0303 H   0  0  0  0  0  0  0  0  0  0  0  0
   -2.0214    0.0403   -1.4156 H   0  0  0  0  0  0  0  0  0  0  0  0
   -1.0506   -1.8005    0.7976 H   0  0  0  0  0  0  0  0  0  0  0  0
   -0.3214    0.1929    2.0927 H   0  0  0  0  0  0  0  0  0  0  0  0
    1.3348   -0.6493   -1.8852 H   0  0  0  0  0  0  0  0  0  0  0  0
    0.8257    1.0881   -1.5659 H   0  0  0  0  0  0  0  0  0  0  0  0
    1.9593    1.1617    0.5588 H   0  0  0  0  0  0  0  0  0  0  0  0
    1.8211   -1.8962   -0.4783 H   0  0  0  0  0  0  0  0  0  0  0  0
  1  2  1  0
  2  3  1  0
  3  4  1  0
  4  5  1  0
  5  6  1  0
  6  7  1  0
  7  8  1  0
  8  9  1  0
  4  1  1  0
  9  5  1  0
  5  3  1  0
  9  7  1  0
  1 10  1  0
  1 11  1  0
  2 12  1  0
  2 13  1  0
  3 14  1  0
  4 15  1  0
  6 16  1  0
  6 17  1  0
  7 18  1  0
  9 19  1  0
M  END
