
     RDKit          3D

 19 21  0  0  0  0  0  0  0  0999 V2000
   -2.5369   -0.1149   -0.5264 C   0  0  0  0  0  0  0  0  0  0  0  0
   -2.4346    0.5176    0.8122 C   0  0  0  0  0  0  0  0  0  0  0  0
   -1.4259   -0.5454    0.3510 C   0  0  0  0  0  0  0  0  0  0  0  0
   -0.0331   -0.0457    0.1743 C   0  0  0  0  0  0  0  0  0  0  0  0
    0.8034   -0.6097    1.1304 O   0  0  0  0  0  0  0  0  0  0  0  0
    2.1003   -0.5465    0.6263 C   0  0  0  0  0  0  0  0  0  0  0  0
    2.4886    0.7410    0.0117 C   0  0  0  0  0  0  0  0  0  0  0  0
    1.9046   -0.2928   -0.8678 C   0  0  0  0  0  0  0  0  0  0  0  0
    0.5552   -0.4844   -1.0112 O   0  0  0  0  0  0  0  0  0  0  0  0
   -2.2502    0.4746   -1.4173 H   0  0  0  0  0  0  0  0  0  0  0  0
   -3.3559   -0.8729   -0.6560 H   0  0  0  0  0  0  0  0  0  0  0  0
   -3.1162    0.2679    1.6296 H   0  0  0  0  0  0  0  0  0  0  0  0
   -2.0937    1.5737    0.8110 H   0  0  0  0  0  0  0  0  0  0  0  0
   -1.4983   -1.5188    0.9100 H   0  0  0  0  0  0  0  0  0  0  0  0
   -0.0105    1.0439    0.1644 H   0  0  0  0  0  0  0  0  0  0  0  0
    2.8372   -1.3191    0.9120 H   0  0  0  0  0  0  0  0  0  0  0  0
    1.9311    1.6500    0.3146 H   0  0  0  0  0  0  0  0  0  0  0  0
    3.5696    0.9148   -0.0974 H   0  0  0  0  0  0  0  0  0  0  0  0
    2.5655   -0.8333   -1.5679 H   0  0  0  0  0  0  0  0  0  0  0  0
  1  2  1  0
  2  3  1  0
  3  4  1  0
  4  5  1  0
  5  6  1  0
  6  7  1  0
  7  8  1  0
  8  9  1  0
  3  1  1  0
  9  4  1  0
  8  6  1  0
  1 10  1  0
  1 11  1  0
  2 12  1  0
  2 13  1  0
  3 14  1  0
  4 15  1  0
  6 16  1  0
  7 17  1  0
  7 18  1  0
  8 19  1  0
M  END
