
     RDKit          3D

 19 21  0  0  0  0  0  0  0  0999 V2000
   -2.0593    0.7606   -0.0129 C   0  0  0  0  0  0  0  0  0  0  0  0
   -1.2712   -0.2270    0.8157 C   0  0  0  0  0  0  0  0  0  0  0  0
   -0.0570   -0.4260   -0.0570 C   0  0  0  0  0  0  0  0  0  0  0  0
   -0.6636   -0.2735   -1.4305 C   0  0  0  0  0  0  0  0  0  0  0  0
   -1.6773    0.6335   -1.3168 O   0  0  0  0  0  0  0  0  0  0  0  0
    0.6982   -1.5373    0.1694 O   0  0  0  0  0  0  0  0  0  0  0  0
    1.8478   -0.7443   -0.0055 C   0  0  0  0  0  0  0  0  0  0  0  0
    2.1989    0.1140    1.1237 C   0  0  0  0  0  0  0  0  0  0  0  0
    1.0345    0.5256    0.2940 C   0  0  0  0  0  0  0  0  0  0  0  0
   -3.1489    0.6176    0.0900 H   0  0  0  0  0  0  0  0  0  0  0  0
   -1.7371    1.7791    0.3345 H   0  0  0  0  0  0  0  0  0  0  0  0
   -0.9593    0.1602    1.7845 H   0  0  0  0  0  0  0  0  0  0  0  0
   -1.8629   -1.1530    0.9408 H   0  0  0  0  0  0  0  0  0  0  0  0
    0.1252   -0.0263   -2.1419 H   0  0  0  0  0  0  0  0  0  0  0  0
   -1.0576   -1.2951   -1.7052 H   0  0  0  0  0  0  0  0  0  0  0  0
    2.3388   -0.7153   -0.9811 H   0  0  0  0  0  0  0  0  0  0  0  0
    1.9812   -0.3106    2.1425 H   0  0  0  0  0  0  0  0  0  0  0  0
    3.1208    0.7312    1.0260 H   0  0  0  0  0  0  0  0  0  0  0  0
    1.1487    1.3866   -0.3878 H   0  0  0  0  0  0  0  0  0  0  0  0
  1  2  1  0
  2  3  1  0
  3  4  1  0
  4  5  1  0
  3  6  1  0
  6  7  1  0
  7  8  1  0
  8  9  1  0
  5  1  1  0
  9  7  1  0
  9  3  1  0
  1 10  1  0
  1 11  1  0
  2 12  1  0
  2 13  1  0
  4 14  1  0
  4 15  1  0
  7 16  1  0
  8 17  1  0
  8 18  1  0
  9 19  1  0
M  END
