
     RDKit          3D

 17 18  0  0  0  0  0  0  0  0999 V2000
   -1.3414    0.3282    1.1241 C   0  0  0  0  0  0  0  0  0  0  0  0
   -2.1991   -0.2668    0.0377 C   0  0  0  0  0  0  0  0  0  0  0  0
   -0.8235    0.3790   -0.2341 C   0  0  0  0  0  0  0  0  0  0  0  0
    0.1775   -0.5174   -0.8243 C   0  0  0  0  0  0  0  0  0  0  0  0
    1.5245   -0.5499   -0.1698 C   0  0  0  0  0  0  0  0  0  0  0  0
    2.3490    0.6423   -0.0612 C   0  0  0  0  0  0  0  0  0  0  0  0
    1.7409   -0.0727    1.0884 O   0  0  0  0  0  0  0  0  0  0  0  0
   -1.7787    1.2434    1.5756 H   0  0  0  0  0  0  0  0  0  0  0  0
   -1.0172   -0.3951    1.8932 H   0  0  0  0  0  0  0  0  0  0  0  0
   -3.0906    0.2531   -0.3272 H   0  0  0  0  0  0  0  0  0  0  0  0
   -2.2615   -1.3697   -0.0607 H   0  0  0  0  0  0  0  0  0  0  0  0
   -0.9082    1.3849   -0.7471 H   0  0  0  0  0  0  0  0  0  0  0  0
   -0.2070   -1.5567   -0.8678 H   0  0  0  0  0  0  0  0  0  0  0  0
    0.3648   -0.2425   -1.9040 H   0  0  0  0  0  0  0  0  0  0  0  0
    2.0765   -1.4940   -0.3877 H   0  0  0  0  0  0  0  0  0  0  0  0
    3.4366    0.5624   -0.0930 H   0  0  0  0  0  0  0  0  0  0  0  0
    1.9575    1.6714   -0.0422 H   0  0  0  0  0  0  0  0  0  0  0  0
  1  2  1  0
  2  3  1  0
  3  4  1  0
  4  5  1  0
  5  6  1  0
  6  7  1  0
  3  1  1  0
  7  5  1  0
  1  8  1  0
  1  9  1  0
  2 10  1  0
  2 11  1  0
  3 12  1  0
  4 13  1  0
  4 14  1  0
  5 15  1  0
  6 16  1  0
  6 17  1  0
M  END
