
     RDKit          3D

 21 23  0  0  0  0  0  0  0  0999 V2000
   -2.4348   -0.0074   -0.0458 C   0  0  0  0  0  0  0  0  0  0  0  0
   -1.3232   -0.4680   -0.9986 C   0  0  0  0  0  0  0  0  0  0  0  0
   -0.3574   -0.0420    0.0238 C   0  0  0  0  0  0  0  0  0  0  0  0
   -1.3611    0.7638    0.7329 C   0  0  0  0  0  0  0  0  0  0  0  0
    0.4488   -1.1018    0.7807 C   0  0  0  0  0  0  0  0  0  0  0  0
    1.0383   -0.0067    0.0248 C   0  0  0  0  0  0  0  0  0  0  0  0
    1.9850   -0.1767   -1.1097 C   0  0  0  0  0  0  0  0  0  0  0  0
    2.6548    0.9782   -0.6573 O   0  0  0  0  0  0  0  0  0  0  0  0
    1.9673    1.0051    0.5718 C   0  0  0  0  0  0  0  0  0  0  0  0
   -2.8680   -0.8607    0.5294 H   0  0  0  0  0  0  0  0  0  0  0  0
   -3.1995    0.6187   -0.5118 H   0  0  0  0  0  0  0  0  0  0  0  0
   -1.3626    0.1606   -1.9156 H   0  0  0  0  0  0  0  0  0  0  0  0
   -1.4266   -1.5451   -1.2220 H   0  0  0  0  0  0  0  0  0  0  0  0
   -1.3913    1.8490    0.5803 H   0  0  0  0  0  0  0  0  0  0  0  0
   -1.4430    0.5360    1.8131 H   0  0  0  0  0  0  0  0  0  0  0  0
    0.3243   -1.0043    1.8786 H   0  0  0  0  0  0  0  0  0  0  0  0
    0.4037   -2.1351    0.3470 H   0  0  0  0  0  0  0  0  0  0  0  0
    1.5752   -0.1053   -2.1253 H   0  0  0  0  0  0  0  0  0  0  0  0
    2.6690   -1.0460   -0.9219 H   0  0  0  0  0  0  0  0  0  0  0  0
    2.5848    0.6096    1.4198 H   0  0  0  0  0  0  0  0  0  0  0  0
    1.5163    1.9782    0.8058 H   0  0  0  0  0  0  0  0  0  0  0  0
  1  2  1  0
  2  3  1  0
  3  4  1  0
  3  5  1  0
  5  6  1  0
  6  7  1  0
  7  8  1  0
  8  9  1  0
  4  1  1  0
  9  6  1  0
  6  3  1  0
  1 10  1  0
  1 11  1  0
  2 12  1  0
  2 13  1  0
  4 14  1  0
  4 15  1  0
  5 16  1  0
  5 17  1  0
  7 18  1  0
  7 19  1  0
  9 20  1  0
  9 21  1  0
M  END
