
     RDKit          3D

 23 24  0  0  0  0  0  0  0  0999 V2000
    3.4435    0.7051    0.1699 C   0  0  0  0  0  0  0  0  0  0  0  0
    3.1265   -0.7601    0.3888 C   0  0  0  0  0  0  0  0  0  0  0  0
    2.0616    0.2470    0.6582 C   0  0  0  0  0  0  0  0  0  0  0  0
    0.9722    0.3524   -0.3427 C   0  0  0  0  0  0  0  0  0  0  0  0
   -0.2666   -0.0663    0.1180 O   0  0  0  0  0  0  0  0  0  0  0  0
   -1.1559    0.0982   -0.9321 C   0  0  0  0  0  0  0  0  0  0  0  0
   -2.5562   -0.3074   -0.6120 C   0  0  0  0  0  0  0  0  0  0  0  0
   -3.1951    0.4603    0.5418 C   0  0  0  0  0  0  0  0  0  0  0  0
   -2.9213   -0.9990    0.6435 C   0  0  0  0  0  0  0  0  0  0  0  0
    4.1140    1.1890    0.8985 H   0  0  0  0  0  0  0  0  0  0  0  0
    3.5234    1.0857   -0.8601 H   0  0  0  0  0  0  0  0  0  0  0  0
    3.6733   -1.2531    1.2016 H   0  0  0  0  0  0  0  0  0  0  0  0
    3.0981   -1.3540   -0.5494 H   0  0  0  0  0  0  0  0  0  0  0  0
    1.8871    0.4482    1.7326 H   0  0  0  0  0  0  0  0  0  0  0  0
    1.2173   -0.2729   -1.2240 H   0  0  0  0  0  0  0  0  0  0  0  0
    0.8633    1.4090   -0.7247 H   0  0  0  0  0  0  0  0  0  0  0  0
   -0.8053   -0.5686   -1.7706 H   0  0  0  0  0  0  0  0  0  0  0  0
   -1.0998    1.1578   -1.2632 H   0  0  0  0  0  0  0  0  0  0  0  0
   -3.1871   -0.5000   -1.5123 H   0  0  0  0  0  0  0  0  0  0  0  0
   -2.5578    1.1058    1.1663 H   0  0  0  0  0  0  0  0  0  0  0  0
   -4.2192    0.8373    0.3125 H   0  0  0  0  0  0  0  0  0  0  0  0
   -3.8407   -1.6401    0.6015 H   0  0  0  0  0  0  0  0  0  0  0  0
   -2.1751   -1.3742    1.3579 H   0  0  0  0  0  0  0  0  0  0  0  0
  1  2  1  0
  2  3  1  0
  3  4  1  0
  4  5  1  0
  5  6  1  0
  6  7  1  0
  7  8  1  0
  8  9  1  0
  3  1  1  0
  9  7  1  0
  1 10  1  0
  1 11  1  0
  2 12  1  0
  2 13  1  0
  3 14  1  0
  4 15  1  0
  4 16  1  0
  6 17  1  0
  6 18  1  0
  7 19  1  0
  8 20  1  0
  8 21  1  0
  9 22  1  0
  9 23  1  0
M  END
