
     RDKit          3D

 17 18  0  0  0  0  0  0  0  0999 V2000
   -2.2045   -1.1260   -0.0083 C   0  0  0  0  0  0  0  0  0  0  0  0
   -1.6607   -1.0541   -1.3837 C   0  0  0  0  0  0  0  0  0  0  0  0
   -1.0804   -0.1263   -0.3822 C   0  0  0  0  0  0  0  0  0  0  0  0
    0.1437   -0.3561    0.1987 O   0  0  0  0  0  0  0  0  0  0  0  0
    0.8071    0.7615    0.6204 C   0  0  0  0  0  0  0  0  0  0  0  0
    1.7909    0.7396    1.7224 C   0  0  0  0  0  0  0  0  0  0  0  0
    2.3173    0.7406    0.3133 C   0  0  0  0  0  0  0  0  0  0  0  0
   -3.2137   -0.7111    0.1321 H   0  0  0  0  0  0  0  0  0  0  0  0
   -1.9289   -1.9661    0.6481 H   0  0  0  0  0  0  0  0  0  0  0  0
   -2.2236   -0.5770   -2.2061 H   0  0  0  0  0  0  0  0  0  0  0  0
   -1.0257   -1.9185   -1.7105 H   0  0  0  0  0  0  0  0  0  0  0  0
   -1.3701    0.9461   -0.4322 H   0  0  0  0  0  0  0  0  0  0  0  0
    0.2909    1.7320    0.4504 H   0  0  0  0  0  0  0  0  0  0  0  0
    1.8648   -0.1695    2.3423 H   0  0  0  0  0  0  0  0  0  0  0  0
    1.9894    1.6803    2.2706 H   0  0  0  0  0  0  0  0  0  0  0  0
    2.7582   -0.2374    0.0107 H   0  0  0  0  0  0  0  0  0  0  0  0
    2.7453    1.6421   -0.1271 H   0  0  0  0  0  0  0  0  0  0  0  0
  1  2  1  0
  2  3  1  0
  3  4  1  0
  4  5  1  0
  5  6  1  0
  6  7  1  0
  3  1  1  0
  7  5  1  0
  1  8  1  0
  1  9  1  0
  2 10  1  0
  2 11  1  0
  3 12  1  0
  5 13  1  0
  6 14  1  0
  6 15  1  0
  7 16  1  0
  7 17  1  0
M  END
