
     RDKit          3D

 17 20  0  0  0  0  0  0  0  0999 V2000
   -1.3411   -0.2053   -0.5467 C   0  0  0  0  0  0  0  0  0  0  0  0
   -0.5977   -1.3099    0.1578 C   0  0  0  0  0  0  0  0  0  0  0  0
    0.6647   -0.7189    0.7157 C   0  0  0  0  0  0  0  0  0  0  0  0
    0.6192   -0.0305    1.9185 O   0  0  0  0  0  0  0  0  0  0  0  0
    0.4028    0.7925    0.8115 C   0  0  0  0  0  0  0  0  0  0  0  0
   -1.0116    0.9930    0.3339 C   0  0  0  0  0  0  0  0  0  0  0  0
    1.4964    0.9588   -0.2105 C   0  0  0  0  0  0  0  0  0  0  0  0
    1.2932    0.2626   -1.4562 O   0  0  0  0  0  0  0  0  0  0  0  0
    1.7500   -0.3645   -0.2877 C   0  0  0  0  0  0  0  0  0  0  0  0
   -2.4386   -0.3659   -0.5630 H   0  0  0  0  0  0  0  0  0  0  0  0
   -1.0179   -0.0621   -1.5890 H   0  0  0  0  0  0  0  0  0  0  0  0
   -1.2295   -1.6186    1.0250 H   0  0  0  0  0  0  0  0  0  0  0  0
   -0.4027   -2.1863   -0.4795 H   0  0  0  0  0  0  0  0  0  0  0  0
   -1.7149    1.0297    1.1925 H   0  0  0  0  0  0  0  0  0  0  0  0
   -1.0908    1.9487   -0.2289 H   0  0  0  0  0  0  0  0  0  0  0  0
    2.0199    1.8943   -0.3499 H   0  0  0  0  0  0  0  0  0  0  0  0
    2.5984   -1.0178   -0.4437 H   0  0  0  0  0  0  0  0  0  0  0  0
  1  2  1  0
  2  3  1  0
  3  4  1  0
  4  5  1  0
  5  6  1  0
  5  7  1  0
  7  8  1  0
  8  9  1  0
  6  1  1  0
  9  7  1  0
  5  3  1  0
  9  3  1  0
  1 10  1  0
  1 11  1  0
  2 12  1  0
  2 13  1  0
  6 14  1  0
  6 15  1  0
  7 16  1  0
  9 17  1  0
M  END
