
     RDKit          3D

 17 18  0  0  0  0  0  0  0  0999 V2000
   -1.1075    0.6266    0.3312 C   0  0  0  0  0  0  0  0  0  0  0  0
   -1.0462   -0.7920   -0.0551 C   0  0  0  0  0  0  0  0  0  0  0  0
    0.3479   -1.4182    0.0003 C   0  0  0  0  0  0  0  0  0  0  0  0
    1.2605   -0.4730   -0.6529 C   0  0  0  0  0  0  0  0  0  0  0  0
    2.3165    0.2012   -0.2500 O   0  0  0  0  0  0  0  0  0  0  0  0
    1.2703    0.7120    0.3488 C   0  0  0  0  0  0  0  0  0  0  0  0
    0.0979    1.4709   -0.1067 C   0  0  0  0  0  0  0  0  0  0  0  0
   -2.0394    1.0675   -0.0149 H   0  0  0  0  0  0  0  0  0  0  0  0
   -1.0976    0.6971    1.4581 H   0  0  0  0  0  0  0  0  0  0  0  0
   -1.4406   -0.9236   -1.0686 H   0  0  0  0  0  0  0  0  0  0  0  0
   -1.6482   -1.3831    0.6960 H   0  0  0  0  0  0  0  0  0  0  0  0
    0.2987   -2.3629   -0.5763 H   0  0  0  0  0  0  0  0  0  0  0  0
    0.6416   -1.6655    1.0416 H   0  0  0  0  0  0  0  0  0  0  0  0
    0.9650   -0.2478   -1.7115 H   0  0  0  0  0  0  0  0  0  0  0  0
    1.2016    0.4465    1.4439 H   0  0  0  0  0  0  0  0  0  0  0  0
    0.0176    1.5777   -1.2123 H   0  0  0  0  0  0  0  0  0  0  0  0
   -0.0381    2.4665    0.3283 H   0  0  0  0  0  0  0  0  0  0  0  0
  1  2  1  0
  2  3  1  0
  3  4  1  0
  4  5  1  0
  5  6  1  0
  6  7  1  0
  7  1  1  0
  6  4  1  0
  1  8  1  0
  1  9  1  0
  2 10  1  0
  2 11  1  0
  3 12  1  0
  3 13  1  0
  4 14  1  0
  6 15  1  0
  7 16  1  0
  7 17  1  0
M  END
