
     RDKit          3D

 21 23  0  0  0  0  0  0  0  0999 V2000
    1.0444    1.1555   -0.3386 C   0  0  0  0  0  0  0  0  0  0  0  0
    1.7182   -0.1434    0.0853 C   0  0  0  0  0  0  0  0  0  0  0  0
    0.6696   -1.2214    0.1251 C   0  0  0  0  0  0  0  0  0  0  0  0
   -0.3559   -1.1872   -0.9672 C   0  0  0  0  0  0  0  0  0  0  0  0
   -1.3824   -0.5905   -0.0363 C   0  0  0  0  0  0  0  0  0  0  0  0
   -1.4474    0.9085   -0.1744 C   0  0  0  0  0  0  0  0  0  0  0  0
   -0.1673    1.3360    0.5260 C   0  0  0  0  0  0  0  0  0  0  0  0
   -0.1476    0.4880    1.6221 O   0  0  0  0  0  0  0  0  0  0  0  0
   -0.4027   -0.7702    1.1003 C   0  0  0  0  0  0  0  0  0  0  0  0
    0.8325    1.1828   -1.4207 H   0  0  0  0  0  0  0  0  0  0  0  0
    1.8144    1.9594   -0.1653 H   0  0  0  0  0  0  0  0  0  0  0  0
    2.5824   -0.3949   -0.5519 H   0  0  0  0  0  0  0  0  0  0  0  0
    2.0401    0.0249    1.1477 H   0  0  0  0  0  0  0  0  0  0  0  0
    1.0476   -2.2425    0.2725 H   0  0  0  0  0  0  0  0  0  0  0  0
   -0.1418   -0.5609   -1.8396 H   0  0  0  0  0  0  0  0  0  0  0  0
   -0.7116   -2.1960   -1.3004 H   0  0  0  0  0  0  0  0  0  0  0  0
   -2.3291   -1.1218    0.0617 H   0  0  0  0  0  0  0  0  0  0  0  0
   -2.3057    1.2785    0.4250 H   0  0  0  0  0  0  0  0  0  0  0  0
   -1.5021    1.2561   -1.2132 H   0  0  0  0  0  0  0  0  0  0  0  0
   -0.2187    2.3965    0.8218 H   0  0  0  0  0  0  0  0  0  0  0  0
   -0.6369   -1.5573    1.8200 H   0  0  0  0  0  0  0  0  0  0  0  0
  1  2  1  0
  2  3  1  0
  3  4  1  0
  4  5  1  0
  5  6  1  0
  6  7  1  0
  7  8  1  0
  8  9  1  0
  7  1  1  0
  9  3  1  0
  9  5  1  0
  1 10  1  0
  1 11  1  0
  2 12  1  0
  2 13  1  0
  3 14  1  0
  4 15  1  0
  4 16  1  0
  5 17  1  0
  6 18  1  0
  6 19  1  0
  7 20  1  0
  9 21  1  0
M  END
