
     RDKit          3D

 21 23  0  0  0  0  0  0  0  0999 V2000
    1.2045    1.1527    0.0575 C   0  0  0  0  0  0  0  0  0  0  0  0
    1.6896   -0.2237    0.4015 C   0  0  0  0  0  0  0  0  0  0  0  0
    0.9758   -1.1218   -0.5629 C   0  0  0  0  0  0  0  0  0  0  0  0
    0.1424   -2.0199    0.1068 O   0  0  0  0  0  0  0  0  0  0  0  0
   -0.9510   -1.2407   -0.2134 C   0  0  0  0  0  0  0  0  0  0  0  0
   -1.3992   -0.4047    0.9556 C   0  0  0  0  0  0  0  0  0  0  0  0
   -1.2731    1.0006    0.4431 C   0  0  0  0  0  0  0  0  0  0  0  0
   -0.1563    1.0218   -0.5566 C   0  0  0  0  0  0  0  0  0  0  0  0
   -0.1702   -0.3580   -1.1324 C   0  0  0  0  0  0  0  0  0  0  0  0
    1.2398    1.8370    0.9152 H   0  0  0  0  0  0  0  0  0  0  0  0
    1.8820    1.5638   -0.7359 H   0  0  0  0  0  0  0  0  0  0  0  0
    1.5552   -0.4972    1.4580 H   0  0  0  0  0  0  0  0  0  0  0  0
    2.7897   -0.3389    0.1930 H   0  0  0  0  0  0  0  0  0  0  0  0
    1.6163   -1.6796   -1.2652 H   0  0  0  0  0  0  0  0  0  0  0  0
   -1.7377   -1.8368   -0.7097 H   0  0  0  0  0  0  0  0  0  0  0  0
   -2.4757   -0.6695    1.1370 H   0  0  0  0  0  0  0  0  0  0  0  0
   -0.8102   -0.5657    1.8673 H   0  0  0  0  0  0  0  0  0  0  0  0
   -1.1724    1.7419    1.2476 H   0  0  0  0  0  0  0  0  0  0  0  0
   -2.2143    1.2604   -0.1084 H   0  0  0  0  0  0  0  0  0  0  0  0
   -0.3699    1.8218   -1.2928 H   0  0  0  0  0  0  0  0  0  0  0  0
   -0.3654   -0.4433   -2.2053 H   0  0  0  0  0  0  0  0  0  0  0  0
  1  2  1  0
  2  3  1  0
  3  4  1  0
  4  5  1  0
  5  6  1  0
  6  7  1  0
  7  8  1  0
  8  9  1  0
  8  1  1  0
  9  3  1  0
  9  5  1  0
  1 10  1  0
  1 11  1  0
  2 12  1  0
  2 13  1  0
  3 14  1  0
  5 15  1  0
  6 16  1  0
  6 17  1  0
  7 18  1  0
  7 19  1  0
  8 20  1  0
  9 21  1  0
M  END
