
     RDKit          2D

 17 20  0  0  0  0  0  0  0  0999 V2000
   -3.8951    0.7595    0.0000 C   0  0  0  0  0  0  0  0  0  0  0  0
   -3.2141   -0.5770    0.0000 C   0  0  0  0  0  0  0  0  0  0  0  0
   -2.3972    0.6810    0.0000 C   0  0  0  0  0  0  0  0  0  0  0  0
   -2.1625    2.1625    0.0000 O   0  0  0  0  0  0  0  0  0  0  0  0
   -0.6810    2.3972    0.0000 C   0  0  0  0  0  0  0  0  0  0  0  0
   -0.0000   -1.0607    0.0000 C   0  0  0  0  0  0  0  0  0  0  0  0
    1.0607    0.0000    0.0000 O   0  0  0  0  0  0  0  0  0  0  0  0
    0.0000    1.0607    0.0000 C   0  0  0  0  0  0  0  0  0  0  0  0
   -1.0607    0.0000    0.0000 C   0  0  0  0  0  0  0  0  0  0  0  0
   -5.3296    0.3209    0.0000 H   0  0  0  0  0  0  0  0  0  0  0  0
   -4.0779    2.2483    0.0000 H   0  0  0  0  0  0  0  0  0  0  0  0
   -2.5113   -1.4147    0.0000 H   0  0  0  0  0  0  0  0  0  0  0  0
   -4.4121   -1.4797    0.0000 H   0  0  0  0  0  0  0  0  0  0  0  0
    0.0000    3.7337    0.0000 H   0  0  0  0  0  0  0  0  0  0  0  0
   -0.0000   -2.5607    0.0000 H   0  0  0  0  0  0  0  0  0  0  0  0
    1.2135    1.9423    0.0000 H   0  0  0  0  0  0  0  0  0  0  0  0
   -1.5908   -0.9564    0.0000 H   0  0  0  0  0  0  0  0  0  0  0  0
  1  2  1  0
  2  3  1  0
  3  4  1  0
  4  5  1  0
  5  6  1  0
  6  7  1  0
  7  8  1  0
  8  9  1  0
  3  1  1  0
  8  5  1  0
  9  3  1  0
  9  6  1  0
  1 10  1  0
  1 11  1  0
  2 12  1  0
  2 13  1  0
  5 14  1  0
  6 15  1  0
  8 16  1  0
  9 17  1  0
M  END
