
     RDKit          2D

 16 19  0  0  0  0  0  0  0  0999 V2000
   -1.8107   -3.4204    0.0000 C   0  0  0  0  0  0  0  0  0  0  0  0
   -0.3107   -3.4204    0.0000 C   0  0  0  0  0  0  0  0  0  0  0  0
   -1.0607   -2.1213    0.0000 C   0  0  0  0  0  0  0  0  0  0  0  0
   -0.0000   -1.0607    0.0000 C   0  0  0  0  0  0  0  0  0  0  0  0
    1.0607    0.0000    0.0000 O   0  0  0  0  0  0  0  0  0  0  0  0
    0.0000    1.0607    0.0000 C   0  0  0  0  0  0  0  0  0  0  0  0
   -1.0607    0.0000    0.0000 C   0  0  0  0  0  0  0  0  0  0  0  0
   -2.1213   -1.0607    0.0000 C   0  0  0  0  0  0  0  0  0  0  0  0
   -2.0711   -4.8976    0.0000 H   0  0  0  0  0  0  0  0  0  0  0  0
   -3.2202   -2.9073    0.0000 H   0  0  0  0  0  0  0  0  0  0  0  0
    1.1509   -3.0830    0.0000 H   0  0  0  0  0  0  0  0  0  0  0  0
   -0.0502   -4.8976    0.0000 H   0  0  0  0  0  0  0  0  0  0  0  0
    1.1820   -1.9841    0.0000 H   0  0  0  0  0  0  0  0  0  0  0  0
    0.0000    2.5607    0.0000 H   0  0  0  0  0  0  0  0  0  0  0  0
   -2.1213    1.0607    0.0000 H   0  0  0  0  0  0  0  0  0  0  0  0
   -3.6213   -1.0607    0.0000 H   0  0  0  0  0  0  0  0  0  0  0  0
  1  2  1  0
  2  3  1  0
  3  4  1  0
  4  5  1  0
  5  6  1  0
  6  7  1  0
  7  8  1  0
  3  1  1  0
  7  4  1  0
  8  3  1  0
  8  6  1  0
  1  9  1  0
  1 10  1  0
  2 11  1  0
  2 12  1  0
  4 13  1  0
  6 14  1  0
  7 15  1  0
  8 16  1  0
M  END
