
     RDKit          3D

 19 21  0  0  0  0  0  0  0  0999 V2000
   -1.6357    0.3761   -0.2427 C   0  0  0  0  0  0  0  0  0  0  0  0
   -1.0925   -1.0251   -0.3143 C   0  0  0  0  0  0  0  0  0  0  0  0
    0.1431   -1.2200    0.5086 C   0  0  0  0  0  0  0  0  0  0  0  0
    0.1474   -0.2141    1.4914 O   0  0  0  0  0  0  0  0  0  0  0  0
    0.5793    0.9328    0.8026 C   0  0  0  0  0  0  0  0  0  0  0  0
   -0.5113    1.3888   -0.1575 C   0  0  0  0  0  0  0  0  0  0  0  0
    1.7701    0.3978    0.0232 C   0  0  0  0  0  0  0  0  0  0  0  0
    1.4025   -0.0208   -1.2975 O   0  0  0  0  0  0  0  0  0  0  0  0
    1.4195   -0.9698   -0.2778 C   0  0  0  0  0  0  0  0  0  0  0  0
   -2.2523    0.5044    0.6566 H   0  0  0  0  0  0  0  0  0  0  0  0
   -2.1782    0.5811   -1.1835 H   0  0  0  0  0  0  0  0  0  0  0  0
   -0.9069   -1.3743   -1.3486 H   0  0  0  0  0  0  0  0  0  0  0  0
   -1.8847   -1.6939    0.1124 H   0  0  0  0  0  0  0  0  0  0  0  0
    0.2024   -2.2001    1.0000 H   0  0  0  0  0  0  0  0  0  0  0  0
    0.8571    1.7201    1.5158 H   0  0  0  0  0  0  0  0  0  0  0  0
   -0.8691    2.3657    0.1964 H   0  0  0  0  0  0  0  0  0  0  0  0
   -0.0689    1.4357   -1.1885 H   0  0  0  0  0  0  0  0  0  0  0  0
    2.7612    0.8131    0.1682 H   0  0  0  0  0  0  0  0  0  0  0  0
    2.1170   -1.7973   -0.4646 H   0  0  0  0  0  0  0  0  0  0  0  0
  1  2  1  0
  2  3  1  0
  3  4  1  0
  4  5  1  0
  5  6  1  0
  5  7  1  0
  7  8  1  0
  8  9  1  0
  6  1  1  0
  9  7  1  0
  9  3  1  0
  1 10  1  0
  1 11  1  0
  2 12  1  0
  2 13  1  0
  3 14  1  0
  5 15  1  0
  6 16  1  0
  6 17  1  0
  7 18  1  0
  9 19  1  0
M  END
