
     RDKit          3D

 21 23  0  0  0  0  0  0  0  0999 V2000
   -2.2287   -0.0537   -0.0108 C   0  0  0  0  0  0  0  0  0  0  0  0
   -1.2951   -0.7025   -1.0210 C   0  0  0  0  0  0  0  0  0  0  0  0
   -0.2401   -0.7295    0.0476 C   0  0  0  0  0  0  0  0  0  0  0  0
   -1.0382    0.3268    0.8252 C   0  0  0  0  0  0  0  0  0  0  0  0
   -0.4117    1.6274    0.4081 C   0  0  0  0  0  0  0  0  0  0  0  0
    0.6543    1.3554   -0.4072 O   0  0  0  0  0  0  0  0  0  0  0  0
    1.0132    0.0336   -0.2354 C   0  0  0  0  0  0  0  0  0  0  0  0
    2.1622   -0.3100    0.7023 C   0  0  0  0  0  0  0  0  0  0  0  0
    2.2371   -0.5510   -0.7478 C   0  0  0  0  0  0  0  0  0  0  0  0
   -2.7884    0.7661   -0.4753 H   0  0  0  0  0  0  0  0  0  0  0  0
   -2.8222   -0.8284    0.5180 H   0  0  0  0  0  0  0  0  0  0  0  0
   -1.0367   -0.0690   -1.8910 H   0  0  0  0  0  0  0  0  0  0  0  0
   -1.5983   -1.7246   -1.3396 H   0  0  0  0  0  0  0  0  0  0  0  0
   -0.1084   -1.6799    0.5762 H   0  0  0  0  0  0  0  0  0  0  0  0
   -1.1109    0.1487    1.8986 H   0  0  0  0  0  0  0  0  0  0  0  0
   -1.1438    2.2485   -0.1753 H   0  0  0  0  0  0  0  0  0  0  0  0
   -0.1002    2.2638    1.2567 H   0  0  0  0  0  0  0  0  0  0  0  0
    2.5813    0.5596    1.2077 H   0  0  0  0  0  0  0  0  0  0  0  0
    2.0680   -1.2347    1.3313 H   0  0  0  0  0  0  0  0  0  0  0  0
    2.9093    0.1390   -1.3383 H   0  0  0  0  0  0  0  0  0  0  0  0
    2.2972   -1.5857   -1.1299 H   0  0  0  0  0  0  0  0  0  0  0  0
  1  2  1  0
  2  3  1  0
  3  4  1  0
  4  5  1  0
  5  6  1  0
  6  7  1  0
  7  8  1  0
  8  9  1  0
  4  1  1  0
  9  7  1  0
  7  3  1  0
  1 10  1  0
  1 11  1  0
  2 12  1  0
  2 13  1  0
  3 14  1  0
  4 15  1  0
  5 16  1  0
  5 17  1  0
  8 18  1  0
  8 19  1  0
  9 20  1  0
  9 21  1  0
M  END
