
     RDKit          3D

 17 18  0  0  0  0  0  0  0  0999 V2000
    2.7004   -0.4967    0.2372 C   0  0  0  0  0  0  0  0  0  0  0  0
    2.1807    0.6797   -0.2772 C   0  0  0  0  0  0  0  0  0  0  0  0
    0.8279    0.6582   -0.0728 C   0  0  0  0  0  0  0  0  0  0  0  0
    0.5719   -0.5529    0.5700 C   0  0  0  0  0  0  0  0  0  0  0  0
    1.7005   -1.2048    0.7348 O   0  0  0  0  0  0  0  0  0  0  0  0
   -0.8553   -0.8099    0.9029 C   0  0  0  0  0  0  0  0  0  0  0  0
   -1.6527   -0.4709   -0.3524 C   0  0  0  0  0  0  0  0  0  0  0  0
   -1.5511    1.0152   -0.6102 C   0  0  0  0  0  0  0  0  0  0  0  0
   -0.2564    1.4847   -0.3312 O   0  0  0  0  0  0  0  0  0  0  0  0
    3.7340   -0.8173    0.2497 H   0  0  0  0  0  0  0  0  0  0  0  0
    2.7211    1.4862   -0.7581 H   0  0  0  0  0  0  0  0  0  0  0  0
   -1.1467   -0.0515    1.6590 H   0  0  0  0  0  0  0  0  0  0  0  0
   -1.0199   -1.8404    1.2294 H   0  0  0  0  0  0  0  0  0  0  0  0
   -1.1070   -0.9736   -1.1970 H   0  0  0  0  0  0  0  0  0  0  0  0
   -2.6925   -0.8119   -0.2864 H   0  0  0  0  0  0  0  0  0  0  0  0
   -1.8127    1.1842   -1.6778 H   0  0  0  0  0  0  0  0  0  0  0  0
   -2.3421    1.5217   -0.0200 H   0  0  0  0  0  0  0  0  0  0  0  0
  1  2  2  0
  2  3  1  0
  3  4  2  0
  4  5  1  0
  4  6  1  0
  6  7  1  0
  7  8  1  0
  8  9  1  0
  5  1  1  0
  9  3  1  0
  1 10  1  0
  2 11  1  0
  6 12  1  0
  6 13  1  0
  7 14  1  0
  7 15  1  0
  8 16  1  0
  8 17  1  0
M  END
