
     RDKit          3D

 17 21  0  0  0  0  0  0  0  0999 V2000
    1.8566    0.8193   -0.0990 C   0  0  0  0  0  0  0  0  0  0  0  0
    1.3774   -0.4591    0.6090 C   0  0  0  0  0  0  0  0  0  0  0  0
    0.0070   -0.5214    0.3785 C   0  0  0  0  0  0  0  0  0  0  0  0
   -1.2297   -0.1800    0.9272 C   0  0  0  0  0  0  0  0  0  0  0  0
   -1.0153   -1.2608   -0.1933 C   0  0  0  0  0  0  0  0  0  0  0  0
   -1.3141   -0.1904   -1.1778 C   0  0  0  0  0  0  0  0  0  0  0  0
   -1.5057    0.7965   -0.1377 C   0  0  0  0  0  0  0  0  0  0  0  0
   -0.2293    0.5503   -0.7101 C   0  0  0  0  0  0  0  0  0  0  0  0
    0.8444    1.1610   -0.9960 O   0  0  0  0  0  0  0  0  0  0  0  0
    2.8216    0.6673   -0.6039 H   0  0  0  0  0  0  0  0  0  0  0  0
    1.9705    1.5999    0.6963 H   0  0  0  0  0  0  0  0  0  0  0  0
    1.9613   -1.2865    0.1183 H   0  0  0  0  0  0  0  0  0  0  0  0
    1.7665   -0.4371    1.6666 H   0  0  0  0  0  0  0  0  0  0  0  0
   -1.8168   -0.4400    1.7621 H   0  0  0  0  0  0  0  0  0  0  0  0
   -1.5466   -2.1544   -0.0302 H   0  0  0  0  0  0  0  0  0  0  0  0
   -1.8125   -0.3091   -2.1049 H   0  0  0  0  0  0  0  0  0  0  0  0
   -2.1355    1.6444   -0.1052 H   0  0  0  0  0  0  0  0  0  0  0  0
  1  2  1  0
  2  3  1  0
  3  4  1  0
  4  5  1  0
  5  6  1  0
  6  7  1  0
  7  8  1  0
  8  9  1  0
  9  1  1  0
  5  3  1  0
  8  6  1  0
  8  3  1  0
  7  4  1  0
  1 10  1  0
  1 11  1  0
  2 12  1  0
  2 13  1  0
  4 14  1  0
  5 15  1  0
  6 16  1  0
  7 17  1  0
M  END
