
     RDKit          3D

 21 22  0  0  0  0  0  0  0  0999 V2000
    1.5160    0.6391    0.6237 C   0  0  0  0  0  0  0  0  0  0  0  0
    1.7057   -0.7210   -0.0448 C   0  0  0  0  0  0  0  0  0  0  0  0
    0.3810   -1.4394    0.1420 C   0  0  0  0  0  0  0  0  0  0  0  0
   -0.6094   -0.7815   -0.7569 C   0  0  0  0  0  0  0  0  0  0  0  0
   -1.8922   -1.1203   -0.2897 O   0  0  0  0  0  0  0  0  0  0  0  0
   -2.2869    0.0796    0.2922 C   0  0  0  0  0  0  0  0  0  0  0  0
   -1.8809    1.0732   -0.6271 O   0  0  0  0  0  0  0  0  0  0  0  0
   -0.5349    0.6859   -0.8370 C   0  0  0  0  0  0  0  0  0  0  0  0
    0.3465    1.3873    0.1071 C   0  0  0  0  0  0  0  0  0  0  0  0
    2.4877    1.1658    0.5115 H   0  0  0  0  0  0  0  0  0  0  0  0
    1.3606    0.3980    1.7165 H   0  0  0  0  0  0  0  0  0  0  0  0
    2.4947   -1.2450    0.5004 H   0  0  0  0  0  0  0  0  0  0  0  0
    1.9594   -0.6255   -1.1126 H   0  0  0  0  0  0  0  0  0  0  0  0
    0.0521   -1.2303    1.2021 H   0  0  0  0  0  0  0  0  0  0  0  0
    0.4360   -2.5115   -0.0322 H   0  0  0  0  0  0  0  0  0  0  0  0
   -0.5470   -1.2014   -1.7944 H   0  0  0  0  0  0  0  0  0  0  0  0
   -1.7783    0.2566    1.2702 H   0  0  0  0  0  0  0  0  0  0  0  0
   -3.3746    0.0435    0.4118 H   0  0  0  0  0  0  0  0  0  0  0  0
   -0.3142    1.0396   -1.8870 H   0  0  0  0  0  0  0  0  0  0  0  0
    0.7425    2.3323   -0.3718 H   0  0  0  0  0  0  0  0  0  0  0  0
   -0.2639    1.7750    0.9760 H   0  0  0  0  0  0  0  0  0  0  0  0
  1  2  1  0
  2  3  1  0
  3  4  1  0
  4  5  1  0
  5  6  1  0
  6  7  1  0
  7  8  1  0
  8  9  1  0
  9  1  1  0
  8  4  1  0
  1 10  1  0
  1 11  1  0
  2 12  1  0
  2 13  1  0
  3 14  1  0
  3 15  1  0
  4 16  1  0
  6 17  1  0
  6 18  1  0
  8 19  1  0
  9 20  1  0
  9 21  1  0
M  END
