
     RDKit          3D

 21 22  0  0  0  0  0  0  0  0999 V2000
    1.3727    1.1755   -0.3845 C   0  0  0  0  0  0  0  0  0  0  0  0
   -0.0314    1.7087   -0.0576 C   0  0  0  0  0  0  0  0  0  0  0  0
   -0.7255    0.5926    0.6390 C   0  0  0  0  0  0  0  0  0  0  0  0
   -2.1265    0.2274    0.4604 C   0  0  0  0  0  0  0  0  0  0  0  0
   -1.1535   -0.3917   -0.4613 C   0  0  0  0  0  0  0  0  0  0  0  0
   -0.4776   -1.6878   -0.1794 C   0  0  0  0  0  0  0  0  0  0  0  0
    0.4794   -1.5721    0.8556 O   0  0  0  0  0  0  0  0  0  0  0  0
    1.6651   -1.0070    0.3311 C   0  0  0  0  0  0  0  0  0  0  0  0
    1.7848    0.3259    0.6560 O   0  0  0  0  0  0  0  0  0  0  0  0
    1.2850    0.5359   -1.2833 H   0  0  0  0  0  0  0  0  0  0  0  0
    2.0467    2.0165   -0.5291 H   0  0  0  0  0  0  0  0  0  0  0  0
   -0.5330    1.9418   -1.0425 H   0  0  0  0  0  0  0  0  0  0  0  0
    0.0354    2.5983    0.5894 H   0  0  0  0  0  0  0  0  0  0  0  0
   -0.1783    0.1842    1.5132 H   0  0  0  0  0  0  0  0  0  0  0  0
   -2.8144    0.9861    0.0564 H   0  0  0  0  0  0  0  0  0  0  0  0
   -2.5923   -0.3634    1.2887 H   0  0  0  0  0  0  0  0  0  0  0  0
   -1.1730   -0.0450   -1.4998 H   0  0  0  0  0  0  0  0  0  0  0  0
   -1.1736   -2.5239    0.0564 H   0  0  0  0  0  0  0  0  0  0  0  0
    0.1030   -1.9967   -1.0747 H   0  0  0  0  0  0  0  0  0  0  0  0
    1.6876   -1.1663   -0.7483 H   0  0  0  0  0  0  0  0  0  0  0  0
    2.5194   -1.5392    0.8144 H   0  0  0  0  0  0  0  0  0  0  0  0
  1  2  1  0
  2  3  1  0
  3  4  1  0
  4  5  1  0
  5  6  1  0
  6  7  1  0
  7  8  1  0
  8  9  1  0
  9  1  1  0
  5  3  1  0
  1 10  1  0
  1 11  1  0
  2 12  1  0
  2 13  1  0
  3 14  1  0
  4 15  1  0
  4 16  1  0
  5 17  1  0
  6 18  1  0
  6 19  1  0
  8 20  1  0
  8 21  1  0
M  END
