
     RDKit          3D

 20 22  0  0  0  0  0  0  0  0999 V2000
    2.0452   -0.4086   -1.0471 C   0  0  0  0  0  0  0  0  0  0  0  0
    2.5349    0.4685    0.0554 C   0  0  0  0  0  0  0  0  0  0  0  0
    1.0751    0.5849   -0.4049 C   0  0  0  0  0  0  0  0  0  0  0  0
    0.0079   -0.0768    0.4098 C   0  0  0  0  0  0  0  0  0  0  0  0
   -0.9826    0.8294    1.0723 C   0  0  0  0  0  0  0  0  0  0  0  0
   -2.0171   -0.2350    0.7457 C   0  0  0  0  0  0  0  0  0  0  0  0
   -2.3591   -0.2934   -0.6891 C   0  0  0  0  0  0  0  0  0  0  0  0
   -1.0439   -0.8299   -0.3058 C   0  0  0  0  0  0  0  0  0  0  0  0
    1.9388   -1.4734   -0.8363 H   0  0  0  0  0  0  0  0  0  0  0  0
    2.4047   -0.1748   -2.0745 H   0  0  0  0  0  0  0  0  0  0  0  0
    3.2256    1.2955   -0.2184 H   0  0  0  0  0  0  0  0  0  0  0  0
    2.7359   -0.0110    1.0239 H   0  0  0  0  0  0  0  0  0  0  0  0
    0.8471    1.4699   -1.0253 H   0  0  0  0  0  0  0  0  0  0  0  0
    0.5035   -0.7138    1.1982 H   0  0  0  0  0  0  0  0  0  0  0  0
   -1.1960    1.7614    0.4706 H   0  0  0  0  0  0  0  0  0  0  0  0
   -0.8202    1.0074    2.1345 H   0  0  0  0  0  0  0  0  0  0  0  0
   -2.3318   -0.9549    1.4876 H   0  0  0  0  0  0  0  0  0  0  0  0
   -2.4841    0.6900   -1.1910 H   0  0  0  0  0  0  0  0  0  0  0  0
   -3.1573   -1.0183   -0.9440 H   0  0  0  0  0  0  0  0  0  0  0  0
   -0.9266   -1.9172   -0.3319 H   0  0  0  0  0  0  0  0  0  0  0  0
  1  2  1  0
  2  3  1  0
  3  4  1  0
  4  5  1  0
  5  6  1  0
  6  7  1  0
  7  8  1  0
  3  1  1  0
  8  4  1  0
  8  6  1  0
  1  9  1  0
  1 10  1  0
  2 11  1  0
  2 12  1  0
  3 13  1  0
  4 14  1  0
  5 15  1  0
  5 16  1  0
  6 17  1  0
  7 18  1  0
  7 19  1  0
  8 20  1  0
M  END
