
     RDKit          3D

 19 21  0  0  0  0  0  0  0  0999 V2000
   -1.4583    1.1701    0.1069 C   0  0  0  0  0  0  0  0  0  0  0  0
   -0.0129    1.2218    0.4336 C   0  0  0  0  0  0  0  0  0  0  0  0
    0.6438   -0.1020    0.4328 C   0  0  0  0  0  0  0  0  0  0  0  0
    2.0729   -0.3279    0.6643 C   0  0  0  0  0  0  0  0  0  0  0  0
    1.6400   -0.2986   -0.7343 C   0  0  0  0  0  0  0  0  0  0  0  0
    0.7116   -1.1347   -1.2827 O   0  0  0  0  0  0  0  0  0  0  0  0
   -0.1124   -1.2249   -0.1550 C   0  0  0  0  0  0  0  0  0  0  0  0
   -1.5598   -1.0108   -0.3698 C   0  0  0  0  0  0  0  0  0  0  0  0
   -2.0358   -0.0119    0.4982 O   0  0  0  0  0  0  0  0  0  0  0  0
   -1.5884    1.2674   -1.0060 H   0  0  0  0  0  0  0  0  0  0  0  0
   -1.9878    2.0161    0.5790 H   0  0  0  0  0  0  0  0  0  0  0  0
    0.4712    1.9461   -0.2865 H   0  0  0  0  0  0  0  0  0  0  0  0
    0.1149    1.7209    1.4351 H   0  0  0  0  0  0  0  0  0  0  0  0
    2.6718    0.5025    1.0308 H   0  0  0  0  0  0  0  0  0  0  0  0
    2.3362   -1.3418    1.0783 H   0  0  0  0  0  0  0  0  0  0  0  0
    1.9071    0.5765   -1.3342 H   0  0  0  0  0  0  0  0  0  0  0  0
    0.1532   -2.1898    0.3720 H   0  0  0  0  0  0  0  0  0  0  0  0
   -2.0981   -1.9481   -0.0528 H   0  0  0  0  0  0  0  0  0  0  0  0
   -1.8693   -0.8308   -1.4099 H   0  0  0  0  0  0  0  0  0  0  0  0
  1  2  1  0
  2  3  1  0
  3  4  1  0
  4  5  1  0
  5  6  1  0
  6  7  1  0
  7  8  1  0
  8  9  1  0
  9  1  1  0
  5  3  1  0
  7  3  1  0
  1 10  1  0
  1 11  1  0
  2 12  1  0
  2 13  1  0
  4 14  1  0
  4 15  1  0
  5 16  1  0
  7 17  1  0
  8 18  1  0
  8 19  1  0
M  END
