
     RDKit          3D

 19 21  0  0  0  0  0  0  0  0999 V2000
    2.0869   -0.3251   -0.2441 C   0  0  0  0  0  0  0  0  0  0  0  0
    1.1572    0.0898    0.9158 C   0  0  0  0  0  0  0  0  0  0  0  0
   -0.0922    0.1183    0.3072 C   0  0  0  0  0  0  0  0  0  0  0  0
   -1.1165   -0.9993    0.4446 C   0  0  0  0  0  0  0  0  0  0  0  0
   -1.8356   -0.0685   -0.5494 C   0  0  0  0  0  0  0  0  0  0  0  0
   -1.2041    1.0327    0.3235 C   0  0  0  0  0  0  0  0  0  0  0  0
   -1.0314   -0.2146   -1.6516 O   0  0  0  0  0  0  0  0  0  0  0  0
    0.2184    0.1488   -1.2071 C   0  0  0  0  0  0  0  0  0  0  0  0
    1.2027   -0.7778   -1.2603 O   0  0  0  0  0  0  0  0  0  0  0  0
    2.5725    0.5801   -0.6812 H   0  0  0  0  0  0  0  0  0  0  0  0
    2.7958   -1.0966    0.0565 H   0  0  0  0  0  0  0  0  0  0  0  0
    1.2701   -0.7268    1.6721 H   0  0  0  0  0  0  0  0  0  0  0  0
    1.5360    1.0054    1.4116 H   0  0  0  0  0  0  0  0  0  0  0  0
   -1.5629   -0.9503    1.4475 H   0  0  0  0  0  0  0  0  0  0  0  0
   -0.8322   -1.9651    0.0453 H   0  0  0  0  0  0  0  0  0  0  0  0
   -2.8864   -0.1180   -0.5979 H   0  0  0  0  0  0  0  0  0  0  0  0
   -1.7509    1.1128    1.2618 H   0  0  0  0  0  0  0  0  0  0  0  0
   -1.0282    1.9789   -0.2232 H   0  0  0  0  0  0  0  0  0  0  0  0
    0.5008    1.1754   -1.4711 H   0  0  0  0  0  0  0  0  0  0  0  0
  1  2  1  0
  2  3  1  0
  3  4  1  0
  4  5  1  0
  5  6  1  0
  5  7  1  0
  7  8  1  0
  8  9  1  0
  9  1  1  0
  6  3  1  0
  8  3  1  0
  1 10  1  0
  1 11  1  0
  2 12  1  0
  2 13  1  0
  4 14  1  0
  4 15  1  0
  5 16  1  0
  6 17  1  0
  6 18  1  0
  8 19  1  0
M  END
