
     RDKit          3D

 16 18  0  0  0  0  0  0  0  0999 V2000
   -1.3847    0.8837    0.0107 C   0  0  0  0  0  0  0  0  0  0  0  0
   -1.2518   -0.5962    0.1512 C   0  0  0  0  0  0  0  0  0  0  0  0
    0.1258   -0.8764   -0.3287 C   0  0  0  0  0  0  0  0  0  0  0  0
    0.5682    0.4132   -0.9808 C   0  0  0  0  0  0  0  0  0  0  0  0
   -0.3644    1.3706   -0.7373 O   0  0  0  0  0  0  0  0  0  0  0  0
    1.6584    0.4531    0.1051 C   0  0  0  0  0  0  0  0  0  0  0  0
    1.1088    0.6380    1.3669 O   0  0  0  0  0  0  0  0  0  0  0  0
    1.2205   -0.6739    0.6777 C   0  0  0  0  0  0  0  0  0  0  0  0
   -1.3400    1.3176    1.0475 H   0  0  0  0  0  0  0  0  0  0  0  0
   -2.4019    1.1039   -0.3681 H   0  0  0  0  0  0  0  0  0  0  0  0
   -1.9731   -1.1741   -0.4637 H   0  0  0  0  0  0  0  0  0  0  0  0
   -1.3387   -0.9307    1.2181 H   0  0  0  0  0  0  0  0  0  0  0  0
    0.3003   -1.7564   -0.9305 H   0  0  0  0  0  0  0  0  0  0  0  0
    0.9706    0.3338   -1.9930 H   0  0  0  0  0  0  0  0  0  0  0  0
    2.6022    0.9037   -0.1826 H   0  0  0  0  0  0  0  0  0  0  0  0
    1.4998   -1.4097    1.4076 H   0  0  0  0  0  0  0  0  0  0  0  0
  1  2  1  0
  2  3  1  0
  3  4  1  0
  4  5  1  0
  4  6  1  0
  6  7  1  0
  7  8  1  0
  5  1  1  0
  8  6  1  0
  8  3  1  0
  1  9  1  0
  1 10  1  0
  2 11  1  0
  2 12  1  0
  3 13  1  0
  4 14  1  0
  6 15  1  0
  8 16  1  0
M  END
