
     RDKit          3D

 18 20  0  0  0  0  0  0  0  0999 V2000
    1.5378   -0.0693    0.0531 C   0  0  0  0  0  0  0  0  0  0  0  0
    0.7603   -1.2630   -0.4315 C   0  0  0  0  0  0  0  0  0  0  0  0
   -0.7081   -1.1776   -0.1243 C   0  0  0  0  0  0  0  0  0  0  0  0
   -1.4629   -0.4758   -1.0806 O   0  0  0  0  0  0  0  0  0  0  0  0
   -1.6638    0.5721   -0.2125 C   0  0  0  0  0  0  0  0  0  0  0  0
   -0.5085    1.1923    0.4965 C   0  0  0  0  0  0  0  0  0  0  0  0
    0.7890    1.1852   -0.2881 C   0  0  0  0  0  0  0  0  0  0  0  0
   -0.9769   -0.1360    0.9011 C   0  0  0  0  0  0  0  0  0  0  0  0
    1.7027   -0.0822    1.1468 H   0  0  0  0  0  0  0  0  0  0  0  0
    2.5078   -0.0294   -0.4980 H   0  0  0  0  0  0  0  0  0  0  0  0
    1.1890   -2.1557    0.0602 H   0  0  0  0  0  0  0  0  0  0  0  0
    0.8694   -1.3586   -1.5227 H   0  0  0  0  0  0  0  0  0  0  0  0
   -1.1516   -2.1752    0.0461 H   0  0  0  0  0  0  0  0  0  0  0  0
   -2.6497    1.0402   -0.0962 H   0  0  0  0  0  0  0  0  0  0  0  0
   -0.7335    2.0308    1.1699 H   0  0  0  0  0  0  0  0  0  0  0  0
    0.5930    1.1756   -1.3783 H   0  0  0  0  0  0  0  0  0  0  0  0
    1.4020    2.0789   -0.0844 H   0  0  0  0  0  0  0  0  0  0  0  0
   -1.4959   -0.3522    1.8432 H   0  0  0  0  0  0  0  0  0  0  0  0
  1  2  1  0
  2  3  1  0
  3  4  1  0
  4  5  1  0
  5  6  1  0
  6  7  1  0
  6  8  1  0
  7  1  1  0
  8  3  1  0
  8  5  1  0
  1  9  1  0
  1 10  1  0
  2 11  1  0
  2 12  1  0
  3 13  1  0
  5 14  1  0
  6 15  1  0
  7 16  1  0
  7 17  1  0
  8 18  1  0
M  END
