
     RDKit          3D

 23 24  0  0  0  0  0  0  0  0999 V2000
    3.4110    0.3513   -0.5023 C   0  0  0  0  0  0  0  0  0  0  0  0
    2.6504   -0.9231   -0.2163 C   0  0  0  0  0  0  0  0  0  0  0  0
    1.5031    0.0448   -0.4531 C   0  0  0  0  0  0  0  0  0  0  0  0
    0.3152   -0.3141    0.4480 C   0  0  0  0  0  0  0  0  0  0  0  0
   -0.7635    0.7011    0.1369 C   0  0  0  0  0  0  0  0  0  0  0  0
   -2.0044    0.4973    0.9335 C   0  0  0  0  0  0  0  0  0  0  0  0
   -2.7882   -0.7582    0.8614 C   0  0  0  0  0  0  0  0  0  0  0  0
   -3.2852    0.4293    0.1076 C   0  0  0  0  0  0  0  0  0  0  0  0
    2.3033    1.0565    0.0197 O   0  0  0  0  0  0  0  0  0  0  0  0
    4.3324    0.4886    0.0716 H   0  0  0  0  0  0  0  0  0  0  0  0
    3.5504    0.4675   -1.5923 H   0  0  0  0  0  0  0  0  0  0  0  0
    2.6666   -1.6850   -0.9939 H   0  0  0  0  0  0  0  0  0  0  0  0
    2.6444   -1.2539    0.8354 H   0  0  0  0  0  0  0  0  0  0  0  0
    1.2206    0.1180   -1.5232 H   0  0  0  0  0  0  0  0  0  0  0  0
    0.6489   -0.2316    1.4901 H   0  0  0  0  0  0  0  0  0  0  0  0
   -0.0364   -1.3219    0.2125 H   0  0  0  0  0  0  0  0  0  0  0  0
   -0.9754    0.7574   -0.9487 H   0  0  0  0  0  0  0  0  0  0  0  0
   -0.3255    1.6990    0.4047 H   0  0  0  0  0  0  0  0  0  0  0  0
   -2.0377    1.0678    1.9010 H   0  0  0  0  0  0  0  0  0  0  0  0
   -3.3907   -1.0426    1.7516 H   0  0  0  0  0  0  0  0  0  0  0  0
   -2.3322   -1.5869    0.3162 H   0  0  0  0  0  0  0  0  0  0  0  0
   -4.1070    1.0425    0.5131 H   0  0  0  0  0  0  0  0  0  0  0  0
   -3.2003    0.3959   -0.9909 H   0  0  0  0  0  0  0  0  0  0  0  0
  1  2  1  0
  2  3  1  0
  3  4  1  0
  4  5  1  0
  5  6  1  0
  6  7  1  0
  7  8  1  0
  3  9  1  0
  9  1  1  0
  8  6  1  0
  1 10  1  0
  1 11  1  0
  2 12  1  0
  2 13  1  0
  3 14  1  0
  4 15  1  0
  4 16  1  0
  5 17  1  0
  5 18  1  0
  6 19  1  0
  7 20  1  0
  7 21  1  0
  8 22  1  0
  8 23  1  0
M  END
