
     RDKit          3D

 23 25  0  0  0  0  0  0  0  0999 V2000
    2.0985    0.9289   -0.0271 C   0  0  0  0  0  0  0  0  0  0  0  0
    2.8939   -0.1223    0.7134 C   0  0  0  0  0  0  0  0  0  0  0  0
    1.8418   -0.5771   -0.1902 C   0  0  0  0  0  0  0  0  0  0  0  0
    0.4857   -1.0523    0.2556 C   0  0  0  0  0  0  0  0  0  0  0  0
   -0.5656   -0.3707   -0.5463 C   0  0  0  0  0  0  0  0  0  0  0  0
   -2.0010   -0.7226   -0.2611 C   0  0  0  0  0  0  0  0  0  0  0  0
   -1.9087    0.1589    0.9265 C   0  0  0  0  0  0  0  0  0  0  0  0
   -1.1435    0.9125   -0.1116 C   0  0  0  0  0  0  0  0  0  0  0  0
   -2.3114    0.5442   -1.0222 C   0  0  0  0  0  0  0  0  0  0  0  0
    2.5782    1.4179   -0.9108 H   0  0  0  0  0  0  0  0  0  0  0  0
    1.4666    1.5289    0.6281 H   0  0  0  0  0  0  0  0  0  0  0  0
    2.7553   -0.2326    1.8082 H   0  0  0  0  0  0  0  0  0  0  0  0
    3.9437   -0.1980    0.4061 H   0  0  0  0  0  0  0  0  0  0  0  0
    2.2001   -1.0342   -1.1487 H   0  0  0  0  0  0  0  0  0  0  0  0
    0.3611   -0.8963    1.3513 H   0  0  0  0  0  0  0  0  0  0  0  0
    0.4613   -2.1637    0.1366 H   0  0  0  0  0  0  0  0  0  0  0  0
   -0.3729   -0.3887   -1.6647 H   0  0  0  0  0  0  0  0  0  0  0  0
   -2.4399   -1.6103   -0.3703 H   0  0  0  0  0  0  0  0  0  0  0  0
   -1.4105   -0.1769    1.8282 H   0  0  0  0  0  0  0  0  0  0  0  0
   -2.9274    0.6348    1.1116 H   0  0  0  0  0  0  0  0  0  0  0  0
   -0.7606    1.8374   -0.0393 H   0  0  0  0  0  0  0  0  0  0  0  0
   -3.2608    1.0325   -0.7911 H   0  0  0  0  0  0  0  0  0  0  0  0
   -1.9840    0.5498   -2.0821 H   0  0  0  0  0  0  0  0  0  0  0  0
  1  2  1  0
  2  3  1  0
  3  4  1  0
  4  5  1  0
  5  6  1  0
  6  7  1  0
  7  8  1  0
  8  9  1  0
  3  1  1  0
  8  5  1  0
  9  6  1  0
  1 10  1  0
  1 11  1  0
  2 12  1  0
  2 13  1  0
  3 14  1  0
  4 15  1  0
  4 16  1  0
  5 17  1  0
  6 18  1  0
  7 19  1  0
  7 20  1  0
  8 21  1  0
  9 22  1  0
  9 23  1  0
M  END
