
     RDKit          3D

 20 21  0  0  0  0  0  0  0  0999 V2000
   -2.0192    0.5621    0.4022 C   0  0  0  0  0  0  0  0  0  0  0  0
   -1.3566   -0.7689    0.7764 C   0  0  0  0  0  0  0  0  0  0  0  0
   -0.3441   -0.4697   -0.3137 C   0  0  0  0  0  0  0  0  0  0  0  0
    0.8172    0.3150    0.2282 C   0  0  0  0  0  0  0  0  0  0  0  0
    1.8900    0.6791   -0.7359 C   0  0  0  0  0  0  0  0  0  0  0  0
    2.8206    0.3942    0.2763 O   0  0  0  0  0  0  0  0  0  0  0  0
    1.9238   -0.6301    0.6607 C   0  0  0  0  0  0  0  0  0  0  0  0
   -1.4121    0.3637   -0.9915 C   0  0  0  0  0  0  0  0  0  0  0  0
   -1.5774    1.4269    0.9326 H   0  0  0  0  0  0  0  0  0  0  0  0
   -3.1103    0.5476    0.4330 H   0  0  0  0  0  0  0  0  0  0  0  0
   -0.9705   -0.8248    1.7928 H   0  0  0  0  0  0  0  0  0  0  0  0
   -2.0121   -1.6031    0.4389 H   0  0  0  0  0  0  0  0  0  0  0  0
   -0.0038   -1.3239   -0.9006 H   0  0  0  0  0  0  0  0  0  0  0  0
    0.5889    1.0717    0.9853 H   0  0  0  0  0  0  0  0  0  0  0  0
    1.9076    1.7132   -1.1116 H   0  0  0  0  0  0  0  0  0  0  0  0
    1.9739   -0.0902   -1.5352 H   0  0  0  0  0  0  0  0  0  0  0  0
    1.9403   -0.8607    1.7403 H   0  0  0  0  0  0  0  0  0  0  0  0
    2.0743   -1.4905    0.0109 H   0  0  0  0  0  0  0  0  0  0  0  0
   -2.0600   -0.2897   -1.6145 H   0  0  0  0  0  0  0  0  0  0  0  0
   -1.0708    1.2781   -1.4746 H   0  0  0  0  0  0  0  0  0  0  0  0
  1  2  1  0
  2  3  1  0
  3  4  1  0
  4  5  1  0
  5  6  1  0
  6  7  1  0
  3  8  1  0
  8  1  1  0
  7  4  1  0
  1  9  1  0
  1 10  1  0
  2 11  1  0
  2 12  1  0
  3 13  1  0
  4 14  1  0
  5 15  1  0
  5 16  1  0
  7 17  1  0
  7 18  1  0
  8 19  1  0
  8 20  1  0
M  END
