
     RDKit          3D

 18 20  0  0  0  0  0  0  0  0999 V2000
    2.2425    0.8536    0.2047 C   0  0  0  0  0  0  0  0  0  0  0  0
    1.9957   -0.6351    0.4324 C   0  0  0  0  0  0  0  0  0  0  0  0
    0.9149    0.3067    0.1896 C   0  0  0  0  0  0  0  0  0  0  0  0
   -0.0110    0.2626   -0.9724 C   0  0  0  0  0  0  0  0  0  0  0  0
   -0.9850    0.1666    0.1205 C   0  0  0  0  0  0  0  0  0  0  0  0
   -1.8401   -1.0031    0.2500 C   0  0  0  0  0  0  0  0  0  0  0  0
   -2.3946    0.3854    0.1135 C   0  0  0  0  0  0  0  0  0  0  0  0
   -0.0920    0.5864    1.0894 O   0  0  0  0  0  0  0  0  0  0  0  0
    2.7522    1.1297   -0.7505 H   0  0  0  0  0  0  0  0  0  0  0  0
    2.5507    1.4758    1.0761 H   0  0  0  0  0  0  0  0  0  0  0  0
    2.3619   -1.3605   -0.3078 H   0  0  0  0  0  0  0  0  0  0  0  0
    2.1482   -0.9389    1.5106 H   0  0  0  0  0  0  0  0  0  0  0  0
    0.0993   -0.6158   -1.6449 H   0  0  0  0  0  0  0  0  0  0  0  0
    0.0499    1.1824   -1.5691 H   0  0  0  0  0  0  0  0  0  0  0  0
   -1.8447   -1.5144    1.2393 H   0  0  0  0  0  0  0  0  0  0  0  0
   -2.0757   -1.6812   -0.5852 H   0  0  0  0  0  0  0  0  0  0  0  0
   -2.9922    0.6507   -0.7696 H   0  0  0  0  0  0  0  0  0  0  0  0
   -2.8800    0.7490    1.0666 H   0  0  0  0  0  0  0  0  0  0  0  0
  1  2  1  0
  2  3  1  0
  3  4  1  0
  4  5  1  0
  5  6  1  0
  6  7  1  0
  5  8  1  0
  3  1  1  0
  7  5  1  0
  8  3  1  0
  1  9  1  0
  1 10  1  0
  2 11  1  0
  2 12  1  0
  4 13  1  0
  4 14  1  0
  6 15  1  0
  6 16  1  0
  7 17  1  0
  7 18  1  0
M  END
