
     RDKit          3D

 21 22  0  0  0  0  0  0  0  0999 V2000
   -1.6548    0.4743    0.4836 C   0  0  0  0  0  0  0  0  0  0  0  0
   -0.7592    1.3843   -0.2639 C   0  0  0  0  0  0  0  0  0  0  0  0
    0.4754    0.8334   -0.8183 C   0  0  0  0  0  0  0  0  0  0  0  0
    1.2071   -0.1835   -0.0225 C   0  0  0  0  0  0  0  0  0  0  0  0
    0.3756   -1.2584    0.5732 C   0  0  0  0  0  0  0  0  0  0  0  0
   -0.6444   -1.5768   -0.3013 O   0  0  0  0  0  0  0  0  0  0  0  0
   -1.8087   -0.8907   -0.0841 C   0  0  0  0  0  0  0  0  0  0  0  0
    2.6853   -0.1564    0.1484 C   0  0  0  0  0  0  0  0  0  0  0  0
    2.2111   -0.8294   -0.9517 O   0  0  0  0  0  0  0  0  0  0  0  0
   -1.3687    0.4980    1.5556 H   0  0  0  0  0  0  0  0  0  0  0  0
   -2.6888    0.9376    0.4718 H   0  0  0  0  0  0  0  0  0  0  0  0
   -0.5590    2.2779    0.4002 H   0  0  0  0  0  0  0  0  0  0  0  0
   -1.3607    1.8300   -1.1129 H   0  0  0  0  0  0  0  0  0  0  0  0
    0.2777    0.4773   -1.8719 H   0  0  0  0  0  0  0  0  0  0  0  0
    1.1939    1.6953   -0.9665 H   0  0  0  0  0  0  0  0  0  0  0  0
    0.9681   -2.1994    0.7258 H   0  0  0  0  0  0  0  0  0  0  0  0
   -0.0050   -1.0151    1.6006 H   0  0  0  0  0  0  0  0  0  0  0  0
   -2.4188   -1.4905    0.6400 H   0  0  0  0  0  0  0  0  0  0  0  0
   -2.4228   -0.8323   -1.0062 H   0  0  0  0  0  0  0  0  0  0  0  0
    3.1163   -0.7857    0.9317 H   0  0  0  0  0  0  0  0  0  0  0  0
    3.1805    0.8102   -0.1316 H   0  0  0  0  0  0  0  0  0  0  0  0
  1  2  1  0
  2  3  1  0
  3  4  1  0
  4  5  1  0
  5  6  1  0
  6  7  1  0
  4  8  1  0
  8  9  1  0
  7  1  1  0
  9  4  1  0
  1 10  1  0
  1 11  1  0
  2 12  1  0
  2 13  1  0
  3 14  1  0
  3 15  1  0
  5 16  1  0
  5 17  1  0
  7 18  1  0
  7 19  1  0
  8 20  1  0
  8 21  1  0
M  END
