
     RDKit          2D

 17 20  0  0  0  0  0  0  0  0999 V2000
   -1.4937    4.0871    0.0000 C   0  0  0  0  0  0  0  0  0  0  0  0
   -2.7927    3.3371    0.0000 C   0  0  0  0  0  0  0  0  0  0  0  0
   -1.4937    2.5871    0.0000 C   0  0  0  0  0  0  0  0  0  0  0  0
   -0.0448    2.1989    0.0000 C   0  0  0  0  0  0  0  0  0  0  0  0
   -1.1437    1.9809    0.0000 O   0  0  0  0  0  0  0  0  0  0  0  0
   -1.8819    1.1382    0.0000 C   0  0  0  0  0  0  0  0  0  0  0  0
   -0.4330    0.7500    0.0000 C   0  0  0  0  0  0  0  0  0  0  0  0
    0.8660    0.0000    0.0000 C   0  0  0  0  0  0  0  0  0  0  0  0
   -0.4330   -0.7500    0.0000 O   0  0  0  0  0  0  0  0  0  0  0  0
   -2.0067    5.4967    0.0000 H   0  0  0  0  0  0  0  0  0  0  0  0
   -0.0165    4.3476    0.0000 H   0  0  0  0  0  0  0  0  0  0  0  0
   -3.7569    2.1881    0.0000 H   0  0  0  0  0  0  0  0  0  0  0  0
   -3.7569    4.4862    0.0000 H   0  0  0  0  0  0  0  0  0  0  0  0
    1.2543    2.9489    0.0000 H   0  0  0  0  0  0  0  0  0  0  0  0
   -3.1809    0.3882    0.0000 H   0  0  0  0  0  0  0  0  0  0  0  0
    1.8302    1.1491    0.0000 H   0  0  0  0  0  0  0  0  0  0  0  0
    1.8302   -1.1491    0.0000 H   0  0  0  0  0  0  0  0  0  0  0  0
  1  2  1  0
  2  3  1  0
  3  4  1  0
  4  5  1  0
  5  6  1  0
  6  7  1  0
  7  8  1  0
  8  9  1  0
  3  1  1  0
  7  4  1  0
  6  3  1  0
  9  7  1  0
  1 10  1  0
  1 11  1  0
  2 12  1  0
  2 13  1  0
  4 14  1  0
  6 15  1  0
  8 16  1  0
  8 17  1  0
M  END
