
     RDKit          3D

 19 21  0  0  0  0  0  0  0  0999 V2000
    1.9006   -0.3240   -0.1319 C   0  0  0  0  0  0  0  0  0  0  0  0
    1.2202    1.0044   -0.0638 C   0  0  0  0  0  0  0  0  0  0  0  0
   -0.2529    0.9720   -0.2130 C   0  0  0  0  0  0  0  0  0  0  0  0
   -0.8084    0.1579   -1.3574 C   0  0  0  0  0  0  0  0  0  0  0  0
   -1.9870   -0.1028   -0.4002 C   0  0  0  0  0  0  0  0  0  0  0  0
   -0.8431   -0.1806    0.6046 C   0  0  0  0  0  0  0  0  0  0  0  0
   -0.0796   -1.3411    0.0603 C   0  0  0  0  0  0  0  0  0  0  0  0
    1.2091   -1.3238    0.5392 O   0  0  0  0  0  0  0  0  0  0  0  0
   -0.1247   -1.0327   -1.3259 O   0  0  0  0  0  0  0  0  0  0  0  0
    2.8859   -0.2153    0.4099 H   0  0  0  0  0  0  0  0  0  0  0  0
    2.1811   -0.6188   -1.1666 H   0  0  0  0  0  0  0  0  0  0  0  0
    1.4441    1.4307    0.9554 H   0  0  0  0  0  0  0  0  0  0  0  0
    1.7058    1.6784   -0.7790 H   0  0  0  0  0  0  0  0  0  0  0  0
   -0.7111    1.9427   -0.0547 H   0  0  0  0  0  0  0  0  0  0  0  0
   -1.0351    0.6389   -2.2776 H   0  0  0  0  0  0  0  0  0  0  0  0
   -2.4036   -1.0984   -0.5632 H   0  0  0  0  0  0  0  0  0  0  0  0
   -2.6534    0.7450   -0.2975 H   0  0  0  0  0  0  0  0  0  0  0  0
   -1.0316   -0.0444    1.6238 H   0  0  0  0  0  0  0  0  0  0  0  0
   -0.6163   -2.2880    0.2277 H   0  0  0  0  0  0  0  0  0  0  0  0
  1  2  1  0
  2  3  1  0
  3  4  1  0
  4  5  1  0
  5  6  1  0
  6  7  1  0
  7  8  1  0
  7  9  1  0
  8  1  1  0
  6  3  1  0
  9  4  1  0
  1 10  1  0
  1 11  1  0
  2 12  1  0
  2 13  1  0
  3 14  1  0
  4 15  1  0
  5 16  1  0
  5 17  1  0
  6 18  1  0
  7 19  1  0
M  END
