
     RDKit          3D

 18 19  0  0  0  0  0  0  0  0999 V2000
   -2.2851    0.0623    0.9727 C   0  0  0  0  0  0  0  0  0  0  0  0
   -2.4605   -0.4380   -0.4202 C   0  0  0  0  0  0  0  0  0  0  0  0
   -1.1783    0.2152   -0.0926 C   0  0  0  0  0  0  0  0  0  0  0  0
   -0.0485   -0.5145    0.2290 O   0  0  0  0  0  0  0  0  0  0  0  0
    1.0494    0.2757   -0.0772 C   0  0  0  0  0  0  0  0  0  0  0  0
    2.1465    0.2791    0.9584 C   0  0  0  0  0  0  0  0  0  0  0  0
    2.9871   -0.3263    0.0418 O   0  0  0  0  0  0  0  0  0  0  0  0
    2.0145   -0.4618   -0.9620 C   0  0  0  0  0  0  0  0  0  0  0  0
   -2.7219    1.0060    1.3021 H   0  0  0  0  0  0  0  0  0  0  0  0
   -2.1802   -0.7119    1.7367 H   0  0  0  0  0  0  0  0  0  0  0  0
   -2.4262   -1.5310   -0.5990 H   0  0  0  0  0  0  0  0  0  0  0  0
   -3.1773    0.0982   -1.0546 H   0  0  0  0  0  0  0  0  0  0  0  0
   -1.0427    1.2322   -0.5099 H   0  0  0  0  0  0  0  0  0  0  0  0
    0.8122    1.2786   -0.4955 H   0  0  0  0  0  0  0  0  0  0  0  0
    2.4801    1.3185    1.1523 H   0  0  0  0  0  0  0  0  0  0  0  0
    1.9377   -0.3333    1.8558 H   0  0  0  0  0  0  0  0  0  0  0  0
    2.2761    0.0832   -1.8964 H   0  0  0  0  0  0  0  0  0  0  0  0
    1.8170   -1.5322   -1.1187 H   0  0  0  0  0  0  0  0  0  0  0  0
  1  2  1  0
  2  3  1  0
  3  4  1  0
  4  5  1  0
  5  6  1  0
  6  7  1  0
  7  8  1  0
  3  1  1  0
  8  5  1  0
  1  9  1  0
  1 10  1  0
  2 11  1  0
  2 12  1  0
  3 13  1  0
  5 14  1  0
  6 15  1  0
  6 16  1  0
  8 17  1  0
  8 18  1  0
M  END
