
     RDKit          3D

 21 23  0  0  0  0  0  0  0  0999 V2000
    2.2845    0.1910   -0.8560 C   0  0  0  0  0  0  0  0  0  0  0  0
    1.5632    0.6364    0.4129 C   0  0  0  0  0  0  0  0  0  0  0  0
    0.4875   -0.1439   -0.2511 C   0  0  0  0  0  0  0  0  0  0  0  0
    0.3439   -1.5871    0.1520 C   0  0  0  0  0  0  0  0  0  0  0  0
   -1.0310   -1.2238    0.7236 C   0  0  0  0  0  0  0  0  0  0  0  0
   -0.9031    0.1001    0.0384 C   0  0  0  0  0  0  0  0  0  0  0  0
   -1.9213    0.6799   -0.8170 C   0  0  0  0  0  0  0  0  0  0  0  0
   -1.5367    1.3241    0.4990 C   0  0  0  0  0  0  0  0  0  0  0  0
    1.0221    0.1103   -1.4815 O   0  0  0  0  0  0  0  0  0  0  0  0
    2.9754    0.9136   -1.2861 H   0  0  0  0  0  0  0  0  0  0  0  0
    2.6881   -0.8291   -0.6801 H   0  0  0  0  0  0  0  0  0  0  0  0
    1.9064    0.1241    1.3373 H   0  0  0  0  0  0  0  0  0  0  0  0
    1.3824    1.7159    0.4914 H   0  0  0  0  0  0  0  0  0  0  0  0
    0.3027   -2.3176   -0.6822 H   0  0  0  0  0  0  0  0  0  0  0  0
    1.0871   -1.8203    0.9501 H   0  0  0  0  0  0  0  0  0  0  0  0
   -1.8616   -1.8254    0.3437 H   0  0  0  0  0  0  0  0  0  0  0  0
   -0.9900   -1.0951    1.8281 H   0  0  0  0  0  0  0  0  0  0  0  0
   -1.6443    1.2735   -1.7273 H   0  0  0  0  0  0  0  0  0  0  0  0
   -2.9731    0.3074   -0.8653 H   0  0  0  0  0  0  0  0  0  0  0  0
   -0.9389    2.2479    0.5001 H   0  0  0  0  0  0  0  0  0  0  0  0
   -2.2431    1.2181    1.3700 H   0  0  0  0  0  0  0  0  0  0  0  0
  1  2  1  0
  2  3  1  0
  3  4  1  0
  4  5  1  0
  5  6  1  0
  6  7  1  0
  7  8  1  0
  3  9  1  0
  9  1  1  0
  6  3  1  0
  8  6  1  0
  1 10  1  0
  1 11  1  0
  2 12  1  0
  2 13  1  0
  4 14  1  0
  4 15  1  0
  5 16  1  0
  5 17  1  0
  7 18  1  0
  7 19  1  0
  8 20  1  0
  8 21  1  0
M  END
