
     RDKit          3D

 21 23  0  0  0  0  0  0  0  0999 V2000
    1.6449    1.1986    0.3023 C   0  0  0  0  0  0  0  0  0  0  0  0
    2.0063   -0.2357    0.0554 C   0  0  0  0  0  0  0  0  0  0  0  0
    0.8913   -0.7406   -0.7982 C   0  0  0  0  0  0  0  0  0  0  0  0
   -0.1797   -1.3951    0.0428 C   0  0  0  0  0  0  0  0  0  0  0  0
   -0.9516   -0.1273   -0.0307 C   0  0  0  0  0  0  0  0  0  0  0  0
   -1.6266    0.5278    1.0556 C   0  0  0  0  0  0  0  0  0  0  0  0
   -2.4083   -0.0467   -0.0846 C   0  0  0  0  0  0  0  0  0  0  0  0
   -0.0217    0.4706   -1.0000 C   0  0  0  0  0  0  0  0  0  0  0  0
    0.7067    1.5737   -0.6362 O   0  0  0  0  0  0  0  0  0  0  0  0
    2.5347    1.8609    0.1508 H   0  0  0  0  0  0  0  0  0  0  0  0
    1.2968    1.3690    1.3525 H   0  0  0  0  0  0  0  0  0  0  0  0
    2.0269   -0.7936    1.0241 H   0  0  0  0  0  0  0  0  0  0  0  0
    2.9584   -0.3417   -0.5033 H   0  0  0  0  0  0  0  0  0  0  0  0
    1.1296   -1.2036   -1.7481 H   0  0  0  0  0  0  0  0  0  0  0  0
    0.1350   -1.6880    1.0694 H   0  0  0  0  0  0  0  0  0  0  0  0
   -0.6409   -2.2338   -0.5377 H   0  0  0  0  0  0  0  0  0  0  0  0
   -1.6689    0.0168    2.0400 H   0  0  0  0  0  0  0  0  0  0  0  0
   -1.5669    1.6535    1.0955 H   0  0  0  0  0  0  0  0  0  0  0  0
   -2.9577   -1.0147    0.0429 H   0  0  0  0  0  0  0  0  0  0  0  0
   -2.8454    0.6119   -0.8621 H   0  0  0  0  0  0  0  0  0  0  0  0
   -0.4630    0.5378   -2.0165 H   0  0  0  0  0  0  0  0  0  0  0  0
  1  2  1  0
  2  3  1  0
  3  4  1  0
  4  5  1  0
  5  6  1  0
  6  7  1  0
  5  8  1  0
  8  9  1  0
  9  1  1  0
  8  3  1  0
  7  5  1  0
  1 10  1  0
  1 11  1  0
  2 12  1  0
  2 13  1  0
  3 14  1  0
  4 15  1  0
  4 16  1  0
  6 17  1  0
  6 18  1  0
  7 19  1  0
  7 20  1  0
  8 21  1  0
M  END
