
     RDKit          3D

 23 24  0  0  0  0  0  0  0  0999 V2000
    1.8410   -1.2676    0.6430 C   0  0  0  0  0  0  0  0  0  0  0  0
    0.4139   -1.2529    0.1897 C   0  0  0  0  0  0  0  0  0  0  0  0
   -0.0932    0.1724    0.2128 C   0  0  0  0  0  0  0  0  0  0  0  0
   -1.4189    0.3041   -0.4983 C   0  0  0  0  0  0  0  0  0  0  0  0
   -2.6107   -0.4512   -0.0469 C   0  0  0  0  0  0  0  0  0  0  0  0
   -2.5487    0.9746    0.2882 C   0  0  0  0  0  0  0  0  0  0  0  0
    0.9150    0.9931   -0.5992 C   0  0  0  0  0  0  0  0  0  0  0  0
    2.3211    0.7688   -0.1489 C   0  0  0  0  0  0  0  0  0  0  0  0
    2.2970    0.0153    1.0127 O   0  0  0  0  0  0  0  0  0  0  0  0
    2.0156   -1.9098    1.5282 H   0  0  0  0  0  0  0  0  0  0  0  0
    2.4822   -1.6039   -0.2058 H   0  0  0  0  0  0  0  0  0  0  0  0
   -0.2062   -1.9131    0.8563 H   0  0  0  0  0  0  0  0  0  0  0  0
    0.2629   -1.6292   -0.8381 H   0  0  0  0  0  0  0  0  0  0  0  0
   -0.0979    0.5794    1.2286 H   0  0  0  0  0  0  0  0  0  0  0  0
   -1.3782    0.5167   -1.5944 H   0  0  0  0  0  0  0  0  0  0  0  0
   -2.5473   -1.2016    0.7745 H   0  0  0  0  0  0  0  0  0  0  0  0
   -3.3605   -0.7788   -0.8231 H   0  0  0  0  0  0  0  0  0  0  0  0
   -2.3104    1.2119    1.3565 H   0  0  0  0  0  0  0  0  0  0  0  0
   -3.1083    1.7586   -0.2450 H   0  0  0  0  0  0  0  0  0  0  0  0
    0.5873    2.0423   -0.5315 H   0  0  0  0  0  0  0  0  0  0  0  0
    0.7942    0.6602   -1.6691 H   0  0  0  0  0  0  0  0  0  0  0  0
    2.9409    0.2775   -0.9465 H   0  0  0  0  0  0  0  0  0  0  0  0
    2.8091    1.7331    0.0563 H   0  0  0  0  0  0  0  0  0  0  0  0
  1  2  1  0
  2  3  1  0
  3  4  1  0
  4  5  1  0
  5  6  1  0
  3  7  1  0
  7  8  1  0
  8  9  1  0
  9  1  1  0
  6  4  1  0
  1 10  1  0
  1 11  1  0
  2 12  1  0
  2 13  1  0
  3 14  1  0
  4 15  1  0
  5 16  1  0
  5 17  1  0
  6 18  1  0
  6 19  1  0
  7 20  1  0
  7 21  1  0
  8 22  1  0
  8 23  1  0
M  END
