
     RDKit          2D

 21 23  0  0  0  0  0  0  0  0999 V2000
   -3.2232    1.1019    0.0000 C   0  0  0  0  0  0  0  0  0  0  0  0
   -3.4578   -0.3797    0.0000 C   0  0  0  0  0  0  0  0  0  0  0  0
   -2.1213   -1.0607    0.0000 C   0  0  0  0  0  0  0  0  0  0  0  0
   -1.0607   -2.1213    0.0000 C   0  0  0  0  0  0  0  0  0  0  0  0
   -0.0000   -1.0607    0.0000 C   0  0  0  0  0  0  0  0  0  0  0  0
    1.0607    0.0000    0.0000 C   0  0  0  0  0  0  0  0  0  0  0  0
    0.0000    1.0607    0.0000 O   0  0  0  0  0  0  0  0  0  0  0  0
   -1.0607    0.0000    0.0000 C   0  0  0  0  0  0  0  0  0  0  0  0
   -1.7416    1.3365    0.0000 C   0  0  0  0  0  0  0  0  0  0  0  0
   -4.7211    1.1804    0.0000 H   0  0  0  0  0  0  0  0  0  0  0  0
   -3.3017    2.5998    0.0000 H   0  0  0  0  0  0  0  0  0  0  0  0
   -3.9954   -1.7800    0.0000 H   0  0  0  0  0  0  0  0  0  0  0  0
   -4.9067    0.0086    0.0000 H   0  0  0  0  0  0  0  0  0  0  0  0
   -3.0030   -2.2742    0.0000 H   0  0  0  0  0  0  0  0  0  0  0  0
   -0.0000   -3.1820    0.0000 H   0  0  0  0  0  0  0  0  0  0  0  0
   -2.1213   -3.1820    0.0000 H   0  0  0  0  0  0  0  0  0  0  0  0
    1.0607   -2.1213    0.0000 H   0  0  0  0  0  0  0  0  0  0  0  0
    2.1213    1.0607    0.0000 H   0  0  0  0  0  0  0  0  0  0  0  0
    2.1213   -1.0607    0.0000 H   0  0  0  0  0  0  0  0  0  0  0  0
   -2.1299    2.7854    0.0000 H   0  0  0  0  0  0  0  0  0  0  0  0
   -0.5130    2.1969    0.0000 H   0  0  0  0  0  0  0  0  0  0  0  0
  1  2  1  0
  2  3  1  0
  3  4  1  0
  4  5  1  0
  5  6  1  0
  6  7  1  0
  7  8  1  0
  8  9  1  0
  9  1  1  0
  8  3  1  0
  8  5  1  0
  1 10  1  0
  1 11  1  0
  2 12  1  0
  2 13  1  0
  3 14  1  0
  4 15  1  0
  4 16  1  0
  5 17  1  0
  6 18  1  0
  6 19  1  0
  9 20  1  0
  9 21  1  0
M  END
