
     RDKit          3D

 19 20  0  0  0  0  0  0  0  0999 V2000
    1.7205    0.5539   -0.3439 C   0  0  0  0  0  0  0  0  0  0  0  0
    1.2085   -0.4737    0.6217 C   0  0  0  0  0  0  0  0  0  0  0  0
    0.2366   -1.4284    0.0620 C   0  0  0  0  0  0  0  0  0  0  0  0
   -0.6216   -1.9627    1.1561 O   0  0  0  0  0  0  0  0  0  0  0  0
   -1.1254   -1.2319    0.0628 C   0  0  0  0  0  0  0  0  0  0  0  0
   -1.7582    0.0872    0.3008 C   0  0  0  0  0  0  0  0  0  0  0  0
   -0.9226    1.1221    0.6026 O   0  0  0  0  0  0  0  0  0  0  0  0
   -0.2857    1.6821   -0.5003 C   0  0  0  0  0  0  0  0  0  0  0  0
    1.0721    1.7641   -0.2861 O   0  0  0  0  0  0  0  0  0  0  0  0
    1.6880    0.1410   -1.3858 H   0  0  0  0  0  0  0  0  0  0  0  0
    2.8092    0.7627   -0.1638 H   0  0  0  0  0  0  0  0  0  0  0  0
    2.1167   -1.0709    0.9421 H   0  0  0  0  0  0  0  0  0  0  0  0
    0.8859    0.0211    1.5801 H   0  0  0  0  0  0  0  0  0  0  0  0
    0.6993   -2.2592   -0.5415 H   0  0  0  0  0  0  0  0  0  0  0  0
   -1.7610   -1.9112   -0.5822 H   0  0  0  0  0  0  0  0  0  0  0  0
   -2.5031    0.0078    1.1456 H   0  0  0  0  0  0  0  0  0  0  0  0
   -2.3269    0.3824   -0.6245 H   0  0  0  0  0  0  0  0  0  0  0  0
   -0.4617    1.1020   -1.4253 H   0  0  0  0  0  0  0  0  0  0  0  0
   -0.6706    2.7115   -0.6204 H   0  0  0  0  0  0  0  0  0  0  0  0
  1  2  1  0
  2  3  1  0
  3  4  1  0
  4  5  1  0
  5  6  1  0
  6  7  1  0
  7  8  1  0
  8  9  1  0
  9  1  1  0
  5  3  1  0
  1 10  1  0
  1 11  1  0
  2 12  1  0
  2 13  1  0
  3 14  1  0
  5 15  1  0
  6 16  1  0
  6 17  1  0
  8 18  1  0
  8 19  1  0
M  END
