
     RDKit          3D

 19 21  0  0  0  0  0  0  0  0999 V2000
   -2.5944   -0.1342   -0.0718 C   0  0  0  0  0  0  0  0  0  0  0  0
   -1.6491   -0.8028    0.9304 C   0  0  0  0  0  0  0  0  0  0  0  0
   -0.5169   -0.4415    0.0262 C   0  0  0  0  0  0  0  0  0  0  0  0
   -1.3808    0.5275   -0.6871 C   0  0  0  0  0  0  0  0  0  0  0  0
    0.2456   -1.3765   -0.6037 O   0  0  0  0  0  0  0  0  0  0  0  0
    0.8058   -0.4154    0.3466 C   0  0  0  0  0  0  0  0  0  0  0  0
    1.7916    0.4960   -0.3821 C   0  0  0  0  0  0  0  0  0  0  0  0
    3.2059    0.4742   -0.0363 C   0  0  0  0  0  0  0  0  0  0  0  0
    2.3810    1.4602    0.4731 O   0  0  0  0  0  0  0  0  0  0  0  0
   -3.3055    0.5759    0.4101 H   0  0  0  0  0  0  0  0  0  0  0  0
   -3.1189   -0.8630   -0.7299 H   0  0  0  0  0  0  0  0  0  0  0  0
   -1.6114   -0.1690    1.8506 H   0  0  0  0  0  0  0  0  0  0  0  0
   -1.8492   -1.8692    1.0878 H   0  0  0  0  0  0  0  0  0  0  0  0
   -1.3343    0.5195   -1.7845 H   0  0  0  0  0  0  0  0  0  0  0  0
   -1.2755    1.5552   -0.2380 H   0  0  0  0  0  0  0  0  0  0  0  0
    1.2433   -0.8844    1.2573 H   0  0  0  0  0  0  0  0  0  0  0  0
    1.4733    0.9204   -1.3538 H   0  0  0  0  0  0  0  0  0  0  0  0
    3.5601   -0.2824    0.7178 H   0  0  0  0  0  0  0  0  0  0  0  0
    3.9294    0.7094   -0.8385 H   0  0  0  0  0  0  0  0  0  0  0  0
  1  2  1  0
  2  3  1  0
  3  4  1  0
  3  5  1  0
  5  6  1  0
  6  7  1  0
  7  8  1  0
  8  9  1  0
  4  1  1  0
  9  7  1  0
  6  3  1  0
  1 10  1  0
  1 11  1  0
  2 12  1  0
  2 13  1  0
  4 14  1  0
  4 15  1  0
  6 16  1  0
  7 17  1  0
  8 18  1  0
  8 19  1  0
M  END
