
     RDKit          3D

 23 25  0  0  0  0  0  0  0  0999 V2000
    2.1389    0.3335    0.0726 C   0  0  0  0  0  0  0  0  0  0  0  0
    1.3939   -0.9768   -0.1470 C   0  0  0  0  0  0  0  0  0  0  0  0
    0.1409   -0.7850    0.6118 C   0  0  0  0  0  0  0  0  0  0  0  0
   -1.0764   -1.4640    0.1083 C   0  0  0  0  0  0  0  0  0  0  0  0
   -2.2053   -0.4236    0.1575 C   0  0  0  0  0  0  0  0  0  0  0  0
   -1.4705    0.9202    0.0100 C   0  0  0  0  0  0  0  0  0  0  0  0
   -0.5867    0.9300   -1.2024 C   0  0  0  0  0  0  0  0  0  0  0  0
   -0.1399    0.6619    0.2749 C   0  0  0  0  0  0  0  0  0  0  0  0
    1.0926    1.3191    0.5991 C   0  0  0  0  0  0  0  0  0  0  0  0
    2.9625    0.1898    0.7869 H   0  0  0  0  0  0  0  0  0  0  0  0
    2.5044    0.7603   -0.8892 H   0  0  0  0  0  0  0  0  0  0  0  0
    1.2240   -1.0620   -1.2523 H   0  0  0  0  0  0  0  0  0  0  0  0
    1.9996   -1.8483    0.1467 H   0  0  0  0  0  0  0  0  0  0  0  0
    0.3259   -0.8497    1.6775 H   0  0  0  0  0  0  0  0  0  0  0  0
   -0.9954   -1.9407   -0.8686 H   0  0  0  0  0  0  0  0  0  0  0  0
   -1.3809   -2.2532    0.8398 H   0  0  0  0  0  0  0  0  0  0  0  0
   -2.7854   -0.4789    1.0702 H   0  0  0  0  0  0  0  0  0  0  0  0
   -2.7881   -0.5407   -0.7803 H   0  0  0  0  0  0  0  0  0  0  0  0
   -1.9968    1.8266    0.3298 H   0  0  0  0  0  0  0  0  0  0  0  0
   -0.3430    1.9346   -1.5904 H   0  0  0  0  0  0  0  0  0  0  0  0
   -0.5209    0.0748   -1.8775 H   0  0  0  0  0  0  0  0  0  0  0  0
    1.2574    1.3363    1.7164 H   0  0  0  0  0  0  0  0  0  0  0  0
    1.2491    2.3359    0.2061 H   0  0  0  0  0  0  0  0  0  0  0  0
  1  2  1  0
  2  3  1  0
  3  4  1  0
  4  5  1  0
  5  6  1  0
  6  7  1  0
  7  8  1  0
  8  9  1  0
  9  1  1  0
  8  3  1  0
  8  6  1  0
  1 10  1  0
  1 11  1  0
  2 12  1  0
  2 13  1  0
  3 14  1  0
  4 15  1  0
  4 16  1  0
  5 17  1  0
  5 18  1  0
  6 19  1  0
  7 20  1  0
  7 21  1  0
  9 22  1  0
  9 23  1  0
M  END
