
     RDKit          3D

 18 20  0  0  0  0  0  0  0  0999 V2000
    1.1241    0.8217   -0.4058 C   0  0  0  0  0  0  0  0  0  0  0  0
    1.1500   -0.7044   -0.5835 C   0  0  0  0  0  0  0  0  0  0  0  0
   -0.0903   -1.1575    0.1712 C   0  0  0  0  0  0  0  0  0  0  0  0
   -0.0188   -0.1832    1.3617 C   0  0  0  0  0  0  0  0  0  0  0  0
   -0.0726    1.0784    0.4786 C   0  0  0  0  0  0  0  0  0  0  0  0
   -1.3163    0.7941   -0.3037 C   0  0  0  0  0  0  0  0  0  0  0  0
   -1.1357    0.2322   -1.6283 O   0  0  0  0  0  0  0  0  0  0  0  0
   -1.3252   -0.6512   -0.5164 C   0  0  0  0  0  0  0  0  0  0  0  0
    2.0632    1.1859    0.0577 H   0  0  0  0  0  0  0  0  0  0  0  0
    0.9815    1.2640   -1.4184 H   0  0  0  0  0  0  0  0  0  0  0  0
    1.1056   -0.9832   -1.6477 H   0  0  0  0  0  0  0  0  0  0  0  0
    2.0264   -1.1533   -0.0860 H   0  0  0  0  0  0  0  0  0  0  0  0
   -0.0924   -2.1884    0.4621 H   0  0  0  0  0  0  0  0  0  0  0  0
    0.9470   -0.2648    1.8803 H   0  0  0  0  0  0  0  0  0  0  0  0
   -0.8957   -0.2494    1.9996 H   0  0  0  0  0  0  0  0  0  0  0  0
   -0.0511    1.9911    1.0393 H   0  0  0  0  0  0  0  0  0  0  0  0
   -2.1817    1.4440   -0.2875 H   0  0  0  0  0  0  0  0  0  0  0  0
   -2.2180   -1.2761   -0.5733 H   0  0  0  0  0  0  0  0  0  0  0  0
  1  2  1  0
  2  3  1  0
  3  4  1  0
  4  5  1  0
  5  6  1  0
  6  7  1  0
  7  8  1  0
  5  1  1  0
  8  6  1  0
  8  3  1  0
  1  9  1  0
  1 10  1  0
  2 11  1  0
  2 12  1  0
  3 13  1  0
  4 14  1  0
  4 15  1  0
  5 16  1  0
  6 17  1  0
  8 18  1  0
M  END
