
     RDKit          3D

 17 20  0  0  0  0  0  0  0  0999 V2000
   -1.7128    0.5797    0.1156 C   0  0  0  0  0  0  0  0  0  0  0  0
   -1.3996   -0.8932   -0.0227 C   0  0  0  0  0  0  0  0  0  0  0  0
   -0.1857   -0.5783   -0.8217 C   0  0  0  0  0  0  0  0  0  0  0  0
   -0.1777    0.4516   -1.7531 O   0  0  0  0  0  0  0  0  0  0  0  0
   -0.3373    0.8663   -0.4557 C   0  0  0  0  0  0  0  0  0  0  0  0
    0.8059    1.1258    0.4520 C   0  0  0  0  0  0  0  0  0  0  0  0
    1.8188    0.0149    0.2570 C   0  0  0  0  0  0  0  0  0  0  0  0
    1.5151   -1.1467    0.9301 O   0  0  0  0  0  0  0  0  0  0  0  0
    1.1453   -1.0529   -0.3841 C   0  0  0  0  0  0  0  0  0  0  0  0
   -2.4754    0.8518   -0.6643 H   0  0  0  0  0  0  0  0  0  0  0  0
   -1.9047    0.9475    1.1239 H   0  0  0  0  0  0  0  0  0  0  0  0
   -1.1246   -1.2881    0.9957 H   0  0  0  0  0  0  0  0  0  0  0  0
   -2.1330   -1.4953   -0.5716 H   0  0  0  0  0  0  0  0  0  0  0  0
    1.2758    2.1120    0.3599 H   0  0  0  0  0  0  0  0  0  0  0  0
    0.4323    1.0550    1.5052 H   0  0  0  0  0  0  0  0  0  0  0  0
    2.8505    0.2743   -0.0134 H   0  0  0  0  0  0  0  0  0  0  0  0
    1.6071   -1.8244   -1.0529 H   0  0  0  0  0  0  0  0  0  0  0  0
  1  2  1  0
  2  3  1  0
  3  4  1  0
  4  5  1  0
  5  6  1  0
  6  7  1  0
  7  8  1  0
  8  9  1  0
  5  1  1  0
  9  7  1  0
  5  3  1  0
  9  3  1  0
  1 10  1  0
  1 11  1  0
  2 12  1  0
  2 13  1  0
  6 14  1  0
  6 15  1  0
  7 16  1  0
  9 17  1  0
M  END
