
     RDKit          3D

 19 21  0  0  0  0  0  0  0  0999 V2000
   -2.2233   -0.6128   -0.0450 C   0  0  0  0  0  0  0  0  0  0  0  0
   -1.1196   -0.2356    0.9420 C   0  0  0  0  0  0  0  0  0  0  0  0
   -0.4453    0.0466   -0.3354 C   0  0  0  0  0  0  0  0  0  0  0  0
   -0.3404    1.4516   -0.8034 C   0  0  0  0  0  0  0  0  0  0  0  0
    0.9245    1.1305   -1.3501 O   0  0  0  0  0  0  0  0  0  0  0  0
    0.9868    0.0922   -0.4564 C   0  0  0  0  0  0  0  0  0  0  0  0
    1.9619   -0.9624   -0.4362 C   0  0  0  0  0  0  0  0  0  0  0  0
    1.8959    0.0750    0.7049 C   0  0  0  0  0  0  0  0  0  0  0  0
   -1.2261   -0.8241   -1.0193 O   0  0  0  0  0  0  0  0  0  0  0  0
   -2.7664   -1.4963    0.2744 H   0  0  0  0  0  0  0  0  0  0  0  0
   -2.8611    0.2632   -0.2196 H   0  0  0  0  0  0  0  0  0  0  0  0
   -1.3482    0.6162    1.5924 H   0  0  0  0  0  0  0  0  0  0  0  0
   -0.7843   -1.1163    1.5115 H   0  0  0  0  0  0  0  0  0  0  0  0
   -0.1878    2.1496    0.0347 H   0  0  0  0  0  0  0  0  0  0  0  0
   -1.1042    1.7169   -1.5442 H   0  0  0  0  0  0  0  0  0  0  0  0
    2.8746   -0.8839   -1.0811 H   0  0  0  0  0  0  0  0  0  0  0  0
    1.5980   -1.9982   -0.1816 H   0  0  0  0  0  0  0  0  0  0  0  0
    1.4910   -0.2587    1.6682 H   0  0  0  0  0  0  0  0  0  0  0  0
    2.6741    0.8468    0.7441 H   0  0  0  0  0  0  0  0  0  0  0  0
  1  2  1  0
  2  3  1  0
  3  4  1  0
  4  5  1  0
  5  6  1  0
  6  7  1  0
  7  8  1  0
  3  9  1  0
  9  1  1  0
  6  3  1  0
  8  6  1  0
  1 10  1  0
  1 11  1  0
  2 12  1  0
  2 13  1  0
  4 14  1  0
  4 15  1  0
  7 16  1  0
  7 17  1  0
  8 18  1  0
  8 19  1  0
M  END
