
     RDKit          3D

 15 17  0  0  0  0  0  0  0  0999 V2000
    2.5954    0.0330   -0.3219 C   0  0  0  0  0  0  0  0  0  0  0  0
    1.7045    0.9247    0.2383 C   0  0  0  0  0  0  0  0  0  0  0  0
    0.4753    0.2788    0.3310 C   0  0  0  0  0  0  0  0  0  0  0  0
    0.6965   -0.9798   -0.1841 C   0  0  0  0  0  0  0  0  0  0  0  0
    1.9621   -1.0707   -0.5536 O   0  0  0  0  0  0  0  0  0  0  0  0
   -0.4876   -1.6730   -0.1205 O   0  0  0  0  0  0  0  0  0  0  0  0
   -1.4893   -0.9498    0.5361 C   0  0  0  0  0  0  0  0  0  0  0  0
   -2.0008    0.2703   -0.1781 C   0  0  0  0  0  0  0  0  0  0  0  0
   -0.9131    0.4588    0.7656 C   0  0  0  0  0  0  0  0  0  0  0  0
    3.6535    0.2698   -0.5174 H   0  0  0  0  0  0  0  0  0  0  0  0
    1.9027    1.9423    0.5545 H   0  0  0  0  0  0  0  0  0  0  0  0
   -2.0135   -1.3514    1.4078 H   0  0  0  0  0  0  0  0  0  0  0  0
   -1.9042    0.3387   -1.2787 H   0  0  0  0  0  0  0  0  0  0  0  0
   -3.0364    0.5521    0.1618 H   0  0  0  0  0  0  0  0  0  0  0  0
   -1.1450    0.9561    1.7301 H   0  0  0  0  0  0  0  0  0  0  0  0
  1  2  2  0
  2  3  1  0
  3  4  2  0
  4  5  1  0
  4  6  1  0
  6  7  1  0
  7  8  1  0
  8  9  1  0
  5  1  1  0
  9  7  1  0
  9  3  1  0
  1 10  1  0
  2 11  1  0
  7 12  1  0
  8 13  1  0
  8 14  1  0
  9 15  1  0
M  END
