
     RDKit          3D

 21 23  0  0  0  0  0  0  0  0999 V2000
    1.8192   -0.1992   -0.3427 C   0  0  0  0  0  0  0  0  0  0  0  0
    1.2058   -1.1440    0.6673 C   0  0  0  0  0  0  0  0  0  0  0  0
   -0.2847   -1.1038    0.5233 C   0  0  0  0  0  0  0  0  0  0  0  0
   -0.7561   -0.1640    1.4788 O   0  0  0  0  0  0  0  0  0  0  0  0
   -1.2696    0.8328    0.6968 C   0  0  0  0  0  0  0  0  0  0  0  0
   -2.1448    0.0392   -0.2879 C   0  0  0  0  0  0  0  0  0  0  0  0
   -0.7613   -0.4578   -0.7353 C   0  0  0  0  0  0  0  0  0  0  0  0
   -0.3308    0.9805   -0.5120 C   0  0  0  0  0  0  0  0  0  0  0  0
    1.1049    1.1326   -0.1840 C   0  0  0  0  0  0  0  0  0  0  0  0
    1.7287   -0.5577   -1.3824 H   0  0  0  0  0  0  0  0  0  0  0  0
    2.8738   -0.0468   -0.0364 H   0  0  0  0  0  0  0  0  0  0  0  0
    1.5261   -0.7600    1.6757 H   0  0  0  0  0  0  0  0  0  0  0  0
    1.5875   -2.1700    0.5956 H   0  0  0  0  0  0  0  0  0  0  0  0
   -0.7576   -2.0761    0.6326 H   0  0  0  0  0  0  0  0  0  0  0  0
   -1.6791    1.7179    1.1063 H   0  0  0  0  0  0  0  0  0  0  0  0
   -2.7723   -0.7220    0.1832 H   0  0  0  0  0  0  0  0  0  0  0  0
   -2.5770    0.6306   -1.0933 H   0  0  0  0  0  0  0  0  0  0  0  0
   -0.6647   -0.9023   -1.6790 H   0  0  0  0  0  0  0  0  0  0  0  0
   -0.7759    1.6340   -1.2595 H   0  0  0  0  0  0  0  0  0  0  0  0
    1.3180    1.4919    0.8363 H   0  0  0  0  0  0  0  0  0  0  0  0
    1.6098    1.8441   -0.8833 H   0  0  0  0  0  0  0  0  0  0  0  0
  1  2  1  0
  2  3  1  0
  3  4  1  0
  4  5  1  0
  5  6  1  0
  6  7  1  0
  7  8  1  0
  8  9  1  0
  9  1  1  0
  7  3  1  0
  8  5  1  0
  1 10  1  0
  1 11  1  0
  2 12  1  0
  2 13  1  0
  3 14  1  0
  5 15  1  0
  6 16  1  0
  6 17  1  0
  7 18  1  0
  8 19  1  0
  9 20  1  0
  9 21  1  0
M  END
