
     RDKit          3D

 18 20  0  0  0  0  0  0  0  0999 V2000
   -0.9793    1.0458    0.6887 C   0  0  0  0  0  0  0  0  0  0  0  0
   -1.0132   -0.4194    1.1643 C   0  0  0  0  0  0  0  0  0  0  0  0
   -0.1817   -1.0429    0.0662 C   0  0  0  0  0  0  0  0  0  0  0  0
   -0.8349   -0.3701   -1.1587 C   0  0  0  0  0  0  0  0  0  0  0  0
   -0.1510    0.8737   -0.5595 C   0  0  0  0  0  0  0  0  0  0  0  0
    0.8966   -0.0722   -0.1269 C   0  0  0  0  0  0  0  0  0  0  0  0
    2.2180   -0.0142    0.0614 C   0  0  0  0  0  0  0  0  0  0  0  0
    1.7532   -0.4587   -1.2810 O   0  0  0  0  0  0  0  0  0  0  0  0
   -1.9910    1.4167    0.4854 H   0  0  0  0  0  0  0  0  0  0  0  0
   -0.4524    1.6257    1.4483 H   0  0  0  0  0  0  0  0  0  0  0  0
   -2.0393   -0.7682    1.0479 H   0  0  0  0  0  0  0  0  0  0  0  0
   -0.5810   -0.5233    2.1606 H   0  0  0  0  0  0  0  0  0  0  0  0
   -0.0523   -2.0908    0.0307 H   0  0  0  0  0  0  0  0  0  0  0  0
   -1.9191   -0.3728   -1.0855 H   0  0  0  0  0  0  0  0  0  0  0  0
   -0.3601   -0.6406   -2.1003 H   0  0  0  0  0  0  0  0  0  0  0  0
    0.0322    1.6901   -1.2028 H   0  0  0  0  0  0  0  0  0  0  0  0
    2.8127    0.9286   -0.1190 H   0  0  0  0  0  0  0  0  0  0  0  0
    2.8426   -0.8074    0.4804 H   0  0  0  0  0  0  0  0  0  0  0  0
  1  2  1  0
  2  3  1  0
  3  4  1  0
  4  5  1  0
  5  6  1  0
  6  7  1  0
  7  8  1  0
  5  1  1  0
  8  6  1  0
  6  3  1  0
  1  9  1  0
  1 10  1  0
  2 11  1  0
  2 12  1  0
  3 13  1  0
  4 14  1  0
  4 15  1  0
  5 16  1  0
  7 17  1  0
  7 18  1  0
M  END
