
     RDKit          2D

 21 24  0  0  0  0  0  0  0  0999 V2000
   -0.9029    1.4266    0.0000 C   0  0  0  0  0  0  0  0  0  0  0  0
    0.5971    1.4266    0.0000 C   0  0  0  0  0  0  0  0  0  0  0  0
    1.0607    0.0000    0.0000 C   0  0  0  0  0  0  0  0  0  0  0  0
    2.3972   -0.6810    0.0000 C   0  0  0  0  0  0  0  0  0  0  0  0
    2.1625   -2.1625    0.0000 C   0  0  0  0  0  0  0  0  0  0  0  0
    0.6810   -2.3972    0.0000 C   0  0  0  0  0  0  0  0  0  0  0  0
   -0.0000   -1.0607    0.0000 C   0  0  0  0  0  0  0  0  0  0  0  0
   -1.0607    0.0000    0.0000 C   0  0  0  0  0  0  0  0  0  0  0  0
    0.0000    1.0607    0.0000 C   0  0  0  0  0  0  0  0  0  0  0  0
   -0.9291    2.9264    0.0000 H   0  0  0  0  0  0  0  0  0  0  0  0
   -2.3701    1.7385    0.0000 H   0  0  0  0  0  0  0  0  0  0  0  0
    2.0644    1.7385    0.0000 H   0  0  0  0  0  0  0  0  0  0  0  0
    0.6126    2.3122    0.0000 H   0  0  0  0  0  0  0  0  0  0  0  0
    2.9347    0.7194    0.0000 H   0  0  0  0  0  0  0  0  0  0  0  0
    3.8461   -1.0692    0.0000 H   0  0  0  0  0  0  0  0  0  0  0  0
    3.6605   -2.2410    0.0000 H   0  0  0  0  0  0  0  0  0  0  0  0
    2.2410   -3.6605    0.0000 H   0  0  0  0  0  0  0  0  0  0  0  0
    0.0000   -3.7337    0.0000 H   0  0  0  0  0  0  0  0  0  0  0  0
   -1.2135   -1.9423    0.0000 H   0  0  0  0  0  0  0  0  0  0  0  0
   -2.5607    0.0000    0.0000 H   0  0  0  0  0  0  0  0  0  0  0  0
    0.0000    1.8578    0.0000 H   0  0  0  0  0  0  0  0  0  0  0  0
  1  2  1  0
  2  3  1  0
  3  4  1  0
  4  5  1  0
  5  6  1  0
  6  7  1  0
  7  8  1  0
  8  9  1  0
  8  1  1  0
  7  3  1  0
  9  3  1  0
  9  6  1  0
  1 10  1  0
  1 11  1  0
  2 12  1  0
  2 13  1  0
  4 14  1  0
  4 15  1  0
  5 16  1  0
  5 17  1  0
  6 18  1  0
  7 19  1  0
  8 20  1  0
  9 21  1  0
M  END
