
     RDKit          3D

 19 21  0  0  0  0  0  0  0  0999 V2000
   -1.7387    0.3280    0.3841 C   0  0  0  0  0  0  0  0  0  0  0  0
   -0.6365    1.3260    0.0171 C   0  0  0  0  0  0  0  0  0  0  0  0
    0.2090    0.6713   -1.0493 C   0  0  0  0  0  0  0  0  0  0  0  0
   -0.4281   -0.4340   -1.6125 O   0  0  0  0  0  0  0  0  0  0  0  0
    0.0186   -1.1669   -0.4856 C   0  0  0  0  0  0  0  0  0  0  0  0
   -1.0154   -1.0098    0.5744 C   0  0  0  0  0  0  0  0  0  0  0  0
    1.1665   -0.2530   -0.4065 C   0  0  0  0  0  0  0  0  0  0  0  0
    2.1558   -0.0190    0.4807 C   0  0  0  0  0  0  0  0  0  0  0  0
    2.4075   -0.5228   -0.8916 O   0  0  0  0  0  0  0  0  0  0  0  0
   -2.4632    0.2775   -0.4379 H   0  0  0  0  0  0  0  0  0  0  0  0
   -2.2093    0.6003    1.3471 H   0  0  0  0  0  0  0  0  0  0  0  0
   -1.0483    2.2982   -0.2871 H   0  0  0  0  0  0  0  0  0  0  0  0
    0.0229    1.4589    0.9159 H   0  0  0  0  0  0  0  0  0  0  0  0
    0.6610    1.3821   -1.7371 H   0  0  0  0  0  0  0  0  0  0  0  0
    0.2151   -2.2343   -0.6949 H   0  0  0  0  0  0  0  0  0  0  0  0
   -1.8016   -1.7884    0.3955 H   0  0  0  0  0  0  0  0  0  0  0  0
   -0.6619   -1.1421    1.6014 H   0  0  0  0  0  0  0  0  0  0  0  0
    2.6137    0.9865    0.6518 H   0  0  0  0  0  0  0  0  0  0  0  0
    2.5331   -0.7586    1.2345 H   0  0  0  0  0  0  0  0  0  0  0  0
  1  2  1  0
  2  3  1  0
  3  4  1  0
  4  5  1  0
  5  6  1  0
  5  7  1  0
  7  8  1  0
  8  9  1  0
  6  1  1  0
  9  7  1  0
  7  3  1  0
  1 10  1  0
  1 11  1  0
  2 12  1  0
  2 13  1  0
  3 14  1  0
  5 15  1  0
  6 16  1  0
  6 17  1  0
  8 18  1  0
  8 19  1  0
M  END
