
     RDKit          3D

 21 23  0  0  0  0  0  0  0  0999 V2000
   -1.3518   -0.2478    0.7675 C   0  0  0  0  0  0  0  0  0  0  0  0
   -0.0718   -0.5890    1.4723 C   0  0  0  0  0  0  0  0  0  0  0  0
    1.0997   -0.3098    0.5421 C   0  0  0  0  0  0  0  0  0  0  0  0
    1.0488    1.1794    0.2438 C   0  0  0  0  0  0  0  0  0  0  0  0
   -0.1346    1.4083   -0.6600 C   0  0  0  0  0  0  0  0  0  0  0  0
   -1.0707    0.2019   -0.6493 C   0  0  0  0  0  0  0  0  0  0  0  0
   -0.3274   -0.9135   -1.3762 C   0  0  0  0  0  0  0  0  0  0  0  0
   -0.0132   -2.0701   -0.7075 O   0  0  0  0  0  0  0  0  0  0  0  0
    0.9764   -1.0989   -0.7453 C   0  0  0  0  0  0  0  0  0  0  0  0
   -1.9418    0.5440    1.2774 H   0  0  0  0  0  0  0  0  0  0  0  0
   -2.0030   -1.1442    0.6899 H   0  0  0  0  0  0  0  0  0  0  0  0
   -0.0838   -1.6510    1.7643 H   0  0  0  0  0  0  0  0  0  0  0  0
    0.0786    0.0662    2.3600 H   0  0  0  0  0  0  0  0  0  0  0  0
    2.0555   -0.6131    1.0081 H   0  0  0  0  0  0  0  0  0  0  0  0
    1.9879    1.5611   -0.1514 H   0  0  0  0  0  0  0  0  0  0  0  0
    0.8553    1.6727    1.2390 H   0  0  0  0  0  0  0  0  0  0  0  0
   -0.7417    2.2767   -0.3917 H   0  0  0  0  0  0  0  0  0  0  0  0
    0.2830    1.4918   -1.7037 H   0  0  0  0  0  0  0  0  0  0  0  0
   -1.9986    0.4930   -1.1607 H   0  0  0  0  0  0  0  0  0  0  0  0
   -0.5125   -1.0504   -2.4599 H   0  0  0  0  0  0  0  0  0  0  0  0
    1.8657   -1.2073   -1.3588 H   0  0  0  0  0  0  0  0  0  0  0  0
  1  2  1  0
  2  3  1  0
  3  4  1  0
  4  5  1  0
  5  6  1  0
  6  7  1  0
  7  8  1  0
  8  9  1  0
  6  1  1  0
  9  7  1  0
  9  3  1  0
  1 10  1  0
  1 11  1  0
  2 12  1  0
  2 13  1  0
  3 14  1  0
  4 15  1  0
  4 16  1  0
  5 17  1  0
  5 18  1  0
  6 19  1  0
  7 20  1  0
  9 21  1  0
M  END
