
     RDKit          3D

 21 22  0  0  0  0  0  0  0  0999 V2000
   -1.5589    0.9327    0.2942 C   0  0  0  0  0  0  0  0  0  0  0  0
   -1.5943   -0.4820    0.7593 C   0  0  0  0  0  0  0  0  0  0  0  0
   -0.2460   -1.1730    0.5256 C   0  0  0  0  0  0  0  0  0  0  0  0
    0.0166   -1.0330   -0.9523 C   0  0  0  0  0  0  0  0  0  0  0  0
    0.1570    0.4451   -1.2023 C   0  0  0  0  0  0  0  0  0  0  0  0
    1.4072    0.8551   -0.4877 C   0  0  0  0  0  0  0  0  0  0  0  0
    1.6602    0.1446    0.7869 C   0  0  0  0  0  0  0  0  0  0  0  0
    0.6833   -0.6128    1.3102 O   0  0  0  0  0  0  0  0  0  0  0  0
   -0.9535    1.1753   -0.8864 O   0  0  0  0  0  0  0  0  0  0  0  0
   -2.6223    1.2913    0.2176 H   0  0  0  0  0  0  0  0  0  0  0  0
   -1.1141    1.5874    1.0995 H   0  0  0  0  0  0  0  0  0  0  0  0
   -1.8162   -0.4713    1.8623 H   0  0  0  0  0  0  0  0  0  0  0  0
   -2.3844   -1.0452    0.2514 H   0  0  0  0  0  0  0  0  0  0  0  0
   -0.4048   -2.2404    0.7333 H   0  0  0  0  0  0  0  0  0  0  0  0
    0.9977   -1.5028   -1.1606 H   0  0  0  0  0  0  0  0  0  0  0  0
   -0.7411   -1.5215   -1.5597 H   0  0  0  0  0  0  0  0  0  0  0  0
    0.3164    0.5530   -2.3150 H   0  0  0  0  0  0  0  0  0  0  0  0
    1.4128    1.9807   -0.3885 H   0  0  0  0  0  0  0  0  0  0  0  0
    2.2657    0.6451   -1.1844 H   0  0  0  0  0  0  0  0  0  0  0  0
    2.6085   -0.4699    0.7457 H   0  0  0  0  0  0  0  0  0  0  0  0
    1.9104    0.9418    1.5512 H   0  0  0  0  0  0  0  0  0  0  0  0
  1  2  1  0
  2  3  1  0
  3  4  1  0
  4  5  1  0
  5  6  1  0
  6  7  1  0
  7  8  1  0
  5  9  1  0
  9  1  1  0
  8  3  1  0
  1 10  1  0
  1 11  1  0
  2 12  1  0
  2 13  1  0
  3 14  1  0
  4 15  1  0
  4 16  1  0
  5 17  1  0
  6 18  1  0
  6 19  1  0
  7 20  1  0
  7 21  1  0
M  END
