
     RDKit          3D

 19 21  0  0  0  0  0  0  0  0999 V2000
   -2.3811   -0.6851   -0.4334 C   0  0  0  0  0  0  0  0  0  0  0  0
   -2.0596    0.7439   -0.0917 C   0  0  0  0  0  0  0  0  0  0  0  0
   -1.2384   -0.3927    0.4320 C   0  0  0  0  0  0  0  0  0  0  0  0
    0.1848   -0.4895   -0.0371 C   0  0  0  0  0  0  0  0  0  0  0  0
    0.4732    0.3533   -1.1007 O   0  0  0  0  0  0  0  0  0  0  0  0
    1.8668    0.2296   -1.1817 C   0  0  0  0  0  0  0  0  0  0  0  0
    2.3961    0.2912    0.2108 C   0  0  0  0  0  0  0  0  0  0  0  0
    2.3237   -0.7585    1.0778 O   0  0  0  0  0  0  0  0  0  0  0  0
    1.1416   -0.0390    1.0171 C   0  0  0  0  0  0  0  0  0  0  0  0
   -3.3133   -1.1012    0.0495 H   0  0  0  0  0  0  0  0  0  0  0  0
   -2.2970   -0.9813   -1.4842 H   0  0  0  0  0  0  0  0  0  0  0  0
   -2.7026    1.2913    0.6144 H   0  0  0  0  0  0  0  0  0  0  0  0
   -1.6977    1.3705   -0.9294 H   0  0  0  0  0  0  0  0  0  0  0  0
   -1.3566   -0.5919    1.5230 H   0  0  0  0  0  0  0  0  0  0  0  0
    0.3789   -1.5539   -0.3005 H   0  0  0  0  0  0  0  0  0  0  0  0
    2.1402   -0.6900   -1.7359 H   0  0  0  0  0  0  0  0  0  0  0  0
    2.2155    1.1479   -1.7143 H   0  0  0  0  0  0  0  0  0  0  0  0
    3.0331    1.1308    0.5407 H   0  0  0  0  0  0  0  0  0  0  0  0
    0.8923    0.7246    1.7508 H   0  0  0  0  0  0  0  0  0  0  0  0
  1  2  1  0
  2  3  1  0
  3  4  1  0
  4  5  1  0
  5  6  1  0
  6  7  1  0
  7  8  1  0
  8  9  1  0
  3  1  1  0
  9  4  1  0
  9  7  1  0
  1 10  1  0
  1 11  1  0
  2 12  1  0
  2 13  1  0
  3 14  1  0
  4 15  1  0
  6 16  1  0
  6 17  1  0
  7 18  1  0
  9 19  1  0
M  END
