
     RDKit          3D

 19 21  0  0  0  0  0  0  0  0999 V2000
    1.9364    0.4567   -0.5371 C   0  0  0  0  0  0  0  0  0  0  0  0
    0.9963    1.0597    0.4930 C   0  0  0  0  0  0  0  0  0  0  0  0
    0.2155   -0.1414    0.9110 C   0  0  0  0  0  0  0  0  0  0  0  0
   -1.2808    0.0762    0.8560 C   0  0  0  0  0  0  0  0  0  0  0  0
   -1.6218    0.3252   -0.5770 C   0  0  0  0  0  0  0  0  0  0  0  0
   -1.1558   -1.1030   -0.6431 C   0  0  0  0  0  0  0  0  0  0  0  0
   -1.7197   -1.2531    0.6464 O   0  0  0  0  0  0  0  0  0  0  0  0
    0.3164   -1.0698   -0.3158 C   0  0  0  0  0  0  0  0  0  0  0  0
    1.0748   -0.3966   -1.2411 O   0  0  0  0  0  0  0  0  0  0  0  0
    2.6978   -0.1146    0.0466 H   0  0  0  0  0  0  0  0  0  0  0  0
    2.3640    1.2009   -1.2129 H   0  0  0  0  0  0  0  0  0  0  0  0
    1.5242    1.4543    1.3742 H   0  0  0  0  0  0  0  0  0  0  0  0
    0.3868    1.8817    0.0843 H   0  0  0  0  0  0  0  0  0  0  0  0
    0.5641   -0.6531    1.7955 H   0  0  0  0  0  0  0  0  0  0  0  0
   -1.7535    0.6324    1.6319 H   0  0  0  0  0  0  0  0  0  0  0  0
   -2.7145    0.4031   -0.7079 H   0  0  0  0  0  0  0  0  0  0  0  0
   -1.0143    1.0379   -1.1348 H   0  0  0  0  0  0  0  0  0  0  0  0
   -1.5104   -1.7433   -1.4133 H   0  0  0  0  0  0  0  0  0  0  0  0
    0.6946   -2.0533   -0.0558 H   0  0  0  0  0  0  0  0  0  0  0  0
  1  2  1  0
  2  3  1  0
  3  4  1  0
  4  5  1  0
  5  6  1  0
  6  7  1  0
  6  8  1  0
  8  9  1  0
  9  1  1  0
  8  3  1  0
  7  4  1  0
  1 10  1  0
  1 11  1  0
  2 12  1  0
  2 13  1  0
  3 14  1  0
  4 15  1  0
  5 16  1  0
  5 17  1  0
  6 18  1  0
  8 19  1  0
M  END
