
     RDKit          3D

 19 21  0  0  0  0  0  0  0  0999 V2000
    2.5774   -0.6688    0.1513 C   0  0  0  0  0  0  0  0  0  0  0  0
    1.7693    0.6043    0.2688 C   0  0  0  0  0  0  0  0  0  0  0  0
    0.7146   -0.3792   -0.2653 C   0  0  0  0  0  0  0  0  0  0  0  0
   -0.5923   -0.0731    0.0514 C   0  0  0  0  0  0  0  0  0  0  0  0
   -1.7483   -1.0413    0.0691 C   0  0  0  0  0  0  0  0  0  0  0  0
   -2.2608    0.2940    0.4973 C   0  0  0  0  0  0  0  0  0  0  0  0
   -1.4886    0.8972   -0.6250 C   0  0  0  0  0  0  0  0  0  0  0  0
   -1.0811    0.3983    1.2519 O   0  0  0  0  0  0  0  0  0  0  0  0
    1.4030   -1.3610    0.4474 O   0  0  0  0  0  0  0  0  0  0  0  0
    2.8673   -0.8292   -0.9052 H   0  0  0  0  0  0  0  0  0  0  0  0
    3.3840   -0.7794    0.9000 H   0  0  0  0  0  0  0  0  0  0  0  0
    2.0562    1.3821   -0.4570 H   0  0  0  0  0  0  0  0  0  0  0  0
    1.5296    0.9307    1.2876 H   0  0  0  0  0  0  0  0  0  0  0  0
    0.9382   -0.5184   -1.3515 H   0  0  0  0  0  0  0  0  0  0  0  0
   -1.7097   -1.7896    0.8590 H   0  0  0  0  0  0  0  0  0  0  0  0
   -2.0836   -1.4109   -0.9194 H   0  0  0  0  0  0  0  0  0  0  0  0
   -3.1841    0.5307    0.8228 H   0  0  0  0  0  0  0  0  0  0  0  0
   -1.2989    1.9808   -0.4387 H   0  0  0  0  0  0  0  0  0  0  0  0
   -1.7923    0.6265   -1.6444 H   0  0  0  0  0  0  0  0  0  0  0  0
  1  2  1  0
  2  3  1  0
  3  4  1  0
  4  5  1  0
  5  6  1  0
  6  7  1  0
  6  8  1  0
  3  9  1  0
  9  1  1  0
  7  4  1  0
  8  4  1  0
  1 10  1  0
  1 11  1  0
  2 12  1  0
  2 13  1  0
  3 14  1  0
  5 15  1  0
  5 16  1  0
  6 17  1  0
  7 18  1  0
  7 19  1  0
M  END
