
     RDKit          3D

 23 25  0  0  0  0  0  0  0  0999 V2000
    2.6167   -0.2539    0.2641 C   0  0  0  0  0  0  0  0  0  0  0  0
    1.9648    0.7842    1.1004 C   0  0  0  0  0  0  0  0  0  0  0  0
    1.4001    0.5006   -0.2118 C   0  0  0  0  0  0  0  0  0  0  0  0
    0.1821   -0.3436   -0.4330 C   0  0  0  0  0  0  0  0  0  0  0  0
   -0.2977   -1.0643    0.7809 C   0  0  0  0  0  0  0  0  0  0  0  0
   -1.7786   -1.2658    0.4382 C   0  0  0  0  0  0  0  0  0  0  0  0
   -2.1725    0.0846   -0.0372 C   0  0  0  0  0  0  0  0  0  0  0  0
   -1.5207    1.3284    0.3938 C   0  0  0  0  0  0  0  0  0  0  0  0
   -0.9635    0.5773   -0.7888 C   0  0  0  0  0  0  0  0  0  0  0  0
    2.5019   -1.3204    0.5712 H   0  0  0  0  0  0  0  0  0  0  0  0
    3.5300   -0.0547   -0.3130 H   0  0  0  0  0  0  0  0  0  0  0  0
    1.5069    0.4811    2.0610 H   0  0  0  0  0  0  0  0  0  0  0  0
    2.5488    1.7411    1.2144 H   0  0  0  0  0  0  0  0  0  0  0  0
    1.5470    1.2739   -1.0126 H   0  0  0  0  0  0  0  0  0  0  0  0
    0.3043   -1.0761   -1.2493 H   0  0  0  0  0  0  0  0  0  0  0  0
    0.1729   -2.0772    0.9063 H   0  0  0  0  0  0  0  0  0  0  0  0
   -0.2487   -0.4968    1.7112 H   0  0  0  0  0  0  0  0  0  0  0  0
   -1.7636   -1.9456   -0.4641 H   0  0  0  0  0  0  0  0  0  0  0  0
   -2.3502   -1.6678    1.2702 H   0  0  0  0  0  0  0  0  0  0  0  0
   -3.1749    0.1580   -0.5190 H   0  0  0  0  0  0  0  0  0  0  0  0
   -2.0300    2.2689    0.1307 H   0  0  0  0  0  0  0  0  0  0  0  0
   -0.8994    1.4054    1.3000 H   0  0  0  0  0  0  0  0  0  0  0  0
   -1.0756    0.9628   -1.8042 H   0  0  0  0  0  0  0  0  0  0  0  0
  1  2  1  0
  2  3  1  0
  3  4  1  0
  4  5  1  0
  5  6  1  0
  6  7  1  0
  7  8  1  0
  8  9  1  0
  3  1  1  0
  9  4  1  0
  9  7  1  0
  1 10  1  0
  1 11  1  0
  2 12  1  0
  2 13  1  0
  3 14  1  0
  4 15  1  0
  5 16  1  0
  5 17  1  0
  6 18  1  0
  6 19  1  0
  7 20  1  0
  8 21  1  0
  8 22  1  0
  9 23  1  0
M  END
