
     RDKit          3D

 21 23  0  0  0  0  0  0  0  0999 V2000
    1.4977    1.0928   -0.3537 C   0  0  0  0  0  0  0  0  0  0  0  0
    1.8489   -0.3631   -0.0736 C   0  0  0  0  0  0  0  0  0  0  0  0
    0.6979   -1.2728   -0.2638 C   0  0  0  0  0  0  0  0  0  0  0  0
   -0.5633   -0.6498   -0.7185 C   0  0  0  0  0  0  0  0  0  0  0  0
   -1.5384   -1.3687   -1.3464 O   0  0  0  0  0  0  0  0  0  0  0  0
   -1.8135   -1.1676    0.0035 C   0  0  0  0  0  0  0  0  0  0  0  0
   -2.0527    0.2352    0.5108 C   0  0  0  0  0  0  0  0  0  0  0  0
   -0.8723    0.7035   -0.2457 C   0  0  0  0  0  0  0  0  0  0  0  0
    0.2472    1.3451    0.5023 C   0  0  0  0  0  0  0  0  0  0  0  0
    2.3102    1.7621   -0.0982 H   0  0  0  0  0  0  0  0  0  0  0  0
    1.2367    1.1665   -1.4287 H   0  0  0  0  0  0  0  0  0  0  0  0
    2.7700   -0.6708   -0.6443 H   0  0  0  0  0  0  0  0  0  0  0  0
    2.1905   -0.3734    1.0039 H   0  0  0  0  0  0  0  0  0  0  0  0
    0.5634   -1.8976    0.6685 H   0  0  0  0  0  0  0  0  0  0  0  0
    0.9962   -2.0394   -1.0408 H   0  0  0  0  0  0  0  0  0  0  0  0
   -1.6978   -1.9991    0.7198 H   0  0  0  0  0  0  0  0  0  0  0  0
   -2.0458    0.2853    1.5965 H   0  0  0  0  0  0  0  0  0  0  0  0
   -3.0479    0.5854    0.1130 H   0  0  0  0  0  0  0  0  0  0  0  0
   -1.1956    1.3920   -1.0815 H   0  0  0  0  0  0  0  0  0  0  0  0
    0.3496    0.8244    1.4853 H   0  0  0  0  0  0  0  0  0  0  0  0
    0.1189    2.4099    0.6914 H   0  0  0  0  0  0  0  0  0  0  0  0
  1  2  1  0
  2  3  1  0
  3  4  1  0
  4  5  1  0
  5  6  1  0
  6  7  1  0
  7  8  1  0
  8  9  1  0
  9  1  1  0
  6  4  1  0
  8  4  1  0
  1 10  1  0
  1 11  1  0
  2 12  1  0
  2 13  1  0
  3 14  1  0
  3 15  1  0
  6 16  1  0
  7 17  1  0
  7 18  1  0
  8 19  1  0
  9 20  1  0
  9 21  1  0
M  END
