
     RDKit          3D

 21 22  0  0  0  0  0  0  0  0999 V2000
   -1.4369    0.8496    0.4412 C   0  0  0  0  0  0  0  0  0  0  0  0
   -0.4080    1.3368   -0.4953 C   0  0  0  0  0  0  0  0  0  0  0  0
    0.3297    0.3104   -1.2683 C   0  0  0  0  0  0  0  0  0  0  0  0
   -0.0729   -1.0937   -0.8524 C   0  0  0  0  0  0  0  0  0  0  0  0
    0.1107   -1.1141    0.6476 C   0  0  0  0  0  0  0  0  0  0  0  0
   -1.1268   -0.3866    1.1971 C   0  0  0  0  0  0  0  0  0  0  0  0
    1.1879   -0.4093    1.0870 O   0  0  0  0  0  0  0  0  0  0  0  0
    2.1070   -0.0205    0.1815 C   0  0  0  0  0  0  0  0  0  0  0  0
    1.6789    0.4296   -1.0215 O   0  0  0  0  0  0  0  0  0  0  0  0
   -2.4044    0.7114   -0.1081 H   0  0  0  0  0  0  0  0  0  0  0  0
   -1.6290    1.6685    1.1970 H   0  0  0  0  0  0  0  0  0  0  0  0
   -0.9158    2.0194   -1.2403 H   0  0  0  0  0  0  0  0  0  0  0  0
    0.2998    2.0246    0.0493 H   0  0  0  0  0  0  0  0  0  0  0  0
    0.1851    0.3888   -2.3733 H   0  0  0  0  0  0  0  0  0  0  0  0
    0.4847   -1.8643   -1.3758 H   0  0  0  0  0  0  0  0  0  0  0  0
   -1.1595   -1.2462   -1.0772 H   0  0  0  0  0  0  0  0  0  0  0  0
    0.1044   -2.1763    0.9642 H   0  0  0  0  0  0  0  0  0  0  0  0
   -0.9134   -0.2129    2.2650 H   0  0  0  0  0  0  0  0  0  0  0  0
   -1.9656   -1.1351    1.1363 H   0  0  0  0  0  0  0  0  0  0  0  0
    2.7318    0.8003    0.6466 H   0  0  0  0  0  0  0  0  0  0  0  0
    2.8124   -0.8804   -0.0004 H   0  0  0  0  0  0  0  0  0  0  0  0
  1  2  1  0
  2  3  1  0
  3  4  1  0
  4  5  1  0
  5  6  1  0
  5  7  1  0
  7  8  1  0
  8  9  1  0
  6  1  1  0
  9  3  1  0
  1 10  1  0
  1 11  1  0
  2 12  1  0
  2 13  1  0
  3 14  1  0
  4 15  1  0
  4 16  1  0
  5 17  1  0
  6 18  1  0
  6 19  1  0
  8 20  1  0
  8 21  1  0
M  END
