
     RDKit          3D

 21 23  0  0  0  0  0  0  0  0999 V2000
    1.2669   -1.1634    0.1440 C   0  0  0  0  0  0  0  0  0  0  0  0
    1.9119    0.1941    0.3149 C   0  0  0  0  0  0  0  0  0  0  0  0
    0.7052    1.1092    0.2407 C   0  0  0  0  0  0  0  0  0  0  0  0
   -0.1694    0.9303    1.2871 O   0  0  0  0  0  0  0  0  0  0  0  0
   -1.3596    0.4284    0.8112 C   0  0  0  0  0  0  0  0  0  0  0  0
   -1.1712   -1.0284    0.4261 C   0  0  0  0  0  0  0  0  0  0  0  0
   -0.0421   -0.9260   -0.6112 C   0  0  0  0  0  0  0  0  0  0  0  0
   -0.0191    0.5164   -0.9634 C   0  0  0  0  0  0  0  0  0  0  0  0
   -1.4211    1.0334   -0.6061 C   0  0  0  0  0  0  0  0  0  0  0  0
    1.9229   -1.8666   -0.4061 H   0  0  0  0  0  0  0  0  0  0  0  0
    1.0726   -1.5593    1.1605 H   0  0  0  0  0  0  0  0  0  0  0  0
    2.4743    0.2947    1.2405 H   0  0  0  0  0  0  0  0  0  0  0  0
    2.5161    0.3889   -0.6040 H   0  0  0  0  0  0  0  0  0  0  0  0
    0.9741    2.1497    0.0420 H   0  0  0  0  0  0  0  0  0  0  0  0
   -2.2329    0.6338    1.3950 H   0  0  0  0  0  0  0  0  0  0  0  0
   -0.8655   -1.5725    1.3177 H   0  0  0  0  0  0  0  0  0  0  0  0
   -2.0988   -1.4304   -0.0507 H   0  0  0  0  0  0  0  0  0  0  0  0
   -0.1772   -1.6206   -1.4359 H   0  0  0  0  0  0  0  0  0  0  0  0
    0.3399    0.8129   -1.9113 H   0  0  0  0  0  0  0  0  0  0  0  0
   -1.4330    2.1205   -0.5846 H   0  0  0  0  0  0  0  0  0  0  0  0
   -2.1942    0.5550   -1.2064 H   0  0  0  0  0  0  0  0  0  0  0  0
  1  2  1  0
  2  3  1  0
  3  4  1  0
  4  5  1  0
  5  6  1  0
  6  7  1  0
  7  8  1  0
  8  9  1  0
  7  1  1  0
  8  3  1  0
  9  5  1  0
  1 10  1  0
  1 11  1  0
  2 12  1  0
  2 13  1  0
  3 14  1  0
  5 15  1  0
  6 16  1  0
  6 17  1  0
  7 18  1  0
  8 19  1  0
  9 20  1  0
  9 21  1  0
M  END
