
     RDKit          3D

 15 17  0  0  0  0  0  0  0  0999 V2000
    2.3553    0.6414   -0.2121 C   0  0  0  0  0  0  0  0  0  0  0  0
    1.8674   -0.6466   -0.1797 C   0  0  0  0  0  0  0  0  0  0  0  0
    0.5054   -0.5304   -0.0539 C   0  0  0  0  0  0  0  0  0  0  0  0
    0.2230    0.8199   -0.0151 C   0  0  0  0  0  0  0  0  0  0  0  0
    1.3508    1.4709   -0.1122 O   0  0  0  0  0  0  0  0  0  0  0  0
   -1.2228    1.0268    0.1194 C   0  0  0  0  0  0  0  0  0  0  0  0
   -1.8323   -0.3167    0.3265 C   0  0  0  0  0  0  0  0  0  0  0  0
   -1.3866   -1.1820    1.2934 O   0  0  0  0  0  0  0  0  0  0  0  0
   -0.7573   -1.2803    0.0546 C   0  0  0  0  0  0  0  0  0  0  0  0
    3.3769    0.9400   -0.3028 H   0  0  0  0  0  0  0  0  0  0  0  0
    2.4700   -1.5545   -0.2436 H   0  0  0  0  0  0  0  0  0  0  0  0
   -1.5957    1.4237   -0.8656 H   0  0  0  0  0  0  0  0  0  0  0  0
   -1.4988    1.7693    0.8931 H   0  0  0  0  0  0  0  0  0  0  0  0
   -2.8629   -0.4754   -0.0742 H   0  0  0  0  0  0  0  0  0  0  0  0
   -0.9923   -2.1061   -0.6278 H   0  0  0  0  0  0  0  0  0  0  0  0
  1  2  2  0
  2  3  1  0
  3  4  2  0
  4  5  1  0
  4  6  1  0
  6  7  1  0
  7  8  1  0
  8  9  1  0
  5  1  1  0
  9  7  1  0
  9  3  1  0
  1 10  1  0
  2 11  1  0
  6 12  1  0
  6 13  1  0
  7 14  1  0
  9 15  1  0
M  END
