
     RDKit          3D

 21 23  0  0  0  0  0  0  0  0999 V2000
   -1.8402    0.2497   -0.8907 C   0  0  0  0  0  0  0  0  0  0  0  0
   -0.3869    0.7469   -1.0543 C   0  0  0  0  0  0  0  0  0  0  0  0
    0.2034    0.1599    0.2004 C   0  0  0  0  0  0  0  0  0  0  0  0
    1.5826    0.3596    0.5438 C   0  0  0  0  0  0  0  0  0  0  0  0
    2.7071   -0.0475   -0.2525 C   0  0  0  0  0  0  0  0  0  0  0  0
    2.3573   -0.8784    0.9130 O   0  0  0  0  0  0  0  0  0  0  0  0
   -0.3647   -1.2540    0.1381 C   0  0  0  0  0  0  0  0  0  0  0  0
   -1.6938   -0.5232    0.3754 C   0  0  0  0  0  0  0  0  0  0  0  0
   -0.8784    0.4343    1.2243 C   0  0  0  0  0  0  0  0  0  0  0  0
   -2.1600   -0.3253   -1.7604 H   0  0  0  0  0  0  0  0  0  0  0  0
   -2.4777    1.1670   -0.7593 H   0  0  0  0  0  0  0  0  0  0  0  0
   -0.3492    1.8353   -1.0969 H   0  0  0  0  0  0  0  0  0  0  0  0
    0.0140    0.2453   -1.9582 H   0  0  0  0  0  0  0  0  0  0  0  0
    1.8001    1.0760    1.3914 H   0  0  0  0  0  0  0  0  0  0  0  0
    2.6444   -0.6203   -1.1746 H   0  0  0  0  0  0  0  0  0  0  0  0
    3.6974    0.4563   -0.1145 H   0  0  0  0  0  0  0  0  0  0  0  0
   -0.3574   -1.6469   -0.8756 H   0  0  0  0  0  0  0  0  0  0  0  0
   -0.0817   -1.9121    0.9644 H   0  0  0  0  0  0  0  0  0  0  0  0
   -2.4902   -1.0600    0.8069 H   0  0  0  0  0  0  0  0  0  0  0  0
   -0.6641    0.0777    2.2466 H   0  0  0  0  0  0  0  0  0  0  0  0
   -1.2620    1.4598    1.1326 H   0  0  0  0  0  0  0  0  0  0  0  0
  1  2  1  0
  2  3  1  0
  3  4  1  0
  4  5  1  0
  5  6  1  0
  3  7  1  0
  7  8  1  0
  8  9  1  0
  8  1  1  0
  9  3  1  0
  6  4  1  0
  1 10  1  0
  1 11  1  0
  2 12  1  0
  2 13  1  0
  4 14  1  0
  5 15  1  0
  5 16  1  0
  7 17  1  0
  7 18  1  0
  8 19  1  0
  9 20  1  0
  9 21  1  0
M  END
