
     RDKit          3D

 19 21  0  0  0  0  0  0  0  0999 V2000
   -2.2833   -0.0012    0.3371 C   0  0  0  0  0  0  0  0  0  0  0  0
   -1.0306    0.9027    0.3173 C   0  0  0  0  0  0  0  0  0  0  0  0
   -0.0066   -0.0888    0.0962 C   0  0  0  0  0  0  0  0  0  0  0  0
    1.1755   -0.0317    0.8662 C   0  0  0  0  0  0  0  0  0  0  0  0
    2.2231    0.2811   -0.2234 C   0  0  0  0  0  0  0  0  0  0  0  0
    1.5100    0.0393   -1.4273 O   0  0  0  0  0  0  0  0  0  0  0  0
    0.5683   -0.8821   -0.9882 C   0  0  0  0  0  0  0  0  0  0  0  0
   -0.7776   -0.8405   -0.8900 C   0  0  0  0  0  0  0  0  0  0  0  0
   -1.7332   -1.2742    0.0099 O   0  0  0  0  0  0  0  0  0  0  0  0
   -2.9419    0.3566   -0.4908 H   0  0  0  0  0  0  0  0  0  0  0  0
   -2.7578   -0.0035    1.3167 H   0  0  0  0  0  0  0  0  0  0  0  0
   -1.0831    1.6322   -0.5057 H   0  0  0  0  0  0  0  0  0  0  0  0
   -0.9431    1.3383    1.3110 H   0  0  0  0  0  0  0  0  0  0  0  0
    1.1480    0.7261    1.6425 H   0  0  0  0  0  0  0  0  0  0  0  0
    1.5196   -0.9983    1.3392 H   0  0  0  0  0  0  0  0  0  0  0  0
    3.0964   -0.3654   -0.1427 H   0  0  0  0  0  0  0  0  0  0  0  0
    2.5364    1.3317   -0.1592 H   0  0  0  0  0  0  0  0  0  0  0  0
    1.0930   -1.8410   -0.6800 H   0  0  0  0  0  0  0  0  0  0  0  0
   -1.3132   -0.2812   -1.7286 H   0  0  0  0  0  0  0  0  0  0  0  0
  1  2  1  0
  2  3  1  0
  3  4  1  0
  4  5  1  0
  5  6  1  0
  6  7  1  0
  7  8  1  0
  8  9  1  0
  9  1  1  0
  7  3  1  0
  8  3  1  0
  1 10  1  0
  1 11  1  0
  2 12  1  0
  2 13  1  0
  4 14  1  0
  4 15  1  0
  5 16  1  0
  5 17  1  0
  7 18  1  0
  8 19  1  0
M  END
