
     RDKit          3D

 19 21  0  0  0  0  0  0  0  0999 V2000
    1.9287    0.1885   -0.2224 C   0  0  0  0  0  0  0  0  0  0  0  0
    1.0350   -1.0196   -0.5027 C   0  0  0  0  0  0  0  0  0  0  0  0
   -0.0818   -0.9522    0.4895 C   0  0  0  0  0  0  0  0  0  0  0  0
   -1.3275   -1.3411    0.0448 O   0  0  0  0  0  0  0  0  0  0  0  0
   -2.1173   -0.1604   -0.0586 C   0  0  0  0  0  0  0  0  0  0  0  0
   -1.0704    0.7941   -0.5396 C   0  0  0  0  0  0  0  0  0  0  0  0
    0.0331    1.5250   -0.0317 C   0  0  0  0  0  0  0  0  0  0  0  0
    1.3754    1.4043   -0.4885 O   0  0  0  0  0  0  0  0  0  0  0  0
   -0.2751    0.4735    0.7957 C   0  0  0  0  0  0  0  0  0  0  0  0
    2.8770    0.1026   -0.7410 H   0  0  0  0  0  0  0  0  0  0  0  0
    2.1466    0.1632    0.8830 H   0  0  0  0  0  0  0  0  0  0  0  0
    1.6699   -1.9039   -0.1909 H   0  0  0  0  0  0  0  0  0  0  0  0
    0.7599   -1.1211   -1.5431 H   0  0  0  0  0  0  0  0  0  0  0  0
    0.1364   -1.5134    1.4158 H   0  0  0  0  0  0  0  0  0  0  0  0
   -2.9003   -0.2458   -0.8003 H   0  0  0  0  0  0  0  0  0  0  0  0
   -2.5268    0.0688    0.9311 H   0  0  0  0  0  0  0  0  0  0  0  0
   -0.7004    0.2900   -1.4897 H   0  0  0  0  0  0  0  0  0  0  0  0
   -0.1368    2.5782    0.3111 H   0  0  0  0  0  0  0  0  0  0  0  0
   -0.8256    0.6692    1.7377 H   0  0  0  0  0  0  0  0  0  0  0  0
  1  2  1  0
  2  3  1  0
  3  4  1  0
  4  5  1  0
  5  6  1  0
  6  7  1  0
  7  8  1  0
  7  9  1  0
  8  1  1  0
  9  3  1  0
  9  6  1  0
  1 10  1  0
  1 11  1  0
  2 12  1  0
  2 13  1  0
  3 14  1  0
  5 15  1  0
  5 16  1  0
  6 17  1  0
  7 18  1  0
  9 19  1  0
M  END
