
     RDKit          3D

 21 23  0  0  0  0  0  0  0  0999 V2000
   -1.5367   -1.1049    0.0045 C   0  0  0  0  0  0  0  0  0  0  0  0
   -1.6171    0.3897    0.1568 C   0  0  0  0  0  0  0  0  0  0  0  0
   -0.4669    0.9860    0.9149 C   0  0  0  0  0  0  0  0  0  0  0  0
    0.5468    1.6552   -0.0077 C   0  0  0  0  0  0  0  0  0  0  0  0
    1.2598    0.5307   -0.6552 C   0  0  0  0  0  0  0  0  0  0  0  0
    2.1999   -0.3787   -0.0163 C   0  0  0  0  0  0  0  0  0  0  0  0
    0.8168   -0.6231    0.2584 C   0  0  0  0  0  0  0  0  0  0  0  0
   -0.1224   -1.5404   -0.4194 C   0  0  0  0  0  0  0  0  0  0  0  0
    0.2964   -0.0621    1.4029 O   0  0  0  0  0  0  0  0  0  0  0  0
   -1.6967   -1.5739    1.0075 H   0  0  0  0  0  0  0  0  0  0  0  0
   -2.2904   -1.4160   -0.7367 H   0  0  0  0  0  0  0  0  0  0  0  0
   -2.5378    0.5929    0.7787 H   0  0  0  0  0  0  0  0  0  0  0  0
   -1.8063    0.9068   -0.8073 H   0  0  0  0  0  0  0  0  0  0  0  0
   -0.7607    1.7229    1.6613 H   0  0  0  0  0  0  0  0  0  0  0  0
    1.1636    2.3539    0.5613 H   0  0  0  0  0  0  0  0  0  0  0  0
   -0.0683    2.2026   -0.7521 H   0  0  0  0  0  0  0  0  0  0  0  0
    1.1353    0.4267   -1.7428 H   0  0  0  0  0  0  0  0  0  0  0  0
    2.8351    0.0517    0.7895 H   0  0  0  0  0  0  0  0  0  0  0  0
    2.7582   -1.0834   -0.6461 H   0  0  0  0  0  0  0  0  0  0  0  0
   -0.1402   -1.4389   -1.5410 H   0  0  0  0  0  0  0  0  0  0  0  0
    0.0317   -2.5977   -0.2111 H   0  0  0  0  0  0  0  0  0  0  0  0
  1  2  1  0
  2  3  1  0
  3  4  1  0
  4  5  1  0
  5  6  1  0
  6  7  1  0
  7  8  1  0
  7  9  1  0
  8  1  1  0
  9  3  1  0
  7  5  1  0
  1 10  1  0
  1 11  1  0
  2 12  1  0
  2 13  1  0
  3 14  1  0
  4 15  1  0
  4 16  1  0
  5 17  1  0
  6 18  1  0
  6 19  1  0
  8 20  1  0
  8 21  1  0
M  END
