
     RDKit          3D

 21 23  0  0  0  0  0  0  0  0999 V2000
    1.3840    0.8813    0.6494 C   0  0  0  0  0  0  0  0  0  0  0  0
    0.9789   -0.4840    1.2298 C   0  0  0  0  0  0  0  0  0  0  0  0
   -0.0754   -0.8695    0.2732 C   0  0  0  0  0  0  0  0  0  0  0  0
    0.6061   -0.6365   -1.0473 C   0  0  0  0  0  0  0  0  0  0  0  0
    0.9957    0.8329   -0.8294 C   0  0  0  0  0  0  0  0  0  0  0  0
   -0.1307    1.5743   -1.1009 O   0  0  0  0  0  0  0  0  0  0  0  0
   -1.3304    0.8754   -0.8621 C   0  0  0  0  0  0  0  0  0  0  0  0
   -1.3155    0.0693    0.3760 C   0  0  0  0  0  0  0  0  0  0  0  0
   -1.3799   -1.3773    0.4659 C   0  0  0  0  0  0  0  0  0  0  0  0
    2.4376    1.0962    0.8046 H   0  0  0  0  0  0  0  0  0  0  0  0
    0.6883    1.6126    1.1248 H   0  0  0  0  0  0  0  0  0  0  0  0
    1.8723   -1.1520    1.1738 H   0  0  0  0  0  0  0  0  0  0  0  0
    0.5826   -0.4047    2.2373 H   0  0  0  0  0  0  0  0  0  0  0  0
    1.5613   -1.1991   -1.0223 H   0  0  0  0  0  0  0  0  0  0  0  0
    0.0042   -0.7982   -1.9264 H   0  0  0  0  0  0  0  0  0  0  0  0
    1.8241    1.1300   -1.4786 H   0  0  0  0  0  0  0  0  0  0  0  0
   -1.6828    0.3253   -1.7467 H   0  0  0  0  0  0  0  0  0  0  0  0
   -2.0949    1.6979   -0.7149 H   0  0  0  0  0  0  0  0  0  0  0  0
   -1.4466    0.6465    1.3102 H   0  0  0  0  0  0  0  0  0  0  0  0
   -1.6501   -1.8213    1.4503 H   0  0  0  0  0  0  0  0  0  0  0  0
   -1.8289   -1.9993   -0.3666 H   0  0  0  0  0  0  0  0  0  0  0  0
  1  2  1  0
  2  3  1  0
  3  4  1  0
  4  5  1  0
  5  6  1  0
  6  7  1  0
  7  8  1  0
  8  9  1  0
  5  1  1  0
  8  3  1  0
  9  3  1  0
  1 10  1  0
  1 11  1  0
  2 12  1  0
  2 13  1  0
  4 14  1  0
  4 15  1  0
  5 16  1  0
  7 17  1  0
  7 18  1  0
  8 19  1  0
  9 20  1  0
  9 21  1  0
M  END
