
     RDKit          3D

 19 21  0  0  0  0  0  0  0  0999 V2000
   -1.2231   -1.1721    0.4045 C   0  0  0  0  0  0  0  0  0  0  0  0
   -2.0108    0.1458    0.4923 C   0  0  0  0  0  0  0  0  0  0  0  0
   -1.0019    1.2046    0.3729 C   0  0  0  0  0  0  0  0  0  0  0  0
   -0.5559    1.9366   -0.6191 O   0  0  0  0  0  0  0  0  0  0  0  0
   -0.2070    0.6856   -0.8517 C   0  0  0  0  0  0  0  0  0  0  0  0
    0.7880   -0.2056   -0.2298 C   0  0  0  0  0  0  0  0  0  0  0  0
    2.0831   -0.5619   -0.7887 C   0  0  0  0  0  0  0  0  0  0  0  0
    2.0381    0.5027    0.3087 C   0  0  0  0  0  0  0  0  0  0  0  0
    0.1189   -0.9951    0.7075 O   0  0  0  0  0  0  0  0  0  0  0  0
   -1.3779   -1.6641   -0.5765 H   0  0  0  0  0  0  0  0  0  0  0  0
   -1.6355   -1.8530    1.1760 H   0  0  0  0  0  0  0  0  0  0  0  0
   -2.6498    0.1758    1.3866 H   0  0  0  0  0  0  0  0  0  0  0  0
   -2.6709    0.1765   -0.4221 H   0  0  0  0  0  0  0  0  0  0  0  0
   -0.4189    1.3441    1.3309 H   0  0  0  0  0  0  0  0  0  0  0  0
   -0.7716    0.2033   -1.6806 H   0  0  0  0  0  0  0  0  0  0  0  0
    2.5645   -1.4997   -0.4871 H   0  0  0  0  0  0  0  0  0  0  0  0
    2.2952   -0.1859   -1.8286 H   0  0  0  0  0  0  0  0  0  0  0  0
    2.2390    1.5248   -0.0060 H   0  0  0  0  0  0  0  0  0  0  0  0
    2.3966    0.2374    1.3109 H   0  0  0  0  0  0  0  0  0  0  0  0
  1  2  1  0
  2  3  1  0
  3  4  1  0
  4  5  1  0
  5  6  1  0
  6  7  1  0
  7  8  1  0
  6  9  1  0
  9  1  1  0
  5  3  1  0
  8  6  1  0
  1 10  1  0
  1 11  1  0
  2 12  1  0
  2 13  1  0
  3 14  1  0
  5 15  1  0
  7 16  1  0
  7 17  1  0
  8 18  1  0
  8 19  1  0
M  END
