
     RDKit          3D

 21 24  0  0  0  0  0  0  0  0999 V2000
   -1.7628   -0.4869   -0.1471 C   0  0  0  0  0  0  0  0  0  0  0  0
   -1.0830   -0.2659    1.1801 C   0  0  0  0  0  0  0  0  0  0  0  0
    0.2966    0.2705    0.8825 C   0  0  0  0  0  0  0  0  0  0  0  0
    0.4007    1.7287    0.6700 C   0  0  0  0  0  0  0  0  0  0  0  0
    0.2746    0.7820   -0.5005 C   0  0  0  0  0  0  0  0  0  0  0  0
   -1.0813    0.5091   -1.0361 C   0  0  0  0  0  0  0  0  0  0  0  0
    1.4605   -0.0414   -0.8385 C   0  0  0  0  0  0  0  0  0  0  0  0
    1.4920   -1.5057   -0.6057 C   0  0  0  0  0  0  0  0  0  0  0  0
    1.4240   -0.6338    0.5712 C   0  0  0  0  0  0  0  0  0  0  0  0
   -2.8605   -0.2541   -0.1057 H   0  0  0  0  0  0  0  0  0  0  0  0
   -1.6954   -1.5273   -0.5086 H   0  0  0  0  0  0  0  0  0  0  0  0
   -1.0552   -1.2041    1.7516 H   0  0  0  0  0  0  0  0  0  0  0  0
   -1.6590    0.5082    1.7365 H   0  0  0  0  0  0  0  0  0  0  0  0
   -0.4855    2.3571    0.8259 H   0  0  0  0  0  0  0  0  0  0  0  0
    1.3537    2.2760    0.6897 H   0  0  0  0  0  0  0  0  0  0  0  0
   -1.1157    0.1949   -2.0914 H   0  0  0  0  0  0  0  0  0  0  0  0
   -1.6752    1.4672   -0.9536 H   0  0  0  0  0  0  0  0  0  0  0  0
    2.3992    0.4848   -1.0500 H   0  0  0  0  0  0  0  0  0  0  0  0
    2.4485   -2.0006   -0.8118 H   0  0  0  0  0  0  0  0  0  0  0  0
    0.6106   -2.1030   -0.8656 H   0  0  0  0  0  0  0  0  0  0  0  0
    2.3131   -0.5557    1.2072 H   0  0  0  0  0  0  0  0  0  0  0  0
  1  2  1  0
  2  3  1  0
  3  4  1  0
  4  5  1  0
  5  6  1  0
  5  7  1  0
  7  8  1  0
  8  9  1  0
  6  1  1  0
  9  7  1  0
  5  3  1  0
  9  3  1  0
  1 10  1  0
  1 11  1  0
  2 12  1  0
  2 13  1  0
  4 14  1  0
  4 15  1  0
  6 16  1  0
  6 17  1  0
  7 18  1  0
  8 19  1  0
  8 20  1  0
  9 21  1  0
M  END
