
     RDKit          3D

 21 23  0  0  0  0  0  0  0  0999 V2000
   -1.4117   -1.3856   -0.3053 C   0  0  0  0  0  0  0  0  0  0  0  0
   -1.3842   -0.7934    1.0815 C   0  0  0  0  0  0  0  0  0  0  0  0
   -0.7439   -0.1510   -0.0743 C   0  0  0  0  0  0  0  0  0  0  0  0
   -1.1492    1.2155   -0.4670 C   0  0  0  0  0  0  0  0  0  0  0  0
    0.3364    1.6008   -0.4976 C   0  0  0  0  0  0  0  0  0  0  0  0
    0.6581    0.1969   -0.1340 C   0  0  0  0  0  0  0  0  0  0  0  0
    1.6224   -0.5527   -0.9493 C   0  0  0  0  0  0  0  0  0  0  0  0
    2.5258   -0.4780    0.1388 O   0  0  0  0  0  0  0  0  0  0  0  0
    1.5429   -0.0301    1.0444 C   0  0  0  0  0  0  0  0  0  0  0  0
   -0.8129   -2.3240   -0.3845 H   0  0  0  0  0  0  0  0  0  0  0  0
   -2.4264   -1.4592   -0.7376 H   0  0  0  0  0  0  0  0  0  0  0  0
   -2.3022   -0.3014    1.4729 H   0  0  0  0  0  0  0  0  0  0  0  0
   -0.7939   -1.2758    1.8813 H   0  0  0  0  0  0  0  0  0  0  0  0
   -1.6593    1.3506   -1.4306 H   0  0  0  0  0  0  0  0  0  0  0  0
   -1.6989    1.7835    0.3155 H   0  0  0  0  0  0  0  0  0  0  0  0
    0.6364    2.2977    0.3064 H   0  0  0  0  0  0  0  0  0  0  0  0
    0.7147    1.8716   -1.4900 H   0  0  0  0  0  0  0  0  0  0  0  0
    1.3371   -1.5944   -1.2182 H   0  0  0  0  0  0  0  0  0  0  0  0
    2.0123    0.0564   -1.8071 H   0  0  0  0  0  0  0  0  0  0  0  0
    1.2060   -0.9037    1.6585 H   0  0  0  0  0  0  0  0  0  0  0  0
    1.7906    0.8763    1.5964 H   0  0  0  0  0  0  0  0  0  0  0  0
  1  2  1  0
  2  3  1  0
  3  4  1  0
  4  5  1  0
  5  6  1  0
  6  7  1  0
  7  8  1  0
  8  9  1  0
  3  1  1  0
  9  6  1  0
  6  3  1  0
  1 10  1  0
  1 11  1  0
  2 12  1  0
  2 13  1  0
  4 14  1  0
  4 15  1  0
  5 16  1  0
  5 17  1  0
  7 18  1  0
  7 19  1  0
  9 20  1  0
  9 21  1  0
M  END
