
     RDKit          3D

 21 23  0  0  0  0  0  0  0  0999 V2000
    1.7729    0.2388    0.3052 C   0  0  0  0  0  0  0  0  0  0  0  0
    1.3108   -0.4782   -0.9760 C   0  0  0  0  0  0  0  0  0  0  0  0
   -0.1250   -0.1561   -1.1337 C   0  0  0  0  0  0  0  0  0  0  0  0
   -0.9988   -1.0740   -0.2629 C   0  0  0  0  0  0  0  0  0  0  0  0
   -0.3039   -0.8894    1.0775 C   0  0  0  0  0  0  0  0  0  0  0  0
    0.4403    0.4409    0.9734 C   0  0  0  0  0  0  0  0  0  0  0  0
   -0.3156    1.0629   -0.2094 C   0  0  0  0  0  0  0  0  0  0  0  0
   -1.7700    0.9694    0.0512 C   0  0  0  0  0  0  0  0  0  0  0  0
   -2.1812   -0.3430   -0.2590 O   0  0  0  0  0  0  0  0  0  0  0  0
    2.1399    1.2270   -0.0318 H   0  0  0  0  0  0  0  0  0  0  0  0
    2.4850   -0.3494    0.8736 H   0  0  0  0  0  0  0  0  0  0  0  0
    1.9562   -0.2595   -1.8257 H   0  0  0  0  0  0  0  0  0  0  0  0
    1.4645   -1.5725   -0.7423 H   0  0  0  0  0  0  0  0  0  0  0  0
   -0.5067   -0.0059   -2.1204 H   0  0  0  0  0  0  0  0  0  0  0  0
   -1.0632   -2.0768   -0.6143 H   0  0  0  0  0  0  0  0  0  0  0  0
    0.4519   -1.7179    1.1459 H   0  0  0  0  0  0  0  0  0  0  0  0
   -1.0226   -0.9069    1.9009 H   0  0  0  0  0  0  0  0  0  0  0  0
    0.4311    1.0324    1.8600 H   0  0  0  0  0  0  0  0  0  0  0  0
    0.0947    1.9657   -0.5816 H   0  0  0  0  0  0  0  0  0  0  0  0
   -1.9609    1.1747    1.1272 H   0  0  0  0  0  0  0  0  0  0  0  0
   -2.2996    1.7179   -0.5577 H   0  0  0  0  0  0  0  0  0  0  0  0
  1  2  1  0
  2  3  1  0
  3  4  1  0
  4  5  1  0
  5  6  1  0
  6  7  1  0
  7  8  1  0
  8  9  1  0
  6  1  1  0
  7  3  1  0
  9  4  1  0
  1 10  1  0
  1 11  1  0
  2 12  1  0
  2 13  1  0
  3 14  1  0
  4 15  1  0
  5 16  1  0
  5 17  1  0
  6 18  1  0
  7 19  1  0
  8 20  1  0
  8 21  1  0
M  END
