
     RDKit          3D

 15 16  0  0  0  0  0  0  0  0999 V2000
    1.7391   -0.0165   -0.4432 C   0  0  0  0  0  0  0  0  0  0  0  0
    0.8208    0.7388    0.5258 C   0  0  0  0  0  0  0  0  0  0  0  0
   -0.1708    0.0608   -0.3286 C   0  0  0  0  0  0  0  0  0  0  0  0
   -0.8302   -1.1699    0.1665 C   0  0  0  0  0  0  0  0  0  0  0  0
   -2.0202   -0.7382   -0.4435 O   0  0  0  0  0  0  0  0  0  0  0  0
   -1.5231    0.5842   -0.4763 C   0  0  0  0  0  0  0  0  0  0  0  0
    0.6815   -0.0156   -1.3801 O   0  0  0  0  0  0  0  0  0  0  0  0
    1.9002   -1.0486   -0.0627 H   0  0  0  0  0  0  0  0  0  0  0  0
    2.6133    0.5610   -0.7204 H   0  0  0  0  0  0  0  0  0  0  0  0
    0.9345    1.8220    0.4551 H   0  0  0  0  0  0  0  0  0  0  0  0
    0.8541    0.3361    1.5676 H   0  0  0  0  0  0  0  0  0  0  0  0
   -0.3951   -2.0877   -0.2511 H   0  0  0  0  0  0  0  0  0  0  0  0
   -0.9183   -1.2694    1.2656 H   0  0  0  0  0  0  0  0  0  0  0  0
   -1.8815    1.0824    0.4697 H   0  0  0  0  0  0  0  0  0  0  0  0
   -1.8043    1.1607   -1.3646 H   0  0  0  0  0  0  0  0  0  0  0  0
  1  2  1  0
  2  3  1  0
  3  4  1  0
  4  5  1  0
  5  6  1  0
  3  7  1  0
  7  1  1  0
  6  3  1  0
  1  8  1  0
  1  9  1  0
  2 10  1  0
  2 11  1  0
  4 12  1  0
  4 13  1  0
  6 14  1  0
  6 15  1  0
M  END
