
     RDKit          3D

 19 21  0  0  0  0  0  0  0  0999 V2000
   -2.1732   -0.3211   -0.2265 C   0  0  0  0  0  0  0  0  0  0  0  0
   -1.4212    0.9694    0.1399 C   0  0  0  0  0  0  0  0  0  0  0  0
   -0.0682    0.6157   -0.3430 C   0  0  0  0  0  0  0  0  0  0  0  0
   -0.0794   -0.8518    0.1532 C   0  0  0  0  0  0  0  0  0  0  0  0
    1.2602   -1.2482   -0.2613 C   0  0  0  0  0  0  0  0  0  0  0  0
    2.0988   -0.0442    0.1838 C   0  0  0  0  0  0  0  0  0  0  0  0
    1.7229    0.4477    1.4048 O   0  0  0  0  0  0  0  0  0  0  0  0
    1.1027    1.1108    0.3806 C   0  0  0  0  0  0  0  0  0  0  0  0
   -1.1724   -1.2869   -0.4924 O   0  0  0  0  0  0  0  0  0  0  0  0
   -2.8627   -0.6342    0.5515 H   0  0  0  0  0  0  0  0  0  0  0  0
   -2.6891   -0.0883   -1.1868 H   0  0  0  0  0  0  0  0  0  0  0  0
   -1.8743    1.8494   -0.3099 H   0  0  0  0  0  0  0  0  0  0  0  0
   -1.4013    0.9972    1.2533 H   0  0  0  0  0  0  0  0  0  0  0  0
    0.0410    0.6329   -1.4391 H   0  0  0  0  0  0  0  0  0  0  0  0
   -0.1420   -0.8079    1.2569 H   0  0  0  0  0  0  0  0  0  0  0  0
    1.4191   -1.5013   -1.3023 H   0  0  0  0  0  0  0  0  0  0  0  0
    1.6305   -2.1002    0.3648 H   0  0  0  0  0  0  0  0  0  0  0  0
    3.0548    0.1507   -0.2811 H   0  0  0  0  0  0  0  0  0  0  0  0
    1.5538    2.1104    0.1535 H   0  0  0  0  0  0  0  0  0  0  0  0
  1  2  1  0
  2  3  1  0
  3  4  1  0
  4  5  1  0
  5  6  1  0
  6  7  1  0
  7  8  1  0
  4  9  1  0
  9  1  1  0
  8  3  1  0
  8  6  1  0
  1 10  1  0
  1 11  1  0
  2 12  1  0
  2 13  1  0
  3 14  1  0
  4 15  1  0
  5 16  1  0
  5 17  1  0
  6 18  1  0
  8 19  1  0
M  END
