
     RDKit          3D

 21 22  0  0  0  0  0  0  0  0999 V2000
   -1.7783    0.6930    0.0867 C   0  0  0  0  0  0  0  0  0  0  0  0
   -0.5639    1.6725    0.1071 C   0  0  0  0  0  0  0  0  0  0  0  0
    0.5141    0.7551    0.0798 C   0  0  0  0  0  0  0  0  0  0  0  0
    1.9348    0.7235    0.0948 C   0  0  0  0  0  0  0  0  0  0  0  0
    2.2225   -0.6771    0.1176 O   0  0  0  0  0  0  0  0  0  0  0  0
    1.1324   -1.4948   -0.1534 C   0  0  0  0  0  0  0  0  0  0  0  0
   -0.1363   -1.2079    0.6425 C   0  0  0  0  0  0  0  0  0  0  0  0
   -1.3162   -0.7496   -0.1894 C   0  0  0  0  0  0  0  0  0  0  0  0
    0.2296   -0.0042    1.2587 O   0  0  0  0  0  0  0  0  0  0  0  0
   -2.3856    0.9722   -0.7847 H   0  0  0  0  0  0  0  0  0  0  0  0
   -2.3557    0.7655    1.0012 H   0  0  0  0  0  0  0  0  0  0  0  0
   -0.6606    2.2480    1.0533 H   0  0  0  0  0  0  0  0  0  0  0  0
   -0.6373    2.3918   -0.7119 H   0  0  0  0  0  0  0  0  0  0  0  0
    0.3211    0.2039   -0.8976 H   0  0  0  0  0  0  0  0  0  0  0  0
    2.4153    1.1242    0.9952 H   0  0  0  0  0  0  0  0  0  0  0  0
    2.4699    1.0811   -0.8346 H   0  0  0  0  0  0  0  0  0  0  0  0
    0.9535   -1.6895   -1.2179 H   0  0  0  0  0  0  0  0  0  0  0  0
    1.4720   -2.5040    0.2457 H   0  0  0  0  0  0  0  0  0  0  0  0
   -0.3732   -1.9475    1.3978 H   0  0  0  0  0  0  0  0  0  0  0  0
   -1.2692   -0.9941   -1.2474 H   0  0  0  0  0  0  0  0  0  0  0  0
   -2.1887   -1.3619    0.2034 H   0  0  0  0  0  0  0  0  0  0  0  0
  1  2  1  0
  2  3  1  0
  3  4  1  0
  4  5  1  0
  5  6  1  0
  6  7  1  0
  7  8  1  0
  7  9  1  0
  8  1  1  0
  9  3  1  0
  1 10  1  0
  1 11  1  0
  2 12  1  0
  2 13  1  0
  3 14  1  0
  4 15  1  0
  4 16  1  0
  6 17  1  0
  6 18  1  0
  7 19  1  0
  8 20  1  0
  8 21  1  0
M  END
