
     RDKit          3D

 21 23  0  0  0  0  0  0  0  0999 V2000
   -1.8958    0.3489    0.0989 C   0  0  0  0  0  0  0  0  0  0  0  0
   -1.2784   -1.0086    0.4402 C   0  0  0  0  0  0  0  0  0  0  0  0
    0.0975   -1.0717   -0.1083 C   0  0  0  0  0  0  0  0  0  0  0  0
    1.1020   -0.2060    0.5891 C   0  0  0  0  0  0  0  0  0  0  0  0
    2.3028   -0.3826   -0.3103 C   0  0  0  0  0  0  0  0  0  0  0  0
    1.6451   -0.3229   -1.5678 O   0  0  0  0  0  0  0  0  0  0  0  0
    0.3353   -0.0610   -1.2425 C   0  0  0  0  0  0  0  0  0  0  0  0
    0.4548    0.9754   -0.1492 C   0  0  0  0  0  0  0  0  0  0  0  0
   -0.8266    1.3655    0.4778 C   0  0  0  0  0  0  0  0  0  0  0  0
   -2.2153    0.4226   -0.9363 H   0  0  0  0  0  0  0  0  0  0  0  0
   -2.7879    0.4856    0.7492 H   0  0  0  0  0  0  0  0  0  0  0  0
   -1.8703   -1.8358   -0.0019 H   0  0  0  0  0  0  0  0  0  0  0  0
   -1.3326   -1.1027    1.5555 H   0  0  0  0  0  0  0  0  0  0  0  0
    0.4235   -2.0922   -0.3488 H   0  0  0  0  0  0  0  0  0  0  0  0
    1.1924   -0.1700    1.6288 H   0  0  0  0  0  0  0  0  0  0  0  0
    2.8362   -1.3184   -0.1676 H   0  0  0  0  0  0  0  0  0  0  0  0
    2.9187    0.5303   -0.2130 H   0  0  0  0  0  0  0  0  0  0  0  0
   -0.4111    0.0337   -1.9806 H   0  0  0  0  0  0  0  0  0  0  0  0
    1.1542    1.7679   -0.4232 H   0  0  0  0  0  0  0  0  0  0  0  0
   -0.7059    1.2471    1.5966 H   0  0  0  0  0  0  0  0  0  0  0  0
   -1.1387    2.3947    0.3134 H   0  0  0  0  0  0  0  0  0  0  0  0
  1  2  1  0
  2  3  1  0
  3  4  1  0
  4  5  1  0
  5  6  1  0
  6  7  1  0
  7  8  1  0
  8  9  1  0
  9  1  1  0
  7  3  1  0
  8  4  1  0
  1 10  1  0
  1 11  1  0
  2 12  1  0
  2 13  1  0
  3 14  1  0
  4 15  1  0
  5 16  1  0
  5 17  1  0
  7 18  1  0
  8 19  1  0
  9 20  1  0
  9 21  1  0
M  END
