
     RDKit          3D

 20 21  0  0  0  0  0  0  0  0999 V2000
   -1.7784    0.5125   -0.4225 C   0  0  0  0  0  0  0  0  0  0  0  0
   -1.6148   -0.7813    0.3626 C   0  0  0  0  0  0  0  0  0  0  0  0
   -0.1757   -1.1789    0.2012 C   0  0  0  0  0  0  0  0  0  0  0  0
    0.5581    0.0999    0.0151 C   0  0  0  0  0  0  0  0  0  0  0  0
   -0.3649    0.9900   -0.7224 C   0  0  0  0  0  0  0  0  0  0  0  0
    1.9301   -0.1062   -0.5578 C   0  0  0  0  0  0  0  0  0  0  0  0
    2.4111    0.9028    0.2543 O   0  0  0  0  0  0  0  0  0  0  0  0
    1.3512    0.6392    1.1352 C   0  0  0  0  0  0  0  0  0  0  0  0
   -2.3498    0.2959   -1.3520 H   0  0  0  0  0  0  0  0  0  0  0  0
   -2.3563    1.2584    0.1579 H   0  0  0  0  0  0  0  0  0  0  0  0
   -1.9383   -0.6756    1.4047 H   0  0  0  0  0  0  0  0  0  0  0  0
   -2.2529   -1.5911   -0.0832 H   0  0  0  0  0  0  0  0  0  0  0  0
    0.2028   -1.8000    1.0189 H   0  0  0  0  0  0  0  0  0  0  0  0
   -0.0637   -1.7848   -0.7432 H   0  0  0  0  0  0  0  0  0  0  0  0
   -0.1938    0.8560   -1.8269 H   0  0  0  0  0  0  0  0  0  0  0  0
   -0.2890    2.0593   -0.4858 H   0  0  0  0  0  0  0  0  0  0  0  0
    1.9615    0.0659   -1.6387 H   0  0  0  0  0  0  0  0  0  0  0  0
    2.3190   -1.1085   -0.2520 H   0  0  0  0  0  0  0  0  0  0  0  0
    1.0040    1.5107    1.6770 H   0  0  0  0  0  0  0  0  0  0  0  0
    1.6397   -0.1642    1.8576 H   0  0  0  0  0  0  0  0  0  0  0  0
  1  2  1  0
  2  3  1  0
  3  4  1  0
  4  5  1  0
  4  6  1  0
  6  7  1  0
  7  8  1  0
  5  1  1  0
  8  4  1  0
  1  9  1  0
  1 10  1  0
  2 11  1  0
  2 12  1  0
  3 13  1  0
  3 14  1  0
  5 15  1  0
  5 16  1  0
  6 17  1  0
  6 18  1  0
  8 19  1  0
  8 20  1  0
M  END
