
     RDKit          3D

 20 21  0  0  0  0  0  0  0  0999 V2000
   -2.6544    0.4457    0.5516 C   0  0  0  0  0  0  0  0  0  0  0  0
   -2.1183   -0.0957   -0.7750 C   0  0  0  0  0  0  0  0  0  0  0  0
   -0.8407    0.1218   -0.0455 C   0  0  0  0  0  0  0  0  0  0  0  0
    0.2508   -0.9136   -0.3084 C   0  0  0  0  0  0  0  0  0  0  0  0
    1.4393   -0.5137    0.5135 C   0  0  0  0  0  0  0  0  0  0  0  0
    1.9820    0.8767    0.1649 C   0  0  0  0  0  0  0  0  0  0  0  0
    2.7815   -0.3551   -0.0252 C   0  0  0  0  0  0  0  0  0  0  0  0
   -1.5173   -0.1170    1.1583 O   0  0  0  0  0  0  0  0  0  0  0  0
   -3.6061    0.0065    0.8777 H   0  0  0  0  0  0  0  0  0  0  0  0
   -2.5837    1.5530    0.5948 H   0  0  0  0  0  0  0  0  0  0  0  0
   -2.4333   -1.1379   -0.9593 H   0  0  0  0  0  0  0  0  0  0  0  0
   -2.3566    0.6316   -1.5775 H   0  0  0  0  0  0  0  0  0  0  0  0
   -0.4679    1.1459   -0.1788 H   0  0  0  0  0  0  0  0  0  0  0  0
    0.5165   -0.7785   -1.3948 H   0  0  0  0  0  0  0  0  0  0  0  0
   -0.1002   -1.9268   -0.1177 H   0  0  0  0  0  0  0  0  0  0  0  0
    1.2918   -0.6893    1.6121 H   0  0  0  0  0  0  0  0  0  0  0  0
    1.6239    1.3612   -0.7598 H   0  0  0  0  0  0  0  0  0  0  0  0
    2.1410    1.5706    0.9952 H   0  0  0  0  0  0  0  0  0  0  0  0
    3.0259   -0.7019   -1.0328 H   0  0  0  0  0  0  0  0  0  0  0  0
    3.6259   -0.4834    0.7066 H   0  0  0  0  0  0  0  0  0  0  0  0
  1  2  1  0
  2  3  1  0
  3  4  1  0
  4  5  1  0
  5  6  1  0
  6  7  1  0
  3  8  1  0
  8  1  1  0
  7  5  1  0
  1  9  1  0
  1 10  1  0
  2 11  1  0
  2 12  1  0
  3 13  1  0
  4 14  1  0
  4 15  1  0
  5 16  1  0
  6 17  1  0
  6 18  1  0
  7 19  1  0
  7 20  1  0
M  END
