
     RDKit          3D

 21 23  0  0  0  0  0  0  0  0999 V2000
   -1.7373    0.7795    0.1045 C   0  0  0  0  0  0  0  0  0  0  0  0
   -0.4108    1.5414    0.2392 C   0  0  0  0  0  0  0  0  0  0  0  0
    0.6147    0.5261    0.5994 C   0  0  0  0  0  0  0  0  0  0  0  0
    1.9340    0.5460   -0.0873 C   0  0  0  0  0  0  0  0  0  0  0  0
    1.7250   -0.9706   -0.3050 C   0  0  0  0  0  0  0  0  0  0  0  0
    0.3123   -0.6848   -0.2889 C   0  0  0  0  0  0  0  0  0  0  0  0
   -0.7366   -1.5303    0.2217 C   0  0  0  0  0  0  0  0  0  0  0  0
   -1.5393   -0.5392   -0.6100 C   0  0  0  0  0  0  0  0  0  0  0  0
   -0.3832   -0.3680   -1.4120 O   0  0  0  0  0  0  0  0  0  0  0  0
   -2.3797    1.3977   -0.5393 H   0  0  0  0  0  0  0  0  0  0  0  0
   -2.1966    0.6067    1.1078 H   0  0  0  0  0  0  0  0  0  0  0  0
   -0.1934    2.1584   -0.6267 H   0  0  0  0  0  0  0  0  0  0  0  0
   -0.5400    2.2180    1.1310 H   0  0  0  0  0  0  0  0  0  0  0  0
    0.6991    0.2885    1.6734 H   0  0  0  0  0  0  0  0  0  0  0  0
    1.9027    1.0313   -1.0984 H   0  0  0  0  0  0  0  0  0  0  0  0
    2.8145    0.7760    0.5098 H   0  0  0  0  0  0  0  0  0  0  0  0
    2.2014   -1.3492   -1.2195 H   0  0  0  0  0  0  0  0  0  0  0  0
    2.0434   -1.5392    0.6201 H   0  0  0  0  0  0  0  0  0  0  0  0
   -0.9463   -1.4203    1.3034 H   0  0  0  0  0  0  0  0  0  0  0  0
   -0.7878   -2.5339   -0.1847 H   0  0  0  0  0  0  0  0  0  0  0  0
   -2.3958   -0.9340   -1.1386 H   0  0  0  0  0  0  0  0  0  0  0  0
  1  2  1  0
  2  3  1  0
  3  4  1  0
  4  5  1  0
  5  6  1  0
  6  7  1  0
  7  8  1  0
  8  9  1  0
  8  1  1  0
  6  3  1  0
  9  6  1  0
  1 10  1  0
  1 11  1  0
  2 12  1  0
  2 13  1  0
  3 14  1  0
  4 15  1  0
  4 16  1  0
  5 17  1  0
  5 18  1  0
  7 19  1  0
  7 20  1  0
  8 21  1  0
M  END
