
     RDKit          3D

 23 25  0  0  0  0  0  0  0  0999 V2000
   -2.2497    0.0411   -0.4796 C   0  0  0  0  0  0  0  0  0  0  0  0
   -1.5281   -0.8119    0.5432 C   0  0  0  0  0  0  0  0  0  0  0  0
   -0.3856    0.0518    0.9460 C   0  0  0  0  0  0  0  0  0  0  0  0
    0.8740   -0.7791    1.2802 C   0  0  0  0  0  0  0  0  0  0  0  0
    1.8810    0.1154    0.6668 C   0  0  0  0  0  0  0  0  0  0  0  0
    2.5596    0.1536   -0.5578 C   0  0  0  0  0  0  0  0  0  0  0  0
    1.1766    0.0765   -0.7533 C   0  0  0  0  0  0  0  0  0  0  0  0
    0.0086    0.8620   -0.3071 C   0  0  0  0  0  0  0  0  0  0  0  0
   -1.1293    0.6927   -1.2726 C   0  0  0  0  0  0  0  0  0  0  0  0
   -2.8611   -0.6423   -1.1115 H   0  0  0  0  0  0  0  0  0  0  0  0
   -2.8505    0.8298   -0.0038 H   0  0  0  0  0  0  0  0  0  0  0  0
   -2.2002   -0.9767    1.4365 H   0  0  0  0  0  0  0  0  0  0  0  0
   -1.2474   -1.7907    0.1366 H   0  0  0  0  0  0  0  0  0  0  0  0
   -0.6346    0.7028    1.7840 H   0  0  0  0  0  0  0  0  0  0  0  0
    0.9550   -0.8879    2.3705 H   0  0  0  0  0  0  0  0  0  0  0  0
    0.8072   -1.7361    0.7314 H   0  0  0  0  0  0  0  0  0  0  0  0
    1.8111    1.1154    1.2051 H   0  0  0  0  0  0  0  0  0  0  0  0
    3.2237   -0.7107   -0.8303 H   0  0  0  0  0  0  0  0  0  0  0  0
    3.0905    1.0999   -0.8735 H   0  0  0  0  0  0  0  0  0  0  0  0
    0.8019   -0.9487   -1.0728 H   0  0  0  0  0  0  0  0  0  0  0  0
    0.2191    1.9110   -0.0490 H   0  0  0  0  0  0  0  0  0  0  0  0
   -1.4394    1.6752   -1.6955 H   0  0  0  0  0  0  0  0  0  0  0  0
   -0.8822   -0.0432   -2.0935 H   0  0  0  0  0  0  0  0  0  0  0  0
  1  2  1  0
  2  3  1  0
  3  4  1  0
  4  5  1  0
  5  6  1  0
  6  7  1  0
  7  8  1  0
  8  9  1  0
  9  1  1  0
  8  3  1  0
  7  5  1  0
  1 10  1  0
  1 11  1  0
  2 12  1  0
  2 13  1  0
  3 14  1  0
  4 15  1  0
  4 16  1  0
  5 17  1  0
  6 18  1  0
  6 19  1  0
  7 20  1  0
  8 21  1  0
  9 22  1  0
  9 23  1  0
M  END
