
     RDKit          3D

 21 23  0  0  0  0  0  0  0  0999 V2000
    2.2961    0.2904   -0.1563 C   0  0  0  0  0  0  0  0  0  0  0  0
    1.3047    0.7741    0.9106 C   0  0  0  0  0  0  0  0  0  0  0  0
    0.3195   -0.1982    0.3344 C   0  0  0  0  0  0  0  0  0  0  0  0
    1.5273   -1.0375   -0.1116 C   0  0  0  0  0  0  0  0  0  0  0  0
   -0.4662   -0.7829    1.2748 O   0  0  0  0  0  0  0  0  0  0  0  0
   -1.7628   -0.8169    0.8644 C   0  0  0  0  0  0  0  0  0  0  0  0
   -1.8736   -0.2169   -0.4976 C   0  0  0  0  0  0  0  0  0  0  0  0
   -1.5811    1.1999   -0.7696 C   0  0  0  0  0  0  0  0  0  0  0  0
   -0.4765    0.2243   -0.8305 C   0  0  0  0  0  0  0  0  0  0  0  0
    2.1226    0.8724   -1.0718 H   0  0  0  0  0  0  0  0  0  0  0  0
    3.3175    0.1542    0.1886 H   0  0  0  0  0  0  0  0  0  0  0  0
    1.0602    1.8320    0.8704 H   0  0  0  0  0  0  0  0  0  0  0  0
    1.6627    0.3924    1.9061 H   0  0  0  0  0  0  0  0  0  0  0  0
    1.9093   -1.7240    0.6437 H   0  0  0  0  0  0  0  0  0  0  0  0
    1.4310   -1.4157   -1.1455 H   0  0  0  0  0  0  0  0  0  0  0  0
   -2.0855   -1.8945    0.7962 H   0  0  0  0  0  0  0  0  0  0  0  0
   -2.4511   -0.2890    1.5599 H   0  0  0  0  0  0  0  0  0  0  0  0
   -2.4615   -0.7864   -1.2664 H   0  0  0  0  0  0  0  0  0  0  0  0
   -1.6960    1.9010    0.0815 H   0  0  0  0  0  0  0  0  0  0  0  0
   -1.9544    1.6090   -1.7184 H   0  0  0  0  0  0  0  0  0  0  0  0
   -0.1423   -0.0878   -1.8630 H   0  0  0  0  0  0  0  0  0  0  0  0
  1  2  1  0
  2  3  1  0
  3  4  1  0
  3  5  1  0
  5  6  1  0
  6  7  1  0
  7  8  1  0
  8  9  1  0
  4  1  1  0
  9  7  1  0
  9  3  1  0
  1 10  1  0
  1 11  1  0
  2 12  1  0
  2 13  1  0
  4 14  1  0
  4 15  1  0
  6 16  1  0
  6 17  1  0
  7 18  1  0
  8 19  1  0
  8 20  1  0
  9 21  1  0
M  END
