
     RDKit          3D

 19 21  0  0  0  0  0  0  0  0999 V2000
   -0.0744    1.7730    0.2726 C   0  0  0  0  0  0  0  0  0  0  0  0
    1.0098    0.9736   -0.3489 C   0  0  0  0  0  0  0  0  0  0  0  0
    1.3116   -0.3247    0.2950 C   0  0  0  0  0  0  0  0  0  0  0  0
    0.8665   -1.5480   -0.4323 C   0  0  0  0  0  0  0  0  0  0  0  0
   -0.2996   -1.5702   -1.1533 O   0  0  0  0  0  0  0  0  0  0  0  0
   -1.0244   -1.1468   -0.0606 C   0  0  0  0  0  0  0  0  0  0  0  0
   -1.6371    0.2368   -0.1813 C   0  0  0  0  0  0  0  0  0  0  0  0
   -1.0959    1.0558    0.8340 O   0  0  0  0  0  0  0  0  0  0  0  0
    0.1702   -1.0844    0.8255 C   0  0  0  0  0  0  0  0  0  0  0  0
    0.3032    2.5166    1.0170 H   0  0  0  0  0  0  0  0  0  0  0  0
   -0.5315    2.4086   -0.5425 H   0  0  0  0  0  0  0  0  0  0  0  0
    1.9515    1.5984   -0.3091 H   0  0  0  0  0  0  0  0  0  0  0  0
    0.8361    0.8368   -1.4561 H   0  0  0  0  0  0  0  0  0  0  0  0
    2.2712   -0.4549    0.8512 H   0  0  0  0  0  0  0  0  0  0  0  0
    1.4875   -2.4421   -0.4390 H   0  0  0  0  0  0  0  0  0  0  0  0
   -1.7499   -1.9137    0.3416 H   0  0  0  0  0  0  0  0  0  0  0  0
   -2.7278    0.2364   -0.0071 H   0  0  0  0  0  0  0  0  0  0  0  0
   -1.3590    0.6175   -1.1841 H   0  0  0  0  0  0  0  0  0  0  0  0
    0.2922   -1.7686    1.6775 H   0  0  0  0  0  0  0  0  0  0  0  0
  1  2  1  0
  2  3  1  0
  3  4  1  0
  4  5  1  0
  5  6  1  0
  6  7  1  0
  7  8  1  0
  6  9  1  0
  8  1  1  0
  9  3  1  0
  9  4  1  0
  1 10  1  0
  1 11  1  0
  2 12  1  0
  2 13  1  0
  3 14  1  0
  4 15  1  0
  6 16  1  0
  7 17  1  0
  7 18  1  0
  9 19  1  0
M  END
