
     RDKit          3D

 17 17  0  0  0  0  0  0  0  0999 V2000
   -0.9305    0.5911   -0.5900 C   0  0  0  0  0  0  0  0  0  0  0  0
   -1.2786   -0.5487    0.3645 C   0  0  0  0  0  0  0  0  0  0  0  0
   -0.0485   -1.4667    0.3247 C   0  0  0  0  0  0  0  0  0  0  0  0
    1.0035   -0.6928    0.7934 O   0  0  0  0  0  0  0  0  0  0  0  0
    1.6759   -0.0083   -0.1907 C   0  0  0  0  0  0  0  0  0  0  0  0
    1.3071    1.3074   -0.3349 O   0  0  0  0  0  0  0  0  0  0  0  0
    0.0199    1.5096    0.1577 C   0  0  0  0  0  0  0  0  0  0  0  0
   -1.8214    1.0997   -0.9611 H   0  0  0  0  0  0  0  0  0  0  0  0
   -0.4187    0.1461   -1.4895 H   0  0  0  0  0  0  0  0  0  0  0  0
   -1.3184   -0.0915    1.3879 H   0  0  0  0  0  0  0  0  0  0  0  0
   -2.1946   -1.0703    0.0885 H   0  0  0  0  0  0  0  0  0  0  0  0
   -0.2501   -2.3601    0.9303 H   0  0  0  0  0  0  0  0  0  0  0  0
    0.0646   -1.7421   -0.7522 H   0  0  0  0  0  0  0  0  0  0  0  0
    1.6565   -0.4947   -1.1825 H   0  0  0  0  0  0  0  0  0  0  0  0
    2.7651   -0.0046    0.1102 H   0  0  0  0  0  0  0  0  0  0  0  0
   -0.2876    2.5613    0.0920 H   0  0  0  0  0  0  0  0  0  0  0  0
    0.0558    1.2646    1.2516 H   0  0  0  0  0  0  0  0  0  0  0  0
  1  2  1  0
  2  3  1  0
  3  4  1  0
  4  5  1  0
  5  6  1  0
  6  7  1  0
  7  1  1  0
  1  8  1  0
  1  9  1  0
  2 10  1  0
  2 11  1  0
  3 12  1  0
  3 13  1  0
  5 14  1  0
  5 15  1  0
  7 16  1  0
  7 17  1  0
M  END
