
     RDKit          3D

 21 22  0  0  0  0  0  0  0  0999 V2000
   -2.1098    0.1595    0.3368 C   0  0  0  0  0  0  0  0  0  0  0  0
   -1.6703   -0.2254   -1.0310 C   0  0  0  0  0  0  0  0  0  0  0  0
   -0.2344    0.1542   -1.3357 C   0  0  0  0  0  0  0  0  0  0  0  0
    0.5607   -0.3441   -0.1283 C   0  0  0  0  0  0  0  0  0  0  0  0
    2.0220   -0.3719   -0.3629 C   0  0  0  0  0  0  0  0  0  0  0  0
    2.8314    0.4662    0.6310 C   0  0  0  0  0  0  0  0  0  0  0  0
    2.7453    0.7337   -0.7165 O   0  0  0  0  0  0  0  0  0  0  0  0
    0.2037    0.5367    0.9146 O   0  0  0  0  0  0  0  0  0  0  0  0
   -1.0422    0.1388    1.3740 C   0  0  0  0  0  0  0  0  0  0  0  0
   -2.8939   -0.5868    0.6579 H   0  0  0  0  0  0  0  0  0  0  0  0
   -2.6052    1.1541    0.2913 H   0  0  0  0  0  0  0  0  0  0  0  0
   -2.3811    0.2351   -1.7595 H   0  0  0  0  0  0  0  0  0  0  0  0
   -1.7550   -1.3243   -1.1587 H   0  0  0  0  0  0  0  0  0  0  0  0
    0.1385   -0.3687   -2.2112 H   0  0  0  0  0  0  0  0  0  0  0  0
   -0.1609    1.2657   -1.3953 H   0  0  0  0  0  0  0  0  0  0  0  0
    0.2100   -1.3351    0.1756 H   0  0  0  0  0  0  0  0  0  0  0  0
    2.4519   -1.3390   -0.6730 H   0  0  0  0  0  0  0  0  0  0  0  0
    2.2774    1.1781    1.2745 H   0  0  0  0  0  0  0  0  0  0  0  0
    3.6745   -0.0580    1.0729 H   0  0  0  0  0  0  0  0  0  0  0  0
   -0.9551   -0.8810    1.8274 H   0  0  0  0  0  0  0  0  0  0  0  0
   -1.3076    0.8123    2.2161 H   0  0  0  0  0  0  0  0  0  0  0  0
  1  2  1  0
  2  3  1  0
  3  4  1  0
  4  5  1  0
  5  6  1  0
  6  7  1  0
  4  8  1  0
  8  9  1  0
  9  1  1  0
  7  5  1  0
  1 10  1  0
  1 11  1  0
  2 12  1  0
  2 13  1  0
  3 14  1  0
  3 15  1  0
  4 16  1  0
  5 17  1  0
  6 18  1  0
  6 19  1  0
  9 20  1  0
  9 21  1  0
M  END
