
     RDKit          3D

 21 22  0  0  0  0  0  0  0  0999 V2000
   -1.7024    1.2652   -0.3472 C   0  0  0  0  0  0  0  0  0  0  0  0
   -0.2261    1.2738   -0.2275 C   0  0  0  0  0  0  0  0  0  0  0  0
    0.4219   -0.0555   -0.0992 C   0  0  0  0  0  0  0  0  0  0  0  0
   -0.4670   -1.1288    0.4628 C   0  0  0  0  0  0  0  0  0  0  0  0
   -1.8864   -1.0256   -0.0856 C   0  0  0  0  0  0  0  0  0  0  0  0
   -2.3443    0.2212    0.2638 O   0  0  0  0  0  0  0  0  0  0  0  0
    1.6917    0.0395    0.7416 C   0  0  0  0  0  0  0  0  0  0  0  0
    2.4289   -0.5039   -0.4580 C   0  0  0  0  0  0  0  0  0  0  0  0
    1.2245   -0.4525   -1.1710 O   0  0  0  0  0  0  0  0  0  0  0  0
   -2.0901    2.2084    0.1352 H   0  0  0  0  0  0  0  0  0  0  0  0
   -2.0731    1.3386   -1.4085 H   0  0  0  0  0  0  0  0  0  0  0  0
    0.1827    1.8220   -1.1277 H   0  0  0  0  0  0  0  0  0  0  0  0
    0.0897    1.9283    0.6383 H   0  0  0  0  0  0  0  0  0  0  0  0
   -0.5665   -0.9100    1.5643 H   0  0  0  0  0  0  0  0  0  0  0  0
   -0.0425   -2.1164    0.3197 H   0  0  0  0  0  0  0  0  0  0  0  0
   -2.4903   -1.7693    0.4989 H   0  0  0  0  0  0  0  0  0  0  0  0
   -1.9232   -1.2460   -1.1622 H   0  0  0  0  0  0  0  0  0  0  0  0
    1.9799    1.0931    0.9890 H   0  0  0  0  0  0  0  0  0  0  0  0
    1.7311   -0.6404    1.6045 H   0  0  0  0  0  0  0  0  0  0  0  0
    2.8452   -1.5200   -0.3284 H   0  0  0  0  0  0  0  0  0  0  0  0
    3.2161    0.1783   -0.8026 H   0  0  0  0  0  0  0  0  0  0  0  0
  1  2  1  0
  2  3  1  0
  3  4  1  0
  4  5  1  0
  5  6  1  0
  3  7  1  0
  7  8  1  0
  8  9  1  0
  6  1  1  0
  9  3  1  0
  1 10  1  0
  1 11  1  0
  2 12  1  0
  2 13  1  0
  4 14  1  0
  4 15  1  0
  5 16  1  0
  5 17  1  0
  7 18  1  0
  7 19  1  0
  8 20  1  0
  8 21  1  0
M  END
