
     RDKit          3D

 19 21  0  0  0  0  0  0  0  0999 V2000
    0.8428    1.6515   -0.2507 C   0  0  0  0  0  0  0  0  0  0  0  0
    1.6437    0.4222   -0.1063 C   0  0  0  0  0  0  0  0  0  0  0  0
    0.9079   -0.8618   -0.3173 C   0  0  0  0  0  0  0  0  0  0  0  0
    0.3539   -1.6174    0.8825 C   0  0  0  0  0  0  0  0  0  0  0  0
   -0.5105   -0.8471    0.0194 C   0  0  0  0  0  0  0  0  0  0  0  0
   -1.5245   -1.2927   -0.7459 O   0  0  0  0  0  0  0  0  0  0  0  0
   -2.2395   -0.1110   -0.5156 C   0  0  0  0  0  0  0  0  0  0  0  0
   -1.0809    0.4780    0.2885 C   0  0  0  0  0  0  0  0  0  0  0  0
   -0.5020    1.4991   -0.4036 O   0  0  0  0  0  0  0  0  0  0  0  0
    1.0065    2.3427    0.6234 H   0  0  0  0  0  0  0  0  0  0  0  0
    1.2161    2.2382   -1.1407 H   0  0  0  0  0  0  0  0  0  0  0  0
    2.1150    0.3659    0.9115 H   0  0  0  0  0  0  0  0  0  0  0  0
    2.5155    0.4240   -0.8150 H   0  0  0  0  0  0  0  0  0  0  0  0
    1.2200   -1.5422   -1.1380 H   0  0  0  0  0  0  0  0  0  0  0  0
    0.6634   -1.1600    1.8548 H   0  0  0  0  0  0  0  0  0  0  0  0
    0.3059   -2.7171    0.8539 H   0  0  0  0  0  0  0  0  0  0  0  0
   -2.4602    0.4286   -1.4523 H   0  0  0  0  0  0  0  0  0  0  0  0
   -3.1329   -0.3557    0.0984 H   0  0  0  0  0  0  0  0  0  0  0  0
   -1.3401    0.6548    1.3530 H   0  0  0  0  0  0  0  0  0  0  0  0
  1  2  1  0
  2  3  1  0
  3  4  1  0
  4  5  1  0
  5  6  1  0
  6  7  1  0
  7  8  1  0
  8  9  1  0
  9  1  1  0
  5  3  1  0
  8  5  1  0
  1 10  1  0
  1 11  1  0
  2 12  1  0
  2 13  1  0
  3 14  1  0
  4 15  1  0
  4 16  1  0
  7 17  1  0
  7 18  1  0
  8 19  1  0
M  END
