
     RDKit          3D

 19 21  0  0  0  0  0  0  0  0999 V2000
    1.6430   -0.3905    0.1971 C   0  0  0  0  0  0  0  0  0  0  0  0
    0.7493   -1.5056    0.6687 C   0  0  0  0  0  0  0  0  0  0  0  0
   -0.6647   -1.1669    0.3016 C   0  0  0  0  0  0  0  0  0  0  0  0
   -0.7608   -0.8382   -1.0261 O   0  0  0  0  0  0  0  0  0  0  0  0
   -1.4313    0.2968   -0.7268 C   0  0  0  0  0  0  0  0  0  0  0  0
   -0.8519    1.3359    0.1368 C   0  0  0  0  0  0  0  0  0  0  0  0
    0.5991    1.6541    0.1666 C   0  0  0  0  0  0  0  0  0  0  0  0
    1.3493    0.7384    0.9102 O   0  0  0  0  0  0  0  0  0  0  0  0
   -1.1939    0.0898    0.8070 C   0  0  0  0  0  0  0  0  0  0  0  0
    1.5492   -0.2865   -0.8956 H   0  0  0  0  0  0  0  0  0  0  0  0
    2.6885   -0.6784    0.4045 H   0  0  0  0  0  0  0  0  0  0  0  0
    1.0213   -2.4062    0.0428 H   0  0  0  0  0  0  0  0  0  0  0  0
    0.8974   -1.7891    1.7065 H   0  0  0  0  0  0  0  0  0  0  0  0
   -1.3144   -2.0700    0.4983 H   0  0  0  0  0  0  0  0  0  0  0  0
   -2.4848    0.3399   -1.0247 H   0  0  0  0  0  0  0  0  0  0  0  0
   -1.5222    2.2165    0.2926 H   0  0  0  0  0  0  0  0  0  0  0  0
    0.7838    2.6480    0.6344 H   0  0  0  0  0  0  0  0  0  0  0  0
    1.0689    1.7242   -0.8508 H   0  0  0  0  0  0  0  0  0  0  0  0
   -2.1256    0.0879    1.4291 H   0  0  0  0  0  0  0  0  0  0  0  0
  1  2  1  0
  2  3  1  0
  3  4  1  0
  4  5  1  0
  5  6  1  0
  6  7  1  0
  7  8  1  0
  6  9  1  0
  8  1  1  0
  9  3  1  0
  9  5  1  0
  1 10  1  0
  1 11  1  0
  2 12  1  0
  2 13  1  0
  3 14  1  0
  5 15  1  0
  6 16  1  0
  7 17  1  0
  7 18  1  0
  9 19  1  0
M  END
