
     RDKit          3D

 21 23  0  0  0  0  0  0  0  0999 V2000
    2.3892   -0.0561   -0.3045 C   0  0  0  0  0  0  0  0  0  0  0  0
    1.6499   -0.3502    0.9774 C   0  0  0  0  0  0  0  0  0  0  0  0
    0.2183   -0.4558    0.4474 C   0  0  0  0  0  0  0  0  0  0  0  0
    0.1108    0.2897   -0.6161 C   0  0  0  0  0  0  0  0  0  0  0  0
    1.4183    0.9626   -0.9192 C   0  0  0  0  0  0  0  0  0  0  0  0
   -1.2676    0.2205   -1.1560 C   0  0  0  0  0  0  0  0  0  0  0  0
   -2.2716    0.9132   -0.2570 C   0  0  0  0  0  0  0  0  0  0  0  0
   -2.0538   -0.5524   -0.1862 C   0  0  0  0  0  0  0  0  0  0  0  0
   -1.0691   -1.1251    0.7433 C   0  0  0  0  0  0  0  0  0  0  0  0
    3.3869    0.3832   -0.1401 H   0  0  0  0  0  0  0  0  0  0  0  0
    2.3687   -0.9387   -0.9404 H   0  0  0  0  0  0  0  0  0  0  0  0
    1.9506   -1.3090    1.4358 H   0  0  0  0  0  0  0  0  0  0  0  0
    1.7157    0.4923    1.6963 H   0  0  0  0  0  0  0  0  0  0  0  0
    1.5446    1.0592   -1.9952 H   0  0  0  0  0  0  0  0  0  0  0  0
    1.5450    1.9165   -0.4125 H   0  0  0  0  0  0  0  0  0  0  0  0
   -1.4430    0.1996   -2.2419 H   0  0  0  0  0  0  0  0  0  0  0  0
   -3.1372    1.3265   -0.7899 H   0  0  0  0  0  0  0  0  0  0  0  0
   -1.9217    1.5505    0.5756 H   0  0  0  0  0  0  0  0  0  0  0  0
   -2.8133   -1.2521   -0.6059 H   0  0  0  0  0  0  0  0  0  0  0  0
   -0.9760   -2.2439    0.5693 H   0  0  0  0  0  0  0  0  0  0  0  0
   -1.3448   -1.0307    1.8223 H   0  0  0  0  0  0  0  0  0  0  0  0
  1  2  1  0
  2  3  1  0
  3  4  2  0
  4  5  1  0
  4  6  1  0
  6  7  1  0
  7  8  1  0
  8  9  1  0
  5  1  1  0
  8  6  1  0
  9  3  1  0
  1 10  1  0
  1 11  1  0
  2 12  1  0
  2 13  1  0
  5 14  1  0
  5 15  1  0
  6 16  1  0
  7 17  1  0
  7 18  1  0
  8 19  1  0
  9 20  1  0
  9 21  1  0
M  END
