
     RDKit          3D

 18 20  0  0  0  0  0  0  0  0999 V2000
    2.4550   -0.0161    0.1362 C   0  0  0  0  0  0  0  0  0  0  0  0
    1.2697    0.2103   -0.8087 C   0  0  0  0  0  0  0  0  0  0  0  0
    0.5768    0.2517    0.5021 C   0  0  0  0  0  0  0  0  0  0  0  0
    1.6956    0.4676    1.2262 O   0  0  0  0  0  0  0  0  0  0  0  0
   -0.7107    0.8664    0.7597 C   0  0  0  0  0  0  0  0  0  0  0  0
   -1.8867    0.5856   -0.1024 C   0  0  0  0  0  0  0  0  0  0  0  0
   -1.5616   -0.8885   -0.2170 C   0  0  0  0  0  0  0  0  0  0  0  0
   -0.5013   -0.6769    0.8491 C   0  0  0  0  0  0  0  0  0  0  0  0
    2.6753   -1.0816    0.3268 H   0  0  0  0  0  0  0  0  0  0  0  0
    3.3163    0.6448   -0.0472 H   0  0  0  0  0  0  0  0  0  0  0  0
    1.3269    1.1404   -1.3949 H   0  0  0  0  0  0  0  0  0  0  0  0
    1.0911   -0.7237   -1.3825 H   0  0  0  0  0  0  0  0  0  0  0  0
   -0.9153    1.3434    1.7579 H   0  0  0  0  0  0  0  0  0  0  0  0
   -2.8958    0.6861    0.3952 H   0  0  0  0  0  0  0  0  0  0  0  0
   -1.9368    1.0841   -1.0810 H   0  0  0  0  0  0  0  0  0  0  0  0
   -1.0801   -1.1759   -1.1903 H   0  0  0  0  0  0  0  0  0  0  0  0
   -2.3259   -1.5785    0.1521 H   0  0  0  0  0  0  0  0  0  0  0  0
   -0.5926   -1.1390    1.8255 H   0  0  0  0  0  0  0  0  0  0  0  0
  1  2  1  0
  2  3  1  0
  3  4  1  0
  3  5  1  0
  5  6  1  0
  6  7  1  0
  7  8  1  0
  4  1  1  0
  8  5  1  0
  8  3  1  0
  1  9  1  0
  1 10  1  0
  2 11  1  0
  2 12  1  0
  5 13  1  0
  6 14  1  0
  6 15  1  0
  7 16  1  0
  7 17  1  0
  8 18  1  0
M  END
