
     RDKit          3D

 21 23  0  0  0  0  0  0  0  0999 V2000
    2.0471    0.3442   -0.0219 C   0  0  0  0  0  0  0  0  0  0  0  0
    1.4774   -0.9106   -0.6032 C   0  0  0  0  0  0  0  0  0  0  0  0
    0.0927   -1.0935   -0.0291 C   0  0  0  0  0  0  0  0  0  0  0  0
   -0.7621   -1.4249   -1.0381 O   0  0  0  0  0  0  0  0  0  0  0  0
   -1.7764   -0.5141   -1.1145 C   0  0  0  0  0  0  0  0  0  0  0  0
   -1.3927    0.6990   -0.3126 C   0  0  0  0  0  0  0  0  0  0  0  0
   -1.5429    0.5042    1.2003 C   0  0  0  0  0  0  0  0  0  0  0  0
   -0.2743    0.2444    0.5185 C   0  0  0  0  0  0  0  0  0  0  0  0
    0.9653    1.0301    0.7512 C   0  0  0  0  0  0  0  0  0  0  0  0
    2.4902    0.9941   -0.8264 H   0  0  0  0  0  0  0  0  0  0  0  0
    2.9210    0.0884    0.6419 H   0  0  0  0  0  0  0  0  0  0  0  0
    1.4692   -0.8277   -1.7168 H   0  0  0  0  0  0  0  0  0  0  0  0
    2.0638   -1.8211   -0.3104 H   0  0  0  0  0  0  0  0  0  0  0  0
    0.0569   -1.8963    0.7480 H   0  0  0  0  0  0  0  0  0  0  0  0
   -2.6955   -1.0017   -0.6769 H   0  0  0  0  0  0  0  0  0  0  0  0
   -1.9265   -0.2552   -2.1876 H   0  0  0  0  0  0  0  0  0  0  0  0
   -1.5374    1.7066   -0.6837 H   0  0  0  0  0  0  0  0  0  0  0  0
   -1.6407    1.4231    1.7890 H   0  0  0  0  0  0  0  0  0  0  0  0
   -2.1266   -0.3603    1.5565 H   0  0  0  0  0  0  0  0  0  0  0  0
    0.8962    2.0950    0.4631 H   0  0  0  0  0  0  0  0  0  0  0  0
    1.1952    0.9763    1.8528 H   0  0  0  0  0  0  0  0  0  0  0  0
  1  2  1  0
  2  3  1  0
  3  4  1  0
  4  5  1  0
  5  6  1  0
  6  7  1  0
  7  8  1  0
  8  9  1  0
  9  1  1  0
  8  3  1  0
  8  6  1  0
  1 10  1  0
  1 11  1  0
  2 12  1  0
  2 13  1  0
  3 14  1  0
  5 15  1  0
  5 16  1  0
  6 17  1  0
  7 18  1  0
  7 19  1  0
  9 20  1  0
  9 21  1  0
M  END
