
     RDKit          2D

 21 24  0  0  0  0  0  0  0  0999 V2000
   -3.9548   -0.8817    0.0000 C   0  0  0  0  0  0  0  0  0  0  0  0
   -3.0731   -2.0952    0.0000 C   0  0  0  0  0  0  0  0  0  0  0  0
   -1.8596   -1.2135    0.0000 C   0  0  0  0  0  0  0  0  0  0  0  0
   -0.7989    0.1529    0.0000 C   0  0  0  0  0  0  0  0  0  0  0  0
   -1.8596    1.2135    0.0000 C   0  0  0  0  0  0  0  0  0  0  0  0
   -0.4330    0.7500    0.0000 C   0  0  0  0  0  0  0  0  0  0  0  0
    0.8660    0.0000    0.0000 C   0  0  0  0  0  0  0  0  0  0  0  0
   -0.4330   -0.7500    0.0000 C   0  0  0  0  0  0  0  0  0  0  0  0
   -2.7413    0.0000    0.0000 C   0  0  0  0  0  0  0  0  0  0  0  0
   -4.8365    0.3318    0.0000 H   0  0  0  0  0  0  0  0  0  0  0  0
   -5.1683   -1.7634    0.0000 H   0  0  0  0  0  0  0  0  0  0  0  0
   -4.2866   -2.9769    0.0000 H   0  0  0  0  0  0  0  0  0  0  0  0
   -2.1914   -3.3087    0.0000 H   0  0  0  0  0  0  0  0  0  0  0  0
    0.2617    1.2135    0.0000 H   0  0  0  0  0  0  0  0  0  0  0  0
   -0.1156   -0.2577    0.0000 H   0  0  0  0  0  0  0  0  0  0  0  0
   -2.3231    2.6401    0.0000 H   0  0  0  0  0  0  0  0  0  0  0  0
    0.1771    2.1203    0.0000 H   0  0  0  0  0  0  0  0  0  0  0  0
    1.8302    1.1491    0.0000 H   0  0  0  0  0  0  0  0  0  0  0  0
    1.8302   -1.1491    0.0000 H   0  0  0  0  0  0  0  0  0  0  0  0
    0.1771   -2.1203    0.0000 H   0  0  0  0  0  0  0  0  0  0  0  0
   -3.8019    1.0607    0.0000 H   0  0  0  0  0  0  0  0  0  0  0  0
  1  2  1  0
  2  3  1  0
  3  4  1  0
  4  5  1  0
  5  6  1  0
  6  7  1  0
  7  8  1  0
  5  9  1  0
  9  1  1  0
  8  3  1  0
  9  3  1  0
  8  6  1  0
  1 10  1  0
  1 11  1  0
  2 12  1  0
  2 13  1  0
  4 14  1  0
  4 15  1  0
  5 16  1  0
  6 17  1  0
  7 18  1  0
  7 19  1  0
  8 20  1  0
  9 21  1  0
M  END
