
     RDKit          3D

 21 23  0  0  0  0  0  0  0  0999 V2000
   -2.5163    0.2413    0.1296 C   0  0  0  0  0  0  0  0  0  0  0  0
   -1.6732   -0.7956   -0.6240 C   0  0  0  0  0  0  0  0  0  0  0  0
   -0.6312   -0.1696    0.2086 C   0  0  0  0  0  0  0  0  0  0  0  0
    0.0946    1.0345   -0.4206 C   0  0  0  0  0  0  0  0  0  0  0  0
    1.4395    0.4510   -0.5947 C   0  0  0  0  0  0  0  0  0  0  0  0
    2.6167    0.4230    0.1670 C   0  0  0  0  0  0  0  0  0  0  0  0
    1.5307   -0.0683    0.9003 C   0  0  0  0  0  0  0  0  0  0  0  0
    0.4994   -1.1047    0.6816 C   0  0  0  0  0  0  0  0  0  0  0  0
   -1.5565    0.1469    1.1650 O   0  0  0  0  0  0  0  0  0  0  0  0
   -3.4766   -0.1196    0.4896 H   0  0  0  0  0  0  0  0  0  0  0  0
   -2.4667    1.2151   -0.3654 H   0  0  0  0  0  0  0  0  0  0  0  0
   -1.9166   -1.8114   -0.2980 H   0  0  0  0  0  0  0  0  0  0  0  0
   -1.6335   -0.6255   -1.7185 H   0  0  0  0  0  0  0  0  0  0  0  0
   -0.3929    1.2867   -1.3809 H   0  0  0  0  0  0  0  0  0  0  0  0
    0.0690    1.8872    0.2621 H   0  0  0  0  0  0  0  0  0  0  0  0
    1.3679   -0.3634   -1.3840 H   0  0  0  0  0  0  0  0  0  0  0  0
    3.0890    1.4114    0.4422 H   0  0  0  0  0  0  0  0  0  0  0  0
    3.4480   -0.2833   -0.1007 H   0  0  0  0  0  0  0  0  0  0  0  0
    1.1212    0.6538    1.6785 H   0  0  0  0  0  0  0  0  0  0  0  0
    0.7781   -1.7190   -0.1941 H   0  0  0  0  0  0  0  0  0  0  0  0
    0.2095   -1.6904    1.5496 H   0  0  0  0  0  0  0  0  0  0  0  0
  1  2  1  0
  2  3  1  0
  3  4  1  0
  4  5  1  0
  5  6  1  0
  6  7  1  0
  7  8  1  0
  3  9  1  0
  9  1  1  0
  8  3  1  0
  7  5  1  0
  1 10  1  0
  1 11  1  0
  2 12  1  0
  2 13  1  0
  4 14  1  0
  4 15  1  0
  5 16  1  0
  6 17  1  0
  6 18  1  0
  7 19  1  0
  8 20  1  0
  8 21  1  0
M  END
