
     RDKit          3D

 17 20  0  0  0  0  0  0  0  0999 V2000
   -1.7382   -0.4286    0.4269 C   0  0  0  0  0  0  0  0  0  0  0  0
   -1.3715   -0.4479   -1.0835 C   0  0  0  0  0  0  0  0  0  0  0  0
   -0.4926    0.1208   -0.1090 C   0  0  0  0  0  0  0  0  0  0  0  0
   -0.2117    1.5636    0.1140 C   0  0  0  0  0  0  0  0  0  0  0  0
    0.1981    1.8871    1.4012 O   0  0  0  0  0  0  0  0  0  0  0  0
    1.1314    1.2190    0.6338 C   0  0  0  0  0  0  0  0  0  0  0  0
    0.8569   -0.2348    0.2567 C   0  0  0  0  0  0  0  0  0  0  0  0
    1.8195   -1.0868   -0.1750 C   0  0  0  0  0  0  0  0  0  0  0  0
    1.1323   -1.2341    1.1517 O   0  0  0  0  0  0  0  0  0  0  0  0
   -1.7637   -1.3779    0.9556 H   0  0  0  0  0  0  0  0  0  0  0  0
   -2.5271    0.3259    0.7036 H   0  0  0  0  0  0  0  0  0  0  0  0
   -1.1734   -1.4791   -1.4579 H   0  0  0  0  0  0  0  0  0  0  0  0
   -2.0541    0.1107   -1.7583 H   0  0  0  0  0  0  0  0  0  0  0  0
   -0.3984    2.3321   -0.6207 H   0  0  0  0  0  0  0  0  0  0  0  0
    2.0522    1.6900    0.3013 H   0  0  0  0  0  0  0  0  0  0  0  0
    2.8967   -0.9673    0.0685 H   0  0  0  0  0  0  0  0  0  0  0  0
    1.6437   -1.9928   -0.8089 H   0  0  0  0  0  0  0  0  0  0  0  0
  1  2  1  0
  2  3  1  0
  3  4  1  0
  4  5  1  0
  5  6  1  0
  6  7  1  0
  7  8  1  0
  8  9  1  0
  3  1  1  0
  6  4  1  0
  9  7  1  0
  7  3  1  0
  1 10  1  0
  1 11  1  0
  2 12  1  0
  2 13  1  0
  4 14  1  0
  6 15  1  0
  8 16  1  0
  8 17  1  0
M  END
