
     RDKit          3D

 11 12  0  0  0  0  0  0  0  0999 V2000
   -1.0048   -0.2766   -0.0249 C   0  0  0  0  0  0  0  0  0  0  0  0
   -0.1413    0.9805   -0.1266 C   0  0  0  0  0  0  0  0  0  0  0  0
    1.0921    0.1654   -0.2420 C   0  0  0  0  0  0  0  0  0  0  0  0
    1.1167   -1.0310   -0.9304 O   0  0  0  0  0  0  0  0  0  0  0  0
    0.2719   -1.0615    0.1507 C   0  0  0  0  0  0  0  0  0  0  0  0
   -1.6880   -0.2867    0.8513 H   0  0  0  0  0  0  0  0  0  0  0  0
   -1.5697   -0.4958   -0.9656 H   0  0  0  0  0  0  0  0  0  0  0  0
   -0.4552    1.5694   -0.9981 H   0  0  0  0  0  0  0  0  0  0  0  0
   -0.1807    1.5100    0.8578 H   0  0  0  0  0  0  0  0  0  0  0  0
    2.0075    0.4005    0.3120 H   0  0  0  0  0  0  0  0  0  0  0  0
    0.5514   -1.4742    1.1157 H   0  0  0  0  0  0  0  0  0  0  0  0
  1  2  1  0
  2  3  1  0
  3  4  1  0
  4  5  1  0
  5  1  1  0
  5  3  1  0
  1  6  1  0
  1  7  1  0
  2  8  1  0
  2  9  1  0
  3 10  1  0
  5 11  1  0
M  END
