
     RDKit          2D

 21 23  0  0  0  0  0  0  0  0999 V2000
   -2.8978    1.8371    0.0000 C   0  0  0  0  0  0  0  0  0  0  0  0
   -2.5095    0.3882    0.0000 C   0  0  0  0  0  0  0  0  0  0  0  0
   -1.0607    0.0000    0.0000 C   0  0  0  0  0  0  0  0  0  0  0  0
   -0.0000   -1.0607    0.0000 C   0  0  0  0  0  0  0  0  0  0  0  0
    1.0607    0.0000    0.0000 C   0  0  0  0  0  0  0  0  0  0  0  0
    0.0000    1.0607    0.0000 C   0  0  0  0  0  0  0  0  0  0  0  0
   -0.3882    2.5095    0.0000 C   0  0  0  0  0  0  0  0  0  0  0  0
   -1.8371    2.8978    0.0000 O   0  0  0  0  0  0  0  0  0  0  0  0
   -0.3607    0.0000    0.0000 C   0  0  0  0  0  0  0  0  0  0  0  0
   -3.7581    3.0658    0.0000 H   0  0  0  0  0  0  0  0  0  0  0  0
   -4.2572    1.2032    0.0000 H   0  0  0  0  0  0  0  0  0  0  0  0
   -4.0038    0.2575    0.0000 H   0  0  0  0  0  0  0  0  0  0  0  0
   -2.9980   -1.0300    0.0000 H   0  0  0  0  0  0  0  0  0  0  0  0
   -1.5035   -0.7671    0.0000 H   0  0  0  0  0  0  0  0  0  0  0  0
   -0.0000   -2.5607    0.0000 H   0  0  0  0  0  0  0  0  0  0  0  0
    2.1213    1.0607    0.0000 H   0  0  0  0  0  0  0  0  0  0  0  0
    2.1213   -1.0607    0.0000 H   0  0  0  0  0  0  0  0  0  0  0  0
    1.1061    2.6403    0.0000 H   0  0  0  0  0  0  0  0  0  0  0  0
   -0.2575    4.0038    0.0000 H   0  0  0  0  0  0  0  0  0  0  0  0
   -0.9311   -0.4981    0.0000 H   0  0  0  0  0  0  0  0  0  0  0  0
   -2.3465    0.7725    0.0000 H   0  0  0  0  0  0  0  0  0  0  0  0
  1  2  1  0
  2  3  1  0
  3  4  1  0
  4  5  1  0
  5  6  1  0
  6  7  1  0
  7  8  1  0
  6  9  1  0
  8  1  1  0
  6  3  1  0
  9  4  1  0
  1 10  1  0
  1 11  1  0
  2 12  1  0
  2 13  1  0
  3 14  1  0
  4 15  1  0
  5 16  1  0
  5 17  1  0
  7 18  1  0
  7 19  1  0
  9 20  1  0
  9 21  1  0
M  END
