
     RDKit          3D

 21 23  0  0  0  0  0  0  0  0999 V2000
    1.5843    0.9419   -0.2539 C   0  0  0  0  0  0  0  0  0  0  0  0
    1.5436   -0.4054    0.3658 C   0  0  0  0  0  0  0  0  0  0  0  0
    0.4541   -1.2993   -0.1245 C   0  0  0  0  0  0  0  0  0  0  0  0
   -0.3524   -0.5819   -1.2197 C   0  0  0  0  0  0  0  0  0  0  0  0
   -1.1919   -0.0806   -0.1343 C   0  0  0  0  0  0  0  0  0  0  0  0
   -0.8045   -1.1578    0.7525 C   0  0  0  0  0  0  0  0  0  0  0  0
   -2.0064    1.0553   -0.0133 C   0  0  0  0  0  0  0  0  0  0  0  0
   -0.5963    1.2260    0.4864 C   0  0  0  0  0  0  0  0  0  0  0  0
    0.4033    1.6134   -0.3344 O   0  0  0  0  0  0  0  0  0  0  0  0
    2.0654    0.8647   -1.2747 H   0  0  0  0  0  0  0  0  0  0  0  0
    2.3305    1.5521    0.3360 H   0  0  0  0  0  0  0  0  0  0  0  0
    2.5205   -0.9176    0.1169 H   0  0  0  0  0  0  0  0  0  0  0  0
    1.5490   -0.3684    1.4938 H   0  0  0  0  0  0  0  0  0  0  0  0
    0.7044   -2.3208   -0.3990 H   0  0  0  0  0  0  0  0  0  0  0  0
    0.2380    0.1367   -1.8130 H   0  0  0  0  0  0  0  0  0  0  0  0
   -0.8896   -1.2623   -1.8993 H   0  0  0  0  0  0  0  0  0  0  0  0
   -0.5359   -0.8928    1.8084 H   0  0  0  0  0  0  0  0  0  0  0  0
   -1.4354   -2.0664    0.7077 H   0  0  0  0  0  0  0  0  0  0  0  0
   -2.8363    1.0735    0.7256 H   0  0  0  0  0  0  0  0  0  0  0  0
   -2.2339    1.6648   -0.9153 H   0  0  0  0  0  0  0  0  0  0  0  0
   -0.5105    1.2251    1.5881 H   0  0  0  0  0  0  0  0  0  0  0  0
  1  2  1  0
  2  3  1  0
  3  4  1  0
  4  5  1  0
  5  6  1  0
  5  7  1  0
  7  8  1  0
  8  9  1  0
  9  1  1  0
  6  3  1  0
  8  5  1  0
  1 10  1  0
  1 11  1  0
  2 12  1  0
  2 13  1  0
  3 14  1  0
  4 15  1  0
  4 16  1  0
  6 17  1  0
  6 18  1  0
  7 19  1  0
  7 20  1  0
  8 21  1  0
M  END
