
     RDKit          3D

 23 25  0  0  0  0  0  0  0  0999 V2000
    2.3387    0.0611   -0.4656 C   0  0  0  0  0  0  0  0  0  0  0  0
    1.1515   -0.8884   -0.6853 C   0  0  0  0  0  0  0  0  0  0  0  0
    0.3004    0.2149   -0.2554 C   0  0  0  0  0  0  0  0  0  0  0  0
    1.3116    1.1913   -0.6588 C   0  0  0  0  0  0  0  0  0  0  0  0
   -1.0978    0.3239   -0.6791 C   0  0  0  0  0  0  0  0  0  0  0  0
   -1.7112   -0.9721   -0.1654 C   0  0  0  0  0  0  0  0  0  0  0  0
   -1.0322   -1.0226    1.2200 C   0  0  0  0  0  0  0  0  0  0  0  0
   -0.2310    0.2432    1.1415 C   0  0  0  0  0  0  0  0  0  0  0  0
   -1.2841    1.2074    0.5682 C   0  0  0  0  0  0  0  0  0  0  0  0
    2.6476    0.0149    0.5926 H   0  0  0  0  0  0  0  0  0  0  0  0
    3.1137    0.0141   -1.2257 H   0  0  0  0  0  0  0  0  0  0  0  0
    1.1898   -1.8144   -0.1214 H   0  0  0  0  0  0  0  0  0  0  0  0
    1.0744   -1.0950   -1.7780 H   0  0  0  0  0  0  0  0  0  0  0  0
    1.2638    1.4207   -1.7626 H   0  0  0  0  0  0  0  0  0  0  0  0
    1.4930    2.0776   -0.0536 H   0  0  0  0  0  0  0  0  0  0  0  0
   -1.4116    0.7128   -1.6072 H   0  0  0  0  0  0  0  0  0  0  0  0
   -2.8014   -0.8879   -0.0522 H   0  0  0  0  0  0  0  0  0  0  0  0
   -1.3706   -1.7968   -0.7962 H   0  0  0  0  0  0  0  0  0  0  0  0
   -1.7825   -0.9538    2.0071 H   0  0  0  0  0  0  0  0  0  0  0  0
   -0.3799   -1.9095    1.2718 H   0  0  0  0  0  0  0  0  0  0  0  0
    0.3544    0.5762    1.9518 H   0  0  0  0  0  0  0  0  0  0  0  0
   -2.2265    1.0544    1.0957 H   0  0  0  0  0  0  0  0  0  0  0  0
   -0.9102    2.2280    0.4577 H   0  0  0  0  0  0  0  0  0  0  0  0
  1  2  1  0
  2  3  1  0
  3  4  1  0
  3  5  1  0
  5  6  1  0
  6  7  1  0
  7  8  1  0
  8  9  1  0
  4  1  1  0
  9  5  1  0
  8  3  1  0
  1 10  1  0
  1 11  1  0
  2 12  1  0
  2 13  1  0
  4 14  1  0
  4 15  1  0
  5 16  1  0
  6 17  1  0
  6 18  1  0
  7 19  1  0
  7 20  1  0
  8 21  1  0
  9 22  1  0
  9 23  1  0
M  END
