
     RDKit          3D

 19 21  0  0  0  0  0  0  0  0999 V2000
    1.6668    0.5148   -0.6973 C   0  0  0  0  0  0  0  0  0  0  0  0
    1.6543   -0.9268   -0.1663 C   0  0  0  0  0  0  0  0  0  0  0  0
    0.3701   -0.6113    0.4934 C   0  0  0  0  0  0  0  0  0  0  0  0
   -0.0485   -1.1513    1.6612 O   0  0  0  0  0  0  0  0  0  0  0  0
   -0.8496   -1.1847    0.5171 C   0  0  0  0  0  0  0  0  0  0  0  0
   -2.0436   -0.2610    0.4369 C   0  0  0  0  0  0  0  0  0  0  0  0
   -1.7324    1.0644    0.5696 O   0  0  0  0  0  0  0  0  0  0  0  0
   -0.7010    1.3923   -0.3335 C   0  0  0  0  0  0  0  0  0  0  0  0
    0.5757    0.8601    0.3007 C   0  0  0  0  0  0  0  0  0  0  0  0
    2.6492    0.9600   -0.4799 H   0  0  0  0  0  0  0  0  0  0  0  0
    1.3965    0.5986   -1.7514 H   0  0  0  0  0  0  0  0  0  0  0  0
    1.4959   -1.6567   -1.0066 H   0  0  0  0  0  0  0  0  0  0  0  0
    2.5086   -1.1694    0.4915 H   0  0  0  0  0  0  0  0  0  0  0  0
   -1.0805   -2.2006    0.0789 H   0  0  0  0  0  0  0  0  0  0  0  0
   -2.8244   -0.5884    1.1197 H   0  0  0  0  0  0  0  0  0  0  0  0
   -2.4604   -0.3973   -0.6038 H   0  0  0  0  0  0  0  0  0  0  0  0
   -0.8817    0.8402   -1.2622 H   0  0  0  0  0  0  0  0  0  0  0  0
   -0.6645    2.4824   -0.5042 H   0  0  0  0  0  0  0  0  0  0  0  0
    0.9695    1.4347    1.1362 H   0  0  0  0  0  0  0  0  0  0  0  0
  1  2  1  0
  2  3  1  0
  3  4  1  0
  4  5  1  0
  5  6  1  0
  6  7  1  0
  7  8  1  0
  8  9  1  0
  9  1  1  0
  5  3  1  0
  9  3  1  0
  1 10  1  0
  1 11  1  0
  2 12  1  0
  2 13  1  0
  5 14  1  0
  6 15  1  0
  6 16  1  0
  8 17  1  0
  8 18  1  0
  9 19  1  0
M  END
