
     RDKit          3D

 21 23  0  0  0  0  0  0  0  0999 V2000
    1.8055    0.3038   -0.0360 C   0  0  0  0  0  0  0  0  0  0  0  0
    1.2658   -1.0315   -0.4230 C   0  0  0  0  0  0  0  0  0  0  0  0
   -0.2038   -1.1564   -0.1818 C   0  0  0  0  0  0  0  0  0  0  0  0
   -1.0081   -0.0191   -0.7689 C   0  0  0  0  0  0  0  0  0  0  0  0
   -0.3341    1.3158   -0.5986 C   0  0  0  0  0  0  0  0  0  0  0  0
    0.6753    1.1416    0.5369 C   0  0  0  0  0  0  0  0  0  0  0  0
    0.0632    0.4834    1.5718 O   0  0  0  0  0  0  0  0  0  0  0  0
   -0.6355   -0.6352    1.1721 C   0  0  0  0  0  0  0  0  0  0  0  0
   -1.9224   -0.1942    0.4534 C   0  0  0  0  0  0  0  0  0  0  0  0
    2.6853    0.2634    0.6169 H   0  0  0  0  0  0  0  0  0  0  0  0
    2.1303    0.8381   -0.9719 H   0  0  0  0  0  0  0  0  0  0  0  0
    1.7677   -1.8558    0.1103 H   0  0  0  0  0  0  0  0  0  0  0  0
    1.4320   -1.2356   -1.5147 H   0  0  0  0  0  0  0  0  0  0  0  0
   -0.6287   -2.1246   -0.4140 H   0  0  0  0  0  0  0  0  0  0  0  0
   -1.4610   -0.2405   -1.7249 H   0  0  0  0  0  0  0  0  0  0  0  0
    0.1608    1.6832   -1.5078 H   0  0  0  0  0  0  0  0  0  0  0  0
   -1.0754    2.0712   -0.2026 H   0  0  0  0  0  0  0  0  0  0  0  0
    1.0275    2.1314    0.8150 H   0  0  0  0  0  0  0  0  0  0  0  0
   -0.8264   -1.3860    1.9424 H   0  0  0  0  0  0  0  0  0  0  0  0
   -2.5499   -1.0729    0.2959 H   0  0  0  0  0  0  0  0  0  0  0  0
   -2.3677    0.7198    0.8296 H   0  0  0  0  0  0  0  0  0  0  0  0
  1  2  1  0
  2  3  1  0
  3  4  1  0
  4  5  1  0
  5  6  1  0
  6  7  1  0
  7  8  1  0
  8  9  1  0
  6  1  1  0
  8  3  1  0
  9  4  1  0
  1 10  1  0
  1 11  1  0
  2 12  1  0
  2 13  1  0
  3 14  1  0
  4 15  1  0
  5 16  1  0
  5 17  1  0
  6 18  1  0
  8 19  1  0
  9 20  1  0
  9 21  1  0
M  END
