
     RDKit          3D

 12 13  0  0  0  0  0  0  0  0999 V2000
    2.0961   -0.5223    0.0315 C   0  0  0  0  0  0  0  0  0  0  0  0
    1.4851    0.7177    0.1095 C   0  0  0  0  0  0  0  0  0  0  0  0
    0.1275    0.5457   -0.0682 C   0  0  0  0  0  0  0  0  0  0  0  0
   -0.0257   -0.8309   -0.2510 C   0  0  0  0  0  0  0  0  0  0  0  0
    1.1521   -1.4085   -0.1840 O   0  0  0  0  0  0  0  0  0  0  0  0
   -1.3952   -1.0372   -0.4342 O   0  0  0  0  0  0  0  0  0  0  0  0
   -2.0817    0.1184    0.0047 C   0  0  0  0  0  0  0  0  0  0  0  0
   -1.1206    1.1503   -0.1401 O   0  0  0  0  0  0  0  0  0  0  0  0
    3.1744   -0.6919    0.1360 H   0  0  0  0  0  0  0  0  0  0  0  0
    1.9756    1.6754    0.2811 H   0  0  0  0  0  0  0  0  0  0  0  0
   -3.0112    0.3133   -0.5555 H   0  0  0  0  0  0  0  0  0  0  0  0
   -2.3763   -0.0301    1.0702 H   0  0  0  0  0  0  0  0  0  0  0  0
  1  2  2  0
  2  3  1  0
  3  4  2  0
  4  5  1  0
  4  6  1  0
  6  7  1  0
  7  8  1  0
  5  1  1  0
  8  3  1  0
  1  9  1  0
  2 10  1  0
  7 11  1  0
  7 12  1  0
M  END
