
     RDKit          3D

 23 25  0  0  0  0  0  0  0  0999 V2000
   -0.8735   -1.8076   -0.6270 C   0  0  0  0  0  0  0  0  0  0  0  0
   -1.4722   -0.7967    0.3423 C   0  0  0  0  0  0  0  0  0  0  0  0
   -0.6077    0.4170    0.1177 C   0  0  0  0  0  0  0  0  0  0  0  0
   -0.8371    1.6435    0.9019 C   0  0  0  0  0  0  0  0  0  0  0  0
   -1.1779    1.5948   -0.5459 C   0  0  0  0  0  0  0  0  0  0  0  0
    0.7404   -0.1286   -0.1703 C   0  0  0  0  0  0  0  0  0  0  0  0
    0.6057   -1.6013   -0.3927 C   0  0  0  0  0  0  0  0  0  0  0  0
    1.8523    0.3106    0.8212 C   0  0  0  0  0  0  0  0  0  0  0  0
    1.8847    0.6606   -0.6118 C   0  0  0  0  0  0  0  0  0  0  0  0
   -1.1722   -1.5788   -1.6735 H   0  0  0  0  0  0  0  0  0  0  0  0
   -1.1929   -2.8127   -0.2963 H   0  0  0  0  0  0  0  0  0  0  0  0
   -2.5256   -0.6488    0.0658 H   0  0  0  0  0  0  0  0  0  0  0  0
   -1.3348   -1.1791    1.3651 H   0  0  0  0  0  0  0  0  0  0  0  0
   -0.0116    2.3282    1.1919 H   0  0  0  0  0  0  0  0  0  0  0  0
   -1.6408    1.5971    1.6566 H   0  0  0  0  0  0  0  0  0  0  0  0
   -0.5161    2.1328   -1.2613 H   0  0  0  0  0  0  0  0  0  0  0  0
   -2.2452    1.5745   -0.8716 H   0  0  0  0  0  0  0  0  0  0  0  0
    0.8398   -2.1009    0.5869 H   0  0  0  0  0  0  0  0  0  0  0  0
    1.2333   -1.9613   -1.2166 H   0  0  0  0  0  0  0  0  0  0  0  0
    1.5458    1.0444    1.6011 H   0  0  0  0  0  0  0  0  0  0  0  0
    2.4840   -0.5124    1.1954 H   0  0  0  0  0  0  0  0  0  0  0  0
    1.7555    1.7118   -0.9680 H   0  0  0  0  0  0  0  0  0  0  0  0
    2.6661    0.1128   -1.2109 H   0  0  0  0  0  0  0  0  0  0  0  0
  1  2  1  0
  2  3  1  0
  3  4  1  0
  4  5  1  0
  3  6  1  0
  6  7  1  0
  6  8  1  0
  8  9  1  0
  7  1  1  0
  5  3  1  0
  9  6  1  0
  1 10  1  0
  1 11  1  0
  2 12  1  0
  2 13  1  0
  4 14  1  0
  4 15  1  0
  5 16  1  0
  5 17  1  0
  7 18  1  0
  7 19  1  0
  8 20  1  0
  8 21  1  0
  9 22  1  0
  9 23  1  0
M  END
