
     RDKit          3D

 23 25  0  0  0  0  0  0  0  0999 V2000
   -0.1344   -0.0673    1.5764 C   0  0  0  0  0  0  0  0  0  0  0  0
   -0.7962    1.0929    0.8726 C   0  0  0  0  0  0  0  0  0  0  0  0
   -0.6213    0.9343   -0.6051 C   0  0  0  0  0  0  0  0  0  0  0  0
   -1.3767   -0.3454   -0.9895 C   0  0  0  0  0  0  0  0  0  0  0  0
   -0.7779   -1.5399   -0.2981 C   0  0  0  0  0  0  0  0  0  0  0  0
    0.3711   -1.0610    0.5813 C   0  0  0  0  0  0  0  0  0  0  0  0
    1.4023   -0.4647   -0.3476 C   0  0  0  0  0  0  0  0  0  0  0  0
    1.9414    0.8816   -0.1238 C   0  0  0  0  0  0  0  0  0  0  0  0
    0.7970    0.7588   -1.0370 C   0  0  0  0  0  0  0  0  0  0  0  0
   -0.8050   -0.5928    2.2788 H   0  0  0  0  0  0  0  0  0  0  0  0
    0.7212    0.3110    2.1811 H   0  0  0  0  0  0  0  0  0  0  0  0
   -0.5117    2.0729    1.2679 H   0  0  0  0  0  0  0  0  0  0  0  0
   -1.9033    0.9765    1.0720 H   0  0  0  0  0  0  0  0  0  0  0  0
   -1.0534    1.7780   -1.1577 H   0  0  0  0  0  0  0  0  0  0  0  0
   -1.4770   -0.4610   -2.0672 H   0  0  0  0  0  0  0  0  0  0  0  0
   -2.4066   -0.1983   -0.5491 H   0  0  0  0  0  0  0  0  0  0  0  0
   -1.5140   -2.1231    0.2641 H   0  0  0  0  0  0  0  0  0  0  0  0
   -0.2970   -2.1742   -1.0900 H   0  0  0  0  0  0  0  0  0  0  0  0
    0.8519   -1.8915    1.1146 H   0  0  0  0  0  0  0  0  0  0  0  0
    1.8412   -1.1964   -1.0432 H   0  0  0  0  0  0  0  0  0  0  0  0
    1.8722    1.3591    0.8613 H   0  0  0  0  0  0  0  0  0  0  0  0
    2.9283    1.0988   -0.6248 H   0  0  0  0  0  0  0  0  0  0  0  0
    0.9479    0.8516   -2.1371 H   0  0  0  0  0  0  0  0  0  0  0  0
  1  2  1  0
  2  3  1  0
  3  4  1  0
  4  5  1  0
  5  6  1  0
  6  7  1  0
  7  8  1  0
  8  9  1  0
  6  1  1  0
  9  7  1  0
  9  3  1  0
  1 10  1  0
  1 11  1  0
  2 12  1  0
  2 13  1  0
  3 14  1  0
  4 15  1  0
  4 16  1  0
  5 17  1  0
  5 18  1  0
  6 19  1  0
  7 20  1  0
  8 21  1  0
  8 22  1  0
  9 23  1  0
M  END
