
     RDKit          3D

 19 21  0  0  0  0  0  0  0  0999 V2000
   -1.4983    0.6378   -0.2407 C   0  0  0  0  0  0  0  0  0  0  0  0
   -0.2081    1.3124   -0.7357 C   0  0  0  0  0  0  0  0  0  0  0  0
    0.8002    0.6383    0.0983 C   0  0  0  0  0  0  0  0  0  0  0  0
    2.1592    0.3187   -0.2002 C   0  0  0  0  0  0  0  0  0  0  0  0
    1.1958   -0.7481   -0.4447 C   0  0  0  0  0  0  0  0  0  0  0  0
    0.7688   -1.6631    0.4764 O   0  0  0  0  0  0  0  0  0  0  0  0
   -0.6216   -1.5265    0.6930 C   0  0  0  0  0  0  0  0  0  0  0  0
   -1.0024   -0.1081    1.0062 C   0  0  0  0  0  0  0  0  0  0  0  0
    0.2069    0.5488    1.3407 O   0  0  0  0  0  0  0  0  0  0  0  0
   -1.8849   -0.0773   -0.9922 H   0  0  0  0  0  0  0  0  0  0  0  0
   -2.2749    1.3717    0.0015 H   0  0  0  0  0  0  0  0  0  0  0  0
   -0.1018    1.0352   -1.8120 H   0  0  0  0  0  0  0  0  0  0  0  0
   -0.2640    2.3982   -0.6608 H   0  0  0  0  0  0  0  0  0  0  0  0
    2.8712    0.2078    0.6706 H   0  0  0  0  0  0  0  0  0  0  0  0
    2.6662    0.7638   -1.0716 H   0  0  0  0  0  0  0  0  0  0  0  0
    0.9400   -0.9923   -1.4929 H   0  0  0  0  0  0  0  0  0  0  0  0
   -1.2160   -2.0008   -0.0824 H   0  0  0  0  0  0  0  0  0  0  0  0
   -0.8084   -2.1174    1.6384 H   0  0  0  0  0  0  0  0  0  0  0  0
   -1.7278    0.0009    1.8082 H   0  0  0  0  0  0  0  0  0  0  0  0
  1  2  1  0
  2  3  1  0
  3  4  1  0
  4  5  1  0
  5  6  1  0
  6  7  1  0
  7  8  1  0
  8  9  1  0
  8  1  1  0
  5  3  1  0
  9  3  1  0
  1 10  1  0
  1 11  1  0
  2 12  1  0
  2 13  1  0
  4 14  1  0
  4 15  1  0
  5 16  1  0
  7 17  1  0
  7 18  1  0
  8 19  1  0
M  END
