
     RDKit          3D

 23 25  0  0  0  0  0  0  0  0999 V2000
   -2.0858    0.0859   -0.7411 C   0  0  0  0  0  0  0  0  0  0  0  0
   -2.1057   -0.2305    0.7606 C   0  0  0  0  0  0  0  0  0  0  0  0
   -0.7389    0.3365    1.1640 C   0  0  0  0  0  0  0  0  0  0  0  0
    0.1303   -0.0382    0.0128 C   0  0  0  0  0  0  0  0  0  0  0  0
   -0.7254   -0.5310   -1.0960 C   0  0  0  0  0  0  0  0  0  0  0  0
    1.3853   -0.7860    0.3130 C   0  0  0  0  0  0  0  0  0  0  0  0
    1.8782    0.5089    0.9224 C   0  0  0  0  0  0  0  0  0  0  0  0
    1.2164    0.9318   -0.3610 C   0  0  0  0  0  0  0  0  0  0  0  0
    1.9130   -0.2441   -0.9871 C   0  0  0  0  0  0  0  0  0  0  0  0
   -2.9076   -0.3785   -1.2763 H   0  0  0  0  0  0  0  0  0  0  0  0
   -1.9741    1.1679   -0.8681 H   0  0  0  0  0  0  0  0  0  0  0  0
   -2.9293    0.2542    1.2753 H   0  0  0  0  0  0  0  0  0  0  0  0
   -2.0661   -1.3240    0.8369 H   0  0  0  0  0  0  0  0  0  0  0  0
   -0.7901    1.4037    1.3789 H   0  0  0  0  0  0  0  0  0  0  0  0
   -0.4185   -0.2657    2.0569 H   0  0  0  0  0  0  0  0  0  0  0  0
   -0.7858   -1.6300   -1.0452 H   0  0  0  0  0  0  0  0  0  0  0  0
   -0.4762   -0.1358   -2.0944 H   0  0  0  0  0  0  0  0  0  0  0  0
    1.5014   -1.7033    0.6862 H   0  0  0  0  0  0  0  0  0  0  0  0
    2.9712    0.5970    0.8623 H   0  0  0  0  0  0  0  0  0  0  0  0
    1.3912    0.8271    1.8476 H   0  0  0  0  0  0  0  0  0  0  0  0
    1.1186    1.8538   -0.7250 H   0  0  0  0  0  0  0  0  0  0  0  0
    3.0094   -0.0492   -1.0190 H   0  0  0  0  0  0  0  0  0  0  0  0
    1.4886   -0.6505   -1.9037 H   0  0  0  0  0  0  0  0  0  0  0  0
  1  2  1  0
  2  3  1  0
  3  4  1  0
  4  5  1  0
  4  6  1  0
  6  7  1  0
  7  8  1  0
  8  9  1  0
  5  1  1  0
  9  6  1  0
  8  4  1  0
  1 10  1  0
  1 11  1  0
  2 12  1  0
  2 13  1  0
  3 14  1  0
  3 15  1  0
  5 16  1  0
  5 17  1  0
  6 18  1  0
  7 19  1  0
  7 20  1  0
  8 21  1  0
  9 22  1  0
  9 23  1  0
M  END
