
     RDKit          3D

 19 21  0  0  0  0  0  0  0  0999 V2000
   -1.8887   -0.3107   -0.5919 C   0  0  0  0  0  0  0  0  0  0  0  0
   -1.4182    0.5705    0.5820 C   0  0  0  0  0  0  0  0  0  0  0  0
    0.0363    0.3758    0.4702 C   0  0  0  0  0  0  0  0  0  0  0  0
    0.6109    1.1198   -0.7528 C   0  0  0  0  0  0  0  0  0  0  0  0
    1.6902    0.3928   -1.1741 O   0  0  0  0  0  0  0  0  0  0  0  0
    2.2226   -0.2701   -0.0982 C   0  0  0  0  0  0  0  0  0  0  0  0
    1.0044   -0.5461    0.7986 C   0  0  0  0  0  0  0  0  0  0  0  0
   -0.1077   -1.1850    0.2039 C   0  0  0  0  0  0  0  0  0  0  0  0
   -0.7161   -0.9960   -1.0071 O   0  0  0  0  0  0  0  0  0  0  0  0
   -2.3264    0.2764   -1.3947 H   0  0  0  0  0  0  0  0  0  0  0  0
   -2.5792   -1.0680   -0.1637 H   0  0  0  0  0  0  0  0  0  0  0  0
   -1.7316    1.6025    0.4617 H   0  0  0  0  0  0  0  0  0  0  0  0
   -1.8024    0.1816    1.5446 H   0  0  0  0  0  0  0  0  0  0  0  0
   -0.1367    1.2721   -1.5279 H   0  0  0  0  0  0  0  0  0  0  0  0
    0.9602    2.0989   -0.3982 H   0  0  0  0  0  0  0  0  0  0  0  0
    2.7029   -1.2384   -0.3947 H   0  0  0  0  0  0  0  0  0  0  0  0
    2.9638    0.2835    0.4809 H   0  0  0  0  0  0  0  0  0  0  0  0
    1.3270   -0.8468    1.8091 H   0  0  0  0  0  0  0  0  0  0  0  0
   -0.8113   -1.7129    0.9178 H   0  0  0  0  0  0  0  0  0  0  0  0
  1  2  1  0
  2  3  1  0
  3  4  1  0
  4  5  1  0
  5  6  1  0
  6  7  1  0
  7  8  1  0
  8  9  1  0
  9  1  1  0
  7  3  1  0
  8  3  1  0
  1 10  1  0
  1 11  1  0
  2 12  1  0
  2 13  1  0
  4 14  1  0
  4 15  1  0
  6 16  1  0
  6 17  1  0
  7 18  1  0
  8 19  1  0
M  END
