
     RDKit          3D

 23 25  0  0  0  0  0  0  0  0999 V2000
   -2.2509    0.6776    0.0063 C   0  0  0  0  0  0  0  0  0  0  0  0
   -1.1751    0.8609   -1.0722 C   0  0  0  0  0  0  0  0  0  0  0  0
   -0.1676    0.9377    0.0483 C   0  0  0  0  0  0  0  0  0  0  0  0
   -1.1262    0.0820    0.8635 C   0  0  0  0  0  0  0  0  0  0  0  0
   -0.8520   -1.3107    0.4167 C   0  0  0  0  0  0  0  0  0  0  0  0
    0.4236   -1.3049   -0.3868 C   0  0  0  0  0  0  0  0  0  0  0  0
    1.0167    0.0289   -0.0900 C   0  0  0  0  0  0  0  0  0  0  0  0
    2.1067    0.0894    0.8822 C   0  0  0  0  0  0  0  0  0  0  0  0
    2.3283    0.4704   -0.5380 C   0  0  0  0  0  0  0  0  0  0  0  0
   -3.0134   -0.0603   -0.2175 H   0  0  0  0  0  0  0  0  0  0  0  0
   -2.6686    1.6142    0.3953 H   0  0  0  0  0  0  0  0  0  0  0  0
   -1.2952    1.7491   -1.6920 H   0  0  0  0  0  0  0  0  0  0  0  0
   -1.1129   -0.0550   -1.6763 H   0  0  0  0  0  0  0  0  0  0  0  0
    0.0216    1.9398    0.4365 H   0  0  0  0  0  0  0  0  0  0  0  0
   -1.1830    0.2958    1.9225 H   0  0  0  0  0  0  0  0  0  0  0  0
   -0.7758   -1.9554    1.3303 H   0  0  0  0  0  0  0  0  0  0  0  0
   -1.7019   -1.7295   -0.1975 H   0  0  0  0  0  0  0  0  0  0  0  0
    1.0515   -2.1491    0.0215 H   0  0  0  0  0  0  0  0  0  0  0  0
    0.2849   -1.5233   -1.4483 H   0  0  0  0  0  0  0  0  0  0  0  0
    2.6080   -0.8738    1.1876 H   0  0  0  0  0  0  0  0  0  0  0  0
    2.0760    0.8425    1.6888 H   0  0  0  0  0  0  0  0  0  0  0  0
    2.4555    1.5772   -0.6934 H   0  0  0  0  0  0  0  0  0  0  0  0
    2.9498   -0.2035   -1.1877 H   0  0  0  0  0  0  0  0  0  0  0  0
  1  2  1  0
  2  3  1  0
  3  4  1  0
  4  5  1  0
  5  6  1  0
  6  7  1  0
  7  8  1  0
  8  9  1  0
  4  1  1  0
  9  7  1  0
  7  3  1  0
  1 10  1  0
  1 11  1  0
  2 12  1  0
  2 13  1  0
  3 14  1  0
  4 15  1  0
  5 16  1  0
  5 17  1  0
  6 18  1  0
  6 19  1  0
  8 20  1  0
  8 21  1  0
  9 22  1  0
  9 23  1  0
M  END
