
     RDKit          3D

 18 20  0  0  0  0  0  0  0  0999 V2000
   -2.2278   -0.0831   -0.3088 C   0  0  0  0  0  0  0  0  0  0  0  0
   -1.3414   -1.1391    0.3681 C   0  0  0  0  0  0  0  0  0  0  0  0
   -1.1646    0.2806    0.6982 C   0  0  0  0  0  0  0  0  0  0  0  0
    0.0603    1.0579    0.1903 C   0  0  0  0  0  0  0  0  0  0  0  0
    0.8769    0.4469   -0.8244 C   0  0  0  0  0  0  0  0  0  0  0  0
    2.1047   -0.4413   -0.5581 C   0  0  0  0  0  0  0  0  0  0  0  0
    2.5824    0.7834   -0.0130 O   0  0  0  0  0  0  0  0  0  0  0  0
    1.3625    0.7196    0.6582 C   0  0  0  0  0  0  0  0  0  0  0  0
   -3.2977   -0.0940    0.0331 H   0  0  0  0  0  0  0  0  0  0  0  0
   -2.0295    0.1393   -1.3835 H   0  0  0  0  0  0  0  0  0  0  0  0
   -1.8229   -1.8059    1.1177 H   0  0  0  0  0  0  0  0  0  0  0  0
   -0.6618   -1.6848   -0.3111 H   0  0  0  0  0  0  0  0  0  0  0  0
   -1.4621    0.6057    1.7135 H   0  0  0  0  0  0  0  0  0  0  0  0
   -0.1948    2.1632    0.2244 H   0  0  0  0  0  0  0  0  0  0  0  0
    1.2351    1.2294   -1.5703 H   0  0  0  0  0  0  0  0  0  0  0  0
    2.6325   -0.7210   -1.4754 H   0  0  0  0  0  0  0  0  0  0  0  0
    1.9567   -1.2510    0.1464 H   0  0  0  0  0  0  0  0  0  0  0  0
    1.3914   -0.2057    1.3132 H   0  0  0  0  0  0  0  0  0  0  0  0
  1  2  1  0
  2  3  1  0
  3  4  1  0
  4  5  1  0
  5  6  1  0
  6  7  1  0
  7  8  1  0
  3  1  1  0
  8  4  1  0
  8  5  1  0
  1  9  1  0
  1 10  1  0
  2 11  1  0
  2 12  1  0
  3 13  1  0
  4 14  1  0
  5 15  1  0
  6 16  1  0
  6 17  1  0
  8 18  1  0
M  END
