
     RDKit          3D

 18 20  0  0  0  0  0  0  0  0999 V2000
    1.4941   -0.7106   -0.6409 C   0  0  0  0  0  0  0  0  0  0  0  0
    1.4200    0.0446    0.6622 C   0  0  0  0  0  0  0  0  0  0  0  0
   -0.0554    0.4594    0.6470 C   0  0  0  0  0  0  0  0  0  0  0  0
   -1.0073   -0.6628    0.8356 C   0  0  0  0  0  0  0  0  0  0  0  0
   -1.6868   -0.3964   -0.5063 C   0  0  0  0  0  0  0  0  0  0  0  0
   -0.4341    0.4098   -0.8485 C   0  0  0  0  0  0  0  0  0  0  0  0
   -0.3496    1.6812   -0.0980 C   0  0  0  0  0  0  0  0  0  0  0  0
    0.5995   -0.1557   -1.5060 O   0  0  0  0  0  0  0  0  0  0  0  0
    2.5255   -0.5300   -1.0519 H   0  0  0  0  0  0  0  0  0  0  0  0
    1.3454   -1.7706   -0.4284 H   0  0  0  0  0  0  0  0  0  0  0  0
    2.0181    0.9727    0.6570 H   0  0  0  0  0  0  0  0  0  0  0  0
    1.6069   -0.5673    1.5444 H   0  0  0  0  0  0  0  0  0  0  0  0
   -0.5398   -1.6863    0.7630 H   0  0  0  0  0  0  0  0  0  0  0  0
   -1.6714   -0.6437    1.7050 H   0  0  0  0  0  0  0  0  0  0  0  0
   -2.5517    0.2835   -0.3711 H   0  0  0  0  0  0  0  0  0  0  0  0
   -1.8662   -1.2686   -1.1265 H   0  0  0  0  0  0  0  0  0  0  0  0
   -1.3125    2.1909    0.1225 H   0  0  0  0  0  0  0  0  0  0  0  0
    0.4653    2.3501   -0.3590 H   0  0  0  0  0  0  0  0  0  0  0  0
  1  2  1  0
  2  3  1  0
  3  4  1  0
  4  5  1  0
  5  6  1  0
  6  7  1  0
  6  8  1  0
  8  1  1  0
  6  3  1  0
  7  3  1  0
  1  9  1  0
  1 10  1  0
  2 11  1  0
  2 12  1  0
  4 13  1  0
  4 14  1  0
  5 15  1  0
  5 16  1  0
  7 17  1  0
  7 18  1  0
M  END
