
     RDKit          3D

 17 18  0  0  0  0  0  0  0  0999 V2000
    1.4199   -0.4832    0.0671 C   0  0  0  0  0  0  0  0  0  0  0  0
    0.9288    0.8583   -0.4954 C   0  0  0  0  0  0  0  0  0  0  0  0
   -0.2992    1.2243    0.2936 C   0  0  0  0  0  0  0  0  0  0  0  0
   -1.4700    0.4934   -0.3179 C   0  0  0  0  0  0  0  0  0  0  0  0
   -0.9863   -0.5802    0.6200 C   0  0  0  0  0  0  0  0  0  0  0  0
    0.1605   -1.3626    0.0704 C   0  0  0  0  0  0  0  0  0  0  0  0
   -0.4652    0.4300    1.4308 O   0  0  0  0  0  0  0  0  0  0  0  0
    1.7683   -0.2672    1.0868 H   0  0  0  0  0  0  0  0  0  0  0  0
    2.1952   -0.8802   -0.5942 H   0  0  0  0  0  0  0  0  0  0  0  0
    1.7091    1.6120   -0.5023 H   0  0  0  0  0  0  0  0  0  0  0  0
    0.6320    0.6117   -1.5574 H   0  0  0  0  0  0  0  0  0  0  0  0
   -0.4424    2.2696    0.5462 H   0  0  0  0  0  0  0  0  0  0  0  0
   -2.4580    0.8885   -0.1157 H   0  0  0  0  0  0  0  0  0  0  0  0
   -1.3495    0.2691   -1.3928 H   0  0  0  0  0  0  0  0  0  0  0  0
   -1.7485   -1.2205    1.0709 H   0  0  0  0  0  0  0  0  0  0  0  0
    0.0204   -1.6719   -0.9743 H   0  0  0  0  0  0  0  0  0  0  0  0
    0.3849   -2.1911    0.7642 H   0  0  0  0  0  0  0  0  0  0  0  0
  1  2  1  0
  2  3  1  0
  3  4  1  0
  4  5  1  0
  5  6  1  0
  5  7  1  0
  6  1  1  0
  7  3  1  0
  1  8  1  0
  1  9  1  0
  2 10  1  0
  2 11  1  0
  3 12  1  0
  4 13  1  0
  4 14  1  0
  5 15  1  0
  6 16  1  0
  6 17  1  0
M  END
