
     RDKit          3D

 21 22  0  0  0  0  0  0  0  0999 V2000
   -1.7194    0.4606   -0.0886 C   0  0  0  0  0  0  0  0  0  0  0  0
   -1.4576   -1.0131   -0.1579 C   0  0  0  0  0  0  0  0  0  0  0  0
   -0.0090   -1.3794   -0.1017 C   0  0  0  0  0  0  0  0  0  0  0  0
    0.7444   -0.7091    1.0132 C   0  0  0  0  0  0  0  0  0  0  0  0
    1.2877    0.5244    0.2947 C   0  0  0  0  0  0  0  0  0  0  0  0
    0.2326    1.5961    0.4272 C   0  0  0  0  0  0  0  0  0  0  0  0
   -0.9793    1.1109    0.8884 O   0  0  0  0  0  0  0  0  0  0  0  0
    1.3560    0.0726   -1.1174 C   0  0  0  0  0  0  0  0  0  0  0  0
    0.6230   -1.0654   -1.2779 O   0  0  0  0  0  0  0  0  0  0  0  0
   -2.8145    0.5795    0.1574 H   0  0  0  0  0  0  0  0  0  0  0  0
   -1.6034    0.9299   -1.0984 H   0  0  0  0  0  0  0  0  0  0  0  0
   -1.9788   -1.5701    0.6528 H   0  0  0  0  0  0  0  0  0  0  0  0
   -1.8437   -1.3622   -1.1544 H   0  0  0  0  0  0  0  0  0  0  0  0
    0.0359   -2.4861    0.1094 H   0  0  0  0  0  0  0  0  0  0  0  0
    1.5676   -1.3284    1.4241 H   0  0  0  0  0  0  0  0  0  0  0  0
    0.1219   -0.3976    1.8565 H   0  0  0  0  0  0  0  0  0  0  0  0
    2.2634    0.8096    0.6972 H   0  0  0  0  0  0  0  0  0  0  0  0
    0.6084    2.3102    1.2039 H   0  0  0  0  0  0  0  0  0  0  0  0
    0.0674    2.1547   -0.5246 H   0  0  0  0  0  0  0  0  0  0  0  0
    2.4335   -0.1323   -1.3738 H   0  0  0  0  0  0  0  0  0  0  0  0
    1.0638    0.8952   -1.8302 H   0  0  0  0  0  0  0  0  0  0  0  0
  1  2  1  0
  2  3  1  0
  3  4  1  0
  4  5  1  0
  5  6  1  0
  6  7  1  0
  5  8  1  0
  8  9  1  0
  7  1  1  0
  9  3  1  0
  1 10  1  0
  1 11  1  0
  2 12  1  0
  2 13  1  0
  3 14  1  0
  4 15  1  0
  4 16  1  0
  5 17  1  0
  6 18  1  0
  6 19  1  0
  8 20  1  0
  8 21  1  0
M  END
