
     RDKit          3D

 15 16  0  0  0  0  0  0  0  0999 V2000
    2.4762    0.3680   -0.4441 C   0  0  0  0  0  0  0  0  0  0  0  0
    1.7766   -0.8047   -0.2650 C   0  0  0  0  0  0  0  0  0  0  0  0
    0.4473   -0.4269   -0.2052 C   0  0  0  0  0  0  0  0  0  0  0  0
    0.4342    0.9518   -0.3525 C   0  0  0  0  0  0  0  0  0  0  0  0
    1.6481    1.3848   -0.4909 O   0  0  0  0  0  0  0  0  0  0  0  0
   -0.8365    1.5464   -0.3205 O   0  0  0  0  0  0  0  0  0  0  0  0
   -1.9507    0.8649    0.2190 C   0  0  0  0  0  0  0  0  0  0  0  0
   -1.6178   -0.3263    0.8331 O   0  0  0  0  0  0  0  0  0  0  0  0
   -0.8421   -1.1068   -0.0346 C   0  0  0  0  0  0  0  0  0  0  0  0
    3.5486    0.4321   -0.5320 H   0  0  0  0  0  0  0  0  0  0  0  0
    2.1229   -1.8195   -0.1820 H   0  0  0  0  0  0  0  0  0  0  0  0
   -2.4153    1.5138    0.9853 H   0  0  0  0  0  0  0  0  0  0  0  0
   -2.7237    0.6342   -0.5575 H   0  0  0  0  0  0  0  0  0  0  0  0
   -0.7018   -2.1279    0.3536 H   0  0  0  0  0  0  0  0  0  0  0  0
   -1.3659   -1.0838   -1.0128 H   0  0  0  0  0  0  0  0  0  0  0  0
  1  2  2  0
  2  3  1  0
  3  4  2  0
  4  5  1  0
  4  6  1  0
  6  7  1  0
  7  8  1  0
  8  9  1  0
  5  1  1  0
  9  3  1  0
  1 10  1  0
  2 11  1  0
  7 12  1  0
  7 13  1  0
  9 14  1  0
  9 15  1  0
M  END
