
     RDKit          3D

 23 24  0  0  0  0  0  0  0  0999 V2000
   -1.3714    0.4138    0.8404 C   0  0  0  0  0  0  0  0  0  0  0  0
   -0.2852    1.4323    0.6673 C   0  0  0  0  0  0  0  0  0  0  0  0
    0.9512    0.8997    0.0265 C   0  0  0  0  0  0  0  0  0  0  0  0
    1.3841   -0.3517    0.7425 C   0  0  0  0  0  0  0  0  0  0  0  0
    0.5749   -1.5603    0.3422 C   0  0  0  0  0  0  0  0  0  0  0  0
   -0.3559   -1.2160   -0.7783 C   0  0  0  0  0  0  0  0  0  0  0  0
   -1.5689   -0.4596   -0.3664 C   0  0  0  0  0  0  0  0  0  0  0  0
    0.3842   -0.5915   -1.7755 O   0  0  0  0  0  0  0  0  0  0  0  0
    0.7923    0.6794   -1.4500 C   0  0  0  0  0  0  0  0  0  0  0  0
   -2.3311    0.9910    0.9706 H   0  0  0  0  0  0  0  0  0  0  0  0
   -1.2463   -0.1658    1.7814 H   0  0  0  0  0  0  0  0  0  0  0  0
   -0.0002    1.8149    1.6804 H   0  0  0  0  0  0  0  0  0  0  0  0
   -0.6933    2.2771    0.0818 H   0  0  0  0  0  0  0  0  0  0  0  0
    1.7662    1.6524    0.1831 H   0  0  0  0  0  0  0  0  0  0  0  0
    1.3084   -0.1554    1.8391 H   0  0  0  0  0  0  0  0  0  0  0  0
    2.4744   -0.4812    0.5262 H   0  0  0  0  0  0  0  0  0  0  0  0
    1.2999   -2.3161   -0.0544 H   0  0  0  0  0  0  0  0  0  0  0  0
    0.0783   -2.0390    1.2012 H   0  0  0  0  0  0  0  0  0  0  0  0
   -0.7069   -2.1897   -1.2249 H   0  0  0  0  0  0  0  0  0  0  0  0
   -2.4553   -1.1030   -0.1618 H   0  0  0  0  0  0  0  0  0  0  0  0
   -1.8606    0.2075   -1.2078 H   0  0  0  0  0  0  0  0  0  0  0  0
    1.7787    0.8693   -1.9436 H   0  0  0  0  0  0  0  0  0  0  0  0
    0.0825    1.3921   -1.9201 H   0  0  0  0  0  0  0  0  0  0  0  0
  1  2  1  0
  2  3  1  0
  3  4  1  0
  4  5  1  0
  5  6  1  0
  6  7  1  0
  6  8  1  0
  8  9  1  0
  7  1  1  0
  9  3  1  0
  1 10  1  0
  1 11  1  0
  2 12  1  0
  2 13  1  0
  3 14  1  0
  4 15  1  0
  4 16  1  0
  5 17  1  0
  5 18  1  0
  6 19  1  0
  7 20  1  0
  7 21  1  0
  9 22  1  0
  9 23  1  0
M  END
