
     RDKit          3D

 25 26  0  0  0  0  0  0  0  0999 V2000
   -2.4059   -0.1840    0.3289 C   0  0  0  0  0  0  0  0  0  0  0  0
   -1.9714    0.1392   -1.0625 C   0  0  0  0  0  0  0  0  0  0  0  0
   -0.5358   -0.3731   -1.2205 C   0  0  0  0  0  0  0  0  0  0  0  0
    0.3283    0.4635   -0.3266 C   0  0  0  0  0  0  0  0  0  0  0  0
    1.7867    0.3135   -0.5889 C   0  0  0  0  0  0  0  0  0  0  0  0
    2.4684   -1.0103   -0.4613 C   0  0  0  0  0  0  0  0  0  0  0  0
    2.6640    0.0280    0.5780 C   0  0  0  0  0  0  0  0  0  0  0  0
   -0.0569    0.2187    1.1162 C   0  0  0  0  0  0  0  0  0  0  0  0
   -1.5114    0.4836    1.3120 C   0  0  0  0  0  0  0  0  0  0  0  0
   -3.4336    0.2548    0.4616 H   0  0  0  0  0  0  0  0  0  0  0  0
   -2.4535   -1.2917    0.4663 H   0  0  0  0  0  0  0  0  0  0  0  0
   -1.9982    1.2346   -1.2240 H   0  0  0  0  0  0  0  0  0  0  0  0
   -2.6295   -0.3650   -1.7959 H   0  0  0  0  0  0  0  0  0  0  0  0
   -0.5456   -1.4240   -0.9121 H   0  0  0  0  0  0  0  0  0  0  0  0
   -0.2242   -0.2168   -2.2770 H   0  0  0  0  0  0  0  0  0  0  0  0
    0.0617    1.5365   -0.5344 H   0  0  0  0  0  0  0  0  0  0  0  0
    2.1748    0.9467   -1.4341 H   0  0  0  0  0  0  0  0  0  0  0  0
    1.8143   -1.8777   -0.3071 H   0  0  0  0  0  0  0  0  0  0  0  0
    3.3278   -1.2377   -1.1392 H   0  0  0  0  0  0  0  0  0  0  0  0
    3.6767    0.5285    0.5767 H   0  0  0  0  0  0  0  0  0  0  0  0
    2.2538   -0.0648    1.5864 H   0  0  0  0  0  0  0  0  0  0  0  0
    0.4897    0.9393    1.7882 H   0  0  0  0  0  0  0  0  0  0  0  0
    0.1693   -0.7964    1.4629 H   0  0  0  0  0  0  0  0  0  0  0  0
   -1.6749    1.5767    1.2568 H   0  0  0  0  0  0  0  0  0  0  0  0
   -1.7746    0.1781    2.3497 H   0  0  0  0  0  0  0  0  0  0  0  0
  1  2  1  0
  2  3  1  0
  3  4  1  0
  4  5  1  0
  5  6  1  0
  6  7  1  0
  4  8  1  0
  8  9  1  0
  9  1  1  0
  7  5  1  0
  1 10  1  0
  1 11  1  0
  2 12  1  0
  2 13  1  0
  3 14  1  0
  3 15  1  0
  4 16  1  0
  5 17  1  0
  6 18  1  0
  6 19  1  0
  7 20  1  0
  7 21  1  0
  8 22  1  0
  8 23  1  0
  9 24  1  0
  9 25  1  0
M  END
