
     RDKit          3D

 19 21  0  0  0  0  0  0  0  0999 V2000
   -1.8471   -0.8293    0.0685 C   0  0  0  0  0  0  0  0  0  0  0  0
   -1.5372    0.5598   -0.4949 C   0  0  0  0  0  0  0  0  0  0  0  0
   -0.3697    0.9494    0.3121 C   0  0  0  0  0  0  0  0  0  0  0  0
    0.6736    1.5697   -0.3179 O   0  0  0  0  0  0  0  0  0  0  0  0
    1.7016    0.6554   -0.2369 C   0  0  0  0  0  0  0  0  0  0  0  0
    1.0020   -0.5837   -0.8243 C   0  0  0  0  0  0  0  0  0  0  0  0
    0.2504   -0.4532    0.4820 C   0  0  0  0  0  0  0  0  0  0  0  0
    1.5113   -0.0955    1.0970 C   0  0  0  0  0  0  0  0  0  0  0  0
   -0.7158   -1.2034    0.8330 O   0  0  0  0  0  0  0  0  0  0  0  0
   -2.6840   -0.7934    0.7996 H   0  0  0  0  0  0  0  0  0  0  0  0
   -2.0264   -1.5533   -0.7541 H   0  0  0  0  0  0  0  0  0  0  0  0
   -1.3672    0.5375   -1.5810 H   0  0  0  0  0  0  0  0  0  0  0  0
   -2.4596    1.1714   -0.2816 H   0  0  0  0  0  0  0  0  0  0  0  0
   -0.6469    1.3700    1.2888 H   0  0  0  0  0  0  0  0  0  0  0  0
    2.6814    0.8695   -0.5510 H   0  0  0  0  0  0  0  0  0  0  0  0
    0.4417   -0.3920   -1.7362 H   0  0  0  0  0  0  0  0  0  0  0  0
    1.6420   -1.4906   -0.8087 H   0  0  0  0  0  0  0  0  0  0  0  0
    1.4256    0.5705    1.9630 H   0  0  0  0  0  0  0  0  0  0  0  0
    2.3240   -0.8587    1.1566 H   0  0  0  0  0  0  0  0  0  0  0  0
  1  2  1  0
  2  3  1  0
  3  4  1  0
  4  5  1  0
  5  6  1  0
  6  7  1  0
  7  8  1  0
  7  9  1  0
  9  1  1  0
  7  3  1  0
  8  5  1  0
  1 10  1  0
  1 11  1  0
  2 12  1  0
  2 13  1  0
  3 14  1  0
  5 15  1  0
  6 16  1  0
  6 17  1  0
  8 18  1  0
  8 19  1  0
M  END
