
     RDKit          3D

 19 21  0  0  0  0  0  0  0  0999 V2000
    2.1349    0.5258   -0.1379 C   0  0  0  0  0  0  0  0  0  0  0  0
    1.2096    0.0920    0.9691 C   0  0  0  0  0  0  0  0  0  0  0  0
    0.4570   -0.4220   -0.2620 C   0  0  0  0  0  0  0  0  0  0  0  0
   -0.3802   -1.6270   -0.0419 C   0  0  0  0  0  0  0  0  0  0  0  0
   -1.6363   -1.4029   -0.5535 O   0  0  0  0  0  0  0  0  0  0  0  0
   -1.8260   -0.0672   -0.7352 C   0  0  0  0  0  0  0  0  0  0  0  0
   -1.5805    0.9104    0.3442 C   0  0  0  0  0  0  0  0  0  0  0  0
   -0.5243    0.6181   -0.7072 C   0  0  0  0  0  0  0  0  0  0  0  0
    1.6313   -0.5359   -0.9219 O   0  0  0  0  0  0  0  0  0  0  0  0
    1.8328    1.5043   -0.5432 H   0  0  0  0  0  0  0  0  0  0  0  0
    3.1930    0.4584    0.1138 H   0  0  0  0  0  0  0  0  0  0  0  0
    1.5703   -0.6959    1.6360 H   0  0  0  0  0  0  0  0  0  0  0  0
    0.7063    0.9488    1.4724 H   0  0  0  0  0  0  0  0  0  0  0  0
    0.1024   -2.5481   -0.4044 H   0  0  0  0  0  0  0  0  0  0  0  0
   -0.5019   -1.7542    1.0729 H   0  0  0  0  0  0  0  0  0  0  0  0
   -2.6162    0.2115   -1.4677 H   0  0  0  0  0  0  0  0  0  0  0  0
   -1.4606    0.5243    1.3661 H   0  0  0  0  0  0  0  0  0  0  0  0
   -2.0149    1.9203    0.2799 H   0  0  0  0  0  0  0  0  0  0  0  0
   -0.2966    1.3392   -1.4796 H   0  0  0  0  0  0  0  0  0  0  0  0
  1  2  1  0
  2  3  1  0
  3  4  1  0
  4  5  1  0
  5  6  1  0
  6  7  1  0
  7  8  1  0
  3  9  1  0
  9  1  1  0
  8  3  1  0
  8  6  1  0
  1 10  1  0
  1 11  1  0
  2 12  1  0
  2 13  1  0
  4 14  1  0
  4 15  1  0
  6 16  1  0
  7 17  1  0
  7 18  1  0
  8 19  1  0
M  END
