
     RDKit          3D

 19 21  0  0  0  0  0  0  0  0999 V2000
   -1.4862    0.0369    0.4144 C   0  0  0  0  0  0  0  0  0  0  0  0
   -1.1985    1.0952   -0.6602 C   0  0  0  0  0  0  0  0  0  0  0  0
    0.3249    1.2765   -0.6223 C   0  0  0  0  0  0  0  0  0  0  0  0
    0.9626    0.2425   -1.2600 O   0  0  0  0  0  0  0  0  0  0  0  0
    1.6602   -0.4924   -0.3276 C   0  0  0  0  0  0  0  0  0  0  0  0
    0.7080   -1.1753    0.5888 C   0  0  0  0  0  0  0  0  0  0  0  0
   -0.6540   -1.1677   -0.0015 C   0  0  0  0  0  0  0  0  0  0  0  0
    1.3036    0.0744    0.9835 C   0  0  0  0  0  0  0  0  0  0  0  0
    0.6700    1.2390    0.7208 O   0  0  0  0  0  0  0  0  0  0  0  0
   -1.0245    0.4367    1.3427 H   0  0  0  0  0  0  0  0  0  0  0  0
   -2.5479   -0.1823    0.5081 H   0  0  0  0  0  0  0  0  0  0  0  0
   -1.7273    2.0131   -0.4133 H   0  0  0  0  0  0  0  0  0  0  0  0
   -1.5139    0.6360   -1.6143 H   0  0  0  0  0  0  0  0  0  0  0  0
    0.6009    2.2204   -1.1206 H   0  0  0  0  0  0  0  0  0  0  0  0
    2.6226   -0.9565   -0.5479 H   0  0  0  0  0  0  0  0  0  0  0  0
    1.0307   -2.0996    1.1060 H   0  0  0  0  0  0  0  0  0  0  0  0
   -1.2491   -2.0911    0.2242 H   0  0  0  0  0  0  0  0  0  0  0  0
   -0.5328   -1.1907   -1.1240 H   0  0  0  0  0  0  0  0  0  0  0  0
    2.0506    0.0848    1.8030 H   0  0  0  0  0  0  0  0  0  0  0  0
  1  2  1  0
  2  3  1  0
  3  4  1  0
  4  5  1  0
  5  6  1  0
  6  7  1  0
  6  8  1  0
  8  9  1  0
  7  1  1  0
  9  3  1  0
  8  5  1  0
  1 10  1  0
  1 11  1  0
  2 12  1  0
  2 13  1  0
  3 14  1  0
  5 15  1  0
  6 16  1  0
  7 17  1  0
  7 18  1  0
  8 19  1  0
M  END
