
     RDKit          3D

 23 24  0  0  0  0  0  0  0  0999 V2000
   -3.0434   -0.2559   -0.2970 C   0  0  0  0  0  0  0  0  0  0  0  0
   -1.9804   -1.1957    0.1645 C   0  0  0  0  0  0  0  0  0  0  0  0
   -1.0205   -0.0187    0.2813 C   0  0  0  0  0  0  0  0  0  0  0  0
    0.2915   -0.3837   -0.3538 C   0  0  0  0  0  0  0  0  0  0  0  0
    1.3033    0.7254   -0.2837 C   0  0  0  0  0  0  0  0  0  0  0  0
    2.6317    0.4390   -0.8932 C   0  0  0  0  0  0  0  0  0  0  0  0
    3.1335    0.1188    0.5042 C   0  0  0  0  0  0  0  0  0  0  0  0
    1.9318    0.6874    0.9827 O   0  0  0  0  0  0  0  0  0  0  0  0
   -1.9618    0.7740   -0.5658 C   0  0  0  0  0  0  0  0  0  0  0  0
   -3.5482   -0.5841   -1.2325 H   0  0  0  0  0  0  0  0  0  0  0  0
   -3.7568    0.0139    0.5084 H   0  0  0  0  0  0  0  0  0  0  0  0
   -1.6698   -1.9661   -0.5810 H   0  0  0  0  0  0  0  0  0  0  0  0
   -2.2332   -1.6820    1.1255 H   0  0  0  0  0  0  0  0  0  0  0  0
   -0.9694    0.2853    1.3446 H   0  0  0  0  0  0  0  0  0  0  0  0
    0.6916   -1.2622    0.2086 H   0  0  0  0  0  0  0  0  0  0  0  0
    0.0870   -0.7334   -1.3763 H   0  0  0  0  0  0  0  0  0  0  0  0
    0.9440    1.7357   -0.4773 H   0  0  0  0  0  0  0  0  0  0  0  0
    2.6982   -0.3893   -1.6008 H   0  0  0  0  0  0  0  0  0  0  0  0
    3.1454    1.3586   -1.2787 H   0  0  0  0  0  0  0  0  0  0  0  0
    3.9747    0.7523    0.8539 H   0  0  0  0  0  0  0  0  0  0  0  0
    3.2074   -0.9599    0.7402 H   0  0  0  0  0  0  0  0  0  0  0  0
   -1.6629    0.7704   -1.6317 H   0  0  0  0  0  0  0  0  0  0  0  0
   -2.1937    1.7702   -0.1324 H   0  0  0  0  0  0  0  0  0  0  0  0
  1  2  1  0
  2  3  1  0
  3  4  1  0
  4  5  1  0
  5  6  1  0
  6  7  1  0
  7  8  1  0
  3  9  1  0
  9  1  1  0
  8  5  1  0
  1 10  1  0
  1 11  1  0
  2 12  1  0
  2 13  1  0
  3 14  1  0
  4 15  1  0
  4 16  1  0
  5 17  1  0
  6 18  1  0
  6 19  1  0
  7 20  1  0
  7 21  1  0
  9 22  1  0
  9 23  1  0
M  END
