
     RDKit          3D

 19 21  0  0  0  0  0  0  0  0999 V2000
    1.8253   -0.4129   -0.1971 C   0  0  0  0  0  0  0  0  0  0  0  0
    1.0416   -0.5005    1.0685 C   0  0  0  0  0  0  0  0  0  0  0  0
   -0.3152    0.0918    0.8094 C   0  0  0  0  0  0  0  0  0  0  0  0
   -0.3188    1.5303    0.4760 C   0  0  0  0  0  0  0  0  0  0  0  0
   -0.3618    0.5487   -0.6055 C   0  0  0  0  0  0  0  0  0  0  0  0
    0.7949   -0.1017   -1.2415 C   0  0  0  0  0  0  0  0  0  0  0  0
   -1.6047    0.2045   -1.1082 O   0  0  0  0  0  0  0  0  0  0  0  0
   -2.2579   -0.4960   -0.1336 C   0  0  0  0  0  0  0  0  0  0  0  0
   -1.4513   -0.6549    0.9521 O   0  0  0  0  0  0  0  0  0  0  0  0
    2.3265   -1.3975   -0.4209 H   0  0  0  0  0  0  0  0  0  0  0  0
    2.5852    0.3849   -0.2161 H   0  0  0  0  0  0  0  0  0  0  0  0
    1.0064   -1.5012    1.5207 H   0  0  0  0  0  0  0  0  0  0  0  0
    1.5458    0.1795    1.8153 H   0  0  0  0  0  0  0  0  0  0  0  0
   -1.2525    2.0882    0.6805 H   0  0  0  0  0  0  0  0  0  0  0  0
    0.5807    2.1245    0.7310 H   0  0  0  0  0  0  0  0  0  0  0  0
    1.1850    0.4653   -2.0953 H   0  0  0  0  0  0  0  0  0  0  0  0
    0.4677   -1.0964   -1.6633 H   0  0  0  0  0  0  0  0  0  0  0  0
   -2.5967   -1.4700   -0.5887 H   0  0  0  0  0  0  0  0  0  0  0  0
   -3.2001    0.0136    0.2168 H   0  0  0  0  0  0  0  0  0  0  0  0
  1  2  1  0
  2  3  1  0
  3  4  1  0
  4  5  1  0
  5  6  1  0
  5  7  1  0
  7  8  1  0
  8  9  1  0
  6  1  1  0
  5  3  1  0
  9  3  1  0
  1 10  1  0
  1 11  1  0
  2 12  1  0
  2 13  1  0
  4 14  1  0
  4 15  1  0
  6 16  1  0
  6 17  1  0
  8 18  1  0
  8 19  1  0
M  END
