
     RDKit          3D

 21 23  0  0  0  0  0  0  0  0999 V2000
   -2.1761    0.2570   -0.3515 C   0  0  0  0  0  0  0  0  0  0  0  0
   -1.8489   -0.9879    0.4156 C   0  0  0  0  0  0  0  0  0  0  0  0
   -0.3979   -0.9344    0.7904 C   0  0  0  0  0  0  0  0  0  0  0  0
    0.1903    0.1328   -0.0848 C   0  0  0  0  0  0  0  0  0  0  0  0
   -0.9051    1.0355   -0.5305 C   0  0  0  0  0  0  0  0  0  0  0  0
    0.9839   -0.4311   -1.0703 O   0  0  0  0  0  0  0  0  0  0  0  0
    2.2027   -0.1225   -0.5358 C   0  0  0  0  0  0  0  0  0  0  0  0
    2.4931   -0.1218    0.9071 C   0  0  0  0  0  0  0  0  0  0  0  0
    1.4316    0.8107    0.4559 C   0  0  0  0  0  0  0  0  0  0  0  0
   -2.6773    0.0066   -1.3145 H   0  0  0  0  0  0  0  0  0  0  0  0
   -2.8843    0.9249    0.2126 H   0  0  0  0  0  0  0  0  0  0  0  0
   -2.0994   -1.8757   -0.1990 H   0  0  0  0  0  0  0  0  0  0  0  0
   -2.5037   -1.0026    1.3186 H   0  0  0  0  0  0  0  0  0  0  0  0
    0.0318   -1.9474    0.5564 H   0  0  0  0  0  0  0  0  0  0  0  0
   -0.2183   -0.7769    1.8694 H   0  0  0  0  0  0  0  0  0  0  0  0
   -0.8919    1.9884    0.0612 H   0  0  0  0  0  0  0  0  0  0  0  0
   -0.8368    1.3499   -1.5909 H   0  0  0  0  0  0  0  0  0  0  0  0
    2.9001    0.3867   -1.2189 H   0  0  0  0  0  0  0  0  0  0  0  0
    3.4570    0.3407    1.2043 H   0  0  0  0  0  0  0  0  0  0  0  0
    2.1676   -0.9142    1.5970 H   0  0  0  0  0  0  0  0  0  0  0  0
    1.5817    1.8812    0.3380 H   0  0  0  0  0  0  0  0  0  0  0  0
  1  2  1  0
  2  3  1  0
  3  4  1  0
  4  5  1  0
  4  6  1  0
  6  7  1  0
  7  8  1  0
  8  9  1  0
  5  1  1  0
  9  7  1  0
  9  4  1  0
  1 10  1  0
  1 11  1  0
  2 12  1  0
  2 13  1  0
  3 14  1  0
  3 15  1  0
  5 16  1  0
  5 17  1  0
  7 18  1  0
  8 19  1  0
  8 20  1  0
  9 21  1  0
M  END
