
     RDKit          3D

 19 22  0  0  0  0  0  0  0  0999 V2000
   -1.5986    0.6353    0.4951 C   0  0  0  0  0  0  0  0  0  0  0  0
   -1.7575   -0.4827   -0.5414 C   0  0  0  0  0  0  0  0  0  0  0  0
   -0.3966   -0.9680   -0.1363 C   0  0  0  0  0  0  0  0  0  0  0  0
   -0.3656   -0.0357    1.0535 C   0  0  0  0  0  0  0  0  0  0  0  0
    0.9130    0.7510    0.9234 C   0  0  0  0  0  0  0  0  0  0  0  0
    2.0334   -0.1029    1.0321 O   0  0  0  0  0  0  0  0  0  0  0  0
    2.0655   -0.4366   -0.3047 C   0  0  0  0  0  0  0  0  0  0  0  0
    0.7432   -0.5308   -1.0334 C   0  0  0  0  0  0  0  0  0  0  0  0
    1.1418    0.7680   -0.5541 C   0  0  0  0  0  0  0  0  0  0  0  0
   -1.4104    1.6206    0.0773 H   0  0  0  0  0  0  0  0  0  0  0  0
   -2.4579    0.6674    1.2075 H   0  0  0  0  0  0  0  0  0  0  0  0
   -1.8605   -0.1482   -1.5725 H   0  0  0  0  0  0  0  0  0  0  0  0
   -2.5706   -1.2092   -0.2683 H   0  0  0  0  0  0  0  0  0  0  0  0
   -0.3194   -2.0269    0.1572 H   0  0  0  0  0  0  0  0  0  0  0  0
   -0.4939   -0.5078    2.0390 H   0  0  0  0  0  0  0  0  0  0  0  0
    0.9805    1.6873    1.4649 H   0  0  0  0  0  0  0  0  0  0  0  0
    2.9967   -0.5115   -0.8650 H   0  0  0  0  0  0  0  0  0  0  0  0
    0.7346   -0.7393   -2.0970 H   0  0  0  0  0  0  0  0  0  0  0  0
    1.6223    1.5699   -1.0773 H   0  0  0  0  0  0  0  0  0  0  0  0
  1  2  1  0
  2  3  1  0
  3  4  1  0
  4  5  1  0
  5  6  1  0
  6  7  1  0
  7  8  1  0
  8  9  1  0
  4  1  1  0
  9  5  1  0
  8  3  1  0
  9  7  1  0
  1 10  1  0
  1 11  1  0
  2 12  1  0
  2 13  1  0
  3 14  1  0
  4 15  1  0
  5 16  1  0
  7 17  1  0
  8 18  1  0
  9 19  1  0
M  END
