
     RDKit          3D

 21 22  0  0  0  0  0  0  0  0999 V2000
    1.8040    0.6624   -0.0827 C   0  0  0  0  0  0  0  0  0  0  0  0
    1.3653   -0.7614   -0.3810 C   0  0  0  0  0  0  0  0  0  0  0  0
    0.2537   -1.2084    0.5409 C   0  0  0  0  0  0  0  0  0  0  0  0
   -0.9941   -1.5188   -0.2610 C   0  0  0  0  0  0  0  0  0  0  0  0
   -1.6371   -0.1545   -0.3659 C   0  0  0  0  0  0  0  0  0  0  0  0
   -0.9319    0.6544    0.6685 C   0  0  0  0  0  0  0  0  0  0  0  0
   -0.1822    1.8298    0.1268 C   0  0  0  0  0  0  0  0  0  0  0  0
    0.8871    1.5063   -0.6684 O   0  0  0  0  0  0  0  0  0  0  0  0
   -0.1317   -0.1969    1.4088 O   0  0  0  0  0  0  0  0  0  0  0  0
    2.8048    0.7970   -0.5786 H   0  0  0  0  0  0  0  0  0  0  0  0
    1.9722    0.8457    0.9858 H   0  0  0  0  0  0  0  0  0  0  0  0
    0.9732   -0.7313   -1.4393 H   0  0  0  0  0  0  0  0  0  0  0  0
    2.1975   -1.4746   -0.3961 H   0  0  0  0  0  0  0  0  0  0  0  0
    0.5417   -2.0787    1.1592 H   0  0  0  0  0  0  0  0  0  0  0  0
   -0.6458   -1.7893   -1.2991 H   0  0  0  0  0  0  0  0  0  0  0  0
   -1.6287   -2.2787    0.1887 H   0  0  0  0  0  0  0  0  0  0  0  0
   -1.4984    0.3023   -1.3586 H   0  0  0  0  0  0  0  0  0  0  0  0
   -2.7272   -0.3062   -0.1180 H   0  0  0  0  0  0  0  0  0  0  0  0
   -1.7064    1.0529    1.3701 H   0  0  0  0  0  0  0  0  0  0  0  0
    0.1773    2.4254    0.9925 H   0  0  0  0  0  0  0  0  0  0  0  0
   -0.8932    2.4226   -0.4926 H   0  0  0  0  0  0  0  0  0  0  0  0
  1  2  1  0
  2  3  1  0
  3  4  1  0
  4  5  1  0
  5  6  1  0
  6  7  1  0
  7  8  1  0
  6  9  1  0
  8  1  1  0
  9  3  1  0
  1 10  1  0
  1 11  1  0
  2 12  1  0
  2 13  1  0
  3 14  1  0
  4 15  1  0
  4 16  1  0
  5 17  1  0
  5 18  1  0
  6 19  1  0
  7 20  1  0
  7 21  1  0
M  END
