
     RDKit          3D

 21 23  0  0  0  0  0  0  0  0999 V2000
    2.5949   -0.8441   -0.3148 C   0  0  0  0  0  0  0  0  0  0  0  0
    1.8197    0.4582   -0.4621 C   0  0  0  0  0  0  0  0  0  0  0  0
    0.8640   -0.3985    0.3768 C   0  0  0  0  0  0  0  0  0  0  0  0
   -0.4535   -0.0889    0.2395 C   0  0  0  0  0  0  0  0  0  0  0  0
   -1.2732   -0.1331   -1.0276 C   0  0  0  0  0  0  0  0  0  0  0  0
   -2.2204    0.4333   -0.0233 C   0  0  0  0  0  0  0  0  0  0  0  0
   -1.6507   -0.6052    0.9289 C   0  0  0  0  0  0  0  0  0  0  0  0
   -1.0702    1.2929    0.4370 C   0  0  0  0  0  0  0  0  0  0  0  0
    1.3392   -1.4808   -0.4031 O   0  0  0  0  0  0  0  0  0  0  0  0
    3.2971   -1.0711   -1.1070 H   0  0  0  0  0  0  0  0  0  0  0  0
    2.9620   -0.9192    0.7350 H   0  0  0  0  0  0  0  0  0  0  0  0
    1.4474    0.6589   -1.4836 H   0  0  0  0  0  0  0  0  0  0  0  0
    2.2535    1.3117    0.0827 H   0  0  0  0  0  0  0  0  0  0  0  0
    1.2753   -0.4950    1.3808 H   0  0  0  0  0  0  0  0  0  0  0  0
   -0.9768    0.5999   -1.8108 H   0  0  0  0  0  0  0  0  0  0  0  0
   -1.4794   -1.1434   -1.3939 H   0  0  0  0  0  0  0  0  0  0  0  0
   -3.1775    0.6889   -0.1191 H   0  0  0  0  0  0  0  0  0  0  0  0
   -1.6659   -0.2792    2.0069 H   0  0  0  0  0  0  0  0  0  0  0  0
   -1.9625   -1.6367    0.7552 H   0  0  0  0  0  0  0  0  0  0  0  0
   -1.1968    1.6022    1.4826 H   0  0  0  0  0  0  0  0  0  0  0  0
   -0.7263    2.0493   -0.2801 H   0  0  0  0  0  0  0  0  0  0  0  0
  1  2  1  0
  2  3  1  0
  3  4  1  0
  4  5  1  0
  5  6  1  0
  6  7  1  0
  6  8  1  0
  3  9  1  0
  9  1  1  0
  7  4  1  0
  8  4  1  0
  1 10  1  0
  1 11  1  0
  2 12  1  0
  2 13  1  0
  3 14  1  0
  5 15  1  0
  5 16  1  0
  6 17  1  0
  7 18  1  0
  7 19  1  0
  8 20  1  0
  8 21  1  0
M  END
