
     RDKit          3D

 18 19  0  0  0  0  0  0  0  0999 V2000
   -1.4396   -0.0137    0.3663 C   0  0  0  0  0  0  0  0  0  0  0  0
   -0.6754    1.2402    0.1232 C   0  0  0  0  0  0  0  0  0  0  0  0
    0.6972    0.9825   -0.5032 C   0  0  0  0  0  0  0  0  0  0  0  0
    1.6309    0.2949    0.4381 C   0  0  0  0  0  0  0  0  0  0  0  0
    1.6371   -1.0092   -0.0308 O   0  0  0  0  0  0  0  0  0  0  0  0
    0.4740   -1.1402   -0.8082 C   0  0  0  0  0  0  0  0  0  0  0  0
   -0.6779   -1.2727    0.1301 C   0  0  0  0  0  0  0  0  0  0  0  0
    0.4567    0.0549   -1.5390 O   0  0  0  0  0  0  0  0  0  0  0  0
   -2.3687   -0.0659   -0.2685 H   0  0  0  0  0  0  0  0  0  0  0  0
   -1.8305   -0.0051    1.4187 H   0  0  0  0  0  0  0  0  0  0  0  0
   -0.5894    1.8384    1.0375 H   0  0  0  0  0  0  0  0  0  0  0  0
   -1.2293    1.8407   -0.6584 H   0  0  0  0  0  0  0  0  0  0  0  0
    1.1196    1.9211   -0.8690 H   0  0  0  0  0  0  0  0  0  0  0  0
    2.6807    0.6716    0.3367 H   0  0  0  0  0  0  0  0  0  0  0  0
    1.2638    0.3806    1.4850 H   0  0  0  0  0  0  0  0  0  0  0  0
    0.5341   -1.9747   -1.5124 H   0  0  0  0  0  0  0  0  0  0  0  0
   -1.3553   -2.0843   -0.2629 H   0  0  0  0  0  0  0  0  0  0  0  0
   -0.3281   -1.6589    1.1169 H   0  0  0  0  0  0  0  0  0  0  0  0
  1  2  1  0
  2  3  1  0
  3  4  1  0
  4  5  1  0
  5  6  1  0
  6  7  1  0
  6  8  1  0
  7  1  1  0
  8  3  1  0
  1  9  1  0
  1 10  1  0
  2 11  1  0
  2 12  1  0
  3 13  1  0
  4 14  1  0
  4 15  1  0
  6 16  1  0
  7 17  1  0
  7 18  1  0
M  END
