
     RDKit          3D

 21 22  0  0  0  0  0  0  0  0999 V2000
    3.0375    0.1607    0.9382 C   0  0  0  0  0  0  0  0  0  0  0  0
    2.8811    0.1263   -0.5224 C   0  0  0  0  0  0  0  0  0  0  0  0
    1.8118   -0.4427    0.4170 C   0  0  0  0  0  0  0  0  0  0  0  0
    0.4984    0.2620    0.3823 C   0  0  0  0  0  0  0  0  0  0  0  0
   -0.5190   -0.5218   -0.1604 O   0  0  0  0  0  0  0  0  0  0  0  0
   -1.6872    0.1907   -0.1582 C   0  0  0  0  0  0  0  0  0  0  0  0
   -2.8243   -0.5984    0.4756 C   0  0  0  0  0  0  0  0  0  0  0  0
   -3.6627   -0.0258   -0.5003 O   0  0  0  0  0  0  0  0  0  0  0  0
   -2.5580    0.0772   -1.3779 C   0  0  0  0  0  0  0  0  0  0  0  0
    3.8159   -0.5197    1.3630 H   0  0  0  0  0  0  0  0  0  0  0  0
    2.9534    1.1371    1.4442 H   0  0  0  0  0  0  0  0  0  0  0  0
    3.3592   -0.6357   -1.1619 H   0  0  0  0  0  0  0  0  0  0  0  0
    2.6747    1.0729   -1.0412 H   0  0  0  0  0  0  0  0  0  0  0  0
    1.7284   -1.5465    0.4844 H   0  0  0  0  0  0  0  0  0  0  0  0
    0.2326    0.5910    1.4209 H   0  0  0  0  0  0  0  0  0  0  0  0
    0.5967    1.2046   -0.1937 H   0  0  0  0  0  0  0  0  0  0  0  0
   -1.5845    1.1908    0.2538 H   0  0  0  0  0  0  0  0  0  0  0  0
   -2.7314   -1.6906    0.3841 H   0  0  0  0  0  0  0  0  0  0  0  0
   -2.9899   -0.2367    1.5006 H   0  0  0  0  0  0  0  0  0  0  0  0
   -2.3857   -0.8161   -1.9940 H   0  0  0  0  0  0  0  0  0  0  0  0
   -2.6471    1.0209   -1.9541 H   0  0  0  0  0  0  0  0  0  0  0  0
  1  2  1  0
  2  3  1  0
  3  4  1  0
  4  5  1  0
  5  6  1  0
  6  7  1  0
  7  8  1  0
  8  9  1  0
  3  1  1  0
  9  6  1  0
  1 10  1  0
  1 11  1  0
  2 12  1  0
  2 13  1  0
  3 14  1  0
  4 15  1  0
  4 16  1  0
  6 17  1  0
  7 18  1  0
  7 19  1  0
  9 20  1  0
  9 21  1  0
M  END
