
     RDKit          3D

 19 21  0  0  0  0  0  0  0  0999 V2000
    0.8779   -1.0701   -0.1138 C   0  0  0  0  0  0  0  0  0  0  0  0
    1.5942    0.2697   -0.0776 C   0  0  0  0  0  0  0  0  0  0  0  0
    1.0330    0.8123    1.1655 C   0  0  0  0  0  0  0  0  0  0  0  0
    0.0915    1.6198    1.5209 O   0  0  0  0  0  0  0  0  0  0  0  0
   -0.4550    0.7524    0.7339 C   0  0  0  0  0  0  0  0  0  0  0  0
   -0.9685    1.3133   -0.5228 C   0  0  0  0  0  0  0  0  0  0  0  0
   -2.0331    0.4326   -0.8344 O   0  0  0  0  0  0  0  0  0  0  0  0
   -1.4834   -0.8158   -0.6406 C   0  0  0  0  0  0  0  0  0  0  0  0
   -0.4672   -0.6874    0.4928 C   0  0  0  0  0  0  0  0  0  0  0  0
    0.7939   -1.4767   -1.1219 H   0  0  0  0  0  0  0  0  0  0  0  0
    1.3584   -1.7791    0.5896 H   0  0  0  0  0  0  0  0  0  0  0  0
    1.5540    0.8402   -0.9788 H   0  0  0  0  0  0  0  0  0  0  0  0
    2.6783    0.0046    0.1135 H   0  0  0  0  0  0  0  0  0  0  0  0
    1.2545    0.0610    1.9995 H   0  0  0  0  0  0  0  0  0  0  0  0
   -0.3237    1.4902   -1.3574 H   0  0  0  0  0  0  0  0  0  0  0  0
   -1.4932    2.2893   -0.2959 H   0  0  0  0  0  0  0  0  0  0  0  0
   -1.0221   -1.1212   -1.5976 H   0  0  0  0  0  0  0  0  0  0  0  0
   -2.2256   -1.5960   -0.3909 H   0  0  0  0  0  0  0  0  0  0  0  0
   -0.7641   -1.3391    1.3157 H   0  0  0  0  0  0  0  0  0  0  0  0
  1  2  1  0
  2  3  1  0
  3  4  1  0
  4  5  1  0
  5  6  1  0
  6  7  1  0
  7  8  1  0
  8  9  1  0
  9  1  1  0
  5  3  1  0
  9  5  1  0
  1 10  1  0
  1 11  1  0
  2 12  1  0
  2 13  1  0
  3 14  1  0
  6 15  1  0
  6 16  1  0
  8 17  1  0
  8 18  1  0
  9 19  1  0
M  END
