
     RDKit          3D

 23 25  0  0  0  0  0  0  0  0999 V2000
   -2.4143    0.3137   -0.2257 C   0  0  0  0  0  0  0  0  0  0  0  0
   -1.9092   -1.0509    0.1233 C   0  0  0  0  0  0  0  0  0  0  0  0
   -0.4983   -0.8736    0.5723 C   0  0  0  0  0  0  0  0  0  0  0  0
    0.5098   -0.8206   -0.5731 C   0  0  0  0  0  0  0  0  0  0  0  0
    1.9274   -1.0035   -0.1266 C   0  0  0  0  0  0  0  0  0  0  0  0
    2.4191    0.3960    0.0856 C   0  0  0  0  0  0  0  0  0  0  0  0
    1.1859    1.1153    0.5824 C   0  0  0  0  0  0  0  0  0  0  0  0
   -0.0062    0.4089    0.0482 C   0  0  0  0  0  0  0  0  0  0  0  0
   -1.1899    1.1516   -0.4640 C   0  0  0  0  0  0  0  0  0  0  0  0
   -3.0237    0.3419   -1.1523 H   0  0  0  0  0  0  0  0  0  0  0  0
   -3.0412    0.6708    0.6123 H   0  0  0  0  0  0  0  0  0  0  0  0
   -2.0033   -1.6835   -0.8001 H   0  0  0  0  0  0  0  0  0  0  0  0
   -2.5489   -1.5717    0.8846 H   0  0  0  0  0  0  0  0  0  0  0  0
   -0.1839   -1.2985    1.5392 H   0  0  0  0  0  0  0  0  0  0  0  0
    0.1891   -1.1691   -1.5658 H   0  0  0  0  0  0  0  0  0  0  0  0
    2.5396   -1.6060   -0.8016 H   0  0  0  0  0  0  0  0  0  0  0  0
    1.9719   -1.5164    0.8783 H   0  0  0  0  0  0  0  0  0  0  0  0
    2.7916    0.8069   -0.8797 H   0  0  0  0  0  0  0  0  0  0  0  0
    3.2225    0.4274    0.8432 H   0  0  0  0  0  0  0  0  0  0  0  0
    1.1838    1.2627    1.6793 H   0  0  0  0  0  0  0  0  0  0  0  0
    1.2160    2.1371    0.1126 H   0  0  0  0  0  0  0  0  0  0  0  0
   -1.2825    2.0976    0.1354 H   0  0  0  0  0  0  0  0  0  0  0  0
   -1.0550    1.4640   -1.5081 H   0  0  0  0  0  0  0  0  0  0  0  0
  1  2  1  0
  2  3  1  0
  3  4  1  0
  4  5  1  0
  5  6  1  0
  6  7  1  0
  7  8  1  0
  8  9  1  0
  9  1  1  0
  8  3  1  0
  8  4  1  0
  1 10  1  0
  1 11  1  0
  2 12  1  0
  2 13  1  0
  3 14  1  0
  4 15  1  0
  5 16  1  0
  5 17  1  0
  6 18  1  0
  6 19  1  0
  7 20  1  0
  7 21  1  0
  9 22  1  0
  9 23  1  0
M  END
