
     RDKit          3D

 16 18  0  0  0  0  0  0  0  0999 V2000
   -1.5028   -0.7173   -0.0776 C   0  0  0  0  0  0  0  0  0  0  0  0
   -0.1579   -0.8878   -0.7439 C   0  0  0  0  0  0  0  0  0  0  0  0
    0.7496   -0.0956    0.1350 C   0  0  0  0  0  0  0  0  0  0  0  0
    2.1391    0.0766   -0.0167 C   0  0  0  0  0  0  0  0  0  0  0  0
    1.5997   -0.7369    0.9961 O   0  0  0  0  0  0  0  0  0  0  0  0
   -0.1136    1.0408    0.6287 C   0  0  0  0  0  0  0  0  0  0  0  0
   -0.7941    1.6373   -0.5530 O   0  0  0  0  0  0  0  0  0  0  0  0
   -1.4691    0.7550    0.3064 C   0  0  0  0  0  0  0  0  0  0  0  0
   -2.3497   -0.9767   -0.7154 H   0  0  0  0  0  0  0  0  0  0  0  0
   -1.4757   -1.2833    0.8741 H   0  0  0  0  0  0  0  0  0  0  0  0
   -0.1390   -0.4454   -1.7586 H   0  0  0  0  0  0  0  0  0  0  0  0
    0.1851   -1.9450   -0.7347 H   0  0  0  0  0  0  0  0  0  0  0  0
    2.7397   -0.3977   -0.8162 H   0  0  0  0  0  0  0  0  0  0  0  0
    2.6448    0.9736    0.4108 H   0  0  0  0  0  0  0  0  0  0  0  0
    0.2921    1.8025    1.2907 H   0  0  0  0  0  0  0  0  0  0  0  0
   -2.3482    1.1999    0.7743 H   0  0  0  0  0  0  0  0  0  0  0  0
  1  2  1  0
  2  3  1  0
  3  4  1  0
  4  5  1  0
  3  6  1  0
  6  7  1  0
  7  8  1  0
  8  1  1  0
  5  3  1  0
  8  6  1  0
  1  9  1  0
  1 10  1  0
  2 11  1  0
  2 12  1  0
  4 13  1  0
  4 14  1  0
  6 15  1  0
  8 16  1  0
M  END
