
     RDKit          3D

 20 22  0  0  0  0  0  0  0  0999 V2000
    2.3002    0.6588   -0.1970 C   0  0  0  0  0  0  0  0  0  0  0  0
    1.5478    0.2341    1.0706 C   0  0  0  0  0  0  0  0  0  0  0  0
    0.3631   -0.0053    0.2302 C   0  0  0  0  0  0  0  0  0  0  0  0
    1.1446    0.0711   -1.0077 C   0  0  0  0  0  0  0  0  0  0  0  0
   -0.7200   -0.9203    0.5185 C   0  0  0  0  0  0  0  0  0  0  0  0
   -1.7680   -1.0638   -0.5939 C   0  0  0  0  0  0  0  0  0  0  0  0
   -2.1626    0.3629   -0.2654 C   0  0  0  0  0  0  0  0  0  0  0  0
   -0.9184    0.6231    0.4971 C   0  0  0  0  0  0  0  0  0  0  0  0
    3.2590    0.1513   -0.3142 H   0  0  0  0  0  0  0  0  0  0  0  0
    2.3984    1.7477   -0.2891 H   0  0  0  0  0  0  0  0  0  0  0  0
    1.9759   -0.7431    1.4384 H   0  0  0  0  0  0  0  0  0  0  0  0
    1.5135    0.9973    1.8505 H   0  0  0  0  0  0  0  0  0  0  0  0
    1.4671   -0.9577   -1.3458 H   0  0  0  0  0  0  0  0  0  0  0  0
    0.8047    0.6970   -1.8341 H   0  0  0  0  0  0  0  0  0  0  0  0
   -0.9219   -1.3711    1.4867 H   0  0  0  0  0  0  0  0  0  0  0  0
   -2.5161   -1.8281   -0.4054 H   0  0  0  0  0  0  0  0  0  0  0  0
   -1.2632   -1.0771   -1.5793 H   0  0  0  0  0  0  0  0  0  0  0  0
   -3.0713    0.3214    0.4017 H   0  0  0  0  0  0  0  0  0  0  0  0
   -2.3744    0.9901   -1.1470 H   0  0  0  0  0  0  0  0  0  0  0  0
   -1.0585    1.1116    1.4850 H   0  0  0  0  0  0  0  0  0  0  0  0
  1  2  1  0
  2  3  1  0
  3  4  1  0
  3  5  1  0
  5  6  1  0
  6  7  1  0
  7  8  1  0
  4  1  1  0
  8  5  1  0
  8  3  1  0
  1  9  1  0
  1 10  1  0
  2 11  1  0
  2 12  1  0
  4 13  1  0
  4 14  1  0
  5 15  1  0
  6 16  1  0
  6 17  1  0
  7 18  1  0
  7 19  1  0
  8 20  1  0
M  END
