
     RDKit          3D

 21 23  0  0  0  0  0  0  0  0999 V2000
    2.8284   -0.7110   -0.0474 C   0  0  0  0  0  0  0  0  0  0  0  0
    2.7098    0.7556   -0.2535 C   0  0  0  0  0  0  0  0  0  0  0  0
    1.5099   -0.0804    0.1657 C   0  0  0  0  0  0  0  0  0  0  0  0
    0.5044   -0.1270   -0.7616 O   0  0  0  0  0  0  0  0  0  0  0  0
   -0.7000   -0.0578   -0.4342 C   0  0  0  0  0  0  0  0  0  0  0  0
   -1.9074   -0.0937   -1.3181 C   0  0  0  0  0  0  0  0  0  0  0  0
   -2.4882    0.0215    0.0621 C   0  0  0  0  0  0  0  0  0  0  0  0
   -1.4686   -1.0050    0.4596 C   0  0  0  0  0  0  0  0  0  0  0  0
   -1.4048    1.0487    0.3048 C   0  0  0  0  0  0  0  0  0  0  0  0
    3.0484   -1.3386   -0.9364 H   0  0  0  0  0  0  0  0  0  0  0  0
    3.3999   -1.0244    0.8483 H   0  0  0  0  0  0  0  0  0  0  0  0
    3.1288    1.4744    0.4781 H   0  0  0  0  0  0  0  0  0  0  0  0
    2.7604    1.1013   -1.3232 H   0  0  0  0  0  0  0  0  0  0  0  0
    1.1734    0.0218    1.2106 H   0  0  0  0  0  0  0  0  0  0  0  0
   -2.0731   -1.0463   -1.8455 H   0  0  0  0  0  0  0  0  0  0  0  0
   -2.1104    0.8272   -1.9067 H   0  0  0  0  0  0  0  0  0  0  0  0
   -3.4472    0.0820    0.3280 H   0  0  0  0  0  0  0  0  0  0  0  0
   -1.5732   -1.9839   -0.0480 H   0  0  0  0  0  0  0  0  0  0  0  0
   -1.1787   -1.0192    1.5085 H   0  0  0  0  0  0  0  0  0  0  0  0
   -1.5909    1.9633   -0.2934 H   0  0  0  0  0  0  0  0  0  0  0  0
   -1.1212    1.1915    1.3539 H   0  0  0  0  0  0  0  0  0  0  0  0
  1  2  1  0
  2  3  1  0
  3  4  1  0
  4  5  1  0
  5  6  1  0
  6  7  1  0
  7  8  1  0
  7  9  1  0
  3  1  1  0
  8  5  1  0
  9  5  1  0
  1 10  1  0
  1 11  1  0
  2 12  1  0
  2 13  1  0
  3 14  1  0
  6 15  1  0
  6 16  1  0
  7 17  1  0
  8 18  1  0
  8 19  1  0
  9 20  1  0
  9 21  1  0
M  END
