
     RDKit          3D

 21 23  0  0  0  0  0  0  0  0999 V2000
   -1.9065    0.4910    0.3810 C   0  0  0  0  0  0  0  0  0  0  0  0
   -1.4403   -0.8232   -0.0933 C   0  0  0  0  0  0  0  0  0  0  0  0
    0.0086   -1.0876   -0.0421 C   0  0  0  0  0  0  0  0  0  0  0  0
    0.9065   -0.3746   -1.0019 C   0  0  0  0  0  0  0  0  0  0  0  0
    0.4639    1.0556   -0.8835 C   0  0  0  0  0  0  0  0  0  0  0  0
    0.3060    1.1273    0.6498 C   0  0  0  0  0  0  0  0  0  0  0  0
   -1.0082    1.2871    1.0075 O   0  0  0  0  0  0  0  0  0  0  0  0
    0.7450   -0.2527    1.0116 C   0  0  0  0  0  0  0  0  0  0  0  0
    1.9547   -0.4523    0.1170 C   0  0  0  0  0  0  0  0  0  0  0  0
   -2.7997    0.3892    1.0682 H   0  0  0  0  0  0  0  0  0  0  0  0
   -2.3226    1.0666   -0.4967 H   0  0  0  0  0  0  0  0  0  0  0  0
   -1.8054   -1.0293   -1.1435 H   0  0  0  0  0  0  0  0  0  0  0  0
   -1.9510   -1.6247    0.5180 H   0  0  0  0  0  0  0  0  0  0  0  0
    0.2756   -2.1590    0.0183 H   0  0  0  0  0  0  0  0  0  0  0  0
    1.1523   -0.7923   -1.9402 H   0  0  0  0  0  0  0  0  0  0  0  0
   -0.4951    1.2261   -1.3916 H   0  0  0  0  0  0  0  0  0  0  0  0
    1.2322    1.7814   -1.2118 H   0  0  0  0  0  0  0  0  0  0  0  0
    0.9124    1.9192    1.0831 H   0  0  0  0  0  0  0  0  0  0  0  0
    0.7634   -0.5969    2.0051 H   0  0  0  0  0  0  0  0  0  0  0  0
    2.6916    0.3423    0.1138 H   0  0  0  0  0  0  0  0  0  0  0  0
    2.3167   -1.4933    0.2311 H   0  0  0  0  0  0  0  0  0  0  0  0
  1  2  1  0
  2  3  1  0
  3  4  1  0
  4  5  1  0
  5  6  1  0
  6  7  1  0
  6  8  1  0
  8  9  1  0
  7  1  1  0
  8  3  1  0
  9  4  1  0
  1 10  1  0
  1 11  1  0
  2 12  1  0
  2 13  1  0
  3 14  1  0
  4 15  1  0
  5 16  1  0
  5 17  1  0
  6 18  1  0
  8 19  1  0
  9 20  1  0
  9 21  1  0
M  END
