
     RDKit          3D

 21 22  0  0  0  0  0  0  0  0999 V2000
    1.6884   -0.9913   -0.5694 C   0  0  0  0  0  0  0  0  0  0  0  0
    0.2347   -1.1847   -0.3874 C   0  0  0  0  0  0  0  0  0  0  0  0
   -0.5463   -0.0186    0.0649 C   0  0  0  0  0  0  0  0  0  0  0  0
    0.1270    1.2983   -0.0166 C   0  0  0  0  0  0  0  0  0  0  0  0
    1.6140    1.2023    0.1865 C   0  0  0  0  0  0  0  0  0  0  0  0
    2.1429    0.2788   -0.6641 O   0  0  0  0  0  0  0  0  0  0  0  0
   -1.4085   -0.2644    1.2881 C   0  0  0  0  0  0  0  0  0  0  0  0
   -2.3113    0.6655    0.7237 O   0  0  0  0  0  0  0  0  0  0  0  0
   -1.9625    0.0856   -0.5191 C   0  0  0  0  0  0  0  0  0  0  0  0
    2.2799   -1.5355    0.2233 H   0  0  0  0  0  0  0  0  0  0  0  0
    1.9864   -1.5197   -1.5242 H   0  0  0  0  0  0  0  0  0  0  0  0
   -0.2582   -1.5849   -1.3227 H   0  0  0  0  0  0  0  0  0  0  0  0
    0.0810   -2.0162    0.3623 H   0  0  0  0  0  0  0  0  0  0  0  0
   -0.3661    2.0066    0.6650 H   0  0  0  0  0  0  0  0  0  0  0  0
   -0.0392    1.7049   -1.0557 H   0  0  0  0  0  0  0  0  0  0  0  0
    2.0351    2.2045   -0.1134 H   0  0  0  0  0  0  0  0  0  0  0  0
    1.8922    1.0818    1.2501 H   0  0  0  0  0  0  0  0  0  0  0  0
   -1.8299   -1.2884    1.2309 H   0  0  0  0  0  0  0  0  0  0  0  0
   -0.9354    0.0411    2.2129 H   0  0  0  0  0  0  0  0  0  0  0  0
   -2.3827   -0.9287   -0.6591 H   0  0  0  0  0  0  0  0  0  0  0  0
   -2.0416    0.7630   -1.3759 H   0  0  0  0  0  0  0  0  0  0  0  0
  1  2  1  0
  2  3  1  0
  3  4  1  0
  4  5  1  0
  5  6  1  0
  3  7  1  0
  7  8  1  0
  8  9  1  0
  6  1  1  0
  9  3  1  0
  1 10  1  0
  1 11  1  0
  2 12  1  0
  2 13  1  0
  4 14  1  0
  4 15  1  0
  5 16  1  0
  5 17  1  0
  7 18  1  0
  7 19  1  0
  9 20  1  0
  9 21  1  0
M  END
