
     RDKit          3D

 23 24  0  0  0  0  0  0  0  0999 V2000
    1.5736   -0.0849   -0.7616 C   0  0  0  0  0  0  0  0  0  0  0  0
    0.9133   -1.2960   -0.2106 C   0  0  0  0  0  0  0  0  0  0  0  0
   -0.3791   -1.0697    0.4796 C   0  0  0  0  0  0  0  0  0  0  0  0
   -1.5414   -0.7926   -0.4211 C   0  0  0  0  0  0  0  0  0  0  0  0
   -1.6942    0.6426   -0.8036 C   0  0  0  0  0  0  0  0  0  0  0  0
   -0.6734    1.4689   -0.5355 O   0  0  0  0  0  0  0  0  0  0  0  0
    0.0575    1.3071    0.5903 C   0  0  0  0  0  0  0  0  0  0  0  0
    1.5053    1.1292    0.1005 C   0  0  0  0  0  0  0  0  0  0  0  0
   -0.2560    0.0967    1.4163 C   0  0  0  0  0  0  0  0  0  0  0  0
    2.6689   -0.3335   -0.8887 H   0  0  0  0  0  0  0  0  0  0  0  0
    1.1876    0.1090   -1.7732 H   0  0  0  0  0  0  0  0  0  0  0  0
    1.6136   -1.7798    0.5230 H   0  0  0  0  0  0  0  0  0  0  0  0
    0.8312   -2.0436   -1.0458 H   0  0  0  0  0  0  0  0  0  0  0  0
   -0.6141   -1.9655    1.1099 H   0  0  0  0  0  0  0  0  0  0  0  0
   -1.5299   -1.4869   -1.3063 H   0  0  0  0  0  0  0  0  0  0  0  0
   -2.4652   -1.0808    0.1436 H   0  0  0  0  0  0  0  0  0  0  0  0
   -2.6434    1.1015   -0.3938 H   0  0  0  0  0  0  0  0  0  0  0  0
   -1.8644    0.6614   -1.9230 H   0  0  0  0  0  0  0  0  0  0  0  0
    0.0243    2.2007    1.2253 H   0  0  0  0  0  0  0  0  0  0  0  0
    2.1590    1.1161    0.9665 H   0  0  0  0  0  0  0  0  0  0  0  0
    1.6789    2.0182   -0.5546 H   0  0  0  0  0  0  0  0  0  0  0  0
   -1.1915    0.1693    1.9838 H   0  0  0  0  0  0  0  0  0  0  0  0
    0.6393   -0.0874    2.0793 H   0  0  0  0  0  0  0  0  0  0  0  0
  1  2  1  0
  2  3  1  0
  3  4  1  0
  4  5  1  0
  5  6  1  0
  6  7  1  0
  7  8  1  0
  7  9  1  0
  8  1  1  0
  9  3  1  0
  1 10  1  0
  1 11  1  0
  2 12  1  0
  2 13  1  0
  3 14  1  0
  4 15  1  0
  4 16  1  0
  5 17  1  0
  5 18  1  0
  7 19  1  0
  8 20  1  0
  8 21  1  0
  9 22  1  0
  9 23  1  0
M  END
