
     RDKit          3D

 19 21  0  0  0  0  0  0  0  0999 V2000
   -2.0385    0.6246   -0.4926 C   0  0  0  0  0  0  0  0  0  0  0  0
   -1.9688   -0.4080    0.5866 C   0  0  0  0  0  0  0  0  0  0  0  0
   -0.5986   -0.9973    0.4663 C   0  0  0  0  0  0  0  0  0  0  0  0
    0.3680   -0.4740    1.3220 O   0  0  0  0  0  0  0  0  0  0  0  0
    1.0567   -0.0259    0.2478 C   0  0  0  0  0  0  0  0  0  0  0  0
    1.9078    1.1550    0.2055 C   0  0  0  0  0  0  0  0  0  0  0  0
    2.4595   -0.2377   -0.0451 C   0  0  0  0  0  0  0  0  0  0  0  0
   -0.0271   -0.3211   -0.7291 C   0  0  0  0  0  0  0  0  0  0  0  0
   -0.8006    0.7576   -1.0568 O   0  0  0  0  0  0  0  0  0  0  0  0
   -2.7546    0.3282   -1.3053 H   0  0  0  0  0  0  0  0  0  0  0  0
   -2.4222    1.5938   -0.1064 H   0  0  0  0  0  0  0  0  0  0  0  0
   -2.1683   -0.0167    1.6009 H   0  0  0  0  0  0  0  0  0  0  0  0
   -2.7050   -1.2046    0.3500 H   0  0  0  0  0  0  0  0  0  0  0  0
   -0.5464   -2.1010    0.4980 H   0  0  0  0  0  0  0  0  0  0  0  0
    2.2964    1.6045    1.1392 H   0  0  0  0  0  0  0  0  0  0  0  0
    1.7696    1.8443   -0.6490 H   0  0  0  0  0  0  0  0  0  0  0  0
    3.1774   -0.6728    0.6664 H   0  0  0  0  0  0  0  0  0  0  0  0
    2.7208   -0.4689   -1.1164 H   0  0  0  0  0  0  0  0  0  0  0  0
    0.2739   -0.9800   -1.5820 H   0  0  0  0  0  0  0  0  0  0  0  0
  1  2  1  0
  2  3  1  0
  3  4  1  0
  4  5  1  0
  5  6  1  0
  6  7  1  0
  5  8  1  0
  8  9  1  0
  9  1  1  0
  8  3  1  0
  7  5  1  0
  1 10  1  0
  1 11  1  0
  2 12  1  0
  2 13  1  0
  3 14  1  0
  6 15  1  0
  6 16  1  0
  7 17  1  0
  7 18  1  0
  8 19  1  0
M  END
