
     RDKit          3D

 21 23  0  0  0  0  0  0  0  0999 V2000
   -2.2015    0.0900    0.6469 C   0  0  0  0  0  0  0  0  0  0  0  0
   -2.8668   -0.1992   -0.6760 C   0  0  0  0  0  0  0  0  0  0  0  0
   -1.4426   -0.5050   -0.5186 C   0  0  0  0  0  0  0  0  0  0  0  0
   -0.3585    0.3873   -1.0832 C   0  0  0  0  0  0  0  0  0  0  0  0
    0.6276    0.6486    0.0580 C   0  0  0  0  0  0  0  0  0  0  0  0
    1.6916    1.4500   -0.2726 O   0  0  0  0  0  0  0  0  0  0  0  0
    2.5159    0.6229    0.4825 C   0  0  0  0  0  0  0  0  0  0  0  0
    2.8588   -0.6795   -0.1273 C   0  0  0  0  0  0  0  0  0  0  0  0
    1.4961   -0.5320    0.3870 C   0  0  0  0  0  0  0  0  0  0  0  0
   -2.4218   -0.5495    1.5273 H   0  0  0  0  0  0  0  0  0  0  0  0
   -2.0426    1.1696    0.8985 H   0  0  0  0  0  0  0  0  0  0  0  0
   -3.5517   -1.0980   -0.6729 H   0  0  0  0  0  0  0  0  0  0  0  0
   -3.2429    0.6100   -1.3076 H   0  0  0  0  0  0  0  0  0  0  0  0
   -1.1262   -1.5605   -0.3472 H   0  0  0  0  0  0  0  0  0  0  0  0
   -0.7761    1.3571   -1.4237 H   0  0  0  0  0  0  0  0  0  0  0  0
    0.1480   -0.1016   -1.9364 H   0  0  0  0  0  0  0  0  0  0  0  0
    0.0696    1.0847    0.9121 H   0  0  0  0  0  0  0  0  0  0  0  0
    2.7944    0.8982    1.5110 H   0  0  0  0  0  0  0  0  0  0  0  0
    3.5171   -1.3899    0.4154 H   0  0  0  0  0  0  0  0  0  0  0  0
    3.0825   -0.6639   -1.2277 H   0  0  0  0  0  0  0  0  0  0  0  0
    1.2293   -1.0392    1.3365 H   0  0  0  0  0  0  0  0  0  0  0  0
  1  2  1  0
  2  3  1  0
  3  4  1  0
  4  5  1  0
  5  6  1  0
  6  7  1  0
  7  8  1  0
  8  9  1  0
  3  1  1  0
  9  5  1  0
  9  7  1  0
  1 10  1  0
  1 11  1  0
  2 12  1  0
  2 13  1  0
  3 14  1  0
  4 15  1  0
  4 16  1  0
  5 17  1  0
  7 18  1  0
  8 19  1  0
  8 20  1  0
  9 21  1  0
M  END
