
     RDKit          2D

 19 22  0  0  0  0  0  0  0  0999 V2000
   -1.2610   -4.4107    0.0000 C   0  0  0  0  0  0  0  0  0  0  0  0
   -2.7552   -4.5414    0.0000 C   0  0  0  0  0  0  0  0  0  0  0  0
   -2.1213   -3.1820    0.0000 C   0  0  0  0  0  0  0  0  0  0  0  0
   -1.0607   -2.1213    0.0000 C   0  0  0  0  0  0  0  0  0  0  0  0
   -0.0000   -1.0607    0.0000 C   0  0  0  0  0  0  0  0  0  0  0  0
    1.0607    0.0000    0.0000 O   0  0  0  0  0  0  0  0  0  0  0  0
    0.0000    1.0607    0.0000 C   0  0  0  0  0  0  0  0  0  0  0  0
   -1.0607    0.0000    0.0000 C   0  0  0  0  0  0  0  0  0  0  0  0
   -2.1213   -1.0607    0.0000 C   0  0  0  0  0  0  0  0  0  0  0  0
   -0.8727   -5.8596    0.0000 H   0  0  0  0  0  0  0  0  0  0  0  0
    0.0230   -3.9936    0.0000 H   0  0  0  0  0  0  0  0  0  0  0  0
   -4.2041   -4.1532    0.0000 H   0  0  0  0  0  0  0  0  0  0  0  0
   -2.8860   -6.0357    0.0000 H   0  0  0  0  0  0  0  0  0  0  0  0
   -3.3500   -2.3216    0.0000 H   0  0  0  0  0  0  0  0  0  0  0  0
    0.0032   -2.9524    0.0000 H   0  0  0  0  0  0  0  0  0  0  0  0
    1.0607   -2.1213    0.0000 H   0  0  0  0  0  0  0  0  0  0  0  0
    0.0000    2.5607    0.0000 H   0  0  0  0  0  0  0  0  0  0  0  0
   -2.1213    1.0607    0.0000 H   0  0  0  0  0  0  0  0  0  0  0  0
   -3.6213   -1.0607    0.0000 H   0  0  0  0  0  0  0  0  0  0  0  0
  1  2  1  0
  2  3  1  0
  3  4  1  0
  4  5  1  0
  5  6  1  0
  6  7  1  0
  7  8  1  0
  8  9  1  0
  3  1  1  0
  9  4  1  0
  8  5  1  0
  9  7  1  0
  1 10  1  0
  1 11  1  0
  2 12  1  0
  2 13  1  0
  3 14  1  0
  4 15  1  0
  5 16  1  0
  7 17  1  0
  8 18  1  0
  9 19  1  0
M  END
