
     RDKit          3D

 19 21  0  0  0  0  0  0  0  0999 V2000
   -2.2233   -0.6924    0.3946 C   0  0  0  0  0  0  0  0  0  0  0  0
   -1.5858   -0.0054   -0.8319 C   0  0  0  0  0  0  0  0  0  0  0  0
   -0.1729   -0.3862   -0.6000 C   0  0  0  0  0  0  0  0  0  0  0  0
   -0.2559   -0.1284    0.9653 C   0  0  0  0  0  0  0  0  0  0  0  0
   -1.1223   -1.1672    1.1579 O   0  0  0  0  0  0  0  0  0  0  0  0
    0.8712    0.1096    0.1849 C   0  0  0  0  0  0  0  0  0  0  0  0
    1.5885    1.3798    0.1459 C   0  0  0  0  0  0  0  0  0  0  0  0
    2.6797    0.7534    0.7806 O   0  0  0  0  0  0  0  0  0  0  0  0
    2.2191   -0.4454    0.1866 C   0  0  0  0  0  0  0  0  0  0  0  0
   -2.7250    0.0734    1.0264 H   0  0  0  0  0  0  0  0  0  0  0  0
   -2.8854   -1.5034    0.0949 H   0  0  0  0  0  0  0  0  0  0  0  0
   -1.7827    1.0761   -0.8283 H   0  0  0  0  0  0  0  0  0  0  0  0
   -2.0096   -0.4865   -1.7244 H   0  0  0  0  0  0  0  0  0  0  0  0
   -0.0317   -1.4803   -0.8776 H   0  0  0  0  0  0  0  0  0  0  0  0
   -0.7957    0.8336    1.2486 H   0  0  0  0  0  0  0  0  0  0  0  0
    1.9538    1.7188   -0.8674 H   0  0  0  0  0  0  0  0  0  0  0  0
    1.1831    2.2523    0.6697 H   0  0  0  0  0  0  0  0  0  0  0  0
    2.4479   -1.3490    0.7706 H   0  0  0  0  0  0  0  0  0  0  0  0
    2.6471   -0.5528   -0.8379 H   0  0  0  0  0  0  0  0  0  0  0  0
  1  2  1  0
  2  3  1  0
  3  4  1  0
  4  5  1  0
  4  6  1  0
  6  7  1  0
  7  8  1  0
  8  9  1  0
  5  1  1  0
  9  6  1  0
  6  3  1  0
  1 10  1  0
  1 11  1  0
  2 12  1  0
  2 13  1  0
  3 14  1  0
  4 15  1  0
  7 16  1  0
  7 17  1  0
  9 18  1  0
  9 19  1  0
M  END
