
     RDKit          3D

 21 23  0  0  0  0  0  0  0  0999 V2000
    0.8337    0.2767    1.2014 C   0  0  0  0  0  0  0  0  0  0  0  0
    1.0355   -1.0596    0.5374 C   0  0  0  0  0  0  0  0  0  0  0  0
    0.3201   -1.0607   -0.7928 C   0  0  0  0  0  0  0  0  0  0  0  0
    0.8621   -0.0929   -1.6508 O   0  0  0  0  0  0  0  0  0  0  0  0
    0.9503    1.1508   -1.0657 C   0  0  0  0  0  0  0  0  0  0  0  0
    0.1134    1.1715    0.2196 C   0  0  0  0  0  0  0  0  0  0  0  0
   -1.2600    0.6681   -0.1281 C   0  0  0  0  0  0  0  0  0  0  0  0
   -1.8136   -0.4869    0.5885 C   0  0  0  0  0  0  0  0  0  0  0  0
   -1.1434   -0.7875   -0.6735 C   0  0  0  0  0  0  0  0  0  0  0  0
    1.8388    0.7305    1.3599 H   0  0  0  0  0  0  0  0  0  0  0  0
    0.3410    0.2334    2.1686 H   0  0  0  0  0  0  0  0  0  0  0  0
    0.6625   -1.9102    1.1324 H   0  0  0  0  0  0  0  0  0  0  0  0
    2.1066   -1.2780    0.3226 H   0  0  0  0  0  0  0  0  0  0  0  0
    0.4621   -2.0431   -1.2908 H   0  0  0  0  0  0  0  0  0  0  0  0
    1.9951    1.3849   -0.7264 H   0  0  0  0  0  0  0  0  0  0  0  0
    0.5633    1.9748   -1.6862 H   0  0  0  0  0  0  0  0  0  0  0  0
    0.0126    2.1767    0.6326 H   0  0  0  0  0  0  0  0  0  0  0  0
   -1.8350    1.3298   -0.7794 H   0  0  0  0  0  0  0  0  0  0  0  0
   -1.3731   -0.7089    1.5872 H   0  0  0  0  0  0  0  0  0  0  0  0
   -2.9257   -0.6356    0.5985 H   0  0  0  0  0  0  0  0  0  0  0  0
   -1.7462   -1.0338   -1.5549 H   0  0  0  0  0  0  0  0  0  0  0  0
  1  2  1  0
  2  3  1  0
  3  4  1  0
  4  5  1  0
  5  6  1  0
  6  7  1  0
  7  8  1  0
  8  9  1  0
  6  1  1  0
  9  7  1  0
  9  3  1  0
  1 10  1  0
  1 11  1  0
  2 12  1  0
  2 13  1  0
  3 14  1  0
  5 15  1  0
  5 16  1  0
  6 17  1  0
  7 18  1  0
  8 19  1  0
  8 20  1  0
  9 21  1  0
M  END
