
     RDKit          3D

 19 20  0  0  0  0  0  0  0  0999 V2000
   -2.3594   -0.1647   -0.4028 C   0  0  0  0  0  0  0  0  0  0  0  0
   -1.0491   -0.2585   -1.1925 C   0  0  0  0  0  0  0  0  0  0  0  0
   -0.0385   -0.0635   -0.0770 C   0  0  0  0  0  0  0  0  0  0  0  0
   -0.9026    0.1911    1.1361 C   0  0  0  0  0  0  0  0  0  0  0  0
   -2.0271    0.7972    0.5406 O   0  0  0  0  0  0  0  0  0  0  0  0
    0.6869    1.0719   -0.3402 O   0  0  0  0  0  0  0  0  0  0  0  0
    1.9794    0.8847    0.1007 C   0  0  0  0  0  0  0  0  0  0  0  0
    2.0933   -0.6088    0.2270 C   0  0  0  0  0  0  0  0  0  0  0  0
    0.8174   -1.1239    0.0649 O   0  0  0  0  0  0  0  0  0  0  0  0
   -2.4618   -1.1455    0.1201 H   0  0  0  0  0  0  0  0  0  0  0  0
   -3.2092    0.0836   -1.0297 H   0  0  0  0  0  0  0  0  0  0  0  0
   -0.9422   -1.2238   -1.7013 H   0  0  0  0  0  0  0  0  0  0  0  0
   -1.0344    0.5641   -1.9198 H   0  0  0  0  0  0  0  0  0  0  0  0
   -1.1877   -0.7595    1.6341 H   0  0  0  0  0  0  0  0  0  0  0  0
   -0.3565    0.8681    1.7954 H   0  0  0  0  0  0  0  0  0  0  0  0
    2.6539    1.2840   -0.7001 H   0  0  0  0  0  0  0  0  0  0  0  0
    2.0974    1.4148    1.0598 H   0  0  0  0  0  0  0  0  0  0  0  0
    2.7630   -0.9652   -0.5682 H   0  0  0  0  0  0  0  0  0  0  0  0
    2.4769   -0.8460    1.2530 H   0  0  0  0  0  0  0  0  0  0  0  0
  1  2  1  0
  2  3  1  0
  3  4  1  0
  4  5  1  0
  3  6  1  0
  6  7  1  0
  7  8  1  0
  8  9  1  0
  5  1  1  0
  9  3  1  0
  1 10  1  0
  1 11  1  0
  2 12  1  0
  2 13  1  0
  4 14  1  0
  4 15  1  0
  7 16  1  0
  7 17  1  0
  8 18  1  0
  8 19  1  0
M  END
