
     RDKit          3D

 21 23  0  0  0  0  0  0  0  0999 V2000
    1.7252    0.7961    0.1462 C   0  0  0  0  0  0  0  0  0  0  0  0
    0.4185    1.3362   -0.4544 C   0  0  0  0  0  0  0  0  0  0  0  0
   -0.6668    0.7263    0.4367 C   0  0  0  0  0  0  0  0  0  0  0  0
   -2.0146    0.6032   -0.2339 C   0  0  0  0  0  0  0  0  0  0  0  0
   -1.8708   -0.9247   -0.1802 C   0  0  0  0  0  0  0  0  0  0  0  0
   -0.5197   -0.7291    0.3792 C   0  0  0  0  0  0  0  0  0  0  0  0
    0.0745   -1.5089    1.2985 O   0  0  0  0  0  0  0  0  0  0  0  0
    0.6043   -1.3969    0.0198 C   0  0  0  0  0  0  0  0  0  0  0  0
    1.8856   -0.6536   -0.1996 C   0  0  0  0  0  0  0  0  0  0  0  0
    2.5797    1.4164   -0.1034 H   0  0  0  0  0  0  0  0  0  0  0  0
    1.6052    0.8447    1.2686 H   0  0  0  0  0  0  0  0  0  0  0  0
    0.3990    2.4280   -0.4463 H   0  0  0  0  0  0  0  0  0  0  0  0
    0.3091    0.9350   -1.4998 H   0  0  0  0  0  0  0  0  0  0  0  0
   -0.6587    1.2424    1.4020 H   0  0  0  0  0  0  0  0  0  0  0  0
   -2.8086    0.9041    0.4932 H   0  0  0  0  0  0  0  0  0  0  0  0
   -2.0925    1.0206   -1.2406 H   0  0  0  0  0  0  0  0  0  0  0  0
   -2.5568   -1.4275    0.4998 H   0  0  0  0  0  0  0  0  0  0  0  0
   -1.8069   -1.3576   -1.2199 H   0  0  0  0  0  0  0  0  0  0  0  0
    0.5776   -2.3846   -0.5290 H   0  0  0  0  0  0  0  0  0  0  0  0
    2.1453   -0.7743   -1.2872 H   0  0  0  0  0  0  0  0  0  0  0  0
    2.6714   -1.0959    0.4158 H   0  0  0  0  0  0  0  0  0  0  0  0
  1  2  1  0
  2  3  1  0
  3  4  1  0
  4  5  1  0
  5  6  1  0
  6  7  1  0
  7  8  1  0
  8  9  1  0
  9  1  1  0
  6  3  1  0
  8  6  1  0
  1 10  1  0
  1 11  1  0
  2 12  1  0
  2 13  1  0
  3 14  1  0
  4 15  1  0
  4 16  1  0
  5 17  1  0
  5 18  1  0
  8 19  1  0
  9 20  1  0
  9 21  1  0
M  END
