
     RDKit          3D

 19 20  0  0  0  0  0  0  0  0999 V2000
   -1.5778    0.2054    0.4872 C   0  0  0  0  0  0  0  0  0  0  0  0
   -1.1054   -1.2170    0.4567 C   0  0  0  0  0  0  0  0  0  0  0  0
    0.1578   -1.4245   -0.3115 C   0  0  0  0  0  0  0  0  0  0  0  0
    1.3001   -1.3014    0.4506 O   0  0  0  0  0  0  0  0  0  0  0  0
    1.8069   -0.0252    0.2540 C   0  0  0  0  0  0  0  0  0  0  0  0
    0.9083    0.6078   -0.7806 C   0  0  0  0  0  0  0  0  0  0  0  0
    0.0005    1.6406   -0.1811 C   0  0  0  0  0  0  0  0  0  0  0  0
   -0.6281    1.0937    0.9421 O   0  0  0  0  0  0  0  0  0  0  0  0
    0.2531   -0.4773   -1.3144 O   0  0  0  0  0  0  0  0  0  0  0  0
   -1.9014    0.4968   -0.5385 H   0  0  0  0  0  0  0  0  0  0  0  0
   -2.4613    0.2613    1.1373 H   0  0  0  0  0  0  0  0  0  0  0  0
   -1.9081   -1.8211   -0.0317 H   0  0  0  0  0  0  0  0  0  0  0  0
   -1.0249   -1.5813    1.4997 H   0  0  0  0  0  0  0  0  0  0  0  0
    0.1719   -2.4659   -0.7405 H   0  0  0  0  0  0  0  0  0  0  0  0
    2.8332   -0.0180   -0.1595 H   0  0  0  0  0  0  0  0  0  0  0  0
    1.8087    0.5104    1.2141 H   0  0  0  0  0  0  0  0  0  0  0  0
    1.4776    1.1046   -1.5968 H   0  0  0  0  0  0  0  0  0  0  0  0
    0.6271    2.4837    0.1595 H   0  0  0  0  0  0  0  0  0  0  0  0
   -0.7380    1.9273   -0.9467 H   0  0  0  0  0  0  0  0  0  0  0  0
  1  2  1  0
  2  3  1  0
  3  4  1  0
  4  5  1  0
  5  6  1  0
  6  7  1  0
  7  8  1  0
  6  9  1  0
  8  1  1  0
  9  3  1  0
  1 10  1  0
  1 11  1  0
  2 12  1  0
  2 13  1  0
  3 14  1  0
  5 15  1  0
  5 16  1  0
  6 17  1  0
  7 18  1  0
  7 19  1  0
M  END
