
     RDKit          3D

 23 24  0  0  0  0  0  0  0  0999 V2000
   -0.7340   -0.9603    1.0917 C   0  0  0  0  0  0  0  0  0  0  0  0
   -1.6118   -0.0347    0.2652 C   0  0  0  0  0  0  0  0  0  0  0  0
   -0.7948    0.9081   -0.5795 C   0  0  0  0  0  0  0  0  0  0  0  0
    0.0003    1.7861    0.3171 C   0  0  0  0  0  0  0  0  0  0  0  0
    1.1774    1.3502    0.7485 O   0  0  0  0  0  0  0  0  0  0  0  0
    1.7056    0.1829    0.4099 C   0  0  0  0  0  0  0  0  0  0  0  0
    1.0080   -0.6766   -0.5784 C   0  0  0  0  0  0  0  0  0  0  0  0
    0.1161   -1.7276    0.0952 C   0  0  0  0  0  0  0  0  0  0  0  0
    0.1764    0.1772   -1.4842 C   0  0  0  0  0  0  0  0  0  0  0  0
   -0.1272   -0.3376    1.7744 H   0  0  0  0  0  0  0  0  0  0  0  0
   -1.3614   -1.6162    1.6874 H   0  0  0  0  0  0  0  0  0  0  0  0
   -2.3616   -0.6009   -0.2885 H   0  0  0  0  0  0  0  0  0  0  0  0
   -2.1620    0.5970    1.0031 H   0  0  0  0  0  0  0  0  0  0  0  0
   -1.4924    1.4709   -1.2195 H   0  0  0  0  0  0  0  0  0  0  0  0
    0.1365    2.7724   -0.2189 H   0  0  0  0  0  0  0  0  0  0  0  0
   -0.6648    2.0580    1.1906 H   0  0  0  0  0  0  0  0  0  0  0  0
    1.8689   -0.4420    1.3380 H   0  0  0  0  0  0  0  0  0  0  0  0
    2.7557    0.3417    0.0207 H   0  0  0  0  0  0  0  0  0  0  0  0
    1.7140   -1.2510   -1.2185 H   0  0  0  0  0  0  0  0  0  0  0  0
    0.6849   -2.5404    0.5357 H   0  0  0  0  0  0  0  0  0  0  0  0
   -0.5971   -2.0837   -0.6929 H   0  0  0  0  0  0  0  0  0  0  0  0
   -0.3011   -0.3501   -2.3068 H   0  0  0  0  0  0  0  0  0  0  0  0
    0.8643    0.9766   -1.8901 H   0  0  0  0  0  0  0  0  0  0  0  0
  1  2  1  0
  2  3  1  0
  3  4  1  0
  4  5  1  0
  5  6  1  0
  6  7  1  0
  7  8  1  0
  7  9  1  0
  8  1  1  0
  9  3  1  0
  1 10  1  0
  1 11  1  0
  2 12  1  0
  2 13  1  0
  3 14  1  0
  4 15  1  0
  4 16  1  0
  6 17  1  0
  6 18  1  0
  7 19  1  0
  8 20  1  0
  8 21  1  0
  9 22  1  0
  9 23  1  0
M  END
