
     RDKit          3D

 14 15  0  0  0  0  0  0  0  0999 V2000
    1.7248    0.3131    0.1409 C   0  0  0  0  0  0  0  0  0  0  0  0
    0.8585   -0.7766   -0.4747 C   0  0  0  0  0  0  0  0  0  0  0  0
   -0.1744    0.0156    0.2238 C   0  0  0  0  0  0  0  0  0  0  0  0
   -1.5335   -0.4060    0.4949 C   0  0  0  0  0  0  0  0  0  0  0  0
   -1.2190    0.7986   -0.4176 C   0  0  0  0  0  0  0  0  0  0  0  0
    0.7257    0.4732    1.1292 O   0  0  0  0  0  0  0  0  0  0  0  0
    2.6699   -0.0946    0.4987 H   0  0  0  0  0  0  0  0  0  0  0  0
    1.7838    1.2449   -0.4378 H   0  0  0  0  0  0  0  0  0  0  0  0
    0.8520   -0.8171   -1.5675 H   0  0  0  0  0  0  0  0  0  0  0  0
    1.0734   -1.7504    0.0298 H   0  0  0  0  0  0  0  0  0  0  0  0
   -1.8756   -1.3447   -0.0294 H   0  0  0  0  0  0  0  0  0  0  0  0
   -1.9738   -0.1835    1.4791 H   0  0  0  0  0  0  0  0  0  0  0  0
   -1.4222    1.8086    0.0408 H   0  0  0  0  0  0  0  0  0  0  0  0
   -1.4895    0.7189   -1.4809 H   0  0  0  0  0  0  0  0  0  0  0  0
  1  2  1  0
  2  3  1  0
  3  4  1  0
  4  5  1  0
  3  6  1  0
  6  1  1  0
  5  3  1  0
  1  7  1  0
  1  8  1  0
  2  9  1  0
  2 10  1  0
  4 11  1  0
  4 12  1  0
  5 13  1  0
  5 14  1  0
M  END
