
     RDKit          3D

 21 23  0  0  0  0  0  0  0  0999 V2000
    1.8718    0.7076   -0.3583 C   0  0  0  0  0  0  0  0  0  0  0  0
    0.8255    1.4267    0.4079 C   0  0  0  0  0  0  0  0  0  0  0  0
   -0.4432    0.6777    0.6098 C   0  0  0  0  0  0  0  0  0  0  0  0
   -1.4511    0.9304   -0.5222 C   0  0  0  0  0  0  0  0  0  0  0  0
   -1.7464   -0.5760   -0.4522 C   0  0  0  0  0  0  0  0  0  0  0  0
   -0.4363   -0.7371    0.2053 C   0  0  0  0  0  0  0  0  0  0  0  0
    0.0731   -1.8677    0.9071 C   0  0  0  0  0  0  0  0  0  0  0  0
    0.7598   -1.3045   -0.3591 C   0  0  0  0  0  0  0  0  0  0  0  0
    1.9550   -0.6409   -0.1198 O   0  0  0  0  0  0  0  0  0  0  0  0
    2.8650    1.1521   -0.0929 H   0  0  0  0  0  0  0  0  0  0  0  0
    1.7841    0.8473   -1.4662 H   0  0  0  0  0  0  0  0  0  0  0  0
    0.5582    2.3661   -0.1586 H   0  0  0  0  0  0  0  0  0  0  0  0
    1.2290    1.6930    1.4148 H   0  0  0  0  0  0  0  0  0  0  0  0
   -0.9529    0.8322    1.5907 H   0  0  0  0  0  0  0  0  0  0  0  0
   -0.9809    1.1504   -1.4890 H   0  0  0  0  0  0  0  0  0  0  0  0
   -2.2856    1.5758   -0.2576 H   0  0  0  0  0  0  0  0  0  0  0  0
   -1.9366   -1.0532   -1.4096 H   0  0  0  0  0  0  0  0  0  0  0  0
   -2.6552   -0.6930    0.2052 H   0  0  0  0  0  0  0  0  0  0  0  0
    0.6185   -1.7060    1.8731 H   0  0  0  0  0  0  0  0  0  0  0  0
   -0.3573   -2.8759    0.7496 H   0  0  0  0  0  0  0  0  0  0  0  0
    0.7056   -1.9048   -1.2778 H   0  0  0  0  0  0  0  0  0  0  0  0
  1  2  1  0
  2  3  1  0
  3  4  1  0
  4  5  1  0
  5  6  1  0
  6  7  1  0
  7  8  1  0
  8  9  1  0
  9  1  1  0
  6  3  1  0
  8  6  1  0
  1 10  1  0
  1 11  1  0
  2 12  1  0
  2 13  1  0
  3 14  1  0
  4 15  1  0
  4 16  1  0
  5 17  1  0
  5 18  1  0
  7 19  1  0
  7 20  1  0
  8 21  1  0
M  END
