
     RDKit          3D

 19 20  0  0  0  0  0  0  0  0999 V2000
   -1.8507   -1.0620    0.1431 C   0  0  0  0  0  0  0  0  0  0  0  0
   -0.4827   -1.1334   -0.5181 C   0  0  0  0  0  0  0  0  0  0  0  0
    0.2710    0.0954   -0.0828 C   0  0  0  0  0  0  0  0  0  0  0  0
    1.6048    0.2508   -0.7165 C   0  0  0  0  0  0  0  0  0  0  0  0
    2.7689    0.4077    0.2356 C   0  0  0  0  0  0  0  0  0  0  0  0
    2.5925   -0.6919   -0.5977 O   0  0  0  0  0  0  0  0  0  0  0  0
   -0.4994    1.2202   -0.3919 O   0  0  0  0  0  0  0  0  0  0  0  0
   -1.5853    1.2082    0.4677 C   0  0  0  0  0  0  0  0  0  0  0  0
   -1.8232   -0.0126    1.0555 O   0  0  0  0  0  0  0  0  0  0  0  0
   -2.0803   -1.9869    0.7119 H   0  0  0  0  0  0  0  0  0  0  0  0
   -2.6613   -0.8842   -0.5885 H   0  0  0  0  0  0  0  0  0  0  0  0
    0.0321   -2.0249   -0.0758 H   0  0  0  0  0  0  0  0  0  0  0  0
   -0.6158   -1.2217   -1.5946 H   0  0  0  0  0  0  0  0  0  0  0  0
    0.3498    0.0559    1.0203 H   0  0  0  0  0  0  0  0  0  0  0  0
    1.6670    0.9045   -1.6169 H   0  0  0  0  0  0  0  0  0  0  0  0
    2.5908    0.2294    1.3297 H   0  0  0  0  0  0  0  0  0  0  0  0
    3.5443    1.1557    0.0172 H   0  0  0  0  0  0  0  0  0  0  0  0
   -2.4792    1.5635   -0.1041 H   0  0  0  0  0  0  0  0  0  0  0  0
   -1.3432    1.9264    1.3058 H   0  0  0  0  0  0  0  0  0  0  0  0
  1  2  1  0
  2  3  1  0
  3  4  1  0
  4  5  1  0
  5  6  1  0
  3  7  1  0
  7  8  1  0
  8  9  1  0
  9  1  1  0
  6  4  1  0
  1 10  1  0
  1 11  1  0
  2 12  1  0
  2 13  1  0
  3 14  1  0
  4 15  1  0
  5 16  1  0
  5 17  1  0
  8 18  1  0
  8 19  1  0
M  END
