
     RDKit          3D

 20 21  0  0  0  0  0  0  0  0999 V2000
   -1.9985    0.1019   -0.1309 C   0  0  0  0  0  0  0  0  0  0  0  0
   -1.2745   -1.1241   -0.5435 C   0  0  0  0  0  0  0  0  0  0  0  0
    0.1897   -1.1275   -0.3332 C   0  0  0  0  0  0  0  0  0  0  0  0
    0.7651    0.0724    0.3096 C   0  0  0  0  0  0  0  0  0  0  0  0
    2.1968   -0.1174    0.8249 C   0  0  0  0  0  0  0  0  0  0  0  0
    1.8306    0.8976   -0.2330 C   0  0  0  0  0  0  0  0  0  0  0  0
   -0.1539    0.6780    1.1803 O   0  0  0  0  0  0  0  0  0  0  0  0
   -1.1348    1.2308    0.3234 C   0  0  0  0  0  0  0  0  0  0  0  0
   -2.7372   -0.0963    0.7014 H   0  0  0  0  0  0  0  0  0  0  0  0
   -2.6415    0.4883   -0.9684 H   0  0  0  0  0  0  0  0  0  0  0  0
   -1.4612   -1.3103   -1.6425 H   0  0  0  0  0  0  0  0  0  0  0  0
   -1.7866   -1.9996   -0.0437 H   0  0  0  0  0  0  0  0  0  0  0  0
    0.7641   -1.3367   -1.2835 H   0  0  0  0  0  0  0  0  0  0  0  0
    0.4381   -2.0170    0.3194 H   0  0  0  0  0  0  0  0  0  0  0  0
    2.4441    0.1994    1.8388 H   0  0  0  0  0  0  0  0  0  0  0  0
    2.7758   -0.9723    0.4220 H   0  0  0  0  0  0  0  0  0  0  0  0
    2.2534    0.8157   -1.2423 H   0  0  0  0  0  0  0  0  0  0  0  0
    1.8996    1.9537    0.1616 H   0  0  0  0  0  0  0  0  0  0  0  0
   -1.7290    1.9629    0.9022 H   0  0  0  0  0  0  0  0  0  0  0  0
   -0.6402    1.7005   -0.5628 H   0  0  0  0  0  0  0  0  0  0  0  0
  1  2  1  0
  2  3  1  0
  3  4  1  0
  4  5  1  0
  5  6  1  0
  4  7  1  0
  7  8  1  0
  8  1  1  0
  6  4  1  0
  1  9  1  0
  1 10  1  0
  2 11  1  0
  2 12  1  0
  3 13  1  0
  3 14  1  0
  5 15  1  0
  5 16  1  0
  6 17  1  0
  6 18  1  0
  8 19  1  0
  8 20  1  0
M  END
