
     RDKit          3D

 19 21  0  0  0  0  0  0  0  0999 V2000
    1.8521    0.3774   -0.2128 C   0  0  0  0  0  0  0  0  0  0  0  0
    1.2503   -0.8934    0.2894 C   0  0  0  0  0  0  0  0  0  0  0  0
   -0.1649   -0.6352    0.6268 C   0  0  0  0  0  0  0  0  0  0  0  0
   -1.3065   -1.4610    0.3726 C   0  0  0  0  0  0  0  0  0  0  0  0
   -1.0552   -0.4385   -0.6229 C   0  0  0  0  0  0  0  0  0  0  0  0
   -1.3920    1.0030   -0.5044 C   0  0  0  0  0  0  0  0  0  0  0  0
   -0.1482    1.4805    0.2691 C   0  0  0  0  0  0  0  0  0  0  0  0
    0.9833    1.3931   -0.4677 O   0  0  0  0  0  0  0  0  0  0  0  0
   -0.2192    0.5611    1.3265 O   0  0  0  0  0  0  0  0  0  0  0  0
    2.6468    0.7541    0.4641 H   0  0  0  0  0  0  0  0  0  0  0  0
    2.3892    0.1424   -1.1792 H   0  0  0  0  0  0  0  0  0  0  0  0
    1.4074   -1.7403   -0.4106 H   0  0  0  0  0  0  0  0  0  0  0  0
    1.7874   -1.1808    1.2254 H   0  0  0  0  0  0  0  0  0  0  0  0
   -2.2052   -1.3183    1.0393 H   0  0  0  0  0  0  0  0  0  0  0  0
   -1.1773   -2.5069    0.0816 H   0  0  0  0  0  0  0  0  0  0  0  0
   -0.6474   -0.7434   -1.6022 H   0  0  0  0  0  0  0  0  0  0  0  0
   -1.4119    1.5049   -1.4922 H   0  0  0  0  0  0  0  0  0  0  0  0
   -2.2824    1.2185    0.0919 H   0  0  0  0  0  0  0  0  0  0  0  0
   -0.3062    2.4827    0.7052 H   0  0  0  0  0  0  0  0  0  0  0  0
  1  2  1  0
  2  3  1  0
  3  4  1  0
  4  5  1  0
  5  6  1  0
  6  7  1  0
  7  8  1  0
  7  9  1  0
  8  1  1  0
  5  3  1  0
  9  3  1  0
  1 10  1  0
  1 11  1  0
  2 12  1  0
  2 13  1  0
  4 14  1  0
  4 15  1  0
  5 16  1  0
  6 17  1  0
  6 18  1  0
  7 19  1  0
M  END
