
     RDKit          3D

 20 22  0  0  0  0  0  0  0  0999 V2000
   -1.4626    0.7985   -0.3050 C   0  0  0  0  0  0  0  0  0  0  0  0
   -1.4329   -0.7029   -0.5865 C   0  0  0  0  0  0  0  0  0  0  0  0
   -0.1631   -1.1650    0.1338 C   0  0  0  0  0  0  0  0  0  0  0  0
   -0.1862   -0.2247    1.3184 C   0  0  0  0  0  0  0  0  0  0  0  0
   -0.1757    1.0703    0.4900 C   0  0  0  0  0  0  0  0  0  0  0  0
    1.0245    0.8740   -0.3583 C   0  0  0  0  0  0  0  0  0  0  0  0
    2.1421   -0.0088   -0.0194 C   0  0  0  0  0  0  0  0  0  0  0  0
    0.9954   -0.6477   -0.6637 C   0  0  0  0  0  0  0  0  0  0  0  0
   -1.5166    1.3957   -1.2114 H   0  0  0  0  0  0  0  0  0  0  0  0
   -2.2904    0.9934    0.4200 H   0  0  0  0  0  0  0  0  0  0  0  0
   -1.3139   -0.8871   -1.6690 H   0  0  0  0  0  0  0  0  0  0  0  0
   -2.3237   -1.2157   -0.1912 H   0  0  0  0  0  0  0  0  0  0  0  0
   -0.1496   -2.2089    0.3741 H   0  0  0  0  0  0  0  0  0  0  0  0
    0.6447   -0.3099    1.9922 H   0  0  0  0  0  0  0  0  0  0  0  0
   -1.1393   -0.2254    1.8570 H   0  0  0  0  0  0  0  0  0  0  0  0
   -0.2232    1.9613    1.0902 H   0  0  0  0  0  0  0  0  0  0  0  0
    1.1115    1.5513   -1.2440 H   0  0  0  0  0  0  0  0  0  0  0  0
    3.0554    0.1139   -0.6740 H   0  0  0  0  0  0  0  0  0  0  0  0
    2.4270   -0.2861    1.0062 H   0  0  0  0  0  0  0  0  0  0  0  0
    0.9763   -0.8761   -1.7593 H   0  0  0  0  0  0  0  0  0  0  0  0
  1  2  1  0
  2  3  1  0
  3  4  1  0
  4  5  1  0
  5  6  1  0
  6  7  1  0
  7  8  1  0
  5  1  1  0
  8  6  1  0
  8  3  1  0
  1  9  1  0
  1 10  1  0
  2 11  1  0
  2 12  1  0
  3 13  1  0
  4 14  1  0
  4 15  1  0
  5 16  1  0
  6 17  1  0
  7 18  1  0
  7 19  1  0
  8 20  1  0
M  END
