
     RDKit          3D

 21 23  0  0  0  0  0  0  0  0999 V2000
   -0.9256   -1.3718   -0.4969 C   0  0  0  0  0  0  0  0  0  0  0  0
    0.4711   -1.3928    0.0195 C   0  0  0  0  0  0  0  0  0  0  0  0
    1.3741   -0.3421   -0.4605 C   0  0  0  0  0  0  0  0  0  0  0  0
    1.8532    0.6285    0.6426 C   0  0  0  0  0  0  0  0  0  0  0  0
    0.9606    1.0348   -0.4756 C   0  0  0  0  0  0  0  0  0  0  0  0
   -0.4672    1.3667   -0.2864 C   0  0  0  0  0  0  0  0  0  0  0  0
   -1.1619    0.7414    0.8472 C   0  0  0  0  0  0  0  0  0  0  0  0
   -1.6867   -0.1277   -0.2543 C   0  0  0  0  0  0  0  0  0  0  0  0
   -1.3263    0.8252   -1.2270 O   0  0  0  0  0  0  0  0  0  0  0  0
   -0.9854   -1.6351   -1.5788 H   0  0  0  0  0  0  0  0  0  0  0  0
   -1.4759   -2.2111    0.0230 H   0  0  0  0  0  0  0  0  0  0  0  0
    0.4324   -1.4693    1.1468 H   0  0  0  0  0  0  0  0  0  0  0  0
    0.8938   -2.4012   -0.2776 H   0  0  0  0  0  0  0  0  0  0  0  0
    2.2260   -0.6496   -1.1383 H   0  0  0  0  0  0  0  0  0  0  0  0
    1.3968    0.5433    1.6373 H   0  0  0  0  0  0  0  0  0  0  0  0
    2.9010    0.9325    0.6526 H   0  0  0  0  0  0  0  0  0  0  0  0
    1.4726    1.7115   -1.2260 H   0  0  0  0  0  0  0  0  0  0  0  0
   -0.6097    2.4862   -0.2823 H   0  0  0  0  0  0  0  0  0  0  0  0
   -1.9596    1.3977    1.2941 H   0  0  0  0  0  0  0  0  0  0  0  0
   -0.6151    0.2142    1.6148 H   0  0  0  0  0  0  0  0  0  0  0  0
   -2.7682   -0.2813   -0.1740 H   0  0  0  0  0  0  0  0  0  0  0  0
  1  2  1  0
  2  3  1  0
  3  4  1  0
  4  5  1  0
  5  6  1  0
  6  7  1  0
  7  8  1  0
  8  9  1  0
  8  1  1  0
  5  3  1  0
  9  6  1  0
  1 10  1  0
  1 11  1  0
  2 12  1  0
  2 13  1  0
  3 14  1  0
  4 15  1  0
  4 16  1  0
  5 17  1  0
  6 18  1  0
  7 19  1  0
  7 20  1  0
  8 21  1  0
M  END
