
     RDKit          3D

 15 16  0  0  0  0  0  0  0  0999 V2000
    2.3925   -0.2607   -0.6798 C   0  0  0  0  0  0  0  0  0  0  0  0
    1.9381    0.0664    0.5847 C   0  0  0  0  0  0  0  0  0  0  0  0
    0.5663   -0.0152    0.5760 C   0  0  0  0  0  0  0  0  0  0  0  0
    0.2305   -0.3932   -0.7078 C   0  0  0  0  0  0  0  0  0  0  0  0
    1.3241   -0.5219   -1.3941 O   0  0  0  0  0  0  0  0  0  0  0  0
   -1.2358   -0.5459   -0.9514 C   0  0  0  0  0  0  0  0  0  0  0  0
   -1.9578    0.4533   -0.3634 O   0  0  0  0  0  0  0  0  0  0  0  0
   -1.6819    0.7223    0.9411 C   0  0  0  0  0  0  0  0  0  0  0  0
   -0.4838    0.1666    1.4443 O   0  0  0  0  0  0  0  0  0  0  0  0
    3.4235   -0.2904   -0.9991 H   0  0  0  0  0  0  0  0  0  0  0  0
    2.5101    0.3442    1.4616 H   0  0  0  0  0  0  0  0  0  0  0  0
   -1.5282   -1.5233   -0.5101 H   0  0  0  0  0  0  0  0  0  0  0  0
   -1.3923   -0.5130   -2.0419 H   0  0  0  0  0  0  0  0  0  0  0  0
   -2.5463    0.4709    1.5880 H   0  0  0  0  0  0  0  0  0  0  0  0
   -1.5592    1.8401    1.0519 H   0  0  0  0  0  0  0  0  0  0  0  0
  1  2  2  0
  2  3  1  0
  3  4  2  0
  4  5  1  0
  4  6  1  0
  6  7  1  0
  7  8  1  0
  8  9  1  0
  5  1  1  0
  9  3  1  0
  1 10  1  0
  2 11  1  0
  6 12  1  0
  6 13  1  0
  8 14  1  0
  8 15  1  0
M  END
