
     RDKit          3D

 19 21  0  0  0  0  0  0  0  0999 V2000
   -2.4457   -0.2948   -0.9327 C   0  0  0  0  0  0  0  0  0  0  0  0
   -2.7300    0.3917    0.3519 C   0  0  0  0  0  0  0  0  0  0  0  0
   -1.5432   -0.4770    0.2014 C   0  0  0  0  0  0  0  0  0  0  0  0
   -0.1954    0.2032    0.2623 C   0  0  0  0  0  0  0  0  0  0  0  0
    0.5618   -0.1109    1.4903 O   0  0  0  0  0  0  0  0  0  0  0  0
    0.9781   -0.6747    0.3080 C   0  0  0  0  0  0  0  0  0  0  0  0
    2.2192   -0.2145   -0.3796 C   0  0  0  0  0  0  0  0  0  0  0  0
    3.0403    0.8501    0.0360 C   0  0  0  0  0  0  0  0  0  0  0  0
    3.3777   -0.4184    0.5322 O   0  0  0  0  0  0  0  0  0  0  0  0
   -3.0850   -1.1557   -1.2692 H   0  0  0  0  0  0  0  0  0  0  0  0
   -2.0873    0.3025   -1.8115 H   0  0  0  0  0  0  0  0  0  0  0  0
   -2.6036    1.4787    0.3704 H   0  0  0  0  0  0  0  0  0  0  0  0
   -3.5508    0.0001    0.9847 H   0  0  0  0  0  0  0  0  0  0  0  0
   -1.5605   -1.4699    0.6991 H   0  0  0  0  0  0  0  0  0  0  0  0
   -0.0918    1.2682    0.0611 H   0  0  0  0  0  0  0  0  0  0  0  0
    0.8092   -1.7833    0.2543 H   0  0  0  0  0  0  0  0  0  0  0  0
    2.4475   -0.7717   -1.3188 H   0  0  0  0  0  0  0  0  0  0  0  0
    2.6471    1.6071    0.7727 H   0  0  0  0  0  0  0  0  0  0  0  0
    3.8125    1.2695   -0.6126 H   0  0  0  0  0  0  0  0  0  0  0  0
  1  2  1  0
  2  3  1  0
  3  4  1  0
  4  5  1  0
  5  6  1  0
  6  7  1  0
  7  8  1  0
  8  9  1  0
  3  1  1  0
  6  4  1  0
  9  7  1  0
  1 10  1  0
  1 11  1  0
  2 12  1  0
  2 13  1  0
  3 14  1  0
  4 15  1  0
  6 16  1  0
  7 17  1  0
  8 18  1  0
  8 19  1  0
M  END
