
     RDKit          3D

 23 24  0  0  0  0  0  0  0  0999 V2000
    2.6688   -0.4550    0.6420 C   0  0  0  0  0  0  0  0  0  0  0  0
    1.3832   -0.9970    0.0087 C   0  0  0  0  0  0  0  0  0  0  0  0
    1.0507    0.4047   -0.3859 C   0  0  0  0  0  0  0  0  0  0  0  0
   -0.3590    0.8625   -0.1068 C   0  0  0  0  0  0  0  0  0  0  0  0
   -1.3854    0.0296   -0.8170 C   0  0  0  0  0  0  0  0  0  0  0  0
   -2.7804    0.5524   -0.4864 C   0  0  0  0  0  0  0  0  0  0  0  0
   -3.2053   -0.7297   -0.1291 O   0  0  0  0  0  0  0  0  0  0  0  0
   -1.8768   -1.1261    0.0220 C   0  0  0  0  0  0  0  0  0  0  0  0
    1.9624    0.8805    0.7523 C   0  0  0  0  0  0  0  0  0  0  0  0
    2.9620   -0.9292    1.5773 H   0  0  0  0  0  0  0  0  0  0  0  0
    3.5010   -0.3735   -0.0748 H   0  0  0  0  0  0  0  0  0  0  0  0
    1.6769   -1.6565   -0.8469 H   0  0  0  0  0  0  0  0  0  0  0  0
    0.7200   -1.5097    0.7023 H   0  0  0  0  0  0  0  0  0  0  0  0
    1.4201    0.6713   -1.3787 H   0  0  0  0  0  0  0  0  0  0  0  0
   -0.4558    1.8996   -0.4802 H   0  0  0  0  0  0  0  0  0  0  0  0
   -0.5915    0.8710    0.9700 H   0  0  0  0  0  0  0  0  0  0  0  0
   -1.2358   -0.1610   -1.8784 H   0  0  0  0  0  0  0  0  0  0  0  0
   -2.8174    1.2195    0.4041 H   0  0  0  0  0  0  0  0  0  0  0  0
   -3.3033    0.9968   -1.3581 H   0  0  0  0  0  0  0  0  0  0  0  0
   -1.6911   -2.1273   -0.3619 H   0  0  0  0  0  0  0  0  0  0  0  0
   -1.5972   -1.0221    1.0932 H   0  0  0  0  0  0  0  0  0  0  0  0
    1.4262    0.9423    1.7058 H   0  0  0  0  0  0  0  0  0  0  0  0
    2.5276    1.7568    0.4264 H   0  0  0  0  0  0  0  0  0  0  0  0
  1  2  1  0
  2  3  1  0
  3  4  1  0
  4  5  1  0
  5  6  1  0
  6  7  1  0
  7  8  1  0
  3  9  1  0
  9  1  1  0
  8  5  1  0
  1 10  1  0
  1 11  1  0
  2 12  1  0
  2 13  1  0
  3 14  1  0
  4 15  1  0
  4 16  1  0
  5 17  1  0
  6 18  1  0
  6 19  1  0
  8 20  1  0
  8 21  1  0
  9 22  1  0
  9 23  1  0
M  END
