
     RDKit          3D

 21 23  0  0  0  0  0  0  0  0999 V2000
   -0.3773    1.7365    0.0327 C   0  0  0  0  0  0  0  0  0  0  0  0
   -1.5723    0.7805   -0.0763 C   0  0  0  0  0  0  0  0  0  0  0  0
   -1.0215   -0.5218   -0.5814 C   0  0  0  0  0  0  0  0  0  0  0  0
   -1.1469   -1.7950    0.1324 C   0  0  0  0  0  0  0  0  0  0  0  0
    0.0110   -1.0304    0.4459 C   0  0  0  0  0  0  0  0  0  0  0  0
    1.3806   -1.1526   -0.1241 C   0  0  0  0  0  0  0  0  0  0  0  0
    1.6938    0.3446   -0.2864 C   0  0  0  0  0  0  0  0  0  0  0  0
    0.7445    0.9715    0.7022 C   0  0  0  0  0  0  0  0  0  0  0  0
    0.1767   -0.0935    1.4343 O   0  0  0  0  0  0  0  0  0  0  0  0
   -0.6874    2.5519    0.6996 H   0  0  0  0  0  0  0  0  0  0  0  0
   -0.1007    2.0690   -0.9873 H   0  0  0  0  0  0  0  0  0  0  0  0
   -2.3686    1.1849   -0.6861 H   0  0  0  0  0  0  0  0  0  0  0  0
   -1.9001    0.6042    0.9876 H   0  0  0  0  0  0  0  0  0  0  0  0
   -0.7132   -0.4720   -1.6517 H   0  0  0  0  0  0  0  0  0  0  0  0
   -1.0228   -2.7106   -0.4866 H   0  0  0  0  0  0  0  0  0  0  0  0
   -1.9540   -1.9055    0.8796 H   0  0  0  0  0  0  0  0  0  0  0  0
    1.3774   -1.6751   -1.0824 H   0  0  0  0  0  0  0  0  0  0  0  0
    2.0493   -1.6130    0.6354 H   0  0  0  0  0  0  0  0  0  0  0  0
    1.3953    0.5851   -1.3460 H   0  0  0  0  0  0  0  0  0  0  0  0
    2.7459    0.5281   -0.0822 H   0  0  0  0  0  0  0  0  0  0  0  0
    1.2902    1.6130    1.4409 H   0  0  0  0  0  0  0  0  0  0  0  0
  1  2  1  0
  2  3  1  0
  3  4  1  0
  4  5  1  0
  5  6  1  0
  6  7  1  0
  7  8  1  0
  8  9  1  0
  8  1  1  0
  5  3  1  0
  9  5  1  0
  1 10  1  0
  1 11  1  0
  2 12  1  0
  2 13  1  0
  3 14  1  0
  4 15  1  0
  4 16  1  0
  6 17  1  0
  6 18  1  0
  7 19  1  0
  7 20  1  0
  8 21  1  0
M  END
