
     RDKit          3D

 20 21  0  0  0  0  0  0  0  0999 V2000
   -1.7779    0.3394    0.0868 C   0  0  0  0  0  0  0  0  0  0  0  0
   -0.6790    1.4087    0.0290 C   0  0  0  0  0  0  0  0  0  0  0  0
    0.4773    0.8761    0.8199 C   0  0  0  0  0  0  0  0  0  0  0  0
    1.6484    0.4671   -0.0761 C   0  0  0  0  0  0  0  0  0  0  0  0
    1.3567   -1.0046   -0.3805 C   0  0  0  0  0  0  0  0  0  0  0  0
    0.0532   -1.2348    0.3758 C   0  0  0  0  0  0  0  0  0  0  0  0
   -1.0979   -0.8923   -0.5321 C   0  0  0  0  0  0  0  0  0  0  0  0
    0.1935   -0.3504    1.4364 O   0  0  0  0  0  0  0  0  0  0  0  0
   -1.9557    0.0568    1.1523 H   0  0  0  0  0  0  0  0  0  0  0  0
   -2.6730    0.6291   -0.4558 H   0  0  0  0  0  0  0  0  0  0  0  0
   -1.0479    2.3846    0.3551 H   0  0  0  0  0  0  0  0  0  0  0  0
   -0.3557    1.4173   -1.0484 H   0  0  0  0  0  0  0  0  0  0  0  0
    0.8566    1.6098    1.5706 H   0  0  0  0  0  0  0  0  0  0  0  0
    2.6014    0.5388    0.4743 H   0  0  0  0  0  0  0  0  0  0  0  0
    1.6649    1.0865   -0.9729 H   0  0  0  0  0  0  0  0  0  0  0  0
    2.1045   -1.6647    0.0688 H   0  0  0  0  0  0  0  0  0  0  0  0
    1.1995   -1.1826   -1.4488 H   0  0  0  0  0  0  0  0  0  0  0  0
   -0.0390   -2.2600    0.7563 H   0  0  0  0  0  0  0  0  0  0  0  0
   -0.7184   -0.5223   -1.5285 H   0  0  0  0  0  0  0  0  0  0  0  0
   -1.8116   -1.7025   -0.6822 H   0  0  0  0  0  0  0  0  0  0  0  0
  1  2  1  0
  2  3  1  0
  3  4  1  0
  4  5  1  0
  5  6  1  0
  6  7  1  0
  6  8  1  0
  7  1  1  0
  8  3  1  0
  1  9  1  0
  1 10  1  0
  2 11  1  0
  2 12  1  0
  3 13  1  0
  4 14  1  0
  4 15  1  0
  5 16  1  0
  5 17  1  0
  6 18  1  0
  7 19  1  0
  7 20  1  0
M  END
