
     RDKit          3D

 21 23  0  0  0  0  0  0  0  0999 V2000
   -1.6603    0.9486   -0.6842 C   0  0  0  0  0  0  0  0  0  0  0  0
   -2.6090   -0.1754   -0.4497 C   0  0  0  0  0  0  0  0  0  0  0  0
   -1.1394   -0.3989   -0.8531 C   0  0  0  0  0  0  0  0  0  0  0  0
   -0.2837   -1.1460    0.0905 C   0  0  0  0  0  0  0  0  0  0  0  0
    1.0333   -0.6268    0.4447 C   0  0  0  0  0  0  0  0  0  0  0  0
    1.1636    0.7316    1.1043 C   0  0  0  0  0  0  0  0  0  0  0  0
    2.6147    0.5110    0.6489 C   0  0  0  0  0  0  0  0  0  0  0  0
    3.0634    0.5036   -0.5889 O   0  0  0  0  0  0  0  0  0  0  0  0
    1.8110    0.1065   -0.6331 C   0  0  0  0  0  0  0  0  0  0  0  0
   -1.9032    1.5279   -1.6267 H   0  0  0  0  0  0  0  0  0  0  0  0
   -1.5145    1.6236    0.1638 H   0  0  0  0  0  0  0  0  0  0  0  0
   -3.3565   -0.4517   -1.2026 H   0  0  0  0  0  0  0  0  0  0  0  0
   -2.8751   -0.3987    0.6018 H   0  0  0  0  0  0  0  0  0  0  0  0
   -0.9970   -0.7476   -1.9233 H   0  0  0  0  0  0  0  0  0  0  0  0
   -0.8588   -1.3060    1.0599 H   0  0  0  0  0  0  0  0  0  0  0  0
   -0.1565   -2.1988   -0.2826 H   0  0  0  0  0  0  0  0  0  0  0  0
    1.6628   -1.3857    0.9593 H   0  0  0  0  0  0  0  0  0  0  0  0
    1.0949    0.7414    2.2010 H   0  0  0  0  0  0  0  0  0  0  0  0
    0.7780    1.5887    0.5635 H   0  0  0  0  0  0  0  0  0  0  0  0
    3.0045   -0.3743    1.2461 H   0  0  0  0  0  0  0  0  0  0  0  0
    1.1276    0.9270   -1.0283 H   0  0  0  0  0  0  0  0  0  0  0  0
  1  2  1  0
  2  3  1  0
  3  4  1  0
  4  5  1  0
  5  6  1  0
  6  7  1  0
  7  8  1  0
  8  9  1  0
  3  1  1  0
  9  5  1  0
  9  7  1  0
  1 10  1  0
  1 11  1  0
  2 12  1  0
  2 13  1  0
  3 14  1  0
  4 15  1  0
  4 16  1  0
  5 17  1  0
  6 18  1  0
  6 19  1  0
  7 20  1  0
  9 21  1  0
M  END
