
     RDKit          3D

 19 22  0  0  0  0  0  0  0  0999 V2000
   -1.7638   -0.4949    0.7467 C   0  0  0  0  0  0  0  0  0  0  0  0
   -0.6642   -1.3540    0.2167 C   0  0  0  0  0  0  0  0  0  0  0  0
    0.0915   -0.5611   -0.8258 C   0  0  0  0  0  0  0  0  0  0  0  0
   -0.7008    0.7198   -0.9261 C   0  0  0  0  0  0  0  0  0  0  0  0
   -1.2903    0.9093    0.3694 C   0  0  0  0  0  0  0  0  0  0  0  0
    0.1515    1.2035    0.2958 C   0  0  0  0  0  0  0  0  0  0  0  0
    1.1663    0.2466   -0.2099 C   0  0  0  0  0  0  0  0  0  0  0  0
    2.4105   -0.0529    0.2378 C   0  0  0  0  0  0  0  0  0  0  0  0
    2.1879    0.6725   -1.0438 O   0  0  0  0  0  0  0  0  0  0  0  0
   -1.9706   -0.5963    1.8073 H   0  0  0  0  0  0  0  0  0  0  0  0
   -2.6706   -0.6825    0.1010 H   0  0  0  0  0  0  0  0  0  0  0  0
   -1.0253   -2.3256   -0.1890 H   0  0  0  0  0  0  0  0  0  0  0  0
    0.0072   -1.6228    1.0807 H   0  0  0  0  0  0  0  0  0  0  0  0
    0.2989   -1.0825   -1.7652 H   0  0  0  0  0  0  0  0  0  0  0  0
   -0.6262    1.3886   -1.7588 H   0  0  0  0  0  0  0  0  0  0  0  0
   -1.9674    1.7371    0.5793 H   0  0  0  0  0  0  0  0  0  0  0  0
    0.4485    2.2552    0.3061 H   0  0  0  0  0  0  0  0  0  0  0  0
    2.9735   -0.9586   -0.0004 H   0  0  0  0  0  0  0  0  0  0  0  0
    2.9433    0.5988    0.9785 H   0  0  0  0  0  0  0  0  0  0  0  0
  1  2  1  0
  2  3  1  0
  3  4  1  0
  4  5  1  0
  5  6  1  0
  6  7  1  0
  7  8  1  0
  8  9  1  0
  5  1  1  0
  9  7  1  0
  7  3  1  0
  6  4  1  0
  1 10  1  0
  1 11  1  0
  2 12  1  0
  2 13  1  0
  3 14  1  0
  4 15  1  0
  5 16  1  0
  6 17  1  0
  8 18  1  0
  8 19  1  0
M  END
