
     RDKit          3D

 21 23  0  0  0  0  0  0  0  0999 V2000
    1.6883   -0.0999    0.0344 C   0  0  0  0  0  0  0  0  0  0  0  0
    0.9159    1.0804   -0.3553 C   0  0  0  0  0  0  0  0  0  0  0  0
   -0.4930    1.1789    0.0980 C   0  0  0  0  0  0  0  0  0  0  0  0
   -1.4851    0.5130   -0.8487 C   0  0  0  0  0  0  0  0  0  0  0  0
   -1.2844   -0.9326   -0.7416 C   0  0  0  0  0  0  0  0  0  0  0  0
   -1.5910   -1.7535    0.2721 O   0  0  0  0  0  0  0  0  0  0  0  0
   -0.4912   -1.0671    0.5533 C   0  0  0  0  0  0  0  0  0  0  0  0
    0.9179   -1.3641    0.3135 C   0  0  0  0  0  0  0  0  0  0  0  0
   -0.6571    0.2366    1.2986 C   0  0  0  0  0  0  0  0  0  0  0  0
    2.3387    0.0684    0.9309 H   0  0  0  0  0  0  0  0  0  0  0  0
    2.4241   -0.3218   -0.7954 H   0  0  0  0  0  0  0  0  0  0  0  0
    0.8994    1.2469   -1.4744 H   0  0  0  0  0  0  0  0  0  0  0  0
    1.4544    2.0001    0.0264 H   0  0  0  0  0  0  0  0  0  0  0  0
   -0.7953    2.2021    0.3598 H   0  0  0  0  0  0  0  0  0  0  0  0
   -2.4960    0.8245   -0.4860 H   0  0  0  0  0  0  0  0  0  0  0  0
   -1.3650    0.8535   -1.8885 H   0  0  0  0  0  0  0  0  0  0  0  0
   -0.8925   -1.4586   -1.6623 H   0  0  0  0  0  0  0  0  0  0  0  0
    1.3328   -1.9323    1.1905 H   0  0  0  0  0  0  0  0  0  0  0  0
    1.0202   -2.0707   -0.5492 H   0  0  0  0  0  0  0  0  0  0  0  0
   -1.6375    0.3484    1.7693 H   0  0  0  0  0  0  0  0  0  0  0  0
    0.1963    0.4480    1.9548 H   0  0  0  0  0  0  0  0  0  0  0  0
  1  2  1  0
  2  3  1  0
  3  4  1  0
  4  5  1  0
  5  6  1  0
  6  7  1  0
  7  8  1  0
  7  9  1  0
  8  1  1  0
  9  3  1  0
  7  5  1  0
  1 10  1  0
  1 11  1  0
  2 12  1  0
  2 13  1  0
  3 14  1  0
  4 15  1  0
  4 16  1  0
  5 17  1  0
  8 18  1  0
  8 19  1  0
  9 20  1  0
  9 21  1  0
M  END
