
     RDKit          3D

 20 22  0  0  0  0  0  0  0  0999 V2000
    1.7218    0.2438    0.7188 C   0  0  0  0  0  0  0  0  0  0  0  0
    1.8710   -0.1569   -0.7538 C   0  0  0  0  0  0  0  0  0  0  0  0
    0.6336   -0.3042   -0.0483 C   0  0  0  0  0  0  0  0  0  0  0  0
    0.0342   -1.6665    0.1135 C   0  0  0  0  0  0  0  0  0  0  0  0
   -1.2903   -1.0628   -0.3877 C   0  0  0  0  0  0  0  0  0  0  0  0
   -0.6701    0.2661   -0.2589 C   0  0  0  0  0  0  0  0  0  0  0  0
   -1.1477    1.5446   -0.6037 C   0  0  0  0  0  0  0  0  0  0  0  0
   -1.2259    1.1509    0.8559 C   0  0  0  0  0  0  0  0  0  0  0  0
    2.2189   -0.3482    1.4859 H   0  0  0  0  0  0  0  0  0  0  0  0
    1.7406    1.3645    0.8509 H   0  0  0  0  0  0  0  0  0  0  0  0
    2.5132   -1.0792   -0.8765 H   0  0  0  0  0  0  0  0  0  0  0  0
    2.1291    0.6153   -1.4886 H   0  0  0  0  0  0  0  0  0  0  0  0
   -0.0026   -1.9403    1.1886 H   0  0  0  0  0  0  0  0  0  0  0  0
    0.4175   -2.4601   -0.5605 H   0  0  0  0  0  0  0  0  0  0  0  0
   -1.4985   -1.3431   -1.4567 H   0  0  0  0  0  0  0  0  0  0  0  0
   -2.1077   -1.2915    0.3129 H   0  0  0  0  0  0  0  0  0  0  0  0
   -0.4684    2.3694   -0.8479 H   0  0  0  0  0  0  0  0  0  0  0  0
   -2.1401    1.6479   -1.1227 H   0  0  0  0  0  0  0  0  0  0  0  0
   -0.5271    1.5856    1.5847 H   0  0  0  0  0  0  0  0  0  0  0  0
   -2.2013    0.8647    1.2944 H   0  0  0  0  0  0  0  0  0  0  0  0
  1  2  1  0
  2  3  1  0
  3  4  1  0
  4  5  1  0
  5  6  1  0
  6  7  1  0
  7  8  1  0
  3  1  1  0
  8  6  1  0
  6  3  1  0
  1  9  1  0
  1 10  1  0
  2 11  1  0
  2 12  1  0
  4 13  1  0
  4 14  1  0
  5 15  1  0
  5 16  1  0
  7 17  1  0
  7 18  1  0
  8 19  1  0
  8 20  1  0
M  END
