
     RDKit          3D

 21 23  0  0  0  0  0  0  0  0999 V2000
    1.7095    0.3810    0.3245 C   0  0  0  0  0  0  0  0  0  0  0  0
    1.2176   -1.0214    0.0809 C   0  0  0  0  0  0  0  0  0  0  0  0
   -0.2391   -1.1973    0.3587 C   0  0  0  0  0  0  0  0  0  0  0  0
   -0.9758   -0.9201   -0.9664 C   0  0  0  0  0  0  0  0  0  0  0  0
   -1.6631    0.3535   -0.5369 C   0  0  0  0  0  0  0  0  0  0  0  0
   -2.1833   -0.0624    0.7148 O   0  0  0  0  0  0  0  0  0  0  0  0
   -0.8319   -0.0399    1.1357 C   0  0  0  0  0  0  0  0  0  0  0  0
   -0.6798    1.1519    0.2493 C   0  0  0  0  0  0  0  0  0  0  0  0
    0.6860    1.3287   -0.3136 C   0  0  0  0  0  0  0  0  0  0  0  0
    2.6676    0.5402   -0.2037 H   0  0  0  0  0  0  0  0  0  0  0  0
    1.8679    0.5930    1.3813 H   0  0  0  0  0  0  0  0  0  0  0  0
    1.8512   -1.7514    0.6342 H   0  0  0  0  0  0  0  0  0  0  0  0
    1.4229   -1.2376   -1.0066 H   0  0  0  0  0  0  0  0  0  0  0  0
   -0.4890   -2.1738    0.7686 H   0  0  0  0  0  0  0  0  0  0  0  0
   -0.2907   -0.8039   -1.7993 H   0  0  0  0  0  0  0  0  0  0  0  0
   -1.7410   -1.6965   -1.0724 H   0  0  0  0  0  0  0  0  0  0  0  0
   -2.3415    0.8315   -1.2082 H   0  0  0  0  0  0  0  0  0  0  0  0
   -0.6446    0.0307    2.1799 H   0  0  0  0  0  0  0  0  0  0  0  0
   -1.1390    2.0433    0.6780 H   0  0  0  0  0  0  0  0  0  0  0  0
    1.0362    2.3557    0.0007 H   0  0  0  0  0  0  0  0  0  0  0  0
    0.7599    1.2948   -1.3994 H   0  0  0  0  0  0  0  0  0  0  0  0
  1  2  1  0
  2  3  1  0
  3  4  1  0
  4  5  1  0
  5  6  1  0
  6  7  1  0
  7  8  1  0
  8  9  1  0
  9  1  1  0
  7  3  1  0
  8  5  1  0
  1 10  1  0
  1 11  1  0
  2 12  1  0
  2 13  1  0
  3 14  1  0
  4 15  1  0
  4 16  1  0
  5 17  1  0
  7 18  1  0
  8 19  1  0
  9 20  1  0
  9 21  1  0
M  END
