
     RDKit          3D

 23 25  0  0  0  0  0  0  0  0999 V2000
   -2.5321   -0.0185   -0.1452 C   0  0  0  0  0  0  0  0  0  0  0  0
   -1.5681   -1.1838   -0.4070 C   0  0  0  0  0  0  0  0  0  0  0  0
   -0.4447   -0.2498   -0.0869 C   0  0  0  0  0  0  0  0  0  0  0  0
   -1.4228    0.5986    0.6967 C   0  0  0  0  0  0  0  0  0  0  0  0
    0.6459   -0.7676    0.7874 C   0  0  0  0  0  0  0  0  0  0  0  0
    1.6975    0.3432    0.6753 C   0  0  0  0  0  0  0  0  0  0  0  0
    2.6847    0.1313   -0.4061 C   0  0  0  0  0  0  0  0  0  0  0  0
    1.5018    0.9858   -0.6468 C   0  0  0  0  0  0  0  0  0  0  0  0
    0.2298    0.4178   -1.2361 C   0  0  0  0  0  0  0  0  0  0  0  0
   -3.4350   -0.3088    0.4038 H   0  0  0  0  0  0  0  0  0  0  0  0
   -2.7104    0.5791   -1.0702 H   0  0  0  0  0  0  0  0  0  0  0  0
   -1.7107   -2.0413    0.2712 H   0  0  0  0  0  0  0  0  0  0  0  0
   -1.5846   -1.5126   -1.4536 H   0  0  0  0  0  0  0  0  0  0  0  0
   -1.2861    1.6740    0.5898 H   0  0  0  0  0  0  0  0  0  0  0  0
   -1.5028    0.2060    1.7409 H   0  0  0  0  0  0  0  0  0  0  0  0
    1.0233   -1.7151    0.3398 H   0  0  0  0  0  0  0  0  0  0  0  0
    0.3467   -0.8802    1.8477 H   0  0  0  0  0  0  0  0  0  0  0  0
    1.8829    0.9850    1.5385 H   0  0  0  0  0  0  0  0  0  0  0  0
    2.7814   -0.8774   -0.8804 H   0  0  0  0  0  0  0  0  0  0  0  0
    3.6519    0.6477   -0.2934 H   0  0  0  0  0  0  0  0  0  0  0  0
    1.6339    2.0867   -0.7828 H   0  0  0  0  0  0  0  0  0  0  0  0
    0.4966   -0.3157   -2.0399 H   0  0  0  0  0  0  0  0  0  0  0  0
   -0.3789    1.2159   -1.7094 H   0  0  0  0  0  0  0  0  0  0  0  0
  1  2  1  0
  2  3  1  0
  3  4  1  0
  3  5  1  0
  5  6  1  0
  6  7  1  0
  7  8  1  0
  8  9  1  0
  4  1  1  0
  8  6  1  0
  9  3  1  0
  1 10  1  0
  1 11  1  0
  2 12  1  0
  2 13  1  0
  4 14  1  0
  4 15  1  0
  5 16  1  0
  5 17  1  0
  6 18  1  0
  7 19  1  0
  7 20  1  0
  8 21  1  0
  9 22  1  0
  9 23  1  0
M  END
