
     RDKit          3D

 19 21  0  0  0  0  0  0  0  0999 V2000
    2.7149    0.6323   -0.5167 C   0  0  0  0  0  0  0  0  0  0  0  0
    2.0735   -0.6287    0.0628 C   0  0  0  0  0  0  0  0  0  0  0  0
    0.9067   -0.3531   -0.8226 C   0  0  0  0  0  0  0  0  0  0  0  0
   -0.3162    0.2244   -0.0856 C   0  0  0  0  0  0  0  0  0  0  0  0
   -1.5437    0.5569   -0.7709 C   0  0  0  0  0  0  0  0  0  0  0  0
   -2.9533    0.1596   -0.3033 C   0  0  0  0  0  0  0  0  0  0  0  0
   -2.4156   -1.1351   -0.5428 O   0  0  0  0  0  0  0  0  0  0  0  0
   -1.3889   -0.6291    0.2651 C   0  0  0  0  0  0  0  0  0  0  0  0
    1.6121    0.7101   -1.3850 O   0  0  0  0  0  0  0  0  0  0  0  0
    3.6211    0.4597   -1.1088 H   0  0  0  0  0  0  0  0  0  0  0  0
    2.7958    1.4736    0.1844 H   0  0  0  0  0  0  0  0  0  0  0  0
    2.6794   -1.5263   -0.1619 H   0  0  0  0  0  0  0  0  0  0  0  0
    1.8018   -0.4946    1.1379 H   0  0  0  0  0  0  0  0  0  0  0  0
    0.6423   -1.1324   -1.5543 H   0  0  0  0  0  0  0  0  0  0  0  0
    0.0506    1.0104    0.6415 H   0  0  0  0  0  0  0  0  0  0  0  0
   -1.4955    0.2279   -1.8586 H   0  0  0  0  0  0  0  0  0  0  0  0
   -3.7280    0.4682   -1.0032 H   0  0  0  0  0  0  0  0  0  0  0  0
   -3.1995    0.3956    0.7221 H   0  0  0  0  0  0  0  0  0  0  0  0
   -1.8574   -0.4195    1.2777 H   0  0  0  0  0  0  0  0  0  0  0  0
  1  2  1  0
  2  3  1  0
  3  4  1  0
  4  5  1  0
  5  6  1  0
  6  7  1  0
  7  8  1  0
  3  9  1  0
  9  1  1  0
  8  4  1  0
  8  5  1  0
  1 10  1  0
  1 11  1  0
  2 12  1  0
  2 13  1  0
  3 14  1  0
  4 15  1  0
  5 16  1  0
  6 17  1  0
  6 18  1  0
  8 19  1  0
M  END
