
     RDKit          3D

 19 21  0  0  0  0  0  0  0  0999 V2000
   -1.7957   -1.1182   -0.0510 C   0  0  0  0  0  0  0  0  0  0  0  0
   -1.8647    0.3941   -0.0860 C   0  0  0  0  0  0  0  0  0  0  0  0
   -0.5155    0.7702   -0.6065 C   0  0  0  0  0  0  0  0  0  0  0  0
    0.4612    1.2139    0.4889 C   0  0  0  0  0  0  0  0  0  0  0  0
    1.3717    0.1358    0.0623 C   0  0  0  0  0  0  0  0  0  0  0  0
    2.4782   -0.4344    0.6055 C   0  0  0  0  0  0  0  0  0  0  0  0
    2.5572    0.3650   -0.5836 O   0  0  0  0  0  0  0  0  0  0  0  0
    0.2288   -0.5645   -0.6040 C   0  0  0  0  0  0  0  0  0  0  0  0
   -0.4720   -1.3468    0.3109 O   0  0  0  0  0  0  0  0  0  0  0  0
   -2.4743   -1.5554    0.6926 H   0  0  0  0  0  0  0  0  0  0  0  0
   -1.9229   -1.5008   -1.0744 H   0  0  0  0  0  0  0  0  0  0  0  0
   -2.6323    0.7434   -0.7927 H   0  0  0  0  0  0  0  0  0  0  0  0
   -1.9651    0.8201    0.9333 H   0  0  0  0  0  0  0  0  0  0  0  0
   -0.4591    1.3342   -1.5336 H   0  0  0  0  0  0  0  0  0  0  0  0
    0.0140    1.0360    1.4907 H   0  0  0  0  0  0  0  0  0  0  0  0
    0.7968    2.2590    0.4000 H   0  0  0  0  0  0  0  0  0  0  0  0
    2.7477   -1.5127    0.4373 H   0  0  0  0  0  0  0  0  0  0  0  0
    3.0407   -0.0319    1.4925 H   0  0  0  0  0  0  0  0  0  0  0  0
    0.4053   -1.0071   -1.5823 H   0  0  0  0  0  0  0  0  0  0  0  0
  1  2  1  0
  2  3  1  0
  3  4  1  0
  4  5  1  0
  5  6  1  0
  6  7  1  0
  5  8  1  0
  8  9  1  0
  9  1  1  0
  8  3  1  0
  7  5  1  0
  1 10  1  0
  1 11  1  0
  2 12  1  0
  2 13  1  0
  3 14  1  0
  4 15  1  0
  4 16  1  0
  6 17  1  0
  6 18  1  0
  8 19  1  0
M  END
