
     RDKit          3D

 23 24  0  0  0  0  0  0  0  0999 V2000
   -2.5522    0.4282   -0.2164 C   0  0  0  0  0  0  0  0  0  0  0  0
   -1.3609   -0.0219   -1.0294 C   0  0  0  0  0  0  0  0  0  0  0  0
   -0.5510   -0.7762   -0.0010 C   0  0  0  0  0  0  0  0  0  0  0  0
    0.3981    0.1243    0.7459 C   0  0  0  0  0  0  0  0  0  0  0  0
    1.3914    0.8106   -0.1197 C   0  0  0  0  0  0  0  0  0  0  0  0
    2.3653    0.0824   -0.9578 C   0  0  0  0  0  0  0  0  0  0  0  0
    2.8534    0.6627    0.3382 C   0  0  0  0  0  0  0  0  0  0  0  0
   -1.6185   -1.2240    0.9678 C   0  0  0  0  0  0  0  0  0  0  0  0
   -2.8204   -0.7153    0.5337 O   0  0  0  0  0  0  0  0  0  0  0  0
   -2.3237    1.3078    0.4155 H   0  0  0  0  0  0  0  0  0  0  0  0
   -3.4332    0.6736   -0.8335 H   0  0  0  0  0  0  0  0  0  0  0  0
   -0.8217    0.7866   -1.5184 H   0  0  0  0  0  0  0  0  0  0  0  0
   -1.7514   -0.7291   -1.7967 H   0  0  0  0  0  0  0  0  0  0  0  0
   -0.0876   -1.6555   -0.4442 H   0  0  0  0  0  0  0  0  0  0  0  0
    0.9003   -0.5124    1.5172 H   0  0  0  0  0  0  0  0  0  0  0  0
   -0.2104    0.8932    1.2631 H   0  0  0  0  0  0  0  0  0  0  0  0
    1.1104    1.8492   -0.4438 H   0  0  0  0  0  0  0  0  0  0  0  0
    2.7353    0.6158   -1.8574 H   0  0  0  0  0  0  0  0  0  0  0  0
    2.3306   -1.0105   -1.0925 H   0  0  0  0  0  0  0  0  0  0  0  0
    3.0745   -0.0097    1.1684 H   0  0  0  0  0  0  0  0  0  0  0  0
    3.4678    1.6019    0.3254 H   0  0  0  0  0  0  0  0  0  0  0  0
   -1.6555   -2.3355    1.0311 H   0  0  0  0  0  0  0  0  0  0  0  0
   -1.4406   -0.8462    2.0046 H   0  0  0  0  0  0  0  0  0  0  0  0
  1  2  1  0
  2  3  1  0
  3  4  1  0
  4  5  1  0
  5  6  1  0
  6  7  1  0
  3  8  1  0
  8  9  1  0
  9  1  1  0
  7  5  1  0
  1 10  1  0
  1 11  1  0
  2 12  1  0
  2 13  1  0
  3 14  1  0
  4 15  1  0
  4 16  1  0
  5 17  1  0
  6 18  1  0
  6 19  1  0
  7 20  1  0
  7 21  1  0
  8 22  1  0
  8 23  1  0
M  END
