
     RDKit          3D

 22 23  0  0  0  0  0  0  0  0999 V2000
   -0.8065   -1.3004   -0.3368 C   0  0  0  0  0  0  0  0  0  0  0  0
   -1.6232   -0.1514    0.1981 C   0  0  0  0  0  0  0  0  0  0  0  0
   -0.6190    0.9466    0.5760 C   0  0  0  0  0  0  0  0  0  0  0  0
    0.4514    0.3478    1.4580 C   0  0  0  0  0  0  0  0  0  0  0  0
    1.2760   -0.6930    0.7643 C   0  0  0  0  0  0  0  0  0  0  0  0
    0.6206   -0.9355   -0.6029 C   0  0  0  0  0  0  0  0  0  0  0  0
    0.7650    0.3779   -1.3511 C   0  0  0  0  0  0  0  0  0  0  0  0
   -0.0718    1.4728   -0.7270 C   0  0  0  0  0  0  0  0  0  0  0  0
   -0.7902   -2.0739    0.4865 H   0  0  0  0  0  0  0  0  0  0  0  0
   -1.3065   -1.7950   -1.1910 H   0  0  0  0  0  0  0  0  0  0  0  0
   -2.2344    0.2257   -0.6687 H   0  0  0  0  0  0  0  0  0  0  0  0
   -2.2806   -0.4156    1.0269 H   0  0  0  0  0  0  0  0  0  0  0  0
   -1.1139    1.7439    1.1779 H   0  0  0  0  0  0  0  0  0  0  0  0
    1.0971    1.1388    1.8546 H   0  0  0  0  0  0  0  0  0  0  0  0
   -0.1009   -0.1835    2.2867 H   0  0  0  0  0  0  0  0  0  0  0  0
    2.3148   -0.3165    0.5619 H   0  0  0  0  0  0  0  0  0  0  0  0
    1.3390   -1.6525    1.2892 H   0  0  0  0  0  0  0  0  0  0  0  0
    1.1135   -1.7246   -1.1663 H   0  0  0  0  0  0  0  0  0  0  0  0
    0.6408    0.2831   -2.4285 H   0  0  0  0  0  0  0  0  0  0  0  0
    1.8388    0.6911   -1.1883 H   0  0  0  0  0  0  0  0  0  0  0  0
    0.4560    2.4219   -0.6129 H   0  0  0  0  0  0  0  0  0  0  0  0
   -0.9658    1.5923   -1.4064 H   0  0  0  0  0  0  0  0  0  0  0  0
  1  2  1  0
  2  3  1  0
  3  4  1  0
  4  5  1  0
  5  6  1  0
  6  7  1  0
  7  8  1  0
  6  1  1  0
  8  3  1  0
  1  9  1  0
  1 10  1  0
  2 11  1  0
  2 12  1  0
  3 13  1  0
  4 14  1  0
  4 15  1  0
  5 16  1  0
  5 17  1  0
  6 18  1  0
  7 19  1  0
  7 20  1  0
  8 21  1  0
  8 22  1  0
M  END
