
     RDKit          3D

 21 23  0  0  0  0  0  0  0  0999 V2000
    2.5956   -0.3068   -0.3004 C   0  0  0  0  0  0  0  0  0  0  0  0
    1.3184   -0.0263   -1.0415 C   0  0  0  0  0  0  0  0  0  0  0  0
    0.3060    0.0159    0.0967 C   0  0  0  0  0  0  0  0  0  0  0  0
    1.1798    0.0097    1.3148 C   0  0  0  0  0  0  0  0  0  0  0  0
    2.4461    0.4104    0.8993 O   0  0  0  0  0  0  0  0  0  0  0  0
   -0.8170    0.8643   -0.0451 C   0  0  0  0  0  0  0  0  0  0  0  0
   -2.1558    0.5585   -0.7270 C   0  0  0  0  0  0  0  0  0  0  0  0
   -2.2869   -0.2834    0.5655 C   0  0  0  0  0  0  0  0  0  0  0  0
   -0.8962   -0.7200    0.0820 C   0  0  0  0  0  0  0  0  0  0  0  0
    2.6778   -1.3980   -0.0865 H   0  0  0  0  0  0  0  0  0  0  0  0
    3.4291    0.0700   -0.9068 H   0  0  0  0  0  0  0  0  0  0  0  0
    1.3756    1.0161   -1.4626 H   0  0  0  0  0  0  0  0  0  0  0  0
    1.0639   -0.7646   -1.8035 H   0  0  0  0  0  0  0  0  0  0  0  0
    0.8576    0.7527    2.0853 H   0  0  0  0  0  0  0  0  0  0  0  0
    1.2608   -1.0141    1.7827 H   0  0  0  0  0  0  0  0  0  0  0  0
   -1.0845    1.4029    0.9220 H   0  0  0  0  0  0  0  0  0  0  0  0
   -2.0746   -0.0527   -1.6373 H   0  0  0  0  0  0  0  0  0  0  0  0
   -2.8063    1.4274   -0.7660 H   0  0  0  0  0  0  0  0  0  0  0  0
   -3.0221   -1.0836    0.5031 H   0  0  0  0  0  0  0  0  0  0  0  0
   -2.2916    0.3598    1.4421 H   0  0  0  0  0  0  0  0  0  0  0  0
   -1.0759   -1.2384   -0.9167 H   0  0  0  0  0  0  0  0  0  0  0  0
  1  2  1  0
  2  3  1  0
  3  4  1  0
  4  5  1  0
  3  6  1  0
  6  7  1  0
  7  8  1  0
  8  9  1  0
  5  1  1  0
  9  6  1  0
  9  3  1  0
  1 10  1  0
  1 11  1  0
  2 12  1  0
  2 13  1  0
  4 14  1  0
  4 15  1  0
  6 16  1  0
  7 17  1  0
  7 18  1  0
  8 19  1  0
  8 20  1  0
  9 21  1  0
M  END
