
     RDKit          3D

 18 20  0  0  0  0  0  0  0  0999 V2000
   -1.4192    0.5321   -0.3346 C   0  0  0  0  0  0  0  0  0  0  0  0
   -1.5448   -0.8741    0.2644 C   0  0  0  0  0  0  0  0  0  0  0  0
   -0.1008   -0.7463    0.6861 C   0  0  0  0  0  0  0  0  0  0  0  0
   -0.2600    0.7538    0.5758 C   0  0  0  0  0  0  0  0  0  0  0  0
    1.0077    1.2468   -0.0147 C   0  0  0  0  0  0  0  0  0  0  0  0
    1.7091    0.0493   -0.5967 C   0  0  0  0  0  0  0  0  0  0  0  0
    0.9785   -0.6094   -1.5725 O   0  0  0  0  0  0  0  0  0  0  0  0
    0.9250   -1.1538   -0.3056 C   0  0  0  0  0  0  0  0  0  0  0  0
   -2.3481    1.0834   -0.1217 H   0  0  0  0  0  0  0  0  0  0  0  0
   -1.2301    0.4842   -1.4103 H   0  0  0  0  0  0  0  0  0  0  0  0
   -2.2665   -0.9553    1.0810 H   0  0  0  0  0  0  0  0  0  0  0  0
   -1.7268   -1.6321   -0.5270 H   0  0  0  0  0  0  0  0  0  0  0  0
    0.1407   -1.0573    1.7067 H   0  0  0  0  0  0  0  0  0  0  0  0
   -0.5372    1.2734    1.5040 H   0  0  0  0  0  0  0  0  0  0  0  0
    0.8489    1.9687   -0.8438 H   0  0  0  0  0  0  0  0  0  0  0  0
    1.6383    1.7624    0.7353 H   0  0  0  0  0  0  0  0  0  0  0  0
    2.8179    0.0206   -0.6130 H   0  0  0  0  0  0  0  0  0  0  0  0
    1.3675   -2.1463   -0.2134 H   0  0  0  0  0  0  0  0  0  0  0  0
  1  2  1  0
  2  3  1  0
  3  4  1  0
  4  5  1  0
  5  6  1  0
  6  7  1  0
  7  8  1  0
  4  1  1  0
  8  6  1  0
  8  3  1  0
  1  9  1  0
  1 10  1  0
  2 11  1  0
  2 12  1  0
  3 13  1  0
  4 14  1  0
  5 15  1  0
  5 16  1  0
  6 17  1  0
  8 18  1  0
M  END
