
     RDKit          3D

 18 20  0  0  0  0  0  0  0  0999 V2000
    1.3554    1.1728    0.1289 C   0  0  0  0  0  0  0  0  0  0  0  0
    1.6291   -0.2646   -0.3337 C   0  0  0  0  0  0  0  0  0  0  0  0
    0.4019   -0.9507    0.2539 C   0  0  0  0  0  0  0  0  0  0  0  0
   -0.8222   -0.4975   -0.4771 C   0  0  0  0  0  0  0  0  0  0  0  0
   -2.1518   -0.5845    0.1387 C   0  0  0  0  0  0  0  0  0  0  0  0
   -1.1281    0.4595    0.5924 C   0  0  0  0  0  0  0  0  0  0  0  0
    0.0418   -0.0343    1.3899 C   0  0  0  0  0  0  0  0  0  0  0  0
    1.0234    0.9397    1.4704 O   0  0  0  0  0  0  0  0  0  0  0  0
    2.2087    1.8270   -0.0057 H   0  0  0  0  0  0  0  0  0  0  0  0
    0.5016    1.5515   -0.4463 H   0  0  0  0  0  0  0  0  0  0  0  0
    2.5668   -0.6395    0.0711 H   0  0  0  0  0  0  0  0  0  0  0  0
    1.5552   -0.3504   -1.4370 H   0  0  0  0  0  0  0  0  0  0  0  0
    0.5057   -2.0094    0.4737 H   0  0  0  0  0  0  0  0  0  0  0  0
   -0.7257   -0.1971   -1.5285 H   0  0  0  0  0  0  0  0  0  0  0  0
   -2.9867   -0.1302   -0.4538 H   0  0  0  0  0  0  0  0  0  0  0  0
   -2.3967   -1.2918    0.9541 H   0  0  0  0  0  0  0  0  0  0  0  0
   -1.3348    1.5140    0.4522 H   0  0  0  0  0  0  0  0  0  0  0  0
   -0.2437   -0.5146    2.3362 H   0  0  0  0  0  0  0  0  0  0  0  0
  1  2  1  0
  2  3  1  0
  3  4  1  0
  4  5  1  0
  5  6  1  0
  6  7  1  0
  7  8  1  0
  8  1  1  0
  7  3  1  0
  6  4  1  0
  1  9  1  0
  1 10  1  0
  2 11  1  0
  2 12  1  0
  3 13  1  0
  4 14  1  0
  5 15  1  0
  5 16  1  0
  6 17  1  0
  7 18  1  0
M  END
