
     RDKit          3D

 16 17  0  0  0  0  0  0  0  0999 V2000
   -1.6483    0.2261    0.1337 C   0  0  0  0  0  0  0  0  0  0  0  0
   -0.5107    1.1246   -0.3758 C   0  0  0  0  0  0  0  0  0  0  0  0
    0.3392   -0.0526   -0.2779 C   0  0  0  0  0  0  0  0  0  0  0  0
   -0.7975   -0.9479   -0.3807 C   0  0  0  0  0  0  0  0  0  0  0  0
    1.1920   -0.1707    0.9922 C   0  0  0  0  0  0  0  0  0  0  0  0
    1.7340   -0.2425   -0.3838 C   0  0  0  0  0  0  0  0  0  0  0  0
   -2.5974    0.3510   -0.3781 H   0  0  0  0  0  0  0  0  0  0  0  0
   -1.6305    0.2225    1.2274 H   0  0  0  0  0  0  0  0  0  0  0  0
   -0.7044    1.4820   -1.4298 H   0  0  0  0  0  0  0  0  0  0  0  0
   -0.2908    1.9839    0.2481 H   0  0  0  0  0  0  0  0  0  0  0  0
   -0.8166   -1.8272    0.2655 H   0  0  0  0  0  0  0  0  0  0  0  0
   -1.1095   -1.1888   -1.4362 H   0  0  0  0  0  0  0  0  0  0  0  0
    1.2769    0.7224    1.6252 H   0  0  0  0  0  0  0  0  0  0  0  0
    1.0364   -1.1103    1.5951 H   0  0  0  0  0  0  0  0  0  0  0  0
    2.1475   -1.2007   -0.7492 H   0  0  0  0  0  0  0  0  0  0  0  0
    2.3798    0.6280   -0.6756 H   0  0  0  0  0  0  0  0  0  0  0  0
  1  2  1  0
  2  3  1  0
  3  4  1  0
  3  5  1  0
  5  6  1  0
  4  1  1  0
  6  3  1  0
  1  7  1  0
  1  8  1  0
  2  9  1  0
  2 10  1  0
  4 11  1  0
  4 12  1  0
  5 13  1  0
  5 14  1  0
  6 15  1  0
  6 16  1  0
M  END
