
     RDKit          3D

 21 22  0  0  0  0  0  0  0  0999 V2000
    2.4053   -0.3911   -0.7846 C   0  0  0  0  0  0  0  0  0  0  0  0
    0.9966   -0.9674   -0.6678 C   0  0  0  0  0  0  0  0  0  0  0  0
    0.2086    0.3197   -0.4436 C   0  0  0  0  0  0  0  0  0  0  0  0
   -0.9293    0.0060    0.4570 C   0  0  0  0  0  0  0  0  0  0  0  0
   -1.8311   -1.0459   -0.1681 C   0  0  0  0  0  0  0  0  0  0  0  0
   -2.9188   -0.3768    0.4067 O   0  0  0  0  0  0  0  0  0  0  0  0
   -2.1811    0.8070    0.3020 C   0  0  0  0  0  0  0  0  0  0  0  0
    1.2311    1.2417    0.1263 C   0  0  0  0  0  0  0  0  0  0  0  0
    2.4138    0.5216    0.2668 O   0  0  0  0  0  0  0  0  0  0  0  0
    3.1156   -1.2098   -0.6523 H   0  0  0  0  0  0  0  0  0  0  0  0
    2.5097    0.1672   -1.7167 H   0  0  0  0  0  0  0  0  0  0  0  0
    0.9236   -1.5463    0.2711 H   0  0  0  0  0  0  0  0  0  0  0  0
    0.6814   -1.5090   -1.5571 H   0  0  0  0  0  0  0  0  0  0  0  0
   -0.1948    0.6855   -1.4091 H   0  0  0  0  0  0  0  0  0  0  0  0
   -0.6966   -0.2095    1.5131 H   0  0  0  0  0  0  0  0  0  0  0  0
   -1.8217   -0.9329   -1.2874 H   0  0  0  0  0  0  0  0  0  0  0  0
   -1.6600   -2.0699    0.1986 H   0  0  0  0  0  0  0  0  0  0  0  0
   -2.3022    1.4926    1.1793 H   0  0  0  0  0  0  0  0  0  0  0  0
   -2.3489    1.2750   -0.6763 H   0  0  0  0  0  0  0  0  0  0  0  0
    0.9473    1.6645    1.1088 H   0  0  0  0  0  0  0  0  0  0  0  0
    1.4515    2.0776   -0.5998 H   0  0  0  0  0  0  0  0  0  0  0  0
  1  2  1  0
  2  3  1  0
  3  4  1  0
  4  5  1  0
  5  6  1  0
  6  7  1  0
  3  8  1  0
  8  9  1  0
  9  1  1  0
  7  4  1  0
  1 10  1  0
  1 11  1  0
  2 12  1  0
  2 13  1  0
  3 14  1  0
  4 15  1  0
  5 16  1  0
  5 17  1  0
  7 18  1  0
  7 19  1  0
  8 20  1  0
  8 21  1  0
M  END
