
     RDKit          3D

 21 22  0  0  0  0  0  0  0  0999 V2000
   -2.4120    0.1379   -0.1373 C   0  0  0  0  0  0  0  0  0  0  0  0
   -1.4475   -0.1831    0.9753 C   0  0  0  0  0  0  0  0  0  0  0  0
   -0.2539    0.0482    0.0367 C   0  0  0  0  0  0  0  0  0  0  0  0
   -1.2561   -0.0549   -1.1122 C   0  0  0  0  0  0  0  0  0  0  0  0
    0.7040   -1.0790    0.1571 C   0  0  0  0  0  0  0  0  0  0  0  0
    2.1527   -0.6557    0.1853 C   0  0  0  0  0  0  0  0  0  0  0  0
    2.2758    0.4758   -0.5953 O   0  0  0  0  0  0  0  0  0  0  0  0
    1.5292    1.5315   -0.1620 C   0  0  0  0  0  0  0  0  0  0  0  0
    0.2375    1.2950    0.1416 O   0  0  0  0  0  0  0  0  0  0  0  0
   -3.2156   -0.6246   -0.2436 H   0  0  0  0  0  0  0  0  0  0  0  0
   -2.8122    1.1540   -0.0753 H   0  0  0  0  0  0  0  0  0  0  0  0
   -1.4070    0.5227    1.8090 H   0  0  0  0  0  0  0  0  0  0  0  0
   -1.5551   -1.2522    1.2893 H   0  0  0  0  0  0  0  0  0  0  0  0
   -1.2141    0.8328   -1.7976 H   0  0  0  0  0  0  0  0  0  0  0  0
   -1.3002   -1.0221   -1.6120 H   0  0  0  0  0  0  0  0  0  0  0  0
    0.5228   -1.7880   -0.6774 H   0  0  0  0  0  0  0  0  0  0  0  0
    0.5351   -1.6683    1.0977 H   0  0  0  0  0  0  0  0  0  0  0  0
    2.5267   -0.5439    1.2122 H   0  0  0  0  0  0  0  0  0  0  0  0
    2.7636   -1.4658   -0.2825 H   0  0  0  0  0  0  0  0  0  0  0  0
    2.0222    2.0029    0.7400 H   0  0  0  0  0  0  0  0  0  0  0  0
    1.6043    2.3369   -0.9490 H   0  0  0  0  0  0  0  0  0  0  0  0
  1  2  1  0
  2  3  1  0
  3  4  1  0
  3  5  1  0
  5  6  1  0
  6  7  1  0
  7  8  1  0
  8  9  1  0
  4  1  1  0
  9  3  1  0
  1 10  1  0
  1 11  1  0
  2 12  1  0
  2 13  1  0
  4 14  1  0
  4 15  1  0
  5 16  1  0
  5 17  1  0
  6 18  1  0
  6 19  1  0
  8 20  1  0
  8 21  1  0
M  END
