
     RDKit          3D

 21 22  0  0  0  0  0  0  0  0999 V2000
    1.9230    0.4331    0.5450 C   0  0  0  0  0  0  0  0  0  0  0  0
    1.4427   -0.8113   -0.1772 C   0  0  0  0  0  0  0  0  0  0  0  0
    0.0433   -0.5586   -0.6220 C   0  0  0  0  0  0  0  0  0  0  0  0
   -0.9152   -1.6691   -0.4330 C   0  0  0  0  0  0  0  0  0  0  0  0
   -2.1643   -1.0369   -0.4727 O   0  0  0  0  0  0  0  0  0  0  0  0
   -1.9917    0.2568   -0.0149 C   0  0  0  0  0  0  0  0  0  0  0  0
   -0.5673    0.4184    0.4022 C   0  0  0  0  0  0  0  0  0  0  0  0
    0.0466    1.7296    0.1163 C   0  0  0  0  0  0  0  0  0  0  0  0
    1.4107    1.5933    0.0190 O   0  0  0  0  0  0  0  0  0  0  0  0
    3.0257    0.4692    0.4186 H   0  0  0  0  0  0  0  0  0  0  0  0
    1.7423    0.3074    1.6321 H   0  0  0  0  0  0  0  0  0  0  0  0
    1.4824   -1.6793    0.4906 H   0  0  0  0  0  0  0  0  0  0  0  0
    2.1196   -0.9738   -1.0597 H   0  0  0  0  0  0  0  0  0  0  0  0
   -0.0438   -0.0364   -1.5951 H   0  0  0  0  0  0  0  0  0  0  0  0
   -0.7846   -2.0761    0.5906 H   0  0  0  0  0  0  0  0  0  0  0  0
   -0.8246   -2.4622   -1.2031 H   0  0  0  0  0  0  0  0  0  0  0  0
   -2.7101    0.4722    0.8135 H   0  0  0  0  0  0  0  0  0  0  0  0
   -2.2496    1.0087   -0.8112 H   0  0  0  0  0  0  0  0  0  0  0  0
   -0.4474    0.0447    1.4250 H   0  0  0  0  0  0  0  0  0  0  0  0
   -0.3027    2.0461   -0.9104 H   0  0  0  0  0  0  0  0  0  0  0  0
   -0.2349    2.5243    0.8464 H   0  0  0  0  0  0  0  0  0  0  0  0
  1  2  1  0
  2  3  1  0
  3  4  1  0
  4  5  1  0
  5  6  1  0
  6  7  1  0
  7  8  1  0
  8  9  1  0
  9  1  1  0
  7  3  1  0
  1 10  1  0
  1 11  1  0
  2 12  1  0
  2 13  1  0
  3 14  1  0
  4 15  1  0
  4 16  1  0
  6 17  1  0
  6 18  1  0
  7 19  1  0
  8 20  1  0
  8 21  1  0
M  END
