
     RDKit          3D

 21 22  0  0  0  0  0  0  0  0999 V2000
   -1.7337   -1.0254   -0.3407 C   0  0  0  0  0  0  0  0  0  0  0  0
   -2.0111    0.1195    0.6326 C   0  0  0  0  0  0  0  0  0  0  0  0
   -0.8519    1.0363    0.3510 C   0  0  0  0  0  0  0  0  0  0  0  0
    0.3382    0.1670    0.0694 C   0  0  0  0  0  0  0  0  0  0  0  0
   -0.2345   -1.1349   -0.3500 C   0  0  0  0  0  0  0  0  0  0  0  0
    1.1940    0.8407   -0.9587 C   0  0  0  0  0  0  0  0  0  0  0  0
    2.4739    0.4384   -0.6468 O   0  0  0  0  0  0  0  0  0  0  0  0
    2.4750   -0.0832    0.6200 C   0  0  0  0  0  0  0  0  0  0  0  0
    1.2086    0.0736    1.1590 O   0  0  0  0  0  0  0  0  0  0  0  0
   -2.2444   -1.9294    0.0064 H   0  0  0  0  0  0  0  0  0  0  0  0
   -2.0543   -0.6759   -1.3282 H   0  0  0  0  0  0  0  0  0  0  0  0
   -2.0511   -0.2388    1.6688 H   0  0  0  0  0  0  0  0  0  0  0  0
   -2.9481    0.6480    0.3810 H   0  0  0  0  0  0  0  0  0  0  0  0
   -1.0889    1.5755   -0.6071 H   0  0  0  0  0  0  0  0  0  0  0  0
   -0.6744    1.7875    1.1232 H   0  0  0  0  0  0  0  0  0  0  0  0
    0.0309   -1.9001    0.4316 H   0  0  0  0  0  0  0  0  0  0  0  0
    0.1237   -1.5303   -1.3058 H   0  0  0  0  0  0  0  0  0  0  0  0
    1.1467    1.9477   -0.7376 H   0  0  0  0  0  0  0  0  0  0  0  0
    0.8984    0.6440   -1.9972 H   0  0  0  0  0  0  0  0  0  0  0  0
    3.2254    0.3972    1.2775 H   0  0  0  0  0  0  0  0  0  0  0  0
    2.7774   -1.1574    0.5516 H   0  0  0  0  0  0  0  0  0  0  0  0
  1  2  1  0
  2  3  1  0
  3  4  1  0
  4  5  1  0
  4  6  1  0
  6  7  1  0
  7  8  1  0
  8  9  1  0
  5  1  1  0
  9  4  1  0
  1 10  1  0
  1 11  1  0
  2 12  1  0
  2 13  1  0
  3 14  1  0
  3 15  1  0
  5 16  1  0
  5 17  1  0
  6 18  1  0
  6 19  1  0
  8 20  1  0
  8 21  1  0
M  END
