
     RDKit          3D

 21 23  0  0  0  0  0  0  0  0999 V2000
   -1.8183    0.8491    0.1667 C   0  0  0  0  0  0  0  0  0  0  0  0
   -1.8676   -0.6480    0.2776 C   0  0  0  0  0  0  0  0  0  0  0  0
   -0.6770   -0.7791   -0.6364 C   0  0  0  0  0  0  0  0  0  0  0  0
   -0.6707    0.7088   -0.7991 C   0  0  0  0  0  0  0  0  0  0  0  0
    0.6604    1.2052   -0.3146 C   0  0  0  0  0  0  0  0  0  0  0  0
    1.0958    0.1316    0.6324 C   0  0  0  0  0  0  0  0  0  0  0  0
    2.3960   -0.4710    0.2154 C   0  0  0  0  0  0  0  0  0  0  0  0
    1.6965   -1.3868   -0.5726 O   0  0  0  0  0  0  0  0  0  0  0  0
    0.5427   -1.1708    0.1399 C   0  0  0  0  0  0  0  0  0  0  0  0
   -1.5004    1.4053    1.0540 H   0  0  0  0  0  0  0  0  0  0  0  0
   -2.7539    1.2752   -0.2548 H   0  0  0  0  0  0  0  0  0  0  0  0
   -1.6796   -0.9740    1.3300 H   0  0  0  0  0  0  0  0  0  0  0  0
   -2.7664   -1.1292   -0.1228 H   0  0  0  0  0  0  0  0  0  0  0  0
   -0.8368   -1.2803   -1.5903 H   0  0  0  0  0  0  0  0  0  0  0  0
   -0.9259    1.0934   -1.7995 H   0  0  0  0  0  0  0  0  0  0  0  0
    0.6231    2.1686    0.2050 H   0  0  0  0  0  0  0  0  0  0  0  0
    1.3292    1.2868   -1.2027 H   0  0  0  0  0  0  0  0  0  0  0  0
    0.9146    0.2845    1.6962 H   0  0  0  0  0  0  0  0  0  0  0  0
    2.9764    0.2061   -0.4510 H   0  0  0  0  0  0  0  0  0  0  0  0
    2.9417   -0.8925    1.0721 H   0  0  0  0  0  0  0  0  0  0  0  0
    0.3201   -1.8831    0.9545 H   0  0  0  0  0  0  0  0  0  0  0  0
  1  2  1  0
  2  3  1  0
  3  4  1  0
  4  5  1  0
  5  6  1  0
  6  7  1  0
  7  8  1  0
  8  9  1  0
  4  1  1  0
  9  6  1  0
  9  3  1  0
  1 10  1  0
  1 11  1  0
  2 12  1  0
  2 13  1  0
  3 14  1  0
  4 15  1  0
  5 16  1  0
  5 17  1  0
  6 18  1  0
  7 19  1  0
  7 20  1  0
  9 21  1  0
M  END
