
     RDKit          3D

 21 23  0  0  0  0  0  0  0  0999 V2000
    2.1533    0.7045    0.3609 C   0  0  0  0  0  0  0  0  0  0  0  0
    2.4492   -0.7464    0.0273 C   0  0  0  0  0  0  0  0  0  0  0  0
    1.1789   -0.0021   -0.4673 C   0  0  0  0  0  0  0  0  0  0  0  0
   -0.0826   -0.4907    0.1523 C   0  0  0  0  0  0  0  0  0  0  0  0
   -1.0293   -1.2157   -0.8056 C   0  0  0  0  0  0  0  0  0  0  0  0
   -2.1566   -0.6365    0.0638 C   0  0  0  0  0  0  0  0  0  0  0  0
   -1.1775    0.4668    0.3887 C   0  0  0  0  0  0  0  0  0  0  0  0
   -1.3515    1.7853    0.1225 C   0  0  0  0  0  0  0  0  0  0  0  0
   -1.3100    1.2292    1.5029 O   0  0  0  0  0  0  0  0  0  0  0  0
    1.9073    0.9327    1.4207 H   0  0  0  0  0  0  0  0  0  0  0  0
    2.9016    1.3999   -0.0732 H   0  0  0  0  0  0  0  0  0  0  0  0
    2.3209   -1.5039    0.8043 H   0  0  0  0  0  0  0  0  0  0  0  0
    3.2162   -0.9809   -0.7274 H   0  0  0  0  0  0  0  0  0  0  0  0
    1.1800    0.1644   -1.5790 H   0  0  0  0  0  0  0  0  0  0  0  0
    0.0538   -1.1640    1.0470 H   0  0  0  0  0  0  0  0  0  0  0  0
   -1.0566   -0.7585   -1.8151 H   0  0  0  0  0  0  0  0  0  0  0  0
   -0.9867   -2.3020   -0.7478 H   0  0  0  0  0  0  0  0  0  0  0  0
   -2.2812   -1.2936    0.9494 H   0  0  0  0  0  0  0  0  0  0  0  0
   -3.0537   -0.3551   -0.4840 H   0  0  0  0  0  0  0  0  0  0  0  0
   -0.5288    2.5255   -0.0333 H   0  0  0  0  0  0  0  0  0  0  0  0
   -2.3469    2.2413   -0.1073 H   0  0  0  0  0  0  0  0  0  0  0  0
  1  2  1  0
  2  3  1  0
  3  4  1  0
  4  5  1  0
  5  6  1  0
  6  7  1  0
  7  8  1  0
  8  9  1  0
  3  1  1  0
  7  4  1  0
  9  7  1  0
  1 10  1  0
  1 11  1  0
  2 12  1  0
  2 13  1  0
  3 14  1  0
  4 15  1  0
  5 16  1  0
  5 17  1  0
  6 18  1  0
  6 19  1  0
  8 20  1  0
  8 21  1  0
M  END
