
     RDKit          3D

 23 25  0  0  0  0  0  0  0  0999 V2000
   -2.6354   -0.0475   -0.4254 C   0  0  0  0  0  0  0  0  0  0  0  0
   -1.3790   -0.0542   -1.2756 C   0  0  0  0  0  0  0  0  0  0  0  0
   -0.6917    0.5964   -0.0649 C   0  0  0  0  0  0  0  0  0  0  0  0
    0.6099    0.2378    0.1358 C   0  0  0  0  0  0  0  0  0  0  0  0
    1.7713    0.4254   -0.8081 C   0  0  0  0  0  0  0  0  0  0  0  0
    2.3714   -0.2907    0.3790 C   0  0  0  0  0  0  0  0  0  0  0  0
    1.1439   -1.1543    0.3528 C   0  0  0  0  0  0  0  0  0  0  0  0
    1.5546    0.6737    1.1980 C   0  0  0  0  0  0  0  0  0  0  0  0
   -1.7098   -0.1959    0.7676 C   0  0  0  0  0  0  0  0  0  0  0  0
   -3.2983   -0.9149   -0.6114 H   0  0  0  0  0  0  0  0  0  0  0  0
   -3.1512    0.9459   -0.4505 H   0  0  0  0  0  0  0  0  0  0  0  0
   -1.0489   -1.0974   -1.4209 H   0  0  0  0  0  0  0  0  0  0  0  0
   -1.4363    0.5829   -2.1613 H   0  0  0  0  0  0  0  0  0  0  0  0
   -0.9088    1.6771   -0.1183 H   0  0  0  0  0  0  0  0  0  0  0  0
    2.0192    1.5075   -0.8694 H   0  0  0  0  0  0  0  0  0  0  0  0
    1.7309   -0.1287   -1.7467 H   0  0  0  0  0  0  0  0  0  0  0  0
    3.3212   -0.5589    0.5104 H   0  0  0  0  0  0  0  0  0  0  0  0
    1.0038   -1.7622   -0.5565 H   0  0  0  0  0  0  0  0  0  0  0  0
    0.9054   -1.6313    1.3094 H   0  0  0  0  0  0  0  0  0  0  0  0
    1.3456    0.3704    2.2332 H   0  0  0  0  0  0  0  0  0  0  0  0
    1.8938    1.7244    1.0730 H   0  0  0  0  0  0  0  0  0  0  0  0
   -2.0391    0.3273    1.6787 H   0  0  0  0  0  0  0  0  0  0  0  0
   -1.3724   -1.2329    0.8709 H   0  0  0  0  0  0  0  0  0  0  0  0
  1  2  1  0
  2  3  1  0
  3  4  1  0
  4  5  1  0
  5  6  1  0
  6  7  1  0
  6  8  1  0
  3  9  1  0
  9  1  1  0
  7  4  1  0
  8  4  1  0
  1 10  1  0
  1 11  1  0
  2 12  1  0
  2 13  1  0
  3 14  1  0
  5 15  1  0
  5 16  1  0
  6 17  1  0
  7 18  1  0
  7 19  1  0
  8 20  1  0
  8 21  1  0
  9 22  1  0
  9 23  1  0
M  END
