
     RDKit          3D

 18 20  0  0  0  0  0  0  0  0999 V2000
   -0.4869   -1.3040    0.1145 C   0  0  0  0  0  0  0  0  0  0  0  0
   -1.6049   -0.3168    0.0898 C   0  0  0  0  0  0  0  0  0  0  0  0
   -1.2264    1.0034   -0.4994 C   0  0  0  0  0  0  0  0  0  0  0  0
   -0.3009    1.0982   -1.5113 O   0  0  0  0  0  0  0  0  0  0  0  0
    0.0245    1.4933   -0.1367 C   0  0  0  0  0  0  0  0  0  0  0  0
    1.0392    0.6515    0.5156 C   0  0  0  0  0  0  0  0  0  0  0  0
    1.8231   -0.3551   -0.3884 C   0  0  0  0  0  0  0  0  0  0  0  0
    0.7954   -0.7669    0.6529 C   0  0  0  0  0  0  0  0  0  0  0  0
   -0.8066   -2.1491    0.7816 H   0  0  0  0  0  0  0  0  0  0  0  0
   -0.3717   -1.7881   -0.8986 H   0  0  0  0  0  0  0  0  0  0  0  0
   -1.9065   -0.1340    1.1582 H   0  0  0  0  0  0  0  0  0  0  0  0
   -2.4715   -0.7809   -0.4094 H   0  0  0  0  0  0  0  0  0  0  0  0
   -2.0956    1.7036   -0.6084 H   0  0  0  0  0  0  0  0  0  0  0  0
    0.2021    2.6000   -0.0443 H   0  0  0  0  0  0  0  0  0  0  0  0
    1.6971    1.1358    1.2980 H   0  0  0  0  0  0  0  0  0  0  0  0
    1.5170   -0.3198   -1.4449 H   0  0  0  0  0  0  0  0  0  0  0  0
    2.8887   -0.4645   -0.1859 H   0  0  0  0  0  0  0  0  0  0  0  0
    1.2840   -1.3064    1.5168 H   0  0  0  0  0  0  0  0  0  0  0  0
  1  2  1  0
  2  3  1  0
  3  4  1  0
  4  5  1  0
  5  6  1  0
  6  7  1  0
  7  8  1  0
  8  1  1  0
  5  3  1  0
  8  6  1  0
  1  9  1  0
  1 10  1  0
  2 11  1  0
  2 12  1  0
  3 13  1  0
  5 14  1  0
  6 15  1  0
  7 16  1  0
  7 17  1  0
  8 18  1  0
M  END
