
     RDKit          3D

 23 25  0  0  0  0  0  0  0  0999 V2000
    1.8200    0.8982   -0.2332 C   0  0  0  0  0  0  0  0  0  0  0  0
    0.4288    1.3642   -0.6743 C   0  0  0  0  0  0  0  0  0  0  0  0
   -0.4933    0.8750    0.4535 C   0  0  0  0  0  0  0  0  0  0  0  0
   -1.9683    0.9941    0.1081 C   0  0  0  0  0  0  0  0  0  0  0  0
   -1.9498   -0.4737   -0.3461 C   0  0  0  0  0  0  0  0  0  0  0  0
   -0.6231   -0.5971    0.2591 C   0  0  0  0  0  0  0  0  0  0  0  0
   -0.0991   -1.6298    1.0895 C   0  0  0  0  0  0  0  0  0  0  0  0
    0.5359   -1.2635   -0.2714 C   0  0  0  0  0  0  0  0  0  0  0  0
    1.8553   -0.5874   -0.1628 C   0  0  0  0  0  0  0  0  0  0  0  0
    2.5699    1.2991   -0.9481 H   0  0  0  0  0  0  0  0  0  0  0  0
    1.9508    1.3463    0.7939 H   0  0  0  0  0  0  0  0  0  0  0  0
    0.1987    0.7580   -1.5840 H   0  0  0  0  0  0  0  0  0  0  0  0
    0.3707    2.4381   -0.8236 H   0  0  0  0  0  0  0  0  0  0  0  0
   -0.2083    1.2388    1.4470 H   0  0  0  0  0  0  0  0  0  0  0  0
   -2.5701    1.1569    1.0374 H   0  0  0  0  0  0  0  0  0  0  0  0
   -2.2208    1.7116   -0.6752 H   0  0  0  0  0  0  0  0  0  0  0  0
   -2.7597   -1.0637    0.1569 H   0  0  0  0  0  0  0  0  0  0  0  0
   -1.9822   -0.5615   -1.4554 H   0  0  0  0  0  0  0  0  0  0  0  0
   -0.5954   -2.6226    1.1024 H   0  0  0  0  0  0  0  0  0  0  0  0
    0.5049   -1.4478    1.9965 H   0  0  0  0  0  0  0  0  0  0  0  0
    0.3655   -2.0035   -1.1059 H   0  0  0  0  0  0  0  0  0  0  0  0
    2.5181   -0.9572   -0.9755 H   0  0  0  0  0  0  0  0  0  0  0  0
    2.3515   -0.8724    0.8112 H   0  0  0  0  0  0  0  0  0  0  0  0
  1  2  1  0
  2  3  1  0
  3  4  1  0
  4  5  1  0
  5  6  1  0
  6  7  1  0
  7  8  1  0
  8  9  1  0
  9  1  1  0
  6  3  1  0
  8  6  1  0
  1 10  1  0
  1 11  1  0
  2 12  1  0
  2 13  1  0
  3 14  1  0
  4 15  1  0
  4 16  1  0
  5 17  1  0
  5 18  1  0
  7 19  1  0
  7 20  1  0
  8 21  1  0
  9 22  1  0
  9 23  1  0
M  END
