
     RDKit          3D

 21 23  0  0  0  0  0  0  0  0999 V2000
    1.6713   -0.1748    0.7904 C   0  0  0  0  0  0  0  0  0  0  0  0
    1.0246    1.0823    0.1850 C   0  0  0  0  0  0  0  0  0  0  0  0
    0.5543    0.5238   -1.0967 C   0  0  0  0  0  0  0  0  0  0  0  0
   -0.6925    0.0269   -1.5237 C   0  0  0  0  0  0  0  0  0  0  0  0
   -1.8122    0.7925   -1.2055 O   0  0  0  0  0  0  0  0  0  0  0  0
   -2.1135    0.6455    0.1150 C   0  0  0  0  0  0  0  0  0  0  0  0
   -1.1555   -0.3107    0.6978 C   0  0  0  0  0  0  0  0  0  0  0  0
   -0.2266   -0.6884   -0.4370 C   0  0  0  0  0  0  0  0  0  0  0  0
    0.9899   -1.3406    0.0436 C   0  0  0  0  0  0  0  0  0  0  0  0
    1.4922   -0.2339    1.8651 H   0  0  0  0  0  0  0  0  0  0  0  0
    2.7389   -0.2093    0.4975 H   0  0  0  0  0  0  0  0  0  0  0  0
    0.3103    1.5604    0.8351 H   0  0  0  0  0  0  0  0  0  0  0  0
    1.8236    1.8413   -0.0386 H   0  0  0  0  0  0  0  0  0  0  0  0
    1.4463    0.2031   -1.7225 H   0  0  0  0  0  0  0  0  0  0  0  0
   -0.7927   -0.4285   -2.5304 H   0  0  0  0  0  0  0  0  0  0  0  0
   -2.0823    1.6120    0.6990 H   0  0  0  0  0  0  0  0  0  0  0  0
   -3.1848    0.2831    0.1614 H   0  0  0  0  0  0  0  0  0  0  0  0
   -0.6634   -0.0418    1.6210 H   0  0  0  0  0  0  0  0  0  0  0  0
   -1.7214   -1.2656    0.9137 H   0  0  0  0  0  0  0  0  0  0  0  0
    0.7416   -2.0873    0.8236 H   0  0  0  0  0  0  0  0  0  0  0  0
    1.6519   -1.7901   -0.6938 H   0  0  0  0  0  0  0  0  0  0  0  0
  1  2  1  0
  2  3  1  0
  3  4  1  0
  4  5  1  0
  5  6  1  0
  6  7  1  0
  7  8  1  0
  8  9  1  0
  9  1  1  0
  8  3  1  0
  8  4  1  0
  1 10  1  0
  1 11  1  0
  2 12  1  0
  2 13  1  0
  3 14  1  0
  4 15  1  0
  6 16  1  0
  6 17  1  0
  7 18  1  0
  7 19  1  0
  9 20  1  0
  9 21  1  0
M  END
