
     RDKit          3D

 19 21  0  0  0  0  0  0  0  0999 V2000
   -1.8693    0.7878    0.1809 C   0  0  0  0  0  0  0  0  0  0  0  0
   -0.3575    1.0963    0.1203 C   0  0  0  0  0  0  0  0  0  0  0  0
    0.1126   -0.3138    0.2834 C   0  0  0  0  0  0  0  0  0  0  0  0
    1.5265   -0.6013    0.4758 C   0  0  0  0  0  0  0  0  0  0  0  0
    2.6046    0.3480    0.5999 C   0  0  0  0  0  0  0  0  0  0  0  0
    1.9704   -0.0312    1.7806 O   0  0  0  0  0  0  0  0  0  0  0  0
   -0.6791   -1.0641   -0.7288 C   0  0  0  0  0  0  0  0  0  0  0  0
   -1.7490   -0.7153    0.2779 C   0  0  0  0  0  0  0  0  0  0  0  0
   -0.7673   -0.8352    1.2644 O   0  0  0  0  0  0  0  0  0  0  0  0
   -2.2643    1.1428    1.1517 H   0  0  0  0  0  0  0  0  0  0  0  0
   -2.3948    1.1434   -0.6952 H   0  0  0  0  0  0  0  0  0  0  0  0
   -0.0504    1.7836    0.9015 H   0  0  0  0  0  0  0  0  0  0  0  0
   -0.1785    1.5055   -0.9009 H   0  0  0  0  0  0  0  0  0  0  0  0
    1.7856   -1.6825    0.5335 H   0  0  0  0  0  0  0  0  0  0  0  0
    2.5090    1.4070    0.2724 H   0  0  0  0  0  0  0  0  0  0  0  0
    3.6464   -0.0274    0.5321 H   0  0  0  0  0  0  0  0  0  0  0  0
   -0.3951   -2.1108   -0.7882 H   0  0  0  0  0  0  0  0  0  0  0  0
   -0.8232   -0.5220   -1.6853 H   0  0  0  0  0  0  0  0  0  0  0  0
   -2.6265   -1.3110    0.3408 H   0  0  0  0  0  0  0  0  0  0  0  0
  1  2  1  0
  2  3  1  0
  3  4  1  0
  4  5  1  0
  5  6  1  0
  3  7  1  0
  7  8  1  0
  8  9  1  0
  8  1  1  0
  9  3  1  0
  6  4  1  0
  1 10  1  0
  1 11  1  0
  2 12  1  0
  2 13  1  0
  4 14  1  0
  5 15  1  0
  5 16  1  0
  7 17  1  0
  7 18  1  0
  8 19  1  0
M  END
