
     RDKit          3D

 23 25  0  0  0  0  0  0  0  0999 V2000
    2.2540   -0.1986    0.4612 C   0  0  0  0  0  0  0  0  0  0  0  0
    1.7034    0.8534   -0.4576 C   0  0  0  0  0  0  0  0  0  0  0  0
    0.6237    0.1256   -1.1948 C   0  0  0  0  0  0  0  0  0  0  0  0
   -0.7050    0.8675   -1.2109 C   0  0  0  0  0  0  0  0  0  0  0  0
   -1.1504   -0.0039   -0.0923 C   0  0  0  0  0  0  0  0  0  0  0  0
   -1.7648    0.4446    1.1333 C   0  0  0  0  0  0  0  0  0  0  0  0
   -2.5203   -0.4507    0.1171 C   0  0  0  0  0  0  0  0  0  0  0  0
    0.0293   -0.8851   -0.2161 C   0  0  0  0  0  0  0  0  0  0  0  0
    1.0002   -0.9284    0.9189 C   0  0  0  0  0  0  0  0  0  0  0  0
    2.6819    0.2746    1.3786 H   0  0  0  0  0  0  0  0  0  0  0  0
    2.9716   -0.8548   -0.0432 H   0  0  0  0  0  0  0  0  0  0  0  0
    2.4694    1.2197   -1.1902 H   0  0  0  0  0  0  0  0  0  0  0  0
    1.3173    1.6767    0.1753 H   0  0  0  0  0  0  0  0  0  0  0  0
    0.9183   -0.3489   -2.1289 H   0  0  0  0  0  0  0  0  0  0  0  0
   -1.1881    0.6796   -2.2047 H   0  0  0  0  0  0  0  0  0  0  0  0
   -0.5995    1.9597   -0.9852 H   0  0  0  0  0  0  0  0  0  0  0  0
   -1.5283   -0.0066    2.1156 H   0  0  0  0  0  0  0  0  0  0  0  0
   -2.2067    1.4744    1.2194 H   0  0  0  0  0  0  0  0  0  0  0  0
   -3.3451    0.0199   -0.4466 H   0  0  0  0  0  0  0  0  0  0  0  0
   -2.6567   -1.5196    0.4109 H   0  0  0  0  0  0  0  0  0  0  0  0
   -0.2299   -1.8501   -0.6894 H   0  0  0  0  0  0  0  0  0  0  0  0
    0.6113   -0.5507    1.8739 H   0  0  0  0  0  0  0  0  0  0  0  0
    1.3142   -1.9982    1.0555 H   0  0  0  0  0  0  0  0  0  0  0  0
  1  2  1  0
  2  3  1  0
  3  4  1  0
  4  5  1  0
  5  6  1  0
  6  7  1  0
  5  8  1  0
  8  9  1  0
  9  1  1  0
  8  3  1  0
  7  5  1  0
  1 10  1  0
  1 11  1  0
  2 12  1  0
  2 13  1  0
  3 14  1  0
  4 15  1  0
  4 16  1  0
  6 17  1  0
  6 18  1  0
  7 19  1  0
  7 20  1  0
  8 21  1  0
  9 22  1  0
  9 23  1  0
M  END
