
     RDKit          3D

 19 21  0  0  0  0  0  0  0  0999 V2000
    2.1988    0.6203    0.2002 C   0  0  0  0  0  0  0  0  0  0  0  0
    1.3241   -0.5352    0.7080 C   0  0  0  0  0  0  0  0  0  0  0  0
    0.4347    0.0952   -0.2905 C   0  0  0  0  0  0  0  0  0  0  0  0
   -0.5644   -0.8341   -0.9805 C   0  0  0  0  0  0  0  0  0  0  0  0
   -1.9283   -0.3830   -0.4147 C   0  0  0  0  0  0  0  0  0  0  0  0
   -1.4630    0.2324    0.8569 C   0  0  0  0  0  0  0  0  0  0  0  0
   -1.1495    1.4440    1.2167 O   0  0  0  0  0  0  0  0  0  0  0  0
   -0.4610    1.1928    0.1378 C   0  0  0  0  0  0  0  0  0  0  0  0
    1.5283    0.4452   -1.0350 O   0  0  0  0  0  0  0  0  0  0  0  0
    1.8432    1.5521    0.6525 H   0  0  0  0  0  0  0  0  0  0  0  0
    3.2655    0.4188    0.1807 H   0  0  0  0  0  0  0  0  0  0  0  0
    1.0528   -0.4716    1.7607 H   0  0  0  0  0  0  0  0  0  0  0  0
    1.7694   -1.4782    0.3479 H   0  0  0  0  0  0  0  0  0  0  0  0
   -0.6242   -0.6604   -2.0575 H   0  0  0  0  0  0  0  0  0  0  0  0
   -0.4222   -1.8806   -0.7108 H   0  0  0  0  0  0  0  0  0  0  0  0
   -2.5432   -1.2759   -0.2258 H   0  0  0  0  0  0  0  0  0  0  0  0
   -2.4007    0.3457   -1.0906 H   0  0  0  0  0  0  0  0  0  0  0  0
   -0.9848   -0.5565    1.5168 H   0  0  0  0  0  0  0  0  0  0  0  0
   -0.8756    1.7291   -0.7727 H   0  0  0  0  0  0  0  0  0  0  0  0
  1  2  1  0
  2  3  1  0
  3  4  1  0
  4  5  1  0
  5  6  1  0
  6  7  1  0
  7  8  1  0
  3  9  1  0
  9  1  1  0
  8  3  1  0
  8  6  1  0
  1 10  1  0
  1 11  1  0
  2 12  1  0
  2 13  1  0
  4 14  1  0
  4 15  1  0
  5 16  1  0
  5 17  1  0
  6 18  1  0
  8 19  1  0
M  END
