
     RDKit          3D

 17 19  0  0  0  0  0  0  0  0999 V2000
   -2.5765    0.8528    0.1739 C   0  0  0  0  0  0  0  0  0  0  0  0
   -2.1367   -0.2602   -0.5224 C   0  0  0  0  0  0  0  0  0  0  0  0
   -0.7860   -0.4453   -0.2755 C   0  0  0  0  0  0  0  0  0  0  0  0
   -0.4678    0.6035    0.5885 C   0  0  0  0  0  0  0  0  0  0  0  0
   -1.5400    1.3122    0.8070 O   0  0  0  0  0  0  0  0  0  0  0  0
    0.9678    0.5210    0.9352 C   0  0  0  0  0  0  0  0  0  0  0  0
    1.9546    0.7189   -0.1654 C   0  0  0  0  0  0  0  0  0  0  0  0
    1.5130   -0.6415    0.2440 C   0  0  0  0  0  0  0  0  0  0  0  0
    0.4205   -1.2712   -0.5423 C   0  0  0  0  0  0  0  0  0  0  0  0
   -3.5833    1.2502    0.1813 H   0  0  0  0  0  0  0  0  0  0  0  0
   -2.7263   -0.9007   -1.1622 H   0  0  0  0  0  0  0  0  0  0  0  0
    1.3012    0.8714    1.9294 H   0  0  0  0  0  0  0  0  0  0  0  0
    2.9757    1.0806    0.0994 H   0  0  0  0  0  0  0  0  0  0  0  0
    1.5414    1.1947   -1.0756 H   0  0  0  0  0  0  0  0  0  0  0  0
    2.2981   -1.3024    0.6509 H   0  0  0  0  0  0  0  0  0  0  0  0
    0.1772   -2.3006   -0.2362 H   0  0  0  0  0  0  0  0  0  0  0  0
    0.6671   -1.2835   -1.6300 H   0  0  0  0  0  0  0  0  0  0  0  0
  1  2  2  0
  2  3  1  0
  3  4  2  0
  4  5  1  0
  4  6  1  0
  6  7  1  0
  7  8  1  0
  8  9  1  0
  5  1  1  0
  8  6  1  0
  9  3  1  0
  1 10  1  0
  2 11  1  0
  6 12  1  0
  7 13  1  0
  7 14  1  0
  8 15  1  0
  9 16  1  0
  9 17  1  0
M  END
