
     RDKit          3D

 19 22  0  0  0  0  0  0  0  0999 V2000
   -0.5938    1.4511    0.2532 C   0  0  0  0  0  0  0  0  0  0  0  0
   -1.4774    0.4352   -0.3896 C   0  0  0  0  0  0  0  0  0  0  0  0
   -1.0849   -0.9272    0.0152 C   0  0  0  0  0  0  0  0  0  0  0  0
    0.0906   -1.5929   -0.7057 C   0  0  0  0  0  0  0  0  0  0  0  0
    0.8053   -0.7269   -1.4891 O   0  0  0  0  0  0  0  0  0  0  0  0
    1.4692    0.1754   -0.7196 C   0  0  0  0  0  0  0  0  0  0  0  0
    0.8635    1.2033    0.1114 C   0  0  0  0  0  0  0  0  0  0  0  0
    1.1916   -0.0947    0.7064 C   0  0  0  0  0  0  0  0  0  0  0  0
    0.1607   -1.1343    0.7079 C   0  0  0  0  0  0  0  0  0  0  0  0
   -0.8997    2.4835   -0.0608 H   0  0  0  0  0  0  0  0  0  0  0  0
   -0.8290    1.4266    1.3590 H   0  0  0  0  0  0  0  0  0  0  0  0
   -1.5433    0.5843   -1.4920 H   0  0  0  0  0  0  0  0  0  0  0  0
   -2.5261    0.6386   -0.0200 H   0  0  0  0  0  0  0  0  0  0  0  0
   -1.9085   -1.6365    0.2157 H   0  0  0  0  0  0  0  0  0  0  0  0
    0.0643   -2.6720   -0.8873 H   0  0  0  0  0  0  0  0  0  0  0  0
    2.5396    0.3305   -1.0209 H   0  0  0  0  0  0  0  0  0  0  0  0
    1.5003    2.0678    0.4141 H   0  0  0  0  0  0  0  0  0  0  0  0
    1.9778   -0.1339    1.4692 H   0  0  0  0  0  0  0  0  0  0  0  0
    0.1999   -1.8777    1.5330 H   0  0  0  0  0  0  0  0  0  0  0  0
  1  2  1  0
  2  3  1  0
  3  4  1  0
  4  5  1  0
  5  6  1  0
  6  7  1  0
  7  8  1  0
  8  9  1  0
  7  1  1  0
  9  3  1  0
  9  4  1  0
  8  6  1  0
  1 10  1  0
  1 11  1  0
  2 12  1  0
  2 13  1  0
  3 14  1  0
  4 15  1  0
  6 16  1  0
  7 17  1  0
  8 18  1  0
  9 19  1  0
M  END
