
     RDKit          3D

 21 23  0  0  0  0  0  0  0  0999 V2000
    1.3355   -1.0210   -0.0412 C   0  0  0  0  0  0  0  0  0  0  0  0
    1.5086    0.3322   -0.6217 C   0  0  0  0  0  0  0  0  0  0  0  0
    0.6298    1.3936   -0.0653 C   0  0  0  0  0  0  0  0  0  0  0  0
   -0.8307    1.3103   -0.0449 C   0  0  0  0  0  0  0  0  0  0  0  0
   -1.6083    0.1450   -0.5555 C   0  0  0  0  0  0  0  0  0  0  0  0
   -1.0866   -1.1889   -0.1761 C   0  0  0  0  0  0  0  0  0  0  0  0
    0.0788   -1.1494    0.7676 C   0  0  0  0  0  0  0  0  0  0  0  0
    0.0067   -0.1484    1.6899 O   0  0  0  0  0  0  0  0  0  0  0  0
   -0.0664    1.1169    1.1770 C   0  0  0  0  0  0  0  0  0  0  0  0
    1.2633   -1.7549   -0.8906 H   0  0  0  0  0  0  0  0  0  0  0  0
    2.1822   -1.3541    0.5926 H   0  0  0  0  0  0  0  0  0  0  0  0
    1.3721    0.3428   -1.7436 H   0  0  0  0  0  0  0  0  0  0  0  0
    2.5828    0.6263   -0.4823 H   0  0  0  0  0  0  0  0  0  0  0  0
    1.0807    2.4275   -0.1569 H   0  0  0  0  0  0  0  0  0  0  0  0
   -1.3987    2.2819   -0.1591 H   0  0  0  0  0  0  0  0  0  0  0  0
   -2.6500    0.2348   -0.1240 H   0  0  0  0  0  0  0  0  0  0  0  0
   -1.7763    0.2319   -1.6655 H   0  0  0  0  0  0  0  0  0  0  0  0
   -0.7441   -1.7549   -1.0843 H   0  0  0  0  0  0  0  0  0  0  0  0
   -1.8573   -1.8607    0.2904 H   0  0  0  0  0  0  0  0  0  0  0  0
    0.1485   -2.1198    1.3244 H   0  0  0  0  0  0  0  0  0  0  0  0
   -0.1707    1.9090    1.9693 H   0  0  0  0  0  0  0  0  0  0  0  0
  1  2  1  0
  2  3  1  0
  3  4  1  0
  4  5  1  0
  5  6  1  0
  6  7  1  0
  7  8  1  0
  8  9  1  0
  7  1  1  0
  9  3  1  0
  9  4  1  0
  1 10  1  0
  1 11  1  0
  2 12  1  0
  2 13  1  0
  3 14  1  0
  4 15  1  0
  5 16  1  0
  5 17  1  0
  6 18  1  0
  6 19  1  0
  7 20  1  0
  9 21  1  0
M  END
