
     RDKit          3D

 19 21  0  0  0  0  0  0  0  0999 V2000
    1.8615   -0.6229    0.0632 C   0  0  0  0  0  0  0  0  0  0  0  0
    1.1369    0.1539    1.1078 C   0  0  0  0  0  0  0  0  0  0  0  0
   -0.1812    0.4826    0.4773 C   0  0  0  0  0  0  0  0  0  0  0  0
   -1.4082   -0.2429    0.9340 C   0  0  0  0  0  0  0  0  0  0  0  0
   -2.1532   -0.5307   -0.1774 O   0  0  0  0  0  0  0  0  0  0  0  0
   -1.3090   -0.6482   -1.2637 C   0  0  0  0  0  0  0  0  0  0  0  0
   -0.0244    0.0573   -0.9284 C   0  0  0  0  0  0  0  0  0  0  0  0
   -0.1912    1.5082   -0.5672 C   0  0  0  0  0  0  0  0  0  0  0  0
    1.1902   -0.5069   -1.1285 O   0  0  0  0  0  0  0  0  0  0  0  0
    2.0147   -1.6935    0.3695 H   0  0  0  0  0  0  0  0  0  0  0  0
    2.8887   -0.2194   -0.0821 H   0  0  0  0  0  0  0  0  0  0  0  0
    1.6746    1.1171    1.2691 H   0  0  0  0  0  0  0  0  0  0  0  0
    0.9733   -0.4053    2.0534 H   0  0  0  0  0  0  0  0  0  0  0  0
   -1.9565    0.3190    1.7045 H   0  0  0  0  0  0  0  0  0  0  0  0
   -1.1227   -1.2250    1.4041 H   0  0  0  0  0  0  0  0  0  0  0  0
   -1.7875   -0.0460   -2.0923 H   0  0  0  0  0  0  0  0  0  0  0  0
   -1.1773   -1.6826   -1.6042 H   0  0  0  0  0  0  0  0  0  0  0  0
   -1.1196    2.0131   -0.9189 H   0  0  0  0  0  0  0  0  0  0  0  0
    0.6907    2.1720   -0.6201 H   0  0  0  0  0  0  0  0  0  0  0  0
  1  2  1  0
  2  3  1  0
  3  4  1  0
  4  5  1  0
  5  6  1  0
  6  7  1  0
  7  8  1  0
  7  9  1  0
  9  1  1  0
  7  3  1  0
  8  3  1  0
  1 10  1  0
  1 11  1  0
  2 12  1  0
  2 13  1  0
  4 14  1  0
  4 15  1  0
  6 16  1  0
  6 17  1  0
  8 18  1  0
  8 19  1  0
M  END
