
     RDKit          3D

 21 22  0  0  0  0  0  0  0  0999 V2000
    1.1055   -0.9284    1.0768 C   0  0  0  0  0  0  0  0  0  0  0  0
    1.6753   -0.0266    0.0672 C   0  0  0  0  0  0  0  0  0  0  0  0
    0.6913    0.7238   -0.7713 C   0  0  0  0  0  0  0  0  0  0  0  0
   -0.2747    1.5426    0.0147 C   0  0  0  0  0  0  0  0  0  0  0  0
   -1.5483    0.7631    0.3080 C   0  0  0  0  0  0  0  0  0  0  0  0
   -1.1018   -0.7069    0.3305 C   0  0  0  0  0  0  0  0  0  0  0  0
   -0.7468   -1.0626   -1.0735 C   0  0  0  0  0  0  0  0  0  0  0  0
    0.1049   -0.1594   -1.6569 O   0  0  0  0  0  0  0  0  0  0  0  0
   -0.2138   -0.9604    1.2851 O   0  0  0  0  0  0  0  0  0  0  0  0
    1.4649   -1.9788    0.8594 H   0  0  0  0  0  0  0  0  0  0  0  0
    1.6046   -0.6919    2.0661 H   0  0  0  0  0  0  0  0  0  0  0  0
    2.3580    0.7580    0.5127 H   0  0  0  0  0  0  0  0  0  0  0  0
    2.3499   -0.5691   -0.6610 H   0  0  0  0  0  0  0  0  0  0  0  0
    1.2908    1.4438   -1.4037 H   0  0  0  0  0  0  0  0  0  0  0  0
    0.1724    1.7705    1.0170 H   0  0  0  0  0  0  0  0  0  0  0  0
   -0.5099    2.5001   -0.4571 H   0  0  0  0  0  0  0  0  0  0  0  0
   -2.2330    0.9176   -0.5246 H   0  0  0  0  0  0  0  0  0  0  0  0
   -1.9861    1.0452    1.2741 H   0  0  0  0  0  0  0  0  0  0  0  0
   -2.0589   -1.2688    0.5547 H   0  0  0  0  0  0  0  0  0  0  0  0
   -0.4299   -2.1160   -1.1619 H   0  0  0  0  0  0  0  0  0  0  0  0
   -1.7140   -0.9957   -1.6562 H   0  0  0  0  0  0  0  0  0  0  0  0
  1  2  1  0
  2  3  1  0
  3  4  1  0
  4  5  1  0
  5  6  1  0
  6  7  1  0
  7  8  1  0
  6  9  1  0
  9  1  1  0
  8  3  1  0
  1 10  1  0
  1 11  1  0
  2 12  1  0
  2 13  1  0
  3 14  1  0
  4 15  1  0
  4 16  1  0
  5 17  1  0
  5 18  1  0
  6 19  1  0
  7 20  1  0
  7 21  1  0
M  END
