
     RDKit          3D

 18 20  0  0  0  0  0  0  0  0999 V2000
   -1.7874    0.3621    0.1260 C   0  0  0  0  0  0  0  0  0  0  0  0
   -1.1071   -0.9852    0.3531 C   0  0  0  0  0  0  0  0  0  0  0  0
    0.2847   -0.6183    0.7717 C   0  0  0  0  0  0  0  0  0  0  0  0
    1.4259   -0.9697   -0.1183 C   0  0  0  0  0  0  0  0  0  0  0  0
    1.8579    0.4744   -0.2298 C   0  0  0  0  0  0  0  0  0  0  0  0
    0.4964    0.8366    0.3799 C   0  0  0  0  0  0  0  0  0  0  0  0
   -0.6419    1.1289   -0.5184 C   0  0  0  0  0  0  0  0  0  0  0  0
    0.3611    0.4276    1.6706 O   0  0  0  0  0  0  0  0  0  0  0  0
   -2.0086    0.8021    1.1188 H   0  0  0  0  0  0  0  0  0  0  0  0
   -2.6644    0.2884   -0.5124 H   0  0  0  0  0  0  0  0  0  0  0  0
   -1.5915   -1.4924    1.2334 H   0  0  0  0  0  0  0  0  0  0  0  0
   -1.1730   -1.6356   -0.5168 H   0  0  0  0  0  0  0  0  0  0  0  0
    1.0275   -1.2906   -1.1266 H   0  0  0  0  0  0  0  0  0  0  0  0
    2.1718   -1.6768    0.2460 H   0  0  0  0  0  0  0  0  0  0  0  0
    2.6367    0.7159    0.5353 H   0  0  0  0  0  0  0  0  0  0  0  0
    2.0279    0.8550   -1.2355 H   0  0  0  0  0  0  0  0  0  0  0  0
   -0.4499    0.5938   -1.4958 H   0  0  0  0  0  0  0  0  0  0  0  0
   -0.8661    2.1837   -0.6811 H   0  0  0  0  0  0  0  0  0  0  0  0
  1  2  1  0
  2  3  1  0
  3  4  1  0
  4  5  1  0
  5  6  1  0
  6  7  1  0
  6  8  1  0
  7  1  1  0
  6  3  1  0
  8  3  1  0
  1  9  1  0
  1 10  1  0
  2 11  1  0
  2 12  1  0
  4 13  1  0
  4 14  1  0
  5 15  1  0
  5 16  1  0
  7 17  1  0
  7 18  1  0
M  END
