
     RDKit          3D

 22 23  0  0  0  0  0  0  0  0999 V2000
   -1.7310   -0.9972   -0.4187 C   0  0  0  0  0  0  0  0  0  0  0  0
   -1.7956    0.4520   -0.8135 C   0  0  0  0  0  0  0  0  0  0  0  0
   -1.2108    1.1412    0.4020 C   0  0  0  0  0  0  0  0  0  0  0  0
   -0.0471    0.2536    0.7998 C   0  0  0  0  0  0  0  0  0  0  0  0
    1.2334    0.7169    0.1986 C   0  0  0  0  0  0  0  0  0  0  0  0
    2.4460   -0.1115    0.5436 C   0  0  0  0  0  0  0  0  0  0  0  0
    1.9257    0.0499   -0.8945 C   0  0  0  0  0  0  0  0  0  0  0  0
   -0.4756   -1.1093    0.4191 C   0  0  0  0  0  0  0  0  0  0  0  0
   -2.6445   -1.2910    0.1325 H   0  0  0  0  0  0  0  0  0  0  0  0
   -1.6970   -1.6509   -1.3208 H   0  0  0  0  0  0  0  0  0  0  0  0
   -1.1209    0.5879   -1.6802 H   0  0  0  0  0  0  0  0  0  0  0  0
   -2.8196    0.7877   -1.0435 H   0  0  0  0  0  0  0  0  0  0  0  0
   -1.9453    1.1145    1.2226 H   0  0  0  0  0  0  0  0  0  0  0  0
   -0.8802    2.1658    0.1951 H   0  0  0  0  0  0  0  0  0  0  0  0
    0.0604    0.3520    1.9202 H   0  0  0  0  0  0  0  0  0  0  0  0
    1.4190    1.8175    0.3335 H   0  0  0  0  0  0  0  0  0  0  0  0
    3.4034    0.3935    0.8010 H   0  0  0  0  0  0  0  0  0  0  0  0
    2.2804   -1.1421    0.9499 H   0  0  0  0  0  0  0  0  0  0  0  0
    2.5592    0.6965   -1.5713 H   0  0  0  0  0  0  0  0  0  0  0  0
    1.5572   -0.8412   -1.4185 H   0  0  0  0  0  0  0  0  0  0  0  0
   -0.7798   -1.6660    1.3521 H   0  0  0  0  0  0  0  0  0  0  0  0
    0.2626   -1.7196   -0.1090 H   0  0  0  0  0  0  0  0  0  0  0  0
  1  2  1  0
  2  3  1  0
  3  4  1  0
  4  5  1  0
  5  6  1  0
  6  7  1  0
  4  8  1  0
  8  1  1  0
  7  5  1  0
  1  9  1  0
  1 10  1  0
  2 11  1  0
  2 12  1  0
  3 13  1  0
  3 14  1  0
  4 15  1  0
  5 16  1  0
  6 17  1  0
  6 18  1  0
  7 19  1  0
  7 20  1  0
  8 21  1  0
  8 22  1  0
M  END
