
     RDKit          3D

 23 24  0  0  0  0  0  0  0  0999 V2000
   -1.8145    0.8636    0.0167 C   0  0  0  0  0  0  0  0  0  0  0  0
   -0.6049    1.2355   -0.8083 C   0  0  0  0  0  0  0  0  0  0  0  0
    0.5939    1.2024    0.0833 C   0  0  0  0  0  0  0  0  0  0  0  0
    1.3761   -0.0483   -0.1411 C   0  0  0  0  0  0  0  0  0  0  0  0
    2.2258   -0.3268    1.1052 C   0  0  0  0  0  0  0  0  0  0  0  0
    1.0976   -0.9854    1.6240 O   0  0  0  0  0  0  0  0  0  0  0  0
    0.7263   -1.2940    0.3362 C   0  0  0  0  0  0  0  0  0  0  0  0
   -0.7396   -1.3904    0.0517 C   0  0  0  0  0  0  0  0  0  0  0  0
   -1.5810   -0.4066    0.7877 C   0  0  0  0  0  0  0  0  0  0  0  0
   -2.7459    0.8477   -0.5665 H   0  0  0  0  0  0  0  0  0  0  0  0
   -1.9365    1.6786    0.7741 H   0  0  0  0  0  0  0  0  0  0  0  0
   -0.7628    2.2744   -1.1850 H   0  0  0  0  0  0  0  0  0  0  0  0
   -0.4303    0.5431   -1.6527 H   0  0  0  0  0  0  0  0  0  0  0  0
    0.3204    1.2946    1.1617 H   0  0  0  0  0  0  0  0  0  0  0  0
    1.3003    2.0647   -0.1028 H   0  0  0  0  0  0  0  0  0  0  0  0
    1.9203   -0.1069   -1.0894 H   0  0  0  0  0  0  0  0  0  0  0  0
    3.0719   -0.9565    0.8479 H   0  0  0  0  0  0  0  0  0  0  0  0
    2.4422    0.5978    1.6968 H   0  0  0  0  0  0  0  0  0  0  0  0
    1.2472   -2.1899   -0.0924 H   0  0  0  0  0  0  0  0  0  0  0  0
   -1.0610   -2.4242    0.3531 H   0  0  0  0  0  0  0  0  0  0  0  0
   -0.8991   -1.3466   -1.0442 H   0  0  0  0  0  0  0  0  0  0  0  0
   -2.5908   -0.8751    0.9391 H   0  0  0  0  0  0  0  0  0  0  0  0
   -1.1556   -0.2518    1.7876 H   0  0  0  0  0  0  0  0  0  0  0  0
  1  2  1  0
  2  3  1  0
  3  4  1  0
  4  5  1  0
  5  6  1  0
  6  7  1  0
  7  8  1  0
  8  9  1  0
  9  1  1  0
  7  4  1  0
  1 10  1  0
  1 11  1  0
  2 12  1  0
  2 13  1  0
  3 14  1  0
  3 15  1  0
  4 16  1  0
  5 17  1  0
  5 18  1  0
  7 19  1  0
  8 20  1  0
  8 21  1  0
  9 22  1  0
  9 23  1  0
M  END
