
     RDKit          3D

 23 24  0  0  0  0  0  0  0  0999 V2000
    2.5264   -0.6276   -1.1421 C   0  0  0  0  0  0  0  0  0  0  0  0
    2.7012   -0.4270    0.3494 C   0  0  0  0  0  0  0  0  0  0  0  0
    2.0533    0.5958   -0.4653 C   0  0  0  0  0  0  0  0  0  0  0  0
    0.5882    0.9153   -0.3661 C   0  0  0  0  0  0  0  0  0  0  0  0
   -0.2168   -0.0997    0.3493 C   0  0  0  0  0  0  0  0  0  0  0  0
   -1.6645    0.3319    0.3873 C   0  0  0  0  0  0  0  0  0  0  0  0
   -2.3512    0.5239   -0.9238 C   0  0  0  0  0  0  0  0  0  0  0  0
   -2.9060   -0.7747   -0.8955 O   0  0  0  0  0  0  0  0  0  0  0  0
   -2.6525   -0.8006    0.4661 C   0  0  0  0  0  0  0  0  0  0  0  0
    3.4118   -0.5678   -1.8072 H   0  0  0  0  0  0  0  0  0  0  0  0
    1.8474   -1.4612   -1.3963 H   0  0  0  0  0  0  0  0  0  0  0  0
    2.1704   -1.0978    1.0475 H   0  0  0  0  0  0  0  0  0  0  0  0
    3.7770   -0.2926    0.6435 H   0  0  0  0  0  0  0  0  0  0  0  0
    2.6733    1.5178   -0.6719 H   0  0  0  0  0  0  0  0  0  0  0  0
    0.4717    1.8902    0.1400 H   0  0  0  0  0  0  0  0  0  0  0  0
    0.2167    1.0219   -1.3945 H   0  0  0  0  0  0  0  0  0  0  0  0
   -0.2015   -1.0474   -0.2645 H   0  0  0  0  0  0  0  0  0  0  0  0
    0.1102   -0.3006    1.3813 H   0  0  0  0  0  0  0  0  0  0  0  0
   -1.8975    1.0966    1.1578 H   0  0  0  0  0  0  0  0  0  0  0  0
   -1.7262    0.6630   -1.8061 H   0  0  0  0  0  0  0  0  0  0  0  0
   -3.1922    1.2524   -0.8510 H   0  0  0  0  0  0  0  0  0  0  0  0
   -2.1784   -1.7597    0.7839 H   0  0  0  0  0  0  0  0  0  0  0  0
   -3.5607   -0.5518    1.0506 H   0  0  0  0  0  0  0  0  0  0  0  0
  1  2  1  0
  2  3  1  0
  3  4  1  0
  4  5  1  0
  5  6  1  0
  6  7  1  0
  7  8  1  0
  8  9  1  0
  3  1  1  0
  9  6  1  0
  1 10  1  0
  1 11  1  0
  2 12  1  0
  2 13  1  0
  3 14  1  0
  4 15  1  0
  4 16  1  0
  5 17  1  0
  5 18  1  0
  6 19  1  0
  7 20  1  0
  7 21  1  0
  9 22  1  0
  9 23  1  0
M  END
