
     RDKit          3D

 23 25  0  0  0  0  0  0  0  0999 V2000
   -0.6976   -1.0802   -0.8420 C   0  0  0  0  0  0  0  0  0  0  0  0
    0.4240   -1.5856   -0.0270 C   0  0  0  0  0  0  0  0  0  0  0  0
    1.4668   -0.6349    0.3670 C   0  0  0  0  0  0  0  0  0  0  0  0
    1.8467    0.3828   -0.7008 C   0  0  0  0  0  0  0  0  0  0  0  0
    1.1955    0.7505    0.5892 C   0  0  0  0  0  0  0  0  0  0  0  0
   -0.1854    1.2409    0.6813 C   0  0  0  0  0  0  0  0  0  0  0  0
   -1.1867    0.2526    1.2314 C   0  0  0  0  0  0  0  0  0  0  0  0
   -1.5660   -0.0676   -0.1842 C   0  0  0  0  0  0  0  0  0  0  0  0
   -0.9758    1.2981   -0.5698 C   0  0  0  0  0  0  0  0  0  0  0  0
   -1.3585   -1.9657   -1.0843 H   0  0  0  0  0  0  0  0  0  0  0  0
   -0.3944   -0.6968   -1.8486 H   0  0  0  0  0  0  0  0  0  0  0  0
    0.9230   -2.4052   -0.6322 H   0  0  0  0  0  0  0  0  0  0  0  0
   -0.0219   -2.1607    0.8378 H   0  0  0  0  0  0  0  0  0  0  0  0
    2.3135   -1.1251    0.9368 H   0  0  0  0  0  0  0  0  0  0  0  0
    2.9568    0.5033   -0.8214 H   0  0  0  0  0  0  0  0  0  0  0  0
    1.3251    0.3787   -1.6544 H   0  0  0  0  0  0  0  0  0  0  0  0
    1.9102    1.2950    1.2844 H   0  0  0  0  0  0  0  0  0  0  0  0
   -0.3140    2.2086    1.2506 H   0  0  0  0  0  0  0  0  0  0  0  0
   -2.0399    0.7088    1.7685 H   0  0  0  0  0  0  0  0  0  0  0  0
   -0.6992   -0.5138    1.8245 H   0  0  0  0  0  0  0  0  0  0  0  0
   -2.6460   -0.1476   -0.3287 H   0  0  0  0  0  0  0  0  0  0  0  0
   -1.8053    2.0330   -0.5496 H   0  0  0  0  0  0  0  0  0  0  0  0
   -0.4708    1.3310   -1.5287 H   0  0  0  0  0  0  0  0  0  0  0  0
  1  2  1  0
  2  3  1  0
  3  4  1  0
  4  5  1  0
  5  6  1  0
  6  7  1  0
  7  8  1  0
  8  9  1  0
  8  1  1  0
  5  3  1  0
  9  6  1  0
  1 10  1  0
  1 11  1  0
  2 12  1  0
  2 13  1  0
  3 14  1  0
  4 15  1  0
  4 16  1  0
  5 17  1  0
  6 18  1  0
  7 19  1  0
  7 20  1  0
  8 21  1  0
  9 22  1  0
  9 23  1  0
M  END
