
     RDKit          3D

 19 21  0  0  0  0  0  0  0  0999 V2000
    2.2661   -0.1674    0.6718 C   0  0  0  0  0  0  0  0  0  0  0  0
    1.5810   -0.6384   -0.5872 C   0  0  0  0  0  0  0  0  0  0  0  0
    0.5938    0.3753   -0.1423 C   0  0  0  0  0  0  0  0  0  0  0  0
   -0.2911    1.1213   -1.0341 C   0  0  0  0  0  0  0  0  0  0  0  0
   -0.8123    0.2194   -0.0267 C   0  0  0  0  0  0  0  0  0  0  0  0
   -1.7033    0.5378    1.0844 C   0  0  0  0  0  0  0  0  0  0  0  0
   -2.3149   -0.7255    0.9015 O   0  0  0  0  0  0  0  0  0  0  0  0
   -1.6225   -0.9957   -0.2982 C   0  0  0  0  0  0  0  0  0  0  0  0
    1.4487    0.9706    0.7522 O   0  0  0  0  0  0  0  0  0  0  0  0
    2.1779   -0.8566    1.5427 H   0  0  0  0  0  0  0  0  0  0  0  0
    3.3337    0.1090    0.5544 H   0  0  0  0  0  0  0  0  0  0  0  0
    2.2085   -0.4063   -1.4611 H   0  0  0  0  0  0  0  0  0  0  0  0
    1.2441   -1.7080   -0.5619 H   0  0  0  0  0  0  0  0  0  0  0  0
   -0.4880    2.2191   -0.9142 H   0  0  0  0  0  0  0  0  0  0  0  0
   -0.4572    0.8080   -2.1068 H   0  0  0  0  0  0  0  0  0  0  0  0
   -2.4472    1.3405    0.9862 H   0  0  0  0  0  0  0  0  0  0  0  0
   -1.2648    0.5553    2.1107 H   0  0  0  0  0  0  0  0  0  0  0  0
   -2.3426   -0.7974   -1.1393 H   0  0  0  0  0  0  0  0  0  0  0  0
   -1.1101   -1.9612   -0.3321 H   0  0  0  0  0  0  0  0  0  0  0  0
  1  2  1  0
  2  3  1  0
  3  4  1  0
  4  5  1  0
  5  6  1  0
  6  7  1  0
  7  8  1  0
  3  9  1  0
  9  1  1  0
  5  3  1  0
  8  5  1  0
  1 10  1  0
  1 11  1  0
  2 12  1  0
  2 13  1  0
  4 14  1  0
  4 15  1  0
  6 16  1  0
  6 17  1  0
  8 18  1  0
  8 19  1  0
M  END
