
     RDKit          3D

 23 25  0  0  0  0  0  0  0  0999 V2000
    2.6698   -0.0635   -0.1067 C   0  0  0  0  0  0  0  0  0  0  0  0
    1.6049   -0.6502    0.8027 C   0  0  0  0  0  0  0  0  0  0  0  0
    0.6034    0.3803    0.3909 C   0  0  0  0  0  0  0  0  0  0  0  0
   -0.6115   -0.0818   -0.3127 C   0  0  0  0  0  0  0  0  0  0  0  0
   -1.5933    0.9811   -0.7101 C   0  0  0  0  0  0  0  0  0  0  0  0
   -2.5287    0.4463    0.3496 C   0  0  0  0  0  0  0  0  0  0  0  0
   -1.6589   -0.7438    0.6158 C   0  0  0  0  0  0  0  0  0  0  0  0
   -0.9906   -1.4674   -0.5292 C   0  0  0  0  0  0  0  0  0  0  0  0
    1.6254    0.9235   -0.5889 C   0  0  0  0  0  0  0  0  0  0  0  0
    3.0349   -0.7661   -0.8589 H   0  0  0  0  0  0  0  0  0  0  0  0
    3.5063    0.4332    0.4454 H   0  0  0  0  0  0  0  0  0  0  0  0
    1.3735   -1.6992    0.5393 H   0  0  0  0  0  0  0  0  0  0  0  0
    1.9400   -0.5939    1.8584 H   0  0  0  0  0  0  0  0  0  0  0  0
    0.4096    1.1092    1.2181 H   0  0  0  0  0  0  0  0  0  0  0  0
   -1.2537    2.0086   -0.5017 H   0  0  0  0  0  0  0  0  0  0  0  0
   -1.9373    0.8036   -1.7603 H   0  0  0  0  0  0  0  0  0  0  0  0
   -3.5046    0.1819   -0.0590 H   0  0  0  0  0  0  0  0  0  0  0  0
   -2.5643    1.0895    1.2772 H   0  0  0  0  0  0  0  0  0  0  0  0
   -1.3467   -0.9850    1.6407 H   0  0  0  0  0  0  0  0  0  0  0  0
   -0.4031   -2.3406   -0.2628 H   0  0  0  0  0  0  0  0  0  0  0  0
   -1.6996   -1.6591   -1.3835 H   0  0  0  0  0  0  0  0  0  0  0  0
    1.3953    0.7151   -1.6547 H   0  0  0  0  0  0  0  0  0  0  0  0
    1.9293    1.9782   -0.4097 H   0  0  0  0  0  0  0  0  0  0  0  0
  1  2  1  0
  2  3  1  0
  3  4  1  0
  4  5  1  0
  5  6  1  0
  6  7  1  0
  7  8  1  0
  3  9  1  0
  9  1  1  0
  7  4  1  0
  8  4  1  0
  1 10  1  0
  1 11  1  0
  2 12  1  0
  2 13  1  0
  3 14  1  0
  5 15  1  0
  5 16  1  0
  6 17  1  0
  6 18  1  0
  7 19  1  0
  8 20  1  0
  8 21  1  0
  9 22  1  0
  9 23  1  0
M  END
