
     RDKit          3D

 19 21  0  0  0  0  0  0  0  0999 V2000
   -0.1571    1.1572   -0.5364 C   0  0  0  0  0  0  0  0  0  0  0  0
   -1.5903    0.6131   -0.3907 C   0  0  0  0  0  0  0  0  0  0  0  0
   -1.5180   -0.2919    0.7618 C   0  0  0  0  0  0  0  0  0  0  0  0
   -1.7981   -1.5578    0.9578 O   0  0  0  0  0  0  0  0  0  0  0  0
   -0.7607   -1.5021    0.1542 C   0  0  0  0  0  0  0  0  0  0  0  0
    0.6365   -1.0966    0.3044 C   0  0  0  0  0  0  0  0  0  0  0  0
    0.9686   -0.2389    1.3531 O   0  0  0  0  0  0  0  0  0  0  0  0
    1.9305    0.3057    0.4692 C   0  0  0  0  0  0  0  0  0  0  0  0
    0.8747    0.0969   -0.6262 C   0  0  0  0  0  0  0  0  0  0  0  0
   -0.0315    1.8151    0.3754 H   0  0  0  0  0  0  0  0  0  0  0  0
   -0.0656    1.8192   -1.3957 H   0  0  0  0  0  0  0  0  0  0  0  0
   -1.7793    0.0886   -1.3729 H   0  0  0  0  0  0  0  0  0  0  0  0
   -2.2673    1.4610   -0.3254 H   0  0  0  0  0  0  0  0  0  0  0  0
   -1.0328    0.2011    1.6573 H   0  0  0  0  0  0  0  0  0  0  0  0
   -1.0161   -1.7720   -0.9147 H   0  0  0  0  0  0  0  0  0  0  0  0
    1.4090   -1.8475    0.1549 H   0  0  0  0  0  0  0  0  0  0  0  0
    2.7223   -0.4417    0.3245 H   0  0  0  0  0  0  0  0  0  0  0  0
    2.2082    1.3354    0.6565 H   0  0  0  0  0  0  0  0  0  0  0  0
    1.2671   -0.1450   -1.6073 H   0  0  0  0  0  0  0  0  0  0  0  0
  1  2  1  0
  2  3  1  0
  3  4  1  0
  4  5  1  0
  5  6  1  0
  6  7  1  0
  7  8  1  0
  8  9  1  0
  9  1  1  0
  5  3  1  0
  9  6  1  0
  1 10  1  0
  1 11  1  0
  2 12  1  0
  2 13  1  0
  3 14  1  0
  5 15  1  0
  6 16  1  0
  8 17  1  0
  8 18  1  0
  9 19  1  0
M  END
