
     RDKit          3D

 25 26  0  0  0  0  0  0  0  0999 V2000
   -2.2123   -0.9523    0.1758 C   0  0  0  0  0  0  0  0  0  0  0  0
   -2.6058    0.5164    0.3590 C   0  0  0  0  0  0  0  0  0  0  0  0
   -1.3325    1.2112   -0.0127 C   0  0  0  0  0  0  0  0  0  0  0  0
   -0.2580    0.3319    0.5344 C   0  0  0  0  0  0  0  0  0  0  0  0
    0.8100   -0.0143   -0.4725 C   0  0  0  0  0  0  0  0  0  0  0  0
    1.8506   -0.9114    0.1906 C   0  0  0  0  0  0  0  0  0  0  0  0
    2.8925   -0.1396   -0.5985 C   0  0  0  0  0  0  0  0  0  0  0  0
    1.8925    1.0085   -0.6537 C   0  0  0  0  0  0  0  0  0  0  0  0
   -0.9095   -0.9748    0.9508 C   0  0  0  0  0  0  0  0  0  0  0  0
   -1.9709   -1.1240   -0.9000 H   0  0  0  0  0  0  0  0  0  0  0  0
   -2.9613   -1.6385    0.5780 H   0  0  0  0  0  0  0  0  0  0  0  0
   -3.4712    0.7968   -0.2402 H   0  0  0  0  0  0  0  0  0  0  0  0
   -2.7504    0.6619    1.4576 H   0  0  0  0  0  0  0  0  0  0  0  0
   -1.3437    2.2245    0.4609 H   0  0  0  0  0  0  0  0  0  0  0  0
   -1.2366    1.3900   -1.1070 H   0  0  0  0  0  0  0  0  0  0  0  0
    0.1919    0.8446    1.4062 H   0  0  0  0  0  0  0  0  0  0  0  0
    0.4334   -0.4096   -1.4179 H   0  0  0  0  0  0  0  0  0  0  0  0
    1.7240   -1.9595   -0.0770 H   0  0  0  0  0  0  0  0  0  0  0  0
    1.9463   -0.6903    1.2799 H   0  0  0  0  0  0  0  0  0  0  0  0
    3.8196    0.0869   -0.0517 H   0  0  0  0  0  0  0  0  0  0  0  0
    3.0183   -0.6257   -1.5879 H   0  0  0  0  0  0  0  0  0  0  0  0
    1.8824    1.4415   -1.6871 H   0  0  0  0  0  0  0  0  0  0  0  0
    1.9957    1.7482    0.1588 H   0  0  0  0  0  0  0  0  0  0  0  0
   -1.1140   -0.9711    2.0340 H   0  0  0  0  0  0  0  0  0  0  0  0
   -0.2912   -1.8512    0.7348 H   0  0  0  0  0  0  0  0  0  0  0  0
  1  2  1  0
  2  3  1  0
  3  4  1  0
  4  5  1  0
  5  6  1  0
  6  7  1  0
  7  8  1  0
  4  9  1  0
  9  1  1  0
  8  5  1  0
  1 10  1  0
  1 11  1  0
  2 12  1  0
  2 13  1  0
  3 14  1  0
  3 15  1  0
  4 16  1  0
  5 17  1  0
  6 18  1  0
  6 19  1  0
  7 20  1  0
  7 21  1  0
  8 22  1  0
  8 23  1  0
  9 24  1  0
  9 25  1  0
M  END
