
     RDKit          3D

 25 26  0  0  0  0  0  0  0  0999 V2000
    1.4287   -1.1076    0.3504 C   0  0  0  0  0  0  0  0  0  0  0  0
    1.8121    0.0457   -0.5213 C   0  0  0  0  0  0  0  0  0  0  0  0
    1.1882    1.3445   -0.2333 C   0  0  0  0  0  0  0  0  0  0  0  0
    0.0901    1.3869    0.7677 C   0  0  0  0  0  0  0  0  0  0  0  0
   -1.2819    1.2170    0.2277 C   0  0  0  0  0  0  0  0  0  0  0  0
   -1.5561    0.6030   -1.0978 C   0  0  0  0  0  0  0  0  0  0  0  0
   -1.8484   -0.1166    0.1509 C   0  0  0  0  0  0  0  0  0  0  0  0
   -1.0661   -1.2526    0.6770 C   0  0  0  0  0  0  0  0  0  0  0  0
    0.1072   -1.7004   -0.1265 C   0  0  0  0  0  0  0  0  0  0  0  0
    1.4533   -0.9166    1.4243 H   0  0  0  0  0  0  0  0  0  0  0  0
    2.2207   -1.9018    0.1833 H   0  0  0  0  0  0  0  0  0  0  0  0
    2.9424    0.1110   -0.5014 H   0  0  0  0  0  0  0  0  0  0  0  0
    1.6082   -0.2889   -1.5831 H   0  0  0  0  0  0  0  0  0  0  0  0
    0.7626    1.7596   -1.1963 H   0  0  0  0  0  0  0  0  0  0  0  0
    2.0081    2.0862    0.0110 H   0  0  0  0  0  0  0  0  0  0  0  0
    0.2180    0.6820    1.6258 H   0  0  0  0  0  0  0  0  0  0  0  0
    0.1927    2.3931    1.2866 H   0  0  0  0  0  0  0  0  0  0  0  0
   -1.9796    2.0751    0.4745 H   0  0  0  0  0  0  0  0  0  0  0  0
   -2.3996    1.0018   -1.7163 H   0  0  0  0  0  0  0  0  0  0  0  0
   -0.6975    0.3444   -1.7693 H   0  0  0  0  0  0  0  0  0  0  0  0
   -2.9583   -0.1870    0.3850 H   0  0  0  0  0  0  0  0  0  0  0  0
   -1.7480   -2.1543    0.7659 H   0  0  0  0  0  0  0  0  0  0  0  0
   -0.7168   -1.1178    1.7450 H   0  0  0  0  0  0  0  0  0  0  0  0
    0.0165   -1.4770   -1.2221 H   0  0  0  0  0  0  0  0  0  0  0  0
    0.2033   -2.8296   -0.1076 H   0  0  0  0  0  0  0  0  0  0  0  0
  1  2  1  0
  2  3  1  0
  3  4  1  0
  4  5  1  0
  5  6  1  0
  6  7  1  0
  7  8  1  0
  8  9  1  0
  9  1  1  0
  7  5  1  0
  1 10  1  0
  1 11  1  0
  2 12  1  0
  2 13  1  0
  3 14  1  0
  3 15  1  0
  4 16  1  0
  4 17  1  0
  5 18  1  0
  6 19  1  0
  6 20  1  0
  7 21  1  0
  8 22  1  0
  8 23  1  0
  9 24  1  0
  9 25  1  0
M  END
