
     RDKit          3D

 14 15  0  0  0  0  0  0  0  0999 V2000
    1.0986    0.7619    0.6007 C   0  0  0  0  0  0  0  0  0  0  0  0
    1.3123   -0.3460   -0.4643 C   0  0  0  0  0  0  0  0  0  0  0  0
    0.0230    0.0682   -0.0013 C   0  0  0  0  0  0  0  0  0  0  0  0
   -0.9447   -0.8741    0.5811 C   0  0  0  0  0  0  0  0  0  0  0  0
   -1.7020   -0.7638   -0.6075 O   0  0  0  0  0  0  0  0  0  0  0  0
   -1.1421    0.5256   -0.7382 C   0  0  0  0  0  0  0  0  0  0  0  0
    1.3739    1.7911    0.2400 H   0  0  0  0  0  0  0  0  0  0  0  0
    1.5530    0.5443    1.5838 H   0  0  0  0  0  0  0  0  0  0  0  0
    1.7013   -0.0300   -1.4447 H   0  0  0  0  0  0  0  0  0  0  0  0
    1.7222   -1.3196   -0.0735 H   0  0  0  0  0  0  0  0  0  0  0  0
   -1.5851   -0.5243    1.4188 H   0  0  0  0  0  0  0  0  0  0  0  0
   -0.6213   -1.9089    0.7923 H   0  0  0  0  0  0  0  0  0  0  0  0
   -1.7873    1.2124   -0.1125 H   0  0  0  0  0  0  0  0  0  0  0  0
   -1.0018    0.8631   -1.7749 H   0  0  0  0  0  0  0  0  0  0  0  0
  1  2  1  0
  2  3  1  0
  3  4  1  0
  4  5  1  0
  5  6  1  0
  3  1  1  0
  6  3  1  0
  1  7  1  0
  1  8  1  0
  2  9  1  0
  2 10  1  0
  4 11  1  0
  4 12  1  0
  6 13  1  0
  6 14  1  0
M  END
