
     RDKit          3D

 19 21  0  0  0  0  0  0  0  0999 V2000
    2.4878    0.8081   -0.4405 C   0  0  0  0  0  0  0  0  0  0  0  0
    1.7131   -0.2114    0.4016 C   0  0  0  0  0  0  0  0  0  0  0  0
    0.5999    0.4098   -0.3733 C   0  0  0  0  0  0  0  0  0  0  0  0
   -0.5749   -0.4815   -0.6946 C   0  0  0  0  0  0  0  0  0  0  0  0
   -1.2056   -0.9902    0.5851 C   0  0  0  0  0  0  0  0  0  0  0  0
   -2.3076    0.0229    0.4995 C   0  0  0  0  0  0  0  0  0  0  0  0
   -2.0510    1.3035    0.0489 O   0  0  0  0  0  0  0  0  0  0  0  0
   -1.8105    0.3564   -0.9101 C   0  0  0  0  0  0  0  0  0  0  0  0
    1.4950    0.6092   -1.4280 O   0  0  0  0  0  0  0  0  0  0  0  0
    3.4742    0.4558   -0.7328 H   0  0  0  0  0  0  0  0  0  0  0  0
    2.4638    1.8186    0.0176 H   0  0  0  0  0  0  0  0  0  0  0  0
    2.0302   -1.2220    0.0852 H   0  0  0  0  0  0  0  0  0  0  0  0
    1.8028    0.0303    1.4614 H   0  0  0  0  0  0  0  0  0  0  0  0
    0.3164    1.3856    0.0710 H   0  0  0  0  0  0  0  0  0  0  0  0
   -0.4159   -1.2297   -1.4708 H   0  0  0  0  0  0  0  0  0  0  0  0
   -1.5914   -2.0217    0.5420 H   0  0  0  0  0  0  0  0  0  0  0  0
   -0.5349   -0.8907    1.4707 H   0  0  0  0  0  0  0  0  0  0  0  0
   -3.3554   -0.2559    0.6326 H   0  0  0  0  0  0  0  0  0  0  0  0
   -2.5360    0.1028   -1.6898 H   0  0  0  0  0  0  0  0  0  0  0  0
  1  2  1  0
  2  3  1  0
  3  4  1  0
  4  5  1  0
  5  6  1  0
  6  7  1  0
  7  8  1  0
  3  9  1  0
  9  1  1  0
  8  4  1  0
  8  6  1  0
  1 10  1  0
  1 11  1  0
  2 12  1  0
  2 13  1  0
  3 14  1  0
  4 15  1  0
  5 16  1  0
  5 17  1  0
  6 18  1  0
  8 19  1  0
M  END
