
     RDKit          3D

 21 23  0  0  0  0  0  0  0  0999 V2000
   -1.4237   -0.7826    0.6503 C   0  0  0  0  0  0  0  0  0  0  0  0
   -1.7759    0.4885   -0.0733 C   0  0  0  0  0  0  0  0  0  0  0  0
   -0.6131    1.3853   -0.3272 C   0  0  0  0  0  0  0  0  0  0  0  0
    0.6563    0.7107   -0.6638 C   0  0  0  0  0  0  0  0  0  0  0  0
    1.9117    0.9417    0.1497 C   0  0  0  0  0  0  0  0  0  0  0  0
    1.8904   -0.5583    0.4498 C   0  0  0  0  0  0  0  0  0  0  0  0
    0.7737   -0.6864   -0.5399 C   0  0  0  0  0  0  0  0  0  0  0  0
   -0.4191   -1.5216   -0.2448 C   0  0  0  0  0  0  0  0  0  0  0  0
    0.8278   -0.0740   -1.7688 O   0  0  0  0  0  0  0  0  0  0  0  0
   -1.0518   -0.6394    1.6630 H   0  0  0  0  0  0  0  0  0  0  0  0
   -2.3322   -1.4253    0.6542 H   0  0  0  0  0  0  0  0  0  0  0  0
   -2.5251    1.0373    0.5252 H   0  0  0  0  0  0  0  0  0  0  0  0
   -2.2792    0.1814   -1.0281 H   0  0  0  0  0  0  0  0  0  0  0  0
   -0.4560    2.0037    0.5866 H   0  0  0  0  0  0  0  0  0  0  0  0
   -0.8910    2.0555   -1.1848 H   0  0  0  0  0  0  0  0  0  0  0  0
    1.7330    1.5937    1.0016 H   0  0  0  0  0  0  0  0  0  0  0  0
    2.7651    1.2296   -0.5250 H   0  0  0  0  0  0  0  0  0  0  0  0
    1.5442   -0.6892    1.5041 H   0  0  0  0  0  0  0  0  0  0  0  0
    2.8450   -1.0279    0.1994 H   0  0  0  0  0  0  0  0  0  0  0  0
   -0.1988   -2.5142    0.1710 H   0  0  0  0  0  0  0  0  0  0  0  0
   -0.9813   -1.7083   -1.1992 H   0  0  0  0  0  0  0  0  0  0  0  0
  1  2  1  0
  2  3  1  0
  3  4  1  0
  4  5  1  0
  5  6  1  0
  6  7  1  0
  7  8  1  0
  7  9  1  0
  8  1  1  0
  7  4  1  0
  9  4  1  0
  1 10  1  0
  1 11  1  0
  2 12  1  0
  2 13  1  0
  3 14  1  0
  3 15  1  0
  5 16  1  0
  5 17  1  0
  6 18  1  0
  6 19  1  0
  8 20  1  0
  8 21  1  0
M  END
