
     RDKit          3D

 21 23  0  0  0  0  0  0  0  0999 V2000
   -0.6424    1.2717    0.4390 C   0  0  0  0  0  0  0  0  0  0  0  0
    0.2703    1.3545   -0.7419 C   0  0  0  0  0  0  0  0  0  0  0  0
    1.2731    0.2361   -0.7070 C   0  0  0  0  0  0  0  0  0  0  0  0
    1.5705   -0.1420    0.7402 C   0  0  0  0  0  0  0  0  0  0  0  0
    0.3486   -0.9892    0.7161 C   0  0  0  0  0  0  0  0  0  0  0  0
   -0.9310   -0.1661    0.8149 C   0  0  0  0  0  0  0  0  0  0  0  0
   -1.7057   -0.8263   -0.3350 C   0  0  0  0  0  0  0  0  0  0  0  0
   -0.7709   -0.9077   -1.3333 O   0  0  0  0  0  0  0  0  0  0  0  0
    0.4735   -1.0697   -0.8046 C   0  0  0  0  0  0  0  0  0  0  0  0
   -1.5942    1.7918    0.1568 H   0  0  0  0  0  0  0  0  0  0  0  0
   -0.2611    1.8022    1.3243 H   0  0  0  0  0  0  0  0  0  0  0  0
   -0.3535    1.1994   -1.6669 H   0  0  0  0  0  0  0  0  0  0  0  0
    0.7449    2.3581   -0.7714 H   0  0  0  0  0  0  0  0  0  0  0  0
    2.1316    0.3039   -1.3685 H   0  0  0  0  0  0  0  0  0  0  0  0
    1.5121    0.6976    1.4580 H   0  0  0  0  0  0  0  0  0  0  0  0
    2.4793   -0.7442    0.7902 H   0  0  0  0  0  0  0  0  0  0  0  0
    0.3505   -1.9351    1.2436 H   0  0  0  0  0  0  0  0  0  0  0  0
   -1.4351   -0.2628    1.7696 H   0  0  0  0  0  0  0  0  0  0  0  0
   -2.5919   -0.2502   -0.6064 H   0  0  0  0  0  0  0  0  0  0  0  0
   -1.9714   -1.8457    0.0582 H   0  0  0  0  0  0  0  0  0  0  0  0
    1.1029   -1.8764   -1.1760 H   0  0  0  0  0  0  0  0  0  0  0  0
  1  2  1  0
  2  3  1  0
  3  4  1  0
  4  5  1  0
  5  6  1  0
  6  7  1  0
  7  8  1  0
  8  9  1  0
  6  1  1  0
  9  3  1  0
  9  5  1  0
  1 10  1  0
  1 11  1  0
  2 12  1  0
  2 13  1  0
  3 14  1  0
  4 15  1  0
  4 16  1  0
  5 17  1  0
  6 18  1  0
  7 19  1  0
  7 20  1  0
  9 21  1  0
M  END
