
     RDKit          3D

 18 20  0  0  0  0  0  0  0  0999 V2000
   -2.0807    0.6837    0.3757 C   0  0  0  0  0  0  0  0  0  0  0  0
   -2.2129   -0.7713   -0.0101 C   0  0  0  0  0  0  0  0  0  0  0  0
   -0.9398   -0.3032    0.5683 C   0  0  0  0  0  0  0  0  0  0  0  0
    0.2751   -0.0419   -0.2657 C   0  0  0  0  0  0  0  0  0  0  0  0
    1.4657   -0.9348   -0.1730 C   0  0  0  0  0  0  0  0  0  0  0  0
    2.4039    0.2768   -0.1062 C   0  0  0  0  0  0  0  0  0  0  0  0
    1.1814    1.1277    0.0689 C   0  0  0  0  0  0  0  0  0  0  0  0
    0.3068    1.1270   -1.0036 O   0  0  0  0  0  0  0  0  0  0  0  0
   -1.9969    1.4503   -0.4151 H   0  0  0  0  0  0  0  0  0  0  0  0
   -2.6169    1.0351    1.2983 H   0  0  0  0  0  0  0  0  0  0  0  0
   -2.3475   -0.9277   -1.0976 H   0  0  0  0  0  0  0  0  0  0  0  0
   -2.8671   -1.3943    0.6280 H   0  0  0  0  0  0  0  0  0  0  0  0
   -0.7165   -0.5886    1.6161 H   0  0  0  0  0  0  0  0  0  0  0  0
    1.5514   -1.4907    0.7968 H   0  0  0  0  0  0  0  0  0  0  0  0
    1.6581   -1.6200   -0.9983 H   0  0  0  0  0  0  0  0  0  0  0  0
    3.1236    0.2595    0.7099 H   0  0  0  0  0  0  0  0  0  0  0  0
    2.8663    0.4906   -1.1007 H   0  0  0  0  0  0  0  0  0  0  0  0
    0.9458    1.6216    1.0083 H   0  0  0  0  0  0  0  0  0  0  0  0
  1  2  1  0
  2  3  1  0
  3  4  1  0
  4  5  1  0
  5  6  1  0
  6  7  1  0
  7  8  1  0
  3  1  1  0
  7  4  1  0
  8  4  1  0
  1  9  1  0
  1 10  1  0
  2 11  1  0
  2 12  1  0
  3 13  1  0
  5 14  1  0
  5 15  1  0
  6 16  1  0
  6 17  1  0
  7 18  1  0
M  END
