
     RDKit          3D

 19 21  0  0  0  0  0  0  0  0999 V2000
   -1.7704   -0.6294    0.0739 C   0  0  0  0  0  0  0  0  0  0  0  0
   -0.4450   -1.2439   -0.1416 C   0  0  0  0  0  0  0  0  0  0  0  0
    0.7315   -0.4511    0.2477 C   0  0  0  0  0  0  0  0  0  0  0  0
    1.9113   -0.3956   -0.7315 C   0  0  0  0  0  0  0  0  0  0  0  0
    1.5414    0.9437   -0.9637 O   0  0  0  0  0  0  0  0  0  0  0  0
    0.5758    1.0019    0.0163 C   0  0  0  0  0  0  0  0  0  0  0  0
   -0.8206    1.4484   -0.2992 C   0  0  0  0  0  0  0  0  0  0  0  0
   -1.7796    0.7064    0.3582 O   0  0  0  0  0  0  0  0  0  0  0  0
    0.8267    0.4483    1.3882 C   0  0  0  0  0  0  0  0  0  0  0  0
   -2.2715   -1.1738    0.9223 H   0  0  0  0  0  0  0  0  0  0  0  0
   -2.4683   -0.7858   -0.8004 H   0  0  0  0  0  0  0  0  0  0  0  0
   -0.3723   -2.2518    0.3605 H   0  0  0  0  0  0  0  0  0  0  0  0
   -0.3534   -1.4925   -1.2404 H   0  0  0  0  0  0  0  0  0  0  0  0
    2.8864   -0.4157   -0.1805 H   0  0  0  0  0  0  0  0  0  0  0  0
    1.8143   -1.0683   -1.5798 H   0  0  0  0  0  0  0  0  0  0  0  0
   -0.9136    2.5017    0.0919 H   0  0  0  0  0  0  0  0  0  0  0  0
   -0.9999    1.5398   -1.3938 H   0  0  0  0  0  0  0  0  0  0  0  0
    0.0407    0.6360    2.1146 H   0  0  0  0  0  0  0  0  0  0  0  0
    1.8665    0.6817    1.7573 H   0  0  0  0  0  0  0  0  0  0  0  0
  1  2  1  0
  2  3  1  0
  3  4  1  0
  4  5  1  0
  5  6  1  0
  6  7  1  0
  7  8  1  0
  6  9  1  0
  8  1  1  0
  6  3  1  0
  9  3  1  0
  1 10  1  0
  1 11  1  0
  2 12  1  0
  2 13  1  0
  4 14  1  0
  4 15  1  0
  7 16  1  0
  7 17  1  0
  9 18  1  0
  9 19  1  0
M  END
