
     RDKit          3D

 21 23  0  0  0  0  0  0  0  0999 V2000
    1.9948    0.3368   -0.3217 C   0  0  0  0  0  0  0  0  0  0  0  0
    1.6751   -0.8839    0.5083 C   0  0  0  0  0  0  0  0  0  0  0  0
    0.3030   -0.9149   -0.0887 C   0  0  0  0  0  0  0  0  0  0  0  0
    0.6301    0.2715   -0.9503 C   0  0  0  0  0  0  0  0  0  0  0  0
   -0.2699    1.3972   -0.5467 C   0  0  0  0  0  0  0  0  0  0  0  0
   -1.1543    0.9044    0.5651 C   0  0  0  0  0  0  0  0  0  0  0  0
   -2.4491    0.6148    0.1703 O   0  0  0  0  0  0  0  0  0  0  0  0
   -2.1588   -0.7516    0.0945 C   0  0  0  0  0  0  0  0  0  0  0  0
   -0.8355   -0.5447    0.7934 C   0  0  0  0  0  0  0  0  0  0  0  0
    2.1451    1.2417    0.3160 H   0  0  0  0  0  0  0  0  0  0  0  0
    2.8322    0.2269   -1.0334 H   0  0  0  0  0  0  0  0  0  0  0  0
    2.3225   -1.7342    0.1608 H   0  0  0  0  0  0  0  0  0  0  0  0
    1.7402   -0.7072    1.5980 H   0  0  0  0  0  0  0  0  0  0  0  0
    0.1007   -1.8070   -0.6995 H   0  0  0  0  0  0  0  0  0  0  0  0
    0.5938    0.0803   -2.0328 H   0  0  0  0  0  0  0  0  0  0  0  0
    0.3749    2.2029   -0.1073 H   0  0  0  0  0  0  0  0  0  0  0  0
   -0.8542    1.7763   -1.4248 H   0  0  0  0  0  0  0  0  0  0  0  0
   -1.1784    1.5344    1.4797 H   0  0  0  0  0  0  0  0  0  0  0  0
   -2.9124   -1.3322    0.6528 H   0  0  0  0  0  0  0  0  0  0  0  0
   -2.0932   -1.0490   -0.9733 H   0  0  0  0  0  0  0  0  0  0  0  0
   -0.8068   -0.8626    1.8395 H   0  0  0  0  0  0  0  0  0  0  0  0
  1  2  1  0
  2  3  1  0
  3  4  1  0
  4  5  1  0
  5  6  1  0
  6  7  1  0
  7  8  1  0
  8  9  1  0
  4  1  1  0
  9  6  1  0
  9  3  1  0
  1 10  1  0
  1 11  1  0
  2 12  1  0
  2 13  1  0
  3 14  1  0
  4 15  1  0
  5 16  1  0
  5 17  1  0
  6 18  1  0
  8 19  1  0
  8 20  1  0
  9 21  1  0
M  END
