
     RDKit          3D

 21 23  0  0  0  0  0  0  0  0999 V2000
   -2.7205    0.0718    0.2289 C   0  0  0  0  0  0  0  0  0  0  0  0
   -1.6394   -1.0141    0.2145 C   0  0  0  0  0  0  0  0  0  0  0  0
   -0.6667    0.0170   -0.2099 C   0  0  0  0  0  0  0  0  0  0  0  0
   -1.6211    1.1169    0.0557 C   0  0  0  0  0  0  0  0  0  0  0  0
   -0.0921   -0.1853   -1.4441 O   0  0  0  0  0  0  0  0  0  0  0  0
    0.6744   -0.0555   -0.3222 C   0  0  0  0  0  0  0  0  0  0  0  0
    1.6836    1.0267   -0.3264 C   0  0  0  0  0  0  0  0  0  0  0  0
    2.7299   -0.0125    0.0982 C   0  0  0  0  0  0  0  0  0  0  0  0
    1.6365   -1.0885    0.1277 C   0  0  0  0  0  0  0  0  0  0  0  0
   -3.4191    0.0091   -0.6265 H   0  0  0  0  0  0  0  0  0  0  0  0
   -3.2540    0.1134    1.1814 H   0  0  0  0  0  0  0  0  0  0  0  0
   -1.9094   -1.7901   -0.5421 H   0  0  0  0  0  0  0  0  0  0  0  0
   -1.4883   -1.5053    1.1841 H   0  0  0  0  0  0  0  0  0  0  0  0
   -1.4432    1.6000    1.0566 H   0  0  0  0  0  0  0  0  0  0  0  0
   -1.7884    1.8228   -0.7595 H   0  0  0  0  0  0  0  0  0  0  0  0
    1.9361    1.3819   -1.3655 H   0  0  0  0  0  0  0  0  0  0  0  0
    1.5505    1.8525    0.3861 H   0  0  0  0  0  0  0  0  0  0  0  0
    3.5243   -0.1830   -0.6301 H   0  0  0  0  0  0  0  0  0  0  0  0
    3.1086    0.1726    1.1105 H   0  0  0  0  0  0  0  0  0  0  0  0
    1.3903   -1.4324    1.1691 H   0  0  0  0  0  0  0  0  0  0  0  0
    1.8077   -1.9181   -0.5862 H   0  0  0  0  0  0  0  0  0  0  0  0
  1  2  1  0
  2  3  1  0
  3  4  1  0
  3  5  1  0
  5  6  1  0
  6  7  1  0
  7  8  1  0
  8  9  1  0
  4  1  1  0
  9  6  1  0
  6  3  1  0
  1 10  1  0
  1 11  1  0
  2 12  1  0
  2 13  1  0
  4 14  1  0
  4 15  1  0
  7 16  1  0
  7 17  1  0
  8 18  1  0
  8 19  1  0
  9 20  1  0
  9 21  1  0
M  END
