
     RDKit          3D

 21 23  0  0  0  0  0  0  0  0999 V2000
   -1.1698   -1.6324   -0.0091 C   0  0  0  0  0  0  0  0  0  0  0  0
    0.2823   -1.3414    0.0144 C   0  0  0  0  0  0  0  0  0  0  0  0
    0.6616    0.0809    0.1610 C   0  0  0  0  0  0  0  0  0  0  0  0
    1.9358    0.5144   -0.5754 C   0  0  0  0  0  0  0  0  0  0  0  0
    2.0001    0.3643    0.8892 C   0  0  0  0  0  0  0  0  0  0  0  0
   -0.4336    1.0534    0.2917 C   0  0  0  0  0  0  0  0  0  0  0  0
   -1.4313    1.2096   -0.8286 C   0  0  0  0  0  0  0  0  0  0  0  0
   -1.7876    0.5652    0.4497 C   0  0  0  0  0  0  0  0  0  0  0  0
   -1.9909   -0.7664    0.6079 O   0  0  0  0  0  0  0  0  0  0  0  0
   -1.5285   -1.8102   -1.0657 H   0  0  0  0  0  0  0  0  0  0  0  0
   -1.3115   -2.6414    0.4853 H   0  0  0  0  0  0  0  0  0  0  0  0
    0.7253   -1.7222   -0.9512 H   0  0  0  0  0  0  0  0  0  0  0  0
    0.8232   -1.9368    0.8071 H   0  0  0  0  0  0  0  0  0  0  0  0
    1.8617    1.4976   -1.0586 H   0  0  0  0  0  0  0  0  0  0  0  0
    2.4569   -0.2406   -1.1883 H   0  0  0  0  0  0  0  0  0  0  0  0
    2.5111   -0.5049    1.3195 H   0  0  0  0  0  0  0  0  0  0  0  0
    2.0211    1.2745    1.5163 H   0  0  0  0  0  0  0  0  0  0  0  0
   -0.1452    2.0201    0.7980 H   0  0  0  0  0  0  0  0  0  0  0  0
   -1.8048    2.2440   -1.0489 H   0  0  0  0  0  0  0  0  0  0  0  0
   -1.2079    0.5890   -1.7156 H   0  0  0  0  0  0  0  0  0  0  0  0
   -2.4680    1.1832    1.1012 H   0  0  0  0  0  0  0  0  0  0  0  0
  1  2  1  0
  2  3  1  0
  3  4  1  0
  4  5  1  0
  3  6  1  0
  6  7  1  0
  7  8  1  0
  8  9  1  0
  9  1  1  0
  5  3  1  0
  8  6  1  0
  1 10  1  0
  1 11  1  0
  2 12  1  0
  2 13  1  0
  4 14  1  0
  4 15  1  0
  5 16  1  0
  5 17  1  0
  6 18  1  0
  7 19  1  0
  7 20  1  0
  8 21  1  0
M  END
