
     RDKit          3D

 23 24  0  0  0  0  0  0  0  0999 V2000
    1.9172   -0.7006   -0.4969 C   0  0  0  0  0  0  0  0  0  0  0  0
    1.9074    0.6233    0.1995 C   0  0  0  0  0  0  0  0  0  0  0  0
    0.7870    1.5348   -0.2973 C   0  0  0  0  0  0  0  0  0  0  0  0
   -0.5169    0.8743   -0.2752 C   0  0  0  0  0  0  0  0  0  0  0  0
   -1.4827    1.3832    0.5351 O   0  0  0  0  0  0  0  0  0  0  0  0
   -2.3929    0.3729    0.8349 C   0  0  0  0  0  0  0  0  0  0  0  0
   -1.8010   -0.9191    0.3115 C   0  0  0  0  0  0  0  0  0  0  0  0
   -0.3395   -0.5274    0.3300 C   0  0  0  0  0  0  0  0  0  0  0  0
    0.5113   -1.2976   -0.6132 C   0  0  0  0  0  0  0  0  0  0  0  0
    2.4016   -0.7053   -1.4667 H   0  0  0  0  0  0  0  0  0  0  0  0
    2.4802   -1.4128    0.1734 H   0  0  0  0  0  0  0  0  0  0  0  0
    1.8798    0.5386    1.2930 H   0  0  0  0  0  0  0  0  0  0  0  0
    2.8572    1.1510   -0.0661 H   0  0  0  0  0  0  0  0  0  0  0  0
    1.0618    1.7651   -1.3656 H   0  0  0  0  0  0  0  0  0  0  0  0
    0.8723    2.4852    0.2478 H   0  0  0  0  0  0  0  0  0  0  0  0
   -0.9521    0.7079   -1.2860 H   0  0  0  0  0  0  0  0  0  0  0  0
   -3.4056    0.5681    0.4877 H   0  0  0  0  0  0  0  0  0  0  0  0
   -2.3718    0.2780    1.9607 H   0  0  0  0  0  0  0  0  0  0  0  0
   -2.1339   -1.0330   -0.7329 H   0  0  0  0  0  0  0  0  0  0  0  0
   -2.0237   -1.7847    0.9467 H   0  0  0  0  0  0  0  0  0  0  0  0
    0.0590   -0.4796    1.3503 H   0  0  0  0  0  0  0  0  0  0  0  0
    0.1786   -1.0465   -1.6551 H   0  0  0  0  0  0  0  0  0  0  0  0
    0.5067   -2.3756   -0.4154 H   0  0  0  0  0  0  0  0  0  0  0  0
  1  2  1  0
  2  3  1  0
  3  4  1  0
  4  5  1  0
  5  6  1  0
  6  7  1  0
  7  8  1  0
  8  9  1  0
  9  1  1  0
  8  4  1  0
  1 10  1  0
  1 11  1  0
  2 12  1  0
  2 13  1  0
  3 14  1  0
  3 15  1  0
  4 16  1  0
  6 17  1  0
  6 18  1  0
  7 19  1  0
  7 20  1  0
  8 21  1  0
  9 22  1  0
  9 23  1  0
M  END
