
     RDKit          3D

 19 20  0  0  0  0  0  0  0  0999 V2000
    1.6914    0.2762    0.2593 C   0  0  0  0  0  0  0  0  0  0  0  0
    0.8595    1.1446   -0.6416 C   0  0  0  0  0  0  0  0  0  0  0  0
   -0.4648    0.4624   -0.8126 C   0  0  0  0  0  0  0  0  0  0  0  0
   -1.4632    0.6983    0.2917 C   0  0  0  0  0  0  0  0  0  0  0  0
   -1.6099   -0.7987    0.4255 C   0  0  0  0  0  0  0  0  0  0  0  0
   -0.3186   -0.9527   -0.3209 C   0  0  0  0  0  0  0  0  0  0  0  0
    0.9322   -0.9988    0.4858 C   0  0  0  0  0  0  0  0  0  0  0  0
    1.9517    0.7944    1.2103 H   0  0  0  0  0  0  0  0  0  0  0  0
    2.6678    0.1143   -0.2631 H   0  0  0  0  0  0  0  0  0  0  0  0
    1.3507    1.3560   -1.6195 H   0  0  0  0  0  0  0  0  0  0  0  0
    0.7398    2.1446   -0.1531 H   0  0  0  0  0  0  0  0  0  0  0  0
   -0.8302    0.5465   -1.8370 H   0  0  0  0  0  0  0  0  0  0  0  0
   -0.9499    1.1968    1.1468 H   0  0  0  0  0  0  0  0  0  0  0  0
   -2.3872    1.1750   -0.0462 H   0  0  0  0  0  0  0  0  0  0  0  0
   -2.4741   -1.1863   -0.1688 H   0  0  0  0  0  0  0  0  0  0  0  0
   -1.6516   -1.1961    1.4435 H   0  0  0  0  0  0  0  0  0  0  0  0
   -0.3850   -1.7389   -1.0986 H   0  0  0  0  0  0  0  0  0  0  0  0
    1.5673   -1.8523    0.1299 H   0  0  0  0  0  0  0  0  0  0  0  0
    0.7741   -1.1854    1.5684 H   0  0  0  0  0  0  0  0  0  0  0  0
  1  2  1  0
  2  3  1  0
  3  4  1  0
  4  5  1  0
  5  6  1  0
  6  7  1  0
  7  1  1  0
  6  3  1  0
  1  8  1  0
  1  9  1  0
  2 10  1  0
  2 11  1  0
  3 12  1  0
  4 13  1  0
  4 14  1  0
  5 15  1  0
  5 16  1  0
  6 17  1  0
  7 18  1  0
  7 19  1  0
M  END
