
     RDKit          3D

 23 25  0  0  0  0  0  0  0  0999 V2000
   -0.8203   -1.4302    0.3702 C   0  0  0  0  0  0  0  0  0  0  0  0
   -1.7116   -0.1842    0.5059 C   0  0  0  0  0  0  0  0  0  0  0  0
   -0.7410    0.8987    0.8170 C   0  0  0  0  0  0  0  0  0  0  0  0
   -0.6878    2.2227    0.2639 C   0  0  0  0  0  0  0  0  0  0  0  0
   -0.0527    1.1878   -0.5213 C   0  0  0  0  0  0  0  0  0  0  0  0
    1.3360    0.7097   -0.4404 C   0  0  0  0  0  0  0  0  0  0  0  0
    1.9064   -0.2045    0.5238 C   0  0  0  0  0  0  0  0  0  0  0  0
    1.3585   -0.7638   -0.7279 C   0  0  0  0  0  0  0  0  0  0  0  0
    0.0393   -1.4237   -0.8313 C   0  0  0  0  0  0  0  0  0  0  0  0
   -1.5550   -2.2821    0.2978 H   0  0  0  0  0  0  0  0  0  0  0  0
   -0.3159   -1.5462    1.3247 H   0  0  0  0  0  0  0  0  0  0  0  0
   -2.2703    0.0054   -0.4377 H   0  0  0  0  0  0  0  0  0  0  0  0
   -2.4539   -0.3857    1.2879 H   0  0  0  0  0  0  0  0  0  0  0  0
   -0.1107    0.6794    1.6983 H   0  0  0  0  0  0  0  0  0  0  0  0
   -1.6046    2.7243   -0.1514 H   0  0  0  0  0  0  0  0  0  0  0  0
   -0.0524    2.9772    0.7861 H   0  0  0  0  0  0  0  0  0  0  0  0
   -0.5676    0.9054   -1.4661 H   0  0  0  0  0  0  0  0  0  0  0  0
    2.0549    1.3791   -1.0075 H   0  0  0  0  0  0  0  0  0  0  0  0
    3.0360   -0.2358    0.5823 H   0  0  0  0  0  0  0  0  0  0  0  0
    1.4667   -0.5675    1.4534 H   0  0  0  0  0  0  0  0  0  0  0  0
    2.0621   -1.0422   -1.5572 H   0  0  0  0  0  0  0  0  0  0  0  0
   -0.5775   -1.1104   -1.7105 H   0  0  0  0  0  0  0  0  0  0  0  0
    0.2615   -2.5134   -1.0602 H   0  0  0  0  0  0  0  0  0  0  0  0
  1  2  1  0
  2  3  1  0
  3  4  1  0
  4  5  1  0
  5  6  1  0
  6  7  1  0
  7  8  1  0
  8  9  1  0
  9  1  1  0
  5  3  1  0
  8  6  1  0
  1 10  1  0
  1 11  1  0
  2 12  1  0
  2 13  1  0
  3 14  1  0
  4 15  1  0
  4 16  1  0
  5 17  1  0
  6 18  1  0
  7 19  1  0
  7 20  1  0
  8 21  1  0
  9 22  1  0
  9 23  1  0
M  END
