
     RDKit          3D

 20 21  0  0  0  0  0  0  0  0999 V2000
    2.2707   -0.0658   -0.4460 C   0  0  0  0  0  0  0  0  0  0  0  0
    1.6628    0.6457    0.8003 C   0  0  0  0  0  0  0  0  0  0  0  0
    1.3523   -0.7415    0.5540 C   0  0  0  0  0  0  0  0  0  0  0  0
    0.1377   -1.3800    0.0312 C   0  0  0  0  0  0  0  0  0  0  0  0
   -0.8741   -0.5983   -0.6964 C   0  0  0  0  0  0  0  0  0  0  0  0
   -1.5022    0.5036    0.0873 C   0  0  0  0  0  0  0  0  0  0  0  0
   -2.5608    1.3217   -0.5724 C   0  0  0  0  0  0  0  0  0  0  0  0
   -1.2827    1.8060   -0.5154 O   0  0  0  0  0  0  0  0  0  0  0  0
    1.8563    0.2907   -1.4097 H   0  0  0  0  0  0  0  0  0  0  0  0
    3.3435   -0.2474   -0.4355 H   0  0  0  0  0  0  0  0  0  0  0  0
    1.0814    1.5388    0.6117 H   0  0  0  0  0  0  0  0  0  0  0  0
    2.4514    0.8709    1.5940 H   0  0  0  0  0  0  0  0  0  0  0  0
    1.9481   -1.4742    1.2147 H   0  0  0  0  0  0  0  0  0  0  0  0
   -0.4284   -1.9247    0.8644 H   0  0  0  0  0  0  0  0  0  0  0  0
    0.4401   -2.2637   -0.6295 H   0  0  0  0  0  0  0  0  0  0  0  0
   -0.4440   -0.2218   -1.6590 H   0  0  0  0  0  0  0  0  0  0  0  0
   -1.6748   -1.3173   -1.0675 H   0  0  0  0  0  0  0  0  0  0  0  0
   -1.5214    0.4933    1.1908 H   0  0  0  0  0  0  0  0  0  0  0  0
   -2.9566    0.8831   -1.5326 H   0  0  0  0  0  0  0  0  0  0  0  0
   -3.2994    1.8807    0.0213 H   0  0  0  0  0  0  0  0  0  0  0  0
  1  2  1  0
  2  3  1  0
  3  4  1  0
  4  5  1  0
  5  6  1  0
  6  7  1  0
  7  8  1  0
  3  1  1  0
  8  6  1  0
  1  9  1  0
  1 10  1  0
  2 11  1  0
  2 12  1  0
  3 13  1  0
  4 14  1  0
  4 15  1  0
  5 16  1  0
  5 17  1  0
  6 18  1  0
  7 19  1  0
  7 20  1  0
M  END
