
     RDKit          3D

 18 20  0  0  0  0  0  0  0  0999 V2000
   -1.9855    0.0971   -0.1947 C   0  0  0  0  0  0  0  0  0  0  0  0
   -1.0250   -0.3840    0.9026 C   0  0  0  0  0  0  0  0  0  0  0  0
    0.0875   -0.0598   -0.0400 C   0  0  0  0  0  0  0  0  0  0  0  0
   -0.8269   -0.1411   -1.1749 C   0  0  0  0  0  0  0  0  0  0  0  0
    1.3255   -0.8358    0.0221 C   0  0  0  0  0  0  0  0  0  0  0  0
    2.0477    0.3284    0.6091 C   0  0  0  0  0  0  0  0  0  0  0  0
    1.4658    1.2238    1.4536 O   0  0  0  0  0  0  0  0  0  0  0  0
    0.8448    1.1969    0.2111 C   0  0  0  0  0  0  0  0  0  0  0  0
   -2.8478   -0.5519   -0.3354 H   0  0  0  0  0  0  0  0  0  0  0  0
   -2.2119    1.1798   -0.0472 H   0  0  0  0  0  0  0  0  0  0  0  0
   -1.1649   -1.4916    1.0147 H   0  0  0  0  0  0  0  0  0  0  0  0
   -1.1159    0.2089    1.8116 H   0  0  0  0  0  0  0  0  0  0  0  0
   -0.9096   -1.1800   -1.6026 H   0  0  0  0  0  0  0  0  0  0  0  0
   -0.8487    0.6660   -1.9252 H   0  0  0  0  0  0  0  0  0  0  0  0
    1.3062   -1.7587    0.6415 H   0  0  0  0  0  0  0  0  0  0  0  0
    1.7341   -1.0388   -1.0118 H   0  0  0  0  0  0  0  0  0  0  0  0
    3.0457    0.6208    0.2285 H   0  0  0  0  0  0  0  0  0  0  0  0
    1.0789    1.9200   -0.5630 H   0  0  0  0  0  0  0  0  0  0  0  0
  1  2  1  0
  2  3  1  0
  3  4  1  0
  3  5  1  0
  5  6  1  0
  6  7  1  0
  7  8  1  0
  4  1  1  0
  8  6  1  0
  8  3  1  0
  1  9  1  0
  1 10  1  0
  2 11  1  0
  2 12  1  0
  4 13  1  0
  4 14  1  0
  5 15  1  0
  5 16  1  0
  6 17  1  0
  8 18  1  0
M  END
