
     RDKit          3D

 19 22  0  0  0  0  0  0  0  0999 V2000
   -1.3058   -0.3454   -0.9920 C   0  0  0  0  0  0  0  0  0  0  0  0
   -0.5130   -1.3792   -0.1746 C   0  0  0  0  0  0  0  0  0  0  0  0
    0.4126   -0.5003    0.5691 C   0  0  0  0  0  0  0  0  0  0  0  0
    1.8075   -0.6671    0.8226 C   0  0  0  0  0  0  0  0  0  0  0  0
    1.4769    0.1289   -0.3560 C   0  0  0  0  0  0  0  0  0  0  0  0
    1.1948    1.4467   -0.3908 O   0  0  0  0  0  0  0  0  0  0  0  0
   -0.0648    1.7189   -0.0022 C   0  0  0  0  0  0  0  0  0  0  0  0
   -1.2602    0.9298   -0.2158 C   0  0  0  0  0  0  0  0  0  0  0  0
   -0.4164    0.6752    0.9695 C   0  0  0  0  0  0  0  0  0  0  0  0
   -2.3267   -0.7437   -1.0568 H   0  0  0  0  0  0  0  0  0  0  0  0
   -0.9144   -0.2463   -2.0113 H   0  0  0  0  0  0  0  0  0  0  0  0
    0.0584   -2.0406   -0.8853 H   0  0  0  0  0  0  0  0  0  0  0  0
   -1.1606   -1.9776    0.4679 H   0  0  0  0  0  0  0  0  0  0  0  0
    2.2375   -0.1244    1.7146 H   0  0  0  0  0  0  0  0  0  0  0  0
    2.2717   -1.6487    0.6873 H   0  0  0  0  0  0  0  0  0  0  0  0
    1.6672   -0.3460   -1.3400 H   0  0  0  0  0  0  0  0  0  0  0  0
   -0.2241    2.7808    0.3444 H   0  0  0  0  0  0  0  0  0  0  0  0
   -2.2507    1.4391   -0.1393 H   0  0  0  0  0  0  0  0  0  0  0  0
   -0.6899    0.8998    1.9885 H   0  0  0  0  0  0  0  0  0  0  0  0
  1  2  1  0
  2  3  1  0
  3  4  1  0
  4  5  1  0
  5  6  1  0
  6  7  1  0
  7  8  1  0
  8  9  1  0
  8  1  1  0
  5  3  1  0
  9  7  1  0
  9  3  1  0
  1 10  1  0
  1 11  1  0
  2 12  1  0
  2 13  1  0
  4 14  1  0
  4 15  1  0
  5 16  1  0
  7 17  1  0
  8 18  1  0
  9 19  1  0
M  END
