
     RDKit          3D

 25 26  0  0  0  0  0  0  0  0999 V2000
    2.3285    0.2414    0.5347 C   0  0  0  0  0  0  0  0  0  0  0  0
    1.7284   -1.0861    0.2182 C   0  0  0  0  0  0  0  0  0  0  0  0
    0.2805   -1.2126    0.4628 C   0  0  0  0  0  0  0  0  0  0  0  0
   -0.5515   -0.0123    0.2665 C   0  0  0  0  0  0  0  0  0  0  0  0
    0.1516    1.2632    0.6501 C   0  0  0  0  0  0  0  0  0  0  0  0
    1.4538    1.2999   -0.1522 C   0  0  0  0  0  0  0  0  0  0  0  0
   -1.9242   -0.1839    0.8927 C   0  0  0  0  0  0  0  0  0  0  0  0
   -2.5815   -0.2464   -0.4768 C   0  0  0  0  0  0  0  0  0  0  0  0
   -1.2397    0.1498   -1.0659 C   0  0  0  0  0  0  0  0  0  0  0  0
    3.3626    0.2699    0.1839 H   0  0  0  0  0  0  0  0  0  0  0  0
    2.3278    0.3976    1.6425 H   0  0  0  0  0  0  0  0  0  0  0  0
    2.2580   -1.8469    0.8638 H   0  0  0  0  0  0  0  0  0  0  0  0
    1.9750   -1.3675   -0.8391 H   0  0  0  0  0  0  0  0  0  0  0  0
   -0.1339   -2.0343   -0.1919 H   0  0  0  0  0  0  0  0  0  0  0  0
    0.1127   -1.5920    1.5090 H   0  0  0  0  0  0  0  0  0  0  0  0
    0.4384    1.2759    1.7223 H   0  0  0  0  0  0  0  0  0  0  0  0
   -0.4065    2.1559    0.3923 H   0  0  0  0  0  0  0  0  0  0  0  0
    1.2743    0.9015   -1.1759 H   0  0  0  0  0  0  0  0  0  0  0  0
    1.9239    2.2909   -0.1382 H   0  0  0  0  0  0  0  0  0  0  0  0
   -2.2229    0.6463    1.5296 H   0  0  0  0  0  0  0  0  0  0  0  0
   -2.0672   -1.1799    1.3927 H   0  0  0  0  0  0  0  0  0  0  0  0
   -3.3851    0.4831   -0.5753 H   0  0  0  0  0  0  0  0  0  0  0  0
   -2.9109   -1.2481   -0.7952 H   0  0  0  0  0  0  0  0  0  0  0  0
   -1.2924    1.2001   -1.4478 H   0  0  0  0  0  0  0  0  0  0  0  0
   -0.8996   -0.5655   -1.8187 H   0  0  0  0  0  0  0  0  0  0  0  0
  1  2  1  0
  2  3  1  0
  3  4  1  0
  4  5  1  0
  5  6  1  0
  4  7  1  0
  7  8  1  0
  8  9  1  0
  6  1  1  0
  9  4  1  0
  1 10  1  0
  1 11  1  0
  2 12  1  0
  2 13  1  0
  3 14  1  0
  3 15  1  0
  5 16  1  0
  5 17  1  0
  6 18  1  0
  6 19  1  0
  7 20  1  0
  7 21  1  0
  8 22  1  0
  8 23  1  0
  9 24  1  0
  9 25  1  0
M  END
