
     RDKit          3D

 21 23  0  0  0  0  0  0  0  0999 V2000
   -2.4348   -0.0210   -0.2769 C   0  0  0  0  0  0  0  0  0  0  0  0
   -1.2453    0.9301   -0.3783 C   0  0  0  0  0  0  0  0  0  0  0  0
   -0.1112    0.0455    0.0398 C   0  0  0  0  0  0  0  0  0  0  0  0
   -0.7459   -1.3131    0.0978 C   0  0  0  0  0  0  0  0  0  0  0  0
   -2.0086   -1.0225    0.6179 O   0  0  0  0  0  0  0  0  0  0  0  0
    0.6793    0.4755    1.2279 C   0  0  0  0  0  0  0  0  0  0  0  0
    1.8862    0.6579    0.3298 C   0  0  0  0  0  0  0  0  0  0  0  0
    2.3513   -0.5619   -0.3600 C   0  0  0  0  0  0  0  0  0  0  0  0
    1.1101    0.0751   -0.8244 C   0  0  0  0  0  0  0  0  0  0  0  0
   -2.6453   -0.5296   -1.2289 H   0  0  0  0  0  0  0  0  0  0  0  0
   -3.3344    0.4981    0.1284 H   0  0  0  0  0  0  0  0  0  0  0  0
   -1.1203    1.2521   -1.4310 H   0  0  0  0  0  0  0  0  0  0  0  0
   -1.4396    1.7683    0.3172 H   0  0  0  0  0  0  0  0  0  0  0  0
   -0.1873   -2.0425    0.6818 H   0  0  0  0  0  0  0  0  0  0  0  0
   -0.9310   -1.6401   -0.9640 H   0  0  0  0  0  0  0  0  0  0  0  0
    0.8422   -0.3007    2.0208 H   0  0  0  0  0  0  0  0  0  0  0  0
    0.3505    1.4584    1.5998 H   0  0  0  0  0  0  0  0  0  0  0  0
    2.3591    1.6347    0.2254 H   0  0  0  0  0  0  0  0  0  0  0  0
    3.2316   -0.4458   -1.0401 H   0  0  0  0  0  0  0  0  0  0  0  0
    2.3313   -1.5147    0.2184 H   0  0  0  0  0  0  0  0  0  0  0  0
    1.0620    0.5962   -1.7883 H   0  0  0  0  0  0  0  0  0  0  0  0
  1  2  1  0
  2  3  1  0
  3  4  1  0
  4  5  1  0
  3  6  1  0
  6  7  1  0
  7  8  1  0
  8  9  1  0
  5  1  1  0
  9  7  1  0
  9  3  1  0
  1 10  1  0
  1 11  1  0
  2 12  1  0
  2 13  1  0
  4 14  1  0
  4 15  1  0
  6 16  1  0
  6 17  1  0
  7 18  1  0
  8 19  1  0
  8 20  1  0
  9 21  1  0
M  END
