
     RDKit          3D

 23 24  0  0  0  0  0  0  0  0999 V2000
   -3.1063   -0.5262   -0.4453 C   0  0  0  0  0  0  0  0  0  0  0  0
   -2.5744    0.5726    0.4476 C   0  0  0  0  0  0  0  0  0  0  0  0
   -1.3219    0.6134   -0.3991 C   0  0  0  0  0  0  0  0  0  0  0  0
   -0.1084    0.3094    0.4439 C   0  0  0  0  0  0  0  0  0  0  0  0
    1.0679    0.3355   -0.2922 O   0  0  0  0  0  0  0  0  0  0  0  0
    2.1828    0.0581    0.4732 C   0  0  0  0  0  0  0  0  0  0  0  0
    3.4771    0.6424    0.0359 C   0  0  0  0  0  0  0  0  0  0  0  0
    3.2494   -0.8163   -0.1118 C   0  0  0  0  0  0  0  0  0  0  0  0
   -1.8026   -0.5918   -1.1885 C   0  0  0  0  0  0  0  0  0  0  0  0
   -3.9366   -0.1339   -1.0681 H   0  0  0  0  0  0  0  0  0  0  0  0
   -3.3994   -1.4381    0.1128 H   0  0  0  0  0  0  0  0  0  0  0  0
   -2.4334    0.2026    1.4845 H   0  0  0  0  0  0  0  0  0  0  0  0
   -3.1661    1.5251    0.4165 H   0  0  0  0  0  0  0  0  0  0  0  0
   -1.2239    1.5114   -1.0520 H   0  0  0  0  0  0  0  0  0  0  0  0
   -0.0948    1.0007    1.3100 H   0  0  0  0  0  0  0  0  0  0  0  0
   -0.2354   -0.7516    0.8012 H   0  0  0  0  0  0  0  0  0  0  0  0
    1.9860   -0.1439    1.5534 H   0  0  0  0  0  0  0  0  0  0  0  0
    3.4477    1.2894   -0.8507 H   0  0  0  0  0  0  0  0  0  0  0  0
    4.1929    1.0051    0.8170 H   0  0  0  0  0  0  0  0  0  0  0  0
    3.0753   -1.2907   -1.0871 H   0  0  0  0  0  0  0  0  0  0  0  0
    3.8672   -1.4659    0.5711 H   0  0  0  0  0  0  0  0  0  0  0  0
   -1.2057   -1.5152   -1.0351 H   0  0  0  0  0  0  0  0  0  0  0  0
   -1.9376   -0.3922   -2.2775 H   0  0  0  0  0  0  0  0  0  0  0  0
  1  2  1  0
  2  3  1  0
  3  4  1  0
  4  5  1  0
  5  6  1  0
  6  7  1  0
  7  8  1  0
  3  9  1  0
  9  1  1  0
  8  6  1  0
  1 10  1  0
  1 11  1  0
  2 12  1  0
  2 13  1  0
  3 14  1  0
  4 15  1  0
  4 16  1  0
  6 17  1  0
  7 18  1  0
  7 19  1  0
  8 20  1  0
  8 21  1  0
  9 22  1  0
  9 23  1  0
M  END
