
     RDKit          3D

 19 21  0  0  0  0  0  0  0  0999 V2000
   -1.5858    0.9172    0.0312 C   0  0  0  0  0  0  0  0  0  0  0  0
   -0.7164    0.2548   -1.0599 C   0  0  0  0  0  0  0  0  0  0  0  0
    0.1460   -0.5641   -0.1749 C   0  0  0  0  0  0  0  0  0  0  0  0
    1.1499    0.3714    0.5309 C   0  0  0  0  0  0  0  0  0  0  0  0
    2.0606    1.1515   -0.2053 C   0  0  0  0  0  0  0  0  0  0  0  0
    2.5142   -0.1815    0.2048 O   0  0  0  0  0  0  0  0  0  0  0  0
    0.0232   -1.8316    0.4055 C   0  0  0  0  0  0  0  0  0  0  0  0
   -1.0770   -1.0231    0.7282 C   0  0  0  0  0  0  0  0  0  0  0  0
   -1.2335    0.2365    1.2298 O   0  0  0  0  0  0  0  0  0  0  0  0
   -1.4014    1.9868    0.0981 H   0  0  0  0  0  0  0  0  0  0  0  0
   -2.6355    0.6313   -0.1651 H   0  0  0  0  0  0  0  0  0  0  0  0
   -0.1720    1.0346   -1.5932 H   0  0  0  0  0  0  0  0  0  0  0  0
   -1.3522   -0.3340   -1.7570 H   0  0  0  0  0  0  0  0  0  0  0  0
    1.0860    0.3560    1.6299 H   0  0  0  0  0  0  0  0  0  0  0  0
    1.9369    1.2219   -1.3242 H   0  0  0  0  0  0  0  0  0  0  0  0
    2.6744    1.9127    0.2972 H   0  0  0  0  0  0  0  0  0  0  0  0
   -0.1018   -2.7183   -0.2776 H   0  0  0  0  0  0  0  0  0  0  0  0
    0.7130   -2.1444    1.2391 H   0  0  0  0  0  0  0  0  0  0  0  0
   -2.0287   -1.2780    0.1625 H   0  0  0  0  0  0  0  0  0  0  0  0
  1  2  1  0
  2  3  1  0
  3  4  1  0
  4  5  1  0
  5  6  1  0
  3  7  1  0
  7  8  1  0
  8  9  1  0
  9  1  1  0
  8  3  1  0
  6  4  1  0
  1 10  1  0
  1 11  1  0
  2 12  1  0
  2 13  1  0
  4 14  1  0
  5 15  1  0
  5 16  1  0
  7 17  1  0
  7 18  1  0
  8 19  1  0
M  END
