
     RDKit          3D

 19 21  0  0  0  0  0  0  0  0999 V2000
   -1.8847   -0.5566   -0.4816 C   0  0  0  0  0  0  0  0  0  0  0  0
   -1.9570    0.5819    0.5334 C   0  0  0  0  0  0  0  0  0  0  0  0
   -0.6396    1.2769    0.2677 C   0  0  0  0  0  0  0  0  0  0  0  0
   -0.2628    1.2833   -1.1197 O   0  0  0  0  0  0  0  0  0  0  0  0
    0.2934    0.3101   -0.3262 C   0  0  0  0  0  0  0  0  0  0  0  0
    1.7433    0.3948    0.0378 C   0  0  0  0  0  0  0  0  0  0  0  0
    2.6920   -0.6578   -0.1329 C   0  0  0  0  0  0  0  0  0  0  0  0
    2.6078    0.3761   -1.1724 O   0  0  0  0  0  0  0  0  0  0  0  0
   -0.4334   -0.9949   -0.2818 C   0  0  0  0  0  0  0  0  0  0  0  0
   -2.0404   -0.1054   -1.4689 H   0  0  0  0  0  0  0  0  0  0  0  0
   -2.5975   -1.3568   -0.2241 H   0  0  0  0  0  0  0  0  0  0  0  0
   -2.0270    0.1623    1.5403 H   0  0  0  0  0  0  0  0  0  0  0  0
   -2.8258    1.2324    0.3075 H   0  0  0  0  0  0  0  0  0  0  0  0
   -0.3432    2.1540    0.8357 H   0  0  0  0  0  0  0  0  0  0  0  0
    2.0243    1.2845    0.6354 H   0  0  0  0  0  0  0  0  0  0  0  0
    3.6461   -0.6195    0.4217 H   0  0  0  0  0  0  0  0  0  0  0  0
    2.4697   -1.6324   -0.5695 H   0  0  0  0  0  0  0  0  0  0  0  0
   -0.1111   -1.7332   -1.0135 H   0  0  0  0  0  0  0  0  0  0  0  0
   -0.3543   -1.3998    0.7454 H   0  0  0  0  0  0  0  0  0  0  0  0
  1  2  1  0
  2  3  1  0
  3  4  1  0
  4  5  1  0
  5  6  1  0
  6  7  1  0
  7  8  1  0
  5  9  1  0
  9  1  1  0
  5  3  1  0
  8  6  1  0
  1 10  1  0
  1 11  1  0
  2 12  1  0
  2 13  1  0
  3 14  1  0
  6 15  1  0
  7 16  1  0
  7 17  1  0
  9 18  1  0
  9 19  1  0
M  END
