
     RDKit          3D

 21 23  0  0  0  0  0  0  0  0999 V2000
   -1.9197   -0.7045   -0.2585 C   0  0  0  0  0  0  0  0  0  0  0  0
   -1.8720    0.8308   -0.0996 C   0  0  0  0  0  0  0  0  0  0  0  0
   -0.3939    0.9651    0.2962 C   0  0  0  0  0  0  0  0  0  0  0  0
   -0.3211   -0.1392    1.2991 C   0  0  0  0  0  0  0  0  0  0  0  0
   -0.4584   -1.0135    0.0765 C   0  0  0  0  0  0  0  0  0  0  0  0
    0.2381    0.0487   -0.7186 C   0  0  0  0  0  0  0  0  0  0  0  0
    1.6877    0.0171   -0.8836 C   0  0  0  0  0  0  0  0  0  0  0  0
    2.7172   -0.3097    0.0356 C   0  0  0  0  0  0  0  0  0  0  0  0
    2.2770    1.1072   -0.0173 O   0  0  0  0  0  0  0  0  0  0  0  0
   -2.6086   -1.1487    0.4618 H   0  0  0  0  0  0  0  0  0  0  0  0
   -2.0880   -0.9814   -1.3072 H   0  0  0  0  0  0  0  0  0  0  0  0
   -2.5410    1.1749    0.6884 H   0  0  0  0  0  0  0  0  0  0  0  0
   -1.9908    1.2999   -1.0717 H   0  0  0  0  0  0  0  0  0  0  0  0
   -0.0053    1.9209    0.4833 H   0  0  0  0  0  0  0  0  0  0  0  0
   -1.2669   -0.1652    1.9189 H   0  0  0  0  0  0  0  0  0  0  0  0
    0.5204   -0.2387    1.9434 H   0  0  0  0  0  0  0  0  0  0  0  0
   -0.1307   -2.0101    0.0836 H   0  0  0  0  0  0  0  0  0  0  0  0
   -0.3226    0.1743   -1.6967 H   0  0  0  0  0  0  0  0  0  0  0  0
    2.0392    0.2316   -1.9450 H   0  0  0  0  0  0  0  0  0  0  0  0
    2.6520   -0.7658    1.0251 H   0  0  0  0  0  0  0  0  0  0  0  0
    3.7873   -0.2937   -0.3137 H   0  0  0  0  0  0  0  0  0  0  0  0
  1  2  1  0
  2  3  1  0
  3  4  1  0
  4  5  1  0
  5  6  1  0
  6  7  1  0
  7  8  1  0
  8  9  1  0
  5  1  1  0
  9  7  1  0
  6  3  1  0
  1 10  1  0
  1 11  1  0
  2 12  1  0
  2 13  1  0
  3 14  1  0
  4 15  1  0
  4 16  1  0
  5 17  1  0
  6 18  1  0
  7 19  1  0
  8 20  1  0
  8 21  1  0
M  END
