
     RDKit          3D

 21 23  0  0  0  0  0  0  0  0999 V2000
    2.2598    0.3786    0.2985 C   0  0  0  0  0  0  0  0  0  0  0  0
    1.5349   -0.8783    0.7871 C   0  0  0  0  0  0  0  0  0  0  0  0
    0.1273   -0.5156    0.4436 C   0  0  0  0  0  0  0  0  0  0  0  0
    0.1263    0.3698   -0.5833 C   0  0  0  0  0  0  0  0  0  0  0  0
    1.5310    0.5904   -1.0109 C   0  0  0  0  0  0  0  0  0  0  0  0
   -1.2987    0.6684   -0.7575 C   0  0  0  0  0  0  0  0  0  0  0  0
   -1.8900   -0.7473   -0.6895 C   0  0  0  0  0  0  0  0  0  0  0  0
   -1.3189   -0.6834    0.7195 C   0  0  0  0  0  0  0  0  0  0  0  0
   -1.7803    0.7750    0.6969 C   0  0  0  0  0  0  0  0  0  0  0  0
    2.0165    1.2021    0.9747 H   0  0  0  0  0  0  0  0  0  0  0  0
    3.3367    0.1922    0.1617 H   0  0  0  0  0  0  0  0  0  0  0  0
    1.8525   -1.7174    0.1510 H   0  0  0  0  0  0  0  0  0  0  0  0
    1.6830   -1.0424    1.8660 H   0  0  0  0  0  0  0  0  0  0  0  0
    1.7786   -0.2259   -1.7211 H   0  0  0  0  0  0  0  0  0  0  0  0
    1.6985    1.5946   -1.4326 H   0  0  0  0  0  0  0  0  0  0  0  0
   -1.6668    1.3407   -1.4670 H   0  0  0  0  0  0  0  0  0  0  0  0
   -2.9807   -0.7901   -0.7584 H   0  0  0  0  0  0  0  0  0  0  0  0
   -1.3203   -1.4863   -1.2762 H   0  0  0  0  0  0  0  0  0  0  0  0
   -1.6721   -1.3262    1.4633 H   0  0  0  0  0  0  0  0  0  0  0  0
   -2.8744    0.9060    0.7969 H   0  0  0  0  0  0  0  0  0  0  0  0
   -1.1429    1.3950    1.3374 H   0  0  0  0  0  0  0  0  0  0  0  0
  1  2  1  0
  2  3  1  0
  3  4  2  0
  4  5  1  0
  4  6  1  0
  6  7  1  0
  7  8  1  0
  8  9  1  0
  5  1  1  0
  9  6  1  0
  8  3  1  0
  1 10  1  0
  1 11  1  0
  2 12  1  0
  2 13  1  0
  5 14  1  0
  5 15  1  0
  6 16  1  0
  7 17  1  0
  7 18  1  0
  8 19  1  0
  9 20  1  0
  9 21  1  0
M  END
