
     RDKit          3D

 19 21  0  0  0  0  0  0  0  0999 V2000
    2.3381   -0.6439    0.2485 C   0  0  0  0  0  0  0  0  0  0  0  0
    1.3792   -0.6921   -0.9306 C   0  0  0  0  0  0  0  0  0  0  0  0
    0.4235    0.4210   -0.5903 C   0  0  0  0  0  0  0  0  0  0  0  0
    0.5467    0.5295    0.8940 C   0  0  0  0  0  0  0  0  0  0  0  0
    1.4709   -0.4052    1.3014 O   0  0  0  0  0  0  0  0  0  0  0  0
   -0.6958    0.1763    0.3437 C   0  0  0  0  0  0  0  0  0  0  0  0
   -1.9791    0.8857    0.2859 C   0  0  0  0  0  0  0  0  0  0  0  0
   -2.2758   -0.3646   -0.5588 C   0  0  0  0  0  0  0  0  0  0  0  0
   -1.3300   -1.0229    0.2638 O   0  0  0  0  0  0  0  0  0  0  0  0
    2.8812   -1.5839    0.3926 H   0  0  0  0  0  0  0  0  0  0  0  0
    3.0087    0.2272    0.0830 H   0  0  0  0  0  0  0  0  0  0  0  0
    1.9526   -0.3806   -1.8198 H   0  0  0  0  0  0  0  0  0  0  0  0
    0.8921   -1.6594   -1.0530 H   0  0  0  0  0  0  0  0  0  0  0  0
    0.3422    1.2925   -1.2387 H   0  0  0  0  0  0  0  0  0  0  0  0
    0.7130    1.5435    1.3247 H   0  0  0  0  0  0  0  0  0  0  0  0
   -1.9941    1.8238   -0.2608 H   0  0  0  0  0  0  0  0  0  0  0  0
   -2.5599    0.8240    1.2265 H   0  0  0  0  0  0  0  0  0  0  0  0
   -3.2908   -0.7349   -0.4923 H   0  0  0  0  0  0  0  0  0  0  0  0
   -1.8227   -0.2359   -1.5542 H   0  0  0  0  0  0  0  0  0  0  0  0
  1  2  1  0
  2  3  1  0
  3  4  1  0
  4  5  1  0
  4  6  1  0
  6  7  1  0
  7  8  1  0
  8  9  1  0
  5  1  1  0
  9  6  1  0
  6  3  1  0
  1 10  1  0
  1 11  1  0
  2 12  1  0
  2 13  1  0
  3 14  1  0
  4 15  1  0
  7 16  1  0
  7 17  1  0
  8 18  1  0
  8 19  1  0
M  END
