
     RDKit          3D

 19 21  0  0  0  0  0  0  0  0999 V2000
   -2.2627    0.3713   -0.0934 C   0  0  0  0  0  0  0  0  0  0  0  0
   -1.3847   -0.8943   -0.0536 C   0  0  0  0  0  0  0  0  0  0  0  0
   -0.1604   -0.3615    0.5062 C   0  0  0  0  0  0  0  0  0  0  0  0
   -0.2010    1.0551   -0.1171 C   0  0  0  0  0  0  0  0  0  0  0  0
   -1.4195    1.4341    0.3208 O   0  0  0  0  0  0  0  0  0  0  0  0
    0.9201    1.5440    0.4437 O   0  0  0  0  0  0  0  0  0  0  0  0
    1.9291    0.5670    0.3395 C   0  0  0  0  0  0  0  0  0  0  0  0
    1.9993   -0.1385   -0.9444 C   0  0  0  0  0  0  0  0  0  0  0  0
    1.1587   -0.7750    0.0815 C   0  0  0  0  0  0  0  0  0  0  0  0
   -3.0582    0.3250    0.6778 H   0  0  0  0  0  0  0  0  0  0  0  0
   -2.6704    0.5467   -1.0925 H   0  0  0  0  0  0  0  0  0  0  0  0
   -1.8806   -1.5968    0.6520 H   0  0  0  0  0  0  0  0  0  0  0  0
   -1.3395   -1.3667   -1.0400 H   0  0  0  0  0  0  0  0  0  0  0  0
   -0.2556   -0.2159    1.5995 H   0  0  0  0  0  0  0  0  0  0  0  0
   -0.2148    0.9939   -1.2199 H   0  0  0  0  0  0  0  0  0  0  0  0
    2.6768    0.5067    1.1257 H   0  0  0  0  0  0  0  0  0  0  0  0
    1.5986    0.3265   -1.8604 H   0  0  0  0  0  0  0  0  0  0  0  0
    2.9796   -0.6534   -1.1493 H   0  0  0  0  0  0  0  0  0  0  0  0
    1.5850   -1.6681    0.6285 H   0  0  0  0  0  0  0  0  0  0  0  0
  1  2  1  0
  2  3  1  0
  3  4  1  0
  4  5  1  0
  4  6  1  0
  6  7  1  0
  7  8  1  0
  8  9  1  0
  5  1  1  0
  9  7  1  0
  9  3  1  0
  1 10  1  0
  1 11  1  0
  2 12  1  0
  2 13  1  0
  3 14  1  0
  4 15  1  0
  7 16  1  0
  8 17  1  0
  8 18  1  0
  9 19  1  0
M  END
