
     RDKit          3D

 19 20  0  0  0  0  0  0  0  0999 V2000
    1.9374   -0.3068    0.3129 C   0  0  0  0  0  0  0  0  0  0  0  0
    1.1728   -0.1158   -1.0068 C   0  0  0  0  0  0  0  0  0  0  0  0
   -0.0070    0.1109   -0.1333 C   0  0  0  0  0  0  0  0  0  0  0  0
    0.9206    0.6955    0.8884 C   0  0  0  0  0  0  0  0  0  0  0  0
   -0.8307   -1.0495    0.2635 C   0  0  0  0  0  0  0  0  0  0  0  0
   -2.0364   -0.1002    0.2524 C   0  0  0  0  0  0  0  0  0  0  0  0
   -1.1642    0.8452   -0.5889 C   0  0  0  0  0  0  0  0  0  0  0  0
    1.7142   -1.3289    0.6795 H   0  0  0  0  0  0  0  0  0  0  0  0
    2.9635    0.0255    0.3094 H   0  0  0  0  0  0  0  0  0  0  0  0
    1.5042    0.8215   -1.5012 H   0  0  0  0  0  0  0  0  0  0  0  0
    1.1669   -0.9848   -1.6631 H   0  0  0  0  0  0  0  0  0  0  0  0
    1.2367    1.7279    0.5864 H   0  0  0  0  0  0  0  0  0  0  0  0
    0.6796    0.5482    1.9392 H   0  0  0  0  0  0  0  0  0  0  0  0
   -0.6270   -1.5258    1.2211 H   0  0  0  0  0  0  0  0  0  0  0  0
   -0.8669   -1.8215   -0.5393 H   0  0  0  0  0  0  0  0  0  0  0  0
   -2.9096   -0.4984   -0.2653 H   0  0  0  0  0  0  0  0  0  0  0  0
   -2.1794    0.3109    1.2658 H   0  0  0  0  0  0  0  0  0  0  0  0
   -1.3045    1.9097   -0.3281 H   0  0  0  0  0  0  0  0  0  0  0  0
   -1.3700    0.7365   -1.6926 H   0  0  0  0  0  0  0  0  0  0  0  0
  1  2  1  0
  2  3  1  0
  3  4  1  0
  3  5  1  0
  5  6  1  0
  6  7  1  0
  4  1  1  0
  7  3  1  0
  1  8  1  0
  1  9  1  0
  2 10  1  0
  2 11  1  0
  4 12  1  0
  4 13  1  0
  5 14  1  0
  5 15  1  0
  6 16  1  0
  6 17  1  0
  7 18  1  0
  7 19  1  0
M  END
