
     RDKit          3D

 23 25  0  0  0  0  0  0  0  0999 V2000
   -2.4080   -0.1618    0.3239 C   0  0  0  0  0  0  0  0  0  0  0  0
   -2.0855    0.6190   -0.9182 C   0  0  0  0  0  0  0  0  0  0  0  0
   -0.5862    0.7579   -0.9214 C   0  0  0  0  0  0  0  0  0  0  0  0
   -0.0476   -0.2329    0.0794 C   0  0  0  0  0  0  0  0  0  0  0  0
   -1.1784   -0.9891    0.6502 C   0  0  0  0  0  0  0  0  0  0  0  0
    1.1604    0.0004    0.8619 C   0  0  0  0  0  0  0  0  0  0  0  0
    2.3800    0.6692    0.3424 C   0  0  0  0  0  0  0  0  0  0  0  0
    2.2077   -0.0338   -1.0051 C   0  0  0  0  0  0  0  0  0  0  0  0
    1.1928   -0.9256   -0.2977 C   0  0  0  0  0  0  0  0  0  0  0  0
   -3.2922   -0.7958    0.0967 H   0  0  0  0  0  0  0  0  0  0  0  0
   -2.6261    0.5131    1.1697 H   0  0  0  0  0  0  0  0  0  0  0  0
   -2.4706    0.0732   -1.8155 H   0  0  0  0  0  0  0  0  0  0  0  0
   -2.5402    1.6184   -0.8580 H   0  0  0  0  0  0  0  0  0  0  0  0
   -0.2463    0.4239   -1.9444 H   0  0  0  0  0  0  0  0  0  0  0  0
   -0.2238    1.7738   -0.7904 H   0  0  0  0  0  0  0  0  0  0  0  0
   -1.2454   -1.9939    0.1563 H   0  0  0  0  0  0  0  0  0  0  0  0
   -1.1321   -1.1856    1.7307 H   0  0  0  0  0  0  0  0  0  0  0  0
    1.1833   -0.3529    1.9024 H   0  0  0  0  0  0  0  0  0  0  0  0
    3.3454    0.2922    0.7883 H   0  0  0  0  0  0  0  0  0  0  0  0
    2.3935    1.7581    0.3037 H   0  0  0  0  0  0  0  0  0  0  0  0
    3.0914   -0.5326   -1.3924 H   0  0  0  0  0  0  0  0  0  0  0  0
    1.7622    0.6965   -1.7126 H   0  0  0  0  0  0  0  0  0  0  0  0
    1.3656   -1.9919   -0.2116 H   0  0  0  0  0  0  0  0  0  0  0  0
  1  2  1  0
  2  3  1  0
  3  4  1  0
  4  5  1  0
  4  6  1  0
  6  7  1  0
  7  8  1  0
  8  9  1  0
  5  1  1  0
  9  6  1  0
  9  4  1  0
  1 10  1  0
  1 11  1  0
  2 12  1  0
  2 13  1  0
  3 14  1  0
  3 15  1  0
  5 16  1  0
  5 17  1  0
  6 18  1  0
  7 19  1  0
  7 20  1  0
  8 21  1  0
  8 22  1  0
  9 23  1  0
M  END
