
     RDKit          3D

 19 21  0  0  0  0  0  0  0  0999 V2000
    1.8953    0.0763    0.4274 C   0  0  0  0  0  0  0  0  0  0  0  0
    1.0380    1.1407   -0.2038 C   0  0  0  0  0  0  0  0  0  0  0  0
   -0.2802    0.6403   -0.6947 C   0  0  0  0  0  0  0  0  0  0  0  0
   -1.5466    1.0575    0.0630 C   0  0  0  0  0  0  0  0  0  0  0  0
   -1.8589   -0.4326    0.1845 C   0  0  0  0  0  0  0  0  0  0  0  0
   -0.5996   -0.7047   -0.5843 C   0  0  0  0  0  0  0  0  0  0  0  0
    0.4361   -1.6448   -0.0696 C   0  0  0  0  0  0  0  0  0  0  0  0
    1.7257   -1.1739   -0.1323 O   0  0  0  0  0  0  0  0  0  0  0  0
   -0.3990   -0.1355   -1.8108 O   0  0  0  0  0  0  0  0  0  0  0  0
    1.8074    0.0771    1.5395 H   0  0  0  0  0  0  0  0  0  0  0  0
    2.9638    0.3730    0.2134 H   0  0  0  0  0  0  0  0  0  0  0  0
    0.8300    1.9578    0.5337 H   0  0  0  0  0  0  0  0  0  0  0  0
    1.5610    1.6317   -1.0577 H   0  0  0  0  0  0  0  0  0  0  0  0
   -2.2455    1.6301   -0.5585 H   0  0  0  0  0  0  0  0  0  0  0  0
   -1.2449    1.5391    1.0146 H   0  0  0  0  0  0  0  0  0  0  0  0
   -2.8085   -0.6910   -0.3052 H   0  0  0  0  0  0  0  0  0  0  0  0
   -1.8321   -0.7742    1.2162 H   0  0  0  0  0  0  0  0  0  0  0  0
    0.1578   -2.0014    0.9474 H   0  0  0  0  0  0  0  0  0  0  0  0
    0.4002   -2.5655   -0.7229 H   0  0  0  0  0  0  0  0  0  0  0  0
  1  2  1  0
  2  3  1  0
  3  4  1  0
  4  5  1  0
  5  6  1  0
  6  7  1  0
  7  8  1  0
  6  9  1  0
  8  1  1  0
  6  3  1  0
  9  3  1  0
  1 10  1  0
  1 11  1  0
  2 12  1  0
  2 13  1  0
  4 14  1  0
  4 15  1  0
  5 16  1  0
  5 17  1  0
  7 18  1  0
  7 19  1  0
M  END
