
     RDKit          2D

 21 24  0  0  0  0  0  0  0  0999 V2000
    1.0663   -2.2894    0.0000 C   0  0  0  0  0  0  0  0  0  0  0  0
    2.5606   -2.4201    0.0000 C   0  0  0  0  0  0  0  0  0  0  0  0
    1.9267   -1.0607    0.0000 C   0  0  0  0  0  0  0  0  0  0  0  0
    0.8660    0.0000    0.0000 C   0  0  0  0  0  0  0  0  0  0  0  0
    1.6160    1.2990    0.0000 C   0  0  0  0  0  0  0  0  0  0  0  0
    0.3170    2.0490    0.0000 C   0  0  0  0  0  0  0  0  0  0  0  0
   -0.4330    0.7500    0.0000 C   0  0  0  0  0  0  0  0  0  0  0  0
   -0.4330   -0.7500    0.0000 C   0  0  0  0  0  0  0  0  0  0  0  0
    1.6160   -0.2010    0.0000 C   0  0  0  0  0  0  0  0  0  0  0  0
    0.6781   -3.7383    0.0000 H   0  0  0  0  0  0  0  0  0  0  0  0
   -0.2931   -1.6555    0.0000 H   0  0  0  0  0  0  0  0  0  0  0  0
    4.0095   -2.0319    0.0000 H   0  0  0  0  0  0  0  0  0  0  0  0
    2.6913   -3.9144    0.0000 H   0  0  0  0  0  0  0  0  0  0  0  0
    2.6305   -0.6864    0.0000 H   0  0  0  0  0  0  0  0  0  0  0  0
    3.0649    1.6873    0.0000 H   0  0  0  0  0  0  0  0  0  0  0  0
   -0.9821    2.7990    0.0000 H   0  0  0  0  0  0  0  0  0  0  0  0
    1.0670    3.3481    0.0000 H   0  0  0  0  0  0  0  0  0  0  0  0
   -1.8819    1.1382    0.0000 H   0  0  0  0  0  0  0  0  0  0  0  0
   -1.1830   -2.0490    0.0000 H   0  0  0  0  0  0  0  0  0  0  0  0
    2.4072   -0.1038    0.0000 H   0  0  0  0  0  0  0  0  0  0  0  0
    1.9790   -1.6564    0.0000 H   0  0  0  0  0  0  0  0  0  0  0  0
  1  2  1  0
  2  3  1  0
  3  4  1  0
  4  5  1  0
  5  6  1  0
  6  7  1  0
  7  8  1  0
  8  9  1  0
  3  1  1  0
  7  4  1  0
  8  4  1  0
  9  5  1  0
  1 10  1  0
  1 11  1  0
  2 12  1  0
  2 13  1  0
  3 14  1  0
  5 15  1  0
  6 16  1  0
  6 17  1  0
  7 18  1  0
  8 19  1  0
  9 20  1  0
  9 21  1  0
M  END
