
     RDKit          3D

 18 20  0  0  0  0  0  0  0  0999 V2000
   -1.9276   -0.2969   -0.9620 C   0  0  0  0  0  0  0  0  0  0  0  0
   -1.9980   -0.0708    0.5795 C   0  0  0  0  0  0  0  0  0  0  0  0
   -0.7602   -0.0632   -0.1411 C   0  0  0  0  0  0  0  0  0  0  0  0
    0.3770   -1.0037    0.0376 C   0  0  0  0  0  0  0  0  0  0  0  0
    1.3087    0.1013   -0.2646 C   0  0  0  0  0  0  0  0  0  0  0  0
    2.6157    0.3224    0.0362 C   0  0  0  0  0  0  0  0  0  0  0  0
    2.1631   -0.0821   -1.3226 O   0  0  0  0  0  0  0  0  0  0  0  0
    0.1778    1.0684   -0.3122 C   0  0  0  0  0  0  0  0  0  0  0  0
   -2.3286    0.5595   -1.5447 H   0  0  0  0  0  0  0  0  0  0  0  0
   -2.2477   -1.2999   -1.3179 H   0  0  0  0  0  0  0  0  0  0  0  0
   -2.2630   -1.0083    1.1516 H   0  0  0  0  0  0  0  0  0  0  0  0
   -2.4976    0.8492    0.9190 H   0  0  0  0  0  0  0  0  0  0  0  0
    0.3545   -1.8663   -0.6716 H   0  0  0  0  0  0  0  0  0  0  0  0
    0.4002   -1.4003    1.0848 H   0  0  0  0  0  0  0  0  0  0  0  0
    3.2916   -0.4595    0.4820 H   0  0  0  0  0  0  0  0  0  0  0  0
    3.1134    1.2910   -0.0527 H   0  0  0  0  0  0  0  0  0  0  0  0
    0.1220    1.5691   -1.2902 H   0  0  0  0  0  0  0  0  0  0  0  0
    0.0988    1.7902    0.5184 H   0  0  0  0  0  0  0  0  0  0  0  0
  1  2  1  0
  2  3  1  0
  3  4  1  0
  4  5  1  0
  5  6  1  0
  6  7  1  0
  5  8  1  0
  3  1  1  0
  7  5  1  0
  8  3  1  0
  1  9  1  0
  1 10  1  0
  2 11  1  0
  2 12  1  0
  4 13  1  0
  4 14  1  0
  6 15  1  0
  6 16  1  0
  8 17  1  0
  8 18  1  0
M  END
