
     RDKit          3D

 21 23  0  0  0  0  0  0  0  0999 V2000
   -2.0006   -0.1747    0.1758 C   0  0  0  0  0  0  0  0  0  0  0  0
   -1.4806    1.1916   -0.3430 C   0  0  0  0  0  0  0  0  0  0  0  0
   -0.1834    0.6612   -0.1383 C   0  0  0  0  0  0  0  0  0  0  0  0
    0.6915    1.1087    0.9125 C   0  0  0  0  0  0  0  0  0  0  0  0
    1.1505    0.7479   -0.5044 C   0  0  0  0  0  0  0  0  0  0  0  0
    1.9898   -0.5281   -0.4928 C   0  0  0  0  0  0  0  0  0  0  0  0
    1.2880   -1.6932   -0.4788 O   0  0  0  0  0  0  0  0  0  0  0  0
    0.1153   -1.6596    0.3175 C   0  0  0  0  0  0  0  0  0  0  0  0
   -0.7470   -0.7000   -0.3638 C   0  0  0  0  0  0  0  0  0  0  0  0
   -2.9465   -0.4827   -0.2714 H   0  0  0  0  0  0  0  0  0  0  0  0
   -2.0371   -0.1850    1.2836 H   0  0  0  0  0  0  0  0  0  0  0  0
   -1.8729    1.9796    0.3532 H   0  0  0  0  0  0  0  0  0  0  0  0
   -1.7834    1.3840   -1.3876 H   0  0  0  0  0  0  0  0  0  0  0  0
    0.7001    2.2259    1.0891 H   0  0  0  0  0  0  0  0  0  0  0  0
    1.0519    0.5600    1.7709 H   0  0  0  0  0  0  0  0  0  0  0  0
    1.5133    1.5722   -1.1621 H   0  0  0  0  0  0  0  0  0  0  0  0
    2.6387   -0.5207    0.4333 H   0  0  0  0  0  0  0  0  0  0  0  0
    2.6534   -0.5220   -1.3668 H   0  0  0  0  0  0  0  0  0  0  0  0
   -0.2999   -2.6848    0.3213 H   0  0  0  0  0  0  0  0  0  0  0  0
    0.4176   -1.3188    1.3073 H   0  0  0  0  0  0  0  0  0  0  0  0
   -0.8586   -0.9616   -1.4556 H   0  0  0  0  0  0  0  0  0  0  0  0
  1  2  1  0
  2  3  1  0
  3  4  1  0
  4  5  1  0
  5  6  1  0
  6  7  1  0
  7  8  1  0
  8  9  1  0
  9  1  1  0
  5  3  1  0
  9  3  1  0
  1 10  1  0
  1 11  1  0
  2 12  1  0
  2 13  1  0
  4 14  1  0
  4 15  1  0
  5 16  1  0
  6 17  1  0
  6 18  1  0
  8 19  1  0
  8 20  1  0
  9 21  1  0
M  END
