
     RDKit          3D

 16 16  0  0  0  0  0  0  0  0999 V2000
   -0.5600   -0.9582   -0.5518 C   0  0  0  0  0  0  0  0  0  0  0  0
   -1.3373    0.1978   -0.0081 C   0  0  0  0  0  0  0  0  0  0  0  0
   -0.5642    1.3312    0.5046 C   0  0  0  0  0  0  0  0  0  0  0  0
    0.7602    1.3857    0.3367 O   0  0  0  0  0  0  0  0  0  0  0  0
    1.5058    0.3260    0.0674 C   0  0  0  0  0  0  0  0  0  0  0  0
    0.8675   -0.9980   -0.0944 C   0  0  0  0  0  0  0  0  0  0  0  0
   -1.0231   -1.9290   -0.2699 H   0  0  0  0  0  0  0  0  0  0  0  0
   -0.5713   -0.9620   -1.6759 H   0  0  0  0  0  0  0  0  0  0  0  0
   -2.0455   -0.2127    0.7750 H   0  0  0  0  0  0  0  0  0  0  0  0
   -2.0488    0.5184   -0.8284 H   0  0  0  0  0  0  0  0  0  0  0  0
   -0.9918    2.2910    0.0790 H   0  0  0  0  0  0  0  0  0  0  0  0
   -0.7762    1.4525    1.6110 H   0  0  0  0  0  0  0  0  0  0  0  0
    2.1203    0.5316   -0.8601 H   0  0  0  0  0  0  0  0  0  0  0  0
    2.2988    0.2244    0.8699 H   0  0  0  0  0  0  0  0  0  0  0  0
    0.9277   -1.5820    0.8705 H   0  0  0  0  0  0  0  0  0  0  0  0
    1.4379   -1.6168   -0.8254 H   0  0  0  0  0  0  0  0  0  0  0  0
  1  2  1  0
  2  3  1  0
  3  4  1  0
  4  5  1  0
  5  6  1  0
  6  1  1  0
  1  7  1  0
  1  8  1  0
  2  9  1  0
  2 10  1  0
  3 11  1  0
  3 12  1  0
  5 13  1  0
  5 14  1  0
  6 15  1  0
  6 16  1  0
M  END
