
     RDKit          3D

 23 24  0  0  0  0  0  0  0  0999 V2000
    2.4422    0.6119    0.7757 C   0  0  0  0  0  0  0  0  0  0  0  0
    2.0513   -0.8575    1.0077 C   0  0  0  0  0  0  0  0  0  0  0  0
    1.1754   -0.6740   -0.2400 C   0  0  0  0  0  0  0  0  0  0  0  0
    0.0321   -0.0529    0.1317 O   0  0  0  0  0  0  0  0  0  0  0  0
   -1.1425   -0.5099   -0.3435 C   0  0  0  0  0  0  0  0  0  0  0  0
   -2.3447   -0.5222    0.5405 C   0  0  0  0  0  0  0  0  0  0  0  0
   -2.5777    0.9395    0.1595 C   0  0  0  0  0  0  0  0  0  0  0  0
   -1.8286    0.6113   -1.1375 C   0  0  0  0  0  0  0  0  0  0  0  0
    2.2849    0.2844   -0.7019 C   0  0  0  0  0  0  0  0  0  0  0  0
    1.6329    1.2850    1.0884 H   0  0  0  0  0  0  0  0  0  0  0  0
    3.4529    0.8342    1.1107 H   0  0  0  0  0  0  0  0  0  0  0  0
    2.9144   -1.5226    0.8619 H   0  0  0  0  0  0  0  0  0  0  0  0
    1.4810   -1.0056    1.9392 H   0  0  0  0  0  0  0  0  0  0  0  0
    1.1461   -1.5241   -0.9083 H   0  0  0  0  0  0  0  0  0  0  0  0
   -1.0542   -1.3875   -1.0216 H   0  0  0  0  0  0  0  0  0  0  0  0
   -3.1561   -1.1476    0.0877 H   0  0  0  0  0  0  0  0  0  0  0  0
   -2.2101   -0.6677    1.6032 H   0  0  0  0  0  0  0  0  0  0  0  0
   -3.6491    1.1517   -0.0360 H   0  0  0  0  0  0  0  0  0  0  0  0
   -2.0526    1.6620    0.8098 H   0  0  0  0  0  0  0  0  0  0  0  0
   -1.1491    1.4202   -1.4541 H   0  0  0  0  0  0  0  0  0  0  0  0
   -2.5384    0.2443   -1.8920 H   0  0  0  0  0  0  0  0  0  0  0  0
    1.9280    1.1030   -1.3328 H   0  0  0  0  0  0  0  0  0  0  0  0
    3.1619   -0.2758   -1.0481 H   0  0  0  0  0  0  0  0  0  0  0  0
  1  2  1  0
  2  3  1  0
  3  4  1  0
  4  5  1  0
  5  6  1  0
  6  7  1  0
  7  8  1  0
  3  9  1  0
  9  1  1  0
  8  5  1  0
  1 10  1  0
  1 11  1  0
  2 12  1  0
  2 13  1  0
  3 14  1  0
  5 15  1  0
  6 16  1  0
  6 17  1  0
  7 18  1  0
  7 19  1  0
  8 20  1  0
  8 21  1  0
  9 22  1  0
  9 23  1  0
M  END
