
     RDKit          3D

 17 19  0  0  0  0  0  0  0  0999 V2000
    0.6524   -1.2396   -0.2404 C   0  0  0  0  0  0  0  0  0  0  0  0
    1.5497   -0.0384   -0.4443 C   0  0  0  0  0  0  0  0  0  0  0  0
    0.6798    1.1424   -0.0506 C   0  0  0  0  0  0  0  0  0  0  0  0
   -0.7786    1.1211   -0.3064 C   0  0  0  0  0  0  0  0  0  0  0  0
   -1.5617   -0.1520   -0.3708 C   0  0  0  0  0  0  0  0  0  0  0  0
   -0.5265   -0.7688    0.5773 C   0  0  0  0  0  0  0  0  0  0  0  0
   -0.1748    0.6168    0.9947 C   0  0  0  0  0  0  0  0  0  0  0  0
    1.1694   -2.0357    0.3218 H   0  0  0  0  0  0  0  0  0  0  0  0
    0.3451   -1.6921   -1.2113 H   0  0  0  0  0  0  0  0  0  0  0  0
    1.9676    0.0401   -1.4452 H   0  0  0  0  0  0  0  0  0  0  0  0
    2.3744   -0.0674    0.3264 H   0  0  0  0  0  0  0  0  0  0  0  0
    1.1360    2.1232    0.0805 H   0  0  0  0  0  0  0  0  0  0  0  0
   -1.3171    2.0645   -0.3264 H   0  0  0  0  0  0  0  0  0  0  0  0
   -2.5387   -0.0635    0.1855 H   0  0  0  0  0  0  0  0  0  0  0  0
   -1.6319   -0.6508   -1.3495 H   0  0  0  0  0  0  0  0  0  0  0  0
   -0.9212   -1.4524    1.3195 H   0  0  0  0  0  0  0  0  0  0  0  0
   -0.4237    1.0526    1.9394 H   0  0  0  0  0  0  0  0  0  0  0  0
  1  2  1  0
  2  3  1  0
  3  4  1  0
  4  5  1  0
  5  6  1  0
  6  7  1  0
  6  1  1  0
  7  3  1  0
  7  4  1  0
  1  8  1  0
  1  9  1  0
  2 10  1  0
  2 11  1  0
  3 12  1  0
  4 13  1  0
  5 14  1  0
  5 15  1  0
  6 16  1  0
  7 17  1  0
M  END
