
     RDKit          3D

 21 23  0  0  0  0  0  0  0  0999 V2000
    1.9471   -0.2245   -0.1895 C   0  0  0  0  0  0  0  0  0  0  0  0
    1.3879    1.1411    0.0471 C   0  0  0  0  0  0  0  0  0  0  0  0
   -0.0139    1.1365   -0.5537 C   0  0  0  0  0  0  0  0  0  0  0  0
   -0.8466    0.2828    0.4254 C   0  0  0  0  0  0  0  0  0  0  0  0
   -2.2034    0.7397    0.5265 C   0  0  0  0  0  0  0  0  0  0  0  0
   -2.0785   -0.4460   -0.2492 C   0  0  0  0  0  0  0  0  0  0  0  0
   -1.0211   -0.8293   -1.1001 O   0  0  0  0  0  0  0  0  0  0  0  0
   -0.3959   -1.1295    0.1372 C   0  0  0  0  0  0  0  0  0  0  0  0
    1.0464   -1.3495    0.1070 C   0  0  0  0  0  0  0  0  0  0  0  0
    2.2928   -0.2507   -1.2612 H   0  0  0  0  0  0  0  0  0  0  0  0
    2.8947   -0.3038    0.4074 H   0  0  0  0  0  0  0  0  0  0  0  0
    1.2715    1.3036    1.1504 H   0  0  0  0  0  0  0  0  0  0  0  0
    2.0164    1.9070   -0.4011 H   0  0  0  0  0  0  0  0  0  0  0  0
   -0.0118    0.7350   -1.5648 H   0  0  0  0  0  0  0  0  0  0  0  0
   -0.3862    2.1796   -0.5765 H   0  0  0  0  0  0  0  0  0  0  0  0
   -2.6316    0.7006    1.5746 H   0  0  0  0  0  0  0  0  0  0  0  0
   -2.5700    1.6937    0.0393 H   0  0  0  0  0  0  0  0  0  0  0  0
   -2.4213   -1.3893    0.2763 H   0  0  0  0  0  0  0  0  0  0  0  0
   -0.9124   -1.9284    0.7209 H   0  0  0  0  0  0  0  0  0  0  0  0
    1.3486   -1.7868    1.1026 H   0  0  0  0  0  0  0  0  0  0  0  0
    1.2874   -2.1816   -0.6186 H   0  0  0  0  0  0  0  0  0  0  0  0
  1  2  1  0
  2  3  1  0
  3  4  1  0
  4  5  1  0
  5  6  1  0
  6  7  1  0
  7  8  1  0
  8  9  1  0
  9  1  1  0
  6  4  1  0
  8  4  1  0
  1 10  1  0
  1 11  1  0
  2 12  1  0
  2 13  1  0
  3 14  1  0
  3 15  1  0
  5 16  1  0
  5 17  1  0
  6 18  1  0
  8 19  1  0
  9 20  1  0
  9 21  1  0
M  END
