
     RDKit          3D

 21 23  0  0  0  0  0  0  0  0999 V2000
   -1.4492    0.1259    0.7357 C   0  0  0  0  0  0  0  0  0  0  0  0
   -0.5568    1.3202    0.6337 C   0  0  0  0  0  0  0  0  0  0  0  0
    0.1993    1.1449   -0.6903 C   0  0  0  0  0  0  0  0  0  0  0  0
   -0.5805    0.0495   -1.4316 C   0  0  0  0  0  0  0  0  0  0  0  0
   -0.8630   -0.8757   -0.2670 C   0  0  0  0  0  0  0  0  0  0  0  0
    0.3692   -1.4999    0.3036 C   0  0  0  0  0  0  0  0  0  0  0  0
    1.6204   -0.7331    0.1243 C   0  0  0  0  0  0  0  0  0  0  0  0
    1.9015    0.3980    0.8805 O   0  0  0  0  0  0  0  0  0  0  0  0
    1.5690    0.5798   -0.4392 C   0  0  0  0  0  0  0  0  0  0  0  0
   -1.5471   -0.2995    1.7350 H   0  0  0  0  0  0  0  0  0  0  0  0
   -2.4394    0.4194    0.2906 H   0  0  0  0  0  0  0  0  0  0  0  0
   -1.0500    2.2842    0.7050 H   0  0  0  0  0  0  0  0  0  0  0  0
    0.1764    1.2648    1.4906 H   0  0  0  0  0  0  0  0  0  0  0  0
    0.1915    2.0742   -1.2555 H   0  0  0  0  0  0  0  0  0  0  0  0
    0.0351   -0.3949   -2.2078 H   0  0  0  0  0  0  0  0  0  0  0  0
   -1.5196    0.4922   -1.7670 H   0  0  0  0  0  0  0  0  0  0  0  0
   -1.6085   -1.6307   -0.5465 H   0  0  0  0  0  0  0  0  0  0  0  0
    0.4939   -2.4963   -0.1935 H   0  0  0  0  0  0  0  0  0  0  0  0
    0.1584   -1.7569    1.3811 H   0  0  0  0  0  0  0  0  0  0  0  0
    2.5587   -1.3401   -0.0485 H   0  0  0  0  0  0  0  0  0  0  0  0
    2.3408    0.8742   -1.1867 H   0  0  0  0  0  0  0  0  0  0  0  0
  1  2  1  0
  2  3  1  0
  3  4  1  0
  4  5  1  0
  5  6  1  0
  6  7  1  0
  7  8  1  0
  8  9  1  0
  5  1  1  0
  9  7  1  0
  9  3  1  0
  1 10  1  0
  1 11  1  0
  2 12  1  0
  2 13  1  0
  3 14  1  0
  4 15  1  0
  4 16  1  0
  5 17  1  0
  6 18  1  0
  6 19  1  0
  7 20  1  0
  9 21  1  0
M  END
