
     RDKit          3D

 23 25  0  0  0  0  0  0  0  0999 V2000
   -2.5719   -0.1180    0.6862 C   0  0  0  0  0  0  0  0  0  0  0  0
   -2.6842    0.8154   -0.4930 C   0  0  0  0  0  0  0  0  0  0  0  0
   -1.4074    0.7521    0.2462 C   0  0  0  0  0  0  0  0  0  0  0  0
   -0.2502   -0.0137   -0.3446 C   0  0  0  0  0  0  0  0  0  0  0  0
    0.8811    0.8511   -0.7703 C   0  0  0  0  0  0  0  0  0  0  0  0
    2.0729   -0.0949   -0.6713 C   0  0  0  0  0  0  0  0  0  0  0  0
    2.7432   -0.1185    0.6460 C   0  0  0  0  0  0  0  0  0  0  0  0
    1.7285   -1.1327    0.3380 C   0  0  0  0  0  0  0  0  0  0  0  0
    0.2880   -0.9838    0.6818 C   0  0  0  0  0  0  0  0  0  0  0  0
   -3.0995    0.1283    1.6233 H   0  0  0  0  0  0  0  0  0  0  0  0
   -2.5304   -1.2082    0.4456 H   0  0  0  0  0  0  0  0  0  0  0  0
   -2.6757    0.4142   -1.5232 H   0  0  0  0  0  0  0  0  0  0  0  0
   -3.3953    1.6497   -0.3515 H   0  0  0  0  0  0  0  0  0  0  0  0
   -1.1736    1.6433    0.8714 H   0  0  0  0  0  0  0  0  0  0  0  0
   -0.6435   -0.5526   -1.2379 H   0  0  0  0  0  0  0  0  0  0  0  0
    1.0628    1.7301   -0.1299 H   0  0  0  0  0  0  0  0  0  0  0  0
    0.8192    1.2178   -1.8108 H   0  0  0  0  0  0  0  0  0  0  0  0
    2.5361   -0.4660   -1.5911 H   0  0  0  0  0  0  0  0  0  0  0  0
    3.8041   -0.4678    0.7488 H   0  0  0  0  0  0  0  0  0  0  0  0
    2.5453    0.7400    1.3391 H   0  0  0  0  0  0  0  0  0  0  0  0
    2.0859   -2.1860    0.2193 H   0  0  0  0  0  0  0  0  0  0  0  0
   -0.2514   -1.9360    0.5413 H   0  0  0  0  0  0  0  0  0  0  0  0
    0.1163   -0.6638    1.7198 H   0  0  0  0  0  0  0  0  0  0  0  0
  1  2  1  0
  2  3  1  0
  3  4  1  0
  4  5  1  0
  5  6  1  0
  6  7  1  0
  7  8  1  0
  8  9  1  0
  3  1  1  0
  9  4  1  0
  8  6  1  0
  1 10  1  0
  1 11  1  0
  2 12  1  0
  2 13  1  0
  3 14  1  0
  4 15  1  0
  5 16  1  0
  5 17  1  0
  6 18  1  0
  7 19  1  0
  7 20  1  0
  8 21  1  0
  9 22  1  0
  9 23  1  0
M  END
