
     RDKit          3D

 21 23  0  0  0  0  0  0  0  0999 V2000
   -1.9714   -0.5974    0.0984 C   0  0  0  0  0  0  0  0  0  0  0  0
   -1.3504    0.7856    0.3904 C   0  0  0  0  0  0  0  0  0  0  0  0
    0.0388    0.6474   -0.0491 C   0  0  0  0  0  0  0  0  0  0  0  0
    0.8178    1.5884   -0.8033 C   0  0  0  0  0  0  0  0  0  0  0  0
    1.2753    1.1137    0.5055 C   0  0  0  0  0  0  0  0  0  0  0  0
    1.8457   -0.3141    0.4212 C   0  0  0  0  0  0  0  0  0  0  0  0
    0.4552   -0.7523    0.3363 C   0  0  0  0  0  0  0  0  0  0  0  0
   -0.0537   -1.6259   -0.7302 C   0  0  0  0  0  0  0  0  0  0  0  0
   -1.3666   -1.1781   -1.0191 O   0  0  0  0  0  0  0  0  0  0  0  0
   -1.9463   -1.2361    0.9876 H   0  0  0  0  0  0  0  0  0  0  0  0
   -3.0220   -0.4245   -0.1686 H   0  0  0  0  0  0  0  0  0  0  0  0
   -1.5155    1.0533    1.4373 H   0  0  0  0  0  0  0  0  0  0  0  0
   -1.8797    1.5188   -0.2495 H   0  0  0  0  0  0  0  0  0  0  0  0
    0.4652    2.6216   -0.8623 H   0  0  0  0  0  0  0  0  0  0  0  0
    1.4777    1.3212   -1.6763 H   0  0  0  0  0  0  0  0  0  0  0  0
    1.3396    1.6753    1.4163 H   0  0  0  0  0  0  0  0  0  0  0  0
    2.4440   -0.6092    1.2936 H   0  0  0  0  0  0  0  0  0  0  0  0
    2.4264   -0.4665   -0.5148 H   0  0  0  0  0  0  0  0  0  0  0  0
    0.0484   -0.9967    1.3615 H   0  0  0  0  0  0  0  0  0  0  0  0
   -0.0465   -2.7138   -0.5025 H   0  0  0  0  0  0  0  0  0  0  0  0
    0.5181   -1.4107   -1.6724 H   0  0  0  0  0  0  0  0  0  0  0  0
  1  2  1  0
  2  3  1  0
  3  4  1  0
  4  5  1  0
  5  6  1  0
  6  7  1  0
  7  8  1  0
  8  9  1  0
  9  1  1  0
  5  3  1  0
  7  3  1  0
  1 10  1  0
  1 11  1  0
  2 12  1  0
  2 13  1  0
  4 14  1  0
  4 15  1  0
  5 16  1  0
  6 17  1  0
  6 18  1  0
  7 19  1  0
  8 20  1  0
  8 21  1  0
M  END
