
     RDKit          3D

 18 19  0  0  0  0  0  0  0  0999 V2000
    1.7163    0.2560    0.5940 C   0  0  0  0  0  0  0  0  0  0  0  0
    1.2999   -0.8234   -0.3822 C   0  0  0  0  0  0  0  0  0  0  0  0
   -0.1351   -0.5105   -0.6449 C   0  0  0  0  0  0  0  0  0  0  0  0
   -1.0734   -1.0465    0.4119 C   0  0  0  0  0  0  0  0  0  0  0  0
   -1.9963   -0.0808    0.6992 O   0  0  0  0  0  0  0  0  0  0  0  0
   -1.6600    1.0909    0.0795 C   0  0  0  0  0  0  0  0  0  0  0  0
   -0.1938    0.9851   -0.3079 C   0  0  0  0  0  0  0  0  0  0  0  0
    0.5890    1.0518    0.8075 O   0  0  0  0  0  0  0  0  0  0  0  0
    2.4695    0.9317    0.1063 H   0  0  0  0  0  0  0  0  0  0  0  0
    2.0949   -0.1662    1.5499 H   0  0  0  0  0  0  0  0  0  0  0  0
    1.8459   -0.7532   -1.3465 H   0  0  0  0  0  0  0  0  0  0  0  0
    1.4485   -1.8372   -0.0021 H   0  0  0  0  0  0  0  0  0  0  0  0
   -0.4723   -0.7133   -1.6686 H   0  0  0  0  0  0  0  0  0  0  0  0
   -1.4872   -2.0242    0.1312 H   0  0  0  0  0  0  0  0  0  0  0  0
   -0.4387   -1.1811    1.3374 H   0  0  0  0  0  0  0  0  0  0  0  0
   -1.8659    2.0055    0.6685 H   0  0  0  0  0  0  0  0  0  0  0  0
   -2.2284    1.1987   -0.8907 H   0  0  0  0  0  0  0  0  0  0  0  0
    0.0871    1.6167   -1.1427 H   0  0  0  0  0  0  0  0  0  0  0  0
  1  2  1  0
  2  3  1  0
  3  4  1  0
  4  5  1  0
  5  6  1  0
  6  7  1  0
  7  8  1  0
  8  1  1  0
  7  3  1  0
  1  9  1  0
  1 10  1  0
  2 11  1  0
  2 12  1  0
  3 13  1  0
  4 14  1  0
  4 15  1  0
  6 16  1  0
  6 17  1  0
  7 18  1  0
M  END
