
     RDKit          3D

 21 23  0  0  0  0  0  0  0  0999 V2000
    1.7017   -0.6734   -0.0423 C   0  0  0  0  0  0  0  0  0  0  0  0
    0.3690   -1.0430    0.5346 C   0  0  0  0  0  0  0  0  0  0  0  0
   -0.7461   -0.2338   -0.0327 C   0  0  0  0  0  0  0  0  0  0  0  0
   -1.8285   -0.9651   -0.7131 C   0  0  0  0  0  0  0  0  0  0  0  0
   -2.0941   -0.3919    0.6407 C   0  0  0  0  0  0  0  0  0  0  0  0
   -0.3669    1.1422   -0.4638 C   0  0  0  0  0  0  0  0  0  0  0  0
    0.9156    1.6484    0.0653 C   0  0  0  0  0  0  0  0  0  0  0  0
    1.9622    1.6285   -0.9990 O   0  0  0  0  0  0  0  0  0  0  0  0
    2.0333    0.7766    0.1418 C   0  0  0  0  0  0  0  0  0  0  0  0
    2.4867   -1.2850    0.4528 H   0  0  0  0  0  0  0  0  0  0  0  0
    1.7194   -0.9517   -1.1106 H   0  0  0  0  0  0  0  0  0  0  0  0
    0.4474   -0.9808    1.6412 H   0  0  0  0  0  0  0  0  0  0  0  0
    0.2149   -2.1360    0.3170 H   0  0  0  0  0  0  0  0  0  0  0  0
   -2.3547   -0.5888   -1.6020 H   0  0  0  0  0  0  0  0  0  0  0  0
   -1.7788   -2.0936   -0.7097 H   0  0  0  0  0  0  0  0  0  0  0  0
   -2.7407    0.5258    0.6834 H   0  0  0  0  0  0  0  0  0  0  0  0
   -2.1680   -1.0473    1.5344 H   0  0  0  0  0  0  0  0  0  0  0  0
   -1.1761    1.8695   -0.1574 H   0  0  0  0  0  0  0  0  0  0  0  0
   -0.4233    1.1532   -1.5927 H   0  0  0  0  0  0  0  0  0  0  0  0
    0.9357    2.6116    0.6381 H   0  0  0  0  0  0  0  0  0  0  0  0
    2.8914    1.0344    0.7741 H   0  0  0  0  0  0  0  0  0  0  0  0
  1  2  1  0
  2  3  1  0
  3  4  1  0
  4  5  1  0
  3  6  1  0
  6  7  1  0
  7  8  1  0
  8  9  1  0
  9  1  1  0
  5  3  1  0
  9  7  1  0
  1 10  1  0
  1 11  1  0
  2 12  1  0
  2 13  1  0
  4 14  1  0
  4 15  1  0
  5 16  1  0
  5 17  1  0
  6 18  1  0
  6 19  1  0
  7 20  1  0
  9 21  1  0
M  END
