
     RDKit          3D

 21 23  0  0  0  0  0  0  0  0999 V2000
    1.1974    0.6009   -1.1221 C   0  0  0  0  0  0  0  0  0  0  0  0
    0.9220    1.3998    0.1664 C   0  0  0  0  0  0  0  0  0  0  0  0
    0.3702    0.3045    1.0331 C   0  0  0  0  0  0  0  0  0  0  0  0
    1.3054   -0.8662    0.6898 C   0  0  0  0  0  0  0  0  0  0  0  0
    0.6033   -0.7422   -0.6744 C   0  0  0  0  0  0  0  0  0  0  0  0
   -0.5751   -0.3246    0.0801 C   0  0  0  0  0  0  0  0  0  0  0  0
   -1.6383   -1.1931    0.4856 C   0  0  0  0  0  0  0  0  0  0  0  0
   -2.4292   -0.6983   -0.5812 O   0  0  0  0  0  0  0  0  0  0  0  0
   -1.6380    0.4749   -0.5353 C   0  0  0  0  0  0  0  0  0  0  0  0
    2.2850    0.5333   -1.1936 H   0  0  0  0  0  0  0  0  0  0  0  0
    0.6813    1.0194   -1.9793 H   0  0  0  0  0  0  0  0  0  0  0  0
    1.8061    1.8840    0.5482 H   0  0  0  0  0  0  0  0  0  0  0  0
    0.0768    2.0859   -0.0755 H   0  0  0  0  0  0  0  0  0  0  0  0
    0.1359    0.4721    2.0442 H   0  0  0  0  0  0  0  0  0  0  0  0
    1.0410   -1.8118    1.1982 H   0  0  0  0  0  0  0  0  0  0  0  0
    2.3639   -0.6121    0.6737 H   0  0  0  0  0  0  0  0  0  0  0  0
    0.6484   -1.5607   -1.3325 H   0  0  0  0  0  0  0  0  0  0  0  0
   -1.5179   -2.2769    0.5037 H   0  0  0  0  0  0  0  0  0  0  0  0
   -2.1500   -0.8575    1.4345 H   0  0  0  0  0  0  0  0  0  0  0  0
   -2.0732    1.2523    0.1432 H   0  0  0  0  0  0  0  0  0  0  0  0
   -1.4148    0.9162   -1.5067 H   0  0  0  0  0  0  0  0  0  0  0  0
  1  2  1  0
  2  3  1  0
  3  4  1  0
  4  5  1  0
  5  6  1  0
  6  7  1  0
  7  8  1  0
  8  9  1  0
  5  1  1  0
  9  6  1  0
  6  3  1  0
  1 10  1  0
  1 11  1  0
  2 12  1  0
  2 13  1  0
  3 14  1  0
  4 15  1  0
  4 16  1  0
  5 17  1  0
  7 18  1  0
  7 19  1  0
  9 20  1  0
  9 21  1  0
M  END
