
     RDKit          3D

 19 21  0  0  0  0  0  0  0  0999 V2000
   -1.8488    0.0207   -0.4446 C   0  0  0  0  0  0  0  0  0  0  0  0
   -1.3147   -0.0101    0.9465 C   0  0  0  0  0  0  0  0  0  0  0  0
    0.1117   -0.4470    0.9056 C   0  0  0  0  0  0  0  0  0  0  0  0
    1.2226    0.4553    1.3044 C   0  0  0  0  0  0  0  0  0  0  0  0
    2.3372   -0.1280    0.6650 O   0  0  0  0  0  0  0  0  0  0  0  0
    1.9158   -0.1788   -0.6598 C   0  0  0  0  0  0  0  0  0  0  0  0
    0.4688   -0.6767   -0.5621 C   0  0  0  0  0  0  0  0  0  0  0  0
   -0.6009    0.0119   -1.2881 C   0  0  0  0  0  0  0  0  0  0  0  0
    0.3117   -1.6780    0.3401 O   0  0  0  0  0  0  0  0  0  0  0  0
   -2.4356    0.9662   -0.5893 H   0  0  0  0  0  0  0  0  0  0  0  0
   -2.4739   -0.8719   -0.6990 H   0  0  0  0  0  0  0  0  0  0  0  0
   -1.8852   -0.8161    1.4977 H   0  0  0  0  0  0  0  0  0  0  0  0
   -1.4873    0.9107    1.5287 H   0  0  0  0  0  0  0  0  0  0  0  0
    1.3776    0.5845    2.3725 H   0  0  0  0  0  0  0  0  0  0  0  0
    1.0559    1.4402    0.7774 H   0  0  0  0  0  0  0  0  0  0  0  0
    1.9934    0.7619   -1.1952 H   0  0  0  0  0  0  0  0  0  0  0  0
    2.4762   -1.0237   -1.1316 H   0  0  0  0  0  0  0  0  0  0  0  0
   -0.3520    1.0890   -1.4897 H   0  0  0  0  0  0  0  0  0  0  0  0
   -0.8726   -0.4101   -2.2785 H   0  0  0  0  0  0  0  0  0  0  0  0
  1  2  1  0
  2  3  1  0
  3  4  1  0
  4  5  1  0
  5  6  1  0
  6  7  1  0
  7  8  1  0
  7  9  1  0
  8  1  1  0
  7  3  1  0
  9  3  1  0
  1 10  1  0
  1 11  1  0
  2 12  1  0
  2 13  1  0
  4 14  1  0
  4 15  1  0
  6 16  1  0
  6 17  1  0
  8 18  1  0
  8 19  1  0
M  END
