
     RDKit          3D

 21 23  0  0  0  0  0  0  0  0999 V2000
   -2.2376    0.5426    0.2612 C   0  0  0  0  0  0  0  0  0  0  0  0
   -1.6240   -0.8427    0.5108 C   0  0  0  0  0  0  0  0  0  0  0  0
   -0.4705   -0.7724   -0.4946 C   0  0  0  0  0  0  0  0  0  0  0  0
    0.8151   -1.2606    0.0738 C   0  0  0  0  0  0  0  0  0  0  0  0
    1.8228   -0.2578   -0.3898 C   0  0  0  0  0  0  0  0  0  0  0  0
    1.9783    0.9355    0.5613 C   0  0  0  0  0  0  0  0  0  0  0  0
    1.1343    1.0403   -0.6249 C   0  0  0  0  0  0  0  0  0  0  0  0
   -0.3069    0.7184   -0.6556 C   0  0  0  0  0  0  0  0  0  0  0  0
   -1.0565    1.3204    0.3534 O   0  0  0  0  0  0  0  0  0  0  0  0
   -2.9776    0.8133    1.0050 H   0  0  0  0  0  0  0  0  0  0  0  0
   -2.5605    0.5645   -0.7821 H   0  0  0  0  0  0  0  0  0  0  0  0
   -2.3170   -1.6508    0.3014 H   0  0  0  0  0  0  0  0  0  0  0  0
   -1.2205   -0.8171    1.5394 H   0  0  0  0  0  0  0  0  0  0  0  0
   -0.7642   -1.2423   -1.4503 H   0  0  0  0  0  0  0  0  0  0  0  0
    0.7338   -1.2286    1.1841 H   0  0  0  0  0  0  0  0  0  0  0  0
    1.0413   -2.3051   -0.2688 H   0  0  0  0  0  0  0  0  0  0  0  0
    2.7082   -0.5645   -0.9745 H   0  0  0  0  0  0  0  0  0  0  0  0
    1.5791    0.8288    1.5906 H   0  0  0  0  0  0  0  0  0  0  0  0
    2.9772    1.3945    0.5340 H   0  0  0  0  0  0  0  0  0  0  0  0
    1.5082    1.7202   -1.4456 H   0  0  0  0  0  0  0  0  0  0  0  0
   -0.7632    1.0631   -1.6189 H   0  0  0  0  0  0  0  0  0  0  0  0
  1  2  1  0
  2  3  1  0
  3  4  1  0
  4  5  1  0
  5  6  1  0
  6  7  1  0
  7  8  1  0
  8  9  1  0
  9  1  1  0
  8  3  1  0
  7  5  1  0
  1 10  1  0
  1 11  1  0
  2 12  1  0
  2 13  1  0
  3 14  1  0
  4 15  1  0
  4 16  1  0
  5 17  1  0
  6 18  1  0
  6 19  1  0
  7 20  1  0
  8 21  1  0
M  END
