
     RDKit          3D

 23 24  0  0  0  0  0  0  0  0999 V2000
   -3.3651    0.2381    0.2801 C   0  0  0  0  0  0  0  0  0  0  0  0
   -2.4922   -0.5458   -0.7080 C   0  0  0  0  0  0  0  0  0  0  0  0
   -1.3179    0.2347   -0.1892 C   0  0  0  0  0  0  0  0  0  0  0  0
   -0.2128   -0.4872    0.1768 O   0  0  0  0  0  0  0  0  0  0  0  0
    0.9060    0.0863   -0.4224 C   0  0  0  0  0  0  0  0  0  0  0  0
    2.1521   -0.6994   -0.0308 C   0  0  0  0  0  0  0  0  0  0  0  0
    3.4712   -0.2782   -0.5478 C   0  0  0  0  0  0  0  0  0  0  0  0
    3.0929   -0.0068    0.8777 C   0  0  0  0  0  0  0  0  0  0  0  0
   -2.1153    0.6134    1.0671 C   0  0  0  0  0  0  0  0  0  0  0  0
   -4.0191   -0.4517    0.8168 H   0  0  0  0  0  0  0  0  0  0  0  0
   -3.8097    1.1483   -0.1417 H   0  0  0  0  0  0  0  0  0  0  0  0
   -2.4756   -1.6316   -0.5326 H   0  0  0  0  0  0  0  0  0  0  0  0
   -2.8205   -0.3021   -1.7359 H   0  0  0  0  0  0  0  0  0  0  0  0
   -1.1065    1.0859   -0.8546 H   0  0  0  0  0  0  0  0  0  0  0  0
    1.0125    1.1590   -0.1270 H   0  0  0  0  0  0  0  0  0  0  0  0
    0.8525    0.0399   -1.5403 H   0  0  0  0  0  0  0  0  0  0  0  0
    1.9838   -1.8044    0.0671 H   0  0  0  0  0  0  0  0  0  0  0  0
    3.5282    0.6472   -1.1899 H   0  0  0  0  0  0  0  0  0  0  0  0
    4.2309   -1.0598   -0.7416 H   0  0  0  0  0  0  0  0  0  0  0  0
    2.8637    1.0191    1.2162 H   0  0  0  0  0  0  0  0  0  0  0  0
    3.5282   -0.6509    1.6841 H   0  0  0  0  0  0  0  0  0  0  0  0
   -1.9747    1.6798    1.2531 H   0  0  0  0  0  0  0  0  0  0  0  0
   -1.9126   -0.0339    1.9349 H   0  0  0  0  0  0  0  0  0  0  0  0
  1  2  1  0
  2  3  1  0
  3  4  1  0
  4  5  1  0
  5  6  1  0
  6  7  1  0
  7  8  1  0
  3  9  1  0
  9  1  1  0
  8  6  1  0
  1 10  1  0
  1 11  1  0
  2 12  1  0
  2 13  1  0
  3 14  1  0
  5 15  1  0
  5 16  1  0
  6 17  1  0
  7 18  1  0
  7 19  1  0
  8 20  1  0
  8 21  1  0
  9 22  1  0
  9 23  1  0
M  END
