
     RDKit          3D

 21 23  0  0  0  0  0  0  0  0999 V2000
   -1.8193    0.2292    0.2135 C   0  0  0  0  0  0  0  0  0  0  0  0
   -0.7308    1.2312    0.5386 C   0  0  0  0  0  0  0  0  0  0  0  0
    0.3419    1.1082   -0.4844 C   0  0  0  0  0  0  0  0  0  0  0  0
    1.6355    1.3657   -0.0153 O   0  0  0  0  0  0  0  0  0  0  0  0
    2.3196    0.1195   -0.0230 C   0  0  0  0  0  0  0  0  0  0  0  0
    1.1964   -0.7839    0.3753 C   0  0  0  0  0  0  0  0  0  0  0  0
    0.0559   -1.3988   -0.2068 C   0  0  0  0  0  0  0  0  0  0  0  0
   -1.3921   -1.2034    0.2967 C   0  0  0  0  0  0  0  0  0  0  0  0
    0.4307   -0.2831   -0.9208 C   0  0  0  0  0  0  0  0  0  0  0  0
   -2.7034    0.3582    0.8560 H   0  0  0  0  0  0  0  0  0  0  0  0
   -2.1614    0.4792   -0.8309 H   0  0  0  0  0  0  0  0  0  0  0  0
   -1.2179    2.2384    0.3737 H   0  0  0  0  0  0  0  0  0  0  0  0
   -0.4234    1.2194    1.5754 H   0  0  0  0  0  0  0  0  0  0  0  0
    0.1863    1.8087   -1.3423 H   0  0  0  0  0  0  0  0  0  0  0  0
    2.7211   -0.0575   -1.0232 H   0  0  0  0  0  0  0  0  0  0  0  0
    3.1000    0.0691    0.7258 H   0  0  0  0  0  0  0  0  0  0  0  0
    0.8563   -0.3471    1.3679 H   0  0  0  0  0  0  0  0  0  0  0  0
    0.1750   -2.4170   -0.6309 H   0  0  0  0  0  0  0  0  0  0  0  0
   -1.4626   -1.5085    1.3653 H   0  0  0  0  0  0  0  0  0  0  0  0
   -2.0847   -1.7946   -0.3299 H   0  0  0  0  0  0  0  0  0  0  0  0
    0.9768   -0.4327   -1.8808 H   0  0  0  0  0  0  0  0  0  0  0  0
  1  2  1  0
  2  3  1  0
  3  4  1  0
  4  5  1  0
  5  6  1  0
  6  7  1  0
  7  8  1  0
  7  9  1  0
  8  1  1  0
  9  3  1  0
  9  6  1  0
  1 10  1  0
  1 11  1  0
  2 12  1  0
  2 13  1  0
  3 14  1  0
  5 15  1  0
  5 16  1  0
  6 17  1  0
  7 18  1  0
  8 19  1  0
  8 20  1  0
  9 21  1  0
M  END
