
     RDKit          3D

 23 25  0  0  0  0  0  0  0  0999 V2000
   -1.6726   -0.2415    0.4995 C   0  0  0  0  0  0  0  0  0  0  0  0
   -0.8088   -1.3531    0.0684 C   0  0  0  0  0  0  0  0  0  0  0  0
    0.3046   -1.0047   -0.8519 C   0  0  0  0  0  0  0  0  0  0  0  0
    0.0320    0.2969   -1.5777 C   0  0  0  0  0  0  0  0  0  0  0  0
    0.1227    1.2735   -0.4006 C   0  0  0  0  0  0  0  0  0  0  0  0
   -1.1224    1.1249    0.3967 C   0  0  0  0  0  0  0  0  0  0  0  0
    1.3710    0.8384    0.2865 C   0  0  0  0  0  0  0  0  0  0  0  0
    1.3538   -0.1469    1.3763 C   0  0  0  0  0  0  0  0  0  0  0  0
    1.5168   -0.6449   -0.0252 C   0  0  0  0  0  0  0  0  0  0  0  0
   -1.9536   -0.4177    1.5802 H   0  0  0  0  0  0  0  0  0  0  0  0
   -2.6600   -0.3361   -0.0424 H   0  0  0  0  0  0  0  0  0  0  0  0
   -0.3534   -1.8802    0.9573 H   0  0  0  0  0  0  0  0  0  0  0  0
   -1.4076   -2.1685   -0.4365 H   0  0  0  0  0  0  0  0  0  0  0  0
    0.5667   -1.7667   -1.5846 H   0  0  0  0  0  0  0  0  0  0  0  0
    0.8331    0.5210   -2.2965 H   0  0  0  0  0  0  0  0  0  0  0  0
   -0.9682    0.3143   -2.0416 H   0  0  0  0  0  0  0  0  0  0  0  0
    0.2171    2.3166   -0.8089 H   0  0  0  0  0  0  0  0  0  0  0  0
   -1.9014    1.7859   -0.0883 H   0  0  0  0  0  0  0  0  0  0  0  0
   -0.9667    1.6106    1.4053 H   0  0  0  0  0  0  0  0  0  0  0  0
    2.3059    1.4060    0.0398 H   0  0  0  0  0  0  0  0  0  0  0  0
    0.4192   -0.2623    1.9299 H   0  0  0  0  0  0  0  0  0  0  0  0
    2.2992   -0.2242    1.9819 H   0  0  0  0  0  0  0  0  0  0  0  0
    2.4728   -1.0415   -0.3676 H   0  0  0  0  0  0  0  0  0  0  0  0
  1  2  1  0
  2  3  1  0
  3  4  1  0
  4  5  1  0
  5  6  1  0
  5  7  1  0
  7  8  1  0
  8  9  1  0
  6  1  1  0
  9  7  1  0
  9  3  1  0
  1 10  1  0
  1 11  1  0
  2 12  1  0
  2 13  1  0
  3 14  1  0
  4 15  1  0
  4 16  1  0
  5 17  1  0
  6 18  1  0
  6 19  1  0
  7 20  1  0
  8 21  1  0
  8 22  1  0
  9 23  1  0
M  END
