
     RDKit          3D

 19 21  0  0  0  0  0  0  0  0999 V2000
   -1.4471   -0.0234   -0.6887 C   0  0  0  0  0  0  0  0  0  0  0  0
   -0.8081    1.2660   -0.1773 C   0  0  0  0  0  0  0  0  0  0  0  0
    0.6173    0.9847    0.1884 C   0  0  0  0  0  0  0  0  0  0  0  0
    1.3906    0.1086   -0.7456 C   0  0  0  0  0  0  0  0  0  0  0  0
    1.1235   -1.0956    0.1520 C   0  0  0  0  0  0  0  0  0  0  0  0
   -0.0133   -1.8152   -0.1920 O   0  0  0  0  0  0  0  0  0  0  0  0
   -1.0845   -1.0994    0.3212 C   0  0  0  0  0  0  0  0  0  0  0  0
   -0.6134   -0.5433    1.5181 O   0  0  0  0  0  0  0  0  0  0  0  0
    0.6614   -0.1239    1.2083 C   0  0  0  0  0  0  0  0  0  0  0  0
   -1.0243   -0.2065   -1.6831 H   0  0  0  0  0  0  0  0  0  0  0  0
   -2.5587    0.0828   -0.7724 H   0  0  0  0  0  0  0  0  0  0  0  0
   -0.9559    2.1105   -0.8447 H   0  0  0  0  0  0  0  0  0  0  0  0
   -1.3795    1.4959    0.7697 H   0  0  0  0  0  0  0  0  0  0  0  0
    1.1731    1.9105    0.4661 H   0  0  0  0  0  0  0  0  0  0  0  0
    1.0087   -0.0195   -1.7599 H   0  0  0  0  0  0  0  0  0  0  0  0
    2.4814    0.3800   -0.7710 H   0  0  0  0  0  0  0  0  0  0  0  0
    2.0114   -1.6804    0.4238 H   0  0  0  0  0  0  0  0  0  0  0  0
   -1.9592   -1.7219    0.5636 H   0  0  0  0  0  0  0  0  0  0  0  0
    1.3767   -0.0099    2.0234 H   0  0  0  0  0  0  0  0  0  0  0  0
  1  2  1  0
  2  3  1  0
  3  4  1  0
  4  5  1  0
  5  6  1  0
  6  7  1  0
  7  8  1  0
  8  9  1  0
  7  1  1  0
  9  3  1  0
  9  5  1  0
  1 10  1  0
  1 11  1  0
  2 12  1  0
  2 13  1  0
  3 14  1  0
  4 15  1  0
  4 16  1  0
  5 17  1  0
  7 18  1  0
  9 19  1  0
M  END
