
     RDKit          3D

 25 26  0  0  0  0  0  0  0  0999 V2000
    2.8448    1.0729    0.0607 C   0  0  0  0  0  0  0  0  0  0  0  0
    2.4913   -0.1119    0.9704 C   0  0  0  0  0  0  0  0  0  0  0  0
    1.2676   -0.3146    0.0807 C   0  0  0  0  0  0  0  0  0  0  0  0
    0.0223   -0.7166    0.8232 C   0  0  0  0  0  0  0  0  0  0  0  0
   -1.0843   -0.8756   -0.1871 C   0  0  0  0  0  0  0  0  0  0  0  0
   -1.4219    0.3499   -0.9888 C   0  0  0  0  0  0  0  0  0  0  0  0
   -2.8843   -0.1112   -0.9098 C   0  0  0  0  0  0  0  0  0  0  0  0
   -2.4887   -0.8166    0.3866 C   0  0  0  0  0  0  0  0  0  0  0  0
    1.3458    1.1892   -0.2154 C   0  0  0  0  0  0  0  0  0  0  0  0
    3.3559    0.7169   -0.8445 H   0  0  0  0  0  0  0  0  0  0  0  0
    3.2786    1.9285    0.5886 H   0  0  0  0  0  0  0  0  0  0  0  0
    2.2373    0.2865    1.9633 H   0  0  0  0  0  0  0  0  0  0  0  0
    3.2194   -0.9357    0.9309 H   0  0  0  0  0  0  0  0  0  0  0  0
    1.4502   -0.9198   -0.8039 H   0  0  0  0  0  0  0  0  0  0  0  0
   -0.2306   -0.0620    1.6530 H   0  0  0  0  0  0  0  0  0  0  0  0
    0.2104   -1.7396    1.2441 H   0  0  0  0  0  0  0  0  0  0  0  0
   -0.9891   -1.7516   -0.8318 H   0  0  0  0  0  0  0  0  0  0  0  0
   -0.9981    0.3152   -2.0015 H   0  0  0  0  0  0  0  0  0  0  0  0
   -1.2874    1.3191   -0.5040 H   0  0  0  0  0  0  0  0  0  0  0  0
   -3.0870   -0.8069   -1.7501 H   0  0  0  0  0  0  0  0  0  0  0  0
   -3.5974    0.7129   -0.7743 H   0  0  0  0  0  0  0  0  0  0  0  0
   -2.5914   -0.1081    1.2145 H   0  0  0  0  0  0  0  0  0  0  0  0
   -2.9370   -1.8173    0.5130 H   0  0  0  0  0  0  0  0  0  0  0  0
    1.0734    1.4763   -1.2270 H   0  0  0  0  0  0  0  0  0  0  0  0
    0.8005    1.7200    0.6090 H   0  0  0  0  0  0  0  0  0  0  0  0
  1  2  1  0
  2  3  1  0
  3  4  1  0
  4  5  1  0
  5  6  1  0
  6  7  1  0
  7  8  1  0
  3  9  1  0
  9  1  1  0
  8  5  1  0
  1 10  1  0
  1 11  1  0
  2 12  1  0
  2 13  1  0
  3 14  1  0
  4 15  1  0
  4 16  1  0
  5 17  1  0
  6 18  1  0
  6 19  1  0
  7 20  1  0
  7 21  1  0
  8 22  1  0
  8 23  1  0
  9 24  1  0
  9 25  1  0
M  END
