
     RDKit          3D

 23 25  0  0  0  0  0  0  0  0999 V2000
   -2.1867    0.1482    0.6172 C   0  0  0  0  0  0  0  0  0  0  0  0
   -0.8374   -0.1835    1.2863 C   0  0  0  0  0  0  0  0  0  0  0  0
    0.0044   -0.3141    0.0494 C   0  0  0  0  0  0  0  0  0  0  0  0
    1.4256   -0.5237    0.1364 C   0  0  0  0  0  0  0  0  0  0  0  0
    2.2328    0.5413    0.8443 C   0  0  0  0  0  0  0  0  0  0  0  0
    2.3608    0.4111   -0.6612 C   0  0  0  0  0  0  0  0  0  0  0  0
   -0.5154    0.7928   -0.8829 C   0  0  0  0  0  0  0  0  0  0  0  0
   -1.8034   -0.0424   -0.8090 C   0  0  0  0  0  0  0  0  0  0  0  0
   -0.8371   -1.2347   -0.8110 C   0  0  0  0  0  0  0  0  0  0  0  0
   -2.9896   -0.4869    0.9795 H   0  0  0  0  0  0  0  0  0  0  0  0
   -2.3534    1.2439    0.8152 H   0  0  0  0  0  0  0  0  0  0  0  0
   -0.5244    0.5911    1.9755 H   0  0  0  0  0  0  0  0  0  0  0  0
   -0.9866   -1.1835    1.7471 H   0  0  0  0  0  0  0  0  0  0  0  0
    1.7881   -1.5713    0.2973 H   0  0  0  0  0  0  0  0  0  0  0  0
    3.0754    0.2129    1.4871 H   0  0  0  0  0  0  0  0  0  0  0  0
    1.7436    1.4634    1.1841 H   0  0  0  0  0  0  0  0  0  0  0  0
    1.8805    1.1947   -1.2841 H   0  0  0  0  0  0  0  0  0  0  0  0
    3.2988   -0.0647   -1.0095 H   0  0  0  0  0  0  0  0  0  0  0  0
   -0.5791    1.7678   -0.3921 H   0  0  0  0  0  0  0  0  0  0  0  0
   -0.0234    0.7394   -1.8578 H   0  0  0  0  0  0  0  0  0  0  0  0
   -2.4959    0.0422   -1.5990 H   0  0  0  0  0  0  0  0  0  0  0  0
   -0.4436   -1.4178   -1.8219 H   0  0  0  0  0  0  0  0  0  0  0  0
   -1.2340   -2.1261   -0.2910 H   0  0  0  0  0  0  0  0  0  0  0  0
  1  2  1  0
  2  3  1  0
  3  4  1  0
  4  5  1  0
  5  6  1  0
  3  7  1  0
  7  8  1  0
  8  9  1  0
  8  1  1  0
  9  3  1  0
  6  4  1  0
  1 10  1  0
  1 11  1  0
  2 12  1  0
  2 13  1  0
  4 14  1  0
  5 15  1  0
  5 16  1  0
  6 17  1  0
  6 18  1  0
  7 19  1  0
  7 20  1  0
  8 21  1  0
  9 22  1  0
  9 23  1  0
M  END
