
     RDKit          3D

 21 23  0  0  0  0  0  0  0  0999 V2000
    2.4229    0.4640   -0.2231 C   0  0  0  0  0  0  0  0  0  0  0  0
    1.4865   -0.4938    0.5232 C   0  0  0  0  0  0  0  0  0  0  0  0
    0.5366    0.1350   -0.4157 C   0  0  0  0  0  0  0  0  0  0  0  0
    1.4680    0.6043   -1.2593 O   0  0  0  0  0  0  0  0  0  0  0  0
   -0.5144    1.0390    0.1225 C   0  0  0  0  0  0  0  0  0  0  0  0
   -1.2072    0.1613    1.1442 C   0  0  0  0  0  0  0  0  0  0  0  0
   -1.2210   -1.1621    0.3512 C   0  0  0  0  0  0  0  0  0  0  0  0
   -0.6037   -0.6763   -0.9305 C   0  0  0  0  0  0  0  0  0  0  0  0
   -1.3253    0.6668   -1.1281 C   0  0  0  0  0  0  0  0  0  0  0  0
    2.5417    1.3715    0.3987 H   0  0  0  0  0  0  0  0  0  0  0  0
    3.3468   -0.0194   -0.5412 H   0  0  0  0  0  0  0  0  0  0  0  0
    1.6888   -1.5639    0.3011 H   0  0  0  0  0  0  0  0  0  0  0  0
    1.3160   -0.2504    1.5710 H   0  0  0  0  0  0  0  0  0  0  0  0
   -0.3427    2.0574    0.3221 H   0  0  0  0  0  0  0  0  0  0  0  0
   -2.2339    0.5222    1.2449 H   0  0  0  0  0  0  0  0  0  0  0  0
   -0.6642    0.0683    2.0804 H   0  0  0  0  0  0  0  0  0  0  0  0
   -0.5147   -1.8435    0.8942 H   0  0  0  0  0  0  0  0  0  0  0  0
   -2.2251   -1.5638    0.2487 H   0  0  0  0  0  0  0  0  0  0  0  0
   -0.5056   -1.3125   -1.7628 H   0  0  0  0  0  0  0  0  0  0  0  0
   -1.0424    1.2099   -2.0272 H   0  0  0  0  0  0  0  0  0  0  0  0
   -2.4073    0.5863   -0.9144 H   0  0  0  0  0  0  0  0  0  0  0  0
  1  2  1  0
  2  3  1  0
  3  4  1  0
  3  5  1  0
  5  6  1  0
  6  7  1  0
  7  8  1  0
  8  9  1  0
  4  1  1  0
  9  5  1  0
  8  3  1  0
  1 10  1  0
  1 11  1  0
  2 12  1  0
  2 13  1  0
  5 14  1  0
  6 15  1  0
  6 16  1  0
  7 17  1  0
  7 18  1  0
  8 19  1  0
  9 20  1  0
  9 21  1  0
M  END
