
     RDKit          2D

 17 20  0  0  0  0  0  0  0  0999 V2000
   -1.9330    0.6876    0.0000 C   0  0  0  0  0  0  0  0  0  0  0  0
   -1.9330   -0.6876    0.0000 C   0  0  0  0  0  0  0  0  0  0  0  0
   -1.9330   -0.7500    0.0000 C   0  0  0  0  0  0  0  0  0  0  0  0
   -3.4330   -0.7500    0.0000 O   0  0  0  0  0  0  0  0  0  0  0  0
   -3.4330    0.7500    0.0000 C   0  0  0  0  0  0  0  0  0  0  0  0
   -1.9330    0.7500    0.0000 C   0  0  0  0  0  0  0  0  0  0  0  0
   -0.4330    0.7500    0.0000 C   0  0  0  0  0  0  0  0  0  0  0  0
    0.8660    0.0000    0.0000 O   0  0  0  0  0  0  0  0  0  0  0  0
   -0.4330   -0.7500    0.0000 C   0  0  0  0  0  0  0  0  0  0  0  0
   -3.2502    2.2388    0.0000 H   0  0  0  0  0  0  0  0  0  0  0  0
   -4.9218    0.5672    0.0000 H   0  0  0  0  0  0  0  0  0  0  0  0
   -4.9330   -0.7500    0.0000 H   0  0  0  0  0  0  0  0  0  0  0  0
   -3.4330   -2.2500    0.0000 H   0  0  0  0  0  0  0  0  0  0  0  0
   -3.6159    2.2388    0.0000 H   0  0  0  0  0  0  0  0  0  0  0  0
   -4.9218    0.9328    0.0000 H   0  0  0  0  0  0  0  0  0  0  0  0
   -0.0448    2.1989    0.0000 H   0  0  0  0  0  0  0  0  0  0  0  0
   -0.0448   -2.1989    0.0000 H   0  0  0  0  0  0  0  0  0  0  0  0
  1  2  1  0
  2  3  1  0
  3  4  1  0
  4  5  1  0
  5  6  1  0
  6  7  1  0
  7  8  1  0
  8  9  1  0
  6  1  1  0
  9  7  1  0
  6  3  1  0
  9  3  1  0
  1 10  1  0
  1 11  1  0
  2 12  1  0
  2 13  1  0
  5 14  1  0
  5 15  1  0
  7 16  1  0
  9 17  1  0
M  END
