
     RDKit          3D

 21 23  0  0  0  0  0  0  0  0999 V2000
   -2.1088    0.8676    0.5667 C   0  0  0  0  0  0  0  0  0  0  0  0
   -2.3120   -0.6223    0.7264 C   0  0  0  0  0  0  0  0  0  0  0  0
   -0.9582   -0.0241    0.6765 C   0  0  0  0  0  0  0  0  0  0  0  0
   -0.1402   -0.3249   -0.5322 C   0  0  0  0  0  0  0  0  0  0  0  0
    1.0182   -1.2842   -0.1836 C   0  0  0  0  0  0  0  0  0  0  0  0
    2.1404   -0.3828   -0.7004 C   0  0  0  0  0  0  0  0  0  0  0  0
    1.8382    0.9215   -0.0199 C   0  0  0  0  0  0  0  0  0  0  0  0
    0.7066    0.8374   -0.9971 C   0  0  0  0  0  0  0  0  0  0  0  0
    1.6141    0.1801   -1.8594 O   0  0  0  0  0  0  0  0  0  0  0  0
   -2.4133    1.3331   -0.4133 H   0  0  0  0  0  0  0  0  0  0  0  0
   -2.4192    1.5036    1.4215 H   0  0  0  0  0  0  0  0  0  0  0  0
   -2.7884   -0.9437    1.6672 H   0  0  0  0  0  0  0  0  0  0  0  0
   -2.6528   -1.2123   -0.1533 H   0  0  0  0  0  0  0  0  0  0  0  0
   -0.3474    0.0780    1.6168 H   0  0  0  0  0  0  0  0  0  0  0  0
   -0.6966   -0.7978   -1.3597 H   0  0  0  0  0  0  0  0  0  0  0  0
    1.0879   -1.3912    0.9156 H   0  0  0  0  0  0  0  0  0  0  0  0
    0.9419   -2.2217   -0.7326 H   0  0  0  0  0  0  0  0  0  0  0  0
    3.1294   -0.7678   -0.7035 H   0  0  0  0  0  0  0  0  0  0  0  0
    1.6073    0.7756    1.0372 H   0  0  0  0  0  0  0  0  0  0  0  0
    2.5187    1.7567   -0.2728 H   0  0  0  0  0  0  0  0  0  0  0  0
    0.2342    1.7191   -1.3550 H   0  0  0  0  0  0  0  0  0  0  0  0
  1  2  1  0
  2  3  1  0
  3  4  1  0
  4  5  1  0
  5  6  1  0
  6  7  1  0
  7  8  1  0
  8  9  1  0
  3  1  1  0
  8  4  1  0
  9  6  1  0
  1 10  1  0
  1 11  1  0
  2 12  1  0
  2 13  1  0
  3 14  1  0
  4 15  1  0
  5 16  1  0
  5 17  1  0
  6 18  1  0
  7 19  1  0
  7 20  1  0
  8 21  1  0
M  END
