
     RDKit          3D

 19 21  0  0  0  0  0  0  0  0999 V2000
    1.5174    0.7281    0.4675 C   0  0  0  0  0  0  0  0  0  0  0  0
    1.5259   -0.7891    0.3535 C   0  0  0  0  0  0  0  0  0  0  0  0
    0.1489   -1.1682   -0.1103 C   0  0  0  0  0  0  0  0  0  0  0  0
   -0.8017   -1.1182    0.8991 O   0  0  0  0  0  0  0  0  0  0  0  0
   -1.6031   -0.0141    0.6916 C   0  0  0  0  0  0  0  0  0  0  0  0
   -1.6882    0.0175   -0.8494 C   0  0  0  0  0  0  0  0  0  0  0  0
   -0.1805    0.0392   -0.9962 C   0  0  0  0  0  0  0  0  0  0  0  0
    0.1638    1.1573   -0.0531 C   0  0  0  0  0  0  0  0  0  0  0  0
   -0.8213    1.1120    0.9351 O   0  0  0  0  0  0  0  0  0  0  0  0
    1.6699    1.0804    1.4888 H   0  0  0  0  0  0  0  0  0  0  0  0
    2.2734    1.1932   -0.2182 H   0  0  0  0  0  0  0  0  0  0  0  0
    1.8638   -1.2907    1.2540 H   0  0  0  0  0  0  0  0  0  0  0  0
    2.2278   -1.0562   -0.4822 H   0  0  0  0  0  0  0  0  0  0  0  0
    0.1015   -2.0616   -0.7263 H   0  0  0  0  0  0  0  0  0  0  0  0
   -2.5636   -0.0188    1.1434 H   0  0  0  0  0  0  0  0  0  0  0  0
   -2.1512    0.9360   -1.2088 H   0  0  0  0  0  0  0  0  0  0  0  0
   -2.1429   -0.9157   -1.1922 H   0  0  0  0  0  0  0  0  0  0  0  0
    0.2242    0.0388   -1.9624 H   0  0  0  0  0  0  0  0  0  0  0  0
    0.2358    2.1299   -0.5429 H   0  0  0  0  0  0  0  0  0  0  0  0
  1  2  1  0
  2  3  1  0
  3  4  1  0
  4  5  1  0
  5  6  1  0
  6  7  1  0
  7  8  1  0
  8  9  1  0
  8  1  1  0
  7  3  1  0
  9  5  1  0
  1 10  1  0
  1 11  1  0
  2 12  1  0
  2 13  1  0
  3 14  1  0
  5 15  1  0
  6 16  1  0
  6 17  1  0
  7 18  1  0
  8 19  1  0
M  END
