
     RDKit          3D

 23 25  0  0  0  0  0  0  0  0999 V2000
    0.8566   -1.2839    0.0339 C   0  0  0  0  0  0  0  0  0  0  0  0
   -0.4949   -1.5892   -0.5724 C   0  0  0  0  0  0  0  0  0  0  0  0
   -1.4605   -0.6973    0.1093 C   0  0  0  0  0  0  0  0  0  0  0  0
   -2.4888    0.1415   -0.3878 C   0  0  0  0  0  0  0  0  0  0  0  0
   -1.1728    0.6967   -0.5281 C   0  0  0  0  0  0  0  0  0  0  0  0
   -0.3386    1.3990    0.4563 C   0  0  0  0  0  0  0  0  0  0  0  0
    1.0933    1.2550    0.0315 C   0  0  0  0  0  0  0  0  0  0  0  0
    2.1572    0.7068    0.8388 C   0  0  0  0  0  0  0  0  0  0  0  0
    1.5112   -0.0551   -0.3669 C   0  0  0  0  0  0  0  0  0  0  0  0
    0.7048   -1.3827    1.1510 H   0  0  0  0  0  0  0  0  0  0  0  0
    1.5096   -2.1593   -0.2167 H   0  0  0  0  0  0  0  0  0  0  0  0
   -0.7308   -2.6438   -0.2415 H   0  0  0  0  0  0  0  0  0  0  0  0
   -0.5079   -1.5834   -1.6554 H   0  0  0  0  0  0  0  0  0  0  0  0
   -1.3454   -0.7649    1.2319 H   0  0  0  0  0  0  0  0  0  0  0  0
   -3.1819    0.6212    0.3358 H   0  0  0  0  0  0  0  0  0  0  0  0
   -3.0447   -0.1648   -1.3046 H   0  0  0  0  0  0  0  0  0  0  0  0
   -0.7565    0.6971   -1.5782 H   0  0  0  0  0  0  0  0  0  0  0  0
   -0.6458    2.4638    0.5728 H   0  0  0  0  0  0  0  0  0  0  0  0
   -0.4014    0.9751    1.5008 H   0  0  0  0  0  0  0  0  0  0  0  0
    1.3849    2.1082   -0.6564 H   0  0  0  0  0  0  0  0  0  0  0  0
    1.9526    0.3547    1.8445 H   0  0  0  0  0  0  0  0  0  0  0  0
    3.2021    1.0554    0.6631 H   0  0  0  0  0  0  0  0  0  0  0  0
    2.1977   -0.1503   -1.2615 H   0  0  0  0  0  0  0  0  0  0  0  0
  1  2  1  0
  2  3  1  0
  3  4  1  0
  4  5  1  0
  5  6  1  0
  6  7  1  0
  7  8  1  0
  8  9  1  0
  9  1  1  0
  5  3  1  0
  9  7  1  0
  1 10  1  0
  1 11  1  0
  2 12  1  0
  2 13  1  0
  3 14  1  0
  4 15  1  0
  4 16  1  0
  5 17  1  0
  6 18  1  0
  6 19  1  0
  7 20  1  0
  8 21  1  0
  8 22  1  0
  9 23  1  0
M  END
