
     RDKit          3D

 19 22  0  0  0  0  0  0  0  0999 V2000
   -2.0962    0.4042   -0.1592 C   0  0  0  0  0  0  0  0  0  0  0  0
   -1.7137   -0.8448    0.6500 C   0  0  0  0  0  0  0  0  0  0  0  0
   -1.0203   -0.4931   -0.6244 C   0  0  0  0  0  0  0  0  0  0  0  0
    0.3778    0.0118   -0.5007 C   0  0  0  0  0  0  0  0  0  0  0  0
    1.4865   -0.8462   -0.9511 C   0  0  0  0  0  0  0  0  0  0  0  0
    1.3420   -0.4942    0.4812 C   0  0  0  0  0  0  0  0  0  0  0  0
    1.7033    0.9039    0.9192 C   0  0  0  0  0  0  0  0  0  0  0  0
    0.6794    1.7477    1.2715 O   0  0  0  0  0  0  0  0  0  0  0  0
    0.6663    1.4166   -0.0772 C   0  0  0  0  0  0  0  0  0  0  0  0
   -3.1149    0.3865   -0.5460 H   0  0  0  0  0  0  0  0  0  0  0  0
   -1.7959    1.3838    0.2877 H   0  0  0  0  0  0  0  0  0  0  0  0
   -2.4420   -1.6963    0.6339 H   0  0  0  0  0  0  0  0  0  0  0  0
   -1.2691   -0.6474    1.6275 H   0  0  0  0  0  0  0  0  0  0  0  0
   -1.1805   -1.2105   -1.4576 H   0  0  0  0  0  0  0  0  0  0  0  0
    1.2846   -1.8886   -1.2326 H   0  0  0  0  0  0  0  0  0  0  0  0
    2.3216   -0.3577   -1.4937 H   0  0  0  0  0  0  0  0  0  0  0  0
    1.0465   -1.2105    1.2452 H   0  0  0  0  0  0  0  0  0  0  0  0
    2.7242    1.2748    0.7578 H   0  0  0  0  0  0  0  0  0  0  0  0
    1.0005    2.1599   -0.8313 H   0  0  0  0  0  0  0  0  0  0  0  0
  1  2  1  0
  2  3  1  0
  3  4  1  0
  4  5  1  0
  5  6  1  0
  6  7  1  0
  7  8  1  0
  8  9  1  0
  3  1  1  0
  6  4  1  0
  9  7  1  0
  9  4  1  0
  1 10  1  0
  1 11  1  0
  2 12  1  0
  2 13  1  0
  3 14  1  0
  5 15  1  0
  5 16  1  0
  6 17  1  0
  7 18  1  0
  9 19  1  0
M  END
