
     RDKit          3D

 18 19  0  0  0  0  0  0  0  0999 V2000
   -2.0560   -0.1261   -0.1035 C   0  0  0  0  0  0  0  0  0  0  0  0
   -0.8159   -0.6256    0.6531 C   0  0  0  0  0  0  0  0  0  0  0  0
    0.2354    0.1541   -0.1180 C   0  0  0  0  0  0  0  0  0  0  0  0
    1.5866    0.2125    0.4756 C   0  0  0  0  0  0  0  0  0  0  0  0
    1.7569   -0.9899   -0.4423 C   0  0  0  0  0  0  0  0  0  0  0  0
    0.6740   -0.5303   -1.2241 O   0  0  0  0  0  0  0  0  0  0  0  0
   -0.4830    1.4444   -0.3662 C   0  0  0  0  0  0  0  0  0  0  0  0
   -1.8368    1.2237   -0.1762 O   0  0  0  0  0  0  0  0  0  0  0  0
   -1.9944   -0.5641   -1.1385 H   0  0  0  0  0  0  0  0  0  0  0  0
   -2.9787   -0.3809    0.4127 H   0  0  0  0  0  0  0  0  0  0  0  0
   -0.9323   -0.2462    1.6939 H   0  0  0  0  0  0  0  0  0  0  0  0
   -0.6959   -1.7042    0.5873 H   0  0  0  0  0  0  0  0  0  0  0  0
    1.6829   -0.0425    1.5577 H   0  0  0  0  0  0  0  0  0  0  0  0
    2.1995    1.0543    0.1671 H   0  0  0  0  0  0  0  0  0  0  0  0
    1.4984   -1.9334    0.0638 H   0  0  0  0  0  0  0  0  0  0  0  0
    2.6540   -0.9985   -1.0578 H   0  0  0  0  0  0  0  0  0  0  0  0
   -0.1796    2.2058    0.4002 H   0  0  0  0  0  0  0  0  0  0  0  0
   -0.3151    1.8468   -1.3849 H   0  0  0  0  0  0  0  0  0  0  0  0
  1  2  1  0
  2  3  1  0
  3  4  1  0
  4  5  1  0
  5  6  1  0
  3  7  1  0
  7  8  1  0
  8  1  1  0
  6  3  1  0
  1  9  1  0
  1 10  1  0
  2 11  1  0
  2 12  1  0
  4 13  1  0
  4 14  1  0
  5 15  1  0
  5 16  1  0
  7 17  1  0
  7 18  1  0
M  END
