
     RDKit          3D

 21 22  0  0  0  0  0  0  0  0999 V2000
   -2.1687    0.5744    0.1567 C   0  0  0  0  0  0  0  0  0  0  0  0
   -1.8945   -0.8859   -0.1857 C   0  0  0  0  0  0  0  0  0  0  0  0
   -0.5403   -0.7419   -0.8931 C   0  0  0  0  0  0  0  0  0  0  0  0
    0.1989    0.1706    0.0616 C   0  0  0  0  0  0  0  0  0  0  0  0
   -0.8468    0.9628    0.8070 C   0  0  0  0  0  0  0  0  0  0  0  0
    0.9446   -0.6345    0.9063 O   0  0  0  0  0  0  0  0  0  0  0  0
    2.1633   -0.7419    0.1954 C   0  0  0  0  0  0  0  0  0  0  0  0
    2.3512    0.7456   -0.1440 C   0  0  0  0  0  0  0  0  0  0  0  0
    1.0518    1.0396   -0.5737 O   0  0  0  0  0  0  0  0  0  0  0  0
   -2.2820    1.1337   -0.7905 H   0  0  0  0  0  0  0  0  0  0  0  0
   -3.0276    0.7094    0.8098 H   0  0  0  0  0  0  0  0  0  0  0  0
   -1.6920   -1.4047    0.7582 H   0  0  0  0  0  0  0  0  0  0  0  0
   -2.6544   -1.3295   -0.8223 H   0  0  0  0  0  0  0  0  0  0  0  0
   -0.1012   -1.7797   -0.8921 H   0  0  0  0  0  0  0  0  0  0  0  0
   -0.6456   -0.3444   -1.8976 H   0  0  0  0  0  0  0  0  0  0  0  0
   -0.6886    2.0488    0.6698 H   0  0  0  0  0  0  0  0  0  0  0  0
   -0.8538    0.7735    1.8901 H   0  0  0  0  0  0  0  0  0  0  0  0
    2.0229   -1.2512   -0.7713 H   0  0  0  0  0  0  0  0  0  0  0  0
    2.9710   -1.1280    0.8127 H   0  0  0  0  0  0  0  0  0  0  0  0
    3.1054    0.8482   -0.9162 H   0  0  0  0  0  0  0  0  0  0  0  0
    2.5866    1.2353    0.8188 H   0  0  0  0  0  0  0  0  0  0  0  0
  1  2  1  0
  2  3  1  0
  3  4  1  0
  4  5  1  0
  4  6  1  0
  6  7  1  0
  7  8  1  0
  8  9  1  0
  5  1  1  0
  9  4  1  0
  1 10  1  0
  1 11  1  0
  2 12  1  0
  2 13  1  0
  3 14  1  0
  3 15  1  0
  5 16  1  0
  5 17  1  0
  7 18  1  0
  7 19  1  0
  8 20  1  0
  8 21  1  0
M  END
