
     RDKit          3D

 18 20  0  0  0  0  0  0  0  0999 V2000
    0.4347    1.5478   -0.3734 C   0  0  0  0  0  0  0  0  0  0  0  0
   -0.9366    0.9284   -0.2701 C   0  0  0  0  0  0  0  0  0  0  0  0
   -0.7639   -0.4229    0.3472 C   0  0  0  0  0  0  0  0  0  0  0  0
   -1.7968   -1.3803    0.2962 C   0  0  0  0  0  0  0  0  0  0  0  0
   -1.5801   -0.6517    1.4835 O   0  0  0  0  0  0  0  0  0  0  0  0
    0.6808   -0.6716    0.5719 C   0  0  0  0  0  0  0  0  0  0  0  0
    1.6493   -0.7156   -0.5543 C   0  0  0  0  0  0  0  0  0  0  0  0
    1.4099    0.5758    0.2203 C   0  0  0  0  0  0  0  0  0  0  0  0
    0.7216    1.7170   -1.4294 H   0  0  0  0  0  0  0  0  0  0  0  0
    0.4364    2.4744    0.2230 H   0  0  0  0  0  0  0  0  0  0  0  0
   -1.6483    1.5673    0.3173 H   0  0  0  0  0  0  0  0  0  0  0  0
   -1.4215    0.8081   -1.2755 H   0  0  0  0  0  0  0  0  0  0  0  0
   -1.6034   -2.4734    0.3155 H   0  0  0  0  0  0  0  0  0  0  0  0
   -2.7684   -1.1326   -0.1707 H   0  0  0  0  0  0  0  0  0  0  0  0
    0.9962   -1.2695    1.4721 H   0  0  0  0  0  0  0  0  0  0  0  0
    2.6299   -1.1796   -0.4055 H   0  0  0  0  0  0  0  0  0  0  0  0
    1.3180   -0.6763   -1.6021 H   0  0  0  0  0  0  0  0  0  0  0  0
    2.2423    0.9547    0.8342 H   0  0  0  0  0  0  0  0  0  0  0  0
  1  2  1  0
  2  3  1  0
  3  4  1  0
  4  5  1  0
  3  6  1  0
  6  7  1  0
  7  8  1  0
  8  1  1  0
  5  3  1  0
  8  6  1  0
  1  9  1  0
  1 10  1  0
  2 11  1  0
  2 12  1  0
  4 13  1  0
  4 14  1  0
  6 15  1  0
  7 16  1  0
  7 17  1  0
  8 18  1  0
M  END
