
     RDKit          3D

 21 23  0  0  0  0  0  0  0  0999 V2000
   -2.5451   -0.3779    0.0866 C   0  0  0  0  0  0  0  0  0  0  0  0
   -1.3161   -1.0047   -0.5869 C   0  0  0  0  0  0  0  0  0  0  0  0
   -0.4922   -0.1119    0.2915 C   0  0  0  0  0  0  0  0  0  0  0  0
    0.7074    0.5284   -0.2961 C   0  0  0  0  0  0  0  0  0  0  0  0
    1.7786   -0.4309   -0.8277 C   0  0  0  0  0  0  0  0  0  0  0  0
    2.5896   -0.0690    0.4076 C   0  0  0  0  0  0  0  0  0  0  0  0
    1.9671   -0.1686    1.6537 O   0  0  0  0  0  0  0  0  0  0  0  0
    1.6906    0.8781    0.8032 C   0  0  0  0  0  0  0  0  0  0  0  0
   -1.6711    0.8655    0.2735 C   0  0  0  0  0  0  0  0  0  0  0  0
   -3.3935   -0.2459   -0.5849 H   0  0  0  0  0  0  0  0  0  0  0  0
   -2.7333   -0.9234    1.0296 H   0  0  0  0  0  0  0  0  0  0  0  0
   -1.2464   -2.0897   -0.3767 H   0  0  0  0  0  0  0  0  0  0  0  0
   -1.2930   -0.8009   -1.6617 H   0  0  0  0  0  0  0  0  0  0  0  0
   -0.2902   -0.5711    1.2561 H   0  0  0  0  0  0  0  0  0  0  0  0
    0.5419    1.3989   -0.9672 H   0  0  0  0  0  0  0  0  0  0  0  0
    1.4450   -1.4782   -0.8819 H   0  0  0  0  0  0  0  0  0  0  0  0
    2.2840   -0.0218   -1.7194 H   0  0  0  0  0  0  0  0  0  0  0  0
    3.6706   -0.1722    0.4099 H   0  0  0  0  0  0  0  0  0  0  0  0
    1.7931    1.9263    1.1226 H   0  0  0  0  0  0  0  0  0  0  0  0
   -1.8396    1.3976    1.2175 H   0  0  0  0  0  0  0  0  0  0  0  0
   -1.6475    1.4714   -0.6493 H   0  0  0  0  0  0  0  0  0  0  0  0
  1  2  1  0
  2  3  1  0
  3  4  1  0
  4  5  1  0
  5  6  1  0
  6  7  1  0
  7  8  1  0
  3  9  1  0
  9  1  1  0
  8  4  1  0
  8  6  1  0
  1 10  1  0
  1 11  1  0
  2 12  1  0
  2 13  1  0
  3 14  1  0
  4 15  1  0
  5 16  1  0
  5 17  1  0
  6 18  1  0
  8 19  1  0
  9 20  1  0
  9 21  1  0
M  END
