
     RDKit          3D

 19 21  0  0  0  0  0  0  0  0999 V2000
   -1.6572    0.0346    0.9502 C   0  0  0  0  0  0  0  0  0  0  0  0
   -1.2707   -0.9855   -0.0750 C   0  0  0  0  0  0  0  0  0  0  0  0
   -0.2008   -0.2775   -0.8616 C   0  0  0  0  0  0  0  0  0  0  0  0
   -0.5184    1.1681   -0.6075 C   0  0  0  0  0  0  0  0  0  0  0  0
    0.9618    1.3765   -0.2957 C   0  0  0  0  0  0  0  0  0  0  0  0
    1.1148   -0.0954   -0.2221 C   0  0  0  0  0  0  0  0  0  0  0  0
    1.8395   -0.8933    0.6156 C   0  0  0  0  0  0  0  0  0  0  0  0
    2.2767   -0.6351   -0.7775 O   0  0  0  0  0  0  0  0  0  0  0  0
   -1.2582    1.2669    0.5321 O   0  0  0  0  0  0  0  0  0  0  0  0
   -1.1741   -0.2876    1.9192 H   0  0  0  0  0  0  0  0  0  0  0  0
   -2.7580    0.0655    1.1378 H   0  0  0  0  0  0  0  0  0  0  0  0
   -0.9776   -1.9547    0.3227 H   0  0  0  0  0  0  0  0  0  0  0  0
   -2.1504   -1.0962   -0.7739 H   0  0  0  0  0  0  0  0  0  0  0  0
   -0.2121   -0.5948   -1.9221 H   0  0  0  0  0  0  0  0  0  0  0  0
   -0.8740    1.6533   -1.5184 H   0  0  0  0  0  0  0  0  0  0  0  0
    1.4538    1.8134   -1.1839 H   0  0  0  0  0  0  0  0  0  0  0  0
    1.1579    1.8888    0.6568 H   0  0  0  0  0  0  0  0  0  0  0  0
    2.6364   -0.4974    1.2884 H   0  0  0  0  0  0  0  0  0  0  0  0
    1.6106   -1.9497    0.8151 H   0  0  0  0  0  0  0  0  0  0  0  0
  1  2  1  0
  2  3  1  0
  3  4  1  0
  4  5  1  0
  5  6  1  0
  6  7  1  0
  7  8  1  0
  4  9  1  0
  9  1  1  0
  6  3  1  0
  8  6  1  0
  1 10  1  0
  1 11  1  0
  2 12  1  0
  2 13  1  0
  3 14  1  0
  4 15  1  0
  5 16  1  0
  5 17  1  0
  7 18  1  0
  7 19  1  0
M  END
