
     RDKit          3D

 15 16  0  0  0  0  0  0  0  0999 V2000
    2.6028    0.2602    0.5925 C   0  0  0  0  0  0  0  0  0  0  0  0
    2.0044    0.2915   -0.6511 C   0  0  0  0  0  0  0  0  0  0  0  0
    0.6444    0.1460   -0.4654 C   0  0  0  0  0  0  0  0  0  0  0  0
    0.4781    0.0316    0.9003 C   0  0  0  0  0  0  0  0  0  0  0  0
    1.6504    0.1029    1.4918 O   0  0  0  0  0  0  0  0  0  0  0  0
   -0.8369   -0.1289    1.3555 O   0  0  0  0  0  0  0  0  0  0  0  0
   -1.9401    0.1427    0.5087 C   0  0  0  0  0  0  0  0  0  0  0  0
   -1.6380   -0.5578   -0.8172 C   0  0  0  0  0  0  0  0  0  0  0  0
   -0.4647    0.0999   -1.3210 O   0  0  0  0  0  0  0  0  0  0  0  0
    3.6765    0.3491    0.8054 H   0  0  0  0  0  0  0  0  0  0  0  0
    2.4983    0.4099   -1.6284 H   0  0  0  0  0  0  0  0  0  0  0  0
   -2.8352   -0.2587    0.9933 H   0  0  0  0  0  0  0  0  0  0  0  0
   -2.0243    1.2198    0.2960 H   0  0  0  0  0  0  0  0  0  0  0  0
   -2.4642   -0.5020   -1.5231 H   0  0  0  0  0  0  0  0  0  0  0  0
   -1.3515   -1.6062   -0.5371 H   0  0  0  0  0  0  0  0  0  0  0  0
  1  2  2  0
  2  3  1  0
  3  4  2  0
  4  5  1  0
  4  6  1  0
  6  7  1  0
  7  8  1  0
  8  9  1  0
  5  1  1  0
  9  3  1  0
  1 10  1  0
  2 11  1  0
  7 12  1  0
  7 13  1  0
  8 14  1  0
  8 15  1  0
M  END
