
     RDKit          3D

 21 23  0  0  0  0  0  0  0  0999 V2000
   -1.8890   -0.2988   -0.5190 C   0  0  0  0  0  0  0  0  0  0  0  0
   -1.6480   -0.2246    1.0023 C   0  0  0  0  0  0  0  0  0  0  0  0
   -0.1695    0.0017    1.0110 C   0  0  0  0  0  0  0  0  0  0  0  0
    0.0081    0.9959   -0.1218 C   0  0  0  0  0  0  0  0  0  0  0  0
    1.4433    1.3427   -0.3615 C   0  0  0  0  0  0  0  0  0  0  0  0
    2.0850    0.2373   -0.9681 O   0  0  0  0  0  0  0  0  0  0  0  0
    1.8190   -0.8496   -0.1267 C   0  0  0  0  0  0  0  0  0  0  0  0
    0.3286   -1.0342   -0.0073 C   0  0  0  0  0  0  0  0  0  0  0  0
   -0.4748   -0.1825   -0.9829 C   0  0  0  0  0  0  0  0  0  0  0  0
   -2.4512    0.6104   -0.8603 H   0  0  0  0  0  0  0  0  0  0  0  0
   -2.3601   -1.2387   -0.8093 H   0  0  0  0  0  0  0  0  0  0  0  0
   -1.9752   -1.1486    1.4959 H   0  0  0  0  0  0  0  0  0  0  0  0
   -2.1304    0.6774    1.4321 H   0  0  0  0  0  0  0  0  0  0  0  0
    0.3718    0.1236    1.9049 H   0  0  0  0  0  0  0  0  0  0  0  0
   -0.7131    1.8105   -0.0737 H   0  0  0  0  0  0  0  0  0  0  0  0
    1.4806    2.1497   -1.1079 H   0  0  0  0  0  0  0  0  0  0  0  0
    1.9305    1.6093    0.5978 H   0  0  0  0  0  0  0  0  0  0  0  0
    2.3250   -1.7641   -0.5180 H   0  0  0  0  0  0  0  0  0  0  0  0
    2.2709   -0.5835    0.8637 H   0  0  0  0  0  0  0  0  0  0  0  0
   -0.0344   -2.0462    0.1532 H   0  0  0  0  0  0  0  0  0  0  0  0
   -0.2170   -0.1877   -2.0044 H   0  0  0  0  0  0  0  0  0  0  0  0
  1  2  1  0
  2  3  1  0
  3  4  1  0
  4  5  1  0
  5  6  1  0
  6  7  1  0
  7  8  1  0
  8  9  1  0
  9  1  1  0
  8  3  1  0
  9  4  1  0
  1 10  1  0
  1 11  1  0
  2 12  1  0
  2 13  1  0
  3 14  1  0
  4 15  1  0
  5 16  1  0
  5 17  1  0
  7 18  1  0
  7 19  1  0
  8 20  1  0
  9 21  1  0
M  END
