
     RDKit          3D

 21 23  0  0  0  0  0  0  0  0999 V2000
   -1.7224    0.2805    0.0712 C   0  0  0  0  0  0  0  0  0  0  0  0
   -1.4614   -1.1958   -0.1922 C   0  0  0  0  0  0  0  0  0  0  0  0
    0.0242   -1.3307   -0.3983 C   0  0  0  0  0  0  0  0  0  0  0  0
    0.6856   -1.5388    0.7685 O   0  0  0  0  0  0  0  0  0  0  0  0
    1.5954   -0.5487    0.9899 C   0  0  0  0  0  0  0  0  0  0  0  0
    1.4279    0.5158   -0.0472 C   0  0  0  0  0  0  0  0  0  0  0  0
    0.4485    1.5700    0.4154 C   0  0  0  0  0  0  0  0  0  0  0  0
   -0.5683    1.0178   -0.5299 C   0  0  0  0  0  0  0  0  0  0  0  0
    0.4124   -0.0225   -0.9820 C   0  0  0  0  0  0  0  0  0  0  0  0
   -1.7970    0.4948    1.1444 H   0  0  0  0  0  0  0  0  0  0  0  0
   -2.6486    0.6178   -0.4611 H   0  0  0  0  0  0  0  0  0  0  0  0
   -1.9633   -1.5413   -1.1268 H   0  0  0  0  0  0  0  0  0  0  0  0
   -1.8244   -1.8132    0.6690 H   0  0  0  0  0  0  0  0  0  0  0  0
    0.2012   -2.2039   -1.0684 H   0  0  0  0  0  0  0  0  0  0  0  0
    2.6504   -0.8987    0.9475 H   0  0  0  0  0  0  0  0  0  0  0  0
    1.4056   -0.1169    2.0080 H   0  0  0  0  0  0  0  0  0  0  0  0
    2.3752    0.8955   -0.4737 H   0  0  0  0  0  0  0  0  0  0  0  0
    0.2061    1.4980    1.4972 H   0  0  0  0  0  0  0  0  0  0  0  0
    0.7413    2.6212    0.1662 H   0  0  0  0  0  0  0  0  0  0  0  0
   -0.8239    1.7182   -1.3419 H   0  0  0  0  0  0  0  0  0  0  0  0
    0.6354   -0.0192   -2.0557 H   0  0  0  0  0  0  0  0  0  0  0  0
  1  2  1  0
  2  3  1  0
  3  4  1  0
  4  5  1  0
  5  6  1  0
  6  7  1  0
  7  8  1  0
  8  9  1  0
  8  1  1  0
  9  3  1  0
  9  6  1  0
  1 10  1  0
  1 11  1  0
  2 12  1  0
  2 13  1  0
  3 14  1  0
  5 15  1  0
  5 16  1  0
  6 17  1  0
  7 18  1  0
  7 19  1  0
  8 20  1  0
  9 21  1  0
M  END
