
     RDKit          3D

 21 23  0  0  0  0  0  0  0  0999 V2000
   -2.0933   -0.8398    0.0256 C   0  0  0  0  0  0  0  0  0  0  0  0
   -1.9578    0.6547   -0.0431 C   0  0  0  0  0  0  0  0  0  0  0  0
   -0.5465    0.9471   -0.5207 C   0  0  0  0  0  0  0  0  0  0  0  0
    0.4960    0.8485    0.5075 C   0  0  0  0  0  0  0  0  0  0  0  0
    1.9439    1.0818    0.2418 C   0  0  0  0  0  0  0  0  0  0  0  0
    2.3584   -0.3226   -0.2224 C   0  0  0  0  0  0  0  0  0  0  0  0
    1.3346   -0.5696   -1.1439 O   0  0  0  0  0  0  0  0  0  0  0  0
    0.1965   -0.3281   -0.4333 C   0  0  0  0  0  0  0  0  0  0  0  0
   -0.7042   -1.4053    0.0526 C   0  0  0  0  0  0  0  0  0  0  0  0
   -2.6586   -1.1779   -0.8644 H   0  0  0  0  0  0  0  0  0  0  0  0
   -2.6041   -1.1562    0.9686 H   0  0  0  0  0  0  0  0  0  0  0  0
   -2.7269    1.1520   -0.6313 H   0  0  0  0  0  0  0  0  0  0  0  0
   -2.0216    1.0292    1.0145 H   0  0  0  0  0  0  0  0  0  0  0  0
   -0.3956    1.5376   -1.4306 H   0  0  0  0  0  0  0  0  0  0  0  0
    0.1965    0.6738    1.5657 H   0  0  0  0  0  0  0  0  0  0  0  0
    2.4877    1.3905    1.1434 H   0  0  0  0  0  0  0  0  0  0  0  0
    2.1314    1.7402   -0.6345 H   0  0  0  0  0  0  0  0  0  0  0  0
    2.2490   -0.9674    0.6721 H   0  0  0  0  0  0  0  0  0  0  0  0
    3.3540   -0.3312   -0.6605 H   0  0  0  0  0  0  0  0  0  0  0  0
   -0.3723   -1.7145    1.0631 H   0  0  0  0  0  0  0  0  0  0  0  0
   -0.6670   -2.2428   -0.6703 H   0  0  0  0  0  0  0  0  0  0  0  0
  1  2  1  0
  2  3  1  0
  3  4  1  0
  4  5  1  0
  5  6  1  0
  6  7  1  0
  7  8  1  0
  8  9  1  0
  9  1  1  0
  8  3  1  0
  8  4  1  0
  1 10  1  0
  1 11  1  0
  2 12  1  0
  2 13  1  0
  3 14  1  0
  4 15  1  0
  5 16  1  0
  5 17  1  0
  6 18  1  0
  6 19  1  0
  9 20  1  0
  9 21  1  0
M  END
