
     RDKit          3D

 18 19  0  0  0  0  0  0  0  0999 V2000
    1.8055   -0.4449    0.0360 C   0  0  0  0  0  0  0  0  0  0  0  0
    0.5054   -0.9788   -0.4982 C   0  0  0  0  0  0  0  0  0  0  0  0
   -0.5990   -0.0131   -0.2743 C   0  0  0  0  0  0  0  0  0  0  0  0
   -2.0284   -0.3633   -0.4548 C   0  0  0  0  0  0  0  0  0  0  0  0
   -1.4327   -0.1971    0.9239 C   0  0  0  0  0  0  0  0  0  0  0  0
   -0.2190    1.2281   -0.7434 O   0  0  0  0  0  0  0  0  0  0  0  0
    0.8604    1.6726   -0.0068 C   0  0  0  0  0  0  0  0  0  0  0  0
    1.9730    0.8922   -0.0736 O   0  0  0  0  0  0  0  0  0  0  0  0
    2.6192   -0.9473   -0.5660 H   0  0  0  0  0  0  0  0  0  0  0  0
    2.0081   -0.7588    1.0867 H   0  0  0  0  0  0  0  0  0  0  0  0
    0.6014   -1.3201   -1.5645 H   0  0  0  0  0  0  0  0  0  0  0  0
    0.2894   -1.9193    0.0747 H   0  0  0  0  0  0  0  0  0  0  0  0
   -2.2754   -1.3559   -0.8338 H   0  0  0  0  0  0  0  0  0  0  0  0
   -2.7425    0.4574   -0.7073 H   0  0  0  0  0  0  0  0  0  0  0  0
   -1.3438   -1.1504    1.4768 H   0  0  0  0  0  0  0  0  0  0  0  0
   -1.6416    0.6924    1.5229 H   0  0  0  0  0  0  0  0  0  0  0  0
    0.4825    1.8272    1.0436 H   0  0  0  0  0  0  0  0  0  0  0  0
    1.1376    2.6790   -0.4420 H   0  0  0  0  0  0  0  0  0  0  0  0
  1  2  1  0
  2  3  1  0
  3  4  1  0
  4  5  1  0
  3  6  1  0
  6  7  1  0
  7  8  1  0
  8  1  1  0
  5  3  1  0
  1  9  1  0
  1 10  1  0
  2 11  1  0
  2 12  1  0
  4 13  1  0
  4 14  1  0
  5 15  1  0
  5 16  1  0
  7 17  1  0
  7 18  1  0
M  END
