
     RDKit          3D

 19 22  0  0  0  0  0  0  0  0999 V2000
    1.9272    0.6816    0.2285 C   0  0  0  0  0  0  0  0  0  0  0  0
    2.1477   -0.7873   -0.1636 C   0  0  0  0  0  0  0  0  0  0  0  0
    1.0879   -0.0036   -0.8251 C   0  0  0  0  0  0  0  0  0  0  0  0
   -0.3374   -0.1087   -0.5881 C   0  0  0  0  0  0  0  0  0  0  0  0
   -1.1319    1.1961   -0.4170 C   0  0  0  0  0  0  0  0  0  0  0  0
   -2.1921    0.2735    0.2109 C   0  0  0  0  0  0  0  0  0  0  0  0
   -1.9498   -1.1159   -0.2306 C   0  0  0  0  0  0  0  0  0  0  0  0
   -1.0311   -1.0907   -1.3156 O   0  0  0  0  0  0  0  0  0  0  0  0
   -0.9513   -0.5965    0.6186 C   0  0  0  0  0  0  0  0  0  0  0  0
    2.7060    1.4077   -0.0724 H   0  0  0  0  0  0  0  0  0  0  0  0
    1.5189    0.8722    1.2299 H   0  0  0  0  0  0  0  0  0  0  0  0
    1.9430   -1.5177    0.6421 H   0  0  0  0  0  0  0  0  0  0  0  0
    3.1000   -0.9916   -0.6962 H   0  0  0  0  0  0  0  0  0  0  0  0
    1.3535    0.3391   -1.8679 H   0  0  0  0  0  0  0  0  0  0  0  0
   -1.3910    1.5796   -1.4041 H   0  0  0  0  0  0  0  0  0  0  0  0
   -0.6816    1.8550    0.3125 H   0  0  0  0  0  0  0  0  0  0  0  0
   -2.8144    0.6010    1.0126 H   0  0  0  0  0  0  0  0  0  0  0  0
   -2.6372   -1.9348   -0.1240 H   0  0  0  0  0  0  0  0  0  0  0  0
   -0.6663   -0.6589    1.6156 H   0  0  0  0  0  0  0  0  0  0  0  0
  1  2  1  0
  2  3  1  0
  3  4  1  0
  4  5  1  0
  5  6  1  0
  6  7  1  0
  7  8  1  0
  7  9  1  0
  3  1  1  0
  8  4  1  0
  9  4  1  0
  9  6  1  0
  1 10  1  0
  1 11  1  0
  2 12  1  0
  2 13  1  0
  3 14  1  0
  5 15  1  0
  5 16  1  0
  6 17  1  0
  7 18  1  0
  9 19  1  0
M  END
