
     RDKit          3D

 19 22  0  0  0  0  0  0  0  0999 V2000
   -1.5196   -0.3820   -0.6660 C   0  0  0  0  0  0  0  0  0  0  0  0
   -1.4462    1.0832   -0.1758 C   0  0  0  0  0  0  0  0  0  0  0  0
    0.0152    1.1568    0.0999 C   0  0  0  0  0  0  0  0  0  0  0  0
    0.4410    0.9354   -1.3160 O   0  0  0  0  0  0  0  0  0  0  0  0
    1.2753    1.0389   -0.3067 C   0  0  0  0  0  0  0  0  0  0  0  0
    1.8918   -0.3695   -0.1179 C   0  0  0  0  0  0  0  0  0  0  0  0
    0.7566   -1.1261    0.4682 C   0  0  0  0  0  0  0  0  0  0  0  0
   -0.6357   -1.1376    0.2566 C   0  0  0  0  0  0  0  0  0  0  0  0
   -0.0300   -0.0616    1.0366 C   0  0  0  0  0  0  0  0  0  0  0  0
   -1.0514   -0.4024   -1.6897 H   0  0  0  0  0  0  0  0  0  0  0  0
   -2.5378   -0.7397   -0.7410 H   0  0  0  0  0  0  0  0  0  0  0  0
   -1.8645    1.7831   -0.8766 H   0  0  0  0  0  0  0  0  0  0  0  0
   -2.0544    1.0881    0.7583 H   0  0  0  0  0  0  0  0  0  0  0  0
    2.0517    1.8384   -0.2512 H   0  0  0  0  0  0  0  0  0  0  0  0
    2.7596   -0.2773    0.5336 H   0  0  0  0  0  0  0  0  0  0  0  0
    2.2025   -0.8149   -1.0579 H   0  0  0  0  0  0  0  0  0  0  0  0
    1.1664   -1.8798    1.2135 H   0  0  0  0  0  0  0  0  0  0  0  0
   -1.2249   -1.9493    0.7890 H   0  0  0  0  0  0  0  0  0  0  0  0
   -0.1956    0.2164    2.0432 H   0  0  0  0  0  0  0  0  0  0  0  0
  1  2  1  0
  2  3  1  0
  3  4  1  0
  4  5  1  0
  5  6  1  0
  6  7  1  0
  7  8  1  0
  8  9  1  0
  8  1  1  0
  5  3  1  0
  9  7  1  0
  9  3  1  0
  1 10  1  0
  1 11  1  0
  2 12  1  0
  2 13  1  0
  5 14  1  0
  6 15  1  0
  6 16  1  0
  7 17  1  0
  8 18  1  0
  9 19  1  0
M  END
