
     RDKit          3D

 21 23  0  0  0  0  0  0  0  0999 V2000
   -0.9004    1.5937   -0.2089 C   0  0  0  0  0  0  0  0  0  0  0  0
   -1.7124    0.3502   -0.2937 C   0  0  0  0  0  0  0  0  0  0  0  0
   -1.2040   -0.8062    0.4719 C   0  0  0  0  0  0  0  0  0  0  0  0
   -0.6835   -1.9546   -0.4029 C   0  0  0  0  0  0  0  0  0  0  0  0
    0.2150   -1.1118    0.3896 C   0  0  0  0  0  0  0  0  0  0  0  0
    1.0277   -0.0154   -0.1878 C   0  0  0  0  0  0  0  0  0  0  0  0
    0.5251    1.3647    0.1583 C   0  0  0  0  0  0  0  0  0  0  0  0
    2.5382   -0.1615   -0.0320 C   0  0  0  0  0  0  0  0  0  0  0  0
    1.8845   -0.2039   -1.2452 O   0  0  0  0  0  0  0  0  0  0  0  0
   -0.9408    2.1355   -1.1967 H   0  0  0  0  0  0  0  0  0  0  0  0
   -1.3253    2.3320    0.5220 H   0  0  0  0  0  0  0  0  0  0  0  0
   -2.7437    0.5977    0.0828 H   0  0  0  0  0  0  0  0  0  0  0  0
   -1.8815    0.0948   -1.3812 H   0  0  0  0  0  0  0  0  0  0  0  0
   -1.7231   -1.0739    1.4194 H   0  0  0  0  0  0  0  0  0  0  0  0
   -1.0006   -2.9358   -0.0620 H   0  0  0  0  0  0  0  0  0  0  0  0
   -0.6651   -1.8169   -1.4938 H   0  0  0  0  0  0  0  0  0  0  0  0
    0.6972   -1.6248    1.2713 H   0  0  0  0  0  0  0  0  0  0  0  0
    1.1803    2.1004   -0.3616 H   0  0  0  0  0  0  0  0  0  0  0  0
    0.6624    1.5417    1.2563 H   0  0  0  0  0  0  0  0  0  0  0  0
    3.1331    0.7197    0.2640 H   0  0  0  0  0  0  0  0  0  0  0  0
    2.9169   -1.1255    0.3608 H   0  0  0  0  0  0  0  0  0  0  0  0
  1  2  1  0
  2  3  1  0
  3  4  1  0
  4  5  1  0
  5  6  1  0
  6  7  1  0
  6  8  1  0
  8  9  1  0
  7  1  1  0
  5  3  1  0
  9  6  1  0
  1 10  1  0
  1 11  1  0
  2 12  1  0
  2 13  1  0
  3 14  1  0
  4 15  1  0
  4 16  1  0
  5 17  1  0
  7 18  1  0
  7 19  1  0
  8 20  1  0
  8 21  1  0
M  END
