
     RDKit          3D

 23 24  0  0  0  0  0  0  0  0999 V2000
    0.7007    1.1484    0.8169 C   0  0  0  0  0  0  0  0  0  0  0  0
    1.5400   -0.0577    0.5571 C   0  0  0  0  0  0  0  0  0  0  0  0
    0.8764   -0.9251   -0.4875 C   0  0  0  0  0  0  0  0  0  0  0  0
    0.4242   -0.0086   -1.6051 C   0  0  0  0  0  0  0  0  0  0  0  0
   -0.8063    0.7055   -1.1439 C   0  0  0  0  0  0  0  0  0  0  0  0
   -0.7042    1.0384    0.3021 C   0  0  0  0  0  0  0  0  0  0  0  0
   -1.4408    0.0126    1.1647 C   0  0  0  0  0  0  0  0  0  0  0  0
   -0.6779   -1.1307    1.3502 O   0  0  0  0  0  0  0  0  0  0  0  0
   -0.2551   -1.6765    0.1449 C   0  0  0  0  0  0  0  0  0  0  0  0
    0.6246    1.2645    1.9328 H   0  0  0  0  0  0  0  0  0  0  0  0
    1.2246    2.0421    0.4386 H   0  0  0  0  0  0  0  0  0  0  0  0
    1.7371   -0.6679    1.4572 H   0  0  0  0  0  0  0  0  0  0  0  0
    2.5407    0.2241    0.1314 H   0  0  0  0  0  0  0  0  0  0  0  0
    1.6360   -1.6109   -0.9414 H   0  0  0  0  0  0  0  0  0  0  0  0
    0.2406   -0.5322   -2.5473 H   0  0  0  0  0  0  0  0  0  0  0  0
    1.2251    0.7716   -1.7308 H   0  0  0  0  0  0  0  0  0  0  0  0
   -1.6895    0.0386   -1.2826 H   0  0  0  0  0  0  0  0  0  0  0  0
   -1.0104    1.5953   -1.7978 H   0  0  0  0  0  0  0  0  0  0  0  0
   -1.2023    2.0164    0.4999 H   0  0  0  0  0  0  0  0  0  0  0  0
   -1.5545    0.5035    2.1626 H   0  0  0  0  0  0  0  0  0  0  0  0
   -2.4483   -0.2060    0.7397 H   0  0  0  0  0  0  0  0  0  0  0  0
    0.1369   -2.7047    0.3852 H   0  0  0  0  0  0  0  0  0  0  0  0
   -1.1176   -1.8406   -0.5469 H   0  0  0  0  0  0  0  0  0  0  0  0
  1  2  1  0
  2  3  1  0
  3  4  1  0
  4  5  1  0
  5  6  1  0
  6  7  1  0
  7  8  1  0
  8  9  1  0
  6  1  1  0
  9  3  1  0
  1 10  1  0
  1 11  1  0
  2 12  1  0
  2 13  1  0
  3 14  1  0
  4 15  1  0
  4 16  1  0
  5 17  1  0
  5 18  1  0
  6 19  1  0
  7 20  1  0
  7 21  1  0
  9 22  1  0
  9 23  1  0
M  END
