
     RDKit          3D

 18 20  0  0  0  0  0  0  0  0999 V2000
   -1.6617   -0.6715   -0.5541 C   0  0  0  0  0  0  0  0  0  0  0  0
   -1.5806   -0.1887    0.9148 C   0  0  0  0  0  0  0  0  0  0  0  0
   -0.5223    0.0628   -0.0681 C   0  0  0  0  0  0  0  0  0  0  0  0
   -0.1553    1.4478   -0.5316 C   0  0  0  0  0  0  0  0  0  0  0  0
    1.2854    1.1197   -0.1193 C   0  0  0  0  0  0  0  0  0  0  0  0
    0.8625   -0.3041    0.0166 C   0  0  0  0  0  0  0  0  0  0  0  0
    1.6573   -1.3897    0.0023 C   0  0  0  0  0  0  0  0  0  0  0  0
    1.2066   -0.9360    1.3101 O   0  0  0  0  0  0  0  0  0  0  0  0
   -1.7123   -1.7460   -0.7166 H   0  0  0  0  0  0  0  0  0  0  0  0
   -2.4168   -0.1075   -1.1766 H   0  0  0  0  0  0  0  0  0  0  0  0
   -1.4171   -0.9449    1.6903 H   0  0  0  0  0  0  0  0  0  0  0  0
   -2.2165    0.6952    1.1740 H   0  0  0  0  0  0  0  0  0  0  0  0
   -0.2714    1.5206   -1.6289 H   0  0  0  0  0  0  0  0  0  0  0  0
   -0.6413    2.2192    0.0738 H   0  0  0  0  0  0  0  0  0  0  0  0
    1.5011    1.6372    0.8291 H   0  0  0  0  0  0  0  0  0  0  0  0
    2.0037    1.3447   -0.9309 H   0  0  0  0  0  0  0  0  0  0  0  0
    1.3132   -2.4355   -0.2469 H   0  0  0  0  0  0  0  0  0  0  0  0
    2.7655   -1.3232   -0.0382 H   0  0  0  0  0  0  0  0  0  0  0  0
  1  2  1  0
  2  3  1  0
  3  4  1  0
  4  5  1  0
  5  6  1  0
  6  7  1  0
  7  8  1  0
  3  1  1  0
  8  6  1  0
  6  3  1  0
  1  9  1  0
  1 10  1  0
  2 11  1  0
  2 12  1  0
  4 13  1  0
  4 14  1  0
  5 15  1  0
  5 16  1  0
  7 17  1  0
  7 18  1  0
M  END
