
     RDKit          3D

 16 17  0  0  0  0  0  0  0  0999 V2000
    2.4538   -0.1580   -0.5104 C   0  0  0  0  0  0  0  0  0  0  0  0
    1.8509    0.6400    0.4256 C   0  0  0  0  0  0  0  0  0  0  0  0
    0.5105    0.3357    0.4079 C   0  0  0  0  0  0  0  0  0  0  0  0
    0.3594   -0.6482   -0.5529 C   0  0  0  0  0  0  0  0  0  0  0  0
    1.5409   -0.9019   -1.0643 O   0  0  0  0  0  0  0  0  0  0  0  0
   -1.0784   -1.0326   -0.6307 C   0  0  0  0  0  0  0  0  0  0  0  0
   -1.7314    0.2824   -0.1787 C   0  0  0  0  0  0  0  0  0  0  0  0
   -0.8262    0.6235    0.9875 C   0  0  0  0  0  0  0  0  0  0  0  0
    3.5372   -0.1218   -0.7078 H   0  0  0  0  0  0  0  0  0  0  0  0
    2.3646    1.3766    1.0584 H   0  0  0  0  0  0  0  0  0  0  0  0
   -1.2769   -1.7529    0.1759 H   0  0  0  0  0  0  0  0  0  0  0  0
   -1.3998   -1.3344   -1.6236 H   0  0  0  0  0  0  0  0  0  0  0  0
   -1.5870    1.0412   -0.9948 H   0  0  0  0  0  0  0  0  0  0  0  0
   -2.7715    0.1419    0.1075 H   0  0  0  0  0  0  0  0  0  0  0  0
   -1.0078   -0.1423    1.7652 H   0  0  0  0  0  0  0  0  0  0  0  0
   -0.9382    1.6509    1.3352 H   0  0  0  0  0  0  0  0  0  0  0  0
  1  2  2  0
  2  3  1  0
  3  4  2  0
  4  5  1  0
  4  6  1  0
  6  7  1  0
  7  8  1  0
  5  1  1  0
  8  3  1  0
  1  9  1  0
  2 10  1  0
  6 11  1  0
  6 12  1  0
  7 13  1  0
  7 14  1  0
  8 15  1  0
  8 16  1  0
M  END
