
     RDKit          3D

 21 23  0  0  0  0  0  0  0  0999 V2000
    2.7591   -0.1195   -1.0446 C   0  0  0  0  0  0  0  0  0  0  0  0
    2.9887   -0.2441    0.4173 C   0  0  0  0  0  0  0  0  0  0  0  0
    1.6866    0.2836   -0.0409 C   0  0  0  0  0  0  0  0  0  0  0  0
    0.5401   -0.4817   -0.0260 O   0  0  0  0  0  0  0  0  0  0  0  0
   -0.5437    0.3357    0.1830 C   0  0  0  0  0  0  0  0  0  0  0  0
   -1.7174    0.1439   -0.7343 C   0  0  0  0  0  0  0  0  0  0  0  0
   -2.5360    0.7865    0.3461 C   0  0  0  0  0  0  0  0  0  0  0  0
   -1.6208   -0.1702    1.0895 C   0  0  0  0  0  0  0  0  0  0  0  0
   -1.9523   -1.1499    0.0023 C   0  0  0  0  0  0  0  0  0  0  0  0
    2.6003   -1.0496   -1.6371 H   0  0  0  0  0  0  0  0  0  0  0  0
    3.2072    0.7092   -1.6362 H   0  0  0  0  0  0  0  0  0  0  0  0
    3.7213    0.4667    0.8478 H   0  0  0  0  0  0  0  0  0  0  0  0
    3.0935   -1.2647    0.8340 H   0  0  0  0  0  0  0  0  0  0  0  0
    1.5340    1.3721    0.1115 H   0  0  0  0  0  0  0  0  0  0  0  0
   -0.3280    1.4262    0.2999 H   0  0  0  0  0  0  0  0  0  0  0  0
   -1.7617    0.2990   -1.7190 H   0  0  0  0  0  0  0  0  0  0  0  0
   -3.5970    0.5504    0.3884 H   0  0  0  0  0  0  0  0  0  0  0  0
   -2.2528    1.8470    0.4674 H   0  0  0  0  0  0  0  0  0  0  0  0
   -1.5965   -0.3202    2.0731 H   0  0  0  0  0  0  0  0  0  0  0  0
   -1.2144   -1.9221   -0.2165 H   0  0  0  0  0  0  0  0  0  0  0  0
   -3.0102   -1.4984   -0.0059 H   0  0  0  0  0  0  0  0  0  0  0  0
  1  2  1  0
  2  3  1  0
  3  4  1  0
  4  5  1  0
  5  6  1  0
  6  7  1  0
  7  8  1  0
  8  9  1  0
  3  1  1  0
  8  5  1  0
  9  6  1  0
  1 10  1  0
  1 11  1  0
  2 12  1  0
  2 13  1  0
  3 14  1  0
  5 15  1  0
  6 16  1  0
  7 17  1  0
  7 18  1  0
  8 19  1  0
  9 20  1  0
  9 21  1  0
M  END
