
     RDKit          3D

 18 20  0  0  0  0  0  0  0  0999 V2000
   -1.5608    0.7634   -0.0665 C   0  0  0  0  0  0  0  0  0  0  0  0
   -1.3389   -0.7248   -0.3772 C   0  0  0  0  0  0  0  0  0  0  0  0
    0.1272   -0.9091   -0.4992 C   0  0  0  0  0  0  0  0  0  0  0  0
    0.7850   -0.7838    0.8822 C   0  0  0  0  0  0  0  0  0  0  0  0
    1.8641    0.0245    0.1518 C   0  0  0  0  0  0  0  0  0  0  0  0
    0.6780    0.5210   -0.6246 C   0  0  0  0  0  0  0  0  0  0  0  0
   -0.1862    1.1212    0.4454 C   0  0  0  0  0  0  0  0  0  0  0  0
    0.0739    0.2083    1.4996 O   0  0  0  0  0  0  0  0  0  0  0  0
   -1.7365    1.2343   -1.0696 H   0  0  0  0  0  0  0  0  0  0  0  0
   -2.3636    0.9257    0.6456 H   0  0  0  0  0  0  0  0  0  0  0  0
   -1.6680   -1.2523    0.5655 H   0  0  0  0  0  0  0  0  0  0  0  0
   -1.9426   -1.0709   -1.2099 H   0  0  0  0  0  0  0  0  0  0  0  0
    0.5392   -1.6369   -1.1614 H   0  0  0  0  0  0  0  0  0  0  0  0
    1.0759   -1.6703    1.3753 H   0  0  0  0  0  0  0  0  0  0  0  0
    2.5351   -0.6117   -0.4634 H   0  0  0  0  0  0  0  0  0  0  0  0
    2.3666    0.7734    0.7905 H   0  0  0  0  0  0  0  0  0  0  0  0
    0.7712    0.9445   -1.5763 H   0  0  0  0  0  0  0  0  0  0  0  0
   -0.0197    2.1434    0.6922 H   0  0  0  0  0  0  0  0  0  0  0  0
  1  2  1  0
  2  3  1  0
  3  4  1  0
  4  5  1  0
  5  6  1  0
  6  7  1  0
  7  8  1  0
  7  1  1  0
  6  3  1  0
  8  4  1  0
  1  9  1  0
  1 10  1  0
  2 11  1  0
  2 12  1  0
  3 13  1  0
  4 14  1  0
  5 15  1  0
  5 16  1  0
  6 17  1  0
  7 18  1  0
M  END
