
     RDKit          3D

 20 22  0  0  0  0  0  0  0  0999 V2000
    0.6076    1.1874    0.6192 C   0  0  0  0  0  0  0  0  0  0  0  0
   -0.8029    1.4372    0.2002 C   0  0  0  0  0  0  0  0  0  0  0  0
   -1.5430    0.1624   -0.0415 C   0  0  0  0  0  0  0  0  0  0  0  0
   -1.2205   -1.0550    0.7564 C   0  0  0  0  0  0  0  0  0  0  0  0
   -0.8121   -0.9203   -0.6703 C   0  0  0  0  0  0  0  0  0  0  0  0
    0.5944   -0.6803   -1.0631 C   0  0  0  0  0  0  0  0  0  0  0  0
    1.7255   -0.9576   -0.1109 C   0  0  0  0  0  0  0  0  0  0  0  0
    1.3002    0.4283   -0.4587 C   0  0  0  0  0  0  0  0  0  0  0  0
    1.1217    2.1610    0.8058 H   0  0  0  0  0  0  0  0  0  0  0  0
    0.6513    0.6574    1.6144 H   0  0  0  0  0  0  0  0  0  0  0  0
   -1.3140    1.9654    1.0461 H   0  0  0  0  0  0  0  0  0  0  0  0
   -0.7732    2.0804   -0.7107 H   0  0  0  0  0  0  0  0  0  0  0  0
   -2.6180    0.3318   -0.3437 H   0  0  0  0  0  0  0  0  0  0  0  0
   -2.1045   -1.6806    1.0225 H   0  0  0  0  0  0  0  0  0  0  0  0
   -0.4517   -1.0562    1.5390 H   0  0  0  0  0  0  0  0  0  0  0  0
   -1.4053   -1.5855   -1.3604 H   0  0  0  0  0  0  0  0  0  0  0  0
    0.8627   -0.9315   -2.1277 H   0  0  0  0  0  0  0  0  0  0  0  0
    2.7190   -1.2545   -0.5022 H   0  0  0  0  0  0  0  0  0  0  0  0
    1.5072   -1.3491    0.9039 H   0  0  0  0  0  0  0  0  0  0  0  0
    1.9557    1.0592   -1.1185 H   0  0  0  0  0  0  0  0  0  0  0  0
  1  2  1  0
  2  3  1  0
  3  4  1  0
  4  5  1  0
  5  6  1  0
  6  7  1  0
  7  8  1  0
  8  1  1  0
  5  3  1  0
  8  6  1  0
  1  9  1  0
  1 10  1  0
  2 11  1  0
  2 12  1  0
  3 13  1  0
  4 14  1  0
  4 15  1  0
  5 16  1  0
  6 17  1  0
  7 18  1  0
  7 19  1  0
  8 20  1  0
M  END
