
     RDKit          3D

 23 25  0  0  0  0  0  0  0  0999 V2000
   -2.9697   -0.4178   -0.4269 C   0  0  0  0  0  0  0  0  0  0  0  0
   -2.5676    0.4509    0.7167 C   0  0  0  0  0  0  0  0  0  0  0  0
   -1.5998    0.2528   -0.4491 C   0  0  0  0  0  0  0  0  0  0  0  0
   -0.4620   -0.7020   -0.2980 C   0  0  0  0  0  0  0  0  0  0  0  0
    0.8858   -0.0989   -0.3134 C   0  0  0  0  0  0  0  0  0  0  0  0
    2.0280   -1.0670   -0.1606 C   0  0  0  0  0  0  0  0  0  0  0  0
    2.7131   -0.0608    0.7569 C   0  0  0  0  0  0  0  0  0  0  0  0
    1.4578    0.7561    0.6998 C   0  0  0  0  0  0  0  0  0  0  0  0
    1.1629    1.3016   -0.6864 C   0  0  0  0  0  0  0  0  0  0  0  0
   -3.0446   -1.4858   -0.2015 H   0  0  0  0  0  0  0  0  0  0  0  0
   -3.7448   -0.0600   -1.1330 H   0  0  0  0  0  0  0  0  0  0  0  0
   -2.2252   -0.0256    1.6421 H   0  0  0  0  0  0  0  0  0  0  0  0
   -3.1068    1.3922    0.8191 H   0  0  0  0  0  0  0  0  0  0  0  0
   -1.5335    1.1394   -1.0900 H   0  0  0  0  0  0  0  0  0  0  0  0
   -0.5225   -1.4170   -1.1685 H   0  0  0  0  0  0  0  0  0  0  0  0
   -0.6750   -1.3449    0.5956 H   0  0  0  0  0  0  0  0  0  0  0  0
    2.5242   -1.2284   -1.1267 H   0  0  0  0  0  0  0  0  0  0  0  0
    1.7953   -1.9808    0.4217 H   0  0  0  0  0  0  0  0  0  0  0  0
    3.0065   -0.4494    1.7346 H   0  0  0  0  0  0  0  0  0  0  0  0
    3.5378    0.4336    0.1870 H   0  0  0  0  0  0  0  0  0  0  0  0
    0.9803    1.1648    1.5753 H   0  0  0  0  0  0  0  0  0  0  0  0
    2.0208    1.4336   -1.3929 H   0  0  0  0  0  0  0  0  0  0  0  0
    0.3392    2.0133   -0.7019 H   0  0  0  0  0  0  0  0  0  0  0  0
  1  2  1  0
  2  3  1  0
  3  4  1  0
  4  5  1  0
  5  6  1  0
  6  7  1  0
  7  8  1  0
  8  9  1  0
  3  1  1  0
  8  5  1  0
  9  5  1  0
  1 10  1  0
  1 11  1  0
  2 12  1  0
  2 13  1  0
  3 14  1  0
  4 15  1  0
  4 16  1  0
  6 17  1  0
  6 18  1  0
  7 19  1  0
  7 20  1  0
  8 21  1  0
  9 22  1  0
  9 23  1  0
M  END
