
     RDKit          3D

 19 21  0  0  0  0  0  0  0  0999 V2000
   -1.9985    0.2075   -0.0312 C   0  0  0  0  0  0  0  0  0  0  0  0
   -1.2041   -0.9113   -0.7217 C   0  0  0  0  0  0  0  0  0  0  0  0
    0.1294   -0.2848   -0.8701 C   0  0  0  0  0  0  0  0  0  0  0  0
    1.2062   -1.1205   -0.9025 O   0  0  0  0  0  0  0  0  0  0  0  0
    2.2913   -0.4439   -0.2919 C   0  0  0  0  0  0  0  0  0  0  0  0
    1.5860    0.3775    0.8036 C   0  0  0  0  0  0  0  0  0  0  0  0
    0.7013   -0.5895    1.5327 O   0  0  0  0  0  0  0  0  0  0  0  0
    0.2794    0.3053    0.5470 C   0  0  0  0  0  0  0  0  0  0  0  0
   -0.9560    1.0542    0.6996 C   0  0  0  0  0  0  0  0  0  0  0  0
   -2.7123   -0.2026    0.7025 H   0  0  0  0  0  0  0  0  0  0  0  0
   -2.4931    0.7727   -0.8377 H   0  0  0  0  0  0  0  0  0  0  0  0
   -1.6639   -1.2400   -1.6475 H   0  0  0  0  0  0  0  0  0  0  0  0
   -1.1438   -1.7264    0.0162 H   0  0  0  0  0  0  0  0  0  0  0  0
    0.1707    0.5573   -1.5733 H   0  0  0  0  0  0  0  0  0  0  0  0
    3.0157   -1.1460    0.1299 H   0  0  0  0  0  0  0  0  0  0  0  0
    2.7286    0.2915   -0.9915 H   0  0  0  0  0  0  0  0  0  0  0  0
    2.2188    0.8509    1.5638 H   0  0  0  0  0  0  0  0  0  0  0  0
   -0.8811    2.0226    0.1263 H   0  0  0  0  0  0  0  0  0  0  0  0
   -1.2746    1.2253    1.7456 H   0  0  0  0  0  0  0  0  0  0  0  0
  1  2  1  0
  2  3  1  0
  3  4  1  0
  4  5  1  0
  5  6  1  0
  6  7  1  0
  7  8  1  0
  8  9  1  0
  9  1  1  0
  8  3  1  0
  8  6  1  0
  1 10  1  0
  1 11  1  0
  2 12  1  0
  2 13  1  0
  3 14  1  0
  5 15  1  0
  5 16  1  0
  6 17  1  0
  9 18  1  0
  9 19  1  0
M  END
