
     RDKit          3D

 19 21  0  0  0  0  0  0  0  0999 V2000
    2.1172   -0.5342    0.5213 C   0  0  0  0  0  0  0  0  0  0  0  0
    1.8146    0.7457   -0.2606 C   0  0  0  0  0  0  0  0  0  0  0  0
    0.3763    0.5110   -0.6542 C   0  0  0  0  0  0  0  0  0  0  0  0
   -0.7162    0.9042    0.2454 C   0  0  0  0  0  0  0  0  0  0  0  0
   -2.1188    0.6707   -0.3105 C   0  0  0  0  0  0  0  0  0  0  0  0
   -2.2158   -0.6618   -0.6141 O   0  0  0  0  0  0  0  0  0  0  0  0
   -1.2825   -1.3657    0.0829 C   0  0  0  0  0  0  0  0  0  0  0  0
   -0.0917   -0.5167    0.2663 C   0  0  0  0  0  0  0  0  0  0  0  0
    0.8876   -0.7826    1.1758 O   0  0  0  0  0  0  0  0  0  0  0  0
    2.3579   -1.3192   -0.2103 H   0  0  0  0  0  0  0  0  0  0  0  0
    2.9333   -0.3580    1.2497 H   0  0  0  0  0  0  0  0  0  0  0  0
    1.8204    1.6375    0.4052 H   0  0  0  0  0  0  0  0  0  0  0  0
    2.4456    0.8526   -1.1454 H   0  0  0  0  0  0  0  0  0  0  0  0
    0.1598    0.4980   -1.7413 H   0  0  0  0  0  0  0  0  0  0  0  0
   -0.5878    1.4065    1.2014 H   0  0  0  0  0  0  0  0  0  0  0  0
   -2.2181    1.2331   -1.2866 H   0  0  0  0  0  0  0  0  0  0  0  0
   -2.8469    1.0514    0.4049 H   0  0  0  0  0  0  0  0  0  0  0  0
   -1.1015   -2.3435   -0.4119 H   0  0  0  0  0  0  0  0  0  0  0  0
   -1.7333   -1.6291    1.0819 H   0  0  0  0  0  0  0  0  0  0  0  0
  1  2  1  0
  2  3  1  0
  3  4  1  0
  4  5  1  0
  5  6  1  0
  6  7  1  0
  7  8  1  0
  8  9  1  0
  9  1  1  0
  8  3  1  0
  8  4  1  0
  1 10  1  0
  1 11  1  0
  2 12  1  0
  2 13  1  0
  3 14  1  0
  4 15  1  0
  5 16  1  0
  5 17  1  0
  7 18  1  0
  7 19  1  0
M  END
