
     RDKit          3D

 21 23  0  0  0  0  0  0  0  0999 V2000
   -0.9296   -1.2885    0.5114 C   0  0  0  0  0  0  0  0  0  0  0  0
   -1.6891   -0.0762    0.2106 C   0  0  0  0  0  0  0  0  0  0  0  0
   -0.9573    1.1743   -0.0772 C   0  0  0  0  0  0  0  0  0  0  0  0
    0.2729    1.2885    0.8351 C   0  0  0  0  0  0  0  0  0  0  0  0
    1.0313    0.1031    0.2329 C   0  0  0  0  0  0  0  0  0  0  0  0
    0.5253   -1.1187    0.8559 C   0  0  0  0  0  0  0  0  0  0  0  0
    2.0066    0.3004   -0.7856 C   0  0  0  0  0  0  0  0  0  0  0  0
    0.6503    0.1832   -1.2816 C   0  0  0  0  0  0  0  0  0  0  0  0
   -0.2945    1.1574   -1.3266 O   0  0  0  0  0  0  0  0  0  0  0  0
   -1.0149   -2.0583   -0.3106 H   0  0  0  0  0  0  0  0  0  0  0  0
   -1.3979   -1.8058    1.4004 H   0  0  0  0  0  0  0  0  0  0  0  0
   -2.3439   -0.2782   -0.6915 H   0  0  0  0  0  0  0  0  0  0  0  0
   -2.4418    0.1557    1.0211 H   0  0  0  0  0  0  0  0  0  0  0  0
   -1.6056    2.0416   -0.0093 H   0  0  0  0  0  0  0  0  0  0  0  0
    0.8423    2.1974    0.6534 H   0  0  0  0  0  0  0  0  0  0  0  0
   -0.0205    1.1077    1.8697 H   0  0  0  0  0  0  0  0  0  0  0  0
    1.1023   -1.9983    0.4583 H   0  0  0  0  0  0  0  0  0  0  0  0
    0.6865   -1.1572    1.9607 H   0  0  0  0  0  0  0  0  0  0  0  0
    2.4795    1.3218   -0.8601 H   0  0  0  0  0  0  0  0  0  0  0  0
    2.7238   -0.4923   -1.0324 H   0  0  0  0  0  0  0  0  0  0  0  0
    0.3743   -0.7574   -1.7908 H   0  0  0  0  0  0  0  0  0  0  0  0
  1  2  1  0
  2  3  1  0
  3  4  1  0
  4  5  1  0
  5  6  1  0
  5  7  1  0
  7  8  1  0
  8  9  1  0
  6  1  1  0
  9  3  1  0
  8  5  1  0
  1 10  1  0
  1 11  1  0
  2 12  1  0
  2 13  1  0
  3 14  1  0
  4 15  1  0
  4 16  1  0
  6 17  1  0
  6 18  1  0
  7 19  1  0
  7 20  1  0
  8 21  1  0
M  END
