
     RDKit          3D

 13 13  0  0  0  0  0  0  0  0999 V2000
   -0.8728    0.6104   -0.0825 C   0  0  0  0  0  0  0  0  0  0  0  0
    0.6005    0.8480   -0.2484 C   0  0  0  0  0  0  0  0  0  0  0  0
    1.1992   -0.4312    0.2815 C   0  0  0  0  0  0  0  0  0  0  0  0
    0.3257   -1.3881   -0.1635 O   0  0  0  0  0  0  0  0  0  0  0  0
   -0.9660   -0.8859   -0.0240 C   0  0  0  0  0  0  0  0  0  0  0  0
   -1.4371    1.0410   -0.9327 H   0  0  0  0  0  0  0  0  0  0  0  0
   -1.2804    1.1052    0.8373 H   0  0  0  0  0  0  0  0  0  0  0  0
    0.8893    1.7402    0.3213 H   0  0  0  0  0  0  0  0  0  0  0  0
    0.8871    0.9158   -1.3194 H   0  0  0  0  0  0  0  0  0  0  0  0
    2.1949   -0.6459   -0.1913 H   0  0  0  0  0  0  0  0  0  0  0  0
    1.3555   -0.4214    1.3736 H   0  0  0  0  0  0  0  0  0  0  0  0
   -1.5857   -1.3226   -0.8380 H   0  0  0  0  0  0  0  0  0  0  0  0
   -1.3102   -1.1655    0.9861 H   0  0  0  0  0  0  0  0  0  0  0  0
  1  2  1  0
  2  3  1  0
  3  4  1  0
  4  5  1  0
  5  1  1  0
  1  6  1  0
  1  7  1  0
  2  8  1  0
  2  9  1  0
  3 10  1  0
  3 11  1  0
  5 12  1  0
  5 13  1  0
M  END
