
     RDKit          3D

 21 22  0  0  0  0  0  0  0  0999 V2000
    2.9241    0.5041   -0.1880 C   0  0  0  0  0  0  0  0  0  0  0  0
    2.2565   -0.4677    0.7411 C   0  0  0  0  0  0  0  0  0  0  0  0
    1.0196    0.2655    0.2821 C   0  0  0  0  0  0  0  0  0  0  0  0
   -0.1420   -0.6273   -0.0804 C   0  0  0  0  0  0  0  0  0  0  0  0
   -1.2991    0.2232   -0.5169 C   0  0  0  0  0  0  0  0  0  0  0  0
   -2.5418   -0.5019   -0.9147 C   0  0  0  0  0  0  0  0  0  0  0  0
   -3.2780    0.5409   -0.3179 O   0  0  0  0  0  0  0  0  0  0  0  0
   -2.2196    0.6803    0.5783 C   0  0  0  0  0  0  0  0  0  0  0  0
    1.7313    0.6837   -0.8665 O   0  0  0  0  0  0  0  0  0  0  0  0
    3.7170    0.0645   -0.8024 H   0  0  0  0  0  0  0  0  0  0  0  0
    3.2818    1.4123    0.3613 H   0  0  0  0  0  0  0  0  0  0  0  0
    2.3016   -1.5201    0.3845 H   0  0  0  0  0  0  0  0  0  0  0  0
    2.4414   -0.3205    1.8123 H   0  0  0  0  0  0  0  0  0  0  0  0
    0.6862    1.0976    0.9020 H   0  0  0  0  0  0  0  0  0  0  0  0
   -0.3814   -1.3017    0.7675 H   0  0  0  0  0  0  0  0  0  0  0  0
    0.1734   -1.2567   -0.9434 H   0  0  0  0  0  0  0  0  0  0  0  0
   -0.9587    1.0128   -1.1995 H   0  0  0  0  0  0  0  0  0  0  0  0
   -2.6938   -0.6018   -2.0069 H   0  0  0  0  0  0  0  0  0  0  0  0
   -2.6845   -1.4399   -0.3409 H   0  0  0  0  0  0  0  0  0  0  0  0
   -2.2795   -0.1274    1.3611 H   0  0  0  0  0  0  0  0  0  0  0  0
   -2.0548    1.6801    0.9872 H   0  0  0  0  0  0  0  0  0  0  0  0
  1  2  1  0
  2  3  1  0
  3  4  1  0
  4  5  1  0
  5  6  1  0
  6  7  1  0
  7  8  1  0
  3  9  1  0
  9  1  1  0
  8  5  1  0
  1 10  1  0
  1 11  1  0
  2 12  1  0
  2 13  1  0
  3 14  1  0
  4 15  1  0
  4 16  1  0
  5 17  1  0
  6 18  1  0
  6 19  1  0
  8 20  1  0
  8 21  1  0
M  END
