
     RDKit          3D

 21 23  0  0  0  0  0  0  0  0999 V2000
   -1.4291    1.3918   -0.3330 C   0  0  0  0  0  0  0  0  0  0  0  0
   -0.1422    1.2824    0.4397 C   0  0  0  0  0  0  0  0  0  0  0  0
    0.1225   -0.0307   -0.2457 C   0  0  0  0  0  0  0  0  0  0  0  0
    1.3964   -0.1430   -0.9623 C   0  0  0  0  0  0  0  0  0  0  0  0
    2.6909    0.0094   -0.2886 C   0  0  0  0  0  0  0  0  0  0  0  0
    2.1341   -1.3488   -0.4959 O   0  0  0  0  0  0  0  0  0  0  0  0
   -0.3607   -1.2462    0.4665 C   0  0  0  0  0  0  0  0  0  0  0  0
   -1.7179   -1.0565   -0.1707 C   0  0  0  0  0  0  0  0  0  0  0  0
   -1.1552    0.0787   -0.9722 C   0  0  0  0  0  0  0  0  0  0  0  0
   -1.4638    2.2520   -1.0554 H   0  0  0  0  0  0  0  0  0  0  0  0
   -2.2956    1.3665    0.3786 H   0  0  0  0  0  0  0  0  0  0  0  0
   -0.2685    1.0911    1.5427 H   0  0  0  0  0  0  0  0  0  0  0  0
    0.5723    2.0691    0.1876 H   0  0  0  0  0  0  0  0  0  0  0  0
    1.4262   -0.1689   -2.0724 H   0  0  0  0  0  0  0  0  0  0  0  0
    2.8091    0.2122    0.7754 H   0  0  0  0  0  0  0  0  0  0  0  0
    3.6040    0.1829   -0.9249 H   0  0  0  0  0  0  0  0  0  0  0  0
   -0.3188   -1.1094    1.5569 H   0  0  0  0  0  0  0  0  0  0  0  0
    0.1425   -2.1557    0.0654 H   0  0  0  0  0  0  0  0  0  0  0  0
   -2.0964   -1.9225   -0.7389 H   0  0  0  0  0  0  0  0  0  0  0  0
   -2.4691   -0.7570    0.5954 H   0  0  0  0  0  0  0  0  0  0  0  0
   -1.1808    0.0024   -2.0503 H   0  0  0  0  0  0  0  0  0  0  0  0
  1  2  1  0
  2  3  1  0
  3  4  1  0
  4  5  1  0
  5  6  1  0
  3  7  1  0
  7  8  1  0
  8  9  1  0
  9  1  1  0
  9  3  1  0
  6  4  1  0
  1 10  1  0
  1 11  1  0
  2 12  1  0
  2 13  1  0
  4 14  1  0
  5 15  1  0
  5 16  1  0
  7 17  1  0
  7 18  1  0
  8 19  1  0
  8 20  1  0
  9 21  1  0
M  END
