
     RDKit          3D

 23 25  0  0  0  0  0  0  0  0999 V2000
   -1.6889    0.0569   -0.6229 C   0  0  0  0  0  0  0  0  0  0  0  0
   -1.2752   -1.3298   -0.2605 C   0  0  0  0  0  0  0  0  0  0  0  0
   -0.0667   -1.0944    0.6576 C   0  0  0  0  0  0  0  0  0  0  0  0
   -0.4932    0.1246    1.4039 C   0  0  0  0  0  0  0  0  0  0  0  0
   -0.9485    1.0227    0.2453 C   0  0  0  0  0  0  0  0  0  0  0  0
    0.3343    1.5190   -0.4015 C   0  0  0  0  0  0  0  0  0  0  0  0
    1.1993    0.4249   -0.8968 C   0  0  0  0  0  0  0  0  0  0  0  0
    2.2748   -0.0888    0.1043 C   0  0  0  0  0  0  0  0  0  0  0  0
    1.1002   -0.8730   -0.2572 C   0  0  0  0  0  0  0  0  0  0  0  0
   -2.7832    0.1517   -0.3724 H   0  0  0  0  0  0  0  0  0  0  0  0
   -1.5736    0.2843   -1.7016 H   0  0  0  0  0  0  0  0  0  0  0  0
   -2.0466   -1.9029    0.2918 H   0  0  0  0  0  0  0  0  0  0  0  0
   -0.9267   -1.8703   -1.1640 H   0  0  0  0  0  0  0  0  0  0  0  0
    0.1305   -1.9585    1.3012 H   0  0  0  0  0  0  0  0  0  0  0  0
    0.2805    0.5962    2.0063 H   0  0  0  0  0  0  0  0  0  0  0  0
   -1.4169   -0.1190    1.9628 H   0  0  0  0  0  0  0  0  0  0  0  0
   -1.5252    1.8800    0.5893 H   0  0  0  0  0  0  0  0  0  0  0  0
    0.8935    2.0531    0.4222 H   0  0  0  0  0  0  0  0  0  0  0  0
    0.1383    2.3010   -1.1624 H   0  0  0  0  0  0  0  0  0  0  0  0
    1.5314    0.5174   -1.9482 H   0  0  0  0  0  0  0  0  0  0  0  0
    3.2487   -0.3303   -0.3586 H   0  0  0  0  0  0  0  0  0  0  0  0
    2.3172    0.3984    1.0845 H   0  0  0  0  0  0  0  0  0  0  0  0
    1.2964   -1.7632   -0.9231 H   0  0  0  0  0  0  0  0  0  0  0  0
  1  2  1  0
  2  3  1  0
  3  4  1  0
  4  5  1  0
  5  6  1  0
  6  7  1  0
  7  8  1  0
  8  9  1  0
  5  1  1  0
  9  7  1  0
  9  3  1  0
  1 10  1  0
  1 11  1  0
  2 12  1  0
  2 13  1  0
  3 14  1  0
  4 15  1  0
  4 16  1  0
  5 17  1  0
  6 18  1  0
  6 19  1  0
  7 20  1  0
  8 21  1  0
  8 22  1  0
  9 23  1  0
M  END
