
     RDKit          3D

 19 22  0  0  0  0  0  0  0  0999 V2000
   -1.9928   -0.7073    0.3738 C   0  0  0  0  0  0  0  0  0  0  0  0
   -1.9581    0.6446    0.0286 C   0  0  0  0  0  0  0  0  0  0  0  0
   -0.7274   -0.0508    0.0848 C   0  0  0  0  0  0  0  0  0  0  0  0
    0.1574   -1.0908   -0.3028 C   0  0  0  0  0  0  0  0  0  0  0  0
   -0.1846   -0.9122   -1.6384 O   0  0  0  0  0  0  0  0  0  0  0  0
    0.0392    0.3447   -1.0946 C   0  0  0  0  0  0  0  0  0  0  0  0
    1.2594   -0.1227   -0.5050 C   0  0  0  0  0  0  0  0  0  0  0  0
    2.1221   -0.2791    0.5984 C   0  0  0  0  0  0  0  0  0  0  0  0
    1.7294    1.0282    0.2831 C   0  0  0  0  0  0  0  0  0  0  0  0
   -2.4982   -1.4468   -0.3074 H   0  0  0  0  0  0  0  0  0  0  0  0
   -2.0929   -1.0351    1.4376 H   0  0  0  0  0  0  0  0  0  0  0  0
   -2.5418    0.9821   -0.8802 H   0  0  0  0  0  0  0  0  0  0  0  0
   -2.1128    1.4245    0.8374 H   0  0  0  0  0  0  0  0  0  0  0  0
    0.2821   -2.0516    0.0910 H   0  0  0  0  0  0  0  0  0  0  0  0
   -0.0894    1.2101   -1.6753 H   0  0  0  0  0  0  0  0  0  0  0  0
    1.9062   -0.6502    1.6456 H   0  0  0  0  0  0  0  0  0  0  0  0
    3.1800   -0.6022    0.3459 H   0  0  0  0  0  0  0  0  0  0  0  0
    2.4043    1.6985   -0.3165 H   0  0  0  0  0  0  0  0  0  0  0  0
    1.1180    1.6161    0.9940 H   0  0  0  0  0  0  0  0  0  0  0  0
  1  2  1  0
  2  3  1  0
  3  4  1  0
  4  5  1  0
  5  6  1  0
  6  7  1  0
  7  8  1  0
  8  9  1  0
  3  1  1  0
  7  4  1  0
  6  3  1  0
  9  7  1  0
  1 10  1  0
  1 11  1  0
  2 12  1  0
  2 13  1  0
  4 14  1  0
  6 15  1  0
  8 16  1  0
  8 17  1  0
  9 18  1  0
  9 19  1  0
M  END
