
     RDKit          3D

 19 21  0  0  0  0  0  0  0  0999 V2000
    1.8659   -0.2241    0.5212 C   0  0  0  0  0  0  0  0  0  0  0  0
    1.0692    1.0728    0.3602 C   0  0  0  0  0  0  0  0  0  0  0  0
    0.1889    0.8797   -0.8311 C   0  0  0  0  0  0  0  0  0  0  0  0
   -1.2151    0.4944   -0.7783 C   0  0  0  0  0  0  0  0  0  0  0  0
   -1.9418    0.0536    0.4302 C   0  0  0  0  0  0  0  0  0  0  0  0
   -0.9785   -0.3641    1.3071 O   0  0  0  0  0  0  0  0  0  0  0  0
   -0.1607   -1.1713    0.5151 C   0  0  0  0  0  0  0  0  0  0  0  0
    1.0905   -1.1912    1.1449 O   0  0  0  0  0  0  0  0  0  0  0  0
   -0.1266   -0.6070   -0.8542 C   0  0  0  0  0  0  0  0  0  0  0  0
    2.8342   -0.0578    0.9863 H   0  0  0  0  0  0  0  0  0  0  0  0
    2.0671   -0.6236   -0.5156 H   0  0  0  0  0  0  0  0  0  0  0  0
    1.8546    1.8567    0.1450 H   0  0  0  0  0  0  0  0  0  0  0  0
    0.5722    1.3835    1.2716 H   0  0  0  0  0  0  0  0  0  0  0  0
    0.5830    1.2664   -1.7698 H   0  0  0  0  0  0  0  0  0  0  0  0
   -1.8259    0.6660   -1.6728 H   0  0  0  0  0  0  0  0  0  0  0  0
   -2.6641    0.7768    0.8406 H   0  0  0  0  0  0  0  0  0  0  0  0
   -2.5522   -0.8536    0.1535 H   0  0  0  0  0  0  0  0  0  0  0  0
   -0.6288   -2.1737    0.5022 H   0  0  0  0  0  0  0  0  0  0  0  0
   -0.0318   -1.1835   -1.7561 H   0  0  0  0  0  0  0  0  0  0  0  0
  1  2  1  0
  2  3  1  0
  3  4  1  0
  4  5  1  0
  5  6  1  0
  6  7  1  0
  7  8  1  0
  7  9  1  0
  8  1  1  0
  9  3  1  0
  9  4  1  0
  1 10  1  0
  1 11  1  0
  2 12  1  0
  2 13  1  0
  3 14  1  0
  4 15  1  0
  5 16  1  0
  5 17  1  0
  7 18  1  0
  9 19  1  0
M  END
