
     RDKit          3D

 23 24  0  0  0  0  0  0  0  0999 V2000
   -2.2042   -0.3786   -0.2283 C   0  0  0  0  0  0  0  0  0  0  0  0
   -1.1329   -1.4392   -0.3129 C   0  0  0  0  0  0  0  0  0  0  0  0
    0.1429   -0.6865   -0.5385 C   0  0  0  0  0  0  0  0  0  0  0  0
    1.1294   -0.8740    0.6219 C   0  0  0  0  0  0  0  0  0  0  0  0
    2.3686   -0.0909    0.2069 C   0  0  0  0  0  0  0  0  0  0  0  0
    2.1280    1.2260   -0.0331 O   0  0  0  0  0  0  0  0  0  0  0  0
    0.8411    1.6484    0.0737 C   0  0  0  0  0  0  0  0  0  0  0  0
   -0.1892    0.7808   -0.5512 C   0  0  0  0  0  0  0  0  0  0  0  0
   -1.4218    0.8022    0.3630 C   0  0  0  0  0  0  0  0  0  0  0  0
   -2.5143   -0.0724   -1.2474 H   0  0  0  0  0  0  0  0  0  0  0  0
   -3.0471   -0.6549    0.4150 H   0  0  0  0  0  0  0  0  0  0  0  0
   -1.3325   -2.0386   -1.2239 H   0  0  0  0  0  0  0  0  0  0  0  0
   -1.1040   -2.0945    0.5792 H   0  0  0  0  0  0  0  0  0  0  0  0
    0.6434   -0.9386   -1.4811 H   0  0  0  0  0  0  0  0  0  0  0  0
    1.3884   -1.9152    0.7861 H   0  0  0  0  0  0  0  0  0  0  0  0
    0.6876   -0.3653    1.5064 H   0  0  0  0  0  0  0  0  0  0  0  0
    3.1389   -0.2756    0.9922 H   0  0  0  0  0  0  0  0  0  0  0  0
    2.7184   -0.5486   -0.7655 H   0  0  0  0  0  0  0  0  0  0  0  0
    0.6149    1.8898    1.1539 H   0  0  0  0  0  0  0  0  0  0  0  0
    0.7804    2.6567   -0.4350 H   0  0  0  0  0  0  0  0  0  0  0  0
   -0.5189    1.0873   -1.5457 H   0  0  0  0  0  0  0  0  0  0  0  0
   -1.1445    0.5486    1.4108 H   0  0  0  0  0  0  0  0  0  0  0  0
   -1.9726    1.7333    0.2534 H   0  0  0  0  0  0  0  0  0  0  0  0
  1  2  1  0
  2  3  1  0
  3  4  1  0
  4  5  1  0
  5  6  1  0
  6  7  1  0
  7  8  1  0
  8  9  1  0
  9  1  1  0
  8  3  1  0
  1 10  1  0
  1 11  1  0
  2 12  1  0
  2 13  1  0
  3 14  1  0
  4 15  1  0
  4 16  1  0
  5 17  1  0
  5 18  1  0
  7 19  1  0
  7 20  1  0
  8 21  1  0
  9 22  1  0
  9 23  1  0
M  END
