
     RDKit          3D

 21 23  0  0  0  0  0  0  0  0999 V2000
    0.8447    1.5038   -0.0314 C   0  0  0  0  0  0  0  0  0  0  0  0
   -0.5001    1.3047    0.5391 C   0  0  0  0  0  0  0  0  0  0  0  0
   -0.9930   -0.0601    0.7105 C   0  0  0  0  0  0  0  0  0  0  0  0
   -1.7578   -0.5274   -0.5383 C   0  0  0  0  0  0  0  0  0  0  0  0
   -0.4127   -1.0973   -1.0106 C   0  0  0  0  0  0  0  0  0  0  0  0
    0.4273   -0.1895   -1.5850 O   0  0  0  0  0  0  0  0  0  0  0  0
    1.3719    0.2222   -0.6914 C   0  0  0  0  0  0  0  0  0  0  0  0
    1.3861   -0.7790    0.4586 C   0  0  0  0  0  0  0  0  0  0  0  0
   -0.0595   -1.1758    0.4760 C   0  0  0  0  0  0  0  0  0  0  0  0
    0.9154    2.2964   -0.8142 H   0  0  0  0  0  0  0  0  0  0  0  0
    1.5745    1.8023    0.7594 H   0  0  0  0  0  0  0  0  0  0  0  0
   -1.2350    1.8830   -0.0950 H   0  0  0  0  0  0  0  0  0  0  0  0
   -0.5419    1.8342    1.5355 H   0  0  0  0  0  0  0  0  0  0  0  0
   -1.5877   -0.2239    1.6537 H   0  0  0  0  0  0  0  0  0  0  0  0
   -2.1446    0.2953   -1.1383 H   0  0  0  0  0  0  0  0  0  0  0  0
   -2.4502   -1.3380   -0.2619 H   0  0  0  0  0  0  0  0  0  0  0  0
   -0.5583   -2.0654   -1.4968 H   0  0  0  0  0  0  0  0  0  0  0  0
    2.3719    0.3658   -1.0975 H   0  0  0  0  0  0  0  0  0  0  0  0
    1.6416   -0.3005    1.4123 H   0  0  0  0  0  0  0  0  0  0  0  0
    2.0284   -1.6329    0.2707 H   0  0  0  0  0  0  0  0  0  0  0  0
   -0.3210   -2.1181    0.9446 H   0  0  0  0  0  0  0  0  0  0  0  0
  1  2  1  0
  2  3  1  0
  3  4  1  0
  4  5  1  0
  5  6  1  0
  6  7  1  0
  7  8  1  0
  8  9  1  0
  7  1  1  0
  9  3  1  0
  9  5  1  0
  1 10  1  0
  1 11  1  0
  2 12  1  0
  2 13  1  0
  3 14  1  0
  4 15  1  0
  4 16  1  0
  5 17  1  0
  7 18  1  0
  8 19  1  0
  8 20  1  0
  9 21  1  0
M  END
