
     RDKit          3D

 21 24  0  0  0  0  0  0  0  0999 V2000
    1.9772    0.2455    0.3296 C   0  0  0  0  0  0  0  0  0  0  0  0
    0.8556    1.3016    0.4496 C   0  0  0  0  0  0  0  0  0  0  0  0
   -0.3357    0.8500   -0.1390 C   0  0  0  0  0  0  0  0  0  0  0  0
   -1.3870    0.7362    0.9320 C   0  0  0  0  0  0  0  0  0  0  0  0
   -1.6057    0.2235   -0.3170 C   0  0  0  0  0  0  0  0  0  0  0  0
   -1.4239   -1.2985   -0.5540 C   0  0  0  0  0  0  0  0  0  0  0  0
    0.0008   -1.4161   -0.0861 C   0  0  0  0  0  0  0  0  0  0  0  0
    1.2909   -0.9192   -0.4405 C   0  0  0  0  0  0  0  0  0  0  0  0
    0.2762   -0.1870   -1.0226 C   0  0  0  0  0  0  0  0  0  0  0  0
    2.2123   -0.1973    1.3187 H   0  0  0  0  0  0  0  0  0  0  0  0
    2.8467    0.6044   -0.2128 H   0  0  0  0  0  0  0  0  0  0  0  0
    1.2725    2.1996   -0.1057 H   0  0  0  0  0  0  0  0  0  0  0  0
    0.9191    1.6335    1.5191 H   0  0  0  0  0  0  0  0  0  0  0  0
   -1.7737    1.7781    1.1774 H   0  0  0  0  0  0  0  0  0  0  0  0
   -1.2087    0.2039    1.8812 H   0  0  0  0  0  0  0  0  0  0  0  0
   -2.2959    0.6546   -1.0864 H   0  0  0  0  0  0  0  0  0  0  0  0
   -2.0814   -1.9067    0.0386 H   0  0  0  0  0  0  0  0  0  0  0  0
   -1.5571   -1.5367   -1.6171 H   0  0  0  0  0  0  0  0  0  0  0  0
   -0.0772   -1.2314    1.0319 H   0  0  0  0  0  0  0  0  0  0  0  0
    2.0385   -1.4725   -1.0249 H   0  0  0  0  0  0  0  0  0  0  0  0
    0.0564   -0.2654   -2.0719 H   0  0  0  0  0  0  0  0  0  0  0  0
  1  2  1  0
  2  3  1  0
  3  4  1  0
  4  5  1  0
  5  6  1  0
  6  7  1  0
  7  8  1  0
  8  9  1  0
  8  1  1  0
  5  3  1  0
  9  7  1  0
  9  3  1  0
  1 10  1  0
  1 11  1  0
  2 12  1  0
  2 13  1  0
  4 14  1  0
  4 15  1  0
  5 16  1  0
  6 17  1  0
  6 18  1  0
  7 19  1  0
  8 20  1  0
  9 21  1  0
M  END
