
     RDKit          3D

 22 23  0  0  0  0  0  0  0  0999 V2000
   -2.5446   -0.2873    0.3365 C   0  0  0  0  0  0  0  0  0  0  0  0
   -1.8203   -1.2250   -0.5993 C   0  0  0  0  0  0  0  0  0  0  0  0
   -0.7714   -0.1323   -0.7792 C   0  0  0  0  0  0  0  0  0  0  0  0
    0.3485   -0.3525    0.1687 C   0  0  0  0  0  0  0  0  0  0  0  0
    1.4489    0.6564    0.0930 C   0  0  0  0  0  0  0  0  0  0  0  0
    2.5795    0.3913    1.0850 C   0  0  0  0  0  0  0  0  0  0  0  0
    2.8033    0.3303   -0.3816 C   0  0  0  0  0  0  0  0  0  0  0  0
   -1.7960    0.8614   -0.3336 C   0  0  0  0  0  0  0  0  0  0  0  0
   -2.2772   -0.4281    1.4072 H   0  0  0  0  0  0  0  0  0  0  0  0
   -3.6242   -0.2543    0.1829 H   0  0  0  0  0  0  0  0  0  0  0  0
   -1.4628   -2.1076   -0.0304 H   0  0  0  0  0  0  0  0  0  0  0  0
   -2.3450   -1.5273   -1.5016 H   0  0  0  0  0  0  0  0  0  0  0  0
   -0.4960   -0.0833   -1.8516 H   0  0  0  0  0  0  0  0  0  0  0  0
    0.7812   -1.3541    0.0237 H   0  0  0  0  0  0  0  0  0  0  0  0
   -0.0702   -0.3110    1.2080 H   0  0  0  0  0  0  0  0  0  0  0  0
    1.0860    1.7145    0.1218 H   0  0  0  0  0  0  0  0  0  0  0  0
    2.9596    1.2209    1.6861 H   0  0  0  0  0  0  0  0  0  0  0  0
    2.6083   -0.5855    1.6070 H   0  0  0  0  0  0  0  0  0  0  0  0
    3.3660    1.1918   -0.8385 H   0  0  0  0  0  0  0  0  0  0  0  0
    2.9733   -0.6598   -0.8538 H   0  0  0  0  0  0  0  0  0  0  0  0
   -1.3805    1.5800    0.3790 H   0  0  0  0  0  0  0  0  0  0  0  0
   -2.3665    1.3616   -1.1292 H   0  0  0  0  0  0  0  0  0  0  0  0
  1  2  1  0
  2  3  1  0
  3  4  1  0
  4  5  1  0
  5  6  1  0
  6  7  1  0
  3  8  1  0
  8  1  1  0
  7  5  1  0
  1  9  1  0
  1 10  1  0
  2 11  1  0
  2 12  1  0
  3 13  1  0
  4 14  1  0
  4 15  1  0
  5 16  1  0
  6 17  1  0
  6 18  1  0
  7 19  1  0
  7 20  1  0
  8 21  1  0
  8 22  1  0
M  END
