
     RDKit          3D

 14 15  0  0  0  0  0  0  0  0999 V2000
    1.1972   -0.3240    0.0062 C   0  0  0  0  0  0  0  0  0  0  0  0
    0.5770    1.0551   -0.3099 C   0  0  0  0  0  0  0  0  0  0  0  0
   -0.7885    0.7602    0.2869 C   0  0  0  0  0  0  0  0  0  0  0  0
   -1.1098   -0.5616   -0.3752 C   0  0  0  0  0  0  0  0  0  0  0  0
   -0.0415   -0.9719    0.5790 C   0  0  0  0  0  0  0  0  0  0  0  0
   -0.5277    0.0350    1.4456 O   0  0  0  0  0  0  0  0  0  0  0  0
    1.9712   -0.1984    0.7872 H   0  0  0  0  0  0  0  0  0  0  0  0
    1.5302   -0.8336   -0.8967 H   0  0  0  0  0  0  0  0  0  0  0  0
    0.4495    1.1773   -1.3945 H   0  0  0  0  0  0  0  0  0  0  0  0
    1.1046    1.8599    0.1976 H   0  0  0  0  0  0  0  0  0  0  0  0
   -1.5223    1.5284    0.2979 H   0  0  0  0  0  0  0  0  0  0  0  0
   -2.0968   -0.9716   -0.1605 H   0  0  0  0  0  0  0  0  0  0  0  0
   -0.7546   -0.5906   -1.4179 H   0  0  0  0  0  0  0  0  0  0  0  0
    0.0114   -1.9639    0.9542 H   0  0  0  0  0  0  0  0  0  0  0  0
  1  2  1  0
  2  3  1  0
  3  4  1  0
  4  5  1  0
  5  6  1  0
  5  1  1  0
  6  3  1  0
  1  7  1  0
  1  8  1  0
  2  9  1  0
  2 10  1  0
  3 11  1  0
  4 12  1  0
  4 13  1  0
  5 14  1  0
M  END
