
     RDKit          3D

 17 18  0  0  0  0  0  0  0  0999 V2000
    1.8567   -0.6184   -0.2451 C   0  0  0  0  0  0  0  0  0  0  0  0
    0.6589   -0.0941   -0.9973 C   0  0  0  0  0  0  0  0  0  0  0  0
   -0.3764    0.0261    0.0752 C   0  0  0  0  0  0  0  0  0  0  0  0
   -1.4258    1.0522   -0.1843 C   0  0  0  0  0  0  0  0  0  0  0  0
   -1.7509   -0.4095   -0.0433 C   0  0  0  0  0  0  0  0  0  0  0  0
    0.4048   -0.0042    1.3412 C   0  0  0  0  0  0  0  0  0  0  0  0
    1.4248   -0.9309    1.0313 O   0  0  0  0  0  0  0  0  0  0  0  0
    2.6869    0.1027   -0.1825 H   0  0  0  0  0  0  0  0  0  0  0  0
    2.2156   -1.5145   -0.7816 H   0  0  0  0  0  0  0  0  0  0  0  0
    0.3701   -0.6977   -1.8573 H   0  0  0  0  0  0  0  0  0  0  0  0
    0.9236    0.9650   -1.2919 H   0  0  0  0  0  0  0  0  0  0  0  0
   -1.6059    1.7599    0.6264 H   0  0  0  0  0  0  0  0  0  0  0  0
   -1.5910    1.4305   -1.2306 H   0  0  0  0  0  0  0  0  0  0  0  0
   -2.2919   -0.6436    0.9122 H   0  0  0  0  0  0  0  0  0  0  0  0
   -2.1704   -0.9698   -0.9062 H   0  0  0  0  0  0  0  0  0  0  0  0
    0.8117    0.9949    1.5360 H   0  0  0  0  0  0  0  0  0  0  0  0
   -0.1408   -0.4487    2.1977 H   0  0  0  0  0  0  0  0  0  0  0  0
  1  2  1  0
  2  3  1  0
  3  4  1  0
  4  5  1  0
  3  6  1  0
  6  7  1  0
  7  1  1  0
  5  3  1  0
  1  8  1  0
  1  9  1  0
  2 10  1  0
  2 11  1  0
  4 12  1  0
  4 13  1  0
  5 14  1  0
  5 15  1  0
  6 16  1  0
  6 17  1  0
M  END
