
     RDKit          3D

 20 21  0  0  0  0  0  0  0  0999 V2000
    1.7528   -0.1137    0.3408 C   0  0  0  0  0  0  0  0  0  0  0  0
    1.1777    0.9301   -0.5656 C   0  0  0  0  0  0  0  0  0  0  0  0
   -0.2626    0.6501   -0.7711 C   0  0  0  0  0  0  0  0  0  0  0  0
   -1.1733    1.3034    0.2388 C   0  0  0  0  0  0  0  0  0  0  0  0
   -2.2917    0.4561    0.1874 O   0  0  0  0  0  0  0  0  0  0  0  0
   -1.7128   -0.7965    0.3748 C   0  0  0  0  0  0  0  0  0  0  0  0
   -0.4365   -0.8106   -0.4382 C   0  0  0  0  0  0  0  0  0  0  0  0
    0.7618   -1.2316    0.3610 C   0  0  0  0  0  0  0  0  0  0  0  0
    2.7354   -0.4838   -0.0648 H   0  0  0  0  0  0  0  0  0  0  0  0
    2.0044    0.2765    1.3599 H   0  0  0  0  0  0  0  0  0  0  0  0
    1.4154    1.9272   -0.1633 H   0  0  0  0  0  0  0  0  0  0  0  0
    1.6853    0.8622   -1.5674 H   0  0  0  0  0  0  0  0  0  0  0  0
   -0.5948    0.9077   -1.7909 H   0  0  0  0  0  0  0  0  0  0  0  0
   -1.5130    2.2900   -0.0859 H   0  0  0  0  0  0  0  0  0  0  0  0
   -0.7210    1.2647    1.2368 H   0  0  0  0  0  0  0  0  0  0  0  0
   -1.5379   -0.9130    1.4547 H   0  0  0  0  0  0  0  0  0  0  0  0
   -2.4010   -1.5371   -0.0598 H   0  0  0  0  0  0  0  0  0  0  0  0
   -0.5297   -1.3819   -1.3766 H   0  0  0  0  0  0  0  0  0  0  0  0
    1.1462   -2.1726   -0.0918 H   0  0  0  0  0  0  0  0  0  0  0  0
    0.4952   -1.4272    1.4211 H   0  0  0  0  0  0  0  0  0  0  0  0
  1  2  1  0
  2  3  1  0
  3  4  1  0
  4  5  1  0
  5  6  1  0
  6  7  1  0
  7  8  1  0
  8  1  1  0
  7  3  1  0
  1  9  1  0
  1 10  1  0
  2 11  1  0
  2 12  1  0
  3 13  1  0
  4 14  1  0
  4 15  1  0
  6 16  1  0
  6 17  1  0
  7 18  1  0
  8 19  1  0
  8 20  1  0
M  END
