
     RDKit          3D

 21 23  0  0  0  0  0  0  0  0999 V2000
    1.8225   -0.7287    0.3076 C   0  0  0  0  0  0  0  0  0  0  0  0
    1.8951    0.6535   -0.3272 C   0  0  0  0  0  0  0  0  0  0  0  0
    0.5291    1.2399   -0.0090 C   0  0  0  0  0  0  0  0  0  0  0  0
    0.3292    0.6580    1.2675 O   0  0  0  0  0  0  0  0  0  0  0  0
    0.4234   -0.7009    0.8868 C   0  0  0  0  0  0  0  0  0  0  0  0
   -0.5058   -0.8559   -0.2875 C   0  0  0  0  0  0  0  0  0  0  0  0
   -1.9661   -0.8330    0.0053 C   0  0  0  0  0  0  0  0  0  0  0  0
   -1.8880    0.6993    0.0051 C   0  0  0  0  0  0  0  0  0  0  0  0
   -0.5778    0.5969   -0.7699 C   0  0  0  0  0  0  0  0  0  0  0  0
    1.8481   -1.4840   -0.5218 H   0  0  0  0  0  0  0  0  0  0  0  0
    2.6029   -0.9139    1.0364 H   0  0  0  0  0  0  0  0  0  0  0  0
    2.6269    1.2345    0.2901 H   0  0  0  0  0  0  0  0  0  0  0  0
    2.1254    0.6318   -1.3876 H   0  0  0  0  0  0  0  0  0  0  0  0
    0.5116    2.3222    0.0150 H   0  0  0  0  0  0  0  0  0  0  0  0
    0.2585   -1.3863    1.7008 H   0  0  0  0  0  0  0  0  0  0  0  0
   -0.1473   -1.5685   -1.0444 H   0  0  0  0  0  0  0  0  0  0  0  0
   -2.1826   -1.2542    1.0059 H   0  0  0  0  0  0  0  0  0  0  0  0
   -2.5587   -1.2542   -0.8265 H   0  0  0  0  0  0  0  0  0  0  0  0
   -1.7774    1.0888    1.0342 H   0  0  0  0  0  0  0  0  0  0  0  0
   -2.7309    1.1174   -0.5433 H   0  0  0  0  0  0  0  0  0  0  0  0
   -0.6382    0.7375   -1.8375 H   0  0  0  0  0  0  0  0  0  0  0  0
  1  2  1  0
  2  3  1  0
  3  4  1  0
  4  5  1  0
  5  6  1  0
  6  7  1  0
  7  8  1  0
  8  9  1  0
  5  1  1  0
  9  6  1  0
  9  3  1  0
  1 10  1  0
  1 11  1  0
  2 12  1  0
  2 13  1  0
  3 14  1  0
  5 15  1  0
  6 16  1  0
  7 17  1  0
  7 18  1  0
  8 19  1  0
  8 20  1  0
  9 21  1  0
M  END
