
     RDKit          3D

 17 18  0  0  0  0  0  0  0  0999 V2000
   -1.0521    0.4773    0.7129 C   0  0  0  0  0  0  0  0  0  0  0  0
   -1.2215    0.0892   -0.7664 C   0  0  0  0  0  0  0  0  0  0  0  0
    0.1140   -0.4955   -1.1604 C   0  0  0  0  0  0  0  0  0  0  0  0
    0.4591   -1.2100    0.1606 C   0  0  0  0  0  0  0  0  0  0  0  0
    0.3703    0.0872    0.9851 C   0  0  0  0  0  0  0  0  0  0  0  0
    1.2900    0.9326    0.1105 C   0  0  0  0  0  0  0  0  0  0  0  0
    1.0329    0.5307   -1.1857 O   0  0  0  0  0  0  0  0  0  0  0  0
   -1.2449    1.5652    0.8380 H   0  0  0  0  0  0  0  0  0  0  0  0
   -1.7117   -0.1339    1.3593 H   0  0  0  0  0  0  0  0  0  0  0  0
   -2.0147   -0.7061   -0.8562 H   0  0  0  0  0  0  0  0  0  0  0  0
   -1.4285    0.9548   -1.3961 H   0  0  0  0  0  0  0  0  0  0  0  0
    0.1077   -1.1489   -2.0075 H   0  0  0  0  0  0  0  0  0  0  0  0
    1.4621   -1.6231    0.1539 H   0  0  0  0  0  0  0  0  0  0  0  0
   -0.3551   -1.8916    0.3898 H   0  0  0  0  0  0  0  0  0  0  0  0
    0.6691   -0.0171    2.0017 H   0  0  0  0  0  0  0  0  0  0  0  0
    1.1886    2.0005    0.2937 H   0  0  0  0  0  0  0  0  0  0  0  0
    2.3346    0.5889    0.3666 H   0  0  0  0  0  0  0  0  0  0  0  0
  1  2  1  0
  2  3  1  0
  3  4  1  0
  4  5  1  0
  5  6  1  0
  6  7  1  0
  5  1  1  0
  7  3  1  0
  1  8  1  0
  1  9  1  0
  2 10  1  0
  2 11  1  0
  3 12  1  0
  4 13  1  0
  4 14  1  0
  5 15  1  0
  6 16  1  0
  6 17  1  0
M  END
