
     RDKit          3D

 19 20  0  0  0  0  0  0  0  0999 V2000
    3.0656    0.1263    0.3339 C   0  0  0  0  0  0  0  0  0  0  0  0
    2.0245    0.9844    0.0462 C   0  0  0  0  0  0  0  0  0  0  0  0
    0.8438    0.2301    0.0383 C   0  0  0  0  0  0  0  0  0  0  0  0
   -0.5468    0.7290   -0.2267 C   0  0  0  0  0  0  0  0  0  0  0  0
   -1.3084   -0.1136   -1.2207 C   0  0  0  0  0  0  0  0  0  0  0  0
   -2.0894   -0.7038   -0.0968 C   0  0  0  0  0  0  0  0  0  0  0  0
   -1.4823    0.3000    0.8476 C   0  0  0  0  0  0  0  0  0  0  0  0
    1.2596   -1.0498    0.3260 C   0  0  0  0  0  0  0  0  0  0  0  0
    2.5607   -1.0691    0.4915 O   0  0  0  0  0  0  0  0  0  0  0  0
    4.1194    0.3449    0.4248 H   0  0  0  0  0  0  0  0  0  0  0  0
    2.0925    2.0371   -0.1394 H   0  0  0  0  0  0  0  0  0  0  0  0
   -0.5703    1.8211   -0.4321 H   0  0  0  0  0  0  0  0  0  0  0  0
   -1.8771    0.4532   -1.9792 H   0  0  0  0  0  0  0  0  0  0  0  0
   -0.6083   -0.8319   -1.7387 H   0  0  0  0  0  0  0  0  0  0  0  0
   -1.7440   -1.7308    0.1459 H   0  0  0  0  0  0  0  0  0  0  0  0
   -3.1903   -0.5814   -0.1434 H   0  0  0  0  0  0  0  0  0  0  0  0
   -1.0152   -0.1376    1.7563 H   0  0  0  0  0  0  0  0  0  0  0  0
   -2.1630    1.1141    1.1583 H   0  0  0  0  0  0  0  0  0  0  0  0
    0.6290   -1.9223    0.4084 H   0  0  0  0  0  0  0  0  0  0  0  0
  1  2  2  0
  2  3  1  0
  3  4  1  0
  4  5  1  0
  5  6  1  0
  6  7  1  0
  3  8  2  0
  8  9  1  0
  9  1  1  0
  7  4  1  0
  1 10  1  0
  2 11  1  0
  4 12  1  0
  5 13  1  0
  5 14  1  0
  6 15  1  0
  6 16  1  0
  7 17  1  0
  7 18  1  0
  8 19  1  0
M  END
