
     RDKit          3D

 19 20  0  0  0  0  0  0  0  0999 V2000
    2.8359   -0.0634   -0.2684 C   0  0  0  0  0  0  0  0  0  0  0  0
    1.7872    0.4319    0.7348 C   0  0  0  0  0  0  0  0  0  0  0  0
    1.0143   -0.6354    0.0175 C   0  0  0  0  0  0  0  0  0  0  0  0
   -0.4338   -0.3898   -0.2109 C   0  0  0  0  0  0  0  0  0  0  0  0
   -1.2188   -0.6400    0.9084 O   0  0  0  0  0  0  0  0  0  0  0  0
   -2.4953   -0.3400    0.3772 C   0  0  0  0  0  0  0  0  0  0  0  0
   -2.1611    0.9377   -0.3938 C   0  0  0  0  0  0  0  0  0  0  0  0
   -0.7613    0.9102   -0.5269 O   0  0  0  0  0  0  0  0  0  0  0  0
    1.7552   -0.3725   -1.1258 O   0  0  0  0  0  0  0  0  0  0  0  0
    3.5088    0.7126   -0.6281 H   0  0  0  0  0  0  0  0  0  0  0  0
    3.2749   -1.0118    0.0823 H   0  0  0  0  0  0  0  0  0  0  0  0
    1.4301    1.4482    0.5405 H   0  0  0  0  0  0  0  0  0  0  0  0
    2.1244    0.1986    1.7532 H   0  0  0  0  0  0  0  0  0  0  0  0
    1.1766   -1.6238    0.4853 H   0  0  0  0  0  0  0  0  0  0  0  0
   -0.8011   -1.0320   -1.0450 H   0  0  0  0  0  0  0  0  0  0  0  0
   -2.7181   -1.1337   -0.3493 H   0  0  0  0  0  0  0  0  0  0  0  0
   -3.2424   -0.1795    1.1481 H   0  0  0  0  0  0  0  0  0  0  0  0
   -2.3946    1.7780    0.3101 H   0  0  0  0  0  0  0  0  0  0  0  0
   -2.6810    1.0047   -1.3473 H   0  0  0  0  0  0  0  0  0  0  0  0
  1  2  1  0
  2  3  1  0
  3  4  1  0
  4  5  1  0
  5  6  1  0
  6  7  1  0
  7  8  1  0
  3  9  1  0
  9  1  1  0
  8  4  1  0
  1 10  1  0
  1 11  1  0
  2 12  1  0
  2 13  1  0
  3 14  1  0
  4 15  1  0
  6 16  1  0
  6 17  1  0
  7 18  1  0
  7 19  1  0
M  END
