
     RDKit          3D

 16 18  0  0  0  0  0  0  0  0999 V2000
    0.9255   -0.9019   -0.3749 C   0  0  0  0  0  0  0  0  0  0  0  0
    1.2866    0.4309    0.1876 C   0  0  0  0  0  0  0  0  0  0  0  0
    0.2110    1.4135   -0.1997 C   0  0  0  0  0  0  0  0  0  0  0  0
   -0.5949    1.7860    0.8941 O   0  0  0  0  0  0  0  0  0  0  0  0
   -1.0788    0.9356   -0.1927 C   0  0  0  0  0  0  0  0  0  0  0  0
   -1.3906   -0.4517    0.2574 C   0  0  0  0  0  0  0  0  0  0  0  0
   -1.4024   -1.5003   -0.6356 O   0  0  0  0  0  0  0  0  0  0  0  0
   -0.3332   -1.3890    0.2566 C   0  0  0  0  0  0  0  0  0  0  0  0
    0.8315   -0.7561   -1.4905 H   0  0  0  0  0  0  0  0  0  0  0  0
    1.7090   -1.6788   -0.2149 H   0  0  0  0  0  0  0  0  0  0  0  0
    1.4374    0.3563    1.2819 H   0  0  0  0  0  0  0  0  0  0  0  0
    2.2808    0.7228   -0.2337 H   0  0  0  0  0  0  0  0  0  0  0  0
    0.5531    2.2061   -0.8970 H   0  0  0  0  0  0  0  0  0  0  0  0
   -1.9290    1.4639   -0.6815 H   0  0  0  0  0  0  0  0  0  0  0  0
   -2.2666   -0.5040    0.9655 H   0  0  0  0  0  0  0  0  0  0  0  0
   -0.2395   -2.1335    1.0775 H   0  0  0  0  0  0  0  0  0  0  0  0
  1  2  1  0
  2  3  1  0
  3  4  1  0
  4  5  1  0
  5  6  1  0
  6  7  1  0
  7  8  1  0
  8  1  1  0
  5  3  1  0
  8  6  1  0
  1  9  1  0
  1 10  1  0
  2 11  1  0
  2 12  1  0
  3 13  1  0
  5 14  1  0
  6 15  1  0
  8 16  1  0
M  END
