
     RDKit          3D

 18 20  0  0  0  0  0  0  0  0999 V2000
   -1.6460    0.5970   -0.4343 C   0  0  0  0  0  0  0  0  0  0  0  0
   -0.2611    1.1902   -0.2290 C   0  0  0  0  0  0  0  0  0  0  0  0
    0.5385    0.0056    0.1838 C   0  0  0  0  0  0  0  0  0  0  0  0
    1.9367    0.0347    0.5679 C   0  0  0  0  0  0  0  0  0  0  0  0
    1.5754   -0.4380   -0.8334 C   0  0  0  0  0  0  0  0  0  0  0  0
   -0.3969   -1.0118    0.7709 C   0  0  0  0  0  0  0  0  0  0  0  0
   -1.2225   -0.5244    1.7674 O   0  0  0  0  0  0  0  0  0  0  0  0
   -1.7614   -0.5695    0.4997 C   0  0  0  0  0  0  0  0  0  0  0  0
   -2.4218    1.3529   -0.3275 H   0  0  0  0  0  0  0  0  0  0  0  0
   -1.7063    0.1821   -1.4776 H   0  0  0  0  0  0  0  0  0  0  0  0
   -0.3562    1.9828    0.5118 H   0  0  0  0  0  0  0  0  0  0  0  0
    0.1211    1.6685   -1.1723 H   0  0  0  0  0  0  0  0  0  0  0  0
    2.2801   -0.7858    1.2616 H   0  0  0  0  0  0  0  0  0  0  0  0
    2.5697    0.9283    0.6295 H   0  0  0  0  0  0  0  0  0  0  0  0
    1.8312    0.2672   -1.6517 H   0  0  0  0  0  0  0  0  0  0  0  0
    1.5739   -1.5041   -1.0556 H   0  0  0  0  0  0  0  0  0  0  0  0
   -0.1106   -2.0803    0.7511 H   0  0  0  0  0  0  0  0  0  0  0  0
   -2.5439   -1.2954    0.2376 H   0  0  0  0  0  0  0  0  0  0  0  0
  1  2  1  0
  2  3  1  0
  3  4  1  0
  4  5  1  0
  3  6  1  0
  6  7  1  0
  7  8  1  0
  8  1  1  0
  5  3  1  0
  8  6  1  0
  1  9  1  0
  1 10  1  0
  2 11  1  0
  2 12  1  0
  4 13  1  0
  4 14  1  0
  5 15  1  0
  5 16  1  0
  6 17  1  0
  8 18  1  0
M  END
