
     RDKit          3D

 21 24  0  0  0  0  0  0  0  0999 V2000
   -2.6057    0.3253    0.2195 C   0  0  0  0  0  0  0  0  0  0  0  0
   -1.4021   -0.0666    1.0794 C   0  0  0  0  0  0  0  0  0  0  0  0
   -0.5923   -0.0580   -0.1642 C   0  0  0  0  0  0  0  0  0  0  0  0
   -1.7803   -0.0730   -1.0141 C   0  0  0  0  0  0  0  0  0  0  0  0
    0.6106   -0.8543   -0.2974 C   0  0  0  0  0  0  0  0  0  0  0  0
    1.6056   -0.6985    0.8620 C   0  0  0  0  0  0  0  0  0  0  0  0
    2.9066   -0.1428    0.5134 C   0  0  0  0  0  0  0  0  0  0  0  0
    1.7315    0.7482    0.5586 C   0  0  0  0  0  0  0  0  0  0  0  0
    0.6133    0.6910   -0.3996 C   0  0  0  0  0  0  0  0  0  0  0  0
   -2.7692    1.4059    0.3238 H   0  0  0  0  0  0  0  0  0  0  0  0
   -3.4871   -0.3111    0.3374 H   0  0  0  0  0  0  0  0  0  0  0  0
   -1.1384    0.6594    1.8579 H   0  0  0  0  0  0  0  0  0  0  0  0
   -1.5488   -1.1234    1.4353 H   0  0  0  0  0  0  0  0  0  0  0  0
   -1.7800    0.7456   -1.7785 H   0  0  0  0  0  0  0  0  0  0  0  0
   -2.0542   -1.0686   -1.4249 H   0  0  0  0  0  0  0  0  0  0  0  0
    0.9334   -1.3909   -1.1981 H   0  0  0  0  0  0  0  0  0  0  0  0
    1.2722   -0.9438    1.8778 H   0  0  0  0  0  0  0  0  0  0  0  0
    3.3228   -0.4557   -0.4858 H   0  0  0  0  0  0  0  0  0  0  0  0
    3.6463   -0.0134    1.3210 H   0  0  0  0  0  0  0  0  0  0  0  0
    1.6926    1.5259    1.3285 H   0  0  0  0  0  0  0  0  0  0  0  0
    0.8232    1.0988   -1.4109 H   0  0  0  0  0  0  0  0  0  0  0  0
  1  2  1  0
  2  3  1  0
  3  4  1  0
  3  5  1  0
  5  6  1  0
  6  7  1  0
  7  8  1  0
  8  9  1  0
  4  1  1  0
  9  5  1  0
  9  3  1  0
  8  6  1  0
  1 10  1  0
  1 11  1  0
  2 12  1  0
  2 13  1  0
  4 14  1  0
  4 15  1  0
  5 16  1  0
  6 17  1  0
  7 18  1  0
  7 19  1  0
  8 20  1  0
  9 21  1  0
M  END
