
     RDKit          3D

 19 21  0  0  0  0  0  0  0  0999 V2000
    1.1589   -1.1885    0.3561 C   0  0  0  0  0  0  0  0  0  0  0  0
    1.8690    0.1194    0.3760 C   0  0  0  0  0  0  0  0  0  0  0  0
    1.0194    1.3219    0.3426 C   0  0  0  0  0  0  0  0  0  0  0  0
    0.0426    1.3064    1.4304 O   0  0  0  0  0  0  0  0  0  0  0  0
   -0.3136    1.3273    0.0591 C   0  0  0  0  0  0  0  0  0  0  0  0
   -1.0866    0.1670   -0.4090 C   0  0  0  0  0  0  0  0  0  0  0  0
   -2.2358   -0.2330    0.5560 C   0  0  0  0  0  0  0  0  0  0  0  0
   -1.0655   -1.0580    0.3752 C   0  0  0  0  0  0  0  0  0  0  0  0
    0.0397   -1.0728    1.2032 O   0  0  0  0  0  0  0  0  0  0  0  0
    1.8383   -1.9901    0.7104 H   0  0  0  0  0  0  0  0  0  0  0  0
    0.8799   -1.4169   -0.6828 H   0  0  0  0  0  0  0  0  0  0  0  0
    2.4775    0.1482    1.3272 H   0  0  0  0  0  0  0  0  0  0  0  0
    2.6251    0.1231   -0.4372 H   0  0  0  0  0  0  0  0  0  0  0  0
    1.6137    2.2807    0.2940 H   0  0  0  0  0  0  0  0  0  0  0  0
   -0.8184    2.3083   -0.1955 H   0  0  0  0  0  0  0  0  0  0  0  0
   -1.3086    0.0817   -1.4953 H   0  0  0  0  0  0  0  0  0  0  0  0
   -3.1661   -0.5406    0.0366 H   0  0  0  0  0  0  0  0  0  0  0  0
   -2.3822    0.3465    1.4605 H   0  0  0  0  0  0  0  0  0  0  0  0
   -1.1872   -2.0307   -0.1889 H   0  0  0  0  0  0  0  0  0  0  0  0
  1  2  1  0
  2  3  1  0
  3  4  1  0
  4  5  1  0
  5  6  1  0
  6  7  1  0
  7  8  1  0
  8  9  1  0
  9  1  1  0
  5  3  1  0
  8  6  1  0
  1 10  1  0
  1 11  1  0
  2 12  1  0
  2 13  1  0
  3 14  1  0
  5 15  1  0
  6 16  1  0
  7 17  1  0
  7 18  1  0
  8 19  1  0
M  END
