
     RDKit          3D

 18 20  0  0  0  0  0  0  0  0999 V2000
    1.8722    0.4018    0.5842 C   0  0  0  0  0  0  0  0  0  0  0  0
    1.6187   -0.4020   -0.7059 C   0  0  0  0  0  0  0  0  0  0  0  0
    0.5142    0.0965    0.1137 C   0  0  0  0  0  0  0  0  0  0  0  0
   -0.4359    1.1581   -0.3212 C   0  0  0  0  0  0  0  0  0  0  0  0
   -1.7554    0.4792   -0.5540 C   0  0  0  0  0  0  0  0  0  0  0  0
   -2.5483    0.1006    0.5168 O   0  0  0  0  0  0  0  0  0  0  0  0
   -1.6421   -0.8253    0.0270 C   0  0  0  0  0  0  0  0  0  0  0  0
   -0.3587   -0.9163    0.8115 C   0  0  0  0  0  0  0  0  0  0  0  0
    2.2263    1.4359    0.4188 H   0  0  0  0  0  0  0  0  0  0  0  0
    2.2134   -0.1677    1.4773 H   0  0  0  0  0  0  0  0  0  0  0  0
    1.8420   -1.4782   -0.6959 H   0  0  0  0  0  0  0  0  0  0  0  0
    1.8190    0.0977   -1.6699 H   0  0  0  0  0  0  0  0  0  0  0  0
   -0.1453    1.6890   -1.2378 H   0  0  0  0  0  0  0  0  0  0  0  0
   -0.5234    1.9224    0.4936 H   0  0  0  0  0  0  0  0  0  0  0  0
   -2.2958    0.7168   -1.4828 H   0  0  0  0  0  0  0  0  0  0  0  0
   -1.9994   -1.7775   -0.4175 H   0  0  0  0  0  0  0  0  0  0  0  0
   -0.4949   -0.6078    1.8707 H   0  0  0  0  0  0  0  0  0  0  0  0
    0.0931   -1.9231    0.7715 H   0  0  0  0  0  0  0  0  0  0  0  0
  1  2  1  0
  2  3  1  0
  3  4  1  0
  4  5  1  0
  5  6  1  0
  6  7  1  0
  7  8  1  0
  3  1  1  0
  7  5  1  0
  8  3  1  0
  1  9  1  0
  1 10  1  0
  2 11  1  0
  2 12  1  0
  4 13  1  0
  4 14  1  0
  5 15  1  0
  7 16  1  0
  8 17  1  0
  8 18  1  0
M  END
