
     RDKit          3D

 21 23  0  0  0  0  0  0  0  0999 V2000
    2.0268    0.5230   -0.5450 C   0  0  0  0  0  0  0  0  0  0  0  0
    1.4595    0.3476    0.8662 C   0  0  0  0  0  0  0  0  0  0  0  0
    0.4181   -0.5384    0.2819 C   0  0  0  0  0  0  0  0  0  0  0  0
    1.2847   -0.7701   -0.9048 C   0  0  0  0  0  0  0  0  0  0  0  0
    0.0309   -1.6393    1.0141 O   0  0  0  0  0  0  0  0  0  0  0  0
   -1.2127   -1.0218    1.2748 C   0  0  0  0  0  0  0  0  0  0  0  0
   -0.9429   -0.1023    0.1410 C   0  0  0  0  0  0  0  0  0  0  0  0
   -1.4896    1.2288   -0.0066 C   0  0  0  0  0  0  0  0  0  0  0  0
   -1.7529    0.0956   -1.0215 C   0  0  0  0  0  0  0  0  0  0  0  0
    3.1008    0.3511   -0.6380 H   0  0  0  0  0  0  0  0  0  0  0  0
    1.6305    1.3985   -1.0892 H   0  0  0  0  0  0  0  0  0  0  0  0
    1.1309    1.3217    1.2765 H   0  0  0  0  0  0  0  0  0  0  0  0
    2.1966   -0.1811    1.4979 H   0  0  0  0  0  0  0  0  0  0  0  0
    1.9114   -1.6765   -0.8123 H   0  0  0  0  0  0  0  0  0  0  0  0
    0.7940   -0.6721   -1.8871 H   0  0  0  0  0  0  0  0  0  0  0  0
   -1.1419   -0.4725    2.2467 H   0  0  0  0  0  0  0  0  0  0  0  0
   -2.0842   -1.6775    1.1686 H   0  0  0  0  0  0  0  0  0  0  0  0
   -2.3469    1.4899    0.6749 H   0  0  0  0  0  0  0  0  0  0  0  0
   -0.9646    2.0948   -0.4223 H   0  0  0  0  0  0  0  0  0  0  0  0
   -2.7760   -0.3028   -1.0901 H   0  0  0  0  0  0  0  0  0  0  0  0
   -1.2724    0.2034   -2.0256 H   0  0  0  0  0  0  0  0  0  0  0  0
  1  2  1  0
  2  3  1  0
  3  4  1  0
  3  5  1  0
  5  6  1  0
  6  7  1  0
  7  8  1  0
  8  9  1  0
  4  1  1  0
  9  7  1  0
  7  3  1  0
  1 10  1  0
  1 11  1  0
  2 12  1  0
  2 13  1  0
  4 14  1  0
  4 15  1  0
  6 16  1  0
  6 17  1  0
  8 18  1  0
  8 19  1  0
  9 20  1  0
  9 21  1  0
M  END
