
     RDKit          3D

 23 25  0  0  0  0  0  0  0  0999 V2000
    1.6797    0.3469   -0.8262 C   0  0  0  0  0  0  0  0  0  0  0  0
    0.7023    1.4547   -0.4535 C   0  0  0  0  0  0  0  0  0  0  0  0
   -0.1339    0.7707    0.6303 C   0  0  0  0  0  0  0  0  0  0  0  0
    1.0469    0.1344    1.4068 C   0  0  0  0  0  0  0  0  0  0  0  0
    1.4710   -0.7126    0.2135 C   0  0  0  0  0  0  0  0  0  0  0  0
    0.0905   -1.3183   -0.0688 C   0  0  0  0  0  0  0  0  0  0  0  0
   -0.9073   -0.3032    0.1087 C   0  0  0  0  0  0  0  0  0  0  0  0
   -2.0464   -0.9041   -0.5606 C   0  0  0  0  0  0  0  0  0  0  0  0
   -2.1708    0.3560   -0.1406 C   0  0  0  0  0  0  0  0  0  0  0  0
    1.3998   -0.0430   -1.8259 H   0  0  0  0  0  0  0  0  0  0  0  0
    2.7246    0.7047   -0.7802 H   0  0  0  0  0  0  0  0  0  0  0  0
    0.1001    1.7959   -1.2948 H   0  0  0  0  0  0  0  0  0  0  0  0
    1.2518    2.2870    0.0684 H   0  0  0  0  0  0  0  0  0  0  0  0
   -0.5194    1.4996    1.3607 H   0  0  0  0  0  0  0  0  0  0  0  0
    1.8052    0.8815    1.6481 H   0  0  0  0  0  0  0  0  0  0  0  0
    0.6824   -0.4676    2.2378 H   0  0  0  0  0  0  0  0  0  0  0  0
    2.2465   -1.4078    0.3856 H   0  0  0  0  0  0  0  0  0  0  0  0
    0.2458   -1.8359   -1.0358 H   0  0  0  0  0  0  0  0  0  0  0  0
   -0.0241   -2.1329    0.6889 H   0  0  0  0  0  0  0  0  0  0  0  0
   -2.0352   -1.1754   -1.6625 H   0  0  0  0  0  0  0  0  0  0  0  0
   -2.5450   -1.7588   -0.0026 H   0  0  0  0  0  0  0  0  0  0  0  0
   -2.7629    0.6295    0.7898 H   0  0  0  0  0  0  0  0  0  0  0  0
   -2.3015    1.1988   -0.8869 H   0  0  0  0  0  0  0  0  0  0  0  0
  1  2  1  0
  2  3  1  0
  3  4  1  0
  4  5  1  0
  5  6  1  0
  6  7  1  0
  7  8  1  0
  8  9  1  0
  5  1  1  0
  9  7  1  0
  7  3  1  0
  1 10  1  0
  1 11  1  0
  2 12  1  0
  2 13  1  0
  3 14  1  0
  4 15  1  0
  4 16  1  0
  5 17  1  0
  6 18  1  0
  6 19  1  0
  8 20  1  0
  8 21  1  0
  9 22  1  0
  9 23  1  0
M  END
