
     RDKit          3D

 18 21  0  0  0  0  0  0  0  0999 V2000
    1.2760   -0.9188    0.2228 C   0  0  0  0  0  0  0  0  0  0  0  0
    1.4525    0.5562    0.1708 C   0  0  0  0  0  0  0  0  0  0  0  0
    0.2083    1.3562    0.2965 C   0  0  0  0  0  0  0  0  0  0  0  0
   -0.7803    0.9637   -0.6947 C   0  0  0  0  0  0  0  0  0  0  0  0
   -0.8645   -0.4749   -1.0183 C   0  0  0  0  0  0  0  0  0  0  0  0
   -0.0755   -1.3795   -0.1884 C   0  0  0  0  0  0  0  0  0  0  0  0
   -1.1839   -0.7217    0.4896 C   0  0  0  0  0  0  0  0  0  0  0  0
   -0.9848    0.7059    0.7882 C   0  0  0  0  0  0  0  0  0  0  0  0
    1.5668   -1.3536    1.2243 H   0  0  0  0  0  0  0  0  0  0  0  0
    2.0184   -1.3837   -0.4885 H   0  0  0  0  0  0  0  0  0  0  0  0
    2.1978    0.8698    0.9428 H   0  0  0  0  0  0  0  0  0  0  0  0
    1.9246    0.8446   -0.8151 H   0  0  0  0  0  0  0  0  0  0  0  0
    0.3372    2.4253    0.4994 H   0  0  0  0  0  0  0  0  0  0  0  0
   -1.4074    1.6757   -1.2223 H   0  0  0  0  0  0  0  0  0  0  0  0
   -1.5909   -0.8236   -1.7471 H   0  0  0  0  0  0  0  0  0  0  0  0
   -0.1832   -2.4621   -0.3968 H   0  0  0  0  0  0  0  0  0  0  0  0
   -2.1620   -1.1776    0.6466 H   0  0  0  0  0  0  0  0  0  0  0  0
   -1.7494    1.2980    1.2901 H   0  0  0  0  0  0  0  0  0  0  0  0
  1  2  1  0
  2  3  1  0
  3  4  1  0
  4  5  1  0
  5  6  1  0
  6  7  1  0
  7  8  1  0
  6  1  1  0
  8  3  1  0
  8  4  1  0
  7  5  1  0
  1  9  1  0
  1 10  1  0
  2 11  1  0
  2 12  1  0
  3 13  1  0
  4 14  1  0
  5 15  1  0
  6 16  1  0
  7 17  1  0
  8 18  1  0
M  END
