
     RDKit          3D

 23 24  0  0  0  0  0  0  0  0999 V2000
   -1.4195   -1.1413   -0.0768 C   0  0  0  0  0  0  0  0  0  0  0  0
   -2.1621   -0.0439    0.6234 C   0  0  0  0  0  0  0  0  0  0  0  0
   -2.0744    1.1551   -0.0714 O   0  0  0  0  0  0  0  0  0  0  0  0
   -0.8136    1.6988    0.1218 C   0  0  0  0  0  0  0  0  0  0  0  0
    0.1377    1.0067   -0.8080 C   0  0  0  0  0  0  0  0  0  0  0  0
    0.8789   -0.1321   -0.1815 C   0  0  0  0  0  0  0  0  0  0  0  0
    0.0260   -1.2384    0.3154 C   0  0  0  0  0  0  0  0  0  0  0  0
    2.1458    0.2047    0.5206 C   0  0  0  0  0  0  0  0  0  0  0  0
    2.2038   -0.5261   -0.8285 C   0  0  0  0  0  0  0  0  0  0  0  0
   -1.5527   -1.0740   -1.1699 H   0  0  0  0  0  0  0  0  0  0  0  0
   -1.8981   -2.1120    0.2240 H   0  0  0  0  0  0  0  0  0  0  0  0
   -1.8301    0.0429    1.6808 H   0  0  0  0  0  0  0  0  0  0  0  0
   -3.2426   -0.3163    0.6490 H   0  0  0  0  0  0  0  0  0  0  0  0
   -0.5552    1.5412    1.1893 H   0  0  0  0  0  0  0  0  0  0  0  0
   -0.8467    2.8027   -0.0232 H   0  0  0  0  0  0  0  0  0  0  0  0
    0.8849    1.7497   -1.1478 H   0  0  0  0  0  0  0  0  0  0  0  0
   -0.4052    0.6261   -1.6857 H   0  0  0  0  0  0  0  0  0  0  0  0
    0.4068   -2.2111   -0.1035 H   0  0  0  0  0  0  0  0  0  0  0  0
    0.0863   -1.3551    1.4164 H   0  0  0  0  0  0  0  0  0  0  0  0
    2.5073   -0.3973    1.3800 H   0  0  0  0  0  0  0  0  0  0  0  0
    2.5026    1.2440    0.5001 H   0  0  0  0  0  0  0  0  0  0  0  0
    2.5080    0.0623   -1.7209 H   0  0  0  0  0  0  0  0  0  0  0  0
    2.5121   -1.5868   -0.8038 H   0  0  0  0  0  0  0  0  0  0  0  0
  1  2  1  0
  2  3  1  0
  3  4  1  0
  4  5  1  0
  5  6  1  0
  6  7  1  0
  6  8  1  0
  8  9  1  0
  7  1  1  0
  9  6  1  0
  1 10  1  0
  1 11  1  0
  2 12  1  0
  2 13  1  0
  4 14  1  0
  4 15  1  0
  5 16  1  0
  5 17  1  0
  7 18  1  0
  7 19  1  0
  8 20  1  0
  8 21  1  0
  9 22  1  0
  9 23  1  0
M  END
