
     RDKit          3D

 19 21  0  0  0  0  0  0  0  0999 V2000
    1.9954   -0.8541    0.1815 C   0  0  0  0  0  0  0  0  0  0  0  0
    2.1250    0.4944   -0.4788 C   0  0  0  0  0  0  0  0  0  0  0  0
    0.9575    1.2293   -0.4455 O   0  0  0  0  0  0  0  0  0  0  0  0
   -0.1870    0.4810   -0.6131 C   0  0  0  0  0  0  0  0  0  0  0  0
   -1.4137    0.9979    0.0781 C   0  0  0  0  0  0  0  0  0  0  0  0
   -2.6107    0.1003    0.0663 C   0  0  0  0  0  0  0  0  0  0  0  0
   -1.4623   -0.1808    0.9588 C   0  0  0  0  0  0  0  0  0  0  0  0
   -0.2350   -0.7336    0.3007 C   0  0  0  0  0  0  0  0  0  0  0  0
    0.9152   -0.7681    1.0722 O   0  0  0  0  0  0  0  0  0  0  0  0
    1.7068   -1.5791   -0.6084 H   0  0  0  0  0  0  0  0  0  0  0  0
    2.9345   -1.1491    0.6866 H   0  0  0  0  0  0  0  0  0  0  0  0
    2.8866    1.0637    0.1017 H   0  0  0  0  0  0  0  0  0  0  0  0
    2.5127    0.3406   -1.4990 H   0  0  0  0  0  0  0  0  0  0  0  0
   -0.4287    0.2427   -1.6738 H   0  0  0  0  0  0  0  0  0  0  0  0
   -1.4857    2.0303    0.4292 H   0  0  0  0  0  0  0  0  0  0  0  0
   -3.5219    0.5734    0.5187 H   0  0  0  0  0  0  0  0  0  0  0  0
   -2.7406   -0.4593   -0.8882 H   0  0  0  0  0  0  0  0  0  0  0  0
   -1.5550   -0.1257    2.0509 H   0  0  0  0  0  0  0  0  0  0  0  0
   -0.3932   -1.7037   -0.2380 H   0  0  0  0  0  0  0  0  0  0  0  0
  1  2  1  0
  2  3  1  0
  3  4  1  0
  4  5  1  0
  5  6  1  0
  6  7  1  0
  7  8  1  0
  8  9  1  0
  9  1  1  0
  8  4  1  0
  7  5  1  0
  1 10  1  0
  1 11  1  0
  2 12  1  0
  2 13  1  0
  4 14  1  0
  5 15  1  0
  6 16  1  0
  6 17  1  0
  7 18  1  0
  8 19  1  0
M  END
