
     RDKit          3D

 19 20  0  0  0  0  0  0  0  0999 V2000
    2.2399    0.9599   -0.0806 C   0  0  0  0  0  0  0  0  0  0  0  0
    2.4349   -0.4006   -0.7658 C   0  0  0  0  0  0  0  0  0  0  0  0
    1.1160   -0.8764   -0.7392 O   0  0  0  0  0  0  0  0  0  0  0  0
    0.5306   -0.3892    0.3953 C   0  0  0  0  0  0  0  0  0  0  0  0
   -0.8057    0.2716    0.1489 C   0  0  0  0  0  0  0  0  0  0  0  0
   -1.8095   -0.6804   -0.4580 C   0  0  0  0  0  0  0  0  0  0  0  0
   -3.1598   -0.0457   -0.7165 C   0  0  0  0  0  0  0  0  0  0  0  0
   -2.9289   -1.0568    0.2394 O   0  0  0  0  0  0  0  0  0  0  0  0
    1.3697    0.5811    0.9415 O   0  0  0  0  0  0  0  0  0  0  0  0
    1.7454    1.6420   -0.8164 H   0  0  0  0  0  0  0  0  0  0  0  0
    3.2010    1.3305    0.2845 H   0  0  0  0  0  0  0  0  0  0  0  0
    2.8404   -0.2959   -1.7686 H   0  0  0  0  0  0  0  0  0  0  0  0
    3.0810   -0.9857   -0.0687 H   0  0  0  0  0  0  0  0  0  0  0  0
    0.4258   -1.1905    1.1826 H   0  0  0  0  0  0  0  0  0  0  0  0
   -1.1683    0.6186    1.1578 H   0  0  0  0  0  0  0  0  0  0  0  0
   -0.6394    1.1720   -0.4566 H   0  0  0  0  0  0  0  0  0  0  0  0
   -1.4115   -1.3067   -1.2796 H   0  0  0  0  0  0  0  0  0  0  0  0
   -3.7079   -0.3278   -1.6420 H   0  0  0  0  0  0  0  0  0  0  0  0
   -3.3540    0.9802   -0.3353 H   0  0  0  0  0  0  0  0  0  0  0  0
  1  2  1  0
  2  3  1  0
  3  4  1  0
  4  5  1  0
  5  6  1  0
  6  7  1  0
  7  8  1  0
  4  9  1  0
  9  1  1  0
  8  6  1  0
  1 10  1  0
  1 11  1  0
  2 12  1  0
  2 13  1  0
  4 14  1  0
  5 15  1  0
  5 16  1  0
  6 17  1  0
  7 18  1  0
  7 19  1  0
M  END
