
     RDKit          3D

 21 22  0  0  0  0  0  0  0  0999 V2000
   -1.8277    0.8058    0.1972 C   0  0  0  0  0  0  0  0  0  0  0  0
   -2.0910   -0.6814   -0.0628 C   0  0  0  0  0  0  0  0  0  0  0  0
   -1.0874   -1.0893   -0.9499 O   0  0  0  0  0  0  0  0  0  0  0  0
    0.0693   -1.4076   -0.2333 C   0  0  0  0  0  0  0  0  0  0  0  0
    1.2685   -0.6669   -0.6354 C   0  0  0  0  0  0  0  0  0  0  0  0
    2.1890   -0.2620    0.5462 C   0  0  0  0  0  0  0  0  0  0  0  0
    1.4427    0.7153   -0.2960 C   0  0  0  0  0  0  0  0  0  0  0  0
    0.3157    1.5131    0.2235 C   0  0  0  0  0  0  0  0  0  0  0  0
   -0.6442    0.8628    0.9257 O   0  0  0  0  0  0  0  0  0  0  0  0
   -2.6783    1.2804    0.6801 H   0  0  0  0  0  0  0  0  0  0  0  0
   -1.6664    1.2558   -0.8260 H   0  0  0  0  0  0  0  0  0  0  0  0
   -3.0566   -0.8210   -0.5884 H   0  0  0  0  0  0  0  0  0  0  0  0
   -2.0562   -1.2432    0.8933 H   0  0  0  0  0  0  0  0  0  0  0  0
   -0.1281   -1.4152    0.8793 H   0  0  0  0  0  0  0  0  0  0  0  0
    0.2500   -2.5025   -0.4605 H   0  0  0  0  0  0  0  0  0  0  0  0
    1.8237   -1.0892   -1.5241 H   0  0  0  0  0  0  0  0  0  0  0  0
    3.2919   -0.4198    0.3750 H   0  0  0  0  0  0  0  0  0  0  0  0
    1.8802   -0.5359    1.5524 H   0  0  0  0  0  0  0  0  0  0  0  0
    2.1210    1.3147   -0.9702 H   0  0  0  0  0  0  0  0  0  0  0  0
    0.7417    2.3192    0.8912 H   0  0  0  0  0  0  0  0  0  0  0  0
   -0.1577    2.0669   -0.6172 H   0  0  0  0  0  0  0  0  0  0  0  0
  1  2  1  0
  2  3  1  0
  3  4  1  0
  4  5  1  0
  5  6  1  0
  6  7  1  0
  7  8  1  0
  8  9  1  0
  9  1  1  0
  7  5  1  0
  1 10  1  0
  1 11  1  0
  2 12  1  0
  2 13  1  0
  4 14  1  0
  4 15  1  0
  5 16  1  0
  6 17  1  0
  6 18  1  0
  7 19  1  0
  8 20  1  0
  8 21  1  0
M  END
