
     RDKit          3D

 21 22  0  0  0  0  0  0  0  0999 V2000
   -1.7030   -0.0534    0.6290 C   0  0  0  0  0  0  0  0  0  0  0  0
   -1.7462   -0.7765   -0.7080 C   0  0  0  0  0  0  0  0  0  0  0  0
   -0.5160   -1.3782   -0.9763 O   0  0  0  0  0  0  0  0  0  0  0  0
    0.3889   -0.3389   -1.2161 C   0  0  0  0  0  0  0  0  0  0  0  0
    0.9404    0.2013    0.0621 C   0  0  0  0  0  0  0  0  0  0  0  0
    1.7682   -0.6613    0.9419 C   0  0  0  0  0  0  0  0  0  0  0  0
    2.4662    0.3310    0.0722 C   0  0  0  0  0  0  0  0  0  0  0  0
    0.2960    1.3017    0.5546 O   0  0  0  0  0  0  0  0  0  0  0  0
   -1.0536    1.2789    0.5610 C   0  0  0  0  0  0  0  0  0  0  0  0
   -1.3030   -0.7296    1.3884 H   0  0  0  0  0  0  0  0  0  0  0  0
   -2.7844    0.1137    0.9052 H   0  0  0  0  0  0  0  0  0  0  0  0
   -2.0525   -0.0623   -1.5012 H   0  0  0  0  0  0  0  0  0  0  0  0
   -2.4926   -1.5792   -0.6351 H   0  0  0  0  0  0  0  0  0  0  0  0
   -0.1713    0.4521   -1.7516 H   0  0  0  0  0  0  0  0  0  0  0  0
    1.2022   -0.7081   -1.9076 H   0  0  0  0  0  0  0  0  0  0  0  0
    1.8351   -1.7487    0.6984 H   0  0  0  0  0  0  0  0  0  0  0  0
    1.8481   -0.4654    2.0221 H   0  0  0  0  0  0  0  0  0  0  0  0
    3.0317   -0.1142   -0.7762 H   0  0  0  0  0  0  0  0  0  0  0  0
    2.9180    1.2400    0.4939 H   0  0  0  0  0  0  0  0  0  0  0  0
   -1.4637    1.8268   -0.3137 H   0  0  0  0  0  0  0  0  0  0  0  0
   -1.4086    1.8702    1.4569 H   0  0  0  0  0  0  0  0  0  0  0  0
  1  2  1  0
  2  3  1  0
  3  4  1  0
  4  5  1  0
  5  6  1  0
  6  7  1  0
  5  8  1  0
  8  9  1  0
  9  1  1  0
  7  5  1  0
  1 10  1  0
  1 11  1  0
  2 12  1  0
  2 13  1  0
  4 14  1  0
  4 15  1  0
  6 16  1  0
  6 17  1  0
  7 18  1  0
  7 19  1  0
  9 20  1  0
  9 21  1  0
M  END
