
     RDKit          3D

 23 24  0  0  0  0  0  0  0  0999 V2000
   -1.7893   -1.0168    0.5235 C   0  0  0  0  0  0  0  0  0  0  0  0
   -2.0391    0.4377    0.1163 C   0  0  0  0  0  0  0  0  0  0  0  0
   -1.1697    1.3087    0.7298 O   0  0  0  0  0  0  0  0  0  0  0  0
   -0.1606    1.7689   -0.1409 C   0  0  0  0  0  0  0  0  0  0  0  0
    0.6204    0.6030   -0.6294 C   0  0  0  0  0  0  0  0  0  0  0  0
    2.1084    0.6456   -0.4501 C   0  0  0  0  0  0  0  0  0  0  0  0
    2.0127   -0.7633    0.1498 C   0  0  0  0  0  0  0  0  0  0  0  0
    0.5804   -0.4709    0.4610 C   0  0  0  0  0  0  0  0  0  0  0  0
   -0.4297   -1.4871    0.0215 C   0  0  0  0  0  0  0  0  0  0  0  0
   -1.8171   -1.0817    1.6190 H   0  0  0  0  0  0  0  0  0  0  0  0
   -2.5575   -1.6369    0.0395 H   0  0  0  0  0  0  0  0  0  0  0  0
   -3.0637    0.6708    0.5059 H   0  0  0  0  0  0  0  0  0  0  0  0
   -2.0939    0.5467   -0.9751 H   0  0  0  0  0  0  0  0  0  0  0  0
    0.4317    2.5145    0.4101 H   0  0  0  0  0  0  0  0  0  0  0  0
   -0.7056    2.3053   -0.9549 H   0  0  0  0  0  0  0  0  0  0  0  0
    0.3266    0.2319   -1.6232 H   0  0  0  0  0  0  0  0  0  0  0  0
    2.4888    1.3845    0.2892 H   0  0  0  0  0  0  0  0  0  0  0  0
    2.7152    0.5674   -1.3819 H   0  0  0  0  0  0  0  0  0  0  0  0
    2.1231   -1.5749   -0.5767 H   0  0  0  0  0  0  0  0  0  0  0  0
    2.6964   -0.8672    1.0263 H   0  0  0  0  0  0  0  0  0  0  0  0
    0.4396   -0.0803    1.4787 H   0  0  0  0  0  0  0  0  0  0  0  0
   -0.2395   -2.4725    0.4593 H   0  0  0  0  0  0  0  0  0  0  0  0
   -0.4779   -1.5334   -1.0977 H   0  0  0  0  0  0  0  0  0  0  0  0
  1  2  1  0
  2  3  1  0
  3  4  1  0
  4  5  1  0
  5  6  1  0
  6  7  1  0
  7  8  1  0
  8  9  1  0
  9  1  1  0
  8  5  1  0
  1 10  1  0
  1 11  1  0
  2 12  1  0
  2 13  1  0
  4 14  1  0
  4 15  1  0
  5 16  1  0
  6 17  1  0
  6 18  1  0
  7 19  1  0
  7 20  1  0
  8 21  1  0
  9 22  1  0
  9 23  1  0
M  END
