
     RDKit          3D

 19 21  0  0  0  0  0  0  0  0999 V2000
   -1.6214    0.1011   -0.4424 C   0  0  0  0  0  0  0  0  0  0  0  0
   -0.9914    1.3441    0.1464 C   0  0  0  0  0  0  0  0  0  0  0  0
    0.0892    1.6774   -0.6551 O   0  0  0  0  0  0  0  0  0  0  0  0
    1.2701    1.0942   -0.2887 C   0  0  0  0  0  0  0  0  0  0  0  0
    1.7438   -0.1997   -0.8106 C   0  0  0  0  0  0  0  0  0  0  0  0
    0.8401   -1.1778   -1.1331 O   0  0  0  0  0  0  0  0  0  0  0  0
    0.3973   -1.2205    0.1539 C   0  0  0  0  0  0  0  0  0  0  0  0
   -1.0899   -1.0813    0.3080 C   0  0  0  0  0  0  0  0  0  0  0  0
    1.1874   -0.0626    0.6107 C   0  0  0  0  0  0  0  0  0  0  0  0
   -2.7136    0.1164   -0.4416 H   0  0  0  0  0  0  0  0  0  0  0  0
   -1.3128   -0.0200   -1.5183 H   0  0  0  0  0  0  0  0  0  0  0  0
   -1.7484    2.1630    0.1393 H   0  0  0  0  0  0  0  0  0  0  0  0
   -0.6882    1.1980    1.2129 H   0  0  0  0  0  0  0  0  0  0  0  0
    2.0814    1.8287   -0.0480 H   0  0  0  0  0  0  0  0  0  0  0  0
    2.8140   -0.4080   -0.9392 H   0  0  0  0  0  0  0  0  0  0  0  0
    0.7274   -2.1574    0.6929 H   0  0  0  0  0  0  0  0  0  0  0  0
   -1.5499   -1.9974   -0.1349 H   0  0  0  0  0  0  0  0  0  0  0  0
   -1.3977   -1.0084    1.3567 H   0  0  0  0  0  0  0  0  0  0  0  0
    1.9627   -0.1899    1.4064 H   0  0  0  0  0  0  0  0  0  0  0  0
  1  2  1  0
  2  3  1  0
  3  4  1  0
  4  5  1  0
  5  6  1  0
  6  7  1  0
  7  8  1  0
  7  9  1  0
  8  1  1  0
  9  4  1  0
  9  5  1  0
  1 10  1  0
  1 11  1  0
  2 12  1  0
  2 13  1  0
  4 14  1  0
  5 15  1  0
  7 16  1  0
  8 17  1  0
  8 18  1  0
  9 19  1  0
M  END
