
     RDKit          3D

 21 23  0  0  0  0  0  0  0  0999 V2000
   -1.8699    0.1270   -0.6215 C   0  0  0  0  0  0  0  0  0  0  0  0
   -1.9380   -0.6176    0.6704 C   0  0  0  0  0  0  0  0  0  0  0  0
   -0.7395   -1.2847    0.9145 O   0  0  0  0  0  0  0  0  0  0  0  0
    0.3119   -0.4245    1.0267 C   0  0  0  0  0  0  0  0  0  0  0  0
    1.5411   -1.0451    0.3449 C   0  0  0  0  0  0  0  0  0  0  0  0
    1.9032    0.3954    0.2937 C   0  0  0  0  0  0  0  0  0  0  0  0
    1.4819    1.4238   -0.5430 C   0  0  0  0  0  0  0  0  0  0  0  0
    0.3959    0.6308   -0.0295 C   0  0  0  0  0  0  0  0  0  0  0  0
   -0.4056    0.0800   -1.1154 C   0  0  0  0  0  0  0  0  0  0  0  0
   -2.0318    1.2167   -0.3807 H   0  0  0  0  0  0  0  0  0  0  0  0
   -2.5548   -0.2250   -1.3877 H   0  0  0  0  0  0  0  0  0  0  0  0
   -2.1021    0.0531    1.5557 H   0  0  0  0  0  0  0  0  0  0  0  0
   -2.7756   -1.3429    0.6325 H   0  0  0  0  0  0  0  0  0  0  0  0
    0.5289   -0.1318    2.0537 H   0  0  0  0  0  0  0  0  0  0  0  0
    2.1317   -1.6485    1.0875 H   0  0  0  0  0  0  0  0  0  0  0  0
    1.4037   -1.6161   -0.5437 H   0  0  0  0  0  0  0  0  0  0  0  0
    2.1058    0.7293    1.3713 H   0  0  0  0  0  0  0  0  0  0  0  0
    1.8459    1.4151   -1.6190 H   0  0  0  0  0  0  0  0  0  0  0  0
    1.4795    2.5065   -0.2103 H   0  0  0  0  0  0  0  0  0  0  0  0
   -0.2665   -0.9401   -1.4443 H   0  0  0  0  0  0  0  0  0  0  0  0
   -0.4456    0.6986   -2.0558 H   0  0  0  0  0  0  0  0  0  0  0  0
  1  2  1  0
  2  3  1  0
  3  4  1  0
  4  5  1  0
  5  6  1  0
  6  7  1  0
  7  8  1  0
  8  9  1  0
  9  1  1  0
  8  4  1  0
  8  6  1  0
  1 10  1  0
  1 11  1  0
  2 12  1  0
  2 13  1  0
  4 14  1  0
  5 15  1  0
  5 16  1  0
  6 17  1  0
  7 18  1  0
  7 19  1  0
  9 20  1  0
  9 21  1  0
M  END
