
     RDKit          3D

 23 24  0  0  0  0  0  0  0  0999 V2000
    1.9035   -0.1178   -0.7914 C   0  0  0  0  0  0  0  0  0  0  0  0
    1.7179    1.1936   -0.1426 C   0  0  0  0  0  0  0  0  0  0  0  0
    0.7728    1.2676    0.8483 O   0  0  0  0  0  0  0  0  0  0  0  0
    0.4033    0.0816    1.4044 C   0  0  0  0  0  0  0  0  0  0  0  0
   -0.1453   -0.9322    0.4430 C   0  0  0  0  0  0  0  0  0  0  0  0
   -1.5199   -0.6337   -0.0734 C   0  0  0  0  0  0  0  0  0  0  0  0
   -1.8320    0.5965   -0.8286 C   0  0  0  0  0  0  0  0  0  0  0  0
   -2.3305    0.3834    0.6279 C   0  0  0  0  0  0  0  0  0  0  0  0
    0.8462   -1.1270   -0.6508 C   0  0  0  0  0  0  0  0  0  0  0  0
    2.0739    0.0584   -1.8964 H   0  0  0  0  0  0  0  0  0  0  0  0
    2.8961   -0.5429   -0.4550 H   0  0  0  0  0  0  0  0  0  0  0  0
    2.6746    1.5702    0.3052 H   0  0  0  0  0  0  0  0  0  0  0  0
    1.4426    1.9806   -0.8961 H   0  0  0  0  0  0  0  0  0  0  0  0
    1.2643   -0.4153    1.9303 H   0  0  0  0  0  0  0  0  0  0  0  0
   -0.3492    0.2627    2.1944 H   0  0  0  0  0  0  0  0  0  0  0  0
   -0.2469   -1.8781    1.0580 H   0  0  0  0  0  0  0  0  0  0  0  0
   -2.0881   -1.5733   -0.3509 H   0  0  0  0  0  0  0  0  0  0  0  0
   -2.6294    0.4988   -1.6134 H   0  0  0  0  0  0  0  0  0  0  0  0
   -1.0403    1.3154   -1.0092 H   0  0  0  0  0  0  0  0  0  0  0  0
   -1.9390    1.1484    1.2975 H   0  0  0  0  0  0  0  0  0  0  0  0
   -3.4328    0.2566    0.7256 H   0  0  0  0  0  0  0  0  0  0  0  0
    0.2435   -1.2446   -1.6012 H   0  0  0  0  0  0  0  0  0  0  0  0
    1.3148   -2.1490   -0.5256 H   0  0  0  0  0  0  0  0  0  0  0  0
  1  2  1  0
  2  3  1  0
  3  4  1  0
  4  5  1  0
  5  6  1  0
  6  7  1  0
  7  8  1  0
  5  9  1  0
  9  1  1  0
  8  6  1  0
  1 10  1  0
  1 11  1  0
  2 12  1  0
  2 13  1  0
  4 14  1  0
  4 15  1  0
  5 16  1  0
  6 17  1  0
  7 18  1  0
  7 19  1  0
  8 20  1  0
  8 21  1  0
  9 22  1  0
  9 23  1  0
M  END
