
     RDKit          3D

 10 10  0  0  0  0  0  0  0  0999 V2000
   -0.0332    0.8022   -0.0988 C   0  0  0  0  0  0  0  0  0  0  0  0
   -0.9618   -0.3722   -0.0298 C   0  0  0  0  0  0  0  0  0  0  0  0
    0.0516   -1.1863   -0.5389 O   0  0  0  0  0  0  0  0  0  0  0  0
    0.9663   -0.3265    0.0700 C   0  0  0  0  0  0  0  0  0  0  0  0
    0.0052    1.4612    0.7704 H   0  0  0  0  0  0  0  0  0  0  0  0
    0.0384    1.2922   -1.0740 H   0  0  0  0  0  0  0  0  0  0  0  0
   -1.2625   -0.5675    1.0066 H   0  0  0  0  0  0  0  0  0  0  0  0
   -1.8277   -0.3472   -0.7023 H   0  0  0  0  0  0  0  0  0  0  0  0
    1.1497   -0.6493    1.0985 H   0  0  0  0  0  0  0  0  0  0  0  0
    1.8741   -0.1069   -0.5017 H   0  0  0  0  0  0  0  0  0  0  0  0
  1  2  1  0
  2  3  1  0
  3  4  1  0
  4  1  1  0
  1  5  1  0
  1  6  1  0
  2  7  1  0
  2  8  1  0
  4  9  1  0
  4 10  1  0
M  END
