
     RDKit          3D

 21 22  0  0  0  0  0  0  0  0999 V2000
   -1.8887   -0.3881   -0.4961 C   0  0  0  0  0  0  0  0  0  0  0  0
   -2.2704    0.4046    0.7085 C   0  0  0  0  0  0  0  0  0  0  0  0
   -1.3016    1.0010    1.3975 O   0  0  0  0  0  0  0  0  0  0  0  0
   -0.0232    0.9675    1.0259 C   0  0  0  0  0  0  0  0  0  0  0  0
    0.4102   -0.0079    0.0056 C   0  0  0  0  0  0  0  0  0  0  0  0
    1.7835   -0.5839    0.2526 C   0  0  0  0  0  0  0  0  0  0  0  0
    2.9002    0.3595    0.2973 C   0  0  0  0  0  0  0  0  0  0  0  0
    2.7331   -0.3677   -0.8656 O   0  0  0  0  0  0  0  0  0  0  0  0
   -0.6072   -1.1527   -0.1281 C   0  0  0  0  0  0  0  0  0  0  0  0
   -2.7109   -1.0808   -0.7387 H   0  0  0  0  0  0  0  0  0  0  0  0
   -1.6533    0.3148   -1.3387 H   0  0  0  0  0  0  0  0  0  0  0  0
   -3.0751    1.1259    0.3752 H   0  0  0  0  0  0  0  0  0  0  0  0
   -2.8282   -0.3017    1.3944 H   0  0  0  0  0  0  0  0  0  0  0  0
    0.2885    1.9961    0.6754 H   0  0  0  0  0  0  0  0  0  0  0  0
    0.6158    0.8063    1.9455 H   0  0  0  0  0  0  0  0  0  0  0  0
    0.3841    0.4896   -0.9982 H   0  0  0  0  0  0  0  0  0  0  0  0
    1.8863   -1.6350    0.5640 H   0  0  0  0  0  0  0  0  0  0  0  0
    3.7881    0.0932    0.9219 H   0  0  0  0  0  0  0  0  0  0  0  0
    2.6753    1.4323    0.2487 H   0  0  0  0  0  0  0  0  0  0  0  0
   -0.3055   -1.8420   -0.9282 H   0  0  0  0  0  0  0  0  0  0  0  0
   -0.8008   -1.6307    0.8426 H   0  0  0  0  0  0  0  0  0  0  0  0
  1  2  1  0
  2  3  1  0
  3  4  1  0
  4  5  1  0
  5  6  1  0
  6  7  1  0
  7  8  1  0
  5  9  1  0
  9  1  1  0
  8  6  1  0
  1 10  1  0
  1 11  1  0
  2 12  1  0
  2 13  1  0
  4 14  1  0
  4 15  1  0
  5 16  1  0
  6 17  1  0
  7 18  1  0
  7 19  1  0
  9 20  1  0
  9 21  1  0
M  END
