
     RDKit          3D

 23 24  0  0  0  0  0  0  0  0999 V2000
    1.2386   -1.0335    0.4952 C   0  0  0  0  0  0  0  0  0  0  0  0
    2.1891    0.1374    0.1984 C   0  0  0  0  0  0  0  0  0  0  0  0
    1.5168    1.1159   -0.5462 O   0  0  0  0  0  0  0  0  0  0  0  0
    0.3453    1.5405    0.1225 C   0  0  0  0  0  0  0  0  0  0  0  0
   -0.8553    1.3435   -0.7119 C   0  0  0  0  0  0  0  0  0  0  0  0
   -1.7691    0.2320   -0.3187 C   0  0  0  0  0  0  0  0  0  0  0  0
   -1.7037   -0.4986    0.9346 C   0  0  0  0  0  0  0  0  0  0  0  0
   -1.1641   -1.1143   -0.2660 C   0  0  0  0  0  0  0  0  0  0  0  0
    0.2741   -1.1991   -0.6221 C   0  0  0  0  0  0  0  0  0  0  0  0
    0.8010   -0.8863    1.4876 H   0  0  0  0  0  0  0  0  0  0  0  0
    1.9327   -1.9206    0.6054 H   0  0  0  0  0  0  0  0  0  0  0  0
    2.6487    0.5181    1.1071 H   0  0  0  0  0  0  0  0  0  0  0  0
    2.9937   -0.2445   -0.4654 H   0  0  0  0  0  0  0  0  0  0  0  0
    0.5300    2.6406    0.3084 H   0  0  0  0  0  0  0  0  0  0  0  0
    0.3588    1.0687    1.0996 H   0  0  0  0  0  0  0  0  0  0  0  0
   -1.4720    2.2913   -0.6619 H   0  0  0  0  0  0  0  0  0  0  0  0
   -0.5598    1.3012   -1.8023 H   0  0  0  0  0  0  0  0  0  0  0  0
   -2.7760    0.3150   -0.8296 H   0  0  0  0  0  0  0  0  0  0  0  0
   -1.0820   -0.1807    1.8100 H   0  0  0  0  0  0  0  0  0  0  0  0
   -2.6866   -0.8989    1.3335 H   0  0  0  0  0  0  0  0  0  0  0  0
   -1.7747   -1.9539   -0.7177 H   0  0  0  0  0  0  0  0  0  0  0  0
    0.4704   -0.4127   -1.4083 H   0  0  0  0  0  0  0  0  0  0  0  0
    0.5441   -2.1610   -1.1522 H   0  0  0  0  0  0  0  0  0  0  0  0
  1  2  1  0
  2  3  1  0
  3  4  1  0
  4  5  1  0
  5  6  1  0
  6  7  1  0
  7  8  1  0
  8  9  1  0
  9  1  1  0
  8  6  1  0
  1 10  1  0
  1 11  1  0
  2 12  1  0
  2 13  1  0
  4 14  1  0
  4 15  1  0
  5 16  1  0
  5 17  1  0
  6 18  1  0
  7 19  1  0
  7 20  1  0
  8 21  1  0
  9 22  1  0
  9 23  1  0
M  END
