
     RDKit          3D

 19 21  0  0  0  0  0  0  0  0999 V2000
   -1.9993    0.0778    0.3023 C   0  0  0  0  0  0  0  0  0  0  0  0
   -1.4554   -0.4427   -1.0181 C   0  0  0  0  0  0  0  0  0  0  0  0
   -0.3297    0.3408   -1.2439 O   0  0  0  0  0  0  0  0  0  0  0  0
    0.3216    0.2515   -0.0105 C   0  0  0  0  0  0  0  0  0  0  0  0
   -0.7458    0.6197    0.9524 C   0  0  0  0  0  0  0  0  0  0  0  0
    1.6248    0.9838    0.0862 C   0  0  0  0  0  0  0  0  0  0  0  0
    2.3027   -0.3451   -0.1756 C   0  0  0  0  0  0  0  0  0  0  0  0
    2.1429   -1.2613    0.8316 O   0  0  0  0  0  0  0  0  0  0  0  0
    0.9840   -1.0687    0.1390 C   0  0  0  0  0  0  0  0  0  0  0  0
   -2.7523    0.8595    0.1688 H   0  0  0  0  0  0  0  0  0  0  0  0
   -2.3852   -0.7417    0.9469 H   0  0  0  0  0  0  0  0  0  0  0  0
   -2.1838   -0.3574   -1.8407 H   0  0  0  0  0  0  0  0  0  0  0  0
   -1.2379   -1.5063   -0.8766 H   0  0  0  0  0  0  0  0  0  0  0  0
   -0.5836    0.2670    1.9690 H   0  0  0  0  0  0  0  0  0  0  0  0
   -0.8366    1.7404    0.9672 H   0  0  0  0  0  0  0  0  0  0  0  0
    1.8154    1.2824    1.1364 H   0  0  0  0  0  0  0  0  0  0  0  0
    1.8204    1.7754   -0.6338 H   0  0  0  0  0  0  0  0  0  0  0  0
    2.7590   -0.5675   -1.1281 H   0  0  0  0  0  0  0  0  0  0  0  0
    0.7390   -1.9077   -0.5726 H   0  0  0  0  0  0  0  0  0  0  0  0
  1  2  1  0
  2  3  1  0
  3  4  1  0
  4  5  1  0
  4  6  1  0
  6  7  1  0
  7  8  1  0
  8  9  1  0
  5  1  1  0
  9  7  1  0
  9  4  1  0
  1 10  1  0
  1 11  1  0
  2 12  1  0
  2 13  1  0
  5 14  1  0
  5 15  1  0
  6 16  1  0
  6 17  1  0
  7 18  1  0
  9 19  1  0
M  END
