
     RDKit          3D

 21 23  0  0  0  0  0  0  0  0999 V2000
   -1.8215   -0.1915    0.0715 C   0  0  0  0  0  0  0  0  0  0  0  0
   -1.2585   -1.1815    1.0705 C   0  0  0  0  0  0  0  0  0  0  0  0
    0.0164   -0.7884    1.4361 O   0  0  0  0  0  0  0  0  0  0  0  0
    0.9549   -1.0832    0.4683 C   0  0  0  0  0  0  0  0  0  0  0  0
    1.9200   -0.0808   -0.0193 C   0  0  0  0  0  0  0  0  0  0  0  0
    1.5346    1.3284   -0.3265 C   0  0  0  0  0  0  0  0  0  0  0  0
    0.1972    0.8953   -0.8579 C   0  0  0  0  0  0  0  0  0  0  0  0
   -0.9613    1.0611    0.0913 C   0  0  0  0  0  0  0  0  0  0  0  0
    0.6826   -0.5152   -0.8694 C   0  0  0  0  0  0  0  0  0  0  0  0
   -1.8310   -0.6421   -0.9540 H   0  0  0  0  0  0  0  0  0  0  0  0
   -2.8598    0.0578    0.3760 H   0  0  0  0  0  0  0  0  0  0  0  0
   -1.9032   -1.2877    1.9715 H   0  0  0  0  0  0  0  0  0  0  0  0
   -1.1801   -2.1799    0.6019 H   0  0  0  0  0  0  0  0  0  0  0  0
    1.2971   -2.1300    0.4768 H   0  0  0  0  0  0  0  0  0  0  0  0
    2.9000   -0.4274   -0.3659 H   0  0  0  0  0  0  0  0  0  0  0  0
    2.1721    1.8204   -1.1171 H   0  0  0  0  0  0  0  0  0  0  0  0
    1.4140    2.0025    0.5489 H   0  0  0  0  0  0  0  0  0  0  0  0
   -0.0797    1.2534   -1.8567 H   0  0  0  0  0  0  0  0  0  0  0  0
   -0.5857    1.1563    1.1447 H   0  0  0  0  0  0  0  0  0  0  0  0
   -1.5382    1.9769   -0.1046 H   0  0  0  0  0  0  0  0  0  0  0  0
    0.9301   -1.0443   -1.7861 H   0  0  0  0  0  0  0  0  0  0  0  0
  1  2  1  0
  2  3  1  0
  3  4  1  0
  4  5  1  0
  5  6  1  0
  6  7  1  0
  7  8  1  0
  7  9  1  0
  8  1  1  0
  9  4  1  0
  9  5  1  0
  1 10  1  0
  1 11  1  0
  2 12  1  0
  2 13  1  0
  4 14  1  0
  5 15  1  0
  6 16  1  0
  6 17  1  0
  7 18  1  0
  8 19  1  0
  8 20  1  0
  9 21  1  0
M  END
