
     RDKit          3D

 18 19  0  0  0  0  0  0  0  0999 V2000
    1.6975    0.7715   -0.1638 C   0  0  0  0  0  0  0  0  0  0  0  0
    1.6584   -0.7040   -0.1977 C   0  0  0  0  0  0  0  0  0  0  0  0
    0.6572   -1.3318    0.4408 O   0  0  0  0  0  0  0  0  0  0  0  0
   -0.4466   -0.6488    0.7907 C   0  0  0  0  0  0  0  0  0  0  0  0
   -1.5522   -0.8303   -0.2598 C   0  0  0  0  0  0  0  0  0  0  0  0
   -1.6245    0.6531   -0.4213 C   0  0  0  0  0  0  0  0  0  0  0  0
   -0.4995    0.7900    0.5973 C   0  0  0  0  0  0  0  0  0  0  0  0
    0.5562    1.4380    0.0814 O   0  0  0  0  0  0  0  0  0  0  0  0
    2.4719    1.1133    0.5836 H   0  0  0  0  0  0  0  0  0  0  0  0
    2.1104    1.1502   -1.1467 H   0  0  0  0  0  0  0  0  0  0  0  0
    2.6270   -1.1093    0.2199 H   0  0  0  0  0  0  0  0  0  0  0  0
    1.6705   -1.0601   -1.2706 H   0  0  0  0  0  0  0  0  0  0  0  0
   -0.8097   -0.9830    1.8080 H   0  0  0  0  0  0  0  0  0  0  0  0
   -1.2031   -1.3607   -1.1774 H   0  0  0  0  0  0  0  0  0  0  0  0
   -2.4462   -1.3249    0.1636 H   0  0  0  0  0  0  0  0  0  0  0  0
   -2.5945    1.0474   -0.1131 H   0  0  0  0  0  0  0  0  0  0  0  0
   -1.3601    1.0508   -1.4295 H   0  0  0  0  0  0  0  0  0  0  0  0
   -0.9126    1.3386    1.4948 H   0  0  0  0  0  0  0  0  0  0  0  0
  1  2  1  0
  2  3  1  0
  3  4  1  0
  4  5  1  0
  5  6  1  0
  6  7  1  0
  7  8  1  0
  8  1  1  0
  7  4  1  0
  1  9  1  0
  1 10  1  0
  2 11  1  0
  2 12  1  0
  4 13  1  0
  5 14  1  0
  5 15  1  0
  6 16  1  0
  6 17  1  0
  7 18  1  0
M  END
