
     RDKit          3D

 18 19  0  0  0  0  0  0  0  0999 V2000
    2.0328   -0.0996    0.2192 C   0  0  0  0  0  0  0  0  0  0  0  0
    1.2904    1.2029    0.2299 C   0  0  0  0  0  0  0  0  0  0  0  0
    0.0765    1.1587   -0.4265 O   0  0  0  0  0  0  0  0  0  0  0  0
   -0.6477    0.0555   -0.0295 C   0  0  0  0  0  0  0  0  0  0  0  0
   -1.7140    0.1259    0.9787 C   0  0  0  0  0  0  0  0  0  0  0  0
   -2.0982   -0.0538   -0.4449 C   0  0  0  0  0  0  0  0  0  0  0  0
    0.1428   -1.2109   -0.2716 C   0  0  0  0  0  0  0  0  0  0  0  0
    1.2634   -1.1936    0.5314 O   0  0  0  0  0  0  0  0  0  0  0  0
    2.5343   -0.2911   -0.7407 H   0  0  0  0  0  0  0  0  0  0  0  0
    2.8161   -0.0160    1.0279 H   0  0  0  0  0  0  0  0  0  0  0  0
    1.1457    1.5895    1.2563 H   0  0  0  0  0  0  0  0  0  0  0  0
    1.9282    1.9380   -0.3384 H   0  0  0  0  0  0  0  0  0  0  0  0
   -1.8184   -0.7716    1.6398 H   0  0  0  0  0  0  0  0  0  0  0  0
   -1.9202    1.1154    1.4565 H   0  0  0  0  0  0  0  0  0  0  0  0
   -2.5077   -1.0367   -0.7500 H   0  0  0  0  0  0  0  0  0  0  0  0
   -2.4437    0.7756   -1.0749 H   0  0  0  0  0  0  0  0  0  0  0  0
    0.4315   -1.1963   -1.3503 H   0  0  0  0  0  0  0  0  0  0  0  0
   -0.5118   -2.0919   -0.0672 H   0  0  0  0  0  0  0  0  0  0  0  0
  1  2  1  0
  2  3  1  0
  3  4  1  0
  4  5  1  0
  5  6  1  0
  4  7  1  0
  7  8  1  0
  8  1  1  0
  6  4  1  0
  1  9  1  0
  1 10  1  0
  2 11  1  0
  2 12  1  0
  5 13  1  0
  5 14  1  0
  6 15  1  0
  6 16  1  0
  7 17  1  0
  7 18  1  0
M  END
