
     RDKit          3D

 14 14  0  0  0  0  0  0  0  0999 V2000
   -1.0786   -0.0723   -0.1703 C   0  0  0  0  0  0  0  0  0  0  0  0
   -0.2526   -1.2975   -0.1227 C   0  0  0  0  0  0  0  0  0  0  0  0
    1.0926   -1.1321   -0.0160 O   0  0  0  0  0  0  0  0  0  0  0  0
    1.5103    0.1153    0.3884 C   0  0  0  0  0  0  0  0  0  0  0  0
    1.0312    1.0393   -0.5399 O   0  0  0  0  0  0  0  0  0  0  0  0
   -0.3221    1.2094   -0.2815 C   0  0  0  0  0  0  0  0  0  0  0  0
   -1.7886   -0.1069   -1.0496 H   0  0  0  0  0  0  0  0  0  0  0  0
   -1.7724    0.0090    0.7184 H   0  0  0  0  0  0  0  0  0  0  0  0
   -0.5890   -1.9294    0.7440 H   0  0  0  0  0  0  0  0  0  0  0  0
   -0.4452   -1.9180   -1.0452 H   0  0  0  0  0  0  0  0  0  0  0  0
    2.6270    0.1101    0.3741 H   0  0  0  0  0  0  0  0  0  0  0  0
    1.1069    0.2884    1.4080 H   0  0  0  0  0  0  0  0  0  0  0  0
   -0.7307    1.8860   -1.0721 H   0  0  0  0  0  0  0  0  0  0  0  0
   -0.3889    1.7987    0.6645 H   0  0  0  0  0  0  0  0  0  0  0  0
  1  2  1  0
  2  3  1  0
  3  4  1  0
  4  5  1  0
  5  6  1  0
  6  1  1  0
  1  7  1  0
  1  8  1  0
  2  9  1  0
  2 10  1  0
  4 11  1  0
  4 12  1  0
  6 13  1  0
  6 14  1  0
M  END
