
     RDKit          3D

 14 14  0  0  0  0  0  0  0  0999 V2000
   -1.2338   -0.4993    0.4542 C   0  0  0  0  0  0  0  0  0  0  0  0
   -1.0430    0.7894   -0.2747 C   0  0  0  0  0  0  0  0  0  0  0  0
    0.1656    1.4033   -0.0415 O   0  0  0  0  0  0  0  0  0  0  0  0
    1.2533    0.5872   -0.0451 C   0  0  0  0  0  0  0  0  0  0  0  0
    0.9978   -0.8665   -0.0530 C   0  0  0  0  0  0  0  0  0  0  0  0
   -0.1430   -1.2966    0.5464 O   0  0  0  0  0  0  0  0  0  0  0  0
   -2.0573   -1.0763   -0.0442 H   0  0  0  0  0  0  0  0  0  0  0  0
   -1.6123   -0.3079    1.4991 H   0  0  0  0  0  0  0  0  0  0  0  0
   -1.8403    1.5176    0.0439 H   0  0  0  0  0  0  0  0  0  0  0  0
   -1.2234    0.6020   -1.3586 H   0  0  0  0  0  0  0  0  0  0  0  0
    1.8892    0.8706   -0.9305 H   0  0  0  0  0  0  0  0  0  0  0  0
    1.8913    0.8688    0.8414 H   0  0  0  0  0  0  0  0  0  0  0  0
    1.0903   -1.2298   -1.1154 H   0  0  0  0  0  0  0  0  0  0  0  0
    1.8655   -1.3624    0.4780 H   0  0  0  0  0  0  0  0  0  0  0  0
  1  2  1  0
  2  3  1  0
  3  4  1  0
  4  5  1  0
  5  6  1  0
  6  1  1  0
  1  7  1  0
  1  8  1  0
  2  9  1  0
  2 10  1  0
  4 11  1  0
  4 12  1  0
  5 13  1  0
  5 14  1  0
M  END
