
     RDKit          3D

 17 18  0  0  0  0  0  0  0  0999 V2000
   -1.6951   -0.5314   -0.3291 C   0  0  0  0  0  0  0  0  0  0  0  0
   -1.5831    0.8756    0.2378 C   0  0  0  0  0  0  0  0  0  0  0  0
   -0.3815    0.9248    0.9033 O   0  0  0  0  0  0  0  0  0  0  0  0
    0.5152    0.1330    0.2329 C   0  0  0  0  0  0  0  0  0  0  0  0
   -0.2511   -0.8856   -0.5595 C   0  0  0  0  0  0  0  0  0  0  0  0
    1.7888   -0.3002    0.8216 C   0  0  0  0  0  0  0  0  0  0  0  0
    1.7785    0.7209   -0.2500 C   0  0  0  0  0  0  0  0  0  0  0  0
   -2.1245   -1.2419    0.3921 H   0  0  0  0  0  0  0  0  0  0  0  0
   -2.1944   -0.5237   -1.3129 H   0  0  0  0  0  0  0  0  0  0  0  0
   -2.4125    0.9885    0.9608 H   0  0  0  0  0  0  0  0  0  0  0  0
   -1.6478    1.6259   -0.5734 H   0  0  0  0  0  0  0  0  0  0  0  0
    0.0136   -1.8876   -0.1458 H   0  0  0  0  0  0  0  0  0  0  0  0
    0.0340   -0.8674   -1.6188 H   0  0  0  0  0  0  0  0  0  0  0  0
    2.1157   -1.3490    0.6305 H   0  0  0  0  0  0  0  0  0  0  0  0
    1.9830    0.0611    1.8655 H   0  0  0  0  0  0  0  0  0  0  0  0
    2.0570    0.4871   -1.2910 H   0  0  0  0  0  0  0  0  0  0  0  0
    2.0043    1.7699    0.0358 H   0  0  0  0  0  0  0  0  0  0  0  0
  1  2  1  0
  2  3  1  0
  3  4  1  0
  4  5  1  0
  4  6  1  0
  6  7  1  0
  5  1  1  0
  7  4  1  0
  1  8  1  0
  1  9  1  0
  2 10  1  0
  2 11  1  0
  5 12  1  0
  5 13  1  0
  6 14  1  0
  6 15  1  0
  7 16  1  0
  7 17  1  0
M  END
