
     RDKit          3D

 21 23  0  0  0  0  0  0  0  0999 V2000
   -1.8192    0.0811    0.4365 C   0  0  0  0  0  0  0  0  0  0  0  0
   -1.4978   -1.3554    0.0579 C   0  0  0  0  0  0  0  0  0  0  0  0
   -0.1780   -1.6445    0.1190 O   0  0  0  0  0  0  0  0  0  0  0  0
    0.7131   -0.6802   -0.1326 C   0  0  0  0  0  0  0  0  0  0  0  0
    2.1574   -0.9720   -0.0313 C   0  0  0  0  0  0  0  0  0  0  0  0
    1.5251    0.0369    0.8652 C   0  0  0  0  0  0  0  0  0  0  0  0
    1.1963    1.3489    0.2155 C   0  0  0  0  0  0  0  0  0  0  0  0
    0.2892    0.5761   -0.7461 C   0  0  0  0  0  0  0  0  0  0  0  0
   -1.1409    0.9485   -0.6086 C   0  0  0  0  0  0  0  0  0  0  0  0
   -1.4636    0.2863    1.4559 H   0  0  0  0  0  0  0  0  0  0  0  0
   -2.9036    0.2064    0.2950 H   0  0  0  0  0  0  0  0  0  0  0  0
   -2.0739   -1.9914    0.7725 H   0  0  0  0  0  0  0  0  0  0  0  0
   -1.9773   -1.5207   -0.9376 H   0  0  0  0  0  0  0  0  0  0  0  0
    2.7828   -0.5713   -0.8734 H   0  0  0  0  0  0  0  0  0  0  0  0
    2.5753   -1.8470    0.4582 H   0  0  0  0  0  0  0  0  0  0  0  0
    1.3928   -0.1254    1.9372 H   0  0  0  0  0  0  0  0  0  0  0  0
    2.0973    1.7172   -0.3419 H   0  0  0  0  0  0  0  0  0  0  0  0
    0.6871    2.0797    0.8463 H   0  0  0  0  0  0  0  0  0  0  0  0
    0.6075    0.6757   -1.8236 H   0  0  0  0  0  0  0  0  0  0  0  0
   -1.2887    2.0267   -0.3903 H   0  0  0  0  0  0  0  0  0  0  0  0
   -1.6809    0.7242   -1.5737 H   0  0  0  0  0  0  0  0  0  0  0  0
  1  2  1  0
  2  3  1  0
  3  4  1  0
  4  5  1  0
  5  6  1  0
  6  7  1  0
  7  8  1  0
  8  9  1  0
  9  1  1  0
  6  4  1  0
  8  4  1  0
  1 10  1  0
  1 11  1  0
  2 12  1  0
  2 13  1  0
  5 14  1  0
  5 15  1  0
  6 16  1  0
  7 17  1  0
  7 18  1  0
  8 19  1  0
  9 20  1  0
  9 21  1  0
M  END
