
     RDKit          3D

 19 20  0  0  0  0  0  0  0  0999 V2000
    1.1890   -1.5497   -0.2298 C   0  0  0  0  0  0  0  0  0  0  0  0
    1.6140   -0.1278    0.0737 C   0  0  0  0  0  0  0  0  0  0  0  0
    0.9270    0.7912   -0.7065 O   0  0  0  0  0  0  0  0  0  0  0  0
    0.2529    1.6539    0.1079 C   0  0  0  0  0  0  0  0  0  0  0  0
   -1.1359    1.2832    0.4745 C   0  0  0  0  0  0  0  0  0  0  0  0
   -2.1117    1.1329   -0.5092 O   0  0  0  0  0  0  0  0  0  0  0  0
   -1.6394    0.0126    0.3516 C   0  0  0  0  0  0  0  0  0  0  0  0
   -1.0500   -1.0311   -0.5110 C   0  0  0  0  0  0  0  0  0  0  0  0
   -0.1066   -1.8112    0.1335 O   0  0  0  0  0  0  0  0  0  0  0  0
    1.8465   -2.2156    0.3665 H   0  0  0  0  0  0  0  0  0  0  0  0
    1.4174   -1.7307   -1.2927 H   0  0  0  0  0  0  0  0  0  0  0  0
    2.6926   -0.0511   -0.2189 H   0  0  0  0  0  0  0  0  0  0  0  0
    1.4978    0.0862    1.1772 H   0  0  0  0  0  0  0  0  0  0  0  0
    0.3399    2.6756   -0.3364 H   0  0  0  0  0  0  0  0  0  0  0  0
    0.8385    1.7255    1.0707 H   0  0  0  0  0  0  0  0  0  0  0  0
   -1.5312    1.9266    1.3213 H   0  0  0  0  0  0  0  0  0  0  0  0
   -2.4577   -0.3561    1.0355 H   0  0  0  0  0  0  0  0  0  0  0  0
   -0.6982   -0.6686   -1.5179 H   0  0  0  0  0  0  0  0  0  0  0  0
   -1.8849   -1.7459   -0.7901 H   0  0  0  0  0  0  0  0  0  0  0  0
  1  2  1  0
  2  3  1  0
  3  4  1  0
  4  5  1  0
  5  6  1  0
  6  7  1  0
  7  8  1  0
  8  9  1  0
  9  1  1  0
  7  5  1  0
  1 10  1  0
  1 11  1  0
  2 12  1  0
  2 13  1  0
  4 14  1  0
  4 15  1  0
  5 16  1  0
  7 17  1  0
  8 18  1  0
  8 19  1  0
M  END
