
     RDKit          3D

 21 22  0  0  0  0  0  0  0  0999 V2000
   -1.2270    1.0661   -0.7998 C   0  0  0  0  0  0  0  0  0  0  0  0
   -2.0381    0.4513    0.3014 C   0  0  0  0  0  0  0  0  0  0  0  0
   -2.0256   -0.9266    0.2980 O   0  0  0  0  0  0  0  0  0  0  0  0
   -0.8375   -1.4725    0.7651 C   0  0  0  0  0  0  0  0  0  0  0  0
    0.0122   -0.4498    1.2280 O   0  0  0  0  0  0  0  0  0  0  0  0
    0.8116   -0.0069    0.2009 C   0  0  0  0  0  0  0  0  0  0  0  0
    0.2289    1.1999   -0.4627 C   0  0  0  0  0  0  0  0  0  0  0  0
    2.3123    0.0395    0.3643 C   0  0  0  0  0  0  0  0  0  0  0  0
    1.6458   -0.9875   -0.4896 C   0  0  0  0  0  0  0  0  0  0  0  0
   -1.6012    2.1115   -0.9931 H   0  0  0  0  0  0  0  0  0  0  0  0
   -1.3857    0.5269   -1.7570 H   0  0  0  0  0  0  0  0  0  0  0  0
   -1.6787    0.8094    1.2741 H   0  0  0  0  0  0  0  0  0  0  0  0
   -3.0981    0.7704    0.1801 H   0  0  0  0  0  0  0  0  0  0  0  0
   -0.3732   -2.0515   -0.0590 H   0  0  0  0  0  0  0  0  0  0  0  0
   -1.0170   -2.1761    1.6128 H   0  0  0  0  0  0  0  0  0  0  0  0
    0.3904    2.0659    0.2262 H   0  0  0  0  0  0  0  0  0  0  0  0
    0.7796    1.4518   -1.3900 H   0  0  0  0  0  0  0  0  0  0  0  0
    2.7709   -0.2176    1.3318 H   0  0  0  0  0  0  0  0  0  0  0  0
    2.8795    0.8228   -0.1989 H   0  0  0  0  0  0  0  0  0  0  0  0
    1.7708   -1.0053   -1.5830 H   0  0  0  0  0  0  0  0  0  0  0  0
    1.6800   -2.0217   -0.0496 H   0  0  0  0  0  0  0  0  0  0  0  0
  1  2  1  0
  2  3  1  0
  3  4  1  0
  4  5  1  0
  5  6  1  0
  6  7  1  0
  6  8  1  0
  8  9  1  0
  7  1  1  0
  9  6  1  0
  1 10  1  0
  1 11  1  0
  2 12  1  0
  2 13  1  0
  4 14  1  0
  4 15  1  0
  7 16  1  0
  7 17  1  0
  8 18  1  0
  8 19  1  0
  9 20  1  0
  9 21  1  0
M  END
