
     RDKit          3D

 19 20  0  0  0  0  0  0  0  0999 V2000
   -2.3393   -0.2190    0.2797 C   0  0  0  0  0  0  0  0  0  0  0  0
   -1.4947    0.4454    1.2928 C   0  0  0  0  0  0  0  0  0  0  0  0
   -0.1492    0.3287    1.1523 O   0  0  0  0  0  0  0  0  0  0  0  0
    0.3632    0.2137   -0.1009 C   0  0  0  0  0  0  0  0  0  0  0  0
    1.6883   -0.5034    0.0090 C   0  0  0  0  0  0  0  0  0  0  0  0
    2.9101    0.3108   -0.2698 C   0  0  0  0  0  0  0  0  0  0  0  0
    2.4318   -0.7534   -1.1344 O   0  0  0  0  0  0  0  0  0  0  0  0
   -0.5152   -0.4622   -1.1060 C   0  0  0  0  0  0  0  0  0  0  0  0
   -1.6328   -1.0622   -0.5619 O   0  0  0  0  0  0  0  0  0  0  0  0
   -3.1080   -0.8474    0.7858 H   0  0  0  0  0  0  0  0  0  0  0  0
   -2.9327    0.5366   -0.3120 H   0  0  0  0  0  0  0  0  0  0  0  0
   -1.7291    1.5511    1.3066 H   0  0  0  0  0  0  0  0  0  0  0  0
   -1.7558    0.1006    2.3265 H   0  0  0  0  0  0  0  0  0  0  0  0
    0.5791    1.2288   -0.4873 H   0  0  0  0  0  0  0  0  0  0  0  0
    1.7811   -1.2145    0.8627 H   0  0  0  0  0  0  0  0  0  0  0  0
    3.8660    0.0614    0.2476 H   0  0  0  0  0  0  0  0  0  0  0  0
    2.8102    1.3133   -0.7432 H   0  0  0  0  0  0  0  0  0  0  0  0
   -0.8361    0.2334   -1.9326 H   0  0  0  0  0  0  0  0  0  0  0  0
    0.0631   -1.2617   -1.6149 H   0  0  0  0  0  0  0  0  0  0  0  0
  1  2  1  0
  2  3  1  0
  3  4  1  0
  4  5  1  0
  5  6  1  0
  6  7  1  0
  4  8  1  0
  8  9  1  0
  9  1  1  0
  7  5  1  0
  1 10  1  0
  1 11  1  0
  2 12  1  0
  2 13  1  0
  4 14  1  0
  5 15  1  0
  6 16  1  0
  6 17  1  0
  8 18  1  0
  8 19  1  0
M  END
