
     RDKit          3D

 20 21  0  0  0  0  0  0  0  0999 V2000
   -1.5976   -0.3682    0.3444 C   0  0  0  0  0  0  0  0  0  0  0  0
   -1.4232    1.0070   -0.2017 C   0  0  0  0  0  0  0  0  0  0  0  0
   -0.2150    1.5351    0.1731 O   0  0  0  0  0  0  0  0  0  0  0  0
    0.8783    1.0535   -0.4705 C   0  0  0  0  0  0  0  0  0  0  0  0
    1.6946    0.2312    0.5404 C   0  0  0  0  0  0  0  0  0  0  0  0
    0.8358   -0.9556    0.0656 C   0  0  0  0  0  0  0  0  0  0  0  0
   -0.3725   -0.9873    0.9095 C   0  0  0  0  0  0  0  0  0  0  0  0
    0.6908   -0.2104   -1.2306 C   0  0  0  0  0  0  0  0  0  0  0  0
   -2.1001   -1.0300   -0.4157 H   0  0  0  0  0  0  0  0  0  0  0  0
   -2.3448   -0.3019    1.1878 H   0  0  0  0  0  0  0  0  0  0  0  0
   -1.5913    1.0564   -1.3155 H   0  0  0  0  0  0  0  0  0  0  0  0
   -2.2088    1.7185    0.1977 H   0  0  0  0  0  0  0  0  0  0  0  0
    1.4931    1.8370   -0.9123 H   0  0  0  0  0  0  0  0  0  0  0  0
    1.5232    0.5174    1.5817 H   0  0  0  0  0  0  0  0  0  0  0  0
    2.7239    0.0966    0.2045 H   0  0  0  0  0  0  0  0  0  0  0  0
    1.3966   -1.8896   -0.0535 H   0  0  0  0  0  0  0  0  0  0  0  0
   -0.6063   -2.0447    1.1635 H   0  0  0  0  0  0  0  0  0  0  0  0
   -0.1671   -0.4963    1.9047 H   0  0  0  0  0  0  0  0  0  0  0  0
    1.5983   -0.4097   -1.8656 H   0  0  0  0  0  0  0  0  0  0  0  0
   -0.2078   -0.3590   -1.8075 H   0  0  0  0  0  0  0  0  0  0  0  0
  1  2  1  0
  2  3  1  0
  3  4  1  0
  4  5  1  0
  5  6  1  0
  6  7  1  0
  6  8  1  0
  7  1  1  0
  8  4  1  0
  1  9  1  0
  1 10  1  0
  2 11  1  0
  2 12  1  0
  4 13  1  0
  5 14  1  0
  5 15  1  0
  6 16  1  0
  7 17  1  0
  7 18  1  0
  8 19  1  0
  8 20  1  0
M  END
