
     RDKit          3D

 21 22  0  0  0  0  0  0  0  0999 V2000
   -1.9510   -0.3269    0.5033 C   0  0  0  0  0  0  0  0  0  0  0  0
   -1.9290    0.0069   -0.9731 C   0  0  0  0  0  0  0  0  0  0  0  0
   -0.7109    0.5561   -1.2661 O   0  0  0  0  0  0  0  0  0  0  0  0
    0.1510    0.2326   -0.2620 C   0  0  0  0  0  0  0  0  0  0  0  0
   -0.6864    0.3743    0.9798 C   0  0  0  0  0  0  0  0  0  0  0  0
    1.3924    1.0563   -0.1929 C   0  0  0  0  0  0  0  0  0  0  0  0
    2.3770    0.0589    0.3944 C   0  0  0  0  0  0  0  0  0  0  0  0
    1.9687   -1.1928    0.0371 O   0  0  0  0  0  0  0  0  0  0  0  0
    0.6951   -1.1584   -0.4435 C   0  0  0  0  0  0  0  0  0  0  0  0
   -1.8955   -1.4254    0.6777 H   0  0  0  0  0  0  0  0  0  0  0  0
   -2.8476    0.0299    1.0193 H   0  0  0  0  0  0  0  0  0  0  0  0
   -2.7029    0.8161   -1.1173 H   0  0  0  0  0  0  0  0  0  0  0  0
   -2.1843   -0.8910   -1.5681 H   0  0  0  0  0  0  0  0  0  0  0  0
   -0.2529   -0.0999    1.8679 H   0  0  0  0  0  0  0  0  0  0  0  0
   -0.9347    1.4420    1.1077 H   0  0  0  0  0  0  0  0  0  0  0  0
    1.2714    1.9406    0.4654 H   0  0  0  0  0  0  0  0  0  0  0  0
    1.7339    1.4291   -1.1840 H   0  0  0  0  0  0  0  0  0  0  0  0
    2.3169    0.1487    1.5047 H   0  0  0  0  0  0  0  0  0  0  0  0
    3.4118    0.2729    0.0768 H   0  0  0  0  0  0  0  0  0  0  0  0
    0.7537   -1.3253   -1.5598 H   0  0  0  0  0  0  0  0  0  0  0  0
    0.0234   -1.9445   -0.0671 H   0  0  0  0  0  0  0  0  0  0  0  0
  1  2  1  0
  2  3  1  0
  3  4  1  0
  4  5  1  0
  4  6  1  0
  6  7  1  0
  7  8  1  0
  8  9  1  0
  5  1  1  0
  9  4  1  0
  1 10  1  0
  1 11  1  0
  2 12  1  0
  2 13  1  0
  5 14  1  0
  5 15  1  0
  6 16  1  0
  6 17  1  0
  7 18  1  0
  7 19  1  0
  9 20  1  0
  9 21  1  0
M  END
