
     RDKit          3D

 15 16  0  0  0  0  0  0  0  0999 V2000
   -1.3347   -0.6442   -0.0253 C   0  0  0  0  0  0  0  0  0  0  0  0
   -1.2694    0.8171    0.1712 C   0  0  0  0  0  0  0  0  0  0  0  0
   -0.0712    1.4198    0.1156 O   0  0  0  0  0  0  0  0  0  0  0  0
    0.9955    0.7528   -0.3495 C   0  0  0  0  0  0  0  0  0  0  0  0
    1.5565   -0.2992    0.6072 C   0  0  0  0  0  0  0  0  0  0  0  0
    0.8911   -0.6557   -0.6704 C   0  0  0  0  0  0  0  0  0  0  0  0
   -0.3418   -1.2216   -0.7403 O   0  0  0  0  0  0  0  0  0  0  0  0
   -2.3064   -0.8867   -0.5510 H   0  0  0  0  0  0  0  0  0  0  0  0
   -1.4220   -1.1837    0.9551 H   0  0  0  0  0  0  0  0  0  0  0  0
   -1.7217    1.0454    1.1834 H   0  0  0  0  0  0  0  0  0  0  0  0
   -1.9681    1.3422   -0.5457 H   0  0  0  0  0  0  0  0  0  0  0  0
    1.7296    1.3638   -0.9366 H   0  0  0  0  0  0  0  0  0  0  0  0
    1.0126   -0.5019    1.5409 H   0  0  0  0  0  0  0  0  0  0  0  0
    2.6422   -0.2812    0.6882 H   0  0  0  0  0  0  0  0  0  0  0  0
    1.6076   -1.0668   -1.4427 H   0  0  0  0  0  0  0  0  0  0  0  0
  1  2  1  0
  2  3  1  0
  3  4  1  0
  4  5  1  0
  5  6  1  0
  6  7  1  0
  7  1  1  0
  6  4  1  0
  1  8  1  0
  1  9  1  0
  2 10  1  0
  2 11  1  0
  4 12  1  0
  5 13  1  0
  5 14  1  0
  6 15  1  0
M  END
