
     RDKit          3D

 21 22  0  0  0  0  0  0  0  0999 V2000
   -2.0127   -0.0984    0.0384 C   0  0  0  0  0  0  0  0  0  0  0  0
   -1.2664    1.2059   -0.1004 C   0  0  0  0  0  0  0  0  0  0  0  0
   -0.0777    1.2357    0.5866 O   0  0  0  0  0  0  0  0  0  0  0  0
    1.0435    1.0703   -0.1956 C   0  0  0  0  0  0  0  0  0  0  0  0
    0.9860   -0.2209   -1.0203 C   0  0  0  0  0  0  0  0  0  0  0  0
    1.1683   -0.9175    0.3357 C   0  0  0  0  0  0  0  0  0  0  0  0
    2.0470    0.2992    0.6735 C   0  0  0  0  0  0  0  0  0  0  0  0
    0.0171   -0.8719    1.0944 O   0  0  0  0  0  0  0  0  0  0  0  0
   -1.1229   -1.2485    0.4186 C   0  0  0  0  0  0  0  0  0  0  0  0
   -2.8145   -0.0165    0.8276 H   0  0  0  0  0  0  0  0  0  0  0  0
   -2.5411   -0.2667   -0.9320 H   0  0  0  0  0  0  0  0  0  0  0  0
   -1.9207    2.0013    0.3641 H   0  0  0  0  0  0  0  0  0  0  0  0
   -1.1202    1.5121   -1.1501 H   0  0  0  0  0  0  0  0  0  0  0  0
    1.4431    1.9356   -0.7101 H   0  0  0  0  0  0  0  0  0  0  0  0
    1.8809   -0.3316   -1.6327 H   0  0  0  0  0  0  0  0  0  0  0  0
    0.0443   -0.4136   -1.5188 H   0  0  0  0  0  0  0  0  0  0  0  0
    1.7219   -1.8521    0.3045 H   0  0  0  0  0  0  0  0  0  0  0  0
    3.0555    0.2391    0.2495 H   0  0  0  0  0  0  0  0  0  0  0  0
    2.0393    0.5821    1.7320 H   0  0  0  0  0  0  0  0  0  0  0  0
   -1.6828   -1.9466    1.1091 H   0  0  0  0  0  0  0  0  0  0  0  0
   -0.8879   -1.8971   -0.4738 H   0  0  0  0  0  0  0  0  0  0  0  0
  1  2  1  0
  2  3  1  0
  3  4  1  0
  4  5  1  0
  5  6  1  0
  6  7  1  0
  6  8  1  0
  8  9  1  0
  9  1  1  0
  7  4  1  0
  1 10  1  0
  1 11  1  0
  2 12  1  0
  2 13  1  0
  4 14  1  0
  5 15  1  0
  5 16  1  0
  6 17  1  0
  7 18  1  0
  7 19  1  0
  9 20  1  0
  9 21  1  0
M  END
