
     RDKit          3D

 19 21  0  0  0  0  0  0  0  0999 V2000
   -1.7252    0.5610    0.5069 C   0  0  0  0  0  0  0  0  0  0  0  0
   -1.7408   -0.8014   -0.1663 C   0  0  0  0  0  0  0  0  0  0  0  0
   -0.5043   -1.4012   -0.1821 O   0  0  0  0  0  0  0  0  0  0  0  0
    0.4885   -0.6692   -0.7777 C   0  0  0  0  0  0  0  0  0  0  0  0
    0.5679    0.7589   -0.2824 C   0  0  0  0  0  0  0  0  0  0  0  0
   -0.2933    0.8117    0.9865 C   0  0  0  0  0  0  0  0  0  0  0  0
    2.0347    0.5052   -0.0064 C   0  0  0  0  0  0  0  0  0  0  0  0
    2.2704   -0.4296    0.9713 O   0  0  0  0  0  0  0  0  0  0  0  0
    1.8272   -1.0032   -0.1863 C   0  0  0  0  0  0  0  0  0  0  0  0
   -2.4439    0.6146    1.3312 H   0  0  0  0  0  0  0  0  0  0  0  0
   -1.9015    1.3207   -0.2896 H   0  0  0  0  0  0  0  0  0  0  0  0
   -2.1918   -0.7285   -1.1869 H   0  0  0  0  0  0  0  0  0  0  0  0
   -2.4109   -1.4612    0.4515 H   0  0  0  0  0  0  0  0  0  0  0  0
    0.5229   -0.6786   -1.8886 H   0  0  0  0  0  0  0  0  0  0  0  0
    0.3410    1.5406   -1.0161 H   0  0  0  0  0  0  0  0  0  0  0  0
    0.0047   -0.0283    1.6285 H   0  0  0  0  0  0  0  0  0  0  0  0
   -0.2113    1.7678    1.5042 H   0  0  0  0  0  0  0  0  0  0  0  0
    2.8090    0.9038   -0.6522 H   0  0  0  0  0  0  0  0  0  0  0  0
    2.5567   -1.5829   -0.7455 H   0  0  0  0  0  0  0  0  0  0  0  0
  1  2  1  0
  2  3  1  0
  3  4  1  0
  4  5  1  0
  5  6  1  0
  5  7  1  0
  7  8  1  0
  8  9  1  0
  6  1  1  0
  9  7  1  0
  9  4  1  0
  1 10  1  0
  1 11  1  0
  2 12  1  0
  2 13  1  0
  4 14  1  0
  5 15  1  0
  6 16  1  0
  6 17  1  0
  7 18  1  0
  9 19  1  0
M  END
