
     RDKit          3D

 21 22  0  0  0  0  0  0  0  0999 V2000
    2.0344    0.0397    0.5730 C   0  0  0  0  0  0  0  0  0  0  0  0
    1.4570    1.1580   -0.2986 C   0  0  0  0  0  0  0  0  0  0  0  0
    0.1161    1.2821    0.0916 O   0  0  0  0  0  0  0  0  0  0  0  0
   -0.6795    0.4723   -0.6811 C   0  0  0  0  0  0  0  0  0  0  0  0
   -2.1598    0.7250   -0.3599 C   0  0  0  0  0  0  0  0  0  0  0  0
   -1.9469   -0.2556    0.8004 C   0  0  0  0  0  0  0  0  0  0  0  0
   -0.8784   -0.9005   -0.0941 C   0  0  0  0  0  0  0  0  0  0  0  0
    0.1582   -1.3477    0.6685 O   0  0  0  0  0  0  0  0  0  0  0  0
    1.4061   -1.2457    0.0720 C   0  0  0  0  0  0  0  0  0  0  0  0
    1.6383    0.2467    1.6014 H   0  0  0  0  0  0  0  0  0  0  0  0
    3.1206    0.0275    0.5805 H   0  0  0  0  0  0  0  0  0  0  0  0
    1.5469    0.9004   -1.3744 H   0  0  0  0  0  0  0  0  0  0  0  0
    2.0498    2.0676   -0.0277 H   0  0  0  0  0  0  0  0  0  0  0  0
   -0.5065    0.5268   -1.7617 H   0  0  0  0  0  0  0  0  0  0  0  0
   -2.8426    0.2640   -1.0911 H   0  0  0  0  0  0  0  0  0  0  0  0
   -2.3895    1.7281   -0.0065 H   0  0  0  0  0  0  0  0  0  0  0  0
   -1.4871    0.2696    1.6480 H   0  0  0  0  0  0  0  0  0  0  0  0
   -2.7762   -0.9299    0.9941 H   0  0  0  0  0  0  0  0  0  0  0  0
   -1.2703   -1.6351   -0.7974 H   0  0  0  0  0  0  0  0  0  0  0  0
    1.3844   -1.3190   -1.0239 H   0  0  0  0  0  0  0  0  0  0  0  0
    2.0250   -2.0744    0.4870 H   0  0  0  0  0  0  0  0  0  0  0  0
  1  2  1  0
  2  3  1  0
  3  4  1  0
  4  5  1  0
  5  6  1  0
  6  7  1  0
  7  8  1  0
  8  9  1  0
  9  1  1  0
  7  4  1  0
  1 10  1  0
  1 11  1  0
  2 12  1  0
  2 13  1  0
  4 14  1  0
  5 15  1  0
  5 16  1  0
  6 17  1  0
  6 18  1  0
  7 19  1  0
  9 20  1  0
  9 21  1  0
M  END
