
     RDKit          3D

 23 24  0  0  0  0  0  0  0  0999 V2000
    1.8699    0.0200   -0.0426 C   0  0  0  0  0  0  0  0  0  0  0  0
    1.2027    1.3532   -0.1930 C   0  0  0  0  0  0  0  0  0  0  0  0
    0.3601    1.6790    0.8414 O   0  0  0  0  0  0  0  0  0  0  0  0
   -0.7606    0.8952    0.9337 C   0  0  0  0  0  0  0  0  0  0  0  0
   -1.5843    0.8312   -0.3141 C   0  0  0  0  0  0  0  0  0  0  0  0
   -1.3879   -0.5740   -0.8303 C   0  0  0  0  0  0  0  0  0  0  0  0
   -0.3167   -1.2134   -0.0027 C   0  0  0  0  0  0  0  0  0  0  0  0
    1.0526   -1.1207   -0.5869 C   0  0  0  0  0  0  0  0  0  0  0  0
   -0.4641   -0.5304    1.3276 C   0  0  0  0  0  0  0  0  0  0  0  0
    2.2216   -0.1505    0.9922 H   0  0  0  0  0  0  0  0  0  0  0  0
    2.8070    0.0589   -0.6677 H   0  0  0  0  0  0  0  0  0  0  0  0
    2.0130    2.1408   -0.2056 H   0  0  0  0  0  0  0  0  0  0  0  0
    0.7383    1.4117   -1.1975 H   0  0  0  0  0  0  0  0  0  0  0  0
   -1.4029    1.3354    1.7439 H   0  0  0  0  0  0  0  0  0  0  0  0
   -2.6690    1.0519   -0.1000 H   0  0  0  0  0  0  0  0  0  0  0  0
   -1.2923    1.5797   -1.0829 H   0  0  0  0  0  0  0  0  0  0  0  0
   -2.3531   -1.1126   -0.6538 H   0  0  0  0  0  0  0  0  0  0  0  0
   -1.1897   -0.5758   -1.9130 H   0  0  0  0  0  0  0  0  0  0  0  0
   -0.5895   -2.2945    0.1455 H   0  0  0  0  0  0  0  0  0  0  0  0
    1.0387   -1.0764   -1.6862 H   0  0  0  0  0  0  0  0  0  0  0  0
    1.6032   -2.0593   -0.3241 H   0  0  0  0  0  0  0  0  0  0  0  0
   -1.3221   -1.0093    1.8555 H   0  0  0  0  0  0  0  0  0  0  0  0
    0.4250   -0.6402    1.9605 H   0  0  0  0  0  0  0  0  0  0  0  0
  1  2  1  0
  2  3  1  0
  3  4  1  0
  4  5  1  0
  5  6  1  0
  6  7  1  0
  7  8  1  0
  7  9  1  0
  8  1  1  0
  9  4  1  0
  1 10  1  0
  1 11  1  0
  2 12  1  0
  2 13  1  0
  4 14  1  0
  5 15  1  0
  5 16  1  0
  6 17  1  0
  6 18  1  0
  7 19  1  0
  8 20  1  0
  8 21  1  0
  9 22  1  0
  9 23  1  0
M  END
