
     RDKit          3D

 18 19  0  0  0  0  0  0  0  0999 V2000
    1.7635    0.3210    0.4934 C   0  0  0  0  0  0  0  0  0  0  0  0
    1.5857   -0.7078   -0.6291 C   0  0  0  0  0  0  0  0  0  0  0  0
    0.4370   -0.2451   -1.2413 O   0  0  0  0  0  0  0  0  0  0  0  0
   -0.4476    0.0683   -0.2480 C   0  0  0  0  0  0  0  0  0  0  0  0
    0.3205    0.4189    0.9920 C   0  0  0  0  0  0  0  0  0  0  0  0
   -1.5624   -0.9213   -0.0866 C   0  0  0  0  0  0  0  0  0  0  0  0
   -2.2650   -0.2042   -1.0815 O   0  0  0  0  0  0  0  0  0  0  0  0
   -1.6012    0.9426   -0.5904 C   0  0  0  0  0  0  0  0  0  0  0  0
    2.4542   -0.0189    1.2652 H   0  0  0  0  0  0  0  0  0  0  0  0
    2.0607    1.2836    0.0085 H   0  0  0  0  0  0  0  0  0  0  0  0
    1.4635   -1.7271   -0.1819 H   0  0  0  0  0  0  0  0  0  0  0  0
    2.4440   -0.6610   -1.3343 H   0  0  0  0  0  0  0  0  0  0  0  0
    0.0794    1.4718    1.2593 H   0  0  0  0  0  0  0  0  0  0  0  0
    0.1452   -0.2505    1.8409 H   0  0  0  0  0  0  0  0  0  0  0  0
   -1.2629   -1.9338   -0.3712 H   0  0  0  0  0  0  0  0  0  0  0  0
   -2.0977   -0.8937    0.8924 H   0  0  0  0  0  0  0  0  0  0  0  0
   -2.0751    1.3279    0.3609 H   0  0  0  0  0  0  0  0  0  0  0  0
   -1.4419    1.7293   -1.3482 H   0  0  0  0  0  0  0  0  0  0  0  0
  1  2  1  0
  2  3  1  0
  3  4  1  0
  4  5  1  0
  4  6  1  0
  6  7  1  0
  7  8  1  0
  5  1  1  0
  8  4  1  0
  1  9  1  0
  1 10  1  0
  2 11  1  0
  2 12  1  0
  5 13  1  0
  5 14  1  0
  6 15  1  0
  6 16  1  0
  8 17  1  0
  8 18  1  0
M  END
