
     RDKit          3D

 21 22  0  0  0  0  0  0  0  0999 V2000
    1.9224    0.4622    0.2414 C   0  0  0  0  0  0  0  0  0  0  0  0
    1.6732   -0.9987    0.3153 C   0  0  0  0  0  0  0  0  0  0  0  0
    0.5251   -1.4820   -0.1626 O   0  0  0  0  0  0  0  0  0  0  0  0
   -0.4328   -0.7063   -0.6489 C   0  0  0  0  0  0  0  0  0  0  0  0
   -1.7888   -1.2834   -0.2071 C   0  0  0  0  0  0  0  0  0  0  0  0
   -2.0308   -0.6519    1.0100 O   0  0  0  0  0  0  0  0  0  0  0  0
   -1.5973    0.6447    0.9128 C   0  0  0  0  0  0  0  0  0  0  0  0
   -0.5432    0.6927   -0.1805 C   0  0  0  0  0  0  0  0  0  0  0  0
    0.7190    1.3271    0.2702 C   0  0  0  0  0  0  0  0  0  0  0  0
    2.5822    0.7123   -0.6424 H   0  0  0  0  0  0  0  0  0  0  0  0
    2.5564    0.7437    1.1289 H   0  0  0  0  0  0  0  0  0  0  0  0
    2.5317   -1.5089   -0.2182 H   0  0  0  0  0  0  0  0  0  0  0  0
    1.7867   -1.3599    1.3821 H   0  0  0  0  0  0  0  0  0  0  0  0
   -0.4654   -0.7688   -1.7751 H   0  0  0  0  0  0  0  0  0  0  0  0
   -1.7001   -2.3603   -0.0128 H   0  0  0  0  0  0  0  0  0  0  0  0
   -2.5823   -1.0412   -0.9302 H   0  0  0  0  0  0  0  0  0  0  0  0
   -1.1512    1.0167    1.8740 H   0  0  0  0  0  0  0  0  0  0  0  0
   -2.4780    1.2773    0.6785 H   0  0  0  0  0  0  0  0  0  0  0  0
   -1.0009    1.2899   -1.0237 H   0  0  0  0  0  0  0  0  0  0  0  0
    0.9381    2.2348   -0.3648 H   0  0  0  0  0  0  0  0  0  0  0  0
    0.5360    1.7601    1.2970 H   0  0  0  0  0  0  0  0  0  0  0  0
  1  2  1  0
  2  3  1  0
  3  4  1  0
  4  5  1  0
  5  6  1  0
  6  7  1  0
  7  8  1  0
  8  9  1  0
  9  1  1  0
  8  4  1  0
  1 10  1  0
  1 11  1  0
  2 12  1  0
  2 13  1  0
  4 14  1  0
  5 15  1  0
  5 16  1  0
  7 17  1  0
  7 18  1  0
  8 19  1  0
  9 20  1  0
  9 21  1  0
M  END
