
     RDKit          3D

 21 22  0  0  0  0  0  0  0  0999 V2000
    2.6196    0.4310   -0.6480 C   0  0  0  0  0  0  0  0  0  0  0  0
    2.8309   -0.5202    0.5130 C   0  0  0  0  0  0  0  0  0  0  0  0
    1.6224   -0.3115    1.2189 O   0  0  0  0  0  0  0  0  0  0  0  0
    0.7055   -0.3837    0.1812 C   0  0  0  0  0  0  0  0  0  0  0  0
   -0.5747    0.3513    0.4790 C   0  0  0  0  0  0  0  0  0  0  0  0
   -1.4702    0.1877   -0.7288 C   0  0  0  0  0  0  0  0  0  0  0  0
   -2.8181    0.7959   -0.7569 C   0  0  0  0  0  0  0  0  0  0  0  0
   -2.6874   -0.6834   -0.4653 C   0  0  0  0  0  0  0  0  0  0  0  0
    1.2766    0.1933   -0.9338 O   0  0  0  0  0  0  0  0  0  0  0  0
    3.2798    0.2099   -1.5026 H   0  0  0  0  0  0  0  0  0  0  0  0
    2.7643    1.4532   -0.2458 H   0  0  0  0  0  0  0  0  0  0  0  0
    3.7094   -0.2930    1.1123 H   0  0  0  0  0  0  0  0  0  0  0  0
    2.8148   -1.5509    0.0910 H   0  0  0  0  0  0  0  0  0  0  0  0
    0.4895   -1.4585    0.0187 H   0  0  0  0  0  0  0  0  0  0  0  0
   -1.0669   -0.0050    1.4065 H   0  0  0  0  0  0  0  0  0  0  0  0
   -0.3841    1.4377    0.6419 H   0  0  0  0  0  0  0  0  0  0  0  0
   -0.9149    0.0779   -1.6815 H   0  0  0  0  0  0  0  0  0  0  0  0
   -3.1006    1.4894    0.0376 H   0  0  0  0  0  0  0  0  0  0  0  0
   -3.2245    1.0048   -1.7653 H   0  0  0  0  0  0  0  0  0  0  0  0
   -2.9634   -1.4150   -1.2529 H   0  0  0  0  0  0  0  0  0  0  0  0
   -2.9079   -1.0109    0.5557 H   0  0  0  0  0  0  0  0  0  0  0  0
  1  2  1  0
  2  3  1  0
  3  4  1  0
  4  5  1  0
  5  6  1  0
  6  7  1  0
  7  8  1  0
  4  9  1  0
  9  1  1  0
  8  6  1  0
  1 10  1  0
  1 11  1  0
  2 12  1  0
  2 13  1  0
  4 14  1  0
  5 15  1  0
  5 16  1  0
  6 17  1  0
  7 18  1  0
  7 19  1  0
  8 20  1  0
  8 21  1  0
M  END
