
     RDKit          3D

 21 22  0  0  0  0  0  0  0  0999 V2000
    1.8662   -0.1267    0.2848 C   0  0  0  0  0  0  0  0  0  0  0  0
    1.7221    1.3478    0.4047 C   0  0  0  0  0  0  0  0  0  0  0  0
    0.4553    1.8267    0.0789 O   0  0  0  0  0  0  0  0  0  0  0  0
   -0.4486    0.8557    0.3405 C   0  0  0  0  0  0  0  0  0  0  0  0
   -1.7635    1.1861    0.3081 O   0  0  0  0  0  0  0  0  0  0  0  0
   -2.4408   -0.0325    0.3118 C   0  0  0  0  0  0  0  0  0  0  0  0
   -1.5083   -1.0349   -0.3627 C   0  0  0  0  0  0  0  0  0  0  0  0
   -0.3859   -0.1602   -0.8127 C   0  0  0  0  0  0  0  0  0  0  0  0
    0.9734   -0.7796   -0.7094 C   0  0  0  0  0  0  0  0  0  0  0  0
    2.9301   -0.3320   -0.0350 H   0  0  0  0  0  0  0  0  0  0  0  0
    1.7610   -0.6690    1.2558 H   0  0  0  0  0  0  0  0  0  0  0  0
    1.8701    1.6098    1.4925 H   0  0  0  0  0  0  0  0  0  0  0  0
    2.5254    1.9139   -0.1270 H   0  0  0  0  0  0  0  0  0  0  0  0
   -0.1323    0.2769    1.2350 H   0  0  0  0  0  0  0  0  0  0  0  0
   -3.3306    0.0569   -0.3272 H   0  0  0  0  0  0  0  0  0  0  0  0
   -2.6763   -0.3250    1.3530 H   0  0  0  0  0  0  0  0  0  0  0  0
   -2.0030   -1.5947   -1.1601 H   0  0  0  0  0  0  0  0  0  0  0  0
   -1.1136   -1.7048    0.4530 H   0  0  0  0  0  0  0  0  0  0  0  0
   -0.6032    0.2978   -1.7748 H   0  0  0  0  0  0  0  0  0  0  0  0
    0.8820   -1.8578   -0.4648 H   0  0  0  0  0  0  0  0  0  0  0  0
    1.4206   -0.7543   -1.7442 H   0  0  0  0  0  0  0  0  0  0  0  0
  1  2  1  0
  2  3  1  0
  3  4  1  0
  4  5  1  0
  5  6  1  0
  6  7  1  0
  7  8  1  0
  8  9  1  0
  9  1  1  0
  8  4  1  0
  1 10  1  0
  1 11  1  0
  2 12  1  0
  2 13  1  0
  4 14  1  0
  6 15  1  0
  6 16  1  0
  7 17  1  0
  7 18  1  0
  8 19  1  0
  9 20  1  0
  9 21  1  0
M  END
