
     RDKit          3D

 18 19  0  0  0  0  0  0  0  0999 V2000
   -2.0107   -0.4776   -0.2821 C   0  0  0  0  0  0  0  0  0  0  0  0
   -1.7878    0.6399    0.7216 C   0  0  0  0  0  0  0  0  0  0  0  0
   -0.5926    1.1944    0.2463 O   0  0  0  0  0  0  0  0  0  0  0  0
    0.2197    0.0607    0.1824 C   0  0  0  0  0  0  0  0  0  0  0  0
    1.5038    0.4473   -0.5048 C   0  0  0  0  0  0  0  0  0  0  0  0
    2.7491    0.0900    0.1573 C   0  0  0  0  0  0  0  0  0  0  0  0
    2.1834    1.4834    0.2206 O   0  0  0  0  0  0  0  0  0  0  0  0
   -0.5919   -0.9043   -0.6253 C   0  0  0  0  0  0  0  0  0  0  0  0
   -2.5005   -0.0644   -1.1677 H   0  0  0  0  0  0  0  0  0  0  0  0
   -2.5560   -1.3127    0.1955 H   0  0  0  0  0  0  0  0  0  0  0  0
   -1.5676    0.2235    1.7195 H   0  0  0  0  0  0  0  0  0  0  0  0
   -2.6153    1.3718    0.7209 H   0  0  0  0  0  0  0  0  0  0  0  0
    0.4212   -0.3789    1.1569 H   0  0  0  0  0  0  0  0  0  0  0  0
    1.5194    0.5641   -1.5992 H   0  0  0  0  0  0  0  0  0  0  0  0
    2.6926   -0.4072    1.1406 H   0  0  0  0  0  0  0  0  0  0  0  0
    3.7375    0.1893   -0.3239 H   0  0  0  0  0  0  0  0  0  0  0  0
   -0.4458   -1.9556   -0.2752 H   0  0  0  0  0  0  0  0  0  0  0  0
   -0.3585   -0.7638   -1.6833 H   0  0  0  0  0  0  0  0  0  0  0  0
  1  2  1  0
  2  3  1  0
  3  4  1  0
  4  5  1  0
  5  6  1  0
  6  7  1  0
  4  8  1  0
  8  1  1  0
  7  5  1  0
  1  9  1  0
  1 10  1  0
  2 11  1  0
  2 12  1  0
  4 13  1  0
  5 14  1  0
  6 15  1  0
  6 16  1  0
  8 17  1  0
  8 18  1  0
M  END
