
     RDKit          3D

 21 22  0  0  0  0  0  0  0  0999 V2000
    2.2762    0.3901    0.0211 C   0  0  0  0  0  0  0  0  0  0  0  0
    1.7843   -0.7984    0.8470 C   0  0  0  0  0  0  0  0  0  0  0  0
    0.6918   -0.2041    1.5099 O   0  0  0  0  0  0  0  0  0  0  0  0
   -0.0377    0.2694    0.4022 C   0  0  0  0  0  0  0  0  0  0  0  0
    0.9842    0.9509   -0.4956 C   0  0  0  0  0  0  0  0  0  0  0  0
   -0.6600   -0.9242   -0.2638 C   0  0  0  0  0  0  0  0  0  0  0  0
   -2.1433   -0.5856   -0.2944 C   0  0  0  0  0  0  0  0  0  0  0  0
   -2.1274    0.8984   -0.0819 C   0  0  0  0  0  0  0  0  0  0  0  0
   -1.0450    1.1337    0.7633 O   0  0  0  0  0  0  0  0  0  0  0  0
    2.9707    0.0620   -0.7568 H   0  0  0  0  0  0  0  0  0  0  0  0
    2.7232    1.0940    0.7568 H   0  0  0  0  0  0  0  0  0  0  0  0
    1.4282   -1.5474    0.0985 H   0  0  0  0  0  0  0  0  0  0  0  0
    2.5403   -1.1810    1.5320 H   0  0  0  0  0  0  0  0  0  0  0  0
    0.8041    0.7656   -1.5607 H   0  0  0  0  0  0  0  0  0  0  0  0
    0.9550    2.0300   -0.2952 H   0  0  0  0  0  0  0  0  0  0  0  0
   -0.2382   -1.0631   -1.2734 H   0  0  0  0  0  0  0  0  0  0  0  0
   -0.5788   -1.8460    0.3682 H   0  0  0  0  0  0  0  0  0  0  0  0
   -2.5574   -0.9031   -1.2578 H   0  0  0  0  0  0  0  0  0  0  0  0
   -2.7017   -1.0988    0.5143 H   0  0  0  0  0  0  0  0  0  0  0  0
   -3.0751    1.1776    0.4268 H   0  0  0  0  0  0  0  0  0  0  0  0
   -1.9935    1.3800   -1.0618 H   0  0  0  0  0  0  0  0  0  0  0  0
  1  2  1  0
  2  3  1  0
  3  4  1  0
  4  5  1  0
  4  6  1  0
  6  7  1  0
  7  8  1  0
  8  9  1  0
  5  1  1  0
  9  4  1  0
  1 10  1  0
  1 11  1  0
  2 12  1  0
  2 13  1  0
  5 14  1  0
  5 15  1  0
  6 16  1  0
  6 17  1  0
  7 18  1  0
  7 19  1  0
  8 20  1  0
  8 21  1  0
M  END
