
     RDKit          3D

 19 21  0  0  0  0  0  0  0  0999 V2000
    2.0587    0.2698   -0.1767 C   0  0  0  0  0  0  0  0  0  0  0  0
    1.5391   -0.5164    1.0027 C   0  0  0  0  0  0  0  0  0  0  0  0
    0.1908   -0.2020    1.1779 O   0  0  0  0  0  0  0  0  0  0  0  0
   -0.4184   -0.5499   -0.0587 C   0  0  0  0  0  0  0  0  0  0  0  0
   -1.6277   -1.2717    0.1259 C   0  0  0  0  0  0  0  0  0  0  0  0
   -1.8655    0.0594   -0.2871 C   0  0  0  0  0  0  0  0  0  0  0  0
   -1.1066    1.3179    0.0675 C   0  0  0  0  0  0  0  0  0  0  0  0
   -0.1067    0.6508   -0.9021 C   0  0  0  0  0  0  0  0  0  0  0  0
    1.1360    1.1492   -0.6851 O   0  0  0  0  0  0  0  0  0  0  0  0
    2.3316   -0.4336   -1.0148 H   0  0  0  0  0  0  0  0  0  0  0  0
    2.9829    0.8105    0.0668 H   0  0  0  0  0  0  0  0  0  0  0  0
    1.5526   -1.6150    0.7403 H   0  0  0  0  0  0  0  0  0  0  0  0
    2.1350   -0.3861    1.9102 H   0  0  0  0  0  0  0  0  0  0  0  0
   -1.7917   -2.1473   -0.5731 H   0  0  0  0  0  0  0  0  0  0  0  0
   -2.0316   -1.5670    1.1425 H   0  0  0  0  0  0  0  0  0  0  0  0
   -2.1390    0.1532   -1.3900 H   0  0  0  0  0  0  0  0  0  0  0  0
   -1.5640    2.2348   -0.3273 H   0  0  0  0  0  0  0  0  0  0  0  0
   -0.7683    1.4462    1.0850 H   0  0  0  0  0  0  0  0  0  0  0  0
   -0.5071    0.5972   -1.9039 H   0  0  0  0  0  0  0  0  0  0  0  0
  1  2  1  0
  2  3  1  0
  3  4  1  0
  4  5  1  0
  5  6  1  0
  6  7  1  0
  7  8  1  0
  8  9  1  0
  9  1  1  0
  6  4  1  0
  8  4  1  0
  1 10  1  0
  1 11  1  0
  2 12  1  0
  2 13  1  0
  5 14  1  0
  5 15  1  0
  6 16  1  0
  7 17  1  0
  7 18  1  0
  8 19  1  0
M  END
