
     RDKit          3D

 23 24  0  0  0  0  0  0  0  0999 V2000
   -1.6393    0.8458   -0.5561 C   0  0  0  0  0  0  0  0  0  0  0  0
   -2.2136   -0.5249   -0.4860 C   0  0  0  0  0  0  0  0  0  0  0  0
   -1.2793   -1.5396   -0.4234 O   0  0  0  0  0  0  0  0  0  0  0  0
   -0.3736   -1.3823    0.6128 C   0  0  0  0  0  0  0  0  0  0  0  0
    0.4029   -0.1346    0.3508 C   0  0  0  0  0  0  0  0  0  0  0  0
   -0.5377    1.0388    0.4406 C   0  0  0  0  0  0  0  0  0  0  0  0
    1.1548   -0.2470   -0.9609 C   0  0  0  0  0  0  0  0  0  0  0  0
    2.3035    0.5024   -0.2740 C   0  0  0  0  0  0  0  0  0  0  0  0
    1.7166    0.0132    1.0468 C   0  0  0  0  0  0  0  0  0  0  0  0
   -2.4586    1.5692   -0.2680 H   0  0  0  0  0  0  0  0  0  0  0  0
   -1.3473    1.1430   -1.5970 H   0  0  0  0  0  0  0  0  0  0  0  0
   -2.7900   -0.6914   -1.4431 H   0  0  0  0  0  0  0  0  0  0  0  0
   -2.9297   -0.5511    0.3702 H   0  0  0  0  0  0  0  0  0  0  0  0
    0.3466   -2.2465    0.5251 H   0  0  0  0  0  0  0  0  0  0  0  0
   -0.8915   -1.3852    1.5862 H   0  0  0  0  0  0  0  0  0  0  0  0
   -0.9917    1.0134    1.4506 H   0  0  0  0  0  0  0  0  0  0  0  0
   -0.0226    1.9947    0.3376 H   0  0  0  0  0  0  0  0  0  0  0  0
    1.4254   -1.3116   -1.2051 H   0  0  0  0  0  0  0  0  0  0  0  0
    0.7151    0.2644   -1.8162 H   0  0  0  0  0  0  0  0  0  0  0  0
    2.2112    1.5911   -0.3967 H   0  0  0  0  0  0  0  0  0  0  0  0
    3.2778    0.0965   -0.5378 H   0  0  0  0  0  0  0  0  0  0  0  0
    2.1633   -0.8964    1.4512 H   0  0  0  0  0  0  0  0  0  0  0  0
    1.7578    0.8381    1.7924 H   0  0  0  0  0  0  0  0  0  0  0  0
  1  2  1  0
  2  3  1  0
  3  4  1  0
  4  5  1  0
  5  6  1  0
  5  7  1  0
  7  8  1  0
  8  9  1  0
  6  1  1  0
  9  5  1  0
  1 10  1  0
  1 11  1  0
  2 12  1  0
  2 13  1  0
  4 14  1  0
  4 15  1  0
  6 16  1  0
  6 17  1  0
  7 18  1  0
  7 19  1  0
  8 20  1  0
  8 21  1  0
  9 22  1  0
  9 23  1  0
M  END
