
     RDKit          3D

 19 20  0  0  0  0  0  0  0  0999 V2000
    1.7355   -0.7753    0.2780 C   0  0  0  0  0  0  0  0  0  0  0  0
    1.9118    0.4670   -0.4977 C   0  0  0  0  0  0  0  0  0  0  0  0
    0.7559    1.2274   -0.6640 O   0  0  0  0  0  0  0  0  0  0  0  0
   -0.2134    0.6923    0.1288 C   0  0  0  0  0  0  0  0  0  0  0  0
   -1.5842    1.2385   -0.0455 C   0  0  0  0  0  0  0  0  0  0  0  0
   -2.4838    0.1756   -0.0272 O   0  0  0  0  0  0  0  0  0  0  0  0
   -1.7585   -0.9665    0.3131 C   0  0  0  0  0  0  0  0  0  0  0  0
   -0.4636   -0.7288   -0.4079 C   0  0  0  0  0  0  0  0  0  0  0  0
    0.5833   -1.4961    0.0124 O   0  0  0  0  0  0  0  0  0  0  0  0
    2.5927   -1.4656    0.0198 H   0  0  0  0  0  0  0  0  0  0  0  0
    1.7990   -0.6534    1.3788 H   0  0  0  0  0  0  0  0  0  0  0  0
    2.6133    1.1387    0.0842 H   0  0  0  0  0  0  0  0  0  0  0  0
    2.4511    0.3073   -1.4714 H   0  0  0  0  0  0  0  0  0  0  0  0
    0.0673    0.6097    1.1962 H   0  0  0  0  0  0  0  0  0  0  0  0
   -1.7066    1.8355   -0.9931 H   0  0  0  0  0  0  0  0  0  0  0  0
   -1.8884    1.9114    0.7948 H   0  0  0  0  0  0  0  0  0  0  0  0
   -1.5370   -0.9570    1.4141 H   0  0  0  0  0  0  0  0  0  0  0  0
   -2.2672   -1.8768   -0.0160 H   0  0  0  0  0  0  0  0  0  0  0  0
   -0.6071   -0.6838   -1.4973 H   0  0  0  0  0  0  0  0  0  0  0  0
  1  2  1  0
  2  3  1  0
  3  4  1  0
  4  5  1  0
  5  6  1  0
  6  7  1  0
  7  8  1  0
  8  9  1  0
  9  1  1  0
  8  4  1  0
  1 10  1  0
  1 11  1  0
  2 12  1  0
  2 13  1  0
  4 14  1  0
  5 15  1  0
  5 16  1  0
  7 17  1  0
  7 18  1  0
  8 19  1  0
M  END
