
     RDKit          3D

 17 17  0  0  0  0  0  0  0  0999 V2000
   -1.4006    0.4301   -0.3575 C   0  0  0  0  0  0  0  0  0  0  0  0
   -0.9652   -0.9669   -0.0218 C   0  0  0  0  0  0  0  0  0  0  0  0
    0.0313   -1.3301   -0.9102 O   0  0  0  0  0  0  0  0  0  0  0  0
    1.2877   -1.0629   -0.4460 C   0  0  0  0  0  0  0  0  0  0  0  0
    1.3847    0.1535    0.4319 C   0  0  0  0  0  0  0  0  0  0  0  0
    0.8442    1.2881   -0.1118 O   0  0  0  0  0  0  0  0  0  0  0  0
   -0.4924    1.4829    0.1834 C   0  0  0  0  0  0  0  0  0  0  0  0
   -2.4078    0.5931    0.0679 H   0  0  0  0  0  0  0  0  0  0  0  0
   -1.4918    0.5551   -1.4486 H   0  0  0  0  0  0  0  0  0  0  0  0
   -0.6795   -1.0623    1.0375 H   0  0  0  0  0  0  0  0  0  0  0  0
   -1.8272   -1.6649   -0.1709 H   0  0  0  0  0  0  0  0  0  0  0  0
    1.9782   -0.8840   -1.3174 H   0  0  0  0  0  0  0  0  0  0  0  0
    1.6982   -1.9179    0.0971 H   0  0  0  0  0  0  0  0  0  0  0  0
    1.0351   -0.0499    1.4835 H   0  0  0  0  0  0  0  0  0  0  0  0
    2.4915    0.3493    0.5565 H   0  0  0  0  0  0  0  0  0  0  0  0
   -0.7816    2.4517   -0.3223 H   0  0  0  0  0  0  0  0  0  0  0  0
   -0.7050    1.6351    1.2486 H   0  0  0  0  0  0  0  0  0  0  0  0
  1  2  1  0
  2  3  1  0
  3  4  1  0
  4  5  1  0
  5  6  1  0
  6  7  1  0
  7  1  1  0
  1  8  1  0
  1  9  1  0
  2 10  1  0
  2 11  1  0
  4 12  1  0
  4 13  1  0
  5 14  1  0
  5 15  1  0
  7 16  1  0
  7 17  1  0
M  END
