
     RDKit          3D

 19 21  0  0  0  0  0  0  0  0999 V2000
   -1.9788   -0.1735    0.5147 C   0  0  0  0  0  0  0  0  0  0  0  0
   -1.6107    1.1744   -0.1079 C   0  0  0  0  0  0  0  0  0  0  0  0
   -0.2423    1.2207   -0.0532 O   0  0  0  0  0  0  0  0  0  0  0  0
    0.2693   -0.0379   -0.1307 C   0  0  0  0  0  0  0  0  0  0  0  0
   -0.8354   -1.0331   -0.0204 C   0  0  0  0  0  0  0  0  0  0  0  0
    1.3724   -0.3150   -1.0770 C   0  0  0  0  0  0  0  0  0  0  0  0
    2.2716    0.5161   -0.2234 C   0  0  0  0  0  0  0  0  0  0  0  0
    1.4800   -0.3628    0.6803 C   0  0  0  0  0  0  0  0  0  0  0  0
    1.7231   -1.3839   -0.2398 O   0  0  0  0  0  0  0  0  0  0  0  0
   -2.9598   -0.5285    0.2066 H   0  0  0  0  0  0  0  0  0  0  0  0
   -1.9201   -0.0991    1.6098 H   0  0  0  0  0  0  0  0  0  0  0  0
   -1.9808    1.1943   -1.1689 H   0  0  0  0  0  0  0  0  0  0  0  0
   -2.1054    2.0115    0.3996 H   0  0  0  0  0  0  0  0  0  0  0  0
   -1.1707   -1.3789   -1.0411 H   0  0  0  0  0  0  0  0  0  0  0  0
   -0.6461   -1.8733    0.6470 H   0  0  0  0  0  0  0  0  0  0  0  0
    1.3484   -0.3551   -2.0844 H   0  0  0  0  0  0  0  0  0  0  0  0
    3.3492    0.2778   -0.3298 H   0  0  0  0  0  0  0  0  0  0  0  0
    2.0909    1.5906   -0.1768 H   0  0  0  0  0  0  0  0  0  0  0  0
    1.5451   -0.4444    1.6825 H   0  0  0  0  0  0  0  0  0  0  0  0
  1  2  1  0
  2  3  1  0
  3  4  1  0
  4  5  1  0
  4  6  1  0
  6  7  1  0
  7  8  1  0
  8  9  1  0
  5  1  1  0
  9  6  1  0
  8  4  1  0
  1 10  1  0
  1 11  1  0
  2 12  1  0
  2 13  1  0
  5 14  1  0
  5 15  1  0
  6 16  1  0
  7 17  1  0
  7 18  1  0
  8 19  1  0
M  END
