
     RDKit          3D

 18 19  0  0  0  0  0  0  0  0999 V2000
   -1.5435   -0.2656   -0.1085 C   0  0  0  0  0  0  0  0  0  0  0  0
   -1.0359    1.1426    0.0791 C   0  0  0  0  0  0  0  0  0  0  0  0
    0.0154    1.2163    0.9609 O   0  0  0  0  0  0  0  0  0  0  0  0
    1.2478    1.0070    0.3953 C   0  0  0  0  0  0  0  0  0  0  0  0
    1.3248   -0.0625   -0.6169 C   0  0  0  0  0  0  0  0  0  0  0  0
    1.9330   -1.2834   -0.0181 O   0  0  0  0  0  0  0  0  0  0  0  0
    0.6285   -1.2737   -0.4439 C   0  0  0  0  0  0  0  0  0  0  0  0
   -0.5024   -1.1810    0.5533 C   0  0  0  0  0  0  0  0  0  0  0  0
   -2.5452   -0.4352    0.2935 H   0  0  0  0  0  0  0  0  0  0  0  0
   -1.5715   -0.4672   -1.2198 H   0  0  0  0  0  0  0  0  0  0  0  0
   -1.8886    1.7167    0.5488 H   0  0  0  0  0  0  0  0  0  0  0  0
   -0.7885    1.6261   -0.9111 H   0  0  0  0  0  0  0  0  0  0  0  0
    1.9864    0.8912    1.2310 H   0  0  0  0  0  0  0  0  0  0  0  0
    1.5367    1.9791   -0.1046 H   0  0  0  0  0  0  0  0  0  0  0  0
    1.8306    0.1572   -1.5964 H   0  0  0  0  0  0  0  0  0  0  0  0
    0.4062   -1.9249   -1.3001 H   0  0  0  0  0  0  0  0  0  0  0  0
   -0.0848   -0.6916    1.4604 H   0  0  0  0  0  0  0  0  0  0  0  0
   -0.9491   -2.1512    0.7971 H   0  0  0  0  0  0  0  0  0  0  0  0
  1  2  1  0
  2  3  1  0
  3  4  1  0
  4  5  1  0
  5  6  1  0
  6  7  1  0
  7  8  1  0
  8  1  1  0
  7  5  1  0
  1  9  1  0
  1 10  1  0
  2 11  1  0
  2 12  1  0
  4 13  1  0
  4 14  1  0
  5 15  1  0
  7 16  1  0
  8 17  1  0
  8 18  1  0
M  END
