
     RDKit          3D

  7  7  0  0  0  0  0  0  0  0999 V2000
   -0.7575   -0.0052    0.0270 C   0  0  0  0  0  0  0  0  0  0  0  0
    0.7609   -0.0134    0.0295 C   0  0  0  0  0  0  0  0  0  0  0  0
    0.0035   -0.2832    1.1417 O   0  0  0  0  0  0  0  0  0  0  0  0
   -1.2913    0.9673   -0.0128 H   0  0  0  0  0  0  0  0  0  0  0  0
   -1.2018   -0.8007   -0.5842 H   0  0  0  0  0  0  0  0  0  0  0  0
    1.1971    0.9874   -0.1474 H   0  0  0  0  0  0  0  0  0  0  0  0
    1.2890   -0.8523   -0.4539 H   0  0  0  0  0  0  0  0  0  0  0  0
  1  2  1  0
  2  3  1  0
  3  1  1  0
  1  4  1  0
  1  5  1  0
  2  6  1  0
  2  7  1  0
M  END
