
     RDKit          3D

 19 21  0  0  0  0  0  0  0  0999 V2000
    1.6516   -0.2138   -0.5460 C   0  0  0  0  0  0  0  0  0  0  0  0
    1.4591    1.1944    0.0258 C   0  0  0  0  0  0  0  0  0  0  0  0
    0.1460    1.5436   -0.1775 O   0  0  0  0  0  0  0  0  0  0  0  0
   -0.7681    0.7977    0.5124 C   0  0  0  0  0  0  0  0  0  0  0  0
   -1.9969    0.5420   -0.3672 C   0  0  0  0  0  0  0  0  0  0  0  0
   -1.5909   -0.9377   -0.3394 C   0  0  0  0  0  0  0  0  0  0  0  0
   -1.5587   -1.4838    0.9263 O   0  0  0  0  0  0  0  0  0  0  0  0
   -0.5414   -0.6694    0.5054 C   0  0  0  0  0  0  0  0  0  0  0  0
    0.8559   -1.1191    0.3924 C   0  0  0  0  0  0  0  0  0  0  0  0
    2.7137   -0.5238   -0.4476 H   0  0  0  0  0  0  0  0  0  0  0  0
    1.2944   -0.2879   -1.5848 H   0  0  0  0  0  0  0  0  0  0  0  0
    2.1353    1.9220   -0.4068 H   0  0  0  0  0  0  0  0  0  0  0  0
    1.6603    1.0951    1.1190 H   0  0  0  0  0  0  0  0  0  0  0  0
   -1.1025    1.2649    1.4524 H   0  0  0  0  0  0  0  0  0  0  0  0
   -2.9624    0.6327    0.1715 H   0  0  0  0  0  0  0  0  0  0  0  0
   -1.9553    1.0089   -1.3568 H   0  0  0  0  0  0  0  0  0  0  0  0
   -1.7233   -1.5452   -1.2297 H   0  0  0  0  0  0  0  0  0  0  0  0
    1.3854   -1.0834    1.3788 H   0  0  0  0  0  0  0  0  0  0  0  0
    0.8976   -2.1371   -0.0283 H   0  0  0  0  0  0  0  0  0  0  0  0
  1  2  1  0
  2  3  1  0
  3  4  1  0
  4  5  1  0
  5  6  1  0
  6  7  1  0
  7  8  1  0
  8  9  1  0
  9  1  1  0
  8  4  1  0
  8  6  1  0
  1 10  1  0
  1 11  1  0
  2 12  1  0
  2 13  1  0
  4 14  1  0
  5 15  1  0
  5 16  1  0
  6 17  1  0
  9 18  1  0
  9 19  1  0
M  END
