
     RDKit          3D

 18 18  0  0  0  0  0  0  0  0999 V2000
   -0.8876    1.1363   -0.3672 C   0  0  0  0  0  0  0  0  0  0  0  0
    0.4171    1.8009   -0.0775 C   0  0  0  0  0  0  0  0  0  0  0  0
    1.5243    1.1429   -0.5013 O   0  0  0  0  0  0  0  0  0  0  0  0
    1.4880   -0.2313   -0.4100 C   0  0  0  0  0  0  0  0  0  0  0  0
    1.1540   -0.7312    0.8091 O   0  0  0  0  0  0  0  0  0  0  0  0
    0.0938   -1.5776    0.8740 C   0  0  0  0  0  0  0  0  0  0  0  0
   -1.1528   -1.0350    0.1774 C   0  0  0  0  0  0  0  0  0  0  0  0
   -1.2913    0.2745    0.6565 O   0  0  0  0  0  0  0  0  0  0  0  0
   -0.9066    0.6336   -1.3630 H   0  0  0  0  0  0  0  0  0  0  0  0
   -1.6806    1.9295   -0.4144 H   0  0  0  0  0  0  0  0  0  0  0  0
    0.3917    2.8043   -0.5978 H   0  0  0  0  0  0  0  0  0  0  0  0
    0.4189    2.0673    1.0133 H   0  0  0  0  0  0  0  0  0  0  0  0
    2.5407   -0.5871   -0.6305 H   0  0  0  0  0  0  0  0  0  0  0  0
    0.8948   -0.6469   -1.2641 H   0  0  0  0  0  0  0  0  0  0  0  0
    0.2998   -2.6263    0.5822 H   0  0  0  0  0  0  0  0  0  0  0  0
   -0.2089   -1.6432    1.9629 H   0  0  0  0  0  0  0  0  0  0  0  0
   -1.0748   -1.0375   -0.9039 H   0  0  0  0  0  0  0  0  0  0  0  0
   -2.0203   -1.6732    0.4545 H   0  0  0  0  0  0  0  0  0  0  0  0
  1  2  1  0
  2  3  1  0
  3  4  1  0
  4  5  1  0
  5  6  1  0
  6  7  1  0
  7  8  1  0
  8  1  1  0
  1  9  1  0
  1 10  1  0
  2 11  1  0
  2 12  1  0
  4 13  1  0
  4 14  1  0
  6 15  1  0
  6 16  1  0
  7 17  1  0
  7 18  1  0
M  END
