
     RDKit          3D

 19 21  0  0  0  0  0  0  0  0999 V2000
    1.6981    0.2055   -0.0993 C   0  0  0  0  0  0  0  0  0  0  0  0
    1.3048   -0.9244    0.7684 C   0  0  0  0  0  0  0  0  0  0  0  0
    0.0136   -1.2293    0.9016 O   0  0  0  0  0  0  0  0  0  0  0  0
   -0.9477   -0.5556    0.2869 C   0  0  0  0  0  0  0  0  0  0  0  0
   -1.6230   -1.0726   -0.9903 C   0  0  0  0  0  0  0  0  0  0  0  0
   -1.1043    0.0875   -1.6012 O   0  0  0  0  0  0  0  0  0  0  0  0
   -0.6668    0.6639   -0.4410 C   0  0  0  0  0  0  0  0  0  0  0  0
    0.6803    1.2664   -0.2947 C   0  0  0  0  0  0  0  0  0  0  0  0
   -1.5608    0.7139    0.7671 C   0  0  0  0  0  0  0  0  0  0  0  0
    2.6236    0.6923    0.3122 H   0  0  0  0  0  0  0  0  0  0  0  0
    2.0160   -0.1490   -1.1241 H   0  0  0  0  0  0  0  0  0  0  0  0
    1.7541   -0.7668    1.7940 H   0  0  0  0  0  0  0  0  0  0  0  0
    1.8483   -1.8444    0.3958 H   0  0  0  0  0  0  0  0  0  0  0  0
   -1.1626   -2.0104   -1.2918 H   0  0  0  0  0  0  0  0  0  0  0  0
   -2.7163   -1.0191   -0.9271 H   0  0  0  0  0  0  0  0  0  0  0  0
    0.6868    2.0019    0.5418 H   0  0  0  0  0  0  0  0  0  0  0  0
    0.9251    1.8568   -1.2134 H   0  0  0  0  0  0  0  0  0  0  0  0
   -2.6149    0.9651    0.5270 H   0  0  0  0  0  0  0  0  0  0  0  0
   -1.1543    1.1184    1.6881 H   0  0  0  0  0  0  0  0  0  0  0  0
  1  2  1  0
  2  3  1  0
  3  4  1  0
  4  5  1  0
  5  6  1  0
  6  7  1  0
  7  8  1  0
  7  9  1  0
  8  1  1  0
  7  4  1  0
  9  4  1  0
  1 10  1  0
  1 11  1  0
  2 12  1  0
  2 13  1  0
  5 14  1  0
  5 15  1  0
  8 16  1  0
  8 17  1  0
  9 18  1  0
  9 19  1  0
M  END
