
     RDKit          3D

 19 20  0  0  0  0  0  0  0  0999 V2000
   -1.7228   -0.5776    0.3530 C   0  0  0  0  0  0  0  0  0  0  0  0
   -1.5298    0.9098    0.4274 C   0  0  0  0  0  0  0  0  0  0  0  0
   -0.8989    1.4673   -0.6271 O   0  0  0  0  0  0  0  0  0  0  0  0
    0.2751    0.9858   -1.0439 C   0  0  0  0  0  0  0  0  0  0  0  0
    0.9519   -0.0480   -0.2199 C   0  0  0  0  0  0  0  0  0  0  0  0
    0.2758   -1.3816   -0.2519 C   0  0  0  0  0  0  0  0  0  0  0  0
   -1.0389   -1.1787   -0.6752 O   0  0  0  0  0  0  0  0  0  0  0  0
    2.1657    0.2004    0.5625 C   0  0  0  0  0  0  0  0  0  0  0  0
    2.3403   -0.2019   -0.7423 O   0  0  0  0  0  0  0  0  0  0  0  0
   -2.7977   -0.8758    0.2751 H   0  0  0  0  0  0  0  0  0  0  0  0
   -1.3670   -1.0369    1.3205 H   0  0  0  0  0  0  0  0  0  0  0  0
   -2.5681    1.3591    0.4650 H   0  0  0  0  0  0  0  0  0  0  0  0
   -1.0849    1.2002    1.4213 H   0  0  0  0  0  0  0  0  0  0  0  0
    0.9791    1.8473   -1.2065 H   0  0  0  0  0  0  0  0  0  0  0  0
    0.1416    0.5523   -2.0791 H   0  0  0  0  0  0  0  0  0  0  0  0
    0.7248   -2.1035   -0.9526 H   0  0  0  0  0  0  0  0  0  0  0  0
    0.2998   -1.7946    0.7928 H   0  0  0  0  0  0  0  0  0  0  0  0
    2.4048    1.2326    0.8700 H   0  0  0  0  0  0  0  0  0  0  0  0
    2.4493   -0.5562    1.3108 H   0  0  0  0  0  0  0  0  0  0  0  0
  1  2  1  0
  2  3  1  0
  3  4  1  0
  4  5  1  0
  5  6  1  0
  6  7  1  0
  5  8  1  0
  8  9  1  0
  7  1  1  0
  9  5  1  0
  1 10  1  0
  1 11  1  0
  2 12  1  0
  2 13  1  0
  4 14  1  0
  4 15  1  0
  6 16  1  0
  6 17  1  0
  8 18  1  0
  8 19  1  0
M  END
