
     RDKit          3D

 19 20  0  0  0  0  0  0  0  0999 V2000
   -1.7121    0.2143    0.3873 C   0  0  0  0  0  0  0  0  0  0  0  0
   -1.4471   -1.1732   -0.0946 C   0  0  0  0  0  0  0  0  0  0  0  0
   -0.1346   -1.5141   -0.2144 O   0  0  0  0  0  0  0  0  0  0  0  0
    0.6999   -0.6113    0.3726 C   0  0  0  0  0  0  0  0  0  0  0  0
    2.1684   -0.7343    0.0278 C   0  0  0  0  0  0  0  0  0  0  0  0
    2.1704    0.6768   -0.0966 O   0  0  0  0  0  0  0  0  0  0  0  0
    0.8821    0.5623   -0.5464 C   0  0  0  0  0  0  0  0  0  0  0  0
   -0.0575    1.6880   -0.2721 C   0  0  0  0  0  0  0  0  0  0  0  0
   -1.3624    1.2042   -0.4966 O   0  0  0  0  0  0  0  0  0  0  0  0
   -2.8312    0.2940    0.5312 H   0  0  0  0  0  0  0  0  0  0  0  0
   -1.2830    0.4143    1.3838 H   0  0  0  0  0  0  0  0  0  0  0  0
   -1.9140   -1.8740    0.6500 H   0  0  0  0  0  0  0  0  0  0  0  0
   -1.9627   -1.2764   -1.0926 H   0  0  0  0  0  0  0  0  0  0  0  0
    0.5856   -0.4017    1.4388 H   0  0  0  0  0  0  0  0  0  0  0  0
    2.3905   -1.2601   -0.9146 H   0  0  0  0  0  0  0  0  0  0  0  0
    2.7999   -1.0781    0.8728 H   0  0  0  0  0  0  0  0  0  0  0  0
    0.8422    0.2496   -1.6005 H   0  0  0  0  0  0  0  0  0  0  0  0
    0.1100    2.4672   -1.0436 H   0  0  0  0  0  0  0  0  0  0  0  0
    0.0556    2.1526    0.7079 H   0  0  0  0  0  0  0  0  0  0  0  0
  1  2  1  0
  2  3  1  0
  3  4  1  0
  4  5  1  0
  5  6  1  0
  6  7  1  0
  7  8  1  0
  8  9  1  0
  9  1  1  0
  7  4  1  0
  1 10  1  0
  1 11  1  0
  2 12  1  0
  2 13  1  0
  4 14  1  0
  5 15  1  0
  5 16  1  0
  7 17  1  0
  8 18  1  0
  8 19  1  0
M  END
