
     RDKit          3D

 23 24  0  0  0  0  0  0  0  0999 V2000
   -2.2513   -0.0578   -0.2944 C   0  0  0  0  0  0  0  0  0  0  0  0
   -1.8397    1.0916    0.5954 C   0  0  0  0  0  0  0  0  0  0  0  0
   -0.6569    1.6815    0.2243 O   0  0  0  0  0  0  0  0  0  0  0  0
    0.2753    0.8441   -0.3149 C   0  0  0  0  0  0  0  0  0  0  0  0
    1.6865    1.1152    0.0676 C   0  0  0  0  0  0  0  0  0  0  0  0
    2.3744   -0.2320    0.2531 C   0  0  0  0  0  0  0  0  0  0  0  0
    1.3324   -1.2345   -0.2644 C   0  0  0  0  0  0  0  0  0  0  0  0
    0.0671   -0.5745    0.2308 C   0  0  0  0  0  0  0  0  0  0  0  0
   -1.1770   -1.1195   -0.3739 C   0  0  0  0  0  0  0  0  0  0  0  0
   -2.5196    0.3643   -1.2711 H   0  0  0  0  0  0  0  0  0  0  0  0
   -3.1857   -0.4789    0.1388 H   0  0  0  0  0  0  0  0  0  0  0  0
   -2.6435    1.8738    0.4727 H   0  0  0  0  0  0  0  0  0  0  0  0
   -1.8595    0.8328    1.6732 H   0  0  0  0  0  0  0  0  0  0  0  0
    0.1981    0.7862   -1.4231 H   0  0  0  0  0  0  0  0  0  0  0  0
    1.6886    1.7165    0.9952 H   0  0  0  0  0  0  0  0  0  0  0  0
    2.2572    1.6253   -0.7539 H   0  0  0  0  0  0  0  0  0  0  0  0
    2.4768   -0.4005    1.3613 H   0  0  0  0  0  0  0  0  0  0  0  0
    3.3219   -0.3070   -0.2819 H   0  0  0  0  0  0  0  0  0  0  0  0
    1.4261   -1.1812   -1.3826 H   0  0  0  0  0  0  0  0  0  0  0  0
    1.4928   -2.2385    0.1329 H   0  0  0  0  0  0  0  0  0  0  0  0
    0.0874   -0.5956    1.3220 H   0  0  0  0  0  0  0  0  0  0  0  0
   -1.5108   -1.9823    0.2729 H   0  0  0  0  0  0  0  0  0  0  0  0
   -1.0405   -1.5290   -1.3800 H   0  0  0  0  0  0  0  0  0  0  0  0
  1  2  1  0
  2  3  1  0
  3  4  1  0
  4  5  1  0
  5  6  1  0
  6  7  1  0
  7  8  1  0
  8  9  1  0
  9  1  1  0
  8  4  1  0
  1 10  1  0
  1 11  1  0
  2 12  1  0
  2 13  1  0
  4 14  1  0
  5 15  1  0
  5 16  1  0
  6 17  1  0
  6 18  1  0
  7 19  1  0
  7 20  1  0
  8 21  1  0
  9 22  1  0
  9 23  1  0
M  END
