
     RDKit          3D

 21 22  0  0  0  0  0  0  0  0999 V2000
   -1.6132   -0.8886    0.0014 C   0  0  0  0  0  0  0  0  0  0  0  0
   -1.6592    0.5322    0.4831 C   0  0  0  0  0  0  0  0  0  0  0  0
   -0.8811    1.4025   -0.2329 O   0  0  0  0  0  0  0  0  0  0  0  0
    0.4016    1.5813    0.3393 C   0  0  0  0  0  0  0  0  0  0  0  0
    1.3129    0.6436   -0.3710 C   0  0  0  0  0  0  0  0  0  0  0  0
    2.3986   -0.1012    0.2461 C   0  0  0  0  0  0  0  0  0  0  0  0
    1.0995   -0.7390    0.2526 C   0  0  0  0  0  0  0  0  0  0  0  0
    0.5887   -1.5371   -0.7421 O   0  0  0  0  0  0  0  0  0  0  0  0
   -0.6782   -1.1209   -1.1373 C   0  0  0  0  0  0  0  0  0  0  0  0
   -2.6492   -1.1309   -0.3822 H   0  0  0  0  0  0  0  0  0  0  0  0
   -1.4606   -1.5909    0.8486 H   0  0  0  0  0  0  0  0  0  0  0  0
   -1.3464    0.6285    1.5633 H   0  0  0  0  0  0  0  0  0  0  0  0
   -2.7074    0.9525    0.4767 H   0  0  0  0  0  0  0  0  0  0  0  0
    0.3528    1.2582    1.4112 H   0  0  0  0  0  0  0  0  0  0  0  0
    0.7087    2.6444    0.2647 H   0  0  0  0  0  0  0  0  0  0  0  0
    1.2897    0.7300   -1.4773 H   0  0  0  0  0  0  0  0  0  0  0  0
    2.8351    0.1698    1.2414 H   0  0  0  0  0  0  0  0  0  0  0  0
    3.1839   -0.4991   -0.4377 H   0  0  0  0  0  0  0  0  0  0  0  0
    0.5476   -0.8024    1.2106 H   0  0  0  0  0  0  0  0  0  0  0  0
   -0.6448   -0.2052   -1.7692 H   0  0  0  0  0  0  0  0  0  0  0  0
   -1.0790   -1.9276   -1.7892 H   0  0  0  0  0  0  0  0  0  0  0  0
  1  2  1  0
  2  3  1  0
  3  4  1  0
  4  5  1  0
  5  6  1  0
  6  7  1  0
  7  8  1  0
  8  9  1  0
  9  1  1  0
  7  5  1  0
  1 10  1  0
  1 11  1  0
  2 12  1  0
  2 13  1  0
  4 14  1  0
  4 15  1  0
  5 16  1  0
  6 17  1  0
  6 18  1  0
  7 19  1  0
  9 20  1  0
  9 21  1  0
M  END
