
     RDKit          3D

 16 17  0  0  0  0  0  0  0  0999 V2000
   -1.9212   -0.0961   -0.7895 C   0  0  0  0  0  0  0  0  0  0  0  0
   -1.8968    0.2290    0.6907 C   0  0  0  0  0  0  0  0  0  0  0  0
   -0.5827    0.7361    0.7990 O   0  0  0  0  0  0  0  0  0  0  0  0
    0.1308   -0.2275    0.0913 C   0  0  0  0  0  0  0  0  0  0  0  0
    1.4287    0.3745   -0.4102 C   0  0  0  0  0  0  0  0  0  0  0  0
    2.6505   -0.0196    0.0877 C   0  0  0  0  0  0  0  0  0  0  0  0
    2.1555   -0.6778   -1.1544 O   0  0  0  0  0  0  0  0  0  0  0  0
   -0.6503   -0.5941   -0.9974 O   0  0  0  0  0  0  0  0  0  0  0  0
   -1.9655    0.8993   -1.3155 H   0  0  0  0  0  0  0  0  0  0  0  0
   -2.7325   -0.7615   -1.0809 H   0  0  0  0  0  0  0  0  0  0  0  0
   -2.6509    0.9559    0.9905 H   0  0  0  0  0  0  0  0  0  0  0  0
   -1.9365   -0.7303    1.2558 H   0  0  0  0  0  0  0  0  0  0  0  0
    0.3087   -1.0673    0.7804 H   0  0  0  0  0  0  0  0  0  0  0  0
    1.2790    1.2721   -1.0453 H   0  0  0  0  0  0  0  0  0  0  0  0
    3.6081    0.4781   -0.1766 H   0  0  0  0  0  0  0  0  0  0  0  0
    2.7750   -0.7709    0.8912 H   0  0  0  0  0  0  0  0  0  0  0  0
  1  2  1  0
  2  3  1  0
  3  4  1  0
  4  5  1  0
  5  6  1  0
  6  7  1  0
  4  8  1  0
  8  1  1  0
  7  5  1  0
  1  9  1  0
  1 10  1  0
  2 11  1  0
  2 12  1  0
  4 13  1  0
  5 14  1  0
  6 15  1  0
  6 16  1  0
M  END
