
     RDKit          3D

 21 23  0  0  0  0  0  0  0  0999 V2000
    2.1430    0.1646   -0.5130 C   0  0  0  0  0  0  0  0  0  0  0  0
    1.9583    0.2758    1.0026 C   0  0  0  0  0  0  0  0  0  0  0  0
    0.6037    0.4754    1.1230 O   0  0  0  0  0  0  0  0  0  0  0  0
   -0.0453   -0.1989    0.1312 C   0  0  0  0  0  0  0  0  0  0  0  0
    0.9647   -0.7776   -0.8109 C   0  0  0  0  0  0  0  0  0  0  0  0
   -1.1796   -1.0685    0.5447 C   0  0  0  0  0  0  0  0  0  0  0  0
   -2.2072   -0.0889    0.1026 C   0  0  0  0  0  0  0  0  0  0  0  0
   -2.0203    1.3715    0.1651 C   0  0  0  0  0  0  0  0  0  0  0  0
   -1.0628    0.6334   -0.6611 C   0  0  0  0  0  0  0  0  0  0  0  0
    3.0987   -0.2688   -0.7880 H   0  0  0  0  0  0  0  0  0  0  0  0
    1.9102    1.1397   -0.9382 H   0  0  0  0  0  0  0  0  0  0  0  0
    2.2543   -0.7278    1.4230 H   0  0  0  0  0  0  0  0  0  0  0  0
    2.5602    1.0970    1.4183 H   0  0  0  0  0  0  0  0  0  0  0  0
    1.3368   -1.7905   -0.4762 H   0  0  0  0  0  0  0  0  0  0  0  0
    0.6770   -0.7546   -1.8607 H   0  0  0  0  0  0  0  0  0  0  0  0
   -1.2052   -1.3106    1.6330 H   0  0  0  0  0  0  0  0  0  0  0  0
   -1.2425   -2.0458   -0.0101 H   0  0  0  0  0  0  0  0  0  0  0  0
   -3.0344   -0.4879   -0.4880 H   0  0  0  0  0  0  0  0  0  0  0  0
   -1.5908    1.8754    1.0713 H   0  0  0  0  0  0  0  0  0  0  0  0
   -2.7899    1.9823   -0.3288 H   0  0  0  0  0  0  0  0  0  0  0  0
   -1.1290    0.5051   -1.7396 H   0  0  0  0  0  0  0  0  0  0  0  0
  1  2  1  0
  2  3  1  0
  3  4  1  0
  4  5  1  0
  4  6  1  0
  6  7  1  0
  7  8  1  0
  8  9  1  0
  5  1  1  0
  9  7  1  0
  9  4  1  0
  1 10  1  0
  1 11  1  0
  2 12  1  0
  2 13  1  0
  5 14  1  0
  5 15  1  0
  6 16  1  0
  6 17  1  0
  7 18  1  0
  8 19  1  0
  8 20  1  0
  9 21  1  0
M  END
