
     RDKit          3D

 19 20  0  0  0  0  0  0  0  0999 V2000
   -2.1339    0.3242    0.1040 C   0  0  0  0  0  0  0  0  0  0  0  0
   -1.3837   -0.6286   -0.8353 C   0  0  0  0  0  0  0  0  0  0  0  0
   -0.4851   -1.3247   -0.0324 O   0  0  0  0  0  0  0  0  0  0  0  0
    0.3517   -0.4852    0.6746 C   0  0  0  0  0  0  0  0  0  0  0  0
    1.7783   -0.8826    0.3469 C   0  0  0  0  0  0  0  0  0  0  0  0
    2.7638    0.0476   -0.0949 C   0  0  0  0  0  0  0  0  0  0  0  0
    2.0346   -0.7454   -1.1121 O   0  0  0  0  0  0  0  0  0  0  0  0
    0.2029    0.8504    0.3707 O   0  0  0  0  0  0  0  0  0  0  0  0
   -1.0700    1.3370    0.5473 C   0  0  0  0  0  0  0  0  0  0  0  0
   -2.9224    0.7889   -0.4925 H   0  0  0  0  0  0  0  0  0  0  0  0
   -2.4645   -0.2401    0.9776 H   0  0  0  0  0  0  0  0  0  0  0  0
   -2.0586   -1.3379   -1.3261 H   0  0  0  0  0  0  0  0  0  0  0  0
   -0.8455   -0.0313   -1.6038 H   0  0  0  0  0  0  0  0  0  0  0  0
    0.1842   -0.6038    1.7638 H   0  0  0  0  0  0  0  0  0  0  0  0
    2.0899   -1.8624    0.7462 H   0  0  0  0  0  0  0  0  0  0  0  0
    3.8280   -0.2349   -0.0685 H   0  0  0  0  0  0  0  0  0  0  0  0
    2.5995    1.1297   -0.2240 H   0  0  0  0  0  0  0  0  0  0  0  0
   -1.1884    2.1959   -0.1752 H   0  0  0  0  0  0  0  0  0  0  0  0
   -1.2808    1.7032    1.5655 H   0  0  0  0  0  0  0  0  0  0  0  0
  1  2  1  0
  2  3  1  0
  3  4  1  0
  4  5  1  0
  5  6  1  0
  6  7  1  0
  4  8  1  0
  8  9  1  0
  9  1  1  0
  7  5  1  0
  1 10  1  0
  1 11  1  0
  2 12  1  0
  2 13  1  0
  4 14  1  0
  5 15  1  0
  6 16  1  0
  6 17  1  0
  9 18  1  0
  9 19  1  0
M  END
