
     RDKit          3D

 18 19  0  0  0  0  0  0  0  0999 V2000
   -1.5933   -0.0630    0.3377 C   0  0  0  0  0  0  0  0  0  0  0  0
   -1.1822    1.1429   -0.4594 C   0  0  0  0  0  0  0  0  0  0  0  0
    0.1413    1.4948   -0.2941 O   0  0  0  0  0  0  0  0  0  0  0  0
    1.0468    0.5427   -0.6514 C   0  0  0  0  0  0  0  0  0  0  0  0
    1.9189    0.1686    0.5470 C   0  0  0  0  0  0  0  0  0  0  0  0
    1.8913   -1.1450    0.0814 O   0  0  0  0  0  0  0  0  0  0  0  0
    0.6299   -0.8652   -0.4644 C   0  0  0  0  0  0  0  0  0  0  0  0
   -0.4908   -1.0695    0.5085 C   0  0  0  0  0  0  0  0  0  0  0  0
   -1.9520    0.2887    1.3300 H   0  0  0  0  0  0  0  0  0  0  0  0
   -2.4826   -0.5075   -0.1794 H   0  0  0  0  0  0  0  0  0  0  0  0
   -1.7889    2.0269   -0.1108 H   0  0  0  0  0  0  0  0  0  0  0  0
   -1.4723    1.0242   -1.5363 H   0  0  0  0  0  0  0  0  0  0  0  0
    1.6355    0.7058   -1.5613 H   0  0  0  0  0  0  0  0  0  0  0  0
    1.3756    0.2312    1.5032 H   0  0  0  0  0  0  0  0  0  0  0  0
    2.8918    0.6738    0.5162 H   0  0  0  0  0  0  0  0  0  0  0  0
    0.4932   -1.4211   -1.4050 H   0  0  0  0  0  0  0  0  0  0  0  0
   -0.9302   -2.0815    0.2774 H   0  0  0  0  0  0  0  0  0  0  0  0
   -0.1322   -1.1469    1.5607 H   0  0  0  0  0  0  0  0  0  0  0  0
  1  2  1  0
  2  3  1  0
  3  4  1  0
  4  5  1  0
  5  6  1  0
  6  7  1  0
  7  8  1  0
  8  1  1  0
  7  4  1  0
  1  9  1  0
  1 10  1  0
  2 11  1  0
  2 12  1  0
  4 13  1  0
  5 14  1  0
  5 15  1  0
  7 16  1  0
  8 17  1  0
  8 18  1  0
M  END
