
     RDKit          3D

 21 22  0  0  0  0  0  0  0  0999 V2000
   -2.6056    0.2364    0.4525 C   0  0  0  0  0  0  0  0  0  0  0  0
   -2.0559   -1.1540    0.3454 C   0  0  0  0  0  0  0  0  0  0  0  0
   -0.6817   -1.0695    0.2777 O   0  0  0  0  0  0  0  0  0  0  0  0
   -0.3599    0.2164   -0.1551 C   0  0  0  0  0  0  0  0  0  0  0  0
    1.0609    0.5528    0.1611 C   0  0  0  0  0  0  0  0  0  0  0  0
    1.9676   -0.4242   -0.5238 C   0  0  0  0  0  0  0  0  0  0  0  0
    3.4736   -0.2755   -0.3433 C   0  0  0  0  0  0  0  0  0  0  0  0
    2.7716    0.0492   -1.5422 O   0  0  0  0  0  0  0  0  0  0  0  0
   -1.3299    1.0469    0.6954 C   0  0  0  0  0  0  0  0  0  0  0  0
   -3.0409    0.5366   -0.5333 H   0  0  0  0  0  0  0  0  0  0  0  0
   -3.3343    0.3690    1.2591 H   0  0  0  0  0  0  0  0  0  0  0  0
   -2.4696   -1.6483   -0.5778 H   0  0  0  0  0  0  0  0  0  0  0  0
   -2.4046   -1.8099    1.1908 H   0  0  0  0  0  0  0  0  0  0  0  0
   -0.6218    0.3390   -1.2144 H   0  0  0  0  0  0  0  0  0  0  0  0
    1.2028    0.5256    1.2508 H   0  0  0  0  0  0  0  0  0  0  0  0
    1.2985    1.5669   -0.1882 H   0  0  0  0  0  0  0  0  0  0  0  0
    1.6022   -1.4683   -0.6058 H   0  0  0  0  0  0  0  0  0  0  0  0
    3.8504    0.6143    0.2058 H   0  0  0  0  0  0  0  0  0  0  0  0
    4.0862   -1.1964   -0.3923 H   0  0  0  0  0  0  0  0  0  0  0  0
   -0.9999    0.9226    1.7350 H   0  0  0  0  0  0  0  0  0  0  0  0
   -1.4098    2.0705    0.3443 H   0  0  0  0  0  0  0  0  0  0  0  0
  1  2  1  0
  2  3  1  0
  3  4  1  0
  4  5  1  0
  5  6  1  0
  6  7  1  0
  7  8  1  0
  4  9  1  0
  9  1  1  0
  8  6  1  0
  1 10  1  0
  1 11  1  0
  2 12  1  0
  2 13  1  0
  4 14  1  0
  5 15  1  0
  5 16  1  0
  6 17  1  0
  7 18  1  0
  7 19  1  0
  9 20  1  0
  9 21  1  0
M  END
