
     RDKit          3D

 20 21  0  0  0  0  0  0  0  0999 V2000
   -2.0952   -0.4361    0.1786 C   0  0  0  0  0  0  0  0  0  0  0  0
   -1.5798    0.5477    1.2106 C   0  0  0  0  0  0  0  0  0  0  0  0
   -0.2040    0.2560    1.2786 O   0  0  0  0  0  0  0  0  0  0  0  0
    0.2097   -0.0311    0.0106 C   0  0  0  0  0  0  0  0  0  0  0  0
   -0.9389   -0.4223   -0.8275 C   0  0  0  0  0  0  0  0  0  0  0  0
    1.1714    0.9899   -0.5892 C   0  0  0  0  0  0  0  0  0  0  0  0
    2.2672    0.2065    0.1505 C   0  0  0  0  0  0  0  0  0  0  0  0
    1.3659   -1.0108   -0.1135 C   0  0  0  0  0  0  0  0  0  0  0  0
   -2.2438   -1.4340    0.6115 H   0  0  0  0  0  0  0  0  0  0  0  0
   -2.9931   -0.0495   -0.3539 H   0  0  0  0  0  0  0  0  0  0  0  0
   -1.6909    1.5545    0.7721 H   0  0  0  0  0  0  0  0  0  0  0  0
   -2.0350    0.4260    2.1963 H   0  0  0  0  0  0  0  0  0  0  0  0
   -0.7952   -1.4378   -1.2769 H   0  0  0  0  0  0  0  0  0  0  0  0
   -1.1066    0.2779   -1.6450 H   0  0  0  0  0  0  0  0  0  0  0  0
    0.9972    1.9986   -0.2109 H   0  0  0  0  0  0  0  0  0  0  0  0
    1.2619    0.9369   -1.6844 H   0  0  0  0  0  0  0  0  0  0  0  0
    2.2699    0.5336    1.2112 H   0  0  0  0  0  0  0  0  0  0  0  0
    3.2320    0.1774   -0.3630 H   0  0  0  0  0  0  0  0  0  0  0  0
    1.4885   -1.2865   -1.1817 H   0  0  0  0  0  0  0  0  0  0  0  0
    1.4189   -1.7966    0.6258 H   0  0  0  0  0  0  0  0  0  0  0  0
  1  2  1  0
  2  3  1  0
  3  4  1  0
  4  5  1  0
  4  6  1  0
  6  7  1  0
  7  8  1  0
  5  1  1  0
  8  4  1  0
  1  9  1  0
  1 10  1  0
  2 11  1  0
  2 12  1  0
  5 13  1  0
  5 14  1  0
  6 15  1  0
  6 16  1  0
  7 17  1  0
  7 18  1  0
  8 19  1  0
  8 20  1  0
M  END
