
     RDKit          3D

 15 16  0  0  0  0  0  0  0  0999 V2000
   -2.1452    0.4355    0.3486 C   0  0  0  0  0  0  0  0  0  0  0  0
   -2.0373   -0.9238    0.1365 C   0  0  0  0  0  0  0  0  0  0  0  0
   -0.8709   -1.4997   -0.1024 O   0  0  0  0  0  0  0  0  0  0  0  0
    0.2543   -0.8357   -0.1554 C   0  0  0  0  0  0  0  0  0  0  0  0
    1.5709   -1.2236   -0.3869 C   0  0  0  0  0  0  0  0  0  0  0  0
    2.3121   -0.0744   -0.3182 C   0  0  0  0  0  0  0  0  0  0  0  0
    1.5291    1.0233   -0.0544 C   0  0  0  0  0  0  0  0  0  0  0  0
    0.2347    0.6075    0.0572 C   0  0  0  0  0  0  0  0  0  0  0  0
   -0.9899    1.1888    0.3046 C   0  0  0  0  0  0  0  0  0  0  0  0
   -3.1142    0.8779    0.5418 H   0  0  0  0  0  0  0  0  0  0  0  0
   -2.8898   -1.5958    0.1520 H   0  0  0  0  0  0  0  0  0  0  0  0
    1.9227   -2.2293   -0.5800 H   0  0  0  0  0  0  0  0  0  0  0  0
    3.4010   -0.0588   -0.4608 H   0  0  0  0  0  0  0  0  0  0  0  0
    1.8372    2.0512    0.0542 H   0  0  0  0  0  0  0  0  0  0  0  0
   -1.0148    2.2570    0.4633 H   0  0  0  0  0  0  0  0  0  0  0  0
  1  2  2  0
  2  3  1  0
  3  4  1  0
  4  5  2  0
  5  6  1  0
  6  7  2  0
  7  8  1  0
  8  9  2  0
  9  1  1  0
  8  4  1  0
  1 10  1  0
  2 11  1  0
  5 12  1  0
  6 13  1  0
  7 14  1  0
  9 15  1  0
M  END
