
     RDKit          3D

 19 20  0  0  0  0  0  0  0  0999 V2000
   -1.2436    0.9051    0.1196 C   0  0  0  0  0  0  0  0  0  0  0  0
   -1.7958   -0.3433   -0.3219 C   0  0  0  0  0  0  0  0  0  0  0  0
   -0.9564   -1.3750   -0.8435 O   0  0  0  0  0  0  0  0  0  0  0  0
    0.2203   -0.8663   -0.7198 C   0  0  0  0  0  0  0  0  0  0  0  0
    0.3467   -0.6797    0.8076 C   0  0  0  0  0  0  0  0  0  0  0  0
    1.0575    0.6417    0.6101 C   0  0  0  0  0  0  0  0  0  0  0  0
    2.0462    0.0993   -0.4442 C   0  0  0  0  0  0  0  0  0  0  0  0
    1.4823   -1.1326   -0.9188 O   0  0  0  0  0  0  0  0  0  0  0  0
    0.0231    1.3686    0.0578 O   0  0  0  0  0  0  0  0  0  0  0  0
   -1.8329    1.7303   -0.4180 H   0  0  0  0  0  0  0  0  0  0  0  0
   -1.5941    1.1046    1.1873 H   0  0  0  0  0  0  0  0  0  0  0  0
   -2.3843   -0.8819    0.4831 H   0  0  0  0  0  0  0  0  0  0  0  0
   -2.5731   -0.2595   -1.1469 H   0  0  0  0  0  0  0  0  0  0  0  0
    0.1203    0.1020   -1.3133 H   0  0  0  0  0  0  0  0  0  0  0  0
    0.9917   -1.4511    1.2244 H   0  0  0  0  0  0  0  0  0  0  0  0
   -0.5647   -0.6382    1.3512 H   0  0  0  0  0  0  0  0  0  0  0  0
    1.5353    1.0468    1.4757 H   0  0  0  0  0  0  0  0  0  0  0  0
    2.9670   -0.1908    0.0568 H   0  0  0  0  0  0  0  0  0  0  0  0
    2.1544    0.8197   -1.2474 H   0  0  0  0  0  0  0  0  0  0  0  0
  1  2  1  0
  2  3  1  0
  3  4  1  0
  4  5  1  0
  5  6  1  0
  6  7  1  0
  7  8  1  0
  6  9  1  0
  9  1  1  0
  8  4  1  0
  1 10  1  0
  1 11  1  0
  2 12  1  0
  2 13  1  0
  4 14  1  0
  5 15  1  0
  5 16  1  0
  6 17  1  0
  7 18  1  0
  7 19  1  0
M  END
