
     RDKit          3D

 20 20  0  0  0  0  0  0  0  0999 V2000
    1.9045    0.0098   -0.0959 C   0  0  0  0  0  0  0  0  0  0  0  0
    1.2371   -1.2916    0.1224 C   0  0  0  0  0  0  0  0  0  0  0  0
   -0.0010   -1.2357    0.7120 O   0  0  0  0  0  0  0  0  0  0  0  0
   -1.0120   -1.1708   -0.2255 C   0  0  0  0  0  0  0  0  0  0  0  0
   -1.9750   -0.0809    0.2391 C   0  0  0  0  0  0  0  0  0  0  0  0
   -1.2873    1.2479    0.0319 C   0  0  0  0  0  0  0  0  0  0  0  0
   -0.1391    1.1036   -0.7271 O   0  0  0  0  0  0  0  0  0  0  0  0
    1.0209    1.2088    0.0142 C   0  0  0  0  0  0  0  0  0  0  0  0
    2.3780    0.0472   -1.1186 H   0  0  0  0  0  0  0  0  0  0  0  0
    2.7584    0.1648    0.6185 H   0  0  0  0  0  0  0  0  0  0  0  0
    1.1394   -1.8327   -0.8445 H   0  0  0  0  0  0  0  0  0  0  0  0
    1.8995   -1.9299    0.7609 H   0  0  0  0  0  0  0  0  0  0  0  0
   -1.5661   -2.0950   -0.3759 H   0  0  0  0  0  0  0  0  0  0  0  0
   -0.5839   -0.8078   -1.1966 H   0  0  0  0  0  0  0  0  0  0  0  0
   -2.9191   -0.1690   -0.3297 H   0  0  0  0  0  0  0  0  0  0  0  0
   -2.1729   -0.2659    1.3191 H   0  0  0  0  0  0  0  0  0  0  0  0
   -1.1251    1.7075    1.0132 H   0  0  0  0  0  0  0  0  0  0  0  0
   -1.9909    1.8743   -0.5816 H   0  0  0  0  0  0  0  0  0  0  0  0
    0.8433    1.4364    1.0846 H   0  0  0  0  0  0  0  0  0  0  0  0
    1.5909    2.0790   -0.4206 H   0  0  0  0  0  0  0  0  0  0  0  0
  1  2  1  0
  2  3  1  0
  3  4  1  0
  4  5  1  0
  5  6  1  0
  6  7  1  0
  7  8  1  0
  8  1  1  0
  1  9  1  0
  1 10  1  0
  2 11  1  0
  2 12  1  0
  4 13  1  0
  4 14  1  0
  5 15  1  0
  5 16  1  0
  6 17  1  0
  6 18  1  0
  8 19  1  0
  8 20  1  0
M  END
