
     RDKit          3D

 20 21  0  0  0  0  0  0  0  0999 V2000
    1.8431   -0.3296    0.1889 C   0  0  0  0  0  0  0  0  0  0  0  0
    1.4743    1.1387    0.0898 C   0  0  0  0  0  0  0  0  0  0  0  0
    0.2596    1.3823    0.6416 O   0  0  0  0  0  0  0  0  0  0  0  0
   -0.5338    0.3311    0.9276 C   0  0  0  0  0  0  0  0  0  0  0  0
   -1.9651    0.6117    0.4445 C   0  0  0  0  0  0  0  0  0  0  0  0
   -1.5908   -0.1827   -0.8140 C   0  0  0  0  0  0  0  0  0  0  0  0
   -0.5008   -0.8193   -0.0163 C   0  0  0  0  0  0  0  0  0  0  0  0
    0.8068   -1.0436   -0.6932 C   0  0  0  0  0  0  0  0  0  0  0  0
    2.8637   -0.5493   -0.1070 H   0  0  0  0  0  0  0  0  0  0  0  0
    1.5909   -0.6393    1.2316 H   0  0  0  0  0  0  0  0  0  0  0  0
    2.2999    1.7931    0.4514 H   0  0  0  0  0  0  0  0  0  0  0  0
    1.3950    1.3487   -1.0176 H   0  0  0  0  0  0  0  0  0  0  0  0
   -0.4829   -0.0120    1.9805 H   0  0  0  0  0  0  0  0  0  0  0  0
   -2.1574    1.6863    0.2554 H   0  0  0  0  0  0  0  0  0  0  0  0
   -2.6700    0.1028    1.1107 H   0  0  0  0  0  0  0  0  0  0  0  0
   -2.4356   -0.8782   -1.0276 H   0  0  0  0  0  0  0  0  0  0  0  0
   -1.2946    0.4548   -1.6603 H   0  0  0  0  0  0  0  0  0  0  0  0
   -0.8545   -1.7697    0.4578 H   0  0  0  0  0  0  0  0  0  0  0  0
    0.8466   -0.5249   -1.6789 H   0  0  0  0  0  0  0  0  0  0  0  0
    1.1054   -2.1008   -0.7648 H   0  0  0  0  0  0  0  0  0  0  0  0
  1  2  1  0
  2  3  1  0
  3  4  1  0
  4  5  1  0
  5  6  1  0
  6  7  1  0
  7  8  1  0
  8  1  1  0
  7  4  1  0
  1  9  1  0
  1 10  1  0
  2 11  1  0
  2 12  1  0
  4 13  1  0
  5 14  1  0
  5 15  1  0
  6 16  1  0
  6 17  1  0
  7 18  1  0
  8 19  1  0
  8 20  1  0
M  END
