
     RDKit          3D

 21 22  0  0  0  0  0  0  0  0999 V2000
    1.6872   -1.1089    0.0474 C   0  0  0  0  0  0  0  0  0  0  0  0
    1.7527    0.3156    0.1660 C   0  0  0  0  0  0  0  0  0  0  0  0
    0.7773    1.1975    0.5010 O   0  0  0  0  0  0  0  0  0  0  0  0
   -0.3453    1.2844   -0.3096 C   0  0  0  0  0  0  0  0  0  0  0  0
   -1.6633    0.9881    0.4276 C   0  0  0  0  0  0  0  0  0  0  0  0
   -1.7893   -0.5712    0.4355 C   0  0  0  0  0  0  0  0  0  0  0  0
   -0.4044   -0.8403    0.2833 C   0  0  0  0  0  0  0  0  0  0  0  0
   -0.2431   -0.0346   -1.0245 C   0  0  0  0  0  0  0  0  0  0  0  0
    0.4393   -1.8025    0.1352 O   0  0  0  0  0  0  0  0  0  0  0  0
    2.3172   -1.6699    0.8066 H   0  0  0  0  0  0  0  0  0  0  0  0
    2.1112   -1.4833   -0.9327 H   0  0  0  0  0  0  0  0  0  0  0  0
    2.5695    0.5568    0.9336 H   0  0  0  0  0  0  0  0  0  0  0  0
    2.2569    0.7534   -0.7577 H   0  0  0  0  0  0  0  0  0  0  0  0
   -0.4004    2.1541   -0.9397 H   0  0  0  0  0  0  0  0  0  0  0  0
   -1.5320    1.3342    1.4672 H   0  0  0  0  0  0  0  0  0  0  0  0
   -2.4920    1.4362   -0.1134 H   0  0  0  0  0  0  0  0  0  0  0  0
   -2.3845   -0.8520   -0.4623 H   0  0  0  0  0  0  0  0  0  0  0  0
   -2.2253   -0.9050    1.3769 H   0  0  0  0  0  0  0  0  0  0  0  0
   -0.0028   -0.3211    1.2152 H   0  0  0  0  0  0  0  0  0  0  0  0
   -1.0899   -0.2237   -1.6909 H   0  0  0  0  0  0  0  0  0  0  0  0
    0.6609   -0.2080   -1.5647 H   0  0  0  0  0  0  0  0  0  0  0  0
  1  2  1  0
  2  3  1  0
  3  4  1  0
  4  5  1  0
  5  6  1  0
  6  7  1  0
  7  8  1  0
  7  9  1  0
  9  1  1  0
  8  4  1  0
  1 10  1  0
  1 11  1  0
  2 12  1  0
  2 13  1  0
  4 14  1  0
  5 15  1  0
  5 16  1  0
  6 17  1  0
  6 18  1  0
  7 19  1  0
  8 20  1  0
  8 21  1  0
M  END
