
     RDKit          3D

 20 21  0  0  0  0  0  0  0  0999 V2000
   -1.5979   -0.2531   -0.4160 C   0  0  0  0  0  0  0  0  0  0  0  0
   -1.3893    0.6202    0.7718 C   0  0  0  0  0  0  0  0  0  0  0  0
   -0.6116    1.7416    0.5378 O   0  0  0  0  0  0  0  0  0  0  0  0
    0.7708    1.4610    0.6349 C   0  0  0  0  0  0  0  0  0  0  0  0
    1.0518    0.4936   -0.4476 C   0  0  0  0  0  0  0  0  0  0  0  0
    1.9817   -0.6134   -0.4228 C   0  0  0  0  0  0  0  0  0  0  0  0
    0.6783   -0.8818    0.1409 C   0  0  0  0  0  0  0  0  0  0  0  0
   -0.5374   -1.3100   -0.6069 C   0  0  0  0  0  0  0  0  0  0  0  0
   -2.5815   -0.7867   -0.2708 H   0  0  0  0  0  0  0  0  0  0  0  0
   -1.7343    0.3805   -1.3087 H   0  0  0  0  0  0  0  0  0  0  0  0
   -1.0826    0.0755    1.6820 H   0  0  0  0  0  0  0  0  0  0  0  0
   -2.4107    1.0415    1.0252 H   0  0  0  0  0  0  0  0  0  0  0  0
    1.2714    2.4384    0.3861 H   0  0  0  0  0  0  0  0  0  0  0  0
    1.0685    1.1688    1.6397 H   0  0  0  0  0  0  0  0  0  0  0  0
    0.6192    0.7799   -1.4319 H   0  0  0  0  0  0  0  0  0  0  0  0
    2.8523   -0.6180    0.2775 H   0  0  0  0  0  0  0  0  0  0  0  0
    2.2396   -1.0935   -1.3853 H   0  0  0  0  0  0  0  0  0  0  0  0
    0.5961   -0.9905    1.2311 H   0  0  0  0  0  0  0  0  0  0  0  0
   -0.3075   -1.3380   -1.7052 H   0  0  0  0  0  0  0  0  0  0  0  0
   -0.8769   -2.3161   -0.3321 H   0  0  0  0  0  0  0  0  0  0  0  0
  1  2  1  0
  2  3  1  0
  3  4  1  0
  4  5  1  0
  5  6  1  0
  6  7  1  0
  7  8  1  0
  8  1  1  0
  7  5  1  0
  1  9  1  0
  1 10  1  0
  2 11  1  0
  2 12  1  0
  4 13  1  0
  4 14  1  0
  5 15  1  0
  6 16  1  0
  6 17  1  0
  7 18  1  0
  8 19  1  0
  8 20  1  0
M  END
