
     RDKit          3D

 21 22  0  0  0  0  0  0  0  0999 V2000
   -1.9416   -0.3411    0.1248 C   0  0  0  0  0  0  0  0  0  0  0  0
   -1.7649    1.0642   -0.3254 C   0  0  0  0  0  0  0  0  0  0  0  0
   -0.4386    1.4924   -0.3508 O   0  0  0  0  0  0  0  0  0  0  0  0
    0.3096    0.5878    0.3471 C   0  0  0  0  0  0  0  0  0  0  0  0
    1.7622    0.9152    0.4620 C   0  0  0  0  0  0  0  0  0  0  0  0
    2.4173   -0.4272    0.1587 C   0  0  0  0  0  0  0  0  0  0  0  0
    1.3832   -1.3623    0.1260 O   0  0  0  0  0  0  0  0  0  0  0  0
    0.3807   -0.6837   -0.5113 C   0  0  0  0  0  0  0  0  0  0  0  0
   -0.9551   -1.3111   -0.4879 C   0  0  0  0  0  0  0  0  0  0  0  0
   -1.9961   -0.4543    1.2348 H   0  0  0  0  0  0  0  0  0  0  0  0
   -2.9577   -0.6798   -0.2360 H   0  0  0  0  0  0  0  0  0  0  0  0
   -2.2703    1.7243    0.4405 H   0  0  0  0  0  0  0  0  0  0  0  0
   -2.2942    1.2763   -1.2900 H   0  0  0  0  0  0  0  0  0  0  0  0
   -0.1414    0.3897    1.3268 H   0  0  0  0  0  0  0  0  0  0  0  0
    2.0935    1.6937   -0.2570 H   0  0  0  0  0  0  0  0  0  0  0  0
    1.9727    1.2201    1.5031 H   0  0  0  0  0  0  0  0  0  0  0  0
    3.1788   -0.6830    0.9234 H   0  0  0  0  0  0  0  0  0  0  0  0
    2.8400   -0.3590   -0.8569 H   0  0  0  0  0  0  0  0  0  0  0  0
    0.7333   -0.3476   -1.5031 H   0  0  0  0  0  0  0  0  0  0  0  0
   -1.2939   -1.4694   -1.5513 H   0  0  0  0  0  0  0  0  0  0  0  0
   -1.0174   -2.2452    0.0874 H   0  0  0  0  0  0  0  0  0  0  0  0
  1  2  1  0
  2  3  1  0
  3  4  1  0
  4  5  1  0
  5  6  1  0
  6  7  1  0
  7  8  1  0
  8  9  1  0
  9  1  1  0
  8  4  1  0
  1 10  1  0
  1 11  1  0
  2 12  1  0
  2 13  1  0
  4 14  1  0
  5 15  1  0
  5 16  1  0
  6 17  1  0
  6 18  1  0
  8 19  1  0
  9 20  1  0
  9 21  1  0
M  END
