
     RDKit          3D

 21 22  0  0  0  0  0  0  0  0999 V2000
   -1.4261    0.1911    0.3863 C   0  0  0  0  0  0  0  0  0  0  0  0
   -1.0643    1.4476   -0.3431 C   0  0  0  0  0  0  0  0  0  0  0  0
    0.0250    2.1012    0.1739 O   0  0  0  0  0  0  0  0  0  0  0  0
    1.1409    1.3522    0.4018 C   0  0  0  0  0  0  0  0  0  0  0  0
    1.3712    0.2066   -0.5071 C   0  0  0  0  0  0  0  0  0  0  0  0
    1.3152   -1.1422    0.2036 C   0  0  0  0  0  0  0  0  0  0  0  0
    0.5763   -1.2273    1.3828 O   0  0  0  0  0  0  0  0  0  0  0  0
    0.0662   -1.8072    0.1000 C   0  0  0  0  0  0  0  0  0  0  0  0
   -1.1230   -1.0643   -0.3894 C   0  0  0  0  0  0  0  0  0  0  0  0
   -0.7688    0.1527    1.3037 H   0  0  0  0  0  0  0  0  0  0  0  0
   -2.4624    0.1994    0.7854 H   0  0  0  0  0  0  0  0  0  0  0  0
   -1.9269    2.1515   -0.2081 H   0  0  0  0  0  0  0  0  0  0  0  0
   -1.0138    1.3066   -1.4577 H   0  0  0  0  0  0  0  0  0  0  0  0
    2.0196    2.0325    0.3872 H   0  0  0  0  0  0  0  0  0  0  0  0
    1.0849    0.9885    1.4707 H   0  0  0  0  0  0  0  0  0  0  0  0
    0.6587    0.1327   -1.3508 H   0  0  0  0  0  0  0  0  0  0  0  0
    2.3775    0.2774   -0.9769 H   0  0  0  0  0  0  0  0  0  0  0  0
    2.2414   -1.7547    0.2353 H   0  0  0  0  0  0  0  0  0  0  0  0
    0.0322   -2.9245    0.1596 H   0  0  0  0  0  0  0  0  0  0  0  0
   -1.1094   -0.8718   -1.5008 H   0  0  0  0  0  0  0  0  0  0  0  0
   -2.0143   -1.7481   -0.2565 H   0  0  0  0  0  0  0  0  0  0  0  0
  1  2  1  0
  2  3  1  0
  3  4  1  0
  4  5  1  0
  5  6  1  0
  6  7  1  0
  7  8  1  0
  8  9  1  0
  9  1  1  0
  8  6  1  0
  1 10  1  0
  1 11  1  0
  2 12  1  0
  2 13  1  0
  4 14  1  0
  4 15  1  0
  5 16  1  0
  5 17  1  0
  6 18  1  0
  8 19  1  0
  9 20  1  0
  9 21  1  0
M  END
