
     RDKit          3D

 21 22  0  0  0  0  0  0  0  0999 V2000
   -2.4359    0.9378   -0.5434 C   0  0  0  0  0  0  0  0  0  0  0  0
   -2.3810   -0.0568    0.5903 C   0  0  0  0  0  0  0  0  0  0  0  0
   -1.5475   -1.0877    0.1247 O   0  0  0  0  0  0  0  0  0  0  0  0
   -0.4766   -0.3975   -0.4351 C   0  0  0  0  0  0  0  0  0  0  0  0
    0.4259    0.0140    0.5243 O   0  0  0  0  0  0  0  0  0  0  0  0
    1.6803   -0.5551    0.3867 C   0  0  0  0  0  0  0  0  0  0  0  0
    2.9199    0.1713    0.6783 C   0  0  0  0  0  0  0  0  0  0  0  0
    2.4193   -0.8338    1.6337 C   0  0  0  0  0  0  0  0  0  0  0  0
   -1.0964    0.6872   -1.2266 C   0  0  0  0  0  0  0  0  0  0  0  0
   -2.5144    1.9577   -0.1361 H   0  0  0  0  0  0  0  0  0  0  0  0
   -3.2713    0.7673   -1.2385 H   0  0  0  0  0  0  0  0  0  0  0  0
   -1.9104    0.3940    1.4731 H   0  0  0  0  0  0  0  0  0  0  0  0
   -3.3685   -0.4538    0.8248 H   0  0  0  0  0  0  0  0  0  0  0  0
    0.0411   -1.1124   -1.1106 H   0  0  0  0  0  0  0  0  0  0  0  0
    1.7351   -1.2566   -0.4917 H   0  0  0  0  0  0  0  0  0  0  0  0
    3.8480   -0.1046    0.1342 H   0  0  0  0  0  0  0  0  0  0  0  0
    2.9207    1.2498    0.9707 H   0  0  0  0  0  0  0  0  0  0  0  0
    2.8648   -1.8440    1.7181 H   0  0  0  0  0  0  0  0  0  0  0  0
    1.9973   -0.4365    2.5767 H   0  0  0  0  0  0  0  0  0  0  0  0
   -1.2932    0.3128   -2.2531 H   0  0  0  0  0  0  0  0  0  0  0  0
   -0.5574    1.6469   -1.2297 H   0  0  0  0  0  0  0  0  0  0  0  0
  1  2  1  0
  2  3  1  0
  3  4  1  0
  4  5  1  0
  5  6  1  0
  6  7  1  0
  7  8  1  0
  4  9  1  0
  9  1  1  0
  8  6  1  0
  1 10  1  0
  1 11  1  0
  2 12  1  0
  2 13  1  0
  4 14  1  0
  6 15  1  0
  7 16  1  0
  7 17  1  0
  8 18  1  0
  8 19  1  0
  9 20  1  0
  9 21  1  0
M  END
