
     RDKit          3D

 21 22  0  0  0  0  0  0  0  0999 V2000
   -1.8338   -0.8148    0.4253 C   0  0  0  0  0  0  0  0  0  0  0  0
   -1.9785    0.5730   -0.1067 C   0  0  0  0  0  0  0  0  0  0  0  0
   -0.9535    1.3840   -0.0962 O   0  0  0  0  0  0  0  0  0  0  0  0
    0.3020    1.1279   -0.3527 C   0  0  0  0  0  0  0  0  0  0  0  0
    1.2642    1.0079    0.8412 C   0  0  0  0  0  0  0  0  0  0  0  0
    2.0971    0.1215   -0.0721 C   0  0  0  0  0  0  0  0  0  0  0  0
    0.7882   -0.1624   -0.8293 C   0  0  0  0  0  0  0  0  0  0  0  0
    0.1896   -1.3959   -0.2851 C   0  0  0  0  0  0  0  0  0  0  0  0
   -1.1554   -1.5686   -0.5443 O   0  0  0  0  0  0  0  0  0  0  0  0
   -2.8536   -1.2520    0.4849 H   0  0  0  0  0  0  0  0  0  0  0  0
   -1.3848   -0.8848    1.4159 H   0  0  0  0  0  0  0  0  0  0  0  0
   -2.8398    1.0366    0.4636 H   0  0  0  0  0  0  0  0  0  0  0  0
   -2.3983    0.4719   -1.1515 H   0  0  0  0  0  0  0  0  0  0  0  0
    0.7486    1.9432   -1.0038 H   0  0  0  0  0  0  0  0  0  0  0  0
    1.7704    1.9470    1.1070 H   0  0  0  0  0  0  0  0  0  0  0  0
    0.8098    0.4962    1.7026 H   0  0  0  0  0  0  0  0  0  0  0  0
    2.5045   -0.7283    0.4702 H   0  0  0  0  0  0  0  0  0  0  0  0
    2.8394    0.6707   -0.6515 H   0  0  0  0  0  0  0  0  0  0  0  0
    1.0097   -0.2221   -1.9258 H   0  0  0  0  0  0  0  0  0  0  0  0
    0.3523   -1.4819    0.8260 H   0  0  0  0  0  0  0  0  0  0  0  0
    0.7218   -2.2692   -0.7178 H   0  0  0  0  0  0  0  0  0  0  0  0
  1  2  1  0
  2  3  1  0
  3  4  1  0
  4  5  1  0
  5  6  1  0
  6  7  1  0
  7  8  1  0
  8  9  1  0
  9  1  1  0
  7  4  1  0
  1 10  1  0
  1 11  1  0
  2 12  1  0
  2 13  1  0
  4 14  1  0
  5 15  1  0
  5 16  1  0
  6 17  1  0
  6 18  1  0
  7 19  1  0
  8 20  1  0
  8 21  1  0
M  END
