
     RDKit          3D

 21 22  0  0  0  0  0  0  0  0999 V2000
    2.1387    0.1857    0.6235 C   0  0  0  0  0  0  0  0  0  0  0  0
    2.2541    0.0772   -0.8697 C   0  0  0  0  0  0  0  0  0  0  0  0
    0.9758    0.1484   -1.3991 O   0  0  0  0  0  0  0  0  0  0  0  0
    0.1674   -0.3714   -0.4239 C   0  0  0  0  0  0  0  0  0  0  0  0
   -1.2794   -0.3098   -0.6751 C   0  0  0  0  0  0  0  0  0  0  0  0
   -2.0736   -0.9095    0.4618 C   0  0  0  0  0  0  0  0  0  0  0  0
   -3.0725    0.0268    0.1905 O   0  0  0  0  0  0  0  0  0  0  0  0
   -2.0456    0.8856   -0.2487 C   0  0  0  0  0  0  0  0  0  0  0  0
    0.6247    0.3871    0.7986 C   0  0  0  0  0  0  0  0  0  0  0  0
    2.3499   -0.8195    1.0491 H   0  0  0  0  0  0  0  0  0  0  0  0
    2.7156    0.9948    1.0703 H   0  0  0  0  0  0  0  0  0  0  0  0
    2.9216    0.8948   -1.2331 H   0  0  0  0  0  0  0  0  0  0  0  0
    2.7629   -0.8719   -1.1694 H   0  0  0  0  0  0  0  0  0  0  0  0
    0.4875   -1.4371   -0.2618 H   0  0  0  0  0  0  0  0  0  0  0  0
   -1.5705   -0.7334   -1.6292 H   0  0  0  0  0  0  0  0  0  0  0  0
   -2.3503   -1.9603    0.3467 H   0  0  0  0  0  0  0  0  0  0  0  0
   -1.6500   -0.6764    1.4806 H   0  0  0  0  0  0  0  0  0  0  0  0
   -2.4450    1.5321   -1.0782 H   0  0  0  0  0  0  0  0  0  0  0  0
   -1.6206    1.5220    0.5224 H   0  0  0  0  0  0  0  0  0  0  0  0
    0.2987   -0.0468    1.7397 H   0  0  0  0  0  0  0  0  0  0  0  0
    0.4104    1.4815    0.7052 H   0  0  0  0  0  0  0  0  0  0  0  0
  1  2  1  0
  2  3  1  0
  3  4  1  0
  4  5  1  0
  5  6  1  0
  6  7  1  0
  7  8  1  0
  4  9  1  0
  9  1  1  0
  8  5  1  0
  1 10  1  0
  1 11  1  0
  2 12  1  0
  2 13  1  0
  4 14  1  0
  5 15  1  0
  6 16  1  0
  6 17  1  0
  8 18  1  0
  8 19  1  0
  9 20  1  0
  9 21  1  0
M  END
