
     RDKit          3D

 21 23  0  0  0  0  0  0  0  0999 V2000
   -2.1499   -0.5404    0.3436 C   0  0  0  0  0  0  0  0  0  0  0  0
   -1.9986    0.9835    0.3000 C   0  0  0  0  0  0  0  0  0  0  0  0
   -0.6718    1.1071    0.7399 O   0  0  0  0  0  0  0  0  0  0  0  0
    0.0618    0.1620    0.0801 C   0  0  0  0  0  0  0  0  0  0  0  0
   -0.8410   -0.9367   -0.3541 C   0  0  0  0  0  0  0  0  0  0  0  0
    1.3066   -0.3431    0.7359 C   0  0  0  0  0  0  0  0  0  0  0  0
    1.9066    0.9897    0.3928 C   0  0  0  0  0  0  0  0  0  0  0  0
    1.1310    0.6074   -0.8480 C   0  0  0  0  0  0  0  0  0  0  0  0
    1.7466   -0.7523   -0.6525 C   0  0  0  0  0  0  0  0  0  0  0  0
   -3.0287   -0.8934   -0.1786 H   0  0  0  0  0  0  0  0  0  0  0  0
   -2.0494   -0.8335    1.3893 H   0  0  0  0  0  0  0  0  0  0  0  0
   -2.6999    1.4797    0.9677 H   0  0  0  0  0  0  0  0  0  0  0  0
   -2.1104    1.2615   -0.7670 H   0  0  0  0  0  0  0  0  0  0  0  0
   -0.5718   -1.9273    0.0659 H   0  0  0  0  0  0  0  0  0  0  0  0
   -0.9805   -1.0369   -1.4320 H   0  0  0  0  0  0  0  0  0  0  0  0
    1.4067   -0.8682    1.5761 H   0  0  0  0  0  0  0  0  0  0  0  0
    2.9818    0.9068    0.2379 H   0  0  0  0  0  0  0  0  0  0  0  0
    1.5120    1.8063    0.9890 H   0  0  0  0  0  0  0  0  0  0  0  0
    1.0684    1.1298   -1.6966 H   0  0  0  0  0  0  0  0  0  0  0  0
    2.8307   -0.7810   -0.7496 H   0  0  0  0  0  0  0  0  0  0  0  0
    1.1500   -1.5211   -1.1398 H   0  0  0  0  0  0  0  0  0  0  0  0
  1  2  1  0
  2  3  1  0
  3  4  1  0
  4  5  1  0
  4  6  1  0
  6  7  1  0
  7  8  1  0
  8  9  1  0
  5  1  1  0
  9  6  1  0
  8  4  1  0
  1 10  1  0
  1 11  1  0
  2 12  1  0
  2 13  1  0
  5 14  1  0
  5 15  1  0
  6 16  1  0
  7 17  1  0
  7 18  1  0
  8 19  1  0
  9 20  1  0
  9 21  1  0
M  END
