
     RDKit          3D

 19 21  0  0  0  0  0  0  0  0999 V2000
    2.2797    0.1232    0.3691 C   0  0  0  0  0  0  0  0  0  0  0  0
    1.4212    1.2027    0.0474 O   0  0  0  0  0  0  0  0  0  0  0  0
    0.4886    0.5928   -0.7290 C   0  0  0  0  0  0  0  0  0  0  0  0
   -0.9095    1.1329   -0.6644 C   0  0  0  0  0  0  0  0  0  0  0  0
   -1.6038   -0.0342   -0.0194 C   0  0  0  0  0  0  0  0  0  0  0  0
   -0.7201   -0.1827    1.2292 C   0  0  0  0  0  0  0  0  0  0  0  0
    0.2738   -0.6466    0.1662 C   0  0  0  0  0  0  0  0  0  0  0  0
   -0.8421   -1.2896   -0.4885 C   0  0  0  0  0  0  0  0  0  0  0  0
    1.4608   -1.0262    0.4571 O   0  0  0  0  0  0  0  0  0  0  0  0
    2.7619    0.3701    1.3110 H   0  0  0  0  0  0  0  0  0  0  0  0
    3.0090   -0.0409   -0.4559 H   0  0  0  0  0  0  0  0  0  0  0  0
    0.8133    0.2990   -1.7302 H   0  0  0  0  0  0  0  0  0  0  0  0
   -1.3263    1.4362   -1.6206 H   0  0  0  0  0  0  0  0  0  0  0  0
   -0.9009    1.9655    0.0976 H   0  0  0  0  0  0  0  0  0  0  0  0
   -2.6435   -0.0837    0.0854 H   0  0  0  0  0  0  0  0  0  0  0  0
   -0.4752    0.7542    1.7267 H   0  0  0  0  0  0  0  0  0  0  0  0
   -1.0174   -1.0422    1.8345 H   0  0  0  0  0  0  0  0  0  0  0  0
   -0.7414   -1.3627   -1.5844 H   0  0  0  0  0  0  0  0  0  0  0  0
   -1.3282   -2.1678   -0.0317 H   0  0  0  0  0  0  0  0  0  0  0  0
  1  2  1  0
  2  3  1  0
  3  4  1  0
  4  5  1  0
  5  6  1  0
  6  7  1  0
  7  8  1  0
  7  9  1  0
  9  1  1  0
  7  3  1  0
  8  5  1  0
  1 10  1  0
  1 11  1  0
  3 12  1  0
  4 13  1  0
  4 14  1  0
  5 15  1  0
  6 16  1  0
  6 17  1  0
  8 18  1  0
  8 19  1  0
M  END
