
     RDKit          3D

 17 19  0  0  0  0  0  0  0  0999 V2000
    2.3092   -0.1022    0.8106 C   0  0  0  0  0  0  0  0  0  0  0  0
    1.9345   -1.3320    0.2158 O   0  0  0  0  0  0  0  0  0  0  0  0
    1.4932   -0.0091   -0.3544 C   0  0  0  0  0  0  0  0  0  0  0  0
    0.0111    0.0213   -0.3852 C   0  0  0  0  0  0  0  0  0  0  0  0
   -0.7305    1.3286   -0.1935 C   0  0  0  0  0  0  0  0  0  0  0  0
   -1.7230    1.0841    0.7466 O   0  0  0  0  0  0  0  0  0  0  0  0
   -2.1011   -0.2284    0.6184 C   0  0  0  0  0  0  0  0  0  0  0  0
   -0.8498   -0.9810    0.2074 C   0  0  0  0  0  0  0  0  0  0  0  0
   -0.5975   -0.9572   -1.1415 O   0  0  0  0  0  0  0  0  0  0  0  0
    1.9119    0.1125    1.8247 H   0  0  0  0  0  0  0  0  0  0  0  0
    3.3918    0.0898    0.7285 H   0  0  0  0  0  0  0  0  0  0  0  0
    1.9844    0.0532   -1.3613 H   0  0  0  0  0  0  0  0  0  0  0  0
   -0.0532    2.1509    0.1001 H   0  0  0  0  0  0  0  0  0  0  0  0
   -1.1994    1.5827   -1.1504 H   0  0  0  0  0  0  0  0  0  0  0  0
   -2.8954   -0.3895   -0.1571 H   0  0  0  0  0  0  0  0  0  0  0  0
   -2.4668   -0.6972    1.5439 H   0  0  0  0  0  0  0  0  0  0  0  0
   -0.4195   -1.7265    0.8754 H   0  0  0  0  0  0  0  0  0  0  0  0
  1  2  1  0
  2  3  1  0
  3  4  1  0
  4  5  1  0
  5  6  1  0
  6  7  1  0
  7  8  1  0
  8  9  1  0
  3  1  1  0
  8  4  1  0
  9  4  1  0
  1 10  1  0
  1 11  1  0
  3 12  1  0
  5 13  1  0
  5 14  1  0
  7 15  1  0
  7 16  1  0
  8 17  1  0
M  END
