
     RDKit          2D

 17 20  0  0  0  0  0  0  0  0999 V2000
   -1.1139   -0.8842    0.0000 C   0  0  0  0  0  0  0  0  0  0  0  0
   -1.2833   -0.8574    0.0000 O   0  0  0  0  0  0  0  0  0  0  0  0
   -0.0000   -1.0607    0.0000 C   0  0  0  0  0  0  0  0  0  0  0  0
    1.0607    0.0000    0.0000 C   0  0  0  0  0  0  0  0  0  0  0  0
    0.0000    1.0607    0.0000 O   0  0  0  0  0  0  0  0  0  0  0  0
   -1.0607    0.0000    0.0000 C   0  0  0  0  0  0  0  0  0  0  0  0
   -2.1213   -1.0607    0.0000 C   0  0  0  0  0  0  0  0  0  0  0  0
   -1.0607   -2.1213    0.0000 C   0  0  0  0  0  0  0  0  0  0  0  0
   -2.3972   -0.6810    0.0000 C   0  0  0  0  0  0  0  0  0  0  0  0
   -2.2410   -3.6605    0.0000 H   0  0  0  0  0  0  0  0  0  0  0  0
   -3.6397   -2.4230    0.0000 H   0  0  0  0  0  0  0  0  0  0  0  0
    2.1213    1.0607    0.0000 H   0  0  0  0  0  0  0  0  0  0  0  0
    2.1213   -1.0607    0.0000 H   0  0  0  0  0  0  0  0  0  0  0  0
   -3.3034   -1.9841    0.0000 H   0  0  0  0  0  0  0  0  0  0  0  0
   -3.3034   -0.1372    0.0000 H   0  0  0  0  0  0  0  0  0  0  0  0
   -1.0607   -3.6213    0.0000 H   0  0  0  0  0  0  0  0  0  0  0  0
   -3.6407    0.1578    0.0000 H   0  0  0  0  0  0  0  0  0  0  0  0
  1  2  1  0
  2  3  1  0
  3  4  1  0
  4  5  1  0
  5  6  1  0
  6  7  1  0
  7  8  1  0
  8  9  1  0
  9  1  1  0
  6  3  1  0
  8  3  1  0
  9  6  1  0
  1 10  1  0
  1 11  1  0
  4 12  1  0
  4 13  1  0
  7 14  1  0
  7 15  1  0
  8 16  1  0
  9 17  1  0
M  END
