
     RDKit          2D

 19 21  0  0  0  0  0  0  0  0999 V2000
   -2.5095   -0.3882    0.0000 C   0  0  0  0  0  0  0  0  0  0  0  0
   -2.8978   -1.8371    0.0000 O   0  0  0  0  0  0  0  0  0  0  0  0
   -1.8371   -2.8978    0.0000 C   0  0  0  0  0  0  0  0  0  0  0  0
   -0.3882   -2.5095    0.0000 C   0  0  0  0  0  0  0  0  0  0  0  0
   -0.0000   -1.0607    0.0000 C   0  0  0  0  0  0  0  0  0  0  0  0
   -1.4489   -1.4489    0.0000 C   0  0  0  0  0  0  0  0  0  0  0  0
    1.0607    0.0000    0.0000 O   0  0  0  0  0  0  0  0  0  0  0  0
    0.0000    1.0607    0.0000 C   0  0  0  0  0  0  0  0  0  0  0  0
   -1.0607    0.0000    0.0000 C   0  0  0  0  0  0  0  0  0  0  0  0
   -2.8215    1.0790    0.0000 H   0  0  0  0  0  0  0  0  0  0  0  0
   -4.0038   -0.2575    0.0000 H   0  0  0  0  0  0  0  0  0  0  0  0
   -2.2253   -4.3467    0.0000 H   0  0  0  0  0  0  0  0  0  0  0  0
   -0.2575   -4.0038    0.0000 H   0  0  0  0  0  0  0  0  0  0  0  0
    1.1061   -2.6403    0.0000 H   0  0  0  0  0  0  0  0  0  0  0  0
   -2.2026   -1.1893    0.0000 H   0  0  0  0  0  0  0  0  0  0  0  0
   -1.7085   -0.6952    0.0000 H   0  0  0  0  0  0  0  0  0  0  0  0
   -1.0607    2.1213    0.0000 H   0  0  0  0  0  0  0  0  0  0  0  0
    1.0607    2.1213    0.0000 H   0  0  0  0  0  0  0  0  0  0  0  0
   -1.6467    1.3808    0.0000 H   0  0  0  0  0  0  0  0  0  0  0  0
  1  2  1  0
  2  3  1  0
  3  4  1  0
  4  5  1  0
  5  6  1  0
  5  7  1  0
  7  8  1  0
  8  9  1  0
  9  1  1  0
  6  3  1  0
  9  5  1  0
  1 10  1  0
  1 11  1  0
  3 12  1  0
  4 13  1  0
  4 14  1  0
  6 15  1  0
  6 16  1  0
  8 17  1  0
  8 18  1  0
  9 19  1  0
M  END
