
     RDKit          3D

 19 21  0  0  0  0  0  0  0  0999 V2000
    1.2662    1.6207    0.1684 C   0  0  0  0  0  0  0  0  0  0  0  0
   -0.0276    1.7008   -0.3882 O   0  0  0  0  0  0  0  0  0  0  0  0
   -0.8004    0.7625    0.2154 C   0  0  0  0  0  0  0  0  0  0  0  0
   -1.7514    0.0113   -0.6551 C   0  0  0  0  0  0  0  0  0  0  0  0
   -1.6467   -1.3349   -0.3562 O   0  0  0  0  0  0  0  0  0  0  0  0
   -0.7081   -1.4811    0.6702 C   0  0  0  0  0  0  0  0  0  0  0  0
    0.1800   -0.3924    0.4750 C   0  0  0  0  0  0  0  0  0  0  0  0
    1.1245   -0.6820   -0.7494 C   0  0  0  0  0  0  0  0  0  0  0  0
    1.4397    0.1145    0.4563 C   0  0  0  0  0  0  0  0  0  0  0  0
    1.3689    2.1987    1.0804 H   0  0  0  0  0  0  0  0  0  0  0  0
    1.9570    1.9098   -0.6503 H   0  0  0  0  0  0  0  0  0  0  0  0
   -1.2173    1.0496    1.1978 H   0  0  0  0  0  0  0  0  0  0  0  0
   -1.4681    0.2133   -1.7160 H   0  0  0  0  0  0  0  0  0  0  0  0
   -2.8211    0.2953   -0.5004 H   0  0  0  0  0  0  0  0  0  0  0  0
   -0.3121   -2.5187    0.6456 H   0  0  0  0  0  0  0  0  0  0  0  0
   -1.3162   -1.4148    1.6205 H   0  0  0  0  0  0  0  0  0  0  0  0
    1.5532   -1.6980   -0.7771 H   0  0  0  0  0  0  0  0  0  0  0  0
    0.7974   -0.2550   -1.6978 H   0  0  0  0  0  0  0  0  0  0  0  0
    2.3822   -0.0994    0.9610 H   0  0  0  0  0  0  0  0  0  0  0  0
  1  2  1  0
  2  3  1  0
  3  4  1  0
  4  5  1  0
  5  6  1  0
  6  7  1  0
  7  8  1  0
  8  9  1  0
  9  1  1  0
  7  3  1  0
  9  7  1  0
  1 10  1  0
  1 11  1  0
  3 12  1  0
  4 13  1  0
  4 14  1  0
  6 15  1  0
  6 16  1  0
  8 17  1  0
  8 18  1  0
  9 19  1  0
M  END
