
     RDKit          3D

 19 21  0  0  0  0  0  0  0  0999 V2000
   -0.8029   -1.3942   -0.2402 C   0  0  0  0  0  0  0  0  0  0  0  0
    0.4674   -1.7936   -0.0483 O   0  0  0  0  0  0  0  0  0  0  0  0
    1.4557   -0.8722   -0.0495 C   0  0  0  0  0  0  0  0  0  0  0  0
    1.0339    0.5271    0.3097 C   0  0  0  0  0  0  0  0  0  0  0  0
   -0.1165    0.3761    1.3172 C   0  0  0  0  0  0  0  0  0  0  0  0
   -1.2007   -0.0851    0.3320 C   0  0  0  0  0  0  0  0  0  0  0  0
   -1.0317    0.9724   -0.7481 C   0  0  0  0  0  0  0  0  0  0  0  0
   -0.2093    0.5941   -1.8661 O   0  0  0  0  0  0  0  0  0  0  0  0
    0.3758    1.2622   -0.8192 C   0  0  0  0  0  0  0  0  0  0  0  0
   -1.0174   -1.3756   -1.3483 H   0  0  0  0  0  0  0  0  0  0  0  0
   -1.4940   -2.1793    0.1831 H   0  0  0  0  0  0  0  0  0  0  0  0
    2.0578   -0.8165   -0.9900 H   0  0  0  0  0  0  0  0  0  0  0  0
    2.2065   -1.1802    0.7378 H   0  0  0  0  0  0  0  0  0  0  0  0
    1.8481    1.1318    0.7238 H   0  0  0  0  0  0  0  0  0  0  0  0
   -0.3554    1.3636    1.7281 H   0  0  0  0  0  0  0  0  0  0  0  0
    0.1042   -0.3789    2.0715 H   0  0  0  0  0  0  0  0  0  0  0  0
   -2.1804   -0.0696    0.8050 H   0  0  0  0  0  0  0  0  0  0  0  0
   -1.8621    1.6132   -1.0272 H   0  0  0  0  0  0  0  0  0  0  0  0
    0.7210    2.3045   -1.0714 H   0  0  0  0  0  0  0  0  0  0  0  0
  1  2  1  0
  2  3  1  0
  3  4  1  0
  4  5  1  0
  5  6  1  0
  6  7  1  0
  7  8  1  0
  8  9  1  0
  6  1  1  0
  9  7  1  0
  9  4  1  0
  1 10  1  0
  1 11  1  0
  3 12  1  0
  3 13  1  0
  4 14  1  0
  5 15  1  0
  5 16  1  0
  6 17  1  0
  7 18  1  0
  9 19  1  0
M  END
