
     RDKit          3D

 19 21  0  0  0  0  0  0  0  0999 V2000
   -1.5053   -0.8424    0.6314 C   0  0  0  0  0  0  0  0  0  0  0  0
   -2.4212    0.0073   -0.0346 O   0  0  0  0  0  0  0  0  0  0  0  0
   -1.4232    0.9771   -0.2916 C   0  0  0  0  0  0  0  0  0  0  0  0
   -0.4156   -0.0458    0.0879 C   0  0  0  0  0  0  0  0  0  0  0  0
    0.6654    0.4338    1.0696 C   0  0  0  0  0  0  0  0  0  0  0  0
    1.6780    0.7896    0.0308 C   0  0  0  0  0  0  0  0  0  0  0  0
    2.7121    0.1843   -0.4666 O   0  0  0  0  0  0  0  0  0  0  0  0
    1.7287   -0.6665   -0.5389 C   0  0  0  0  0  0  0  0  0  0  0  0
    0.3553   -0.6202   -1.1052 C   0  0  0  0  0  0  0  0  0  0  0  0
   -1.6068   -1.8831    0.2595 H   0  0  0  0  0  0  0  0  0  0  0  0
   -1.6746   -0.7297    1.7265 H   0  0  0  0  0  0  0  0  0  0  0  0
   -1.4548    1.8488    0.3666 H   0  0  0  0  0  0  0  0  0  0  0  0
   -1.3510    1.2785   -1.3503 H   0  0  0  0  0  0  0  0  0  0  0  0
    1.0162   -0.4626    1.6363 H   0  0  0  0  0  0  0  0  0  0  0  0
    0.3241    1.2536    1.6927 H   0  0  0  0  0  0  0  0  0  0  0  0
    1.2362    1.5608   -0.6763 H   0  0  0  0  0  0  0  0  0  0  0  0
    1.8054   -1.4893    0.2379 H   0  0  0  0  0  0  0  0  0  0  0  0
    0.0289   -1.6573   -1.3240 H   0  0  0  0  0  0  0  0  0  0  0  0
    0.3019    0.0631   -1.9517 H   0  0  0  0  0  0  0  0  0  0  0  0
  1  2  1  0
  2  3  1  0
  3  4  1  0
  4  5  1  0
  5  6  1  0
  6  7  1  0
  7  8  1  0
  8  9  1  0
  4  1  1  0
  8  6  1  0
  9  4  1  0
  1 10  1  0
  1 11  1  0
  3 12  1  0
  3 13  1  0
  5 14  1  0
  5 15  1  0
  6 16  1  0
  8 17  1  0
  9 18  1  0
  9 19  1  0
M  END
