
     RDKit          3D

 19 21  0  0  0  0  0  0  0  0999 V2000
    2.2716   -0.5853    0.2138 C   0  0  0  0  0  0  0  0  0  0  0  0
    1.7733    0.6053   -0.3496 O   0  0  0  0  0  0  0  0  0  0  0  0
    0.5810    0.8628    0.2709 C   0  0  0  0  0  0  0  0  0  0  0  0
   -0.5152    1.4103   -0.5413 C   0  0  0  0  0  0  0  0  0  0  0  0
   -1.7525    0.7322    0.0707 C   0  0  0  0  0  0  0  0  0  0  0  0
   -1.2249   -0.6330    0.5481 C   0  0  0  0  0  0  0  0  0  0  0  0
   -0.5218   -1.3516   -0.5665 C   0  0  0  0  0  0  0  0  0  0  0  0
    0.1531   -0.5709    0.4944 C   0  0  0  0  0  0  0  0  0  0  0  0
    1.2413   -1.0921    1.0411 O   0  0  0  0  0  0  0  0  0  0  0  0
    3.2000   -0.4179    0.7688 H   0  0  0  0  0  0  0  0  0  0  0  0
    2.4146   -1.3662   -0.5693 H   0  0  0  0  0  0  0  0  0  0  0  0
    0.7209    1.3810    1.2349 H   0  0  0  0  0  0  0  0  0  0  0  0
   -0.4430    1.2539   -1.6132 H   0  0  0  0  0  0  0  0  0  0  0  0
   -0.5836    2.5173   -0.3455 H   0  0  0  0  0  0  0  0  0  0  0  0
   -2.4321    0.5138   -0.7730 H   0  0  0  0  0  0  0  0  0  0  0  0
   -2.1853    1.3127    0.8783 H   0  0  0  0  0  0  0  0  0  0  0  0
   -1.8147   -1.1633    1.2955 H   0  0  0  0  0  0  0  0  0  0  0  0
   -0.4176   -2.4531   -0.4825 H   0  0  0  0  0  0  0  0  0  0  0  0
   -0.4648   -0.9557   -1.5757 H   0  0  0  0  0  0  0  0  0  0  0  0
  1  2  1  0
  2  3  1  0
  3  4  1  0
  4  5  1  0
  5  6  1  0
  6  7  1  0
  7  8  1  0
  8  9  1  0
  9  1  1  0
  8  3  1  0
  8  6  1  0
  1 10  1  0
  1 11  1  0
  3 12  1  0
  4 13  1  0
  4 14  1  0
  5 15  1  0
  5 16  1  0
  6 17  1  0
  7 18  1  0
  7 19  1  0
M  END
