
     RDKit          3D

 21 23  0  0  0  0  0  0  0  0999 V2000
    1.9062   -0.9007   -0.4138 C   0  0  0  0  0  0  0  0  0  0  0  0
    1.0232   -1.5447    0.4438 O   0  0  0  0  0  0  0  0  0  0  0  0
    0.1709   -0.6072    0.9876 C   0  0  0  0  0  0  0  0  0  0  0  0
    1.0365    0.6712    0.9995 C   0  0  0  0  0  0  0  0  0  0  0  0
    1.3803    0.5320   -0.4944 C   0  0  0  0  0  0  0  0  0  0  0  0
    0.0249    0.4539   -1.1303 C   0  0  0  0  0  0  0  0  0  0  0  0
   -0.8081   -0.1882   -0.0613 C   0  0  0  0  0  0  0  0  0  0  0  0
   -2.1306   -0.7149   -0.2394 C   0  0  0  0  0  0  0  0  0  0  0  0
   -2.0064    0.6640    0.3786 C   0  0  0  0  0  0  0  0  0  0  0  0
    2.9278   -0.7977    0.0543 H   0  0  0  0  0  0  0  0  0  0  0  0
    1.9679   -1.3642   -1.4061 H   0  0  0  0  0  0  0  0  0  0  0  0
   -0.2321   -0.8456    1.9541 H   0  0  0  0  0  0  0  0  0  0  0  0
    1.9045    0.5164    1.6364 H   0  0  0  0  0  0  0  0  0  0  0  0
    0.4368    1.5570    1.2002 H   0  0  0  0  0  0  0  0  0  0  0  0
    2.0632    1.2519   -0.8613 H   0  0  0  0  0  0  0  0  0  0  0  0
   -0.2917    1.4537   -1.4222 H   0  0  0  0  0  0  0  0  0  0  0  0
    0.1041   -0.1734   -2.0467 H   0  0  0  0  0  0  0  0  0  0  0  0
   -2.5972   -0.7869   -1.2389 H   0  0  0  0  0  0  0  0  0  0  0  0
   -2.4966   -1.4886    0.4608 H   0  0  0  0  0  0  0  0  0  0  0  0
   -2.2938    1.5188   -0.2649 H   0  0  0  0  0  0  0  0  0  0  0  0
   -2.0897    0.7930    1.4639 H   0  0  0  0  0  0  0  0  0  0  0  0
  1  2  1  0
  2  3  1  0
  3  4  1  0
  4  5  1  0
  5  6  1  0
  6  7  1  0
  7  8  1  0
  8  9  1  0
  5  1  1  0
  9  7  1  0
  7  3  1  0
  1 10  1  0
  1 11  1  0
  3 12  1  0
  4 13  1  0
  4 14  1  0
  5 15  1  0
  6 16  1  0
  6 17  1  0
  8 18  1  0
  8 19  1  0
  9 20  1  0
  9 21  1  0
M  END
