
     RDKit          3D

 21 23  0  0  0  0  0  0  0  0999 V2000
    0.6098   -1.4040    0.6267 C   0  0  0  0  0  0  0  0  0  0  0  0
   -0.7746   -1.6286    0.5286 O   0  0  0  0  0  0  0  0  0  0  0  0
   -1.3769   -0.4539    0.8158 C   0  0  0  0  0  0  0  0  0  0  0  0
   -2.5338    0.1714    0.2604 C   0  0  0  0  0  0  0  0  0  0  0  0
   -1.3538    0.3098   -0.5387 C   0  0  0  0  0  0  0  0  0  0  0  0
   -0.2411    1.2722   -0.4050 C   0  0  0  0  0  0  0  0  0  0  0  0
    1.0152    0.5886   -0.8972 C   0  0  0  0  0  0  0  0  0  0  0  0
    2.2068    0.4183   -0.0795 C   0  0  0  0  0  0  0  0  0  0  0  0
    1.2607   -0.7578   -0.4976 C   0  0  0  0  0  0  0  0  0  0  0  0
    1.0596   -2.3959    0.8224 H   0  0  0  0  0  0  0  0  0  0  0  0
    0.7303   -0.8402    1.5986 H   0  0  0  0  0  0  0  0  0  0  0  0
   -0.8975    0.0627    1.6997 H   0  0  0  0  0  0  0  0  0  0  0  0
   -2.9436    1.0763    0.7598 H   0  0  0  0  0  0  0  0  0  0  0  0
   -3.3674   -0.4590   -0.1402 H   0  0  0  0  0  0  0  0  0  0  0  0
   -1.2926   -0.2955   -1.4711 H   0  0  0  0  0  0  0  0  0  0  0  0
   -0.4200    2.2047   -0.9350 H   0  0  0  0  0  0  0  0  0  0  0  0
   -0.0272    1.5581    0.6668 H   0  0  0  0  0  0  0  0  0  0  0  0
    1.2116    0.8457   -1.9827 H   0  0  0  0  0  0  0  0  0  0  0  0
    2.1788    0.7470    0.9549 H   0  0  0  0  0  0  0  0  0  0  0  0
    3.2019    0.4377   -0.5490 H   0  0  0  0  0  0  0  0  0  0  0  0
    1.7536   -1.4574   -1.2378 H   0  0  0  0  0  0  0  0  0  0  0  0
  1  2  1  0
  2  3  1  0
  3  4  1  0
  4  5  1  0
  5  6  1  0
  6  7  1  0
  7  8  1  0
  8  9  1  0
  9  1  1  0
  5  3  1  0
  9  7  1  0
  1 10  1  0
  1 11  1  0
  3 12  1  0
  4 13  1  0
  4 14  1  0
  5 15  1  0
  6 16  1  0
  6 17  1  0
  7 18  1  0
  8 19  1  0
  8 20  1  0
  9 21  1  0
M  END
