
     RDKit          3D

 19 21  0  0  0  0  0  0  0  0999 V2000
    2.0202   -0.2314   -0.1782 C   0  0  0  0  0  0  0  0  0  0  0  0
    1.8097    0.9993    0.3922 O   0  0  0  0  0  0  0  0  0  0  0  0
    0.5235    1.4379    0.1264 C   0  0  0  0  0  0  0  0  0  0  0  0
   -0.5481    0.4784    0.4312 C   0  0  0  0  0  0  0  0  0  0  0  0
   -1.6326    0.2214   -0.6288 C   0  0  0  0  0  0  0  0  0  0  0  0
   -0.8451   -1.0670   -0.8899 C   0  0  0  0  0  0  0  0  0  0  0  0
   -0.1160   -0.9218    0.3930 C   0  0  0  0  0  0  0  0  0  0  0  0
   -0.6844   -0.3371    1.6194 C   0  0  0  0  0  0  0  0  0  0  0  0
    1.2170   -1.1819    0.3812 O   0  0  0  0  0  0  0  0  0  0  0  0
    3.0875   -0.5175    0.0594 H   0  0  0  0  0  0  0  0  0  0  0  0
    1.9551   -0.2505   -1.2773 H   0  0  0  0  0  0  0  0  0  0  0  0
    0.3339    2.4201    0.5987 H   0  0  0  0  0  0  0  0  0  0  0  0
    0.4935    1.6419   -0.9852 H   0  0  0  0  0  0  0  0  0  0  0  0
   -1.6488    0.9320   -1.4501 H   0  0  0  0  0  0  0  0  0  0  0  0
   -2.6081   -0.0676   -0.1803 H   0  0  0  0  0  0  0  0  0  0  0  0
   -1.4514   -1.9513   -1.0609 H   0  0  0  0  0  0  0  0  0  0  0  0
   -0.1480   -0.8493   -1.7523 H   0  0  0  0  0  0  0  0  0  0  0  0
   -0.0180   -0.1805    2.4637 H   0  0  0  0  0  0  0  0  0  0  0  0
   -1.7400   -0.5751    1.9377 H   0  0  0  0  0  0  0  0  0  0  0  0
  1  2  1  0
  2  3  1  0
  3  4  1  0
  4  5  1  0
  5  6  1  0
  6  7  1  0
  7  8  1  0
  7  9  1  0
  9  1  1  0
  7  4  1  0
  8  4  1  0
  1 10  1  0
  1 11  1  0
  3 12  1  0
  3 13  1  0
  5 14  1  0
  5 15  1  0
  6 16  1  0
  6 17  1  0
  8 18  1  0
  8 19  1  0
M  END
