
     RDKit          3D

 17 19  0  0  0  0  0  0  0  0999 V2000
    1.8245    0.0372   -0.2720 C   0  0  0  0  0  0  0  0  0  0  0  0
    1.0913   -0.8380   -1.0155 O   0  0  0  0  0  0  0  0  0  0  0  0
   -0.2308   -0.9173   -0.6058 C   0  0  0  0  0  0  0  0  0  0  0  0
   -0.2946   -1.3311    0.8737 C   0  0  0  0  0  0  0  0  0  0  0  0
    0.0063    0.1552    1.1456 C   0  0  0  0  0  0  0  0  0  0  0  0
    1.3847    0.2773    1.0010 O   0  0  0  0  0  0  0  0  0  0  0  0
   -0.6501    0.4311   -0.1275 C   0  0  0  0  0  0  0  0  0  0  0  0
   -1.1895    1.4793   -0.7699 C   0  0  0  0  0  0  0  0  0  0  0  0
   -2.0772    0.6197   -0.0331 O   0  0  0  0  0  0  0  0  0  0  0  0
    2.8656   -0.3934   -0.1791 H   0  0  0  0  0  0  0  0  0  0  0  0
    1.9873    0.9878   -0.8602 H   0  0  0  0  0  0  0  0  0  0  0  0
   -0.9406   -1.3979   -1.2577 H   0  0  0  0  0  0  0  0  0  0  0  0
   -1.3289   -1.5990    1.1481 H   0  0  0  0  0  0  0  0  0  0  0  0
    0.5064   -2.0006    1.1806 H   0  0  0  0  0  0  0  0  0  0  0  0
   -0.3832    0.5360    2.0803 H   0  0  0  0  0  0  0  0  0  0  0  0
   -1.4323    1.4220   -1.8725 H   0  0  0  0  0  0  0  0  0  0  0  0
   -1.1390    2.5317   -0.4358 H   0  0  0  0  0  0  0  0  0  0  0  0
  1  2  1  0
  2  3  1  0
  3  4  1  0
  4  5  1  0
  5  6  1  0
  5  7  1  0
  7  8  1  0
  8  9  1  0
  6  1  1  0
  9  7  1  0
  7  3  1  0
  1 10  1  0
  1 11  1  0
  3 12  1  0
  4 13  1  0
  4 14  1  0
  5 15  1  0
  8 16  1  0
  8 17  1  0
M  END
