
     RDKit          3D

 19 20  0  0  0  0  0  0  0  0999 V2000
   -2.3064   -0.6992    0.1535 C   0  0  0  0  0  0  0  0  0  0  0  0
   -3.2997    0.1809   -0.2915 O   0  0  0  0  0  0  0  0  0  0  0  0
   -2.3396    0.7781   -1.1431 C   0  0  0  0  0  0  0  0  0  0  0  0
   -1.3003    0.4178   -0.1558 C   0  0  0  0  0  0  0  0  0  0  0  0
   -0.1317   -0.1456   -0.6076 O   0  0  0  0  0  0  0  0  0  0  0  0
    0.9174    0.3981    0.1327 C   0  0  0  0  0  0  0  0  0  0  0  0
    2.2596   -0.1355   -0.2624 C   0  0  0  0  0  0  0  0  0  0  0  0
    3.0827   -0.7380    0.8537 C   0  0  0  0  0  0  0  0  0  0  0  0
    2.5165   -1.4991   -0.1581 O   0  0  0  0  0  0  0  0  0  0  0  0
   -2.1360   -1.5797   -0.4954 H   0  0  0  0  0  0  0  0  0  0  0  0
   -2.2974   -0.9088    1.2267 H   0  0  0  0  0  0  0  0  0  0  0  0
   -2.3642    0.2574   -2.1039 H   0  0  0  0  0  0  0  0  0  0  0  0
   -2.5610    1.8542   -1.2979 H   0  0  0  0  0  0  0  0  0  0  0  0
   -1.2287    1.1551    0.6591 H   0  0  0  0  0  0  0  0  0  0  0  0
    0.9466    1.5011    0.0543 H   0  0  0  0  0  0  0  0  0  0  0  0
    0.6916    0.1289    1.2061 H   0  0  0  0  0  0  0  0  0  0  0  0
    2.7794    0.3535   -1.1140 H   0  0  0  0  0  0  0  0  0  0  0  0
    4.1523   -0.4779    0.8130 H   0  0  0  0  0  0  0  0  0  0  0  0
    2.6189   -0.8414    1.8368 H   0  0  0  0  0  0  0  0  0  0  0  0
  1  2  1  0
  2  3  1  0
  3  4  1  0
  4  5  1  0
  5  6  1  0
  6  7  1  0
  7  8  1  0
  8  9  1  0
  4  1  1  0
  9  7  1  0
  1 10  1  0
  1 11  1  0
  3 12  1  0
  3 13  1  0
  4 14  1  0
  6 15  1  0
  6 16  1  0
  7 17  1  0
  8 18  1  0
  8 19  1  0
M  END
