
     RDKit          3D

 16 17  0  0  0  0  0  0  0  0999 V2000
   -0.3514    1.2897   -0.4923 C   0  0  0  0  0  0  0  0  0  0  0  0
   -1.5699    0.6472   -0.3953 O   0  0  0  0  0  0  0  0  0  0  0  0
   -1.5338   -0.4663    0.4481 C   0  0  0  0  0  0  0  0  0  0  0  0
   -0.2615   -1.2787    0.2488 C   0  0  0  0  0  0  0  0  0  0  0  0
    0.7640   -0.8552    1.0850 O   0  0  0  0  0  0  0  0  0  0  0  0
    1.5418    0.0381    0.3828 C   0  0  0  0  0  0  0  0  0  0  0  0
    0.7011    0.2811   -0.8589 C   0  0  0  0  0  0  0  0  0  0  0  0
    0.1576   -1.0020   -1.0630 O   0  0  0  0  0  0  0  0  0  0  0  0
   -0.0959    1.8167    0.4737 H   0  0  0  0  0  0  0  0  0  0  0  0
   -0.4468    2.0838   -1.2421 H   0  0  0  0  0  0  0  0  0  0  0  0
   -1.5431   -0.1648    1.5098 H   0  0  0  0  0  0  0  0  0  0  0  0
   -2.3689   -1.1151    0.1515 H   0  0  0  0  0  0  0  0  0  0  0  0
   -0.4325   -2.3620    0.3346 H   0  0  0  0  0  0  0  0  0  0  0  0
    2.5269   -0.3947    0.1534 H   0  0  0  0  0  0  0  0  0  0  0  0
    1.6317    0.9615    1.0067 H   0  0  0  0  0  0  0  0  0  0  0  0
    1.2807    0.5207   -1.7428 H   0  0  0  0  0  0  0  0  0  0  0  0
  1  2  1  0
  2  3  1  0
  3  4  1  0
  4  5  1  0
  5  6  1  0
  6  7  1  0
  7  8  1  0
  7  1  1  0
  8  4  1  0
  1  9  1  0
  1 10  1  0
  3 11  1  0
  3 12  1  0
  4 13  1  0
  6 14  1  0
  6 15  1  0
  7 16  1  0
M  END
