
     RDKit          3D

 17 20  0  0  0  0  0  0  0  0999 V2000
   -1.2055   -0.9621   -0.8484 C   0  0  0  0  0  0  0  0  0  0  0  0
   -2.4546   -0.3291   -0.6436 O   0  0  0  0  0  0  0  0  0  0  0  0
   -1.9618    0.3949    0.4688 C   0  0  0  0  0  0  0  0  0  0  0  0
   -0.6103    0.0115    0.0687 C   0  0  0  0  0  0  0  0  0  0  0  0
    0.5591   -0.1489    0.8866 C   0  0  0  0  0  0  0  0  0  0  0  0
    1.8306   -0.6259    0.2245 C   0  0  0  0  0  0  0  0  0  0  0  0
    1.9101   -0.7481   -1.1388 O   0  0  0  0  0  0  0  0  0  0  0  0
    1.8138    0.5209   -0.6368 C   0  0  0  0  0  0  0  0  0  0  0  0
    0.4520    0.9548   -0.2159 C   0  0  0  0  0  0  0  0  0  0  0  0
   -1.2836   -1.9799   -0.3647 H   0  0  0  0  0  0  0  0  0  0  0  0
   -0.8585   -0.9799   -1.8801 H   0  0  0  0  0  0  0  0  0  0  0  0
   -2.3707   -0.0253    1.4206 H   0  0  0  0  0  0  0  0  0  0  0  0
   -2.2243    1.4663    0.4241 H   0  0  0  0  0  0  0  0  0  0  0  0
    0.7065    0.2510    1.8934 H   0  0  0  0  0  0  0  0  0  0  0  0
    2.6575   -1.0159    0.8132 H   0  0  0  0  0  0  0  0  0  0  0  0
    2.6643    1.2184   -0.6259 H   0  0  0  0  0  0  0  0  0  0  0  0
    0.3751    1.9973    0.1545 H   0  0  0  0  0  0  0  0  0  0  0  0
  1  2  1  0
  2  3  1  0
  3  4  1  0
  4  5  1  0
  5  6  1  0
  6  7  1  0
  7  8  1  0
  8  9  1  0
  4  1  1  0
  9  5  1  0
  9  4  1  0
  8  6  1  0
  1 10  1  0
  1 11  1  0
  3 12  1  0
  3 13  1  0
  5 14  1  0
  6 15  1  0
  8 16  1  0
  9 17  1  0
M  END
