
     RDKit          3D

 21 23  0  0  0  0  0  0  0  0999 V2000
   -2.0049    0.7856   -0.2708 C   0  0  0  0  0  0  0  0  0  0  0  0
   -1.0245    1.7332   -0.0509 O   0  0  0  0  0  0  0  0  0  0  0  0
    0.1037    1.3512    0.5808 C   0  0  0  0  0  0  0  0  0  0  0  0
    0.7636    0.0837    0.1115 C   0  0  0  0  0  0  0  0  0  0  0  0
    2.1429    0.2064   -0.5084 C   0  0  0  0  0  0  0  0  0  0  0  0
    1.9038   -0.4889    0.8135 C   0  0  0  0  0  0  0  0  0  0  0  0
   -0.2220   -0.6400   -0.7011 C   0  0  0  0  0  0  0  0  0  0  0  0
   -1.1074   -1.7099   -0.4467 C   0  0  0  0  0  0  0  0  0  0  0  0
   -1.4943   -0.5119    0.1837 C   0  0  0  0  0  0  0  0  0  0  0  0
   -2.2974    0.8336   -1.3408 H   0  0  0  0  0  0  0  0  0  0  0  0
   -2.8989    1.0850    0.3356 H   0  0  0  0  0  0  0  0  0  0  0  0
   -0.1053    1.2280    1.6647 H   0  0  0  0  0  0  0  0  0  0  0  0
    0.8505    2.1660    0.4958 H   0  0  0  0  0  0  0  0  0  0  0  0
    2.4093   -0.4564   -1.3616 H   0  0  0  0  0  0  0  0  0  0  0  0
    2.6093    1.1907   -0.5448 H   0  0  0  0  0  0  0  0  0  0  0  0
    2.3054    0.1070    1.6806 H   0  0  0  0  0  0  0  0  0  0  0  0
    2.0757   -1.5664    0.9168 H   0  0  0  0  0  0  0  0  0  0  0  0
   -0.2643   -0.1983   -1.7420 H   0  0  0  0  0  0  0  0  0  0  0  0
   -0.7251   -2.5632    0.1867 H   0  0  0  0  0  0  0  0  0  0  0  0
   -1.6755   -2.1602   -1.3107 H   0  0  0  0  0  0  0  0  0  0  0  0
   -1.3445   -0.4753    1.3080 H   0  0  0  0  0  0  0  0  0  0  0  0
  1  2  1  0
  2  3  1  0
  3  4  1  0
  4  5  1  0
  5  6  1  0
  4  7  1  0
  7  8  1  0
  8  9  1  0
  9  1  1  0
  6  4  1  0
  9  7  1  0
  1 10  1  0
  1 11  1  0
  3 12  1  0
  3 13  1  0
  5 14  1  0
  5 15  1  0
  6 16  1  0
  6 17  1  0
  7 18  1  0
  8 19  1  0
  8 20  1  0
  9 21  1  0
M  END
