
     RDKit          3D

 19 21  0  0  0  0  0  0  0  0999 V2000
   -1.6312   -0.8922    0.0891 C   0  0  0  0  0  0  0  0  0  0  0  0
   -2.1948    0.2482   -0.4895 O   0  0  0  0  0  0  0  0  0  0  0  0
   -1.1925    1.2391   -0.4280 C   0  0  0  0  0  0  0  0  0  0  0  0
   -0.7349    1.0181    1.0291 C   0  0  0  0  0  0  0  0  0  0  0  0
   -0.3291   -0.4362    0.7102 C   0  0  0  0  0  0  0  0  0  0  0  0
    0.6067   -0.1136   -0.4208 C   0  0  0  0  0  0  0  0  0  0  0  0
    1.5908   -1.0108   -0.9604 C   0  0  0  0  0  0  0  0  0  0  0  0
    2.0613    0.1453   -0.0916 C   0  0  0  0  0  0  0  0  0  0  0  0
   -0.0980    0.8302   -1.1423 O   0  0  0  0  0  0  0  0  0  0  0  0
   -1.3762   -1.5693   -0.7549 H   0  0  0  0  0  0  0  0  0  0  0  0
   -2.3061   -1.3770    0.8033 H   0  0  0  0  0  0  0  0  0  0  0  0
   -1.5592    2.2283   -0.6072 H   0  0  0  0  0  0  0  0  0  0  0  0
    0.1374    1.6284    1.2735 H   0  0  0  0  0  0  0  0  0  0  0  0
   -1.5650    1.0581    1.7278 H   0  0  0  0  0  0  0  0  0  0  0  0
    0.0426   -0.9865    1.5314 H   0  0  0  0  0  0  0  0  0  0  0  0
    1.8974   -0.9025   -2.0237 H   0  0  0  0  0  0  0  0  0  0  0  0
    1.7404   -2.0302   -0.5762 H   0  0  0  0  0  0  0  0  0  0  0  0
    2.4743    1.0446   -0.5886 H   0  0  0  0  0  0  0  0  0  0  0  0
    2.4358   -0.1219    0.9189 H   0  0  0  0  0  0  0  0  0  0  0  0
  1  2  1  0
  2  3  1  0
  3  4  1  0
  4  5  1  0
  5  6  1  0
  6  7  1  0
  7  8  1  0
  6  9  1  0
  5  1  1  0
  8  6  1  0
  9  3  1  0
  1 10  1  0
  1 11  1  0
  3 12  1  0
  4 13  1  0
  4 14  1  0
  5 15  1  0
  7 16  1  0
  7 17  1  0
  8 18  1  0
  8 19  1  0
M  END
