
     RDKit          3D

 19 22  0  0  0  0  0  0  0  0999 V2000
    1.6685   -0.3608    0.4668 C   0  0  0  0  0  0  0  0  0  0  0  0
    1.2319   -1.2208   -0.5166 O   0  0  0  0  0  0  0  0  0  0  0  0
   -0.1138   -1.1978   -0.7537 C   0  0  0  0  0  0  0  0  0  0  0  0
   -0.6469    0.1514   -1.1667 C   0  0  0  0  0  0  0  0  0  0  0  0
    0.3142    1.2508   -0.7276 C   0  0  0  0  0  0  0  0  0  0  0  0
    0.6461    0.7520    0.6764 C   0  0  0  0  0  0  0  0  0  0  0  0
   -0.6741    0.1997    1.1693 C   0  0  0  0  0  0  0  0  0  0  0  0
   -1.5627    0.1016    0.0178 C   0  0  0  0  0  0  0  0  0  0  0  0
   -0.9056   -1.1003    0.5147 C   0  0  0  0  0  0  0  0  0  0  0  0
    1.9852   -0.8321    1.3945 H   0  0  0  0  0  0  0  0  0  0  0  0
    2.5780    0.1617    0.0510 H   0  0  0  0  0  0  0  0  0  0  0  0
   -0.4351   -2.0132   -1.4051 H   0  0  0  0  0  0  0  0  0  0  0  0
   -1.0751    0.2469   -2.1512 H   0  0  0  0  0  0  0  0  0  0  0  0
   -0.1734    2.2229   -0.6558 H   0  0  0  0  0  0  0  0  0  0  0  0
    1.2364    1.2524   -1.3170 H   0  0  0  0  0  0  0  0  0  0  0  0
    1.0168    1.5337    1.3308 H   0  0  0  0  0  0  0  0  0  0  0  0
   -1.0900    0.4970    2.1244 H   0  0  0  0  0  0  0  0  0  0  0  0
   -2.6112    0.3065   -0.0253 H   0  0  0  0  0  0  0  0  0  0  0  0
   -1.3892   -1.9515    0.9734 H   0  0  0  0  0  0  0  0  0  0  0  0
  1  2  1  0
  2  3  1  0
  3  4  1  0
  4  5  1  0
  5  6  1  0
  6  7  1  0
  7  8  1  0
  8  9  1  0
  6  1  1  0
  9  7  1  0
  9  3  1  0
  8  4  1  0
  1 10  1  0
  1 11  1  0
  3 12  1  0
  4 13  1  0
  5 14  1  0
  5 15  1  0
  6 16  1  0
  7 17  1  0
  8 18  1  0
  9 19  1  0
M  END
