
     RDKit          3D

 21 23  0  0  0  0  0  0  0  0999 V2000
    0.7918    1.6171    0.2191 C   0  0  0  0  0  0  0  0  0  0  0  0
    1.5570    0.5521    0.7124 O   0  0  0  0  0  0  0  0  0  0  0  0
    1.6230   -0.5013   -0.1638 C   0  0  0  0  0  0  0  0  0  0  0  0
    0.5218   -1.4687   -0.1218 C   0  0  0  0  0  0  0  0  0  0  0  0
   -0.7272   -1.0817   -0.8120 C   0  0  0  0  0  0  0  0  0  0  0  0
   -0.8811    0.3670   -1.1123 C   0  0  0  0  0  0  0  0  0  0  0  0
   -0.6365    1.1379    0.1595 C   0  0  0  0  0  0  0  0  0  0  0  0
   -0.8273    0.1322    1.2713 C   0  0  0  0  0  0  0  0  0  0  0  0
   -0.6321   -1.2169    0.7014 C   0  0  0  0  0  0  0  0  0  0  0  0
    0.9368    2.4869    0.8800 H   0  0  0  0  0  0  0  0  0  0  0  0
    1.1257    1.7904   -0.8212 H   0  0  0  0  0  0  0  0  0  0  0  0
    1.7405   -0.1434   -1.2299 H   0  0  0  0  0  0  0  0  0  0  0  0
    2.6040   -1.0246    0.0403 H   0  0  0  0  0  0  0  0  0  0  0  0
    0.8130   -2.5457   -0.2626 H   0  0  0  0  0  0  0  0  0  0  0  0
   -1.2971   -1.8391   -1.3765 H   0  0  0  0  0  0  0  0  0  0  0  0
   -1.9644    0.5406   -1.3745 H   0  0  0  0  0  0  0  0  0  0  0  0
   -0.3061    0.7363   -1.9689 H   0  0  0  0  0  0  0  0  0  0  0  0
   -1.3321    2.0009    0.2433 H   0  0  0  0  0  0  0  0  0  0  0  0
   -1.8412    0.1844    1.7255 H   0  0  0  0  0  0  0  0  0  0  0  0
   -0.0846    0.3275    2.1001 H   0  0  0  0  0  0  0  0  0  0  0  0
   -1.1837   -2.0515    1.1906 H   0  0  0  0  0  0  0  0  0  0  0  0
  1  2  1  0
  2  3  1  0
  3  4  1  0
  4  5  1  0
  5  6  1  0
  6  7  1  0
  7  8  1  0
  8  9  1  0
  7  1  1  0
  9  4  1  0
  9  5  1  0
  1 10  1  0
  1 11  1  0
  3 12  1  0
  3 13  1  0
  4 14  1  0
  5 15  1  0
  6 16  1  0
  6 17  1  0
  7 18  1  0
  8 19  1  0
  8 20  1  0
  9 21  1  0
M  END
