
     RDKit          3D

 21 23  0  0  0  0  0  0  0  0999 V2000
    1.9079   -0.1096    1.1323 C   0  0  0  0  0  0  0  0  0  0  0  0
    0.5014   -0.2803    1.2323 O   0  0  0  0  0  0  0  0  0  0  0  0
    0.0769   -0.1041   -0.0510 C   0  0  0  0  0  0  0  0  0  0  0  0
   -1.3254   -0.1449   -0.4109 C   0  0  0  0  0  0  0  0  0  0  0  0
   -2.2885    0.7927    0.1652 C   0  0  0  0  0  0  0  0  0  0  0  0
   -2.3598   -0.6859    0.5941 C   0  0  0  0  0  0  0  0  0  0  0  0
    1.0436   -0.9748   -0.8582 C   0  0  0  0  0  0  0  0  0  0  0  0
    2.0440    0.0411   -0.3507 C   0  0  0  0  0  0  0  0  0  0  0  0
    0.9193    1.0569   -0.6066 C   0  0  0  0  0  0  0  0  0  0  0  0
    2.4445   -0.9646    1.5526 H   0  0  0  0  0  0  0  0  0  0  0  0
    2.1724    0.8636    1.5963 H   0  0  0  0  0  0  0  0  0  0  0  0
   -1.5556   -0.4772   -1.4664 H   0  0  0  0  0  0  0  0  0  0  0  0
   -2.0023    1.5312    0.9547 H   0  0  0  0  0  0  0  0  0  0  0  0
   -3.1636    1.1514   -0.4383 H   0  0  0  0  0  0  0  0  0  0  0  0
   -3.1925   -1.2846    0.2206 H   0  0  0  0  0  0  0  0  0  0  0  0
   -1.9853   -0.9177    1.6153 H   0  0  0  0  0  0  0  0  0  0  0  0
    1.1609   -1.9914   -0.5010 H   0  0  0  0  0  0  0  0  0  0  0  0
    0.9103   -0.8272   -1.9550 H   0  0  0  0  0  0  0  0  0  0  0  0
    2.9666    0.1763   -0.8266 H   0  0  0  0  0  0  0  0  0  0  0  0
    1.0153    1.9118    0.0641 H   0  0  0  0  0  0  0  0  0  0  0  0
    0.7097    1.2372   -1.6628 H   0  0  0  0  0  0  0  0  0  0  0  0
  1  2  1  0
  2  3  1  0
  3  4  1  0
  4  5  1  0
  5  6  1  0
  3  7  1  0
  7  8  1  0
  8  9  1  0
  8  1  1  0
  9  3  1  0
  6  4  1  0
  1 10  1  0
  1 11  1  0
  4 12  1  0
  5 13  1  0
  5 14  1  0
  6 15  1  0
  6 16  1  0
  7 17  1  0
  7 18  1  0
  8 19  1  0
  9 20  1  0
  9 21  1  0
M  END
