
     RDKit          3D

 14 15  0  0  0  0  0  0  0  0999 V2000
   -0.3966    1.3419    0.0717 C   0  0  0  0  0  0  0  0  0  0  0  0
   -1.5703    0.5599    0.1097 O   0  0  0  0  0  0  0  0  0  0  0  0
   -1.1591   -0.7964    0.0728 C   0  0  0  0  0  0  0  0  0  0  0  0
    0.1686   -0.6954   -0.5624 C   0  0  0  0  0  0  0  0  0  0  0  0
    1.4925   -0.5201   -0.1373 C   0  0  0  0  0  0  0  0  0  0  0  0
    0.6262    0.3756    0.5139 C   0  0  0  0  0  0  0  0  0  0  0  0
   -0.2885    1.6765   -0.9803 H   0  0  0  0  0  0  0  0  0  0  0  0
   -0.4745    2.1600    0.7924 H   0  0  0  0  0  0  0  0  0  0  0  0
   -1.1669   -1.2450    1.0736 H   0  0  0  0  0  0  0  0  0  0  0  0
   -1.8943   -1.3058   -0.5691 H   0  0  0  0  0  0  0  0  0  0  0  0
   -0.0102   -0.2821   -1.6080 H   0  0  0  0  0  0  0  0  0  0  0  0
    2.2736   -0.0146   -0.7835 H   0  0  0  0  0  0  0  0  0  0  0  0
    1.9925   -1.3490    0.4152 H   0  0  0  0  0  0  0  0  0  0  0  0
    0.4072    0.0945    1.5914 H   0  0  0  0  0  0  0  0  0  0  0  0
  1  2  1  0
  2  3  1  0
  3  4  1  0
  4  5  1  0
  5  6  1  0
  6  1  1  0
  6  4  1  0
  1  7  1  0
  1  8  1  0
  3  9  1  0
  3 10  1  0
  4 11  1  0
  5 12  1  0
  5 13  1  0
  6 14  1  0
M  END
