
     RDKit          3D

 19 21  0  0  0  0  0  0  0  0999 V2000
    2.8107    1.1534    0.5601 C   0  0  0  0  0  0  0  0  0  0  0  0
    2.7249    0.2793   -0.5185 O   0  0  0  0  0  0  0  0  0  0  0  0
    1.9683   -0.0733    0.5685 C   0  0  0  0  0  0  0  0  0  0  0  0
    0.4825    0.0002    0.5677 C   0  0  0  0  0  0  0  0  0  0  0  0
   -0.2452   -1.3076    0.5767 C   0  0  0  0  0  0  0  0  0  0  0  0
   -0.3541   -0.3706   -0.5808 C   0  0  0  0  0  0  0  0  0  0  0  0
   -1.6809    0.2766   -0.8254 C   0  0  0  0  0  0  0  0  0  0  0  0
   -2.7821    0.2266    0.1124 C   0  0  0  0  0  0  0  0  0  0  0  0
   -2.7474   -0.7399   -1.0278 O   0  0  0  0  0  0  0  0  0  0  0  0
    3.7506    1.1818    1.1649 H   0  0  0  0  0  0  0  0  0  0  0  0
    2.2869    2.1335    0.3977 H   0  0  0  0  0  0  0  0  0  0  0  0
    2.3876   -0.9277    1.1646 H   0  0  0  0  0  0  0  0  0  0  0  0
    0.0692    0.8330    1.1989 H   0  0  0  0  0  0  0  0  0  0  0  0
    0.3223   -2.2476    0.4314 H   0  0  0  0  0  0  0  0  0  0  0  0
   -1.0810   -1.4026    1.2939 H   0  0  0  0  0  0  0  0  0  0  0  0
    0.2130   -0.6514   -1.5153 H   0  0  0  0  0  0  0  0  0  0  0  0
   -1.7111    1.0345   -1.6222 H   0  0  0  0  0  0  0  0  0  0  0  0
   -3.6368    0.8931   -0.0440 H   0  0  0  0  0  0  0  0  0  0  0  0
   -2.7772   -0.2913    1.0735 H   0  0  0  0  0  0  0  0  0  0  0  0
  1  2  1  0
  2  3  1  0
  3  4  1  0
  4  5  1  0
  5  6  1  0
  6  7  1  0
  7  8  1  0
  8  9  1  0
  3  1  1  0
  6  4  1  0
  9  7  1  0
  1 10  1  0
  1 11  1  0
  3 12  1  0
  4 13  1  0
  5 14  1  0
  5 15  1  0
  6 16  1  0
  7 17  1  0
  8 18  1  0
  8 19  1  0
M  END
