
     RDKit          2D

 19 22  0  0  0  0  0  0  0  0999 V2000
    1.2760    0.0000    0.0000 C   0  0  0  0  0  0  0  0  0  0  0  0
    0.3943    1.2135    0.0000 O   0  0  0  0  0  0  0  0  0  0  0  0
   -1.0323    0.7500    0.0000 C   0  0  0  0  0  0  0  0  0  0  0  0
   -2.0373    0.2550    0.0000 C   0  0  0  0  0  0  0  0  0  0  0  0
   -2.5323   -0.7500    0.0000 C   0  0  0  0  0  0  0  0  0  0  0  0
   -2.5323    0.7500    0.0000 C   0  0  0  0  0  0  0  0  0  0  0  0
   -0.7393   -0.0833    0.0000 C   0  0  0  0  0  0  0  0  0  0  0  0
    0.3943   -1.2135    0.0000 C   0  0  0  0  0  0  0  0  0  0  0  0
   -1.0323   -0.7500    0.0000 C   0  0  0  0  0  0  0  0  0  0  0  0
    2.3907    1.0037    0.0000 H   0  0  0  0  0  0  0  0  0  0  0  0
    2.3907   -1.0037    0.0000 H   0  0  0  0  0  0  0  0  0  0  0  0
   -4.0323    0.7500    0.0000 H   0  0  0  0  0  0  0  0  0  0  0  0
   -2.5323    2.2500    0.0000 H   0  0  0  0  0  0  0  0  0  0  0  0
   -3.5961   -1.5811    0.0000 H   0  0  0  0  0  0  0  0  0  0  0  0
   -3.5929    1.8107    0.0000 H   0  0  0  0  0  0  0  0  0  0  0  0
   -1.4950   -0.3985    0.0000 H   0  0  0  0  0  0  0  0  0  0  0  0
   -1.9859   -2.1580    0.0000 H   0  0  0  0  0  0  0  0  0  0  0  0
    0.8578   -2.6401    0.0000 H   0  0  0  0  0  0  0  0  0  0  0  0
   -1.0846   -2.2491    0.0000 H   0  0  0  0  0  0  0  0  0  0  0  0
  1  2  1  0
  2  3  1  0
  3  4  1  0
  4  5  1  0
  5  6  1  0
  6  7  1  0
  7  8  1  0
  8  9  1  0
  8  1  1  0
  6  3  1  0
  9  3  1  0
  9  5  1  0
  1 10  1  0
  1 11  1  0
  4 12  1  0
  4 13  1  0
  5 14  1  0
  6 15  1  0
  7 16  1  0
  7 17  1  0
  8 18  1  0
  9 19  1  0
M  END
