
     RDKit          3D

 16 18  0  0  0  0  0  0  0  0999 V2000
    2.3939    0.1576   -0.2131 C   0  0  0  0  0  0  0  0  0  0  0  0
    1.8624    0.3914   -1.5306 O   0  0  0  0  0  0  0  0  0  0  0  0
    1.1263   -0.4880   -0.5813 C   0  0  0  0  0  0  0  0  0  0  0  0
   -0.1155   -0.0093   -0.2176 C   0  0  0  0  0  0  0  0  0  0  0  0
   -1.1139   -0.6702    0.6584 C   0  0  0  0  0  0  0  0  0  0  0  0
   -1.6959    0.6334    0.2326 C   0  0  0  0  0  0  0  0  0  0  0  0
   -1.2525    0.3075   -1.1597 C   0  0  0  0  0  0  0  0  0  0  0  0
   -0.4240    1.1712    0.4147 O   0  0  0  0  0  0  0  0  0  0  0  0
    2.4480    1.0760    0.4084 H   0  0  0  0  0  0  0  0  0  0  0  0
    3.3782   -0.3515   -0.2902 H   0  0  0  0  0  0  0  0  0  0  0  0
    1.2453   -1.5424   -0.9486 H   0  0  0  0  0  0  0  0  0  0  0  0
   -1.6054   -1.5511    0.1882 H   0  0  0  0  0  0  0  0  0  0  0  0
   -0.8682   -0.7967    1.7164 H   0  0  0  0  0  0  0  0  0  0  0  0
   -2.5696    1.0507    0.5157 H   0  0  0  0  0  0  0  0  0  0  0  0
   -1.7121   -0.5698   -1.6185 H   0  0  0  0  0  0  0  0  0  0  0  0
   -1.0969    1.1913   -1.8114 H   0  0  0  0  0  0  0  0  0  0  0  0
  1  2  1  0
  2  3  1  0
  3  4  1  0
  4  5  1  0
  5  6  1  0
  6  7  1  0
  6  8  1  0
  3  1  1  0
  7  4  1  0
  8  4  1  0
  1  9  1  0
  1 10  1  0
  3 11  1  0
  5 12  1  0
  5 13  1  0
  6 14  1  0
  7 15  1  0
  7 16  1  0
M  END
