
     RDKit          3D

 19 21  0  0  0  0  0  0  0  0999 V2000
    0.6345    1.5496   -0.1916 C   0  0  0  0  0  0  0  0  0  0  0  0
   -0.5692    1.4496   -0.8222 O   0  0  0  0  0  0  0  0  0  0  0  0
   -1.1662    0.2438   -0.8381 C   0  0  0  0  0  0  0  0  0  0  0  0
   -0.3061   -0.9469   -1.0308 C   0  0  0  0  0  0  0  0  0  0  0  0
    1.0933   -0.7930   -0.4700 C   0  0  0  0  0  0  0  0  0  0  0  0
    0.9612    0.2910    0.6113 C   0  0  0  0  0  0  0  0  0  0  0  0
   -0.2441   -0.1304    1.4488 C   0  0  0  0  0  0  0  0  0  0  0  0
   -1.3735   -0.3938    0.5121 C   0  0  0  0  0  0  0  0  0  0  0  0
   -1.1358   -1.6267   -0.1073 O   0  0  0  0  0  0  0  0  0  0  0  0
    1.4272    1.5862   -0.9964 H   0  0  0  0  0  0  0  0  0  0  0  0
    0.7889    2.4357    0.4213 H   0  0  0  0  0  0  0  0  0  0  0  0
   -2.0551    0.2143   -1.4772 H   0  0  0  0  0  0  0  0  0  0  0  0
   -0.3475   -1.4222   -2.0297 H   0  0  0  0  0  0  0  0  0  0  0  0
    1.4834   -1.6947   -0.0021 H   0  0  0  0  0  0  0  0  0  0  0  0
    1.7295   -0.3792   -1.2538 H   0  0  0  0  0  0  0  0  0  0  0  0
    1.8681    0.4097    1.1946 H   0  0  0  0  0  0  0  0  0  0  0  0
    0.0520   -1.1232    1.8936 H   0  0  0  0  0  0  0  0  0  0  0  0
   -0.4548    0.5473    2.2697 H   0  0  0  0  0  0  0  0  0  0  0  0
   -2.3858   -0.2171    0.8680 H   0  0  0  0  0  0  0  0  0  0  0  0
  1  2  1  0
  2  3  1  0
  3  4  1  0
  4  5  1  0
  5  6  1  0
  6  7  1  0
  7  8  1  0
  8  9  1  0
  6  1  1  0
  8  3  1  0
  9  4  1  0
  1 10  1  0
  1 11  1  0
  3 12  1  0
  4 13  1  0
  5 14  1  0
  5 15  1  0
  6 16  1  0
  7 17  1  0
  7 18  1  0
  8 19  1  0
M  END
