
     RDKit          3D

 19 21  0  0  0  0  0  0  0  0999 V2000
   -1.8080    0.4466   -0.8468 C   0  0  0  0  0  0  0  0  0  0  0  0
   -2.7391    0.1956    0.1691 O   0  0  0  0  0  0  0  0  0  0  0  0
   -1.9310   -0.6948    0.8843 C   0  0  0  0  0  0  0  0  0  0  0  0
   -0.8348   -0.4364   -0.0855 C   0  0  0  0  0  0  0  0  0  0  0  0
    0.3489    0.3279    0.4091 C   0  0  0  0  0  0  0  0  0  0  0  0
    1.2532    1.0335   -0.5657 C   0  0  0  0  0  0  0  0  0  0  0  0
    2.2757   -0.0465   -0.2393 C   0  0  0  0  0  0  0  0  0  0  0  0
    1.5141   -0.4779    0.9599 C   0  0  0  0  0  0  0  0  0  0  0  0
    0.7281    0.3730    1.7064 O   0  0  0  0  0  0  0  0  0  0  0  0
   -1.5235    1.5334   -0.8340 H   0  0  0  0  0  0  0  0  0  0  0  0
   -2.1122    0.0572   -1.8212 H   0  0  0  0  0  0  0  0  0  0  0  0
   -2.2601   -1.7394    0.8680 H   0  0  0  0  0  0  0  0  0  0  0  0
   -1.6904   -0.2753    1.8818 H   0  0  0  0  0  0  0  0  0  0  0  0
   -0.5103   -1.2865   -0.7241 H   0  0  0  0  0  0  0  0  0  0  0  0
    1.5397    2.0486   -0.2246 H   0  0  0  0  0  0  0  0  0  0  0  0
    0.8273    0.9772   -1.5845 H   0  0  0  0  0  0  0  0  0  0  0  0
    2.2277   -0.8300   -1.0254 H   0  0  0  0  0  0  0  0  0  0  0  0
    3.2999    0.3357   -0.0898 H   0  0  0  0  0  0  0  0  0  0  0  0
    1.3947   -1.5419    1.1624 H   0  0  0  0  0  0  0  0  0  0  0  0
  1  2  1  0
  2  3  1  0
  3  4  1  0
  4  5  1  0
  5  6  1  0
  6  7  1  0
  7  8  1  0
  8  9  1  0
  4  1  1  0
  8  5  1  0
  9  5  1  0
  1 10  1  0
  1 11  1  0
  3 12  1  0
  3 13  1  0
  4 14  1  0
  6 15  1  0
  6 16  1  0
  7 17  1  0
  7 18  1  0
  8 19  1  0
M  END
