
     RDKit          3D

 19 21  0  0  0  0  0  0  0  0999 V2000
   -1.4127    0.1123    0.9654 C   0  0  0  0  0  0  0  0  0  0  0  0
   -1.5443   -1.1964    0.4392 O   0  0  0  0  0  0  0  0  0  0  0  0
   -1.0289   -1.1469   -0.8586 C   0  0  0  0  0  0  0  0  0  0  0  0
    0.0669   -0.1404   -0.6285 C   0  0  0  0  0  0  0  0  0  0  0  0
    1.0399   -0.7059    0.3641 C   0  0  0  0  0  0  0  0  0  0  0  0
    2.2879    0.0949    0.6226 C   0  0  0  0  0  0  0  0  0  0  0  0
    1.3083   -0.0592    1.5665 O   0  0  0  0  0  0  0  0  0  0  0  0
    0.1669    1.2266   -0.9064 C   0  0  0  0  0  0  0  0  0  0  0  0
   -1.0011    0.9090   -0.1715 C   0  0  0  0  0  0  0  0  0  0  0  0
   -2.4927    0.3586    1.2517 H   0  0  0  0  0  0  0  0  0  0  0  0
   -0.8749    0.1567    1.9054 H   0  0  0  0  0  0  0  0  0  0  0  0
   -0.6040   -2.0975   -1.1874 H   0  0  0  0  0  0  0  0  0  0  0  0
   -1.8165   -0.7374   -1.5115 H   0  0  0  0  0  0  0  0  0  0  0  0
    1.1573   -1.8108    0.4588 H   0  0  0  0  0  0  0  0  0  0  0  0
    2.4516    1.1053    0.2734 H   0  0  0  0  0  0  0  0  0  0  0  0
    3.2338   -0.5018    0.7022 H   0  0  0  0  0  0  0  0  0  0  0  0
    0.1191    1.4862   -2.0128 H   0  0  0  0  0  0  0  0  0  0  0  0
    0.8654    1.9206   -0.4247 H   0  0  0  0  0  0  0  0  0  0  0  0
   -1.9219    1.0260   -0.8478 H   0  0  0  0  0  0  0  0  0  0  0  0
  1  2  1  0
  2  3  1  0
  3  4  1  0
  4  5  1  0
  5  6  1  0
  6  7  1  0
  4  8  1  0
  8  9  1  0
  9  1  1  0
  9  4  1  0
  7  5  1  0
  1 10  1  0
  1 11  1  0
  3 12  1  0
  3 13  1  0
  5 14  1  0
  6 15  1  0
  6 16  1  0
  8 17  1  0
  8 18  1  0
  9 19  1  0
M  END
