
     RDKit          3D

 14 16  0  0  0  0  0  0  0  0999 V2000
    1.5247    0.2642    0.1934 C   0  0  0  0  0  0  0  0  0  0  0  0
    0.9227    0.0465   -1.0809 O   0  0  0  0  0  0  0  0  0  0  0  0
   -0.1546   -0.7837   -0.8847 C   0  0  0  0  0  0  0  0  0  0  0  0
    0.0955   -1.2730    0.4391 O   0  0  0  0  0  0  0  0  0  0  0  0
    0.1900    0.0513    0.9634 C   0  0  0  0  0  0  0  0  0  0  0  0
   -0.7979    0.8956    0.3068 C   0  0  0  0  0  0  0  0  0  0  0  0
   -2.0251    0.8791   -0.0478 O   0  0  0  0  0  0  0  0  0  0  0  0
   -1.4640   -0.1653   -0.6197 C   0  0  0  0  0  0  0  0  0  0  0  0
    2.2477   -0.5051    0.4394 H   0  0  0  0  0  0  0  0  0  0  0  0
    1.8543    1.2964    0.2664 H   0  0  0  0  0  0  0  0  0  0  0  0
   -0.2628   -1.5885   -1.5976 H   0  0  0  0  0  0  0  0  0  0  0  0
    0.3166    0.0822    2.0217 H   0  0  0  0  0  0  0  0  0  0  0  0
   -0.3470    1.7830   -0.2531 H   0  0  0  0  0  0  0  0  0  0  0  0
   -2.1000   -0.9827   -0.1462 H   0  0  0  0  0  0  0  0  0  0  0  0
  1  2  1  0
  2  3  1  0
  3  4  1  0
  4  5  1  0
  5  6  1  0
  6  7  1  0
  7  8  1  0
  5  1  1  0
  8  6  1  0
  8  3  1  0
  1  9  1  0
  1 10  1  0
  3 11  1  0
  5 12  1  0
  6 13  1  0
  8 14  1  0
M  END
