
     RDKit          3D

 19 22  0  0  0  0  0  0  0  0999 V2000
    2.2163    0.1528   -0.2211 C   0  0  0  0  0  0  0  0  0  0  0  0
    1.5301    1.3534    0.0006 O   0  0  0  0  0  0  0  0  0  0  0  0
    0.4382    0.9200   -0.7610 C   0  0  0  0  0  0  0  0  0  0  0  0
    0.9383   -0.4924   -0.6652 C   0  0  0  0  0  0  0  0  0  0  0  0
    0.1877   -1.1109    0.4810 C   0  0  0  0  0  0  0  0  0  0  0  0
   -1.2934   -1.0374    0.4469 C   0  0  0  0  0  0  0  0  0  0  0  0
   -1.9229    0.0627   -0.3553 C   0  0  0  0  0  0  0  0  0  0  0  0
   -0.8104    0.9788    0.1055 C   0  0  0  0  0  0  0  0  0  0  0  0
   -0.4809   -0.0302    1.1673 C   0  0  0  0  0  0  0  0  0  0  0  0
    2.9572    0.3032   -1.0248 H   0  0  0  0  0  0  0  0  0  0  0  0
    2.6246   -0.2038    0.7541 H   0  0  0  0  0  0  0  0  0  0  0  0
    0.3588    1.3639   -1.7494 H   0  0  0  0  0  0  0  0  0  0  0  0
    1.0240   -1.0632   -1.5820 H   0  0  0  0  0  0  0  0  0  0  0  0
    0.7174   -1.8743    1.0353 H   0  0  0  0  0  0  0  0  0  0  0  0
   -1.9342   -1.7487    0.9946 H   0  0  0  0  0  0  0  0  0  0  0  0
   -2.0257   -0.0842   -1.4275 H   0  0  0  0  0  0  0  0  0  0  0  0
   -2.8847    0.3689    0.1302 H   0  0  0  0  0  0  0  0  0  0  0  0
   -1.1049    1.9668    0.4542 H   0  0  0  0  0  0  0  0  0  0  0  0
   -0.5356    0.1746    2.2168 H   0  0  0  0  0  0  0  0  0  0  0  0
  1  2  1  0
  2  3  1  0
  3  4  1  0
  4  5  1  0
  5  6  1  0
  6  7  1  0
  7  8  1  0
  8  9  1  0
  4  1  1  0
  9  5  1  0
  8  3  1  0
  9  6  1  0
  1 10  1  0
  1 11  1  0
  3 12  1  0
  4 13  1  0
  5 14  1  0
  6 15  1  0
  7 16  1  0
  7 17  1  0
  8 18  1  0
  9 19  1  0
M  END
