
     RDKit          3D

 16 18  0  0  0  0  0  0  0  0999 V2000
   -1.6878   -0.2231    0.1164 C   0  0  0  0  0  0  0  0  0  0  0  0
   -1.2242   -1.4175   -0.4617 O   0  0  0  0  0  0  0  0  0  0  0  0
    0.1265   -1.1649   -0.7104 C   0  0  0  0  0  0  0  0  0  0  0  0
    0.1423    0.0127   -1.4995 O   0  0  0  0  0  0  0  0  0  0  0  0
    0.3179    1.0126   -0.5669 C   0  0  0  0  0  0  0  0  0  0  0  0
    1.5326    0.4990    0.1972 C   0  0  0  0  0  0  0  0  0  0  0  0
    0.5648   -0.5846    0.6044 C   0  0  0  0  0  0  0  0  0  0  0  0
   -0.4896    0.5175    0.6291 C   0  0  0  0  0  0  0  0  0  0  0  0
   -2.4856   -0.3722    0.8378 H   0  0  0  0  0  0  0  0  0  0  0  0
   -2.1220    0.4105   -0.7123 H   0  0  0  0  0  0  0  0  0  0  0  0
    0.6930   -1.9734   -1.1010 H   0  0  0  0  0  0  0  0  0  0  0  0
    0.2709    2.0334   -0.8275 H   0  0  0  0  0  0  0  0  0  0  0  0
    2.3237    0.1335   -0.4670 H   0  0  0  0  0  0  0  0  0  0  0  0
    1.8680    1.1547    1.0232 H   0  0  0  0  0  0  0  0  0  0  0  0
    0.7243   -1.1730    1.4506 H   0  0  0  0  0  0  0  0  0  0  0  0
   -0.5548    1.1348    1.4875 H   0  0  0  0  0  0  0  0  0  0  0  0
  1  2  1  0
  2  3  1  0
  3  4  1  0
  4  5  1  0
  5  6  1  0
  6  7  1  0
  7  8  1  0
  8  1  1  0
  7  3  1  0
  8  5  1  0
  1  9  1  0
  1 10  1  0
  3 11  1  0
  5 12  1  0
  6 13  1  0
  6 14  1  0
  7 15  1  0
  8 16  1  0
M  END
