
     RDKit          3D

 17 21  0  0  0  0  0  0  0  0999 V2000
    2.1514    0.1375    0.1243 C   0  0  0  0  0  0  0  0  0  0  0  0
    1.7405   -1.0450   -0.6904 O   0  0  0  0  0  0  0  0  0  0  0  0
    0.8560   -0.1993   -0.1172 C   0  0  0  0  0  0  0  0  0  0  0  0
   -0.0828   -0.8104    0.9532 C   0  0  0  0  0  0  0  0  0  0  0  0
   -0.9192   -0.7911    0.0167 C   0  0  0  0  0  0  0  0  0  0  0  0
   -1.5555   -0.2022    0.7976 C   0  0  0  0  0  0  0  0  0  0  0  0
   -1.5757    0.4882   -0.6585 C   0  0  0  0  0  0  0  0  0  0  0  0
   -0.6829    0.8581   -0.0146 C   0  0  0  0  0  0  0  0  0  0  0  0
   -0.0280    0.6482   -1.0623 C   0  0  0  0  0  0  0  0  0  0  0  0
    2.7212    0.8788   -0.4697 H   0  0  0  0  0  0  0  0  0  0  0  0
    2.7087   -0.1931    1.0516 H   0  0  0  0  0  0  0  0  0  0  0  0
    0.2227   -0.7976    1.9849 H   0  0  0  0  0  0  0  0  0  0  0  0
   -1.0690   -1.3524   -0.8785 H   0  0  0  0  0  0  0  0  0  0  0  0
   -1.8679    0.4696    1.6146 H   0  0  0  0  0  0  0  0  0  0  0  0
   -2.1927   -0.0488   -1.3992 H   0  0  0  0  0  0  0  0  0  0  0  0
   -0.5250    1.4223    0.8770 H   0  0  0  0  0  0  0  0  0  0  0  0
    0.0980    0.5371   -2.1296 H   0  0  0  0  0  0  0  0  0  0  0  0
  1  2  1  0
  2  3  1  0
  3  4  1  0
  4  5  1  0
  5  6  1  0
  6  7  1  0
  7  8  1  0
  8  9  1  0
  3  1  1  0
  6  4  1  0
  9  7  1  0
  9  3  1  0
  8  5  1  0
  1 10  1  0
  1 11  1  0
  4 12  1  0
  5 13  1  0
  6 14  1  0
  7 15  1  0
  8 16  1  0
  9 17  1  0
M  END
