
     RDKit          3D

 19 21  0  0  0  0  0  0  0  0999 V2000
    0.5818   -0.0435    1.4214 C   0  0  0  0  0  0  0  0  0  0  0  0
   -0.8368   -0.0045    1.3447 O   0  0  0  0  0  0  0  0  0  0  0  0
   -1.3571   -0.5971    0.2561 C   0  0  0  0  0  0  0  0  0  0  0  0
   -2.4627   -0.1946   -0.5923 C   0  0  0  0  0  0  0  0  0  0  0  0
   -1.2499    0.4700   -0.8856 C   0  0  0  0  0  0  0  0  0  0  0  0
   -0.1147    0.0866   -1.5380 O   0  0  0  0  0  0  0  0  0  0  0  0
    0.9474    0.6062   -0.8618 C   0  0  0  0  0  0  0  0  0  0  0  0
    2.2597    0.1301   -0.6139 C   0  0  0  0  0  0  0  0  0  0  0  0
    1.2434   -0.5050    0.2017 C   0  0  0  0  0  0  0  0  0  0  0  0
    0.8821   -0.6913    2.2782 H   0  0  0  0  0  0  0  0  0  0  0  0
    0.9324    0.9863    1.6916 H   0  0  0  0  0  0  0  0  0  0  0  0
   -0.9661   -1.6087    0.0594 H   0  0  0  0  0  0  0  0  0  0  0  0
   -2.9254   -0.9627   -1.2706 H   0  0  0  0  0  0  0  0  0  0  0  0
   -3.2820    0.3730   -0.0850 H   0  0  0  0  0  0  0  0  0  0  0  0
   -1.1726    1.5473   -0.5411 H   0  0  0  0  0  0  0  0  0  0  0  0
    0.7184    1.6356   -0.4491 H   0  0  0  0  0  0  0  0  0  0  0  0
    2.9866    0.7813   -0.0771 H   0  0  0  0  0  0  0  0  0  0  0  0
    2.7854   -0.4563   -1.3945 H   0  0  0  0  0  0  0  0  0  0  0  0
    1.0299   -1.5526   -0.0750 H   0  0  0  0  0  0  0  0  0  0  0  0
  1  2  1  0
  2  3  1  0
  3  4  1  0
  4  5  1  0
  5  6  1  0
  6  7  1  0
  7  8  1  0
  8  9  1  0
  9  1  1  0
  5  3  1  0
  9  7  1  0
  1 10  1  0
  1 11  1  0
  3 12  1  0
  4 13  1  0
  4 14  1  0
  5 15  1  0
  7 16  1  0
  8 17  1  0
  8 18  1  0
  9 19  1  0
M  END
