
     RDKit          2D

 17 20  0  0  0  0  0  0  0  0999 V2000
    1.0607    0.0000    0.0000 C   0  0  0  0  0  0  0  0  0  0  0  0
   -0.0000   -1.0607    0.0000 O   0  0  0  0  0  0  0  0  0  0  0  0
   -1.0607    0.0000    0.0000 C   0  0  0  0  0  0  0  0  0  0  0  0
   -1.4213    1.0607    0.0000 C   0  0  0  0  0  0  0  0  0  0  0  0
   -1.0607    2.1213    0.0000 C   0  0  0  0  0  0  0  0  0  0  0  0
   -2.1213    3.1820    0.0000 C   0  0  0  0  0  0  0  0  0  0  0  0
   -3.1820    2.1213    0.0000 O   0  0  0  0  0  0  0  0  0  0  0  0
   -2.1213    1.0607    0.0000 C   0  0  0  0  0  0  0  0  0  0  0  0
    0.0000    1.0607    0.0000 C   0  0  0  0  0  0  0  0  0  0  0  0
    2.1213    1.0607    0.0000 H   0  0  0  0  0  0  0  0  0  0  0  0
    2.1213   -1.0607    0.0000 H   0  0  0  0  0  0  0  0  0  0  0  0
   -2.1907    1.3599    0.0000 H   0  0  0  0  0  0  0  0  0  0  0  0
   -3.3034    0.1372    0.0000 H   0  0  0  0  0  0  0  0  0  0  0  0
   -3.1820    4.2426    0.0000 H   0  0  0  0  0  0  0  0  0  0  0  0
   -1.0607    4.2426    0.0000 H   0  0  0  0  0  0  0  0  0  0  0  0
   -3.0448   -0.1214    0.0000 H   0  0  0  0  0  0  0  0  0  0  0  0
    1.0607    2.1213    0.0000 H   0  0  0  0  0  0  0  0  0  0  0  0
  1  2  1  0
  2  3  1  0
  3  4  1  0
  4  5  1  0
  5  6  1  0
  6  7  1  0
  7  8  1  0
  5  9  1  0
  9  1  1  0
  8  3  1  0
  9  3  1  0
  8  5  1  0
  1 10  1  0
  1 11  1  0
  4 12  1  0
  4 13  1  0
  6 14  1  0
  6 15  1  0
  8 16  1  0
  9 17  1  0
M  END
