
     RDKit          3D

 19 21  0  0  0  0  0  0  0  0999 V2000
    1.7088   -0.1116   -1.0729 C   0  0  0  0  0  0  0  0  0  0  0  0
    2.7617   -0.2132   -0.1652 O   0  0  0  0  0  0  0  0  0  0  0  0
    1.8393   -0.1529    0.8477 C   0  0  0  0  0  0  0  0  0  0  0  0
    0.7676   -0.7323   -0.0908 C   0  0  0  0  0  0  0  0  0  0  0  0
   -0.5078   -0.2785    0.1491 C   0  0  0  0  0  0  0  0  0  0  0  0
   -0.9463    1.0524    0.6427 C   0  0  0  0  0  0  0  0  0  0  0  0
   -2.1727    0.2016    0.5047 C   0  0  0  0  0  0  0  0  0  0  0  0
   -1.6449   -0.2177   -0.8342 C   0  0  0  0  0  0  0  0  0  0  0  0
   -1.4234   -0.8324    1.0391 O   0  0  0  0  0  0  0  0  0  0  0  0
    1.4681    0.9005   -1.4137 H   0  0  0  0  0  0  0  0  0  0  0  0
    1.9610   -0.7633   -1.9606 H   0  0  0  0  0  0  0  0  0  0  0  0
    1.5175    0.8832    1.1571 H   0  0  0  0  0  0  0  0  0  0  0  0
    1.9676   -0.8117    1.7059 H   0  0  0  0  0  0  0  0  0  0  0  0
    0.8985   -1.8487   -0.1071 H   0  0  0  0  0  0  0  0  0  0  0  0
   -0.6639    1.2327    1.6917 H   0  0  0  0  0  0  0  0  0  0  0  0
   -0.8480    1.9015   -0.0545 H   0  0  0  0  0  0  0  0  0  0  0  0
   -3.1214    0.4560    0.7345 H   0  0  0  0  0  0  0  0  0  0  0  0
   -1.9844   -1.2244   -1.1718 H   0  0  0  0  0  0  0  0  0  0  0  0
   -1.5774    0.5588   -1.6016 H   0  0  0  0  0  0  0  0  0  0  0  0
  1  2  1  0
  2  3  1  0
  3  4  1  0
  4  5  1  0
  5  6  1  0
  6  7  1  0
  7  8  1  0
  7  9  1  0
  4  1  1  0
  8  5  1  0
  9  5  1  0
  1 10  1  0
  1 11  1  0
  3 12  1  0
  3 13  1  0
  4 14  1  0
  6 15  1  0
  6 16  1  0
  7 17  1  0
  8 18  1  0
  8 19  1  0
M  END
