
     RDKit          3D

 17 19  0  0  0  0  0  0  0  0999 V2000
   -1.7231    0.0690    0.6262 C   0  0  0  0  0  0  0  0  0  0  0  0
   -0.8316    1.0172    1.0360 O   0  0  0  0  0  0  0  0  0  0  0  0
    0.1317    1.3627    0.1228 C   0  0  0  0  0  0  0  0  0  0  0  0
    0.9816    0.1545   -0.1553 C   0  0  0  0  0  0  0  0  0  0  0  0
    2.0920   -0.2978    0.5602 C   0  0  0  0  0  0  0  0  0  0  0  0
    2.2206    0.2822   -0.7454 O   0  0  0  0  0  0  0  0  0  0  0  0
    0.0778   -0.8528   -0.8638 C   0  0  0  0  0  0  0  0  0  0  0  0
   -0.9532   -0.2171   -1.6898 O   0  0  0  0  0  0  0  0  0  0  0  0
   -1.2672   -0.8366   -0.4529 C   0  0  0  0  0  0  0  0  0  0  0  0
   -2.6802    0.5519    0.2885 H   0  0  0  0  0  0  0  0  0  0  0  0
   -1.9786   -0.5606    1.5211 H   0  0  0  0  0  0  0  0  0  0  0  0
    0.6860    2.2258    0.5075 H   0  0  0  0  0  0  0  0  0  0  0  0
   -0.4073    1.6828   -0.8134 H   0  0  0  0  0  0  0  0  0  0  0  0
    2.3363   -1.3818    0.6350 H   0  0  0  0  0  0  0  0  0  0  0  0
    2.6525    0.3072    1.2982 H   0  0  0  0  0  0  0  0  0  0  0  0
    0.5270   -1.7120   -1.3580 H   0  0  0  0  0  0  0  0  0  0  0  0
   -1.8641   -1.7948   -0.5170 H   0  0  0  0  0  0  0  0  0  0  0  0
  1  2  1  0
  2  3  1  0
  3  4  1  0
  4  5  1  0
  5  6  1  0
  4  7  1  0
  7  8  1  0
  8  9  1  0
  9  1  1  0
  6  4  1  0
  9  7  1  0
  1 10  1  0
  1 11  1  0
  3 12  1  0
  3 13  1  0
  5 14  1  0
  5 15  1  0
  7 16  1  0
  9 17  1  0
M  END
