
     RDKit          3D

 17 20  0  0  0  0  0  0  0  0999 V2000
    1.5827   -0.5686   -0.8602 C   0  0  0  0  0  0  0  0  0  0  0  0
    0.9864   -1.6206   -0.1327 O   0  0  0  0  0  0  0  0  0  0  0  0
    0.1937   -0.8162    0.6614 C   0  0  0  0  0  0  0  0  0  0  0  0
    0.8581    0.2930    1.4586 C   0  0  0  0  0  0  0  0  0  0  0  0
    0.7622    0.3823   -0.0147 C   0  0  0  0  0  0  0  0  0  0  0  0
   -0.3909    1.0832   -0.6507 C   0  0  0  0  0  0  0  0  0  0  0  0
   -1.6428    0.3805   -0.1889 C   0  0  0  0  0  0  0  0  0  0  0  0
   -1.7151   -0.9371   -0.8835 O   0  0  0  0  0  0  0  0  0  0  0  0
   -1.2937   -0.7831    0.4538 C   0  0  0  0  0  0  0  0  0  0  0  0
    1.3022   -0.5753   -1.9297 H   0  0  0  0  0  0  0  0  0  0  0  0
    2.6625   -0.4278   -0.6463 H   0  0  0  0  0  0  0  0  0  0  0  0
    1.8084   -0.0187    1.9170 H   0  0  0  0  0  0  0  0  0  0  0  0
    0.1685    0.9420    2.0199 H   0  0  0  0  0  0  0  0  0  0  0  0
   -0.3387    0.9758   -1.7599 H   0  0  0  0  0  0  0  0  0  0  0  0
   -0.3725    2.1385   -0.3868 H   0  0  0  0  0  0  0  0  0  0  0  0
   -2.6138    0.8792   -0.2114 H   0  0  0  0  0  0  0  0  0  0  0  0
   -1.9571   -1.3272    1.1541 H   0  0  0  0  0  0  0  0  0  0  0  0
  1  2  1  0
  2  3  1  0
  3  4  1  0
  4  5  1  0
  5  6  1  0
  6  7  1  0
  7  8  1  0
  8  9  1  0
  5  1  1  0
  9  7  1  0
  5  3  1  0
  9  3  1  0
  1 10  1  0
  1 11  1  0
  4 12  1  0
  4 13  1  0
  6 14  1  0
  6 15  1  0
  7 16  1  0
  9 17  1  0
M  END
