
     RDKit          3D

 18 19  0  0  0  0  0  0  0  0999 V2000
    1.6444   -0.4907    0.2970 C   0  0  0  0  0  0  0  0  0  0  0  0
    0.7173   -1.2095    1.0143 O   0  0  0  0  0  0  0  0  0  0  0  0
   -0.3427   -1.5759    0.1475 C   0  0  0  0  0  0  0  0  0  0  0  0
   -0.7294   -0.3525   -0.5907 C   0  0  0  0  0  0  0  0  0  0  0  0
   -1.8173    0.5492   -0.2995 C   0  0  0  0  0  0  0  0  0  0  0  0
   -0.6193    0.8060    0.4462 C   0  0  0  0  0  0  0  0  0  0  0  0
    0.5829    1.5591    0.0359 C   0  0  0  0  0  0  0  0  0  0  0  0
    1.6850    0.8674    0.5945 O   0  0  0  0  0  0  0  0  0  0  0  0
    1.6216   -0.6912   -0.8002 H   0  0  0  0  0  0  0  0  0  0  0  0
    2.6560   -0.8809    0.6184 H   0  0  0  0  0  0  0  0  0  0  0  0
   -1.1564   -2.0777    0.6832 H   0  0  0  0  0  0  0  0  0  0  0  0
    0.1124   -2.3447   -0.5351 H   0  0  0  0  0  0  0  0  0  0  0  0
   -0.2090   -0.2303   -1.5600 H   0  0  0  0  0  0  0  0  0  0  0  0
   -2.1532    1.2344   -1.1161 H   0  0  0  0  0  0  0  0  0  0  0  0
   -2.6953    0.1380    0.2481 H   0  0  0  0  0  0  0  0  0  0  0  0
   -0.6101    0.5217    1.5243 H   0  0  0  0  0  0  0  0  0  0  0  0
    0.6655    1.5820   -1.0834 H   0  0  0  0  0  0  0  0  0  0  0  0
    0.6475    2.5959    0.3759 H   0  0  0  0  0  0  0  0  0  0  0  0
  1  2  1  0
  2  3  1  0
  3  4  1  0
  4  5  1  0
  5  6  1  0
  6  7  1  0
  7  8  1  0
  8  1  1  0
  6  4  1  0
  1  9  1  0
  1 10  1  0
  3 11  1  0
  3 12  1  0
  4 13  1  0
  5 14  1  0
  5 15  1  0
  6 16  1  0
  7 17  1  0
  7 18  1  0
M  END
