
     RDKit          3D

 21 23  0  0  0  0  0  0  0  0999 V2000
   -1.3732   -1.3257    0.0028 C   0  0  0  0  0  0  0  0  0  0  0  0
   -1.8152   -0.2277   -0.7198 O   0  0  0  0  0  0  0  0  0  0  0  0
   -1.5216    0.9797   -0.1448 C   0  0  0  0  0  0  0  0  0  0  0  0
   -0.1207    1.1468    0.3208 C   0  0  0  0  0  0  0  0  0  0  0  0
    0.9708    0.7958   -0.6512 C   0  0  0  0  0  0  0  0  0  0  0  0
    0.6331   -0.5848   -1.1445 C   0  0  0  0  0  0  0  0  0  0  0  0
    0.1225   -1.1821    0.1817 C   0  0  0  0  0  0  0  0  0  0  0  0
    0.4081   -0.0401    1.0946 C   0  0  0  0  0  0  0  0  0  0  0  0
    1.7800    0.4527    0.6089 C   0  0  0  0  0  0  0  0  0  0  0  0
   -1.8750   -1.4410    0.9611 H   0  0  0  0  0  0  0  0  0  0  0  0
   -1.6008   -2.2280   -0.6220 H   0  0  0  0  0  0  0  0  0  0  0  0
   -2.2003    1.1825    0.6964 H   0  0  0  0  0  0  0  0  0  0  0  0
   -1.7171    1.7699   -0.9163 H   0  0  0  0  0  0  0  0  0  0  0  0
    0.0493    2.1250    0.7657 H   0  0  0  0  0  0  0  0  0  0  0  0
    1.3646    1.5229   -1.3072 H   0  0  0  0  0  0  0  0  0  0  0  0
    1.5700   -1.1497   -1.3713 H   0  0  0  0  0  0  0  0  0  0  0  0
   -0.1129   -0.6194   -1.9336 H   0  0  0  0  0  0  0  0  0  0  0  0
    0.6114   -2.1204    0.4242 H   0  0  0  0  0  0  0  0  0  0  0  0
    0.2476   -0.1020    2.1374 H   0  0  0  0  0  0  0  0  0  0  0  0
    2.0552    1.3707    1.1387 H   0  0  0  0  0  0  0  0  0  0  0  0
    2.5241   -0.3251    0.4785 H   0  0  0  0  0  0  0  0  0  0  0  0
  1  2  1  0
  2  3  1  0
  3  4  1  0
  4  5  1  0
  5  6  1  0
  6  7  1  0
  7  8  1  0
  8  9  1  0
  7  1  1  0
  8  4  1  0
  9  5  1  0
  1 10  1  0
  1 11  1  0
  3 12  1  0
  3 13  1  0
  4 14  1  0
  5 15  1  0
  6 16  1  0
  6 17  1  0
  7 18  1  0
  8 19  1  0
  9 20  1  0
  9 21  1  0
M  END
