
     RDKit          3D

 19 21  0  0  0  0  0  0  0  0999 V2000
    2.5419    0.1689   -0.6807 C   0  0  0  0  0  0  0  0  0  0  0  0
    1.4810    0.9633   -1.2988 O   0  0  0  0  0  0  0  0  0  0  0  0
    1.6800    0.9786    0.1715 C   0  0  0  0  0  0  0  0  0  0  0  0
    0.6104    0.2758    0.9536 C   0  0  0  0  0  0  0  0  0  0  0  0
   -0.3288   -0.4334    0.0097 C   0  0  0  0  0  0  0  0  0  0  0  0
   -1.4524   -1.1793    0.6963 C   0  0  0  0  0  0  0  0  0  0  0  0
   -2.3932   -0.3561   -0.1949 C   0  0  0  0  0  0  0  0  0  0  0  0
   -2.3956    0.9782    0.1607 O   0  0  0  0  0  0  0  0  0  0  0  0
   -1.3782    0.4555   -0.6199 C   0  0  0  0  0  0  0  0  0  0  0  0
    3.5502    0.5457   -0.9263 H   0  0  0  0  0  0  0  0  0  0  0  0
    2.3542   -0.9222   -0.7298 H   0  0  0  0  0  0  0  0  0  0  0  0
    1.9757    2.0066    0.4517 H   0  0  0  0  0  0  0  0  0  0  0  0
    1.0425   -0.4335    1.6916 H   0  0  0  0  0  0  0  0  0  0  0  0
   -0.0149    1.0174    1.5186 H   0  0  0  0  0  0  0  0  0  0  0  0
    0.1729   -1.0820   -0.7303 H   0  0  0  0  0  0  0  0  0  0  0  0
   -1.5403   -0.9104    1.7644 H   0  0  0  0  0  0  0  0  0  0  0  0
   -1.4891   -2.2594    0.5242 H   0  0  0  0  0  0  0  0  0  0  0  0
   -3.2495   -0.8365   -0.6563 H   0  0  0  0  0  0  0  0  0  0  0  0
   -1.1666    1.0227   -1.5255 H   0  0  0  0  0  0  0  0  0  0  0  0
  1  2  1  0
  2  3  1  0
  3  4  1  0
  4  5  1  0
  5  6  1  0
  6  7  1  0
  7  8  1  0
  8  9  1  0
  3  1  1  0
  9  5  1  0
  9  7  1  0
  1 10  1  0
  1 11  1  0
  3 12  1  0
  4 13  1  0
  4 14  1  0
  5 15  1  0
  6 16  1  0
  6 17  1  0
  7 18  1  0
  9 19  1  0
M  END
