
     RDKit          3D

 15 18  0  0  0  0  0  0  0  0999 V2000
    2.0411    0.4517    0.3613 C   0  0  0  0  0  0  0  0  0  0  0  0
    1.6484    0.5038   -0.9893 O   0  0  0  0  0  0  0  0  0  0  0  0
    0.6804    0.2015   -0.0236 C   0  0  0  0  0  0  0  0  0  0  0  0
    0.1285   -1.1808   -0.1068 C   0  0  0  0  0  0  0  0  0  0  0  0
   -0.6806   -1.5765   -1.1508 O   0  0  0  0  0  0  0  0  0  0  0  0
   -1.3317   -1.0806   -0.0329 C   0  0  0  0  0  0  0  0  0  0  0  0
   -1.7264    0.3716   -0.1002 C   0  0  0  0  0  0  0  0  0  0  0  0
   -1.4173    1.1128    1.0077 O   0  0  0  0  0  0  0  0  0  0  0  0
   -0.4374    1.1730    0.0538 C   0  0  0  0  0  0  0  0  0  0  0  0
    2.3880    1.3948    0.8361 H   0  0  0  0  0  0  0  0  0  0  0  0
    2.7044   -0.4191    0.5570 H   0  0  0  0  0  0  0  0  0  0  0  0
    0.6789   -2.0033    0.3800 H   0  0  0  0  0  0  0  0  0  0  0  0
   -1.8702   -1.7799    0.6255 H   0  0  0  0  0  0  0  0  0  0  0  0
   -2.4170    0.7154   -0.8750 H   0  0  0  0  0  0  0  0  0  0  0  0
   -0.3892    2.1158   -0.5429 H   0  0  0  0  0  0  0  0  0  0  0  0
  1  2  1  0
  2  3  1  0
  3  4  1  0
  4  5  1  0
  5  6  1  0
  6  7  1  0
  7  8  1  0
  8  9  1  0
  3  1  1  0
  6  4  1  0
  9  7  1  0
  9  3  1  0
  1 10  1  0
  1 11  1  0
  4 12  1  0
  6 13  1  0
  7 14  1  0
  9 15  1  0
M  END
