
     RDKit          3D

 17 19  0  0  0  0  0  0  0  0999 V2000
   -1.3499   -0.8542    0.2691 C   0  0  0  0  0  0  0  0  0  0  0  0
   -0.4187   -0.8788    1.2885 O   0  0  0  0  0  0  0  0  0  0  0  0
    0.6714   -0.0204    1.0141 C   0  0  0  0  0  0  0  0  0  0  0  0
    1.4746   -0.7520   -0.0695 C   0  0  0  0  0  0  0  0  0  0  0  0
    0.6141   -1.0230   -1.1028 O   0  0  0  0  0  0  0  0  0  0  0  0
   -0.6178   -0.3976   -0.9997 C   0  0  0  0  0  0  0  0  0  0  0  0
   -0.4627    1.1188   -0.8105 C   0  0  0  0  0  0  0  0  0  0  0  0
    0.7838    1.6746   -0.8304 O   0  0  0  0  0  0  0  0  0  0  0  0
    0.2389    1.3025    0.4842 C   0  0  0  0  0  0  0  0  0  0  0  0
   -2.1102   -0.0727    0.5597 H   0  0  0  0  0  0  0  0  0  0  0  0
   -1.9021   -1.7789    0.1223 H   0  0  0  0  0  0  0  0  0  0  0  0
    1.2659    0.1131    1.9314 H   0  0  0  0  0  0  0  0  0  0  0  0
    2.2820   -0.0190   -0.3563 H   0  0  0  0  0  0  0  0  0  0  0  0
    1.9195   -1.6415    0.4027 H   0  0  0  0  0  0  0  0  0  0  0  0
   -1.1875   -0.6373   -1.9085 H   0  0  0  0  0  0  0  0  0  0  0  0
   -1.3631    1.6725   -1.0884 H   0  0  0  0  0  0  0  0  0  0  0  0
    0.1618    2.1940    1.0941 H   0  0  0  0  0  0  0  0  0  0  0  0
  1  2  1  0
  2  3  1  0
  3  4  1  0
  4  5  1  0
  5  6  1  0
  6  7  1  0
  7  8  1  0
  8  9  1  0
  6  1  1  0
  9  7  1  0
  9  3  1  0
  1 10  1  0
  1 11  1  0
  3 12  1  0
  4 13  1  0
  4 14  1  0
  6 15  1  0
  7 16  1  0
  9 17  1  0
M  END
