
     RDKit          3D

 16 18  0  0  0  0  0  0  0  0999 V2000
    1.5850    0.0593   -0.1115 C   0  0  0  0  0  0  0  0  0  0  0  0
    0.9282   -0.8339   -0.9725 O   0  0  0  0  0  0  0  0  0  0  0  0
   -0.2557   -1.2129   -0.4073 C   0  0  0  0  0  0  0  0  0  0  0  0
   -1.3251   -0.1291   -0.5521 C   0  0  0  0  0  0  0  0  0  0  0  0
   -0.5466    1.1741   -0.4202 C   0  0  0  0  0  0  0  0  0  0  0  0
    0.4429    0.6623    0.6404 C   0  0  0  0  0  0  0  0  0  0  0  0
   -0.3165   -0.6188    0.9896 C   0  0  0  0  0  0  0  0  0  0  0  0
   -1.6448   -0.3800    0.7754 O   0  0  0  0  0  0  0  0  0  0  0  0
    2.1553   -0.5794    0.6126 H   0  0  0  0  0  0  0  0  0  0  0  0
    2.2147    0.7786   -0.6330 H   0  0  0  0  0  0  0  0  0  0  0  0
   -0.6170   -2.2197   -0.5297 H   0  0  0  0  0  0  0  0  0  0  0  0
   -2.0490   -0.2273   -1.3134 H   0  0  0  0  0  0  0  0  0  0  0  0
   -1.1983    1.9417    0.0204 H   0  0  0  0  0  0  0  0  0  0  0  0
   -0.0407    1.4629   -1.3434 H   0  0  0  0  0  0  0  0  0  0  0  0
    0.6385    1.3203    1.4383 H   0  0  0  0  0  0  0  0  0  0  0  0
    0.0291   -1.1980    1.8064 H   0  0  0  0  0  0  0  0  0  0  0  0
  1  2  1  0
  2  3  1  0
  3  4  1  0
  4  5  1  0
  5  6  1  0
  6  7  1  0
  7  8  1  0
  6  1  1  0
  7  3  1  0
  8  4  1  0
  1  9  1  0
  1 10  1  0
  3 11  1  0
  4 12  1  0
  5 13  1  0
  5 14  1  0
  6 15  1  0
  7 16  1  0
M  END
