
     RDKit          3D

 21 23  0  0  0  0  0  0  0  0999 V2000
    1.9120   -0.6467   -0.6349 C   0  0  0  0  0  0  0  0  0  0  0  0
    2.9356    0.1311   -0.0465 O   0  0  0  0  0  0  0  0  0  0  0  0
    1.9029    1.0399    0.2846 C   0  0  0  0  0  0  0  0  0  0  0  0
    1.0152   -0.1627    0.4976 C   0  0  0  0  0  0  0  0  0  0  0  0
   -0.3121   -0.0895    0.2107 C   0  0  0  0  0  0  0  0  0  0  0  0
   -1.2150   -1.2311   -0.2276 C   0  0  0  0  0  0  0  0  0  0  0  0
   -2.1396   -0.0467   -0.1237 C   0  0  0  0  0  0  0  0  0  0  0  0
   -1.4347    0.2624    1.1667 C   0  0  0  0  0  0  0  0  0  0  0  0
   -1.0348    0.7367   -0.7910 C   0  0  0  0  0  0  0  0  0  0  0  0
    2.1611   -1.7152   -0.6135 H   0  0  0  0  0  0  0  0  0  0  0  0
    1.6618   -0.2075   -1.6171 H   0  0  0  0  0  0  0  0  0  0  0  0
    1.6194    1.5793   -0.6478 H   0  0  0  0  0  0  0  0  0  0  0  0
    2.1271    1.6460    1.1605 H   0  0  0  0  0  0  0  0  0  0  0  0
    1.3254   -0.6662    1.4366 H   0  0  0  0  0  0  0  0  0  0  0  0
   -1.0207   -1.6086   -1.2492 H   0  0  0  0  0  0  0  0  0  0  0  0
   -1.4042   -1.9952    0.5357 H   0  0  0  0  0  0  0  0  0  0  0  0
   -3.1165   -0.0105   -0.3218 H   0  0  0  0  0  0  0  0  0  0  0  0
   -1.5586   -0.5452    1.9021 H   0  0  0  0  0  0  0  0  0  0  0  0
   -1.4647    1.2908    1.5215 H   0  0  0  0  0  0  0  0  0  0  0  0
   -1.0617    1.8309   -0.6181 H   0  0  0  0  0  0  0  0  0  0  0  0
   -0.8980    0.4080   -1.8248 H   0  0  0  0  0  0  0  0  0  0  0  0
  1  2  1  0
  2  3  1  0
  3  4  1  0
  4  5  1  0
  5  6  1  0
  6  7  1  0
  7  8  1  0
  7  9  1  0
  4  1  1  0
  8  5  1  0
  9  5  1  0
  1 10  1  0
  1 11  1  0
  3 12  1  0
  3 13  1  0
  4 14  1  0
  6 15  1  0
  6 16  1  0
  7 17  1  0
  8 18  1  0
  8 19  1  0
  9 20  1  0
  9 21  1  0
M  END
