
     RDKit          3D

 19 21  0  0  0  0  0  0  0  0999 V2000
   -1.0182   -2.0074    0.0821 C   0  0  0  0  0  0  0  0  0  0  0  0
   -2.0428   -0.9815    0.3826 O   0  0  0  0  0  0  0  0  0  0  0  0
   -0.9374   -0.7404   -0.5546 C   0  0  0  0  0  0  0  0  0  0  0  0
   -0.1195    0.4450   -0.1840 C   0  0  0  0  0  0  0  0  0  0  0  0
    1.3684    0.2706   -0.1982 C   0  0  0  0  0  0  0  0  0  0  0  0
    2.0752   -0.6665    0.6583 C   0  0  0  0  0  0  0  0  0  0  0  0
    1.8796   -0.9596   -0.6695 O   0  0  0  0  0  0  0  0  0  0  0  0
   -0.6469    1.7775   -0.7723 C   0  0  0  0  0  0  0  0  0  0  0  0
   -0.6720    1.5239    0.6762 C   0  0  0  0  0  0  0  0  0  0  0  0
   -1.5270   -2.8355   -0.4749 H   0  0  0  0  0  0  0  0  0  0  0  0
   -0.5447   -2.3378    1.0056 H   0  0  0  0  0  0  0  0  0  0  0  0
   -1.3113   -0.6725   -1.6213 H   0  0  0  0  0  0  0  0  0  0  0  0
    1.9542    1.1532   -0.5868 H   0  0  0  0  0  0  0  0  0  0  0  0
    3.1105   -0.3623    0.9958 H   0  0  0  0  0  0  0  0  0  0  0  0
    1.5062   -1.2646    1.3703 H   0  0  0  0  0  0  0  0  0  0  0  0
    0.1307    2.4313   -1.2007 H   0  0  0  0  0  0  0  0  0  0  0  0
   -1.5868    1.7344   -1.3641 H   0  0  0  0  0  0  0  0  0  0  0  0
   -1.6714    1.4283    1.1460 H   0  0  0  0  0  0  0  0  0  0  0  0
    0.0531    2.0640    1.3095 H   0  0  0  0  0  0  0  0  0  0  0  0
  1  2  1  0
  2  3  1  0
  3  4  1  0
  4  5  1  0
  5  6  1  0
  6  7  1  0
  4  8  1  0
  8  9  1  0
  3  1  1  0
  9  4  1  0
  7  5  1  0
  1 10  1  0
  1 11  1  0
  3 12  1  0
  5 13  1  0
  6 14  1  0
  6 15  1  0
  8 16  1  0
  8 17  1  0
  9 18  1  0
  9 19  1  0
M  END
