
     RDKit          3D

 15 17  0  0  0  0  0  0  0  0999 V2000
    1.8217   -0.9494   -0.4457 C   0  0  0  0  0  0  0  0  0  0  0  0
    2.4191    0.1860   -0.6773 O   0  0  0  0  0  0  0  0  0  0  0  0
    1.6618    1.2182   -0.4022 C   0  0  0  0  0  0  0  0  0  0  0  0
    0.4715    0.7387    0.0458 C   0  0  0  0  0  0  0  0  0  0  0  0
    0.5699   -0.6654    0.0197 C   0  0  0  0  0  0  0  0  0  0  0  0
   -0.7832   -1.0185    0.5300 C   0  0  0  0  0  0  0  0  0  0  0  0
   -1.6942   -0.1100   -0.2778 C   0  0  0  0  0  0  0  0  0  0  0  0
   -0.9296    0.8771    0.5687 C   0  0  0  0  0  0  0  0  0  0  0  0
   -1.0188   -0.1063    1.5851 O   0  0  0  0  0  0  0  0  0  0  0  0
    2.1965   -1.9725   -0.5780 H   0  0  0  0  0  0  0  0  0  0  0  0
    1.8777    2.2866   -0.4909 H   0  0  0  0  0  0  0  0  0  0  0  0
   -1.0349   -2.0297    0.6639 H   0  0  0  0  0  0  0  0  0  0  0  0
   -2.7431   -0.2183    0.0567 H   0  0  0  0  0  0  0  0  0  0  0  0
   -1.5143   -0.0801   -1.3515 H   0  0  0  0  0  0  0  0  0  0  0  0
   -1.3001    1.8437    0.7535 H   0  0  0  0  0  0  0  0  0  0  0  0
  1  2  1  0
  2  3  1  0
  3  4  2  0
  4  5  1  0
  5  6  1  0
  6  7  1  0
  7  8  1  0
  8  9  1  0
  5  1  2  0
  9  6  1  0
  8  4  1  0
  1 10  1  0
  3 11  1  0
  6 12  1  0
  7 13  1  0
  7 14  1  0
  8 15  1  0
M  END
