
     RDKit          3D

 19 21  0  0  0  0  0  0  0  0999 V2000
    2.1230   -0.8469    0.0106 C   0  0  0  0  0  0  0  0  0  0  0  0
    1.9080   -0.2246   -1.1998 O   0  0  0  0  0  0  0  0  0  0  0  0
    1.5472    0.4611    0.0698 C   0  0  0  0  0  0  0  0  0  0  0  0
    0.1068    0.7898    0.0772 C   0  0  0  0  0  0  0  0  0  0  0  0
   -0.6543    0.3062   -1.1640 C   0  0  0  0  0  0  0  0  0  0  0  0
   -1.4679   -0.7802   -0.5881 C   0  0  0  0  0  0  0  0  0  0  0  0
   -2.6467   -0.8470   -0.0343 O   0  0  0  0  0  0  0  0  0  0  0  0
   -1.9948    0.0737    0.6104 C   0  0  0  0  0  0  0  0  0  0  0  0
   -0.6476    0.1363    1.2578 C   0  0  0  0  0  0  0  0  0  0  0  0
    3.2036   -0.9582    0.2957 H   0  0  0  0  0  0  0  0  0  0  0  0
    1.5253   -1.7599    0.1743 H   0  0  0  0  0  0  0  0  0  0  0  0
    2.2403    1.3297    0.2595 H   0  0  0  0  0  0  0  0  0  0  0  0
   -0.0172    1.9082    0.1474 H   0  0  0  0  0  0  0  0  0  0  0  0
   -1.3119    1.1191   -1.5209 H   0  0  0  0  0  0  0  0  0  0  0  0
    0.0442   -0.0591   -1.9420 H   0  0  0  0  0  0  0  0  0  0  0  0
   -0.8176   -1.6650   -0.3039 H   0  0  0  0  0  0  0  0  0  0  0  0
   -2.3267    1.1248    0.3387 H   0  0  0  0  0  0  0  0  0  0  0  0
   -0.2030   -0.8643    1.3616 H   0  0  0  0  0  0  0  0  0  0  0  0
   -0.6106    0.7563    2.1501 H   0  0  0  0  0  0  0  0  0  0  0  0
  1  2  1  0
  2  3  1  0
  3  4  1  0
  4  5  1  0
  5  6  1  0
  6  7  1  0
  7  8  1  0
  8  9  1  0
  3  1  1  0
  9  4  1  0
  8  6  1  0
  1 10  1  0
  1 11  1  0
  3 12  1  0
  4 13  1  0
  5 14  1  0
  5 15  1  0
  6 16  1  0
  8 17  1  0
  9 18  1  0
  9 19  1  0
M  END
