
     RDKit          3D

 19 21  0  0  0  0  0  0  0  0999 V2000
   -0.3158    1.3452   -0.5059 C   0  0  0  0  0  0  0  0  0  0  0  0
    1.0567    1.4442   -0.4848 O   0  0  0  0  0  0  0  0  0  0  0  0
    1.7216    0.2287   -0.5291 C   0  0  0  0  0  0  0  0  0  0  0  0
    0.9107   -0.7744    0.1881 C   0  0  0  0  0  0  0  0  0  0  0  0
    0.2567   -0.0857    1.3747 C   0  0  0  0  0  0  0  0  0  0  0  0
   -0.9149    0.5389    0.5977 C   0  0  0  0  0  0  0  0  0  0  0  0
   -1.4596   -0.7780    0.0184 C   0  0  0  0  0  0  0  0  0  0  0  0
   -0.2522   -1.2939   -0.6792 C   0  0  0  0  0  0  0  0  0  0  0  0
    0.7121   -2.0527   -0.1082 O   0  0  0  0  0  0  0  0  0  0  0  0
   -0.7023    0.9659   -1.4975 H   0  0  0  0  0  0  0  0  0  0  0  0
   -0.7177    2.3777   -0.4274 H   0  0  0  0  0  0  0  0  0  0  0  0
    2.0463   -0.0582   -1.5458 H   0  0  0  0  0  0  0  0  0  0  0  0
    2.6746    0.3857    0.0553 H   0  0  0  0  0  0  0  0  0  0  0  0
   -0.0854   -0.7874    2.1330 H   0  0  0  0  0  0  0  0  0  0  0  0
    0.8871    0.7312    1.7169 H   0  0  0  0  0  0  0  0  0  0  0  0
   -1.6223    1.0441    1.2351 H   0  0  0  0  0  0  0  0  0  0  0  0
   -1.7065   -1.4322    0.8850 H   0  0  0  0  0  0  0  0  0  0  0  0
   -2.3101   -0.6101   -0.6458 H   0  0  0  0  0  0  0  0  0  0  0  0
   -0.1790   -1.1890   -1.7804 H   0  0  0  0  0  0  0  0  0  0  0  0
  1  2  1  0
  2  3  1  0
  3  4  1  0
  4  5  1  0
  5  6  1  0
  6  7  1  0
  7  8  1  0
  8  9  1  0
  6  1  1  0
  8  4  1  0
  9  4  1  0
  1 10  1  0
  1 11  1  0
  3 12  1  0
  3 13  1  0
  5 14  1  0
  5 15  1  0
  6 16  1  0
  7 17  1  0
  7 18  1  0
  8 19  1  0
M  END
