
     RDKit          3D

 19 21  0  0  0  0  0  0  0  0999 V2000
   -1.2757    0.9848    0.6265 C   0  0  0  0  0  0  0  0  0  0  0  0
   -1.3199   -0.3181    1.0557 O   0  0  0  0  0  0  0  0  0  0  0  0
   -1.1813   -1.1909    0.0079 C   0  0  0  0  0  0  0  0  0  0  0  0
   -0.1292   -0.8306   -0.9844 C   0  0  0  0  0  0  0  0  0  0  0  0
   -0.4469    0.4434   -1.4883 O   0  0  0  0  0  0  0  0  0  0  0  0
   -0.1689    1.2201   -0.3383 C   0  0  0  0  0  0  0  0  0  0  0  0
    1.1762    0.8326    0.0817 C   0  0  0  0  0  0  0  0  0  0  0  0
    1.5280   -0.2844    0.9564 C   0  0  0  0  0  0  0  0  0  0  0  0
    1.2319   -0.6468   -0.4318 C   0  0  0  0  0  0  0  0  0  0  0  0
   -1.1969    1.7202    1.4511 H   0  0  0  0  0  0  0  0  0  0  0  0
   -2.2436    1.1596    0.0669 H   0  0  0  0  0  0  0  0  0  0  0  0
   -2.1637   -1.1946   -0.5447 H   0  0  0  0  0  0  0  0  0  0  0  0
   -1.0386   -2.2129    0.4149 H   0  0  0  0  0  0  0  0  0  0  0  0
   -0.1185   -1.5950   -1.7754 H   0  0  0  0  0  0  0  0  0  0  0  0
   -0.2019    2.2725   -0.6776 H   0  0  0  0  0  0  0  0  0  0  0  0
    2.0094    1.4815   -0.3162 H   0  0  0  0  0  0  0  0  0  0  0  0
    2.6055   -0.3616    1.2398 H   0  0  0  0  0  0  0  0  0  0  0  0
    0.8740   -0.6132    1.8025 H   0  0  0  0  0  0  0  0  0  0  0  0
    2.0598   -0.8666   -1.1467 H   0  0  0  0  0  0  0  0  0  0  0  0
  1  2  1  0
  2  3  1  0
  3  4  1  0
  4  5  1  0
  5  6  1  0
  6  7  1  0
  7  8  1  0
  8  9  1  0
  6  1  1  0
  9  7  1  0
  9  4  1  0
  1 10  1  0
  1 11  1  0
  3 12  1  0
  3 13  1  0
  4 14  1  0
  6 15  1  0
  7 16  1  0
  8 17  1  0
  8 18  1  0
  9 19  1  0
M  END
