
     RDKit          3D

 19 21  0  0  0  0  0  0  0  0999 V2000
    1.6486    0.4897   -0.1401 C   0  0  0  0  0  0  0  0  0  0  0  0
    0.8982    1.1701    0.7775 O   0  0  0  0  0  0  0  0  0  0  0  0
   -0.2564    0.5582    1.1774 C   0  0  0  0  0  0  0  0  0  0  0  0
   -1.3549    0.9860    0.1919 C   0  0  0  0  0  0  0  0  0  0  0  0
   -0.9196    0.2678   -1.0540 C   0  0  0  0  0  0  0  0  0  0  0  0
   -0.2706   -1.0010   -0.5723 C   0  0  0  0  0  0  0  0  0  0  0  0
    1.2071   -0.9278   -0.3155 C   0  0  0  0  0  0  0  0  0  0  0  0
    1.0402   -1.4703    0.9748 O   0  0  0  0  0  0  0  0  0  0  0  0
   -0.2484   -0.9441    0.9354 C   0  0  0  0  0  0  0  0  0  0  0  0
    2.7148    0.5068    0.2284 H   0  0  0  0  0  0  0  0  0  0  0  0
    1.6794    0.9654   -1.1423 H   0  0  0  0  0  0  0  0  0  0  0  0
   -0.5275    0.8203    2.2086 H   0  0  0  0  0  0  0  0  0  0  0  0
   -1.3593    2.0761    0.1100 H   0  0  0  0  0  0  0  0  0  0  0  0
   -2.2870    0.5416    0.5655 H   0  0  0  0  0  0  0  0  0  0  0  0
   -0.2759    0.8725   -1.7165 H   0  0  0  0  0  0  0  0  0  0  0  0
   -1.8363    0.0348   -1.6607 H   0  0  0  0  0  0  0  0  0  0  0  0
   -0.6207   -1.9330   -1.0248 H   0  0  0  0  0  0  0  0  0  0  0  0
    1.7820   -1.5207   -1.0122 H   0  0  0  0  0  0  0  0  0  0  0  0
   -1.0137   -1.4925    1.4687 H   0  0  0  0  0  0  0  0  0  0  0  0
  1  2  1  0
  2  3  1  0
  3  4  1  0
  4  5  1  0
  5  6  1  0
  6  7  1  0
  7  8  1  0
  8  9  1  0
  7  1  1  0
  9  3  1  0
  9  6  1  0
  1 10  1  0
  1 11  1  0
  3 12  1  0
  4 13  1  0
  4 14  1  0
  5 15  1  0
  5 16  1  0
  6 17  1  0
  7 18  1  0
  9 19  1  0
M  END
