
     RDKit          3D

 19 21  0  0  0  0  0  0  0  0999 V2000
    2.0786   -0.7599   -0.3761 C   0  0  0  0  0  0  0  0  0  0  0  0
    1.2881   -1.2583    0.6351 O   0  0  0  0  0  0  0  0  0  0  0  0
    0.2478   -0.3929    0.9953 C   0  0  0  0  0  0  0  0  0  0  0  0
    0.7364    1.0345    0.6809 C   0  0  0  0  0  0  0  0  0  0  0  0
    0.3298    0.6983   -0.7637 C   0  0  0  0  0  0  0  0  0  0  0  0
    1.4140    0.0118   -1.3027 O   0  0  0  0  0  0  0  0  0  0  0  0
   -0.6405   -0.2030   -0.1406 C   0  0  0  0  0  0  0  0  0  0  0  0
   -1.7927   -0.8391   -0.6058 C   0  0  0  0  0  0  0  0  0  0  0  0
   -2.0153    0.4194    0.1602 C   0  0  0  0  0  0  0  0  0  0  0  0
    2.9918   -0.2422    0.0404 H   0  0  0  0  0  0  0  0  0  0  0  0
    2.5067   -1.6386   -0.9365 H   0  0  0  0  0  0  0  0  0  0  0  0
   -0.1426   -0.5269    2.0017 H   0  0  0  0  0  0  0  0  0  0  0  0
    0.0115    1.7401    1.1004 H   0  0  0  0  0  0  0  0  0  0  0  0
    1.7927    1.2029    0.8374 H   0  0  0  0  0  0  0  0  0  0  0  0
    0.0086    1.5432   -1.3618 H   0  0  0  0  0  0  0  0  0  0  0  0
   -2.0544   -0.7948   -1.6984 H   0  0  0  0  0  0  0  0  0  0  0  0
   -2.1712   -1.7651   -0.1392 H   0  0  0  0  0  0  0  0  0  0  0  0
   -2.2561    1.3699   -0.3486 H   0  0  0  0  0  0  0  0  0  0  0  0
   -2.3334    0.4009    1.2222 H   0  0  0  0  0  0  0  0  0  0  0  0
  1  2  1  0
  2  3  1  0
  3  4  1  0
  4  5  1  0
  5  6  1  0
  5  7  1  0
  7  8  1  0
  8  9  1  0
  6  1  1  0
  9  7  1  0
  7  3  1  0
  1 10  1  0
  1 11  1  0
  3 12  1  0
  4 13  1  0
  4 14  1  0
  5 15  1  0
  8 16  1  0
  8 17  1  0
  9 18  1  0
  9 19  1  0
M  END
