
     RDKit          3D

 16 18  0  0  0  0  0  0  0  0999 V2000
   -0.7923   -0.9199   -0.7401 C   0  0  0  0  0  0  0  0  0  0  0  0
   -1.5043   -0.8237    0.4799 O   0  0  0  0  0  0  0  0  0  0  0  0
   -1.3891    0.5684    0.6947 C   0  0  0  0  0  0  0  0  0  0  0  0
    0.1357    0.7080    0.6676 C   0  0  0  0  0  0  0  0  0  0  0  0
    0.6816    1.2269   -0.5955 C   0  0  0  0  0  0  0  0  0  0  0  0
    0.5208   -0.2476   -0.5124 C   0  0  0  0  0  0  0  0  0  0  0  0
    1.4760   -0.8834    0.5006 C   0  0  0  0  0  0  0  0  0  0  0  0
    0.7973   -0.1821    1.4759 O   0  0  0  0  0  0  0  0  0  0  0  0
   -1.3742   -0.3616   -1.4727 H   0  0  0  0  0  0  0  0  0  0  0  0
   -0.6184   -1.9775   -0.9992 H   0  0  0  0  0  0  0  0  0  0  0  0
   -1.8169    0.8874    1.6411 H   0  0  0  0  0  0  0  0  0  0  0  0
   -1.8493    1.0430   -0.1994 H   0  0  0  0  0  0  0  0  0  0  0  0
    1.7542    1.5629   -0.6431 H   0  0  0  0  0  0  0  0  0  0  0  0
    0.0242    1.8289   -1.2154 H   0  0  0  0  0  0  0  0  0  0  0  0
    1.4611   -1.9681    0.5420 H   0  0  0  0  0  0  0  0  0  0  0  0
    2.4935   -0.4615    0.3760 H   0  0  0  0  0  0  0  0  0  0  0  0
  1  2  1  0
  2  3  1  0
  3  4  1  0
  4  5  1  0
  5  6  1  0
  6  7  1  0
  7  8  1  0
  6  1  1  0
  6  4  1  0
  8  4  1  0
  1  9  1  0
  1 10  1  0
  3 11  1  0
  3 12  1  0
  5 13  1  0
  5 14  1  0
  7 15  1  0
  7 16  1  0
M  END
