
     RDKit          3D

 17 19  0  0  0  0  0  0  0  0999 V2000
   -1.9677    0.2480   -1.1316 C   0  0  0  0  0  0  0  0  0  0  0  0
   -2.2712   -0.1412    0.1551 O   0  0  0  0  0  0  0  0  0  0  0  0
   -1.0872   -0.4097    0.8089 C   0  0  0  0  0  0  0  0  0  0  0  0
   -0.2720    0.7325    1.3007 C   0  0  0  0  0  0  0  0  0  0  0  0
   -0.0488    0.2339   -0.0527 C   0  0  0  0  0  0  0  0  0  0  0  0
    1.1054   -0.6421   -0.4355 C   0  0  0  0  0  0  0  0  0  0  0  0
    2.4664   -0.1628    0.0119 C   0  0  0  0  0  0  0  0  0  0  0  0
    1.8461   -1.2813    0.5493 O   0  0  0  0  0  0  0  0  0  0  0  0
   -0.7107    0.8164   -1.1144 O   0  0  0  0  0  0  0  0  0  0  0  0
   -1.9935   -0.6085   -1.8550 H   0  0  0  0  0  0  0  0  0  0  0  0
   -2.6737    1.0578   -1.4766 H   0  0  0  0  0  0  0  0  0  0  0  0
   -0.9127   -1.3974    1.2752 H   0  0  0  0  0  0  0  0  0  0  0  0
    0.5010    0.5639    2.0733 H   0  0  0  0  0  0  0  0  0  0  0  0
   -0.7651    1.7399    1.3789 H   0  0  0  0  0  0  0  0  0  0  0  0
    1.0052   -1.1576   -1.4050 H   0  0  0  0  0  0  0  0  0  0  0  0
    3.2482   -0.2895   -0.7735 H   0  0  0  0  0  0  0  0  0  0  0  0
    2.5303    0.6979    0.6909 H   0  0  0  0  0  0  0  0  0  0  0  0
  1  2  1  0
  2  3  1  0
  3  4  1  0
  4  5  1  0
  5  6  1  0
  6  7  1  0
  7  8  1  0
  5  9  1  0
  9  1  1  0
  5  3  1  0
  8  6  1  0
  1 10  1  0
  1 11  1  0
  3 12  1  0
  4 13  1  0
  4 14  1  0
  6 15  1  0
  7 16  1  0
  7 17  1  0
M  END
