
     RDKit          3D

 17 19  0  0  0  0  0  0  0  0999 V2000
    2.4507   -0.1033    0.1592 C   0  0  0  0  0  0  0  0  0  0  0  0
    1.5233   -0.9777    0.7848 O   0  0  0  0  0  0  0  0  0  0  0  0
    0.4275   -0.1523    0.7673 C   0  0  0  0  0  0  0  0  0  0  0  0
    0.5210    0.0104   -0.8101 C   0  0  0  0  0  0  0  0  0  0  0  0
    1.6940    0.6711   -0.7568 O   0  0  0  0  0  0  0  0  0  0  0  0
   -0.6788    0.0090   -0.0622 C   0  0  0  0  0  0  0  0  0  0  0  0
   -1.7962   -0.9064   -0.2915 C   0  0  0  0  0  0  0  0  0  0  0  0
   -2.6663    0.0987    0.1972 O   0  0  0  0  0  0  0  0  0  0  0  0
   -1.6587    1.0888    0.1131 C   0  0  0  0  0  0  0  0  0  0  0  0
    2.8068    0.6437    0.9188 H   0  0  0  0  0  0  0  0  0  0  0  0
    3.2610   -0.6460   -0.3298 H   0  0  0  0  0  0  0  0  0  0  0  0
    0.7019    0.7895    1.3450 H   0  0  0  0  0  0  0  0  0  0  0  0
    0.6620   -0.9673   -1.3732 H   0  0  0  0  0  0  0  0  0  0  0  0
   -2.0922   -1.1550   -1.3274 H   0  0  0  0  0  0  0  0  0  0  0  0
   -1.7540   -1.8023    0.3860 H   0  0  0  0  0  0  0  0  0  0  0  0
   -1.5037    1.6633    1.0298 H   0  0  0  0  0  0  0  0  0  0  0  0
   -1.8983    1.7358   -0.7503 H   0  0  0  0  0  0  0  0  0  0  0  0
  1  2  1  0
  2  3  1  0
  3  4  1  0
  4  5  1  0
  4  6  1  0
  6  7  1  0
  7  8  1  0
  8  9  1  0
  5  1  1  0
  9  6  1  0
  6  3  1  0
  1 10  1  0
  1 11  1  0
  3 12  1  0
  4 13  1  0
  7 14  1  0
  7 15  1  0
  9 16  1  0
  9 17  1  0
M  END
