
     RDKit          3D

 14 15  0  0  0  0  0  0  0  0999 V2000
    1.4313    0.0083    0.2226 C   0  0  0  0  0  0  0  0  0  0  0  0
    0.6415    0.0926    1.3986 O   0  0  0  0  0  0  0  0  0  0  0  0
   -0.6382    0.1336    0.9138 C   0  0  0  0  0  0  0  0  0  0  0  0
   -0.5854    0.9647   -0.3787 C   0  0  0  0  0  0  0  0  0  0  0  0
    0.3533   -0.1837   -0.7824 C   0  0  0  0  0  0  0  0  0  0  0  0
   -0.6847   -1.0424   -0.0748 C   0  0  0  0  0  0  0  0  0  0  0  0
    2.1849   -0.7652    0.2786 H   0  0  0  0  0  0  0  0  0  0  0  0
    1.8441    1.0464    0.0998 H   0  0  0  0  0  0  0  0  0  0  0  0
   -1.4741    0.2709    1.5469 H   0  0  0  0  0  0  0  0  0  0  0  0
   -1.4881    0.9059   -0.9690 H   0  0  0  0  0  0  0  0  0  0  0  0
   -0.1032    1.9139   -0.1962 H   0  0  0  0  0  0  0  0  0  0  0  0
    0.5436   -0.3344   -1.8041 H   0  0  0  0  0  0  0  0  0  0  0  0
   -0.3415   -1.9886    0.3189 H   0  0  0  0  0  0  0  0  0  0  0  0
   -1.6834   -1.0220   -0.5739 H   0  0  0  0  0  0  0  0  0  0  0  0
  1  2  1  0
  2  3  1  0
  3  4  1  0
  4  5  1  0
  5  6  1  0
  5  1  1  0
  6  3  1  0
  1  7  1  0
  1  8  1  0
  3  9  1  0
  4 10  1  0
  4 11  1  0
  5 12  1  0
  6 13  1  0
  6 14  1  0
M  END
