
     RDKit          3D

 16 18  0  0  0  0  0  0  0  0999 V2000
    2.6774    0.0662    0.1801 C   0  0  0  0  0  0  0  0  0  0  0  0
    2.0642   -0.7803    1.1013 O   0  0  0  0  0  0  0  0  0  0  0  0
    1.3200   -0.5558   -0.0534 C   0  0  0  0  0  0  0  0  0  0  0  0
    0.1650    0.3784   -0.0430 C   0  0  0  0  0  0  0  0  0  0  0  0
   -0.4245    0.4446   -1.3047 O   0  0  0  0  0  0  0  0  0  0  0  0
   -1.5398   -0.1866   -0.8168 C   0  0  0  0  0  0  0  0  0  0  0  0
   -2.3781    0.5256    0.1946 C   0  0  0  0  0  0  0  0  0  0  0  0
   -1.1057   -0.1534    0.5790 C   0  0  0  0  0  0  0  0  0  0  0  0
    3.4662   -0.3080   -0.4824 H   0  0  0  0  0  0  0  0  0  0  0  0
    2.7325    1.1432    0.4038 H   0  0  0  0  0  0  0  0  0  0  0  0
    1.2451   -1.4527   -0.6975 H   0  0  0  0  0  0  0  0  0  0  0  0
    0.4543    1.3925    0.2720 H   0  0  0  0  0  0  0  0  0  0  0  0
   -1.9103   -1.0914   -1.3216 H   0  0  0  0  0  0  0  0  0  0  0  0
   -3.3039   -0.0130    0.5187 H   0  0  0  0  0  0  0  0  0  0  0  0
   -2.3722    1.6189    0.2894 H   0  0  0  0  0  0  0  0  0  0  0  0
   -1.0902   -1.0283    1.2281 H   0  0  0  0  0  0  0  0  0  0  0  0
  1  2  1  0
  2  3  1  0
  3  4  1  0
  4  5  1  0
  5  6  1  0
  6  7  1  0
  7  8  1  0
  3  1  1  0
  8  4  1  0
  8  6  1  0
  1  9  1  0
  1 10  1  0
  3 11  1  0
  4 12  1  0
  6 13  1  0
  7 14  1  0
  7 15  1  0
  8 16  1  0
M  END
