
     RDKit          3D

 17 20  0  0  0  0  0  0  0  0999 V2000
    2.0506   -0.7645    0.4178 C   0  0  0  0  0  0  0  0  0  0  0  0
    2.1099   -0.4050   -0.9199 O   0  0  0  0  0  0  0  0  0  0  0  0
    0.9164   -0.1637   -0.2938 C   0  0  0  0  0  0  0  0  0  0  0  0
    0.4701    1.2073    0.0755 C   0  0  0  0  0  0  0  0  0  0  0  0
   -1.0388    1.0500    0.2660 C   0  0  0  0  0  0  0  0  0  0  0  0
   -1.5984   -0.2637    0.6742 C   0  0  0  0  0  0  0  0  0  0  0  0
   -0.8957   -1.4386    0.5472 O   0  0  0  0  0  0  0  0  0  0  0  0
   -0.3097   -0.9797   -0.6421 C   0  0  0  0  0  0  0  0  0  0  0  0
   -1.3840    0.0409   -0.7325 C   0  0  0  0  0  0  0  0  0  0  0  0
    2.6168   -0.0601    1.0835 H   0  0  0  0  0  0  0  0  0  0  0  0
    2.0518   -1.8309    0.6903 H   0  0  0  0  0  0  0  0  0  0  0  0
    0.5768    1.9140   -0.7966 H   0  0  0  0  0  0  0  0  0  0  0  0
    0.9627    1.6521    0.9376 H   0  0  0  0  0  0  0  0  0  0  0  0
   -1.6416    1.9247    0.4887 H   0  0  0  0  0  0  0  0  0  0  0  0
   -2.5720   -0.2874    1.1561 H   0  0  0  0  0  0  0  0  0  0  0  0
   -0.2048   -1.7070   -1.4403 H   0  0  0  0  0  0  0  0  0  0  0  0
   -2.1101    0.1118   -1.5116 H   0  0  0  0  0  0  0  0  0  0  0  0
  1  2  1  0
  2  3  1  0
  3  4  1  0
  4  5  1  0
  5  6  1  0
  6  7  1  0
  7  8  1  0
  8  9  1  0
  3  1  1  0
  9  5  1  0
  8  3  1  0
  9  6  1  0
  1 10  1  0
  1 11  1  0
  4 12  1  0
  4 13  1  0
  5 14  1  0
  6 15  1  0
  8 16  1  0
  9 17  1  0
M  END
