
     RDKit          3D

 19 21  0  0  0  0  0  0  0  0999 V2000
   -1.9841   -0.0502   -0.2360 C   0  0  0  0  0  0  0  0  0  0  0  0
   -1.8109   -1.4163   -0.0745 O   0  0  0  0  0  0  0  0  0  0  0  0
   -0.5001   -1.1555    0.3647 C   0  0  0  0  0  0  0  0  0  0  0  0
   -0.9612    0.1648    0.8655 C   0  0  0  0  0  0  0  0  0  0  0  0
    0.0262    1.2099    0.4545 C   0  0  0  0  0  0  0  0  0  0  0  0
    0.8776    0.5664   -0.5983 C   0  0  0  0  0  0  0  0  0  0  0  0
    2.0913   -0.0782    0.0282 C   0  0  0  0  0  0  0  0  0  0  0  0
    1.7376   -1.2611   -0.6033 O   0  0  0  0  0  0  0  0  0  0  0  0
    0.4182   -0.8411   -0.7725 C   0  0  0  0  0  0  0  0  0  0  0  0
   -2.9536    0.3565    0.0642 H   0  0  0  0  0  0  0  0  0  0  0  0
   -1.6742    0.3569   -1.2164 H   0  0  0  0  0  0  0  0  0  0  0  0
   -0.1405   -1.8915    1.1002 H   0  0  0  0  0  0  0  0  0  0  0  0
   -1.3650    0.2207    1.8816 H   0  0  0  0  0  0  0  0  0  0  0  0
    0.6640    1.5824    1.2729 H   0  0  0  0  0  0  0  0  0  0  0  0
   -0.5472    2.0368   -0.0278 H   0  0  0  0  0  0  0  0  0  0  0  0
    1.0403    1.1268   -1.5213 H   0  0  0  0  0  0  0  0  0  0  0  0
    3.0022    0.4165   -0.3297 H   0  0  0  0  0  0  0  0  0  0  0  0
    2.0063   -0.2060    1.1271 H   0  0  0  0  0  0  0  0  0  0  0  0
    0.0732   -1.1380   -1.7790 H   0  0  0  0  0  0  0  0  0  0  0  0
  1  2  1  0
  2  3  1  0
  3  4  1  0
  4  5  1  0
  5  6  1  0
  6  7  1  0
  7  8  1  0
  8  9  1  0
  4  1  1  0
  9  6  1  0
  9  3  1  0
  1 10  1  0
  1 11  1  0
  3 12  1  0
  4 13  1  0
  5 14  1  0
  5 15  1  0
  6 16  1  0
  7 17  1  0
  7 18  1  0
  9 19  1  0
M  END
