
     RDKit          2D

 19 22  0  0  0  0  0  0  0  0999 V2000
    1.2760    0.0000    0.0000 C   0  0  0  0  0  0  0  0  0  0  0  0
    0.3943    1.2135    0.0000 O   0  0  0  0  0  0  0  0  0  0  0  0
   -1.0323    0.7500    0.0000 C   0  0  0  0  0  0  0  0  0  0  0  0
   -2.5323    0.7500    0.0000 C   0  0  0  0  0  0  0  0  0  0  0  0
   -2.5323   -0.7500    0.0000 C   0  0  0  0  0  0  0  0  0  0  0  0
   -1.0323   -0.7500    0.0000 C   0  0  0  0  0  0  0  0  0  0  0  0
    0.3943   -1.2135    0.0000 C   0  0  0  0  0  0  0  0  0  0  0  0
   -0.0692   -2.6401    0.0000 C   0  0  0  0  0  0  0  0  0  0  0  0
   -1.4958   -2.1766    0.0000 C   0  0  0  0  0  0  0  0  0  0  0  0
    2.3907    1.0037    0.0000 H   0  0  0  0  0  0  0  0  0  0  0  0
    2.3907   -1.0037    0.0000 H   0  0  0  0  0  0  0  0  0  0  0  0
   -1.2669    2.2315    0.0000 H   0  0  0  0  0  0  0  0  0  0  0  0
   -3.5929    1.8107    0.0000 H   0  0  0  0  0  0  0  0  0  0  0  0
   -2.6804   -1.9559    0.0000 H   0  0  0  0  0  0  0  0  0  0  0  0
   -4.0323   -0.7500    0.0000 H   0  0  0  0  0  0  0  0  0  0  0  0
    1.7308   -1.8945    0.0000 H   0  0  0  0  0  0  0  0  0  0  0  0
   -0.5328   -4.0667    0.0000 H   0  0  0  0  0  0  0  0  0  0  0  0
    1.3574   -3.1036    0.0000 H   0  0  0  0  0  0  0  0  0  0  0  0
   -2.5031   -2.8560    0.0000 H   0  0  0  0  0  0  0  0  0  0  0  0
  1  2  1  0
  2  3  1  0
  3  4  1  0
  4  5  1  0
  5  6  1  0
  6  7  1  0
  7  8  1  0
  8  9  1  0
  7  1  1  0
  6  3  1  0
  9  4  1  0
  9  6  1  0
  1 10  1  0
  1 11  1  0
  3 12  1  0
  4 13  1  0
  5 14  1  0
  5 15  1  0
  7 16  1  0
  8 17  1  0
  8 18  1  0
  9 19  1  0
M  END
