
     RDKit          3D

 19 20  0  0  0  0  0  0  0  0999 V2000
   -0.1136   -1.6654   -0.4537 C   0  0  0  0  0  0  0  0  0  0  0  0
    1.2250   -1.6386   -0.0350 O   0  0  0  0  0  0  0  0  0  0  0  0
    1.6997   -0.3185   -0.1853 C   0  0  0  0  0  0  0  0  0  0  0  0
    0.8658    0.6687    0.5839 C   0  0  0  0  0  0  0  0  0  0  0  0
    0.1491    1.6550   -0.2982 C   0  0  0  0  0  0  0  0  0  0  0  0
   -0.9154    1.1245   -0.9828 O   0  0  0  0  0  0  0  0  0  0  0  0
   -1.7043    0.2672   -0.2520 C   0  0  0  0  0  0  0  0  0  0  0  0
   -0.8844   -0.7745    0.4746 C   0  0  0  0  0  0  0  0  0  0  0  0
   -0.0431   -0.0722    1.3502 O   0  0  0  0  0  0  0  0  0  0  0  0
   -0.5113   -2.6876   -0.3768 H   0  0  0  0  0  0  0  0  0  0  0  0
   -0.1433   -1.3309   -1.5069 H   0  0  0  0  0  0  0  0  0  0  0  0
    2.7182   -0.3287    0.2775 H   0  0  0  0  0  0  0  0  0  0  0  0
    1.8106   -0.0457   -1.2435 H   0  0  0  0  0  0  0  0  0  0  0  0
    1.4700    1.2466    1.3366 H   0  0  0  0  0  0  0  0  0  0  0  0
   -0.1981    2.4994    0.3473 H   0  0  0  0  0  0  0  0  0  0  0  0
    0.8621    2.0636   -1.0390 H   0  0  0  0  0  0  0  0  0  0  0  0
   -2.4666   -0.1732   -0.8935 H   0  0  0  0  0  0  0  0  0  0  0  0
   -2.2332    0.8533    0.5419 H   0  0  0  0  0  0  0  0  0  0  0  0
   -1.5873   -1.3430    1.1397 H   0  0  0  0  0  0  0  0  0  0  0  0
  1  2  1  0
  2  3  1  0
  3  4  1  0
  4  5  1  0
  5  6  1  0
  6  7  1  0
  7  8  1  0
  8  9  1  0
  8  1  1  0
  9  4  1  0
  1 10  1  0
  1 11  1  0
  3 12  1  0
  3 13  1  0
  4 14  1  0
  5 15  1  0
  5 16  1  0
  7 17  1  0
  7 18  1  0
  8 19  1  0
M  END
