
     RDKit          3D

 19 21  0  0  0  0  0  0  0  0999 V2000
    0.0069    1.6663   -0.0324 C   0  0  0  0  0  0  0  0  0  0  0  0
    1.1295    1.3393   -0.7346 O   0  0  0  0  0  0  0  0  0  0  0  0
    1.6220    0.0819   -0.5055 C   0  0  0  0  0  0  0  0  0  0  0  0
    1.5026   -0.5836    0.8251 C   0  0  0  0  0  0  0  0  0  0  0  0
    0.6712   -0.9967   -0.3164 C   0  0  0  0  0  0  0  0  0  0  0  0
   -0.7748   -0.6759   -0.4141 C   0  0  0  0  0  0  0  0  0  0  0  0
   -1.5577   -0.6915    0.8829 C   0  0  0  0  0  0  0  0  0  0  0  0
   -2.0474    0.5783    0.5402 O   0  0  0  0  0  0  0  0  0  0  0  0
   -1.1174    0.7629   -0.4582 C   0  0  0  0  0  0  0  0  0  0  0  0
   -0.2938    2.7041   -0.3605 H   0  0  0  0  0  0  0  0  0  0  0  0
    0.0934    1.6018    1.0629 H   0  0  0  0  0  0  0  0  0  0  0  0
    2.5397   -0.1418   -1.1266 H   0  0  0  0  0  0  0  0  0  0  0  0
    1.1008   -0.0511    1.7054 H   0  0  0  0  0  0  0  0  0  0  0  0
    2.3926   -1.2192    1.1089 H   0  0  0  0  0  0  0  0  0  0  0  0
    0.9392   -2.0060   -0.7486 H   0  0  0  0  0  0  0  0  0  0  0  0
   -1.3225   -1.2715   -1.1715 H   0  0  0  0  0  0  0  0  0  0  0  0
   -0.9576   -0.7312    1.8043 H   0  0  0  0  0  0  0  0  0  0  0  0
   -2.4129   -1.4176    0.8996 H   0  0  0  0  0  0  0  0  0  0  0  0
   -1.5136    1.0517   -1.4526 H   0  0  0  0  0  0  0  0  0  0  0  0
  1  2  1  0
  2  3  1  0
  3  4  1  0
  4  5  1  0
  5  6  1  0
  6  7  1  0
  7  8  1  0
  8  9  1  0
  9  1  1  0
  5  3  1  0
  9  6  1  0
  1 10  1  0
  1 11  1  0
  3 12  1  0
  4 13  1  0
  4 14  1  0
  5 15  1  0
  6 16  1  0
  7 17  1  0
  7 18  1  0
  9 19  1  0
M  END
