
     RDKit          3D

 19 21  0  0  0  0  0  0  0  0999 V2000
   -0.6063   -1.3443    0.9516 C   0  0  0  0  0  0  0  0  0  0  0  0
   -1.7608   -0.5575    0.8843 O   0  0  0  0  0  0  0  0  0  0  0  0
   -1.4850    0.7561    0.5873 C   0  0  0  0  0  0  0  0  0  0  0  0
   -0.4207    0.8945   -0.4772 C   0  0  0  0  0  0  0  0  0  0  0  0
   -0.5443   -0.3654   -1.3511 C   0  0  0  0  0  0  0  0  0  0  0  0
    0.2852   -1.0434   -0.2455 C   0  0  0  0  0  0  0  0  0  0  0  0
    0.8747    0.3051   -0.0208 C   0  0  0  0  0  0  0  0  0  0  0  0
    2.1625    0.7428   -0.1460 C   0  0  0  0  0  0  0  0  0  0  0  0
    1.4831    0.6497    1.1399 O   0  0  0  0  0  0  0  0  0  0  0  0
   -0.8556   -2.3950    1.0526 H   0  0  0  0  0  0  0  0  0  0  0  0
   -0.0690   -1.0119    1.8810 H   0  0  0  0  0  0  0  0  0  0  0  0
   -2.4131    1.2473    0.2038 H   0  0  0  0  0  0  0  0  0  0  0  0
   -1.1580    1.3509    1.4643 H   0  0  0  0  0  0  0  0  0  0  0  0
   -0.3984    1.8231   -1.0375 H   0  0  0  0  0  0  0  0  0  0  0  0
    0.0887   -0.3079   -2.2525 H   0  0  0  0  0  0  0  0  0  0  0  0
   -1.5568   -0.7485   -1.4591 H   0  0  0  0  0  0  0  0  0  0  0  0
    0.9273   -1.8492   -0.5821 H   0  0  0  0  0  0  0  0  0  0  0  0
    2.4190    1.8057   -0.3345 H   0  0  0  0  0  0  0  0  0  0  0  0
    3.0272    0.0478   -0.2584 H   0  0  0  0  0  0  0  0  0  0  0  0
  1  2  1  0
  2  3  1  0
  3  4  1  0
  4  5  1  0
  5  6  1  0
  6  7  1  0
  7  8  1  0
  8  9  1  0
  6  1  1  0
  9  7  1  0
  7  4  1  0
  1 10  1  0
  1 11  1  0
  3 12  1  0
  3 13  1  0
  4 14  1  0
  5 15  1  0
  5 16  1  0
  6 17  1  0
  8 18  1  0
  8 19  1  0
M  END
