
     RDKit          3D

 17 19  0  0  0  0  0  0  0  0999 V2000
    1.6932    0.6123   -0.6019 C   0  0  0  0  0  0  0  0  0  0  0  0
    0.8340    1.6001   -0.2328 O   0  0  0  0  0  0  0  0  0  0  0  0
   -0.1418    1.1041    0.5814 C   0  0  0  0  0  0  0  0  0  0  0  0
   -1.3865    1.2297    0.0146 O   0  0  0  0  0  0  0  0  0  0  0  0
   -1.8594    0.0140   -0.3521 C   0  0  0  0  0  0  0  0  0  0  0  0
   -0.8818   -1.0486    0.0183 C   0  0  0  0  0  0  0  0  0  0  0  0
    0.0813   -1.1887   -0.9971 O   0  0  0  0  0  0  0  0  0  0  0  0
    1.1111   -0.7167   -0.2028 C   0  0  0  0  0  0  0  0  0  0  0  0
    0.1202   -0.3342    0.8566 C   0  0  0  0  0  0  0  0  0  0  0  0
    1.9425    0.6959   -1.6612 H   0  0  0  0  0  0  0  0  0  0  0  0
    2.6604    0.7132   -0.0310 H   0  0  0  0  0  0  0  0  0  0  0  0
   -0.1845    1.6538    1.5681 H   0  0  0  0  0  0  0  0  0  0  0  0
   -1.9797   -0.0039   -1.4608 H   0  0  0  0  0  0  0  0  0  0  0  0
   -2.8842   -0.2116    0.0500 H   0  0  0  0  0  0  0  0  0  0  0  0
   -1.2565   -1.9760    0.4453 H   0  0  0  0  0  0  0  0  0  0  0  0
    1.8368   -1.4828    0.1366 H   0  0  0  0  0  0  0  0  0  0  0  0
    0.2949   -0.6607    1.8686 H   0  0  0  0  0  0  0  0  0  0  0  0
  1  2  1  0
  2  3  1  0
  3  4  1  0
  4  5  1  0
  5  6  1  0
  6  7  1  0
  7  8  1  0
  8  9  1  0
  8  1  1  0
  9  3  1  0
  9  6  1  0
  1 10  1  0
  1 11  1  0
  3 12  1  0
  5 13  1  0
  5 14  1  0
  6 15  1  0
  8 16  1  0
  9 17  1  0
M  END
