
     RDKit          3D

 19 21  0  0  0  0  0  0  0  0999 V2000
    1.5705    0.2371   -0.9167 C   0  0  0  0  0  0  0  0  0  0  0  0
    2.6642   -0.1736   -0.1212 O   0  0  0  0  0  0  0  0  0  0  0  0
    1.6986   -0.7824    0.7150 C   0  0  0  0  0  0  0  0  0  0  0  0
    0.7938    0.3662    0.3743 C   0  0  0  0  0  0  0  0  0  0  0  0
   -0.6626    0.1025    0.3053 C   0  0  0  0  0  0  0  0  0  0  0  0
   -1.2313   -1.1963   -0.1291 C   0  0  0  0  0  0  0  0  0  0  0  0
   -1.9899   -0.5036   -1.0886 O   0  0  0  0  0  0  0  0  0  0  0  0
   -1.5439    0.7546   -0.7018 C   0  0  0  0  0  0  0  0  0  0  0  0
   -1.5823    1.1514    0.7447 C   0  0  0  0  0  0  0  0  0  0  0  0
    1.2498   -0.6353   -1.5490 H   0  0  0  0  0  0  0  0  0  0  0  0
    1.7260    1.1733   -1.4593 H   0  0  0  0  0  0  0  0  0  0  0  0
    1.4236   -1.7560    0.2231 H   0  0  0  0  0  0  0  0  0  0  0  0
    2.0216   -0.8696    1.7608 H   0  0  0  0  0  0  0  0  0  0  0  0
    1.0764    1.2627    0.9203 H   0  0  0  0  0  0  0  0  0  0  0  0
   -1.9418   -1.6206    0.6242 H   0  0  0  0  0  0  0  0  0  0  0  0
   -0.5414   -1.9287   -0.5793 H   0  0  0  0  0  0  0  0  0  0  0  0
   -1.0905    1.4162   -1.4475 H   0  0  0  0  0  0  0  0  0  0  0  0
   -2.4311    0.8318    1.3826 H   0  0  0  0  0  0  0  0  0  0  0  0
   -1.2097    2.1702    0.9423 H   0  0  0  0  0  0  0  0  0  0  0  0
  1  2  1  0
  2  3  1  0
  3  4  1  0
  4  5  1  0
  5  6  1  0
  6  7  1  0
  7  8  1  0
  8  9  1  0
  4  1  1  0
  8  5  1  0
  9  5  1  0
  1 10  1  0
  1 11  1  0
  3 12  1  0
  3 13  1  0
  4 14  1  0
  6 15  1  0
  6 16  1  0
  8 17  1  0
  9 18  1  0
  9 19  1  0
M  END
