
     RDKit          3D

 14 15  0  0  0  0  0  0  0  0999 V2000
    1.4458    1.2082   -0.2809 C   0  0  0  0  0  0  0  0  0  0  0  0
    2.2967    0.2876    0.1269 O   0  0  0  0  0  0  0  0  0  0  0  0
    1.6888   -0.8172    0.4378 C   0  0  0  0  0  0  0  0  0  0  0  0
    0.3385   -0.6221    0.2233 C   0  0  0  0  0  0  0  0  0  0  0  0
    0.1826    0.6715   -0.2358 C   0  0  0  0  0  0  0  0  0  0  0  0
   -1.2893    0.8581   -0.4607 C   0  0  0  0  0  0  0  0  0  0  0  0
   -1.7191   -0.4495   -0.6980 O   0  0  0  0  0  0  0  0  0  0  0  0
   -1.0382   -1.1932    0.2677 C   0  0  0  0  0  0  0  0  0  0  0  0
    1.6783    2.2118   -0.5983 H   0  0  0  0  0  0  0  0  0  0  0  0
    2.1445   -1.7340    0.8009 H   0  0  0  0  0  0  0  0  0  0  0  0
   -1.7074    1.2991    0.4470 H   0  0  0  0  0  0  0  0  0  0  0  0
   -1.4412    1.5010   -1.3741 H   0  0  0  0  0  0  0  0  0  0  0  0
   -1.0632   -2.2733    0.0842 H   0  0  0  0  0  0  0  0  0  0  0  0
   -1.5167   -0.9478    1.2600 H   0  0  0  0  0  0  0  0  0  0  0  0
  1  2  1  0
  2  3  1  0
  3  4  2  0
  4  5  1  0
  5  6  1  0
  6  7  1  0
  7  8  1  0
  5  1  2  0
  8  4  1  0
  1  9  1  0
  3 10  1  0
  6 11  1  0
  6 12  1  0
  8 13  1  0
  8 14  1  0
M  END
