
     RDKit          3D

 17 19  0  0  0  0  0  0  0  0999 V2000
    1.7790   -0.2929    0.0529 C   0  0  0  0  0  0  0  0  0  0  0  0
    1.1959    0.2707    1.1347 O   0  0  0  0  0  0  0  0  0  0  0  0
   -0.1208    0.5918    1.0457 C   0  0  0  0  0  0  0  0  0  0  0  0
   -0.4650    1.2743   -0.2839 C   0  0  0  0  0  0  0  0  0  0  0  0
   -0.1239    0.0973   -1.2104 C   0  0  0  0  0  0  0  0  0  0  0  0
    1.2277   -0.0636   -1.1627 O   0  0  0  0  0  0  0  0  0  0  0  0
   -0.8668   -1.0279   -0.4788 C   0  0  0  0  0  0  0  0  0  0  0  0
   -2.1076   -0.5532    0.1779 O   0  0  0  0  0  0  0  0  0  0  0  0
   -0.9166   -0.7077    0.8784 C   0  0  0  0  0  0  0  0  0  0  0  0
    1.9169   -1.4074    0.1799 H   0  0  0  0  0  0  0  0  0  0  0  0
    2.8432    0.0916    0.0026 H   0  0  0  0  0  0  0  0  0  0  0  0
   -0.4373    1.1712    1.9070 H   0  0  0  0  0  0  0  0  0  0  0  0
    0.1654    2.1391   -0.4792 H   0  0  0  0  0  0  0  0  0  0  0  0
   -1.5423    1.4538   -0.2905 H   0  0  0  0  0  0  0  0  0  0  0  0
   -0.4730    0.2457   -2.2233 H   0  0  0  0  0  0  0  0  0  0  0  0
   -1.1073   -1.9447   -1.0192 H   0  0  0  0  0  0  0  0  0  0  0  0
   -0.9673   -1.3382    1.7688 H   0  0  0  0  0  0  0  0  0  0  0  0
  1  2  1  0
  2  3  1  0
  3  4  1  0
  4  5  1  0
  5  6  1  0
  5  7  1  0
  7  8  1  0
  8  9  1  0
  6  1  1  0
  9  7  1  0
  9  3  1  0
  1 10  1  0
  1 11  1  0
  3 12  1  0
  4 13  1  0
  4 14  1  0
  5 15  1  0
  7 16  1  0
  9 17  1  0
M  END
