
     RDKit          3D

 19 20  0  0  0  0  0  0  0  0999 V2000
    1.9555    0.0820   -0.0141 C   0  0  0  0  0  0  0  0  0  0  0  0
    1.1932    1.1644    0.1900 O   0  0  0  0  0  0  0  0  0  0  0  0
   -0.0439    1.0220    0.7153 C   0  0  0  0  0  0  0  0  0  0  0  0
   -1.0628    1.3115   -0.3972 C   0  0  0  0  0  0  0  0  0  0  0  0
   -0.7909    0.4897   -1.4589 O   0  0  0  0  0  0  0  0  0  0  0  0
   -0.8027   -0.8489   -1.1952 C   0  0  0  0  0  0  0  0  0  0  0  0
    0.0521   -1.2481   -0.0083 C   0  0  0  0  0  0  0  0  0  0  0  0
   -0.3588   -0.3963    1.1722 C   0  0  0  0  0  0  0  0  0  0  0  0
    1.3811   -1.1214   -0.2185 O   0  0  0  0  0  0  0  0  0  0  0  0
    2.6296    0.2888   -0.8995 H   0  0  0  0  0  0  0  0  0  0  0  0
    2.6824   -0.0175    0.8449 H   0  0  0  0  0  0  0  0  0  0  0  0
   -0.2031    1.6832    1.5861 H   0  0  0  0  0  0  0  0  0  0  0  0
   -0.8209    2.3627   -0.7247 H   0  0  0  0  0  0  0  0  0  0  0  0
   -2.0887    1.2958   -0.0319 H   0  0  0  0  0  0  0  0  0  0  0  0
   -0.3387   -1.3656   -2.0865 H   0  0  0  0  0  0  0  0  0  0  0  0
   -1.8052   -1.2751   -1.0613 H   0  0  0  0  0  0  0  0  0  0  0  0
   -0.2183   -2.3021    0.2575 H   0  0  0  0  0  0  0  0  0  0  0  0
    0.1200   -0.6686    2.1056 H   0  0  0  0  0  0  0  0  0  0  0  0
   -1.4799   -0.4566    1.2247 H   0  0  0  0  0  0  0  0  0  0  0  0
  1  2  1  0
  2  3  1  0
  3  4  1  0
  4  5  1  0
  5  6  1  0
  6  7  1  0
  7  8  1  0
  7  9  1  0
  9  1  1  0
  8  3  1  0
  1 10  1  0
  1 11  1  0
  3 12  1  0
  4 13  1  0
  4 14  1  0
  6 15  1  0
  6 16  1  0
  7 17  1  0
  8 18  1  0
  8 19  1  0
M  END
