
     RDKit          3D

 19 21  0  0  0  0  0  0  0  0999 V2000
   -0.9224    1.3023   -0.6227 C   0  0  0  0  0  0  0  0  0  0  0  0
    0.3344    1.7914   -0.4559 O   0  0  0  0  0  0  0  0  0  0  0  0
    1.1737    1.0623    0.3344 C   0  0  0  0  0  0  0  0  0  0  0  0
    1.5378   -0.2895   -0.2150 C   0  0  0  0  0  0  0  0  0  0  0  0
    0.4355   -1.1836    0.2975 C   0  0  0  0  0  0  0  0  0  0  0  0
   -0.7485   -1.1565   -0.6307 C   0  0  0  0  0  0  0  0  0  0  0  0
   -1.2455    0.0623    0.1422 C   0  0  0  0  0  0  0  0  0  0  0  0
   -0.2982   -0.2579    1.2455 C   0  0  0  0  0  0  0  0  0  0  0  0
    0.5785    0.7718    1.5578 O   0  0  0  0  0  0  0  0  0  0  0  0
   -1.7410    2.0410   -0.4213 H   0  0  0  0  0  0  0  0  0  0  0  0
   -1.0465    1.0514   -1.7169 H   0  0  0  0  0  0  0  0  0  0  0  0
    2.1093    1.6373    0.4894 H   0  0  0  0  0  0  0  0  0  0  0  0
    2.4730   -0.6167    0.2662 H   0  0  0  0  0  0  0  0  0  0  0  0
    1.5436   -0.3360   -1.3110 H   0  0  0  0  0  0  0  0  0  0  0  0
    0.7351   -2.1517    0.6937 H   0  0  0  0  0  0  0  0  0  0  0  0
   -1.4502   -1.9877   -0.5716 H   0  0  0  0  0  0  0  0  0  0  0  0
   -0.4282   -0.9661   -1.6558 H   0  0  0  0  0  0  0  0  0  0  0  0
   -2.3116   -0.0261    0.4298 H   0  0  0  0  0  0  0  0  0  0  0  0
   -0.7286   -0.7478    2.1445 H   0  0  0  0  0  0  0  0  0  0  0  0
  1  2  1  0
  2  3  1  0
  3  4  1  0
  4  5  1  0
  5  6  1  0
  6  7  1  0
  7  8  1  0
  8  9  1  0
  7  1  1  0
  9  3  1  0
  8  5  1  0
  1 10  1  0
  1 11  1  0
  3 12  1  0
  4 13  1  0
  4 14  1  0
  5 15  1  0
  6 16  1  0
  6 17  1  0
  7 18  1  0
  8 19  1  0
M  END
