
     RDKit          3D

 17 19  0  0  0  0  0  0  0  0999 V2000
    2.0407    0.9090    0.0562 C   0  0  0  0  0  0  0  0  0  0  0  0
    2.1508   -0.3571   -0.5624 O   0  0  0  0  0  0  0  0  0  0  0  0
    0.8793   -0.9172   -0.2943 C   0  0  0  0  0  0  0  0  0  0  0  0
    0.0139    0.2828   -0.2510 C   0  0  0  0  0  0  0  0  0  0  0  0
    0.8222    1.3641   -0.4951 O   0  0  0  0  0  0  0  0  0  0  0  0
   -0.9641    0.4085    0.8681 C   0  0  0  0  0  0  0  0  0  0  0  0
   -1.7389   -0.7088    0.2493 C   0  0  0  0  0  0  0  0  0  0  0  0
   -1.3276    0.2373   -0.8454 C   0  0  0  0  0  0  0  0  0  0  0  0
   -1.6840    1.2577    0.0348 O   0  0  0  0  0  0  0  0  0  0  0  0
    1.8921    0.6879    1.1359 H   0  0  0  0  0  0  0  0  0  0  0  0
    2.8773    1.5626   -0.1658 H   0  0  0  0  0  0  0  0  0  0  0  0
    0.5525   -1.5629   -1.1374 H   0  0  0  0  0  0  0  0  0  0  0  0
    0.9079   -1.5075    0.6464 H   0  0  0  0  0  0  0  0  0  0  0  0
   -0.7690    0.5529    1.8452 H   0  0  0  0  0  0  0  0  0  0  0  0
   -1.2206   -1.6637    0.3083 H   0  0  0  0  0  0  0  0  0  0  0  0
   -2.8275   -0.7215    0.4224 H   0  0  0  0  0  0  0  0  0  0  0  0
   -1.6049    0.1757   -1.8153 H   0  0  0  0  0  0  0  0  0  0  0  0
  1  2  1  0
  2  3  1  0
  3  4  1  0
  4  5  1  0
  4  6  1  0
  6  7  1  0
  7  8  1  0
  8  9  1  0
  5  1  1  0
  9  6  1  0
  8  4  1  0
  1 10  1  0
  1 11  1  0
  3 12  1  0
  3 13  1  0
  6 14  1  0
  7 15  1  0
  7 16  1  0
  8 17  1  0
M  END
