
     RDKit          3D

 19 22  0  0  0  0  0  0  0  0999 V2000
    1.6428    0.1076    0.6030 C   0  0  0  0  0  0  0  0  0  0  0  0
    1.3524    1.3667    0.2280 O   0  0  0  0  0  0  0  0  0  0  0  0
    0.0711    1.6518   -0.1307 C   0  0  0  0  0  0  0  0  0  0  0  0
   -1.1187    0.9265    0.2888 C   0  0  0  0  0  0  0  0  0  0  0  0
   -1.1325   -0.4096    0.9192 C   0  0  0  0  0  0  0  0  0  0  0  0
   -0.3815   -1.3695    0.0225 C   0  0  0  0  0  0  0  0  0  0  0  0
    1.0526   -0.9914   -0.2083 C   0  0  0  0  0  0  0  0  0  0  0  0
    0.0276   -0.6319   -1.1750 C   0  0  0  0  0  0  0  0  0  0  0  0
   -0.5663    0.7204   -1.0585 C   0  0  0  0  0  0  0  0  0  0  0  0
    1.3772   -0.0906    1.6801 H   0  0  0  0  0  0  0  0  0  0  0  0
    2.7636   -0.0201    0.5789 H   0  0  0  0  0  0  0  0  0  0  0  0
   -0.0802    2.7459   -0.3597 H   0  0  0  0  0  0  0  0  0  0  0  0
   -2.0899    1.4889    0.3714 H   0  0  0  0  0  0  0  0  0  0  0  0
   -0.7396   -0.4269    1.9681 H   0  0  0  0  0  0  0  0  0  0  0  0
   -2.1713   -0.7958    0.9884 H   0  0  0  0  0  0  0  0  0  0  0  0
   -0.7167   -2.4077   -0.0851 H   0  0  0  0  0  0  0  0  0  0  0  0
    1.7019   -1.8623   -0.4699 H   0  0  0  0  0  0  0  0  0  0  0  0
    0.0455   -1.1159   -2.1897 H   0  0  0  0  0  0  0  0  0  0  0  0
   -1.0380    1.1138   -1.9715 H   0  0  0  0  0  0  0  0  0  0  0  0
  1  2  1  0
  2  3  1  0
  3  4  1  0
  4  5  1  0
  5  6  1  0
  6  7  1  0
  7  8  1  0
  8  9  1  0
  7  1  1  0
  9  3  1  0
  9  4  1  0
  8  6  1  0
  1 10  1  0
  1 11  1  0
  3 12  1  0
  4 13  1  0
  5 14  1  0
  5 15  1  0
  6 16  1  0
  7 17  1  0
  8 18  1  0
  9 19  1  0
M  END
