
     RDKit          2D

 17 20  0  0  0  0  0  0  0  0999 V2000
   -1.7416    1.3365    0.0000 C   0  0  0  0  0  0  0  0  0  0  0  0
   -3.2232    1.1019    0.0000 O   0  0  0  0  0  0  0  0  0  0  0  0
   -3.4578   -0.3797    0.0000 C   0  0  0  0  0  0  0  0  0  0  0  0
   -1.0607   -2.1213    0.0000 C   0  0  0  0  0  0  0  0  0  0  0  0
   -0.0000   -1.0607    0.0000 C   0  0  0  0  0  0  0  0  0  0  0  0
    1.0607    0.0000    0.0000 O   0  0  0  0  0  0  0  0  0  0  0  0
    0.0000    1.0607    0.0000 C   0  0  0  0  0  0  0  0  0  0  0  0
   -1.0607    0.0000    0.0000 C   0  0  0  0  0  0  0  0  0  0  0  0
   -2.1213   -1.0607    0.0000 C   0  0  0  0  0  0  0  0  0  0  0  0
   -2.1299    2.7854    0.0000 H   0  0  0  0  0  0  0  0  0  0  0  0
   -1.0378    1.7108    0.0000 H   0  0  0  0  0  0  0  0  0  0  0  0
   -4.7943   -1.0607    0.0000 H   0  0  0  0  0  0  0  0  0  0  0  0
   -1.0607   -3.6213    0.0000 H   0  0  0  0  0  0  0  0  0  0  0  0
    1.0607   -2.1213    0.0000 H   0  0  0  0  0  0  0  0  0  0  0  0
   -0.4908    1.6888    0.0000 H   0  0  0  0  0  0  0  0  0  0  0  0
    1.0607    2.1213    0.0000 H   0  0  0  0  0  0  0  0  0  0  0  0
   -3.0030   -2.2742    0.0000 H   0  0  0  0  0  0  0  0  0  0  0  0
  1  2  1  0
  2  3  1  0
  3  4  1  0
  4  5  1  0
  5  6  1  0
  6  7  1  0
  7  8  1  0
  8  9  1  0
  8  1  1  0
  9  3  1  0
  9  4  1  0
  8  5  1  0
  1 10  1  0
  1 11  1  0
  3 12  1  0
  4 13  1  0
  5 14  1  0
  7 15  1  0
  7 16  1  0
  9 17  1  0
M  END
