
     RDKit          3D

 19 21  0  0  0  0  0  0  0  0999 V2000
    1.8619   -0.1660    0.2200 C   0  0  0  0  0  0  0  0  0  0  0  0
    1.6609    1.1460   -0.1935 O   0  0  0  0  0  0  0  0  0  0  0  0
    0.3494    1.2545   -0.6433 C   0  0  0  0  0  0  0  0  0  0  0  0
    0.1639   -0.1153   -1.3290 C   0  0  0  0  0  0  0  0  0  0  0  0
    0.5488   -0.9013   -0.0640 C   0  0  0  0  0  0  0  0  0  0  0  0
   -0.4555   -0.3819    0.9056 C   0  0  0  0  0  0  0  0  0  0  0  0
   -1.8904   -0.5564    0.5156 C   0  0  0  0  0  0  0  0  0  0  0  0
   -1.9147    0.7659    0.1152 O   0  0  0  0  0  0  0  0  0  0  0  0
   -0.5980    1.0958    0.4988 C   0  0  0  0  0  0  0  0  0  0  0  0
    2.1432   -0.2574    1.2790 H   0  0  0  0  0  0  0  0  0  0  0  0
    2.6175   -0.6810   -0.4450 H   0  0  0  0  0  0  0  0  0  0  0  0
    0.1714    2.0697   -1.3157 H   0  0  0  0  0  0  0  0  0  0  0  0
   -0.8734   -0.2776   -1.6155 H   0  0  0  0  0  0  0  0  0  0  0  0
    0.9075   -0.2173   -2.1181 H   0  0  0  0  0  0  0  0  0  0  0  0
    0.6346   -1.9489   -0.2007 H   0  0  0  0  0  0  0  0  0  0  0  0
   -0.2156   -0.4912    1.9813 H   0  0  0  0  0  0  0  0  0  0  0  0
   -2.5642   -0.8167    1.3605 H   0  0  0  0  0  0  0  0  0  0  0  0
   -2.0189   -1.3155   -0.2815 H   0  0  0  0  0  0  0  0  0  0  0  0
   -0.5286    1.7944    1.3302 H   0  0  0  0  0  0  0  0  0  0  0  0
  1  2  1  0
  2  3  1  0
  3  4  1  0
  4  5  1  0
  5  6  1  0
  6  7  1  0
  7  8  1  0
  8  9  1  0
  5  1  1  0
  9  6  1  0
  9  3  1  0
  1 10  1  0
  1 11  1  0
  3 12  1  0
  4 13  1  0
  4 14  1  0
  5 15  1  0
  6 16  1  0
  7 17  1  0
  7 18  1  0
  9 19  1  0
M  END
