
     RDKit          3D

 17 19  0  0  0  0  0  0  0  0999 V2000
   -2.2940    0.7126    0.1262 C   0  0  0  0  0  0  0  0  0  0  0  0
   -1.8143    0.2386   -1.0756 O   0  0  0  0  0  0  0  0  0  0  0  0
   -0.9496   -0.8020   -0.6605 C   0  0  0  0  0  0  0  0  0  0  0  0
   -0.2357   -0.0617    0.4799 C   0  0  0  0  0  0  0  0  0  0  0  0
   -1.3086    0.5720    1.0786 O   0  0  0  0  0  0  0  0  0  0  0  0
    0.9568    0.6431    0.0957 C   0  0  0  0  0  0  0  0  0  0  0  0
    2.3811    0.0662    0.1566 C   0  0  0  0  0  0  0  0  0  0  0  0
    2.0751    0.0730    1.5449 O   0  0  0  0  0  0  0  0  0  0  0  0
    0.9221   -0.5723    1.1102 C   0  0  0  0  0  0  0  0  0  0  0  0
   -2.6081    1.7639   -0.0301 H   0  0  0  0  0  0  0  0  0  0  0  0
   -3.1951    0.1019    0.3839 H   0  0  0  0  0  0  0  0  0  0  0  0
   -0.2702   -1.0747   -1.4653 H   0  0  0  0  0  0  0  0  0  0  0  0
   -1.5263   -1.6537   -0.2811 H   0  0  0  0  0  0  0  0  0  0  0  0
    1.0242    1.6572    0.6076 H   0  0  0  0  0  0  0  0  0  0  0  0
    3.1383    0.8030   -0.1416 H   0  0  0  0  0  0  0  0  0  0  0  0
    2.4433   -0.9077   -0.3158 H   0  0  0  0  0  0  0  0  0  0  0  0
    1.2611   -1.5595    0.6589 H   0  0  0  0  0  0  0  0  0  0  0  0
  1  2  1  0
  2  3  1  0
  3  4  1  0
  4  5  1  0
  4  6  1  0
  6  7  1  0
  7  8  1  0
  8  9  1  0
  5  1  1  0
  9  6  1  0
  9  4  1  0
  1 10  1  0
  1 11  1  0
  3 12  1  0
  3 13  1  0
  6 14  1  0
  7 15  1  0
  7 16  1  0
  9 17  1  0
M  END
