
     RDKit          3D

 19 21  0  0  0  0  0  0  0  0999 V2000
   -1.5100   -0.0822    0.3353 C   0  0  0  0  0  0  0  0  0  0  0  0
   -1.0427    1.0406    0.8622 O   0  0  0  0  0  0  0  0  0  0  0  0
   -0.0156    1.7210    0.2821 C   0  0  0  0  0  0  0  0  0  0  0  0
    1.2198    0.9698    0.5259 C   0  0  0  0  0  0  0  0  0  0  0  0
    2.2132    0.6127   -0.2730 O   0  0  0  0  0  0  0  0  0  0  0  0
    1.2638   -0.2657   -0.3495 C   0  0  0  0  0  0  0  0  0  0  0  0
    0.2054   -0.4165   -1.3484 C   0  0  0  0  0  0  0  0  0  0  0  0
   -0.6218   -1.0782   -0.2668 C   0  0  0  0  0  0  0  0  0  0  0  0
    0.6926   -1.3137    0.4634 C   0  0  0  0  0  0  0  0  0  0  0  0
   -2.2871    0.1796   -0.4448 H   0  0  0  0  0  0  0  0  0  0  0  0
   -2.1262   -0.6120    1.1256 H   0  0  0  0  0  0  0  0  0  0  0  0
   -0.1875    2.0796   -0.7433 H   0  0  0  0  0  0  0  0  0  0  0  0
    0.0725    2.6857    0.8820 H   0  0  0  0  0  0  0  0  0  0  0  0
    1.4287    0.8201    1.6314 H   0  0  0  0  0  0  0  0  0  0  0  0
   -0.2271    0.4070   -1.8859 H   0  0  0  0  0  0  0  0  0  0  0  0
    0.5026   -1.2171   -2.0893 H   0  0  0  0  0  0  0  0  0  0  0  0
   -1.1364   -1.9888   -0.5717 H   0  0  0  0  0  0  0  0  0  0  0  0
    1.0288   -2.3762    0.3158 H   0  0  0  0  0  0  0  0  0  0  0  0
    0.5269   -1.1658    1.5491 H   0  0  0  0  0  0  0  0  0  0  0  0
  1  2  1  0
  2  3  1  0
  3  4  1  0
  4  5  1  0
  5  6  1  0
  6  7  1  0
  7  8  1  0
  8  9  1  0
  8  1  1  0
  6  4  1  0
  9  6  1  0
  1 10  1  0
  1 11  1  0
  3 12  1  0
  3 13  1  0
  4 14  1  0
  7 15  1  0
  7 16  1  0
  8 17  1  0
  9 18  1  0
  9 19  1  0
M  END
