
     RDKit          3D

 19 21  0  0  0  0  0  0  0  0999 V2000
   -1.5465   -1.0977    0.1042 C   0  0  0  0  0  0  0  0  0  0  0  0
   -1.0688   -1.1816   -1.2072 O   0  0  0  0  0  0  0  0  0  0  0  0
   -0.0676   -0.2211   -1.3564 C   0  0  0  0  0  0  0  0  0  0  0  0
   -0.6522    1.0622   -1.3439 O   0  0  0  0  0  0  0  0  0  0  0  0
   -1.1454    1.2650   -0.0468 C   0  0  0  0  0  0  0  0  0  0  0  0
   -0.7103    0.0126    0.7322 C   0  0  0  0  0  0  0  0  0  0  0  0
    0.5699   -0.2145    0.0049 C   0  0  0  0  0  0  0  0  0  0  0  0
    1.7061    0.7395    0.2668 C   0  0  0  0  0  0  0  0  0  0  0  0
    1.7841   -0.7597    0.4241 C   0  0  0  0  0  0  0  0  0  0  0  0
   -2.6218   -0.7783    0.0950 H   0  0  0  0  0  0  0  0  0  0  0  0
   -1.3901   -2.0690    0.5905 H   0  0  0  0  0  0  0  0  0  0  0  0
    0.6200   -0.3885   -2.1506 H   0  0  0  0  0  0  0  0  0  0  0  0
   -2.2437    1.3523   -0.0648 H   0  0  0  0  0  0  0  0  0  0  0  0
   -0.6391    2.1096    0.4607 H   0  0  0  0  0  0  0  0  0  0  0  0
   -0.7185    0.0904    1.7774 H   0  0  0  0  0  0  0  0  0  0  0  0
    1.6630    1.3384    1.2037 H   0  0  0  0  0  0  0  0  0  0  0  0
    2.1201    1.2174   -0.6480 H   0  0  0  0  0  0  0  0  0  0  0  0
    2.4178   -1.3467   -0.3003 H   0  0  0  0  0  0  0  0  0  0  0  0
    1.9231   -1.1301    1.4586 H   0  0  0  0  0  0  0  0  0  0  0  0
  1  2  1  0
  2  3  1  0
  3  4  1  0
  4  5  1  0
  5  6  1  0
  6  7  1  0
  7  8  1  0
  8  9  1  0
  6  1  1  0
  9  7  1  0
  7  3  1  0
  1 10  1  0
  1 11  1  0
  3 12  1  0
  5 13  1  0
  5 14  1  0
  6 15  1  0
  8 16  1  0
  8 17  1  0
  9 18  1  0
  9 19  1  0
M  END
