
     RDKit          3D

 19 21  0  0  0  0  0  0  0  0999 V2000
    1.7788   -0.7266    0.4961 C   0  0  0  0  0  0  0  0  0  0  0  0
    2.1774    0.6127    0.6595 O   0  0  0  0  0  0  0  0  0  0  0  0
    1.9183    0.7647   -0.7230 C   0  0  0  0  0  0  0  0  0  0  0  0
    0.7741   -0.2239   -0.5241 C   0  0  0  0  0  0  0  0  0  0  0  0
   -0.4067    0.4724    0.0888 C   0  0  0  0  0  0  0  0  0  0  0  0
   -1.2163   -0.4053    1.0376 C   0  0  0  0  0  0  0  0  0  0  0  0
   -2.4854   -0.0993    0.3151 C   0  0  0  0  0  0  0  0  0  0  0  0
   -2.7159    1.1551   -0.2245 O   0  0  0  0  0  0  0  0  0  0  0  0
   -1.6336    0.5397   -0.7896 C   0  0  0  0  0  0  0  0  0  0  0  0
    2.5965   -1.2954    0.0000 H   0  0  0  0  0  0  0  0  0  0  0  0
    1.3716   -1.1412    1.4148 H   0  0  0  0  0  0  0  0  0  0  0  0
    1.6135    1.7987   -0.9143 H   0  0  0  0  0  0  0  0  0  0  0  0
    2.7819    0.3723   -1.2781 H   0  0  0  0  0  0  0  0  0  0  0  0
    0.5806   -0.8981   -1.3572 H   0  0  0  0  0  0  0  0  0  0  0  0
   -0.1876    1.4874    0.4883 H   0  0  0  0  0  0  0  0  0  0  0  0
   -1.1492   -0.0484    2.0948 H   0  0  0  0  0  0  0  0  0  0  0  0
   -0.9063   -1.4747    0.8952 H   0  0  0  0  0  0  0  0  0  0  0  0
   -3.2073   -0.8727    0.0482 H   0  0  0  0  0  0  0  0  0  0  0  0
   -1.6846   -0.0173   -1.7277 H   0  0  0  0  0  0  0  0  0  0  0  0
  1  2  1  0
  2  3  1  0
  3  4  1  0
  4  5  1  0
  5  6  1  0
  6  7  1  0
  7  8  1  0
  8  9  1  0
  4  1  1  0
  9  5  1  0
  9  7  1  0
  1 10  1  0
  1 11  1  0
  3 12  1  0
  3 13  1  0
  4 14  1  0
  5 15  1  0
  6 16  1  0
  6 17  1  0
  7 18  1  0
  9 19  1  0
M  END
