
     RDKit          3D

 18 20  0  0  0  0  0  0  0  0999 V2000
    1.4981   -0.5592   -0.3728 C   0  0  0  0  0  0  0  0  0  0  0  0
    0.5277   -1.4003   -0.8523 O   0  0  0  0  0  0  0  0  0  0  0  0
   -0.6746   -1.0943   -0.2519 C   0  0  0  0  0  0  0  0  0  0  0  0
   -1.1909    0.1466   -0.9956 C   0  0  0  0  0  0  0  0  0  0  0  0
   -0.2960    1.2057   -0.4176 C   0  0  0  0  0  0  0  0  0  0  0  0
    1.0814    0.8489   -0.1825 C   0  0  0  0  0  0  0  0  0  0  0  0
    0.0386    0.8295    0.9548 C   0  0  0  0  0  0  0  0  0  0  0  0
   -0.5221   -0.5427    1.1411 C   0  0  0  0  0  0  0  0  0  0  0  0
    2.4515   -0.6283   -0.9737 H   0  0  0  0  0  0  0  0  0  0  0  0
    1.7998   -0.9618    0.6397 H   0  0  0  0  0  0  0  0  0  0  0  0
   -1.4021   -1.9048   -0.2433 H   0  0  0  0  0  0  0  0  0  0  0  0
   -2.2546    0.2689   -0.6951 H   0  0  0  0  0  0  0  0  0  0  0  0
   -1.0626    0.0143   -2.0741 H   0  0  0  0  0  0  0  0  0  0  0  0
   -0.5470    2.2556   -0.6111 H   0  0  0  0  0  0  0  0  0  0  0  0
    1.8498    1.6300   -0.1533 H   0  0  0  0  0  0  0  0  0  0  0  0
    0.2029    1.5112    1.7794 H   0  0  0  0  0  0  0  0  0  0  0  0
    0.0687   -1.2040    1.7681 H   0  0  0  0  0  0  0  0  0  0  0  0
   -1.5687   -0.4151    1.5402 H   0  0  0  0  0  0  0  0  0  0  0  0
  1  2  1  0
  2  3  1  0
  3  4  1  0
  4  5  1  0
  5  6  1  0
  6  7  1  0
  7  8  1  0
  6  1  1  0
  8  3  1  0
  7  5  1  0
  1  9  1  0
  1 10  1  0
  3 11  1  0
  4 12  1  0
  4 13  1  0
  5 14  1  0
  6 15  1  0
  7 16  1  0
  8 17  1  0
  8 18  1  0
M  END
