
     RDKit          3D

 21 23  0  0  0  0  0  0  0  0999 V2000
    2.9738    0.1468   -0.0591 C   0  0  0  0  0  0  0  0  0  0  0  0
    3.0870   -0.8875    0.8915 O   0  0  0  0  0  0  0  0  0  0  0  0
    1.9653   -0.8546   -0.0696 C   0  0  0  0  0  0  0  0  0  0  0  0
    0.6493   -0.7889    0.6165 C   0  0  0  0  0  0  0  0  0  0  0  0
   -0.2128    0.3416    0.1775 C   0  0  0  0  0  0  0  0  0  0  0  0
   -1.5468    0.5400    0.7745 C   0  0  0  0  0  0  0  0  0  0  0  0
   -1.8478    1.3452   -0.4795 C   0  0  0  0  0  0  0  0  0  0  0  0
   -1.1255    0.0999   -0.9742 C   0  0  0  0  0  0  0  0  0  0  0  0
   -2.0300   -0.6144   -0.0422 C   0  0  0  0  0  0  0  0  0  0  0  0
    3.7713    0.1146   -0.8266 H   0  0  0  0  0  0  0  0  0  0  0  0
    2.8737    1.1450    0.4201 H   0  0  0  0  0  0  0  0  0  0  0  0
    2.0869   -1.7003   -0.7772 H   0  0  0  0  0  0  0  0  0  0  0  0
    0.1155   -1.7399    0.4194 H   0  0  0  0  0  0  0  0  0  0  0  0
    0.8255   -0.7354    1.7333 H   0  0  0  0  0  0  0  0  0  0  0  0
    0.3215    1.3257    0.0762 H   0  0  0  0  0  0  0  0  0  0  0  0
   -1.8075    0.7901    1.7051 H   0  0  0  0  0  0  0  0  0  0  0  0
   -1.3176    2.2879   -0.5901 H   0  0  0  0  0  0  0  0  0  0  0  0
   -2.9364    1.3268   -0.6730 H   0  0  0  0  0  0  0  0  0  0  0  0
   -0.8985   -0.1003   -1.9241 H   0  0  0  0  0  0  0  0  0  0  0  0
   -3.1204   -0.4170   -0.2954 H   0  0  0  0  0  0  0  0  0  0  0  0
   -1.8266   -1.6253    0.2792 H   0  0  0  0  0  0  0  0  0  0  0  0
  1  2  1  0
  2  3  1  0
  3  4  1  0
  4  5  1  0
  5  6  1  0
  6  7  1  0
  7  8  1  0
  8  9  1  0
  3  1  1  0
  8  5  1  0
  9  6  1  0
  1 10  1  0
  1 11  1  0
  3 12  1  0
  4 13  1  0
  4 14  1  0
  5 15  1  0
  6 16  1  0
  7 17  1  0
  7 18  1  0
  8 19  1  0
  9 20  1  0
  9 21  1  0
M  END
