
     RDKit          3D

 15 18  0  0  0  0  0  0  0  0999 V2000
   -1.3186   -0.9126   -0.3011 C   0  0  0  0  0  0  0  0  0  0  0  0
   -1.8478    0.2693    0.1139 O   0  0  0  0  0  0  0  0  0  0  0  0
   -0.8805    1.2115    0.2571 C   0  0  0  0  0  0  0  0  0  0  0  0
    0.3339    0.8202   -0.5098 C   0  0  0  0  0  0  0  0  0  0  0  0
    0.2780    0.2046   -1.7253 O   0  0  0  0  0  0  0  0  0  0  0  0
    0.1287   -0.6937   -0.6666 C   0  0  0  0  0  0  0  0  0  0  0  0
    1.2137   -0.8963    0.3215 C   0  0  0  0  0  0  0  0  0  0  0  0
    1.2866   -0.1669    1.4909 O   0  0  0  0  0  0  0  0  0  0  0  0
    1.5547    0.4924    0.3196 C   0  0  0  0  0  0  0  0  0  0  0  0
   -1.8391   -1.1954   -1.2644 H   0  0  0  0  0  0  0  0  0  0  0  0
   -1.4705   -1.7710    0.3707 H   0  0  0  0  0  0  0  0  0  0  0  0
   -0.6505    1.3193    1.3416 H   0  0  0  0  0  0  0  0  0  0  0  0
   -1.2176    2.2222   -0.0736 H   0  0  0  0  0  0  0  0  0  0  0  0
    1.8921   -1.7570    0.2799 H   0  0  0  0  0  0  0  0  0  0  0  0
    2.5370    0.8534    0.0454 H   0  0  0  0  0  0  0  0  0  0  0  0
  1  2  1  0
  2  3  1  0
  3  4  1  0
  4  5  1  0
  5  6  1  0
  6  7  1  0
  7  8  1  0
  8  9  1  0
  6  1  1  0
  9  7  1  0
  6  4  1  0
  9  4  1  0
  1 10  1  0
  1 11  1  0
  3 12  1  0
  3 13  1  0
  7 14  1  0
  9 15  1  0
M  END
