
     RDKit          3D

 19 21  0  0  0  0  0  0  0  0999 V2000
   -2.9343   -0.2013    0.1628 C   0  0  0  0  0  0  0  0  0  0  0  0
   -2.1981    0.7085   -0.7805 O   0  0  0  0  0  0  0  0  0  0  0  0
   -1.9286    0.7652    0.6084 C   0  0  0  0  0  0  0  0  0  0  0  0
   -0.5806    0.3307    1.0808 C   0  0  0  0  0  0  0  0  0  0  0  0
    0.1913   -0.4344   -0.0091 C   0  0  0  0  0  0  0  0  0  0  0  0
    1.5053   -0.8850    0.3797 C   0  0  0  0  0  0  0  0  0  0  0  0
    2.8099   -0.1003    0.1632 C   0  0  0  0  0  0  0  0  0  0  0  0
    2.4450   -0.3243   -1.1946 O   0  0  0  0  0  0  0  0  0  0  0  0
    1.2323    0.1917   -0.7493 C   0  0  0  0  0  0  0  0  0  0  0  0
   -4.0137    0.0895    0.2016 H   0  0  0  0  0  0  0  0  0  0  0  0
   -2.6495   -1.2244   -0.1135 H   0  0  0  0  0  0  0  0  0  0  0  0
   -2.3103    1.7196    1.0608 H   0  0  0  0  0  0  0  0  0  0  0  0
   -0.6378   -0.3592    1.9668 H   0  0  0  0  0  0  0  0  0  0  0  0
    0.0142    1.2006    1.4212 H   0  0  0  0  0  0  0  0  0  0  0  0
   -0.5424   -1.0663   -0.5972 H   0  0  0  0  0  0  0  0  0  0  0  0
    1.7060   -1.9289   -0.0271 H   0  0  0  0  0  0  0  0  0  0  0  0
    2.7765    0.9337    0.4973 H   0  0  0  0  0  0  0  0  0  0  0  0
    3.6877   -0.6765    0.4900 H   0  0  0  0  0  0  0  0  0  0  0  0
    1.4273    1.2610   -0.4226 H   0  0  0  0  0  0  0  0  0  0  0  0
  1  2  1  0
  2  3  1  0
  3  4  1  0
  4  5  1  0
  5  6  1  0
  6  7  1  0
  7  8  1  0
  8  9  1  0
  3  1  1  0
  9  5  1  0
  9  6  1  0
  1 10  1  0
  1 11  1  0
  3 12  1  0
  4 13  1  0
  4 14  1  0
  5 15  1  0
  6 16  1  0
  7 17  1  0
  7 18  1  0
  9 19  1  0
M  END
