
     RDKit          3D

 19 21  0  0  0  0  0  0  0  0999 V2000
    1.6527   -0.2822    0.4930 C   0  0  0  0  0  0  0  0  0  0  0  0
    0.6306   -0.0435    1.4462 O   0  0  0  0  0  0  0  0  0  0  0  0
   -0.4150    0.7135    0.8564 C   0  0  0  0  0  0  0  0  0  0  0  0
    0.4232    1.7123    0.0177 C   0  0  0  0  0  0  0  0  0  0  0  0
    0.6912    0.9389   -1.1412 O   0  0  0  0  0  0  0  0  0  0  0  0
    0.7966   -0.4320   -0.7970 C   0  0  0  0  0  0  0  0  0  0  0  0
   -0.3696   -1.1988   -0.4812 C   0  0  0  0  0  0  0  0  0  0  0  0
   -1.7951   -1.2258   -0.3409 C   0  0  0  0  0  0  0  0  0  0  0  0
   -1.2759    0.0305   -0.0899 C   0  0  0  0  0  0  0  0  0  0  0  0
    1.9976   -1.3180    0.7032 H   0  0  0  0  0  0  0  0  0  0  0  0
    2.4162    0.4555    0.4257 H   0  0  0  0  0  0  0  0  0  0  0  0
   -0.9478    1.3116    1.5996 H   0  0  0  0  0  0  0  0  0  0  0  0
   -0.2478    2.5687   -0.2751 H   0  0  0  0  0  0  0  0  0  0  0  0
    1.2665    2.1142    0.5248 H   0  0  0  0  0  0  0  0  0  0  0  0
    1.4855   -0.9054   -1.5309 H   0  0  0  0  0  0  0  0  0  0  0  0
   -0.0689   -1.9477    0.3177 H   0  0  0  0  0  0  0  0  0  0  0  0
   -2.3894   -1.6394    0.5324 H   0  0  0  0  0  0  0  0  0  0  0  0
   -2.3496   -1.5416   -1.2570 H   0  0  0  0  0  0  0  0  0  0  0  0
   -1.5011    0.6890   -1.0034 H   0  0  0  0  0  0  0  0  0  0  0  0
  1  2  1  0
  2  3  1  0
  3  4  1  0
  4  5  1  0
  5  6  1  0
  6  7  1  0
  7  8  1  0
  8  9  1  0
  6  1  1  0
  9  7  1  0
  9  3  1  0
  1 10  1  0
  1 11  1  0
  3 12  1  0
  4 13  1  0
  4 14  1  0
  6 15  1  0
  7 16  1  0
  8 17  1  0
  8 18  1  0
  9 19  1  0
M  END
