
     RDKit          3D

 19 21  0  0  0  0  0  0  0  0999 V2000
   -0.8055    1.2834   -0.4403 C   0  0  0  0  0  0  0  0  0  0  0  0
    0.0335    0.8210   -1.4324 O   0  0  0  0  0  0  0  0  0  0  0  0
    1.1185    0.1082   -0.9753 C   0  0  0  0  0  0  0  0  0  0  0  0
    1.5582    0.5982    0.4114 C   0  0  0  0  0  0  0  0  0  0  0  0
    0.4787   -0.3035    0.9670 C   0  0  0  0  0  0  0  0  0  0  0  0
   -0.8953    0.2235    0.6634 C   0  0  0  0  0  0  0  0  0  0  0  0
   -1.5249   -0.9926   -0.0184 C   0  0  0  0  0  0  0  0  0  0  0  0
   -0.5152   -1.6809   -0.6338 O   0  0  0  0  0  0  0  0  0  0  0  0
    0.6963   -1.1842   -0.2590 C   0  0  0  0  0  0  0  0  0  0  0  0
   -0.5599    2.2727   -0.0485 H   0  0  0  0  0  0  0  0  0  0  0  0
   -1.8399    1.3076   -0.8882 H   0  0  0  0  0  0  0  0  0  0  0  0
    1.9161   -0.0059   -1.7018 H   0  0  0  0  0  0  0  0  0  0  0  0
    2.5639    0.2108    0.6081 H   0  0  0  0  0  0  0  0  0  0  0  0
    1.3925    1.6591    0.5983 H   0  0  0  0  0  0  0  0  0  0  0  0
    0.6532   -0.7605    1.9273 H   0  0  0  0  0  0  0  0  0  0  0  0
   -1.4579    0.5683    1.5241 H   0  0  0  0  0  0  0  0  0  0  0  0
   -2.1171   -1.5980    0.6944 H   0  0  0  0  0  0  0  0  0  0  0  0
   -2.2414   -0.6612   -0.8131 H   0  0  0  0  0  0  0  0  0  0  0  0
    1.5461   -1.8659   -0.1832 H   0  0  0  0  0  0  0  0  0  0  0  0
  1  2  1  0
  2  3  1  0
  3  4  1  0
  4  5  1  0
  5  6  1  0
  6  7  1  0
  7  8  1  0
  8  9  1  0
  6  1  1  0
  9  3  1  0
  9  5  1  0
  1 10  1  0
  1 11  1  0
  3 12  1  0
  4 13  1  0
  4 14  1  0
  5 15  1  0
  6 16  1  0
  7 17  1  0
  7 18  1  0
  9 19  1  0
M  END
