
     RDKit          3D

 19 21  0  0  0  0  0  0  0  0999 V2000
    1.3222   -1.1213   -0.6201 C   0  0  0  0  0  0  0  0  0  0  0  0
    1.6245    0.2188   -0.7815 O   0  0  0  0  0  0  0  0  0  0  0  0
    1.1749    1.0333    0.2178 C   0  0  0  0  0  0  0  0  0  0  0  0
   -0.2237    1.4974    0.1047 C   0  0  0  0  0  0  0  0  0  0  0  0
   -1.2188    0.5506    0.6668 C   0  0  0  0  0  0  0  0  0  0  0  0
   -0.7106   -0.8575    0.8330 C   0  0  0  0  0  0  0  0  0  0  0  0
   -0.1885   -1.2212   -0.5119 C   0  0  0  0  0  0  0  0  0  0  0  0
   -0.6810   -0.3082   -1.4339 O   0  0  0  0  0  0  0  0  0  0  0  0
   -1.1214    0.7936   -0.7827 C   0  0  0  0  0  0  0  0  0  0  0  0
    1.8569   -1.6263    0.1736 H   0  0  0  0  0  0  0  0  0  0  0  0
    1.5886   -1.6369   -1.5811 H   0  0  0  0  0  0  0  0  0  0  0  0
    1.8339    1.9514    0.2540 H   0  0  0  0  0  0  0  0  0  0  0  0
    1.3052    0.5780    1.2411 H   0  0  0  0  0  0  0  0  0  0  0  0
   -0.4602    2.5797    0.3077 H   0  0  0  0  0  0  0  0  0  0  0  0
   -2.0573    0.9006    1.2873 H   0  0  0  0  0  0  0  0  0  0  0  0
    0.0077   -0.9414    1.6542 H   0  0  0  0  0  0  0  0  0  0  0  0
   -1.5959   -1.4913    1.0686 H   0  0  0  0  0  0  0  0  0  0  0  0
   -0.5123   -2.2482   -0.8144 H   0  0  0  0  0  0  0  0  0  0  0  0
   -1.9442    1.3488   -1.2831 H   0  0  0  0  0  0  0  0  0  0  0  0
  1  2  1  0
  2  3  1  0
  3  4  1  0
  4  5  1  0
  5  6  1  0
  6  7  1  0
  7  8  1  0
  8  9  1  0
  7  1  1  0
  9  4  1  0
  9  5  1  0
  1 10  1  0
  1 11  1  0
  3 12  1  0
  3 13  1  0
  4 14  1  0
  5 15  1  0
  6 16  1  0
  6 17  1  0
  7 18  1  0
  9 19  1  0
M  END
