
     RDKit          3D

 16 18  0  0  0  0  0  0  0  0999 V2000
    1.9292   -0.3342    0.0448 C   0  0  0  0  0  0  0  0  0  0  0  0
    1.3293    0.6331    0.7931 O   0  0  0  0  0  0  0  0  0  0  0  0
    0.0178    0.7724    0.3730 C   0  0  0  0  0  0  0  0  0  0  0  0
   -0.9789   -0.0272    1.1434 C   0  0  0  0  0  0  0  0  0  0  0  0
   -1.4296   -0.7979   -0.0730 C   0  0  0  0  0  0  0  0  0  0  0  0
   -0.1564   -0.2819   -0.7560 C   0  0  0  0  0  0  0  0  0  0  0  0
   -0.1881    1.1798   -1.0237 C   0  0  0  0  0  0  0  0  0  0  0  0
    0.9917   -1.0075   -0.6877 O   0  0  0  0  0  0  0  0  0  0  0  0
    2.6595    0.1205   -0.6636 H   0  0  0  0  0  0  0  0  0  0  0  0
    2.4421   -1.0745    0.7087 H   0  0  0  0  0  0  0  0  0  0  0  0
   -1.7648    0.5300    1.6821 H   0  0  0  0  0  0  0  0  0  0  0  0
   -0.5251   -0.7600    1.8732 H   0  0  0  0  0  0  0  0  0  0  0  0
   -2.3293   -0.2794   -0.5063 H   0  0  0  0  0  0  0  0  0  0  0  0
   -1.4951   -1.8792    0.0203 H   0  0  0  0  0  0  0  0  0  0  0  0
   -1.1683    1.5580   -1.3955 H   0  0  0  0  0  0  0  0  0  0  0  0
    0.6658    1.6480   -1.5327 H   0  0  0  0  0  0  0  0  0  0  0  0
  1  2  1  0
  2  3  1  0
  3  4  1  0
  4  5  1  0
  5  6  1  0
  6  7  1  0
  6  8  1  0
  8  1  1  0
  6  3  1  0
  7  3  1  0
  1  9  1  0
  1 10  1  0
  4 11  1  0
  4 12  1  0
  5 13  1  0
  5 14  1  0
  7 15  1  0
  7 16  1  0
M  END
