
     RDKit          3D

 19 20  0  0  0  0  0  0  0  0999 V2000
    2.4622    0.0268   -0.0897 C   0  0  0  0  0  0  0  0  0  0  0  0
    1.8628    1.1046    0.4357 O   0  0  0  0  0  0  0  0  0  0  0  0
    0.6147    1.4412   -0.0045 C   0  0  0  0  0  0  0  0  0  0  0  0
   -0.2819    0.2764   -0.3158 C   0  0  0  0  0  0  0  0  0  0  0  0
   -1.5112    0.2334    0.5726 C   0  0  0  0  0  0  0  0  0  0  0  0
   -2.4436   -0.8614    0.3477 C   0  0  0  0  0  0  0  0  0  0  0  0
   -2.7596    0.5502   -0.0622 O   0  0  0  0  0  0  0  0  0  0  0  0
    0.4321   -1.0567   -0.1150 C   0  0  0  0  0  0  0  0  0  0  0  0
    1.6719   -0.8967   -0.7207 O   0  0  0  0  0  0  0  0  0  0  0  0
    3.2531    0.3429   -0.8260 H   0  0  0  0  0  0  0  0  0  0  0  0
    3.0194   -0.5168    0.7272 H   0  0  0  0  0  0  0  0  0  0  0  0
    0.1227    2.0299    0.8041 H   0  0  0  0  0  0  0  0  0  0  0  0
    0.6358    2.1127   -0.8900 H   0  0  0  0  0  0  0  0  0  0  0  0
   -0.5840    0.2850   -1.3959 H   0  0  0  0  0  0  0  0  0  0  0  0
   -1.4473    0.7440    1.5520 H   0  0  0  0  0  0  0  0  0  0  0  0
   -3.1561   -1.2527    1.0752 H   0  0  0  0  0  0  0  0  0  0  0  0
   -2.3456   -1.4230   -0.6062 H   0  0  0  0  0  0  0  0  0  0  0  0
    0.5659   -1.2770    0.9704 H   0  0  0  0  0  0  0  0  0  0  0  0
   -0.1113   -1.8627   -0.6248 H   0  0  0  0  0  0  0  0  0  0  0  0
  1  2  1  0
  2  3  1  0
  3  4  1  0
  4  5  1  0
  5  6  1  0
  6  7  1  0
  4  8  1  0
  8  9  1  0
  9  1  1  0
  7  5  1  0
  1 10  1  0
  1 11  1  0
  3 12  1  0
  3 13  1  0
  4 14  1  0
  5 15  1  0
  6 16  1  0
  6 17  1  0
  8 18  1  0
  8 19  1  0
M  END
