
     RDKit          3D

 21 22  0  0  0  0  0  0  0  0999 V2000
    2.4593    0.3193   -0.6551 C   0  0  0  0  0  0  0  0  0  0  0  0
    1.6751    1.1337    0.1217 O   0  0  0  0  0  0  0  0  0  0  0  0
    0.9463    0.3671    1.0314 C   0  0  0  0  0  0  0  0  0  0  0  0
   -0.0119   -0.4729    0.2171 C   0  0  0  0  0  0  0  0  0  0  0  0
   -1.0784    0.3234   -0.4438 C   0  0  0  0  0  0  0  0  0  0  0  0
   -2.0503    1.1481    0.2649 C   0  0  0  0  0  0  0  0  0  0  0  0
   -2.5249   -0.1707   -0.2220 C   0  0  0  0  0  0  0  0  0  0  0  0
    0.7878   -1.2936   -0.7487 C   0  0  0  0  0  0  0  0  0  0  0  0
    1.8183   -0.6395   -1.3599 O   0  0  0  0  0  0  0  0  0  0  0  0
    3.2920   -0.1031   -0.0193 H   0  0  0  0  0  0  0  0  0  0  0  0
    3.0022    0.9849   -1.3895 H   0  0  0  0  0  0  0  0  0  0  0  0
    0.3953    0.9961    1.7349 H   0  0  0  0  0  0  0  0  0  0  0  0
    1.6059   -0.3503    1.5811 H   0  0  0  0  0  0  0  0  0  0  0  0
   -0.4905   -1.1744    0.9314 H   0  0  0  0  0  0  0  0  0  0  0  0
   -0.8503    0.6318   -1.5074 H   0  0  0  0  0  0  0  0  0  0  0  0
   -1.9511    1.2756    1.3624 H   0  0  0  0  0  0  0  0  0  0  0  0
   -2.4034    2.0921   -0.2279 H   0  0  0  0  0  0  0  0  0  0  0  0
   -3.1481   -0.2634   -1.1296 H   0  0  0  0  0  0  0  0  0  0  0  0
   -2.6936   -0.9477    0.5275 H   0  0  0  0  0  0  0  0  0  0  0  0
    0.0805   -1.6240   -1.5569 H   0  0  0  0  0  0  0  0  0  0  0  0
    1.1398   -2.2324   -0.2645 H   0  0  0  0  0  0  0  0  0  0  0  0
  1  2  1  0
  2  3  1  0
  3  4  1  0
  4  5  1  0
  5  6  1  0
  6  7  1  0
  4  8  1  0
  8  9  1  0
  9  1  1  0
  7  5  1  0
  1 10  1  0
  1 11  1  0
  3 12  1  0
  3 13  1  0
  4 14  1  0
  5 15  1  0
  6 16  1  0
  6 17  1  0
  7 18  1  0
  7 19  1  0
  8 20  1  0
  8 21  1  0
M  END
