
     RDKit          2D

 17 20  0  0  0  0  0  0  0  0999 V2000
   -1.2610   -2.2894    0.0000 C   0  0  0  0  0  0  0  0  0  0  0  0
   -2.7552   -2.4201    0.0000 O   0  0  0  0  0  0  0  0  0  0  0  0
   -2.1213   -1.0607    0.0000 C   0  0  0  0  0  0  0  0  0  0  0  0
   -1.0607    0.0000    0.0000 C   0  0  0  0  0  0  0  0  0  0  0  0
    0.0000    1.0607    0.0000 C   0  0  0  0  0  0  0  0  0  0  0  0
   -1.0607    2.1213    0.0000 C   0  0  0  0  0  0  0  0  0  0  0  0
   -2.1213    1.0607    0.0000 C   0  0  0  0  0  0  0  0  0  0  0  0
   -0.0000   -1.0607    0.0000 C   0  0  0  0  0  0  0  0  0  0  0  0
    1.0607    0.0000    0.0000 O   0  0  0  0  0  0  0  0  0  0  0  0
   -0.8727   -3.7383    0.0000 H   0  0  0  0  0  0  0  0  0  0  0  0
   -0.4784   -2.1373    0.0000 H   0  0  0  0  0  0  0  0  0  0  0  0
   -3.3500   -0.2003    0.0000 H   0  0  0  0  0  0  0  0  0  0  0  0
    1.0607    2.1213    0.0000 H   0  0  0  0  0  0  0  0  0  0  0  0
   -2.1213    3.1820    0.0000 H   0  0  0  0  0  0  0  0  0  0  0  0
   -0.0000    3.1820    0.0000 H   0  0  0  0  0  0  0  0  0  0  0  0
   -3.6213    1.0607    0.0000 H   0  0  0  0  0  0  0  0  0  0  0  0
   -0.0000   -1.8578    0.0000 H   0  0  0  0  0  0  0  0  0  0  0  0
  1  2  1  0
  2  3  1  0
  3  4  1  0
  4  5  1  0
  5  6  1  0
  6  7  1  0
  7  8  1  0
  8  9  1  0
  3  1  1  0
  7  4  1  0
  8  4  1  0
  9  5  1  0
  1 10  1  0
  1 11  1  0
  3 12  1  0
  5 13  1  0
  6 14  1  0
  6 15  1  0
  7 16  1  0
  8 17  1  0
M  END
