
     RDKit          3D

 18 20  0  0  0  0  0  0  0  0999 V2000
    2.6393   -0.2567   -0.0929 C   0  0  0  0  0  0  0  0  0  0  0  0
    1.9743   -0.9701    0.8849 O   0  0  0  0  0  0  0  0  0  0  0  0
    1.4262    0.2897    0.6666 C   0  0  0  0  0  0  0  0  0  0  0  0
    0.2023    0.4414   -0.1701 C   0  0  0  0  0  0  0  0  0  0  0  0
   -0.3418   -0.7957   -0.8138 C   0  0  0  0  0  0  0  0  0  0  0  0
   -1.5883   -0.6428    0.0186 C   0  0  0  0  0  0  0  0  0  0  0  0
   -2.3640    0.6000   -0.0818 C   0  0  0  0  0  0  0  0  0  0  0  0
   -1.0536    0.6100    0.6389 C   0  0  0  0  0  0  0  0  0  0  0  0
    2.5015   -0.5464   -1.1533 H   0  0  0  0  0  0  0  0  0  0  0  0
    3.5736    0.2875    0.1348 H   0  0  0  0  0  0  0  0  0  0  0  0
    1.6040    1.0170    1.4746 H   0  0  0  0  0  0  0  0  0  0  0  0
    0.2762    1.2825   -0.9072 H   0  0  0  0  0  0  0  0  0  0  0  0
    0.2133   -1.7415   -0.5757 H   0  0  0  0  0  0  0  0  0  0  0  0
   -0.4950   -0.7174   -1.9147 H   0  0  0  0  0  0  0  0  0  0  0  0
   -1.9125   -1.4580    0.6861 H   0  0  0  0  0  0  0  0  0  0  0  0
   -3.2430    0.7516    0.5445 H   0  0  0  0  0  0  0  0  0  0  0  0
   -2.4152    1.1180   -1.0720 H   0  0  0  0  0  0  0  0  0  0  0  0
   -0.9972    0.7309    1.7323 H   0  0  0  0  0  0  0  0  0  0  0  0
  1  2  1  0
  2  3  1  0
  3  4  1  0
  4  5  1  0
  5  6  1  0
  6  7  1  0
  7  8  1  0
  3  1  1  0
  8  4  1  0
  8  6  1  0
  1  9  1  0
  1 10  1  0
  3 11  1  0
  4 12  1  0
  5 13  1  0
  5 14  1  0
  6 15  1  0
  7 16  1  0
  7 17  1  0
  8 18  1  0
M  END
