
     RDKit          3D

 19 21  0  0  0  0  0  0  0  0999 V2000
   -1.1439   -1.3110   -0.5475 C   0  0  0  0  0  0  0  0  0  0  0  0
    0.2004   -0.9435   -0.5264 O   0  0  0  0  0  0  0  0  0  0  0  0
    0.4328   -0.5416    0.7846 C   0  0  0  0  0  0  0  0  0  0  0  0
    1.6698    0.3233    0.7984 C   0  0  0  0  0  0  0  0  0  0  0  0
    2.4138    0.4880   -0.4306 C   0  0  0  0  0  0  0  0  0  0  0  0
    1.5436    1.4830   -0.0114 O   0  0  0  0  0  0  0  0  0  0  0  0
   -0.8087    0.2003    1.1943 C   0  0  0  0  0  0  0  0  0  0  0  0
   -1.3397    1.1668    0.2063 C   0  0  0  0  0  0  0  0  0  0  0  0
   -1.8751   -0.2025    0.1467 C   0  0  0  0  0  0  0  0  0  0  0  0
   -1.2375   -2.2355    0.0585 H   0  0  0  0  0  0  0  0  0  0  0  0
   -1.4708   -1.4783   -1.5861 H   0  0  0  0  0  0  0  0  0  0  0  0
    0.5947   -1.4465    1.4071 H   0  0  0  0  0  0  0  0  0  0  0  0
    2.1436    0.5462    1.7734 H   0  0  0  0  0  0  0  0  0  0  0  0
    2.1367   -0.1115   -1.3451 H   0  0  0  0  0  0  0  0  0  0  0  0
    3.4835    0.7928   -0.3689 H   0  0  0  0  0  0  0  0  0  0  0  0
   -1.1388    0.2043    2.2480 H   0  0  0  0  0  0  0  0  0  0  0  0
   -0.7103    1.5070   -0.6300 H   0  0  0  0  0  0  0  0  0  0  0  0
   -2.0077    1.9414    0.6025 H   0  0  0  0  0  0  0  0  0  0  0  0
   -2.8863   -0.3827    0.5106 H   0  0  0  0  0  0  0  0  0  0  0  0
  1  2  1  0
  2  3  1  0
  3  4  1  0
  4  5  1  0
  5  6  1  0
  3  7  1  0
  7  8  1  0
  8  9  1  0
  9  1  1  0
  6  4  1  0
  9  7  1  0
  1 10  1  0
  1 11  1  0
  3 12  1  0
  4 13  1  0
  5 14  1  0
  5 15  1  0
  7 16  1  0
  8 17  1  0
  8 18  1  0
  9 19  1  0
M  END
