
     RDKit          3D

 21 23  0  0  0  0  0  0  0  0999 V2000
    1.5552    0.4542    0.5321 C   0  0  0  0  0  0  0  0  0  0  0  0
    1.0499    1.2163   -0.4744 O   0  0  0  0  0  0  0  0  0  0  0  0
   -0.1473    0.8585   -0.9893 C   0  0  0  0  0  0  0  0  0  0  0  0
   -1.2519    1.4033   -0.0820 C   0  0  0  0  0  0  0  0  0  0  0  0
   -1.1865    0.4200    1.0714 C   0  0  0  0  0  0  0  0  0  0  0  0
   -0.5875   -0.8437    0.5463 C   0  0  0  0  0  0  0  0  0  0  0  0
    0.9313   -0.9122    0.5765 C   0  0  0  0  0  0  0  0  0  0  0  0
    0.8509   -1.3942   -0.8791 C   0  0  0  0  0  0  0  0  0  0  0  0
   -0.4412   -0.6160   -0.9417 C   0  0  0  0  0  0  0  0  0  0  0  0
    2.6515    0.2889    0.3114 H   0  0  0  0  0  0  0  0  0  0  0  0
    1.5551    0.9505    1.5362 H   0  0  0  0  0  0  0  0  0  0  0  0
   -0.2471    1.2096   -2.0189 H   0  0  0  0  0  0  0  0  0  0  0  0
   -1.0779    2.4365    0.2167 H   0  0  0  0  0  0  0  0  0  0  0  0
   -2.1996    1.2678   -0.6743 H   0  0  0  0  0  0  0  0  0  0  0  0
   -0.6558    0.8479    1.9427 H   0  0  0  0  0  0  0  0  0  0  0  0
   -2.2456    0.1966    1.3665 H   0  0  0  0  0  0  0  0  0  0  0  0
   -1.0367   -1.7859    0.8533 H   0  0  0  0  0  0  0  0  0  0  0  0
    1.3725   -1.6511    1.2285 H   0  0  0  0  0  0  0  0  0  0  0  0
    0.7273   -2.4674   -0.9999 H   0  0  0  0  0  0  0  0  0  0  0  0
    1.6049   -0.8954   -1.5377 H   0  0  0  0  0  0  0  0  0  0  0  0
   -1.2215   -0.9840   -1.5845 H   0  0  0  0  0  0  0  0  0  0  0  0
  1  2  1  0
  2  3  1  0
  3  4  1  0
  4  5  1  0
  5  6  1  0
  6  7  1  0
  7  8  1  0
  8  9  1  0
  7  1  1  0
  9  3  1  0
  9  6  1  0
  1 10  1  0
  1 11  1  0
  3 12  1  0
  4 13  1  0
  4 14  1  0
  5 15  1  0
  5 16  1  0
  6 17  1  0
  7 18  1  0
  8 19  1  0
  8 20  1  0
  9 21  1  0
M  END
