
     RDKit          3D

 15 18  0  0  0  0  0  0  0  0999 V2000
    1.9598    0.4124   -0.2636 C   0  0  0  0  0  0  0  0  0  0  0  0
    1.1407    0.5272    0.9750 O   0  0  0  0  0  0  0  0  0  0  0  0
    0.6659    0.1057   -0.3162 C   0  0  0  0  0  0  0  0  0  0  0  0
   -0.1646   -1.0994   -0.4287 C   0  0  0  0  0  0  0  0  0  0  0  0
   -0.7865   -0.4626   -1.5363 O   0  0  0  0  0  0  0  0  0  0  0  0
   -0.5888    0.7090   -0.7594 C   0  0  0  0  0  0  0  0  0  0  0  0
   -1.4632    0.5472    0.4953 C   0  0  0  0  0  0  0  0  0  0  0  0
   -2.3875   -0.4574    0.5582 O   0  0  0  0  0  0  0  0  0  0  0  0
   -1.1271   -0.9368    0.7570 C   0  0  0  0  0  0  0  0  0  0  0  0
    2.3622    1.4296   -0.5487 H   0  0  0  0  0  0  0  0  0  0  0  0
    2.7872   -0.3167   -0.1606 H   0  0  0  0  0  0  0  0  0  0  0  0
    0.2430   -2.0682   -0.5954 H   0  0  0  0  0  0  0  0  0  0  0  0
   -0.6434    1.6422   -1.2691 H   0  0  0  0  0  0  0  0  0  0  0  0
   -1.2218    1.1905    1.3433 H   0  0  0  0  0  0  0  0  0  0  0  0
   -0.7760   -1.2227    1.7490 H   0  0  0  0  0  0  0  0  0  0  0  0
  1  2  1  0
  2  3  1  0
  3  4  1  0
  4  5  1  0
  5  6  1  0
  6  7  1  0
  7  8  1  0
  8  9  1  0
  3  1  1  0
  9  4  1  0
  6  3  1  0
  9  7  1  0
  1 10  1  0
  1 11  1  0
  4 12  1  0
  6 13  1  0
  7 14  1  0
  9 15  1  0
M  END
