
     RDKit          3D

 19 21  0  0  0  0  0  0  0  0999 V2000
    2.0680    0.4049    0.7078 C   0  0  0  0  0  0  0  0  0  0  0  0
    1.5137   -0.7689    1.2268 O   0  0  0  0  0  0  0  0  0  0  0  0
    0.7534   -1.3512    0.2481 C   0  0  0  0  0  0  0  0  0  0  0  0
    0.1311   -0.4211   -0.7237 C   0  0  0  0  0  0  0  0  0  0  0  0
   -1.3817   -0.3356   -0.7085 C   0  0  0  0  0  0  0  0  0  0  0  0
   -2.0359    0.0275    0.6008 C   0  0  0  0  0  0  0  0  0  0  0  0
   -1.2889    1.0941   -0.0795 C   0  0  0  0  0  0  0  0  0  0  0  0
    0.1722    1.0186   -0.3530 C   0  0  0  0  0  0  0  0  0  0  0  0
    1.0345    1.3408    0.6607 O   0  0  0  0  0  0  0  0  0  0  0  0
    2.5427    0.2582   -0.2754 H   0  0  0  0  0  0  0  0  0  0  0  0
    2.8804    0.7042    1.4079 H   0  0  0  0  0  0  0  0  0  0  0  0
   -0.0660   -1.9698    0.7141 H   0  0  0  0  0  0  0  0  0  0  0  0
    1.4077   -2.1203   -0.2582 H   0  0  0  0  0  0  0  0  0  0  0  0
    0.4680   -0.6563   -1.7625 H   0  0  0  0  0  0  0  0  0  0  0  0
   -1.9573   -0.4295   -1.6269 H   0  0  0  0  0  0  0  0  0  0  0  0
   -1.6477   -0.3749    1.5449 H   0  0  0  0  0  0  0  0  0  0  0  0
   -3.1369    0.0631    0.5415 H   0  0  0  0  0  0  0  0  0  0  0  0
   -1.8831    1.8813   -0.5997 H   0  0  0  0  0  0  0  0  0  0  0  0
    0.4259    1.6350   -1.2652 H   0  0  0  0  0  0  0  0  0  0  0  0
  1  2  1  0
  2  3  1  0
  3  4  1  0
  4  5  1  0
  5  6  1  0
  6  7  1  0
  7  8  1  0
  8  9  1  0
  9  1  1  0
  8  4  1  0
  7  5  1  0
  1 10  1  0
  1 11  1  0
  3 12  1  0
  3 13  1  0
  4 14  1  0
  5 15  1  0
  6 16  1  0
  6 17  1  0
  7 18  1  0
  8 19  1  0
M  END
