
     RDKit          3D

 21 23  0  0  0  0  0  0  0  0999 V2000
   -2.1325    0.0934   -0.4814 C   0  0  0  0  0  0  0  0  0  0  0  0
   -1.5664   -1.1887   -0.5893 O   0  0  0  0  0  0  0  0  0  0  0  0
   -0.6900   -1.0366    0.5019 C   0  0  0  0  0  0  0  0  0  0  0  0
   -1.1209    0.3847    0.5930 C   0  0  0  0  0  0  0  0  0  0  0  0
   -0.0607    1.3833    0.2587 C   0  0  0  0  0  0  0  0  0  0  0  0
    1.1978    0.7698   -0.2641 C   0  0  0  0  0  0  0  0  0  0  0  0
    1.6796   -0.2439    0.7662 C   0  0  0  0  0  0  0  0  0  0  0  0
    0.7263   -1.2257    0.0833 C   0  0  0  0  0  0  0  0  0  0  0  0
    0.9497   -0.4090   -1.1824 C   0  0  0  0  0  0  0  0  0  0  0  0
   -2.0309    0.7021   -1.4132 H   0  0  0  0  0  0  0  0  0  0  0  0
   -3.1918    0.1052   -0.1744 H   0  0  0  0  0  0  0  0  0  0  0  0
   -0.9308   -1.6605    1.3774 H   0  0  0  0  0  0  0  0  0  0  0  0
   -1.6586    0.6050    1.5502 H   0  0  0  0  0  0  0  0  0  0  0  0
   -0.4988    2.1209   -0.4540 H   0  0  0  0  0  0  0  0  0  0  0  0
    0.2201    1.9902    1.1608 H   0  0  0  0  0  0  0  0  0  0  0  0
    1.9276    1.5021   -0.5932 H   0  0  0  0  0  0  0  0  0  0  0  0
    1.4550   -0.0161    1.8025 H   0  0  0  0  0  0  0  0  0  0  0  0
    2.7201   -0.5428    0.5182 H   0  0  0  0  0  0  0  0  0  0  0  0
    1.0457   -2.2568    0.0562 H   0  0  0  0  0  0  0  0  0  0  0  0
    0.0877   -0.3409   -1.8426 H   0  0  0  0  0  0  0  0  0  0  0  0
    1.8721   -0.7357   -1.6736 H   0  0  0  0  0  0  0  0  0  0  0  0
  1  2  1  0
  2  3  1  0
  3  4  1  0
  4  5  1  0
  5  6  1  0
  6  7  1  0
  7  8  1  0
  8  9  1  0
  4  1  1  0
  9  6  1  0
  8  3  1  0
  1 10  1  0
  1 11  1  0
  3 12  1  0
  4 13  1  0
  5 14  1  0
  5 15  1  0
  6 16  1  0
  7 17  1  0
  7 18  1  0
  8 19  1  0
  9 20  1  0
  9 21  1  0
M  END
