
     RDKit          3D

 16 17  0  0  0  0  0  0  0  0999 V2000
    1.8290   -1.0871    0.0701 C   0  0  0  0  0  0  0  0  0  0  0  0
    2.6319   -0.0689   -0.0671 O   0  0  0  0  0  0  0  0  0  0  0  0
    1.8823    0.9856   -0.2398 C   0  0  0  0  0  0  0  0  0  0  0  0
    0.5434    0.6642   -0.2175 C   0  0  0  0  0  0  0  0  0  0  0  0
    0.5116   -0.6983   -0.0137 C   0  0  0  0  0  0  0  0  0  0  0  0
   -0.9051   -1.1441    0.0258 C   0  0  0  0  0  0  0  0  0  0  0  0
   -1.5797    0.1218    0.5542 C   0  0  0  0  0  0  0  0  0  0  0  0
   -0.8525    1.1552   -0.3181 C   0  0  0  0  0  0  0  0  0  0  0  0
    2.1082   -2.1399    0.2335 H   0  0  0  0  0  0  0  0  0  0  0  0
    2.2222    2.0238   -0.3890 H   0  0  0  0  0  0  0  0  0  0  0  0
   -1.0678   -2.0026    0.6816 H   0  0  0  0  0  0  0  0  0  0  0  0
   -1.2240   -1.2948   -1.0154 H   0  0  0  0  0  0  0  0  0  0  0  0
   -1.2537    0.2191    1.5988 H   0  0  0  0  0  0  0  0  0  0  0  0
   -2.6529    0.1282    0.3932 H   0  0  0  0  0  0  0  0  0  0  0  0
   -0.9880    2.1672    0.0499 H   0  0  0  0  0  0  0  0  0  0  0  0
   -1.2049    0.9707   -1.3466 H   0  0  0  0  0  0  0  0  0  0  0  0
  1  2  1  0
  2  3  1  0
  3  4  2  0
  4  5  1  0
  5  6  1  0
  6  7  1  0
  7  8  1  0
  5  1  2  0
  8  4  1  0
  1  9  1  0
  3 10  1  0
  6 11  1  0
  6 12  1  0
  7 13  1  0
  7 14  1  0
  8 15  1  0
  8 16  1  0
M  END
