
     RDKit          3D

 21 23  0  0  0  0  0  0  0  0999 V2000
    2.9775   -0.2882   -0.3339 C   0  0  0  0  0  0  0  0  0  0  0  0
    2.5253    0.5054    0.7160 O   0  0  0  0  0  0  0  0  0  0  0  0
    1.5468   -0.3080    0.2023 C   0  0  0  0  0  0  0  0  0  0  0  0
    0.5527    0.2547   -0.8176 C   0  0  0  0  0  0  0  0  0  0  0  0
   -0.8132    0.3020   -0.4621 C   0  0  0  0  0  0  0  0  0  0  0  0
   -1.3606   -1.0567   -0.1575 C   0  0  0  0  0  0  0  0  0  0  0  0
   -1.4936   -0.5685    1.2943 C   0  0  0  0  0  0  0  0  0  0  0  0
   -1.8700    0.6277    0.4695 C   0  0  0  0  0  0  0  0  0  0  0  0
   -1.1386    1.6549   -0.0149 C   0  0  0  0  0  0  0  0  0  0  0  0
    3.6717   -1.1016   -0.0612 H   0  0  0  0  0  0  0  0  0  0  0  0
    3.1895    0.1597   -1.3099 H   0  0  0  0  0  0  0  0  0  0  0  0
    1.3084   -1.2955    0.6666 H   0  0  0  0  0  0  0  0  0  0  0  0
    1.0659    1.1813   -1.2164 H   0  0  0  0  0  0  0  0  0  0  0  0
    0.6819   -0.4609   -1.6931 H   0  0  0  0  0  0  0  0  0  0  0  0
   -0.7052   -1.9030   -0.1680 H   0  0  0  0  0  0  0  0  0  0  0  0
   -2.3463   -1.2206   -0.6000 H   0  0  0  0  0  0  0  0  0  0  0  0
   -2.3021   -1.1275    1.7739 H   0  0  0  0  0  0  0  0  0  0  0  0
   -0.5794   -0.4002    1.8330 H   0  0  0  0  0  0  0  0  0  0  0  0
   -2.9182    0.4504    0.0541 H   0  0  0  0  0  0  0  0  0  0  0  0
   -1.5408    2.3326   -0.8263 H   0  0  0  0  0  0  0  0  0  0  0  0
   -0.4516    2.2621    0.6512 H   0  0  0  0  0  0  0  0  0  0  0  0
  1  2  1  0
  2  3  1  0
  3  4  1  0
  4  5  1  0
  5  6  1  0
  6  7  1  0
  7  8  1  0
  8  9  1  0
  3  1  1  0
  8  5  1  0
  9  5  1  0
  1 10  1  0
  1 11  1  0
  3 12  1  0
  4 13  1  0
  4 14  1  0
  6 15  1  0
  6 16  1  0
  7 17  1  0
  7 18  1  0
  8 19  1  0
  9 20  1  0
  9 21  1  0
M  END
