
     RDKit          3D

 16 17  0  0  0  0  0  0  0  0999 V2000
    1.8444   -0.6447   -0.3016 C   0  0  0  0  0  0  0  0  0  0  0  0
    1.7882    0.5623    0.3763 O   0  0  0  0  0  0  0  0  0  0  0  0
    0.5803    1.1617   -0.0400 C   0  0  0  0  0  0  0  0  0  0  0  0
   -0.2553   -0.0588   -0.1595 C   0  0  0  0  0  0  0  0  0  0  0  0
   -0.9750   -0.4404    1.1024 C   0  0  0  0  0  0  0  0  0  0  0  0
   -2.0135    0.4043    0.6776 O   0  0  0  0  0  0  0  0  0  0  0  0
   -1.6407    0.0637   -0.6429 C   0  0  0  0  0  0  0  0  0  0  0  0
    0.5820   -0.9796   -0.7103 O   0  0  0  0  0  0  0  0  0  0  0  0
    2.5359   -0.4944   -1.1734 H   0  0  0  0  0  0  0  0  0  0  0  0
    2.2523   -1.4140    0.3944 H   0  0  0  0  0  0  0  0  0  0  0  0
    0.1846    1.8530    0.7094 H   0  0  0  0  0  0  0  0  0  0  0  0
    0.7475    1.6577   -1.0336 H   0  0  0  0  0  0  0  0  0  0  0  0
   -1.2690   -1.4996    1.0716 H   0  0  0  0  0  0  0  0  0  0  0  0
   -0.4188   -0.0958    1.9825 H   0  0  0  0  0  0  0  0  0  0  0  0
   -1.8566    0.8506   -1.3859 H   0  0  0  0  0  0  0  0  0  0  0  0
   -2.0864   -0.9261   -0.8672 H   0  0  0  0  0  0  0  0  0  0  0  0
  1  2  1  0
  2  3  1  0
  3  4  1  0
  4  5  1  0
  5  6  1  0
  6  7  1  0
  4  8  1  0
  8  1  1  0
  7  4  1  0
  1  9  1  0
  1 10  1  0
  3 11  1  0
  3 12  1  0
  5 13  1  0
  5 14  1  0
  7 15  1  0
  7 16  1  0
M  END
