
     RDKit          3D

 15 17  0  0  0  0  0  0  0  0999 V2000
    2.1424    0.9280   -0.1807 C   0  0  0  0  0  0  0  0  0  0  0  0
    2.6295   -0.1472    0.4121 O   0  0  0  0  0  0  0  0  0  0  0  0
    1.6848   -1.0431    0.6089 C   0  0  0  0  0  0  0  0  0  0  0  0
    0.5133   -0.4971    0.1046 C   0  0  0  0  0  0  0  0  0  0  0  0
    0.7964    0.7440   -0.3936 C   0  0  0  0  0  0  0  0  0  0  0  0
   -0.3195    1.3712   -0.9223 O   0  0  0  0  0  0  0  0  0  0  0  0
   -1.3918    0.4330   -0.8770 C   0  0  0  0  0  0  0  0  0  0  0  0
   -1.9322    0.1638    0.4719 C   0  0  0  0  0  0  0  0  0  0  0  0
   -0.9155   -0.7486   -0.0962 C   0  0  0  0  0  0  0  0  0  0  0  0
    2.7582    1.7825   -0.4311 H   0  0  0  0  0  0  0  0  0  0  0  0
    1.8472   -2.0048    1.0789 H   0  0  0  0  0  0  0  0  0  0  0  0
   -1.9559    0.2140   -1.7965 H   0  0  0  0  0  0  0  0  0  0  0  0
   -1.6652    0.8690    1.2883 H   0  0  0  0  0  0  0  0  0  0  0  0
   -2.9531   -0.2989    0.5895 H   0  0  0  0  0  0  0  0  0  0  0  0
   -1.2386   -1.7659   -0.4546 H   0  0  0  0  0  0  0  0  0  0  0  0
  1  2  1  0
  2  3  1  0
  3  4  2  0
  4  5  1  0
  5  6  1  0
  6  7  1  0
  7  8  1  0
  8  9  1  0
  5  1  2  0
  9  7  1  0
  9  4  1  0
  1 10  1  0
  3 11  1  0
  7 12  1  0
  8 13  1  0
  8 14  1  0
  9 15  1  0
M  END
