
     RDKit          3D

 19 20  0  0  0  0  0  0  0  0999 V2000
    1.9288    0.5175   -0.1046 C   0  0  0  0  0  0  0  0  0  0  0  0
    0.8740    1.2374   -0.6799 O   0  0  0  0  0  0  0  0  0  0  0  0
   -0.0718    1.4349    0.2879 C   0  0  0  0  0  0  0  0  0  0  0  0
   -0.8639    0.2644    0.6878 C   0  0  0  0  0  0  0  0  0  0  0  0
   -1.8766   -0.1815   -0.3377 C   0  0  0  0  0  0  0  0  0  0  0  0
   -1.6322   -1.4919    0.0644 O   0  0  0  0  0  0  0  0  0  0  0  0
   -0.3322   -1.0700    0.4344 C   0  0  0  0  0  0  0  0  0  0  0  0
    0.5908   -1.2740   -0.6919 C   0  0  0  0  0  0  0  0  0  0  0  0
    1.8520   -0.7704   -0.5601 O   0  0  0  0  0  0  0  0  0  0  0  0
    2.8545    1.0265   -0.3914 H   0  0  0  0  0  0  0  0  0  0  0  0
    1.8247    0.4772    1.0183 H   0  0  0  0  0  0  0  0  0  0  0  0
   -0.7842    2.2655    0.0059 H   0  0  0  0  0  0  0  0  0  0  0  0
    0.4622    1.8465    1.1928 H   0  0  0  0  0  0  0  0  0  0  0  0
   -1.2563    0.3712    1.7272 H   0  0  0  0  0  0  0  0  0  0  0  0
   -2.8830    0.2104   -0.1317 H   0  0  0  0  0  0  0  0  0  0  0  0
   -1.5504    0.0915   -1.3438 H   0  0  0  0  0  0  0  0  0  0  0  0
   -0.0331   -1.6384    1.3297 H   0  0  0  0  0  0  0  0  0  0  0  0
    0.7097   -2.3917   -0.8307 H   0  0  0  0  0  0  0  0  0  0  0  0
    0.1871   -0.9254   -1.6765 H   0  0  0  0  0  0  0  0  0  0  0  0
  1  2  1  0
  2  3  1  0
  3  4  1  0
  4  5  1  0
  5  6  1  0
  6  7  1  0
  7  8  1  0
  8  9  1  0
  9  1  1  0
  7  4  1  0
  1 10  1  0
  1 11  1  0
  3 12  1  0
  3 13  1  0
  4 14  1  0
  5 15  1  0
  5 16  1  0
  7 17  1  0
  8 18  1  0
  8 19  1  0
M  END
