
     RDKit          3D

 15 16  0  0  0  0  0  0  0  0999 V2000
    1.7064   -0.1323   -0.2223 C   0  0  0  0  0  0  0  0  0  0  0  0
    0.9548    0.2523   -1.2997 O   0  0  0  0  0  0  0  0  0  0  0  0
   -0.3740    0.4924   -1.0117 C   0  0  0  0  0  0  0  0  0  0  0  0
   -0.5128    0.9427    0.4527 C   0  0  0  0  0  0  0  0  0  0  0  0
   -0.3067   -0.5349    0.7710 C   0  0  0  0  0  0  0  0  0  0  0  0
   -1.0896   -0.7743   -0.5233 C   0  0  0  0  0  0  0  0  0  0  0  0
    0.9986   -0.9251    0.6818 O   0  0  0  0  0  0  0  0  0  0  0  0
    2.5296   -0.8016   -0.6125 H   0  0  0  0  0  0  0  0  0  0  0  0
    2.1636    0.6972    0.3470 H   0  0  0  0  0  0  0  0  0  0  0  0
   -0.9193    1.0888   -1.7310 H   0  0  0  0  0  0  0  0  0  0  0  0
    0.2727    1.6149    0.7741 H   0  0  0  0  0  0  0  0  0  0  0  0
   -1.5581    1.2108    0.6427 H   0  0  0  0  0  0  0  0  0  0  0  0
   -0.8735   -0.9255    1.6094 H   0  0  0  0  0  0  0  0  0  0  0  0
   -2.1428   -0.5228   -0.3420 H   0  0  0  0  0  0  0  0  0  0  0  0
   -0.8489   -1.6826   -1.0584 H   0  0  0  0  0  0  0  0  0  0  0  0
  1  2  1  0
  2  3  1  0
  3  4  1  0
  4  5  1  0
  5  6  1  0
  5  7  1  0
  7  1  1  0
  6  3  1  0
  1  8  1  0
  1  9  1  0
  3 10  1  0
  4 11  1  0
  4 12  1  0
  5 13  1  0
  6 14  1  0
  6 15  1  0
M  END
