
     RDKit          3D

 19 21  0  0  0  0  0  0  0  0999 V2000
    1.5459   -1.2459   -0.1304 C   0  0  0  0  0  0  0  0  0  0  0  0
    2.4659   -0.1711   -0.0949 O   0  0  0  0  0  0  0  0  0  0  0  0
    1.7131    1.0144    0.0422 C   0  0  0  0  0  0  0  0  0  0  0  0
    0.4300    0.5179    0.5646 C   0  0  0  0  0  0  0  0  0  0  0  0
    0.3190   -0.5642   -0.5921 C   0  0  0  0  0  0  0  0  0  0  0  0
   -0.7759    0.0569    0.0091 C   0  0  0  0  0  0  0  0  0  0  0  0
   -1.7953    0.8282   -0.7244 C   0  0  0  0  0  0  0  0  0  0  0  0
   -2.7744    0.0467   -0.0784 O   0  0  0  0  0  0  0  0  0  0  0  0
   -1.8509   -0.5835    0.7918 C   0  0  0  0  0  0  0  0  0  0  0  0
    1.4206   -1.6814    0.8897 H   0  0  0  0  0  0  0  0  0  0  0  0
    1.9162   -2.0441   -0.7726 H   0  0  0  0  0  0  0  0  0  0  0  0
    2.1890    1.6709    0.7902 H   0  0  0  0  0  0  0  0  0  0  0  0
    1.5797    1.5115   -0.9461 H   0  0  0  0  0  0  0  0  0  0  0  0
    0.6102    0.0774    1.5982 H   0  0  0  0  0  0  0  0  0  0  0  0
    0.5162   -0.1558   -1.6356 H   0  0  0  0  0  0  0  0  0  0  0  0
   -1.9468    1.8904   -0.3721 H   0  0  0  0  0  0  0  0  0  0  0  0
   -1.8046    0.7879   -1.8134 H   0  0  0  0  0  0  0  0  0  0  0  0
   -1.8456   -1.6943    0.6391 H   0  0  0  0  0  0  0  0  0  0  0  0
   -1.9124   -0.2619    1.8351 H   0  0  0  0  0  0  0  0  0  0  0  0
  1  2  1  0
  2  3  1  0
  3  4  1  0
  4  5  1  0
  5  6  1  0
  6  7  1  0
  7  8  1  0
  8  9  1  0
  5  1  1  0
  9  6  1  0
  6  4  1  0
  1 10  1  0
  1 11  1  0
  3 12  1  0
  3 13  1  0
  4 14  1  0
  5 15  1  0
  7 16  1  0
  7 17  1  0
  9 18  1  0
  9 19  1  0
M  END
