
     RDKit          3D

 19 22  0  0  0  0  0  0  0  0999 V2000
   -0.8759    1.4775   -0.3678 C   0  0  0  0  0  0  0  0  0  0  0  0
   -0.0403    1.6644    0.7035 O   0  0  0  0  0  0  0  0  0  0  0  0
    0.8703    0.6338    0.9000 C   0  0  0  0  0  0  0  0  0  0  0  0
    1.4364    0.2362   -0.4580 C   0  0  0  0  0  0  0  0  0  0  0  0
    0.2922   -0.6074   -1.0027 C   0  0  0  0  0  0  0  0  0  0  0  0
   -1.0469    0.0313   -0.6977 C   0  0  0  0  0  0  0  0  0  0  0  0
   -1.1003   -0.7515    0.5842 C   0  0  0  0  0  0  0  0  0  0  0  0
    0.1750   -0.6549    1.3266 C   0  0  0  0  0  0  0  0  0  0  0  0
    0.0529   -1.5246    0.1588 C   0  0  0  0  0  0  0  0  0  0  0  0
   -0.4999    2.0088   -1.2789 H   0  0  0  0  0  0  0  0  0  0  0  0
   -1.9018    1.9009   -0.1734 H   0  0  0  0  0  0  0  0  0  0  0  0
    1.6310    0.9631    1.6040 H   0  0  0  0  0  0  0  0  0  0  0  0
    2.2771   -0.4578   -0.2410 H   0  0  0  0  0  0  0  0  0  0  0  0
    1.6905    1.0819   -1.0863 H   0  0  0  0  0  0  0  0  0  0  0  0
    0.4268   -1.0371   -1.9828 H   0  0  0  0  0  0  0  0  0  0  0  0
   -1.8412   -0.1895   -1.4251 H   0  0  0  0  0  0  0  0  0  0  0  0
   -2.0221   -1.1427    0.9900 H   0  0  0  0  0  0  0  0  0  0  0  0
    0.3114   -1.0469    2.3284 H   0  0  0  0  0  0  0  0  0  0  0  0
    0.1646   -2.5855    0.1184 H   0  0  0  0  0  0  0  0  0  0  0  0
  1  2  1  0
  2  3  1  0
  3  4  1  0
  4  5  1  0
  5  6  1  0
  6  7  1  0
  7  8  1  0
  8  9  1  0
  6  1  1  0
  9  7  1  0
  8  3  1  0
  9  5  1  0
  1 10  1  0
  1 11  1  0
  3 12  1  0
  4 13  1  0
  4 14  1  0
  5 15  1  0
  6 16  1  0
  7 17  1  0
  8 18  1  0
  9 19  1  0
M  END
