
     RDKit          3D

 19 21  0  0  0  0  0  0  0  0999 V2000
   -1.9149    0.1069    0.0615 C   0  0  0  0  0  0  0  0  0  0  0  0
   -1.4103   -1.0848    0.4886 O   0  0  0  0  0  0  0  0  0  0  0  0
   -0.0653   -1.2103    0.4504 C   0  0  0  0  0  0  0  0  0  0  0  0
    0.7233   -0.0219    0.9042 C   0  0  0  0  0  0  0  0  0  0  0  0
    0.1638    1.2925    0.4015 C   0  0  0  0  0  0  0  0  0  0  0  0
   -0.8398    0.8915   -0.6898 C   0  0  0  0  0  0  0  0  0  0  0  0
   -0.1371    0.0702   -1.5681 O   0  0  0  0  0  0  0  0  0  0  0  0
    0.5373   -0.9545   -0.9372 C   0  0  0  0  0  0  0  0  0  0  0  0
    1.7556   -0.4353   -0.1606 C   0  0  0  0  0  0  0  0  0  0  0  0
   -2.1295    0.7282    0.9794 H   0  0  0  0  0  0  0  0  0  0  0  0
   -2.8463    0.0180   -0.5383 H   0  0  0  0  0  0  0  0  0  0  0  0
    0.3264   -2.1303    0.8730 H   0  0  0  0  0  0  0  0  0  0  0  0
    1.0836   -0.0431    1.9257 H   0  0  0  0  0  0  0  0  0  0  0  0
    0.9734    1.8603   -0.1203 H   0  0  0  0  0  0  0  0  0  0  0  0
   -0.2911    1.9047    1.1764 H   0  0  0  0  0  0  0  0  0  0  0  0
   -1.2366    1.7491   -1.2255 H   0  0  0  0  0  0  0  0  0  0  0  0
    0.7027   -1.8721   -1.4926 H   0  0  0  0  0  0  0  0  0  0  0  0
    2.3829   -1.2713    0.1546 H   0  0  0  0  0  0  0  0  0  0  0  0
    2.2219    0.4022   -0.6828 H   0  0  0  0  0  0  0  0  0  0  0  0
  1  2  1  0
  2  3  1  0
  3  4  1  0
  4  5  1  0
  5  6  1  0
  6  7  1  0
  7  8  1  0
  8  9  1  0
  6  1  1  0
  8  3  1  0
  9  4  1  0
  1 10  1  0
  1 11  1  0
  3 12  1  0
  4 13  1  0
  5 14  1  0
  5 15  1  0
  6 16  1  0
  8 17  1  0
  9 18  1  0
  9 19  1  0
M  END
