
     RDKit          3D

 19 21  0  0  0  0  0  0  0  0999 V2000
    1.9476   -0.4231    0.0075 C   0  0  0  0  0  0  0  0  0  0  0  0
    1.0265   -0.3699    1.0005 O   0  0  0  0  0  0  0  0  0  0  0  0
    0.0365    0.5883    0.9059 C   0  0  0  0  0  0  0  0  0  0  0  0
    0.3934    1.3059   -0.4234 C   0  0  0  0  0  0  0  0  0  0  0  0
    0.1451    0.0313   -1.2593 C   0  0  0  0  0  0  0  0  0  0  0  0
    1.4762   -0.4756   -1.3128 O   0  0  0  0  0  0  0  0  0  0  0  0
   -0.6781   -0.8868   -0.4765 C   0  0  0  0  0  0  0  0  0  0  0  0
   -2.0057   -0.9533   -0.0623 C   0  0  0  0  0  0  0  0  0  0  0  0
   -1.3154    0.1486    0.5315 C   0  0  0  0  0  0  0  0  0  0  0  0
    2.7806    0.3356    0.1075 H   0  0  0  0  0  0  0  0  0  0  0  0
    2.4958   -1.4068    0.1384 H   0  0  0  0  0  0  0  0  0  0  0  0
   -0.0004    1.3081    1.7193 H   0  0  0  0  0  0  0  0  0  0  0  0
    1.3778    1.7006   -0.4526 H   0  0  0  0  0  0  0  0  0  0  0  0
   -0.4289    2.0166   -0.6312 H   0  0  0  0  0  0  0  0  0  0  0  0
   -0.1995    0.2852   -2.2696 H   0  0  0  0  0  0  0  0  0  0  0  0
   -0.0507   -1.6601    0.0902 H   0  0  0  0  0  0  0  0  0  0  0  0
   -2.7595   -0.8929   -0.9080 H   0  0  0  0  0  0  0  0  0  0  0  0
   -2.4032   -1.7164    0.6538 H   0  0  0  0  0  0  0  0  0  0  0  0
   -1.8381    1.0648    0.1182 H   0  0  0  0  0  0  0  0  0  0  0  0
  1  2  1  0
  2  3  1  0
  3  4  1  0
  4  5  1  0
  5  6  1  0
  5  7  1  0
  7  8  1  0
  8  9  1  0
  6  1  1  0
  9  7  1  0
  9  3  1  0
  1 10  1  0
  1 11  1  0
  3 12  1  0
  4 13  1  0
  4 14  1  0
  5 15  1  0
  7 16  1  0
  8 17  1  0
  8 18  1  0
  9 19  1  0
M  END
