
     RDKit          2D

 19 22  0  0  0  0  0  0  0  0999 V2000
   -0.0880   -1.4842    0.0000 C   0  0  0  0  0  0  0  0  0  0  0  0
   -0.2546   -0.7837    0.0000 O   0  0  0  0  0  0  0  0  0  0  0  0
   -0.8013   -1.2525    0.0000 C   0  0  0  0  0  0  0  0  0  0  0  0
   -1.0323   -0.7500    0.0000 C   0  0  0  0  0  0  0  0  0  0  0  0
   -1.4958   -2.1766    0.0000 C   0  0  0  0  0  0  0  0  0  0  0  0
   -0.0692   -2.6401    0.0000 C   0  0  0  0  0  0  0  0  0  0  0  0
   -0.5688    0.6766    0.0000 C   0  0  0  0  0  0  0  0  0  0  0  0
    0.8578    0.2131    0.0000 C   0  0  0  0  0  0  0  0  0  0  0  0
    0.3943   -1.2135    0.0000 C   0  0  0  0  0  0  0  0  0  0  0  0
    2.3907    1.0037    0.0000 H   0  0  0  0  0  0  0  0  0  0  0  0
    2.2600   -1.1321    0.0000 H   0  0  0  0  0  0  0  0  0  0  0  0
   -2.5241    0.5932    0.0000 H   0  0  0  0  0  0  0  0  0  0  0  0
   -1.5207    2.1683    0.0000 H   0  0  0  0  0  0  0  0  0  0  0  0
   -1.9593   -3.6032    0.0000 H   0  0  0  0  0  0  0  0  0  0  0  0
   -2.9224   -1.7131    0.0000 H   0  0  0  0  0  0  0  0  0  0  0  0
    0.6118   -3.9766    0.0000 H   0  0  0  0  0  0  0  0  0  0  0  0
   -1.0818    2.0861    0.0000 H   0  0  0  0  0  0  0  0  0  0  0  0
    2.3303   -0.0731    0.0000 H   0  0  0  0  0  0  0  0  0  0  0  0
    1.3213    1.6396    0.0000 H   0  0  0  0  0  0  0  0  0  0  0  0
  1  2  1  0
  2  3  1  0
  3  4  1  0
  4  5  1  0
  5  6  1  0
  6  7  1  0
  7  8  1  0
  8  9  1  0
  9  1  1  0
  7  4  1  0
  9  4  1  0
  9  6  1  0
  1 10  1  0
  1 11  1  0
  3 12  1  0
  3 13  1  0
  5 14  1  0
  5 15  1  0
  6 16  1  0
  7 17  1  0
  8 18  1  0
  8 19  1  0
M  END
