
     RDKit          3D

 19 21  0  0  0  0  0  0  0  0999 V2000
    2.2218    0.0409    0.8691 C   0  0  0  0  0  0  0  0  0  0  0  0
    1.8637    0.4211   -0.4381 O   0  0  0  0  0  0  0  0  0  0  0  0
    0.7327   -0.3234   -0.6458 C   0  0  0  0  0  0  0  0  0  0  0  0
   -0.4386    0.4262   -1.1732 C   0  0  0  0  0  0  0  0  0  0  0  0
   -1.5785   -0.5352   -0.7919 C   0  0  0  0  0  0  0  0  0  0  0  0
   -1.1914   -0.1193    0.6269 C   0  0  0  0  0  0  0  0  0  0  0  0
   -0.9767    1.2574   -0.0049 C   0  0  0  0  0  0  0  0  0  0  0  0
    0.1941   -0.6359    0.7660 C   0  0  0  0  0  0  0  0  0  0  0  0
    0.9864    0.2280    1.5219 O   0  0  0  0  0  0  0  0  0  0  0  0
    3.0110    0.6595    1.2869 H   0  0  0  0  0  0  0  0  0  0  0  0
    2.4109   -1.0551    0.9267 H   0  0  0  0  0  0  0  0  0  0  0  0
    0.8838   -1.2536   -1.2072 H   0  0  0  0  0  0  0  0  0  0  0  0
   -0.4546    0.8473   -2.1405 H   0  0  0  0  0  0  0  0  0  0  0  0
   -2.5242   -0.1013   -1.1432 H   0  0  0  0  0  0  0  0  0  0  0  0
   -1.3633   -1.5755   -1.0429 H   0  0  0  0  0  0  0  0  0  0  0  0
   -1.9115   -0.2129    1.3944 H   0  0  0  0  0  0  0  0  0  0  0  0
   -0.2383    1.8793    0.4896 H   0  0  0  0  0  0  0  0  0  0  0  0
   -1.9285    1.7305   -0.3188 H   0  0  0  0  0  0  0  0  0  0  0  0
    0.3012   -1.6780    1.0248 H   0  0  0  0  0  0  0  0  0  0  0  0
  1  2  1  0
  2  3  1  0
  3  4  1  0
  4  5  1  0
  5  6  1  0
  6  7  1  0
  6  8  1  0
  8  9  1  0
  9  1  1  0
  8  3  1  0
  7  4  1  0
  1 10  1  0
  1 11  1  0
  3 12  1  0
  4 13  1  0
  5 14  1  0
  5 15  1  0
  6 16  1  0
  7 17  1  0
  7 18  1  0
  8 19  1  0
M  END
