
     RDKit          3D

 16 18  0  0  0  0  0  0  0  0999 V2000
    2.1798    0.2822   -0.0183 C   0  0  0  0  0  0  0  0  0  0  0  0
    1.6420    0.5558   -1.3296 O   0  0  0  0  0  0  0  0  0  0  0  0
    0.9637   -0.3827   -0.5462 C   0  0  0  0  0  0  0  0  0  0  0  0
   -0.3251   -0.0519    0.0916 C   0  0  0  0  0  0  0  0  0  0  0  0
   -0.8641    1.3455    0.1204 C   0  0  0  0  0  0  0  0  0  0  0  0
   -2.1153    0.8158   -0.2464 O   0  0  0  0  0  0  0  0  0  0  0  0
   -1.6372   -0.4819   -0.3597 C   0  0  0  0  0  0  0  0  0  0  0  0
   -1.0292   -1.1480    0.8084 C   0  0  0  0  0  0  0  0  0  0  0  0
    2.0465    1.1591    0.6365 H   0  0  0  0  0  0  0  0  0  0  0  0
    3.1356   -0.2778   -0.0007 H   0  0  0  0  0  0  0  0  0  0  0  0
    1.0944   -1.4337   -0.9051 H   0  0  0  0  0  0  0  0  0  0  0  0
   -0.4422    1.9893   -0.6858 H   0  0  0  0  0  0  0  0  0  0  0  0
   -0.8239    1.7527    1.1381 H   0  0  0  0  0  0  0  0  0  0  0  0
   -1.8454   -1.0877   -1.2436 H   0  0  0  0  0  0  0  0  0  0  0  0
   -1.3359   -0.8764    1.8588 H   0  0  0  0  0  0  0  0  0  0  0  0
   -0.6437   -2.1602    0.6816 H   0  0  0  0  0  0  0  0  0  0  0  0
  1  2  1  0
  2  3  1  0
  3  4  1  0
  4  5  1  0
  5  6  1  0
  6  7  1  0
  7  8  1  0
  3  1  1  0
  7  4  1  0
  8  4  1  0
  1  9  1  0
  1 10  1  0
  3 11  1  0
  5 12  1  0
  5 13  1  0
  7 14  1  0
  8 15  1  0
  8 16  1  0
M  END
