
     RDKit          3D

 18 19  0  0  0  0  0  0  0  0999 V2000
    1.3989    1.2505    0.3463 C   0  0  0  0  0  0  0  0  0  0  0  0
    2.2963    0.2237    0.6582 O   0  0  0  0  0  0  0  0  0  0  0  0
    1.8696   -0.5033   -0.4621 C   0  0  0  0  0  0  0  0  0  0  0  0
    0.5705    0.2220   -0.4339 C   0  0  0  0  0  0  0  0  0  0  0  0
   -0.5077   -0.3130    0.4422 C   0  0  0  0  0  0  0  0  0  0  0  0
   -1.4329   -1.3318   -0.1168 C   0  0  0  0  0  0  0  0  0  0  0  0
   -2.4704   -0.6645    0.5814 O   0  0  0  0  0  0  0  0  0  0  0  0
   -1.7841    0.5167    0.2442 C   0  0  0  0  0  0  0  0  0  0  0  0
    0.8553    1.6625    1.2396 H   0  0  0  0  0  0  0  0  0  0  0  0
    1.8092    2.0584   -0.2660 H   0  0  0  0  0  0  0  0  0  0  0  0
    2.4585   -0.2062   -1.3739 H   0  0  0  0  0  0  0  0  0  0  0  0
    1.8331   -1.5928   -0.2706 H   0  0  0  0  0  0  0  0  0  0  0  0
    0.2410    0.7117   -1.3738 H   0  0  0  0  0  0  0  0  0  0  0  0
   -0.2978   -0.4519    1.4951 H   0  0  0  0  0  0  0  0  0  0  0  0
   -1.3524   -2.3606    0.3291 H   0  0  0  0  0  0  0  0  0  0  0  0
   -1.6559   -1.3005   -1.1823 H   0  0  0  0  0  0  0  0  0  0  0  0
   -1.8517    1.3252    0.9628 H   0  0  0  0  0  0  0  0  0  0  0  0
   -1.9796    0.7539   -0.8194 H   0  0  0  0  0  0  0  0  0  0  0  0
  1  2  1  0
  2  3  1  0
  3  4  1  0
  4  5  1  0
  5  6  1  0
  6  7  1  0
  7  8  1  0
  4  1  1  0
  8  5  1  0
  1  9  1  0
  1 10  1  0
  3 11  1  0
  3 12  1  0
  4 13  1  0
  5 14  1  0
  6 15  1  0
  6 16  1  0
  8 17  1  0
  8 18  1  0
M  END
