
     RDKit          3D

 19 21  0  0  0  0  0  0  0  0999 V2000
    2.4840    0.4191    0.5075 C   0  0  0  0  0  0  0  0  0  0  0  0
    3.0358   -0.3968   -0.6295 O   0  0  0  0  0  0  0  0  0  0  0  0
    1.7535    0.1922   -0.6992 C   0  0  0  0  0  0  0  0  0  0  0  0
    0.6171   -0.7814   -0.7430 C   0  0  0  0  0  0  0  0  0  0  0  0
   -0.4761   -0.4066    0.2117 C   0  0  0  0  0  0  0  0  0  0  0  0
   -1.1381    0.9039    0.0366 C   0  0  0  0  0  0  0  0  0  0  0  0
   -2.3028    0.3449    0.8046 C   0  0  0  0  0  0  0  0  0  0  0  0
   -1.8791   -0.6711   -0.2182 C   0  0  0  0  0  0  0  0  0  0  0  0
   -1.7426    0.3850   -1.0992 O   0  0  0  0  0  0  0  0  0  0  0  0
    2.2963   -0.2131    1.3955 H   0  0  0  0  0  0  0  0  0  0  0  0
    3.1324    1.3136    0.5928 H   0  0  0  0  0  0  0  0  0  0  0  0
    1.6452    1.0546   -1.4164 H   0  0  0  0  0  0  0  0  0  0  0  0
    0.9907   -1.7755   -0.4254 H   0  0  0  0  0  0  0  0  0  0  0  0
    0.2516   -0.8216   -1.8065 H   0  0  0  0  0  0  0  0  0  0  0  0
   -0.2690   -0.6721    1.2531 H   0  0  0  0  0  0  0  0  0  0  0  0
   -0.7480    1.8277    0.1382 H   0  0  0  0  0  0  0  0  0  0  0  0
   -2.0634    0.0296    1.8418 H   0  0  0  0  0  0  0  0  0  0  0  0
   -3.2728    0.8311    0.6492 H   0  0  0  0  0  0  0  0  0  0  0  0
   -2.3146   -1.5636   -0.3937 H   0  0  0  0  0  0  0  0  0  0  0  0
  1  2  1  0
  2  3  1  0
  3  4  1  0
  4  5  1  0
  5  6  1  0
  6  7  1  0
  7  8  1  0
  8  9  1  0
  3  1  1  0
  8  5  1  0
  9  6  1  0
  1 10  1  0
  1 11  1  0
  3 12  1  0
  4 13  1  0
  4 14  1  0
  5 15  1  0
  6 16  1  0
  7 17  1  0
  7 18  1  0
  8 19  1  0
M  END
