
     RDKit          3D

 21 23  0  0  0  0  0  0  0  0999 V2000
   -1.1034    0.9207    1.2054 C   0  0  0  0  0  0  0  0  0  0  0  0
   -1.7298   -0.3121    1.2155 O   0  0  0  0  0  0  0  0  0  0  0  0
   -1.4944   -0.9343    0.0023 C   0  0  0  0  0  0  0  0  0  0  0  0
   -1.3841    0.2509   -0.9718 C   0  0  0  0  0  0  0  0  0  0  0  0
   -0.3404    0.9804   -0.0998 C   0  0  0  0  0  0  0  0  0  0  0  0
    0.7135   -0.0729   -0.0780 C   0  0  0  0  0  0  0  0  0  0  0  0
    1.9886    0.0321    0.5996 C   0  0  0  0  0  0  0  0  0  0  0  0
    1.8938    0.1097   -0.9029 C   0  0  0  0  0  0  0  0  0  0  0  0
   -0.0415   -1.3832    0.0079 C   0  0  0  0  0  0  0  0  0  0  0  0
   -1.8925    1.7241    1.2027 H   0  0  0  0  0  0  0  0  0  0  0  0
   -0.4538    1.1177    2.0521 H   0  0  0  0  0  0  0  0  0  0  0  0
   -2.1999   -1.6752   -0.2994 H   0  0  0  0  0  0  0  0  0  0  0  0
   -0.9375   -0.1114   -1.8964 H   0  0  0  0  0  0  0  0  0  0  0  0
   -2.3086    0.8078   -1.0565 H   0  0  0  0  0  0  0  0  0  0  0  0
   -0.0803    1.9509   -0.4556 H   0  0  0  0  0  0  0  0  0  0  0  0
    2.4671   -0.9216    0.9489 H   0  0  0  0  0  0  0  0  0  0  0  0
    2.2013    0.9129    1.2035 H   0  0  0  0  0  0  0  0  0  0  0  0
    2.3507   -0.6445   -1.5419 H   0  0  0  0  0  0  0  0  0  0  0  0
    2.0722    1.1582   -1.2847 H   0  0  0  0  0  0  0  0  0  0  0  0
    0.1313   -2.0407   -0.8437 H   0  0  0  0  0  0  0  0  0  0  0  0
    0.1476   -1.8696    0.9928 H   0  0  0  0  0  0  0  0  0  0  0  0
  1  2  1  0
  2  3  1  0
  3  4  1  0
  4  5  1  0
  5  6  1  0
  6  7  1  0
  7  8  1  0
  6  9  1  0
  5  1  1  0
  8  6  1  0
  9  3  1  0
  1 10  1  0
  1 11  1  0
  3 12  1  0
  4 13  1  0
  4 14  1  0
  5 15  1  0
  7 16  1  0
  7 17  1  0
  8 18  1  0
  8 19  1  0
  9 20  1  0
  9 21  1  0
M  END
