
     RDKit          3D

 19 21  0  0  0  0  0  0  0  0999 V2000
   -1.5155    1.0366   -0.2511 C   0  0  0  0  0  0  0  0  0  0  0  0
   -1.4887   -0.1542   -0.9740 O   0  0  0  0  0  0  0  0  0  0  0  0
   -1.1688   -1.2445   -0.2242 C   0  0  0  0  0  0  0  0  0  0  0  0
   -0.0628   -1.1055    0.7396 C   0  0  0  0  0  0  0  0  0  0  0  0
    1.3031   -0.6893    0.3983 C   0  0  0  0  0  0  0  0  0  0  0  0
    1.6627    0.1460   -0.7751 C   0  0  0  0  0  0  0  0  0  0  0  0
    0.6646    1.0424   -1.0291 O   0  0  0  0  0  0  0  0  0  0  0  0
   -0.0449    1.2863    0.1192 C   0  0  0  0  0  0  0  0  0  0  0  0
    0.3171    0.2555    1.1414 C   0  0  0  0  0  0  0  0  0  0  0  0
   -2.1516    0.9992    0.6297 H   0  0  0  0  0  0  0  0  0  0  0  0
   -1.7783    1.8399   -0.9729 H   0  0  0  0  0  0  0  0  0  0  0  0
   -2.0977   -1.5416    0.3401 H   0  0  0  0  0  0  0  0  0  0  0  0
   -0.9722   -2.0956   -0.9111 H   0  0  0  0  0  0  0  0  0  0  0  0
   -0.0979   -1.8768    1.5670 H   0  0  0  0  0  0  0  0  0  0  0  0
    2.1710   -1.0560    0.9892 H   0  0  0  0  0  0  0  0  0  0  0  0
    2.5793    0.7423   -0.4971 H   0  0  0  0  0  0  0  0  0  0  0  0
    1.9510   -0.4191   -1.6791 H   0  0  0  0  0  0  0  0  0  0  0  0
    0.0925    2.2992    0.5254 H   0  0  0  0  0  0  0  0  0  0  0  0
    0.6368    0.5353    2.1439 H   0  0  0  0  0  0  0  0  0  0  0  0
  1  2  1  0
  2  3  1  0
  3  4  1  0
  4  5  1  0
  5  6  1  0
  6  7  1  0
  7  8  1  0
  8  9  1  0
  8  1  1  0
  9  4  1  0
  9  5  1  0
  1 10  1  0
  1 11  1  0
  3 12  1  0
  3 13  1  0
  4 14  1  0
  5 15  1  0
  6 16  1  0
  6 17  1  0
  8 18  1  0
  9 19  1  0
M  END
