
     RDKit          3D

 17 20  0  0  0  0  0  0  0  0999 V2000
   -1.8841    0.2641    0.4317 C   0  0  0  0  0  0  0  0  0  0  0  0
   -1.2675   -0.6327    1.3269 O   0  0  0  0  0  0  0  0  0  0  0  0
   -0.4191   -1.0942    0.3589 C   0  0  0  0  0  0  0  0  0  0  0  0
   -0.9216   -0.0987   -0.6347 C   0  0  0  0  0  0  0  0  0  0  0  0
    0.2216    0.8597   -0.8762 C   0  0  0  0  0  0  0  0  0  0  0  0
    0.5374    1.5940    0.2840 O   0  0  0  0  0  0  0  0  0  0  0  0
    1.4401    0.6346    0.7124 C   0  0  0  0  0  0  0  0  0  0  0  0
    1.0550   -0.7960    0.5617 C   0  0  0  0  0  0  0  0  0  0  0  0
    1.4115    0.0055   -0.6058 C   0  0  0  0  0  0  0  0  0  0  0  0
   -2.9272   -0.1005    0.2140 H   0  0  0  0  0  0  0  0  0  0  0  0
   -1.9147    1.3095    0.7714 H   0  0  0  0  0  0  0  0  0  0  0  0
   -0.5830   -2.1259   -0.0146 H   0  0  0  0  0  0  0  0  0  0  0  0
   -1.3024   -0.4772   -1.5837 H   0  0  0  0  0  0  0  0  0  0  0  0
    0.2029    1.4263   -1.8041 H   0  0  0  0  0  0  0  0  0  0  0  0
    2.4178    0.9128    1.1211 H   0  0  0  0  0  0  0  0  0  0  0  0
    1.7031   -1.5410    1.0114 H   0  0  0  0  0  0  0  0  0  0  0  0
    2.2303   -0.1400   -1.2743 H   0  0  0  0  0  0  0  0  0  0  0  0
  1  2  1  0
  2  3  1  0
  3  4  1  0
  4  5  1  0
  5  6  1  0
  6  7  1  0
  7  8  1  0
  8  9  1  0
  4  1  1  0
  9  5  1  0
  8  3  1  0
  9  7  1  0
  1 10  1  0
  1 11  1  0
  3 12  1  0
  4 13  1  0
  5 14  1  0
  7 15  1  0
  8 16  1  0
  9 17  1  0
M  END
