
     RDKit          3D

 17 20  0  0  0  0  0  0  0  0999 V2000
    2.3471   -0.5361   -0.2229 C   0  0  0  0  0  0  0  0  0  0  0  0
    2.6323    0.4060    0.7705 O   0  0  0  0  0  0  0  0  0  0  0  0
    1.5029    0.7099    0.0067 C   0  0  0  0  0  0  0  0  0  0  0  0
    0.1522    0.4511    0.5676 C   0  0  0  0  0  0  0  0  0  0  0  0
   -0.2072    1.0984    1.7400 O   0  0  0  0  0  0  0  0  0  0  0  0
   -0.9772    1.2352    0.6163 C   0  0  0  0  0  0  0  0  0  0  0  0
   -1.8823    0.0418    0.3187 C   0  0  0  0  0  0  0  0  0  0  0  0
   -1.6507   -0.6489   -0.9572 C   0  0  0  0  0  0  0  0  0  0  0  0
   -0.6175   -0.7476    0.0966 C   0  0  0  0  0  0  0  0  0  0  0  0
    2.9910   -0.5451   -1.1426 H   0  0  0  0  0  0  0  0  0  0  0  0
    1.9632   -1.5072    0.1634 H   0  0  0  0  0  0  0  0  0  0  0  0
    1.5809    1.5109   -0.7606 H   0  0  0  0  0  0  0  0  0  0  0  0
   -1.1151    2.1695    0.0888 H   0  0  0  0  0  0  0  0  0  0  0  0
   -2.5371   -0.3443    1.1101 H   0  0  0  0  0  0  0  0  0  0  0  0
   -1.5057   -0.0372   -1.8689 H   0  0  0  0  0  0  0  0  0  0  0  0
   -2.2386   -1.5645   -1.1343 H   0  0  0  0  0  0  0  0  0  0  0  0
   -0.4382   -1.6918    0.6076 H   0  0  0  0  0  0  0  0  0  0  0  0
  1  2  1  0
  2  3  1  0
  3  4  1  0
  4  5  1  0
  5  6  1  0
  6  7  1  0
  7  8  1  0
  8  9  1  0
  3  1  1  0
  6  4  1  0
  9  7  1  0
  9  4  1  0
  1 10  1  0
  1 11  1  0
  3 12  1  0
  6 13  1  0
  7 14  1  0
  8 15  1  0
  8 16  1  0
  9 17  1  0
M  END
