
     RDKit          3D

 19 21  0  0  0  0  0  0  0  0999 V2000
    0.9561   -1.4206   -0.2202 C   0  0  0  0  0  0  0  0  0  0  0  0
   -0.1885   -1.4323    0.6110 O   0  0  0  0  0  0  0  0  0  0  0  0
   -0.7465   -0.1702    0.4993 C   0  0  0  0  0  0  0  0  0  0  0  0
   -1.6126   -0.0086   -0.7444 C   0  0  0  0  0  0  0  0  0  0  0  0
   -2.1615    0.1135    0.6463 C   0  0  0  0  0  0  0  0  0  0  0  0
    0.3233    0.8432    0.7354 C   0  0  0  0  0  0  0  0  0  0  0  0
    1.2585    1.0000   -0.4571 C   0  0  0  0  0  0  0  0  0  0  0  0
    1.8146   -0.2549    0.1858 C   0  0  0  0  0  0  0  0  0  0  0  0
    1.3998    0.2791    1.4208 O   0  0  0  0  0  0  0  0  0  0  0  0
    1.4773   -2.3802   -0.2173 H   0  0  0  0  0  0  0  0  0  0  0  0
    0.5618   -1.1976   -1.2446 H   0  0  0  0  0  0  0  0  0  0  0  0
   -1.3809    0.8875   -1.3444 H   0  0  0  0  0  0  0  0  0  0  0  0
   -1.8734   -0.9097   -1.3317 H   0  0  0  0  0  0  0  0  0  0  0  0
   -2.4248    1.1481    1.0130 H   0  0  0  0  0  0  0  0  0  0  0  0
   -2.9108   -0.6260    0.9266 H   0  0  0  0  0  0  0  0  0  0  0  0
   -0.0834    1.7699    1.1439 H   0  0  0  0  0  0  0  0  0  0  0  0
    1.8992    1.8748   -0.2964 H   0  0  0  0  0  0  0  0  0  0  0  0
    0.7900    0.8739   -1.4364 H   0  0  0  0  0  0  0  0  0  0  0  0
    2.9016   -0.3898    0.1105 H   0  0  0  0  0  0  0  0  0  0  0  0
  1  2  1  0
  2  3  1  0
  3  4  1  0
  4  5  1  0
  3  6  1  0
  6  7  1  0
  7  8  1  0
  8  9  1  0
  8  1  1  0
  5  3  1  0
  9  6  1  0
  1 10  1  0
  1 11  1  0
  4 12  1  0
  4 13  1  0
  5 14  1  0
  5 15  1  0
  6 16  1  0
  7 17  1  0
  7 18  1  0
  8 19  1  0
M  END
