
     RDKit          3D

 14 15  0  0  0  0  0  0  0  0999 V2000
    1.3465    1.3406    0.0299 C   0  0  0  0  0  0  0  0  0  0  0  0
    2.3918    0.5403   -0.0395 O   0  0  0  0  0  0  0  0  0  0  0  0
    1.9938   -0.7005   -0.1941 C   0  0  0  0  0  0  0  0  0  0  0  0
    0.6143   -0.7115   -0.2275 C   0  0  0  0  0  0  0  0  0  0  0  0
    0.2044    0.5932   -0.0842 C   0  0  0  0  0  0  0  0  0  0  0  0
   -1.2649    0.5916   -0.1181 C   0  0  0  0  0  0  0  0  0  0  0  0
   -1.5576   -0.8507    0.3066 C   0  0  0  0  0  0  0  0  0  0  0  0
   -0.5149   -1.5437   -0.3514 O   0  0  0  0  0  0  0  0  0  0  0  0
    1.3532    2.4329    0.1581 H   0  0  0  0  0  0  0  0  0  0  0  0
    2.6872   -1.5255   -0.2746 H   0  0  0  0  0  0  0  0  0  0  0  0
   -1.5985    0.6632   -1.1774 H   0  0  0  0  0  0  0  0  0  0  0  0
   -1.7428    1.3232    0.5387 H   0  0  0  0  0  0  0  0  0  0  0  0
   -2.5537   -1.1734    0.0226 H   0  0  0  0  0  0  0  0  0  0  0  0
   -1.3587   -0.9796    1.4109 H   0  0  0  0  0  0  0  0  0  0  0  0
  1  2  1  0
  2  3  1  0
  3  4  2  0
  4  5  1  0
  5  6  1  0
  6  7  1  0
  7  8  1  0
  5  1  2  0
  8  4  1  0
  1  9  1  0
  3 10  1  0
  6 11  1  0
  6 12  1  0
  7 13  1  0
  7 14  1  0
M  END
