
     RDKit          3D

 18 20  0  0  0  0  0  0  0  0999 V2000
   -1.4217    0.9924    0.7390 C   0  0  0  0  0  0  0  0  0  0  0  0
   -1.2332    1.3493   -0.6209 O   0  0  0  0  0  0  0  0  0  0  0  0
   -0.4715    0.3144   -1.1404 C   0  0  0  0  0  0  0  0  0  0  0  0
   -1.2001   -0.9133   -0.5557 C   0  0  0  0  0  0  0  0  0  0  0  0
   -0.6645   -0.3037    0.7511 C   0  0  0  0  0  0  0  0  0  0  0  0
    0.5175    0.0274   -0.0886 C   0  0  0  0  0  0  0  0  0  0  0  0
    1.7194    0.6677    0.2554 C   0  0  0  0  0  0  0  0  0  0  0  0
    1.6580   -0.8428   -0.1516 C   0  0  0  0  0  0  0  0  0  0  0  0
   -2.4824    0.8714    0.9822 H   0  0  0  0  0  0  0  0  0  0  0  0
   -0.8895    1.6950    1.4123 H   0  0  0  0  0  0  0  0  0  0  0  0
   -0.2432    0.2902   -2.1731 H   0  0  0  0  0  0  0  0  0  0  0  0
   -2.2703   -0.9034   -0.6689 H   0  0  0  0  0  0  0  0  0  0  0  0
   -0.6240   -1.8012   -0.7951 H   0  0  0  0  0  0  0  0  0  0  0  0
   -0.6117   -0.9119    1.6031 H   0  0  0  0  0  0  0  0  0  0  0  0
    2.2729    1.2883   -0.4716 H   0  0  0  0  0  0  0  0  0  0  0  0
    2.0370    0.8495    1.3200 H   0  0  0  0  0  0  0  0  0  0  0  0
    2.1030   -1.1112   -1.1067 H   0  0  0  0  0  0  0  0  0  0  0  0
    1.8045   -1.5581    0.7096 H   0  0  0  0  0  0  0  0  0  0  0  0
  1  2  1  0
  2  3  1  0
  3  4  1  0
  4  5  1  0
  5  6  1  0
  6  7  1  0
  7  8  1  0
  5  1  1  0
  8  6  1  0
  6  3  1  0
  1  9  1  0
  1 10  1  0
  3 11  1  0
  4 12  1  0
  4 13  1  0
  5 14  1  0
  7 15  1  0
  7 16  1  0
  8 17  1  0
  8 18  1  0
M  END
