
     RDKit          3D

 21 23  0  0  0  0  0  0  0  0999 V2000
   -1.9971    0.0617   -0.4742 C   0  0  0  0  0  0  0  0  0  0  0  0
   -1.3491   -1.1874   -0.5093 O   0  0  0  0  0  0  0  0  0  0  0  0
   -0.9077   -1.3106    0.8123 C   0  0  0  0  0  0  0  0  0  0  0  0
   -0.1587   -0.0114    1.0199 C   0  0  0  0  0  0  0  0  0  0  0  0
   -1.0584    0.9650    0.2583 C   0  0  0  0  0  0  0  0  0  0  0  0
    0.1106    1.3555   -0.6443 C   0  0  0  0  0  0  0  0  0  0  0  0
    0.8476    0.2211   -0.0429 C   0  0  0  0  0  0  0  0  0  0  0  0
    1.5433   -0.8271   -0.7501 C   0  0  0  0  0  0  0  0  0  0  0  0
    2.2843    0.1684    0.1084 C   0  0  0  0  0  0  0  0  0  0  0  0
   -2.9602    0.0123    0.0575 H   0  0  0  0  0  0  0  0  0  0  0  0
   -2.1229    0.4258   -1.5273 H   0  0  0  0  0  0  0  0  0  0  0  0
   -0.2381   -2.1881    0.9439 H   0  0  0  0  0  0  0  0  0  0  0  0
   -1.7789   -1.3782    1.4902 H   0  0  0  0  0  0  0  0  0  0  0  0
    0.0722    0.2642    2.0438 H   0  0  0  0  0  0  0  0  0  0  0  0
   -1.4700    1.7549    0.8723 H   0  0  0  0  0  0  0  0  0  0  0  0
    0.5816    2.3319   -0.3712 H   0  0  0  0  0  0  0  0  0  0  0  0
   -0.1705    1.2947   -1.7066 H   0  0  0  0  0  0  0  0  0  0  0  0
    1.7259   -0.8606   -1.8395 H   0  0  0  0  0  0  0  0  0  0  0  0
    1.4604   -1.8684   -0.3211 H   0  0  0  0  0  0  0  0  0  0  0  0
    2.7021   -0.1284    1.0785 H   0  0  0  0  0  0  0  0  0  0  0  0
    2.8833    0.9047   -0.4986 H   0  0  0  0  0  0  0  0  0  0  0  0
  1  2  1  0
  2  3  1  0
  3  4  1  0
  4  5  1  0
  5  6  1  0
  6  7  1  0
  7  8  1  0
  8  9  1  0
  5  1  1  0
  9  7  1  0
  7  4  1  0
  1 10  1  0
  1 11  1  0
  3 12  1  0
  3 13  1  0
  4 14  1  0
  5 15  1  0
  6 16  1  0
  6 17  1  0
  8 18  1  0
  8 19  1  0
  9 20  1  0
  9 21  1  0
M  END
