
     RDKit          3D

 19 21  0  0  0  0  0  0  0  0999 V2000
    2.2138    1.0924   -0.3427 C   0  0  0  0  0  0  0  0  0  0  0  0
    1.9195   -0.1162   -1.0025 O   0  0  0  0  0  0  0  0  0  0  0  0
    1.1978   -0.7852   -0.0358 C   0  0  0  0  0  0  0  0  0  0  0  0
   -0.1271   -1.2622   -0.6377 C   0  0  0  0  0  0  0  0  0  0  0  0
   -0.7991   -0.1840    0.1304 C   0  0  0  0  0  0  0  0  0  0  0  0
   -2.0760   -0.2974    0.7958 C   0  0  0  0  0  0  0  0  0  0  0  0
   -1.8470    0.6810   -0.3690 C   0  0  0  0  0  0  0  0  0  0  0  0
    0.4620    0.3016    0.7432 C   0  0  0  0  0  0  0  0  0  0  0  0
    1.0043    1.4741    0.2069 O   0  0  0  0  0  0  0  0  0  0  0  0
    2.9985    0.8739    0.3943 H   0  0  0  0  0  0  0  0  0  0  0  0
    2.5998    1.7726   -1.1098 H   0  0  0  0  0  0  0  0  0  0  0  0
    1.7283   -1.5204    0.5662 H   0  0  0  0  0  0  0  0  0  0  0  0
   -0.3773   -2.2910   -0.2903 H   0  0  0  0  0  0  0  0  0  0  0  0
   -0.1727   -1.2039   -1.7365 H   0  0  0  0  0  0  0  0  0  0  0  0
   -2.3067    0.1269    1.7886 H   0  0  0  0  0  0  0  0  0  0  0  0
   -2.7735   -1.1411    0.5232 H   0  0  0  0  0  0  0  0  0  0  0  0
   -1.8231    1.7546   -0.0278 H   0  0  0  0  0  0  0  0  0  0  0  0
   -2.3815    0.4814   -1.3199 H   0  0  0  0  0  0  0  0  0  0  0  0
    0.5602    0.2430    1.8335 H   0  0  0  0  0  0  0  0  0  0  0  0
  1  2  1  0
  2  3  1  0
  3  4  1  0
  4  5  1  0
  5  6  1  0
  6  7  1  0
  5  8  1  0
  8  9  1  0
  9  1  1  0
  8  3  1  0
  7  5  1  0
  1 10  1  0
  1 11  1  0
  3 12  1  0
  4 13  1  0
  4 14  1  0
  6 15  1  0
  6 16  1  0
  7 17  1  0
  7 18  1  0
  8 19  1  0
M  END
