
     RDKit          3D

 17 19  0  0  0  0  0  0  0  0999 V2000
    1.6732    0.9960    0.1039 C   0  0  0  0  0  0  0  0  0  0  0  0
    1.6850    0.0046    1.0706 O   0  0  0  0  0  0  0  0  0  0  0  0
    1.1591   -1.2000    0.5962 C   0  0  0  0  0  0  0  0  0  0  0  0
   -0.2376   -0.9923    0.1487 C   0  0  0  0  0  0  0  0  0  0  0  0
   -0.4109   -0.8548   -1.2547 O   0  0  0  0  0  0  0  0  0  0  0  0
   -1.6287   -0.2747   -0.8274 C   0  0  0  0  0  0  0  0  0  0  0  0
   -1.8360    1.0499   -0.3730 C   0  0  0  0  0  0  0  0  0  0  0  0
   -0.5868    0.4930    0.0859 C   0  0  0  0  0  0  0  0  0  0  0  0
    0.5209    1.0178   -0.6384 O   0  0  0  0  0  0  0  0  0  0  0  0
    1.7359    1.9734    0.6577 H   0  0  0  0  0  0  0  0  0  0  0  0
    2.5646    0.9412   -0.5518 H   0  0  0  0  0  0  0  0  0  0  0  0
    1.1868   -1.8969    1.4854 H   0  0  0  0  0  0  0  0  0  0  0  0
    1.8352   -1.6520   -0.1454 H   0  0  0  0  0  0  0  0  0  0  0  0
   -0.9423   -1.6380    0.6550 H   0  0  0  0  0  0  0  0  0  0  0  0
   -2.2075   -1.0871   -0.2900 H   0  0  0  0  0  0  0  0  0  0  0  0
   -2.6083    1.2456    0.4232 H   0  0  0  0  0  0  0  0  0  0  0  0
   -1.9027    1.8744   -1.1458 H   0  0  0  0  0  0  0  0  0  0  0  0
  1  2  1  0
  2  3  1  0
  3  4  1  0
  4  5  1  0
  5  6  1  0
  6  7  1  0
  7  8  1  0
  8  9  1  0
  9  1  1  0
  8  4  1  0
  8  6  1  0
  1 10  1  0
  1 11  1  0
  3 12  1  0
  3 13  1  0
  4 14  1  0
  6 15  1  0
  7 16  1  0
  7 17  1  0
M  END
