
     RDKit          3D

 19 22  0  0  0  0  0  0  0  0999 V2000
   -1.2058    1.4470    0.5172 C   0  0  0  0  0  0  0  0  0  0  0  0
   -2.2801    0.8581   -0.0961 O   0  0  0  0  0  0  0  0  0  0  0  0
   -1.9170   -0.4461   -0.4597 C   0  0  0  0  0  0  0  0  0  0  0  0
   -1.0354   -0.8781    0.5834 C   0  0  0  0  0  0  0  0  0  0  0  0
   -0.2344    0.3651    0.9313 C   0  0  0  0  0  0  0  0  0  0  0  0
    0.6426   -0.0226   -0.2005 C   0  0  0  0  0  0  0  0  0  0  0  0
    1.8867   -0.7756    0.0310 C   0  0  0  0  0  0  0  0  0  0  0  0
    1.8208    0.5512   -0.6926 C   0  0  0  0  0  0  0  0  0  0  0  0
   -0.5068   -0.6501   -0.8702 C   0  0  0  0  0  0  0  0  0  0  0  0
   -1.4574    2.0322    1.4176 H   0  0  0  0  0  0  0  0  0  0  0  0
   -0.7119    2.1125   -0.2410 H   0  0  0  0  0  0  0  0  0  0  0  0
   -2.6963   -1.0447   -0.9048 H   0  0  0  0  0  0  0  0  0  0  0  0
   -0.7898   -1.8467    0.9509 H   0  0  0  0  0  0  0  0  0  0  0  0
    0.1740    0.4178    1.9344 H   0  0  0  0  0  0  0  0  0  0  0  0
    2.2571   -0.8118    1.0712 H   0  0  0  0  0  0  0  0  0  0  0  0
    1.9911   -1.7077   -0.5476 H   0  0  0  0  0  0  0  0  0  0  0  0
    2.3154    1.3996   -0.1698 H   0  0  0  0  0  0  0  0  0  0  0  0
    2.0531    0.5426   -1.7864 H   0  0  0  0  0  0  0  0  0  0  0  0
   -0.3056   -1.5427   -1.4681 H   0  0  0  0  0  0  0  0  0  0  0  0
  1  2  1  0
  2  3  1  0
  3  4  1  0
  4  5  1  0
  5  6  1  0
  6  7  1  0
  7  8  1  0
  6  9  1  0
  5  1  1  0
  8  6  1  0
  9  3  1  0
  9  4  1  0
  1 10  1  0
  1 11  1  0
  3 12  1  0
  4 13  1  0
  5 14  1  0
  7 15  1  0
  7 16  1  0
  8 17  1  0
  8 18  1  0
  9 19  1  0
M  END
