
     RDKit          3D

 19 20  0  0  0  0  0  0  0  0999 V2000
    2.1012    1.1155   -0.0651 C   0  0  0  0  0  0  0  0  0  0  0  0
    3.1009    0.2374    0.3581 O   0  0  0  0  0  0  0  0  0  0  0  0
    2.3009   -0.8026   -0.1694 C   0  0  0  0  0  0  0  0  0  0  0  0
    1.1015   -0.0076    0.2398 C   0  0  0  0  0  0  0  0  0  0  0  0
    0.0202   -0.0232   -0.6139 O   0  0  0  0  0  0  0  0  0  0  0  0
   -1.1333   -0.0867    0.1773 C   0  0  0  0  0  0  0  0  0  0  0  0
   -2.1580   -1.0767   -0.2743 C   0  0  0  0  0  0  0  0  0  0  0  0
   -3.1486   -0.1658    0.1470 O   0  0  0  0  0  0  0  0  0  0  0  0
   -2.2434    0.8466   -0.2534 C   0  0  0  0  0  0  0  0  0  0  0  0
    2.1841    1.2844   -1.1413 H   0  0  0  0  0  0  0  0  0  0  0  0
    1.9276    1.9897    0.5820 H   0  0  0  0  0  0  0  0  0  0  0  0
    2.4700   -0.8801   -1.2505 H   0  0  0  0  0  0  0  0  0  0  0  0
    2.5064   -1.7250    0.4268 H   0  0  0  0  0  0  0  0  0  0  0  0
    0.9044   -0.0443    1.3133 H   0  0  0  0  0  0  0  0  0  0  0  0
   -0.9583   -0.1104    1.2638 H   0  0  0  0  0  0  0  0  0  0  0  0
   -2.1910   -2.0362    0.2582 H   0  0  0  0  0  0  0  0  0  0  0  0
   -2.2087   -1.2338   -1.3630 H   0  0  0  0  0  0  0  0  0  0  0  0
   -2.3315    1.7804    0.3012 H   0  0  0  0  0  0  0  0  0  0  0  0
   -2.2443    0.9383   -1.3468 H   0  0  0  0  0  0  0  0  0  0  0  0
  1  2  1  0
  2  3  1  0
  3  4  1  0
  4  5  1  0
  5  6  1  0
  6  7  1  0
  7  8  1  0
  8  9  1  0
  4  1  1  0
  9  6  1  0
  1 10  1  0
  1 11  1  0
  3 12  1  0
  3 13  1  0
  4 14  1  0
  6 15  1  0
  7 16  1  0
  7 17  1  0
  9 18  1  0
  9 19  1  0
M  END
