
     RDKit          3D

 17 19  0  0  0  0  0  0  0  0999 V2000
    1.6862   -0.7818    0.0649 C   0  0  0  0  0  0  0  0  0  0  0  0
    1.9755    0.2648    0.9732 O   0  0  0  0  0  0  0  0  0  0  0  0
    1.3095    1.3233    0.3677 C   0  0  0  0  0  0  0  0  0  0  0  0
   -0.0012    0.7198    0.0135 C   0  0  0  0  0  0  0  0  0  0  0  0
    0.2345   -0.5764   -0.1703 C   0  0  0  0  0  0  0  0  0  0  0  0
   -1.1143   -1.1782   -0.5108 C   0  0  0  0  0  0  0  0  0  0  0  0
   -1.8993   -0.3372    0.4625 C   0  0  0  0  0  0  0  0  0  0  0  0
   -2.5238    0.7999    0.4035 O   0  0  0  0  0  0  0  0  0  0  0  0
   -1.3964    0.9758   -0.2231 C   0  0  0  0  0  0  0  0  0  0  0  0
    2.3030   -0.5631   -0.8314 H   0  0  0  0  0  0  0  0  0  0  0  0
    1.9267   -1.7245    0.5553 H   0  0  0  0  0  0  0  0  0  0  0  0
    1.9014    1.6255   -0.5063 H   0  0  0  0  0  0  0  0  0  0  0  0
    1.1882    2.2002    1.0220 H   0  0  0  0  0  0  0  0  0  0  0  0
   -1.3688   -1.0213   -1.5548 H   0  0  0  0  0  0  0  0  0  0  0  0
   -1.1652   -2.2336   -0.2207 H   0  0  0  0  0  0  0  0  0  0  0  0
   -1.4690   -0.5160    1.5004 H   0  0  0  0  0  0  0  0  0  0  0  0
   -1.5870    1.0229   -1.3458 H   0  0  0  0  0  0  0  0  0  0  0  0
  1  2  1  0
  2  3  1  0
  3  4  1  0
  4  5  2  0
  5  6  1  0
  6  7  1  0
  7  8  1  0
  8  9  1  0
  5  1  1  0
  9  7  1  0
  9  4  1  0
  1 10  1  0
  1 11  1  0
  3 12  1  0
  3 13  1  0
  6 14  1  0
  6 15  1  0
  7 16  1  0
  9 17  1  0
M  END
