
     RDKit          2D

 17 20  0  0  0  0  0  0  0  0999 V2000
    0.8660    0.0000    0.0000 C   0  0  0  0  0  0  0  0  0  0  0  0
   -0.4330    0.7500    0.0000 O   0  0  0  0  0  0  0  0  0  0  0  0
   -0.4330   -0.7500    0.0000 C   0  0  0  0  0  0  0  0  0  0  0  0
    0.1771   -2.1203    0.0000 C   0  0  0  0  0  0  0  0  0  0  0  0
   -0.9376   -3.1240    0.0000 C   0  0  0  0  0  0  0  0  0  0  0  0
   -3.3920   -0.5949    0.0000 C   0  0  0  0  0  0  0  0  0  0  0  0
   -3.7039   -2.0621    0.0000 O   0  0  0  0  0  0  0  0  0  0  0  0
   -2.2367   -2.3740    0.0000 C   0  0  0  0  0  0  0  0  0  0  0  0
   -1.9248   -0.9068    0.0000 C   0  0  0  0  0  0  0  0  0  0  0  0
    1.8302    1.1491    0.0000 H   0  0  0  0  0  0  0  0  0  0  0  0
    1.7546   -0.8286    0.0000 H   0  0  0  0  0  0  0  0  0  0  0  0
    1.2955   -1.6456    0.0000 H   0  0  0  0  0  0  0  0  0  0  0  0
    1.0588   -3.3338    0.0000 H   0  0  0  0  0  0  0  0  0  0  0  0
   -0.7808   -4.6158    0.0000 H   0  0  0  0  0  0  0  0  0  0  0  0
   -4.2090    0.6631    0.0000 H   0  0  0  0  0  0  0  0  0  0  0  0
   -2.7742   -3.7744    0.0000 H   0  0  0  0  0  0  0  0  0  0  0  0
   -1.8463    0.5912    0.0000 H   0  0  0  0  0  0  0  0  0  0  0  0
  1  2  1  0
  2  3  1  0
  3  4  1  0
  4  5  1  0
  5  6  1  0
  6  7  1  0
  7  8  1  0
  8  9  1  0
  3  1  1  0
  8  5  1  0
  9  3  1  0
  9  6  1  0
  1 10  1  0
  1 11  1  0
  4 12  1  0
  4 13  1  0
  5 14  1  0
  6 15  1  0
  8 16  1  0
  9 17  1  0
M  END
