
     RDKit          3D

 17 18  0  0  0  0  0  0  0  0999 V2000
    1.6873    1.4932    0.3628 C   0  0  0  0  0  0  0  0  0  0  0  0
    2.7428    0.8078   -0.0688 O   0  0  0  0  0  0  0  0  0  0  0  0
    2.3581   -0.4356   -0.2979 C   0  0  0  0  0  0  0  0  0  0  0  0
    1.0295   -0.5781   -0.0148 C   0  0  0  0  0  0  0  0  0  0  0  0
    0.5915    0.6585    0.4108 C   0  0  0  0  0  0  0  0  0  0  0  0
   -0.8425    0.7610    0.7827 C   0  0  0  0  0  0  0  0  0  0  0  0
   -1.6183    0.0669   -0.3436 C   0  0  0  0  0  0  0  0  0  0  0  0
   -1.2543   -1.3902   -0.4326 C   0  0  0  0  0  0  0  0  0  0  0  0
    0.0957   -1.6279   -0.0615 O   0  0  0  0  0  0  0  0  0  0  0  0
    1.6469    2.5352    0.6422 H   0  0  0  0  0  0  0  0  0  0  0  0
    3.0049   -1.2321   -0.6598 H   0  0  0  0  0  0  0  0  0  0  0  0
   -1.2026    1.7806    0.8902 H   0  0  0  0  0  0  0  0  0  0  0  0
   -1.0023    0.1403    1.6899 H   0  0  0  0  0  0  0  0  0  0  0  0
   -2.6996    0.2115   -0.2121 H   0  0  0  0  0  0  0  0  0  0  0  0
   -1.2572    0.5511   -1.2852 H   0  0  0  0  0  0  0  0  0  0  0  0
   -1.3265   -1.6903   -1.5191 H   0  0  0  0  0  0  0  0  0  0  0  0
   -1.9535   -2.0520    0.1167 H   0  0  0  0  0  0  0  0  0  0  0  0
  1  2  1  0
  2  3  1  0
  3  4  2  0
  4  5  1  0
  5  6  1  0
  6  7  1  0
  7  8  1  0
  8  9  1  0
  5  1  2  0
  9  4  1  0
  1 10  1  0
  3 11  1  0
  6 12  1  0
  6 13  1  0
  7 14  1  0
  7 15  1  0
  8 16  1  0
  8 17  1  0
M  END
