
     RDKit          3D

 15 18  0  0  0  0  0  0  0  0999 V2000
   -0.3065    1.8966   -0.1574 C   0  0  0  0  0  0  0  0  0  0  0  0
   -0.0671    1.3710    1.1705 O   0  0  0  0  0  0  0  0  0  0  0  0
   -0.4667    0.5629   -0.0141 C   0  0  0  0  0  0  0  0  0  0  0  0
   -1.5923   -0.3447    0.2160 C   0  0  0  0  0  0  0  0  0  0  0  0
   -1.4558   -1.2128    1.2878 O   0  0  0  0  0  0  0  0  0  0  0  0
   -0.5894   -1.5085    0.2724 C   0  0  0  0  0  0  0  0  0  0  0  0
    0.4586   -0.5702   -0.1801 C   0  0  0  0  0  0  0  0  0  0  0  0
    1.8053   -0.5086    0.0082 C   0  0  0  0  0  0  0  0  0  0  0  0
    1.1736   -0.8257   -1.3058 O   0  0  0  0  0  0  0  0  0  0  0  0
   -1.1224    2.6345   -0.1301 H   0  0  0  0  0  0  0  0  0  0  0  0
    0.6130    2.3282   -0.6542 H   0  0  0  0  0  0  0  0  0  0  0  0
   -2.4211   -0.4865   -0.5055 H   0  0  0  0  0  0  0  0  0  0  0  0
   -0.8351   -2.4056   -0.3265 H   0  0  0  0  0  0  0  0  0  0  0  0
    2.4291   -1.3730    0.3600 H   0  0  0  0  0  0  0  0  0  0  0  0
    2.3768    0.4424   -0.0412 H   0  0  0  0  0  0  0  0  0  0  0  0
  1  2  1  0
  2  3  1  0
  3  4  1  0
  4  5  1  0
  5  6  1  0
  6  7  1  0
  7  8  1  0
  8  9  1  0
  3  1  1  0
  6  4  1  0
  9  7  1  0
  7  3  1  0
  1 10  1  0
  1 11  1  0
  4 12  1  0
  6 13  1  0
  8 14  1  0
  8 15  1  0
M  END
