
     RDKit          3D

 19 21  0  0  0  0  0  0  0  0999 V2000
    1.5603    0.4173   -0.7468 C   0  0  0  0  0  0  0  0  0  0  0  0
    0.9960   -0.7442   -1.1961 O   0  0  0  0  0  0  0  0  0  0  0  0
    0.2029   -1.2860   -0.2193 C   0  0  0  0  0  0  0  0  0  0  0  0
    0.5791   -0.5898    1.0760 C   0  0  0  0  0  0  0  0  0  0  0  0
    0.7907    0.8279    0.5180 C   0  0  0  0  0  0  0  0  0  0  0  0
   -0.5569    1.3697    0.1912 C   0  0  0  0  0  0  0  0  0  0  0  0
   -1.5791    0.9432    1.1110 O   0  0  0  0  0  0  0  0  0  0  0  0
   -1.5785    0.4894   -0.1956 C   0  0  0  0  0  0  0  0  0  0  0  0
   -1.2580   -0.9526   -0.4760 C   0  0  0  0  0  0  0  0  0  0  0  0
    2.6197    0.2687   -0.3842 H   0  0  0  0  0  0  0  0  0  0  0  0
    1.5747    1.2466   -1.4591 H   0  0  0  0  0  0  0  0  0  0  0  0
    0.2881   -2.3766   -0.1617 H   0  0  0  0  0  0  0  0  0  0  0  0
    1.5431   -1.0194    1.3996 H   0  0  0  0  0  0  0  0  0  0  0  0
   -0.2093   -0.5966    1.8179 H   0  0  0  0  0  0  0  0  0  0  0  0
    1.3881    1.4475    1.1815 H   0  0  0  0  0  0  0  0  0  0  0  0
   -0.5770    2.4398   -0.0970 H   0  0  0  0  0  0  0  0  0  0  0  0
   -2.4415    0.8761   -0.8009 H   0  0  0  0  0  0  0  0  0  0  0  0
   -1.4011   -1.1044   -1.5852 H   0  0  0  0  0  0  0  0  0  0  0  0
   -1.9415   -1.6566    0.0268 H   0  0  0  0  0  0  0  0  0  0  0  0
  1  2  1  0
  2  3  1  0
  3  4  1  0
  4  5  1  0
  5  6  1  0
  6  7  1  0
  7  8  1  0
  8  9  1  0
  5  1  1  0
  8  6  1  0
  9  3  1  0
  1 10  1  0
  1 11  1  0
  3 12  1  0
  4 13  1  0
  4 14  1  0
  5 15  1  0
  6 16  1  0
  8 17  1  0
  9 18  1  0
  9 19  1  0
M  END
