
     RDKit          3D

 19 21  0  0  0  0  0  0  0  0999 V2000
   -1.3782    0.7833   -0.8782 C   0  0  0  0  0  0  0  0  0  0  0  0
   -0.4523    0.0726   -1.6153 O   0  0  0  0  0  0  0  0  0  0  0  0
    0.1297   -0.8748   -0.7930 C   0  0  0  0  0  0  0  0  0  0  0  0
   -1.0055   -1.2282    0.1855 C   0  0  0  0  0  0  0  0  0  0  0  0
   -1.2546    0.2456    0.5528 C   0  0  0  0  0  0  0  0  0  0  0  0
    0.0804    0.6634    1.0599 C   0  0  0  0  0  0  0  0  0  0  0  0
    1.0412   -0.1389    0.1673 C   0  0  0  0  0  0  0  0  0  0  0  0
    2.3646    0.2810   -0.1283 C   0  0  0  0  0  0  0  0  0  0  0  0
    2.0897   -0.8053    0.7569 O   0  0  0  0  0  0  0  0  0  0  0  0
   -2.4036    0.4865   -1.2129 H   0  0  0  0  0  0  0  0  0  0  0  0
   -1.2321    1.8692   -0.8848 H   0  0  0  0  0  0  0  0  0  0  0  0
    0.5577   -1.7259   -1.2752 H   0  0  0  0  0  0  0  0  0  0  0  0
   -1.8814   -1.6184   -0.3260 H   0  0  0  0  0  0  0  0  0  0  0  0
   -0.6471   -1.7927    1.0437 H   0  0  0  0  0  0  0  0  0  0  0  0
   -2.1057    0.4072    1.1663 H   0  0  0  0  0  0  0  0  0  0  0  0
    0.2178    1.7428    0.7883 H   0  0  0  0  0  0  0  0  0  0  0  0
    0.2617    0.4821    2.1188 H   0  0  0  0  0  0  0  0  0  0  0  0
    2.8176   -0.0036   -1.1134 H   0  0  0  0  0  0  0  0  0  0  0  0
    2.8003    1.1539    0.3876 H   0  0  0  0  0  0  0  0  0  0  0  0
  1  2  1  0
  2  3  1  0
  3  4  1  0
  4  5  1  0
  5  6  1  0
  6  7  1  0
  7  8  1  0
  8  9  1  0
  5  1  1  0
  9  7  1  0
  7  3  1  0
  1 10  1  0
  1 11  1  0
  3 12  1  0
  4 13  1  0
  4 14  1  0
  5 15  1  0
  6 16  1  0
  6 17  1  0
  8 18  1  0
  8 19  1  0
M  END
