
     RDKit          3D

 16 18  0  0  0  0  0  0  0  0999 V2000
   -1.1569   -0.9699    0.3727 C   0  0  0  0  0  0  0  0  0  0  0  0
   -0.0400   -1.2474    1.1026 O   0  0  0  0  0  0  0  0  0  0  0  0
    0.9600   -0.2917    1.0127 C   0  0  0  0  0  0  0  0  0  0  0  0
    1.3499   -0.2347   -0.4722 C   0  0  0  0  0  0  0  0  0  0  0  0
    0.2233    0.5966   -1.0265 C   0  0  0  0  0  0  0  0  0  0  0  0
   -1.0844    0.2432   -0.4718 C   0  0  0  0  0  0  0  0  0  0  0  0
   -0.2948    1.3169    0.1538 C   0  0  0  0  0  0  0  0  0  0  0  0
    0.4294    0.9617    1.2678 O   0  0  0  0  0  0  0  0  0  0  0  0
   -2.0062   -0.8265    1.1033 H   0  0  0  0  0  0  0  0  0  0  0  0
   -1.4456   -1.8590   -0.2391 H   0  0  0  0  0  0  0  0  0  0  0  0
    1.8026   -0.5705    1.6396 H   0  0  0  0  0  0  0  0  0  0  0  0
    2.3371    0.2456   -0.5498 H   0  0  0  0  0  0  0  0  0  0  0  0
    1.3027   -1.2417   -0.9329 H   0  0  0  0  0  0  0  0  0  0  0  0
    0.3043    1.0614   -2.0191 H   0  0  0  0  0  0  0  0  0  0  0  0
   -1.9685    0.4919   -1.0620 H   0  0  0  0  0  0  0  0  0  0  0  0
   -0.7128    2.3240    0.1209 H   0  0  0  0  0  0  0  0  0  0  0  0
  1  2  1  0
  2  3  1  0
  3  4  1  0
  4  5  1  0
  5  6  1  0
  6  7  1  0
  7  8  1  0
  6  1  1  0
  8  3  1  0
  7  5  1  0
  1  9  1  0
  1 10  1  0
  3 11  1  0
  4 12  1  0
  4 13  1  0
  5 14  1  0
  6 15  1  0
  7 16  1  0
M  END
