
     RDKit          3D

 12 13  0  0  0  0  0  0  0  0999 V2000
   -0.2375    1.2435   -0.0082 C   0  0  0  0  0  0  0  0  0  0  0  0
   -1.4070    0.8194    0.6388 O   0  0  0  0  0  0  0  0  0  0  0  0
   -1.2375   -0.4924    0.1524 C   0  0  0  0  0  0  0  0  0  0  0  0
    0.1456   -0.1749   -0.2031 C   0  0  0  0  0  0  0  0  0  0  0  0
    1.3628   -0.7000    0.0883 C   0  0  0  0  0  0  0  0  0  0  0  0
    0.8084   -0.6450   -1.2892 O   0  0  0  0  0  0  0  0  0  0  0  0
   -0.3730    1.8737   -0.8794 H   0  0  0  0  0  0  0  0  0  0  0  0
    0.3866    1.7828    0.7609 H   0  0  0  0  0  0  0  0  0  0  0  0
   -1.3319   -1.2833    0.8964 H   0  0  0  0  0  0  0  0  0  0  0  0
   -1.9743   -0.6259   -0.6851 H   0  0  0  0  0  0  0  0  0  0  0  0
    1.5614   -1.7278    0.4321 H   0  0  0  0  0  0  0  0  0  0  0  0
    2.2965   -0.0700    0.0962 H   0  0  0  0  0  0  0  0  0  0  0  0
  1  2  1  0
  2  3  1  0
  3  4  1  0
  4  5  1  0
  5  6  1  0
  4  1  1  0
  6  4  1  0
  1  7  1  0
  1  8  1  0
  3  9  1  0
  3 10  1  0
  5 11  1  0
  5 12  1  0
M  END
