
     RDKit          3D

 19 21  0  0  0  0  0  0  0  0999 V2000
   -0.4970    1.5047   -0.2190 C   0  0  0  0  0  0  0  0  0  0  0  0
    0.8888    1.5473   -0.1213 O   0  0  0  0  0  0  0  0  0  0  0  0
    1.3003    0.3892    0.4245 C   0  0  0  0  0  0  0  0  0  0  0  0
    2.2264   -0.6097    0.0404 C   0  0  0  0  0  0  0  0  0  0  0  0
    1.0544   -0.6114   -0.7535 C   0  0  0  0  0  0  0  0  0  0  0  0
   -0.3342   -1.0226   -0.4996 C   0  0  0  0  0  0  0  0  0  0  0  0
   -0.6454   -1.3576    0.8348 O   0  0  0  0  0  0  0  0  0  0  0  0
   -1.6516   -0.4241    0.8871 C   0  0  0  0  0  0  0  0  0  0  0  0
   -1.1613    0.2259   -0.3871 C   0  0  0  0  0  0  0  0  0  0  0  0
   -0.7624    2.2500   -1.0193 H   0  0  0  0  0  0  0  0  0  0  0  0
   -0.8740    1.9956    0.7271 H   0  0  0  0  0  0  0  0  0  0  0  0
    0.7366    0.1874    1.3856 H   0  0  0  0  0  0  0  0  0  0  0  0
    2.4194   -1.4721    0.7203 H   0  0  0  0  0  0  0  0  0  0  0  0
    3.1948   -0.2892   -0.4286 H   0  0  0  0  0  0  0  0  0  0  0  0
    1.1556   -0.2069   -1.7986 H   0  0  0  0  0  0  0  0  0  0  0  0
   -0.7427   -1.7589   -1.2194 H   0  0  0  0  0  0  0  0  0  0  0  0
   -2.6933   -0.8492    0.7875 H   0  0  0  0  0  0  0  0  0  0  0  0
   -1.6268    0.2273    1.7911 H   0  0  0  0  0  0  0  0  0  0  0  0
   -1.9875    0.2743   -1.1520 H   0  0  0  0  0  0  0  0  0  0  0  0
  1  2  1  0
  2  3  1  0
  3  4  1  0
  4  5  1  0
  5  6  1  0
  6  7  1  0
  7  8  1  0
  8  9  1  0
  9  1  1  0
  5  3  1  0
  9  6  1  0
  1 10  1  0
  1 11  1  0
  3 12  1  0
  4 13  1  0
  4 14  1  0
  5 15  1  0
  6 16  1  0
  8 17  1  0
  8 18  1  0
  9 19  1  0
M  END
