
     RDKit          3D

 16 17  0  0  0  0  0  0  0  0999 V2000
   -1.3747    0.9768    0.7225 C   0  0  0  0  0  0  0  0  0  0  0  0
   -1.7656   -0.3069    0.5483 O   0  0  0  0  0  0  0  0  0  0  0  0
   -1.0824   -1.0684   -0.3441 C   0  0  0  0  0  0  0  0  0  0  0  0
    0.3573   -0.7741   -0.4964 C   0  0  0  0  0  0  0  0  0  0  0  0
    0.7227    0.2143   -1.3975 O   0  0  0  0  0  0  0  0  0  0  0  0
    1.7908    0.4926   -0.5081 C   0  0  0  0  0  0  0  0  0  0  0  0
    0.7908    0.1617    0.6021 C   0  0  0  0  0  0  0  0  0  0  0  0
   -0.0361    1.2103    0.8230 O   0  0  0  0  0  0  0  0  0  0  0  0
   -1.7829    1.6836   -0.0598 H   0  0  0  0  0  0  0  0  0  0  0  0
   -1.8508    1.3546    1.6764 H   0  0  0  0  0  0  0  0  0  0  0  0
   -1.5699   -1.1159   -1.3613 H   0  0  0  0  0  0  0  0  0  0  0  0
   -1.1673   -2.1339    0.0318 H   0  0  0  0  0  0  0  0  0  0  0  0
    1.0610   -1.6227   -0.5730 H   0  0  0  0  0  0  0  0  0  0  0  0
    2.1293    1.5249   -0.5009 H   0  0  0  0  0  0  0  0  0  0  0  0
    2.5673   -0.2808   -0.6433 H   0  0  0  0  0  0  0  0  0  0  0  0
    1.2105   -0.3162    1.4804 H   0  0  0  0  0  0  0  0  0  0  0  0
  1  2  1  0
  2  3  1  0
  3  4  1  0
  4  5  1  0
  5  6  1  0
  6  7  1  0
  7  8  1  0
  8  1  1  0
  7  4  1  0
  1  9  1  0
  1 10  1  0
  3 11  1  0
  3 12  1  0
  4 13  1  0
  6 14  1  0
  6 15  1  0
  7 16  1  0
M  END
