
     RDKit          3D

 17 19  0  0  0  0  0  0  0  0999 V2000
    1.8215    0.1703    0.5721 C   0  0  0  0  0  0  0  0  0  0  0  0
    1.8445   -0.7055   -0.4670 O   0  0  0  0  0  0  0  0  0  0  0  0
    0.6674   -1.2729   -0.8240 C   0  0  0  0  0  0  0  0  0  0  0  0
   -0.5088   -0.3707   -0.6590 C   0  0  0  0  0  0  0  0  0  0  0  0
   -1.7534   -0.7529   -1.0482 O   0  0  0  0  0  0  0  0  0  0  0  0
   -1.5472   -0.4289    0.2640 C   0  0  0  0  0  0  0  0  0  0  0  0
   -1.4682    1.0828    0.5111 C   0  0  0  0  0  0  0  0  0  0  0  0
   -0.1583    1.0259   -0.2884 C   0  0  0  0  0  0  0  0  0  0  0  0
    0.9018    1.1564    0.5527 O   0  0  0  0  0  0  0  0  0  0  0  0
    2.8422    0.6510    0.6300 H   0  0  0  0  0  0  0  0  0  0  0  0
    1.7518   -0.4131    1.5347 H   0  0  0  0  0  0  0  0  0  0  0  0
    0.4460   -2.2545   -0.3411 H   0  0  0  0  0  0  0  0  0  0  0  0
    0.7369   -1.5175   -1.9259 H   0  0  0  0  0  0  0  0  0  0  0  0
   -1.7378   -1.1000    1.0921 H   0  0  0  0  0  0  0  0  0  0  0  0
   -1.3446    1.3720    1.5579 H   0  0  0  0  0  0  0  0  0  0  0  0
   -2.2932    1.5941   -0.0493 H   0  0  0  0  0  0  0  0  0  0  0  0
   -0.2005    1.7635   -1.1118 H   0  0  0  0  0  0  0  0  0  0  0  0
  1  2  1  0
  2  3  1  0
  3  4  1  0
  4  5  1  0
  5  6  1  0
  6  7  1  0
  7  8  1  0
  8  9  1  0
  9  1  1  0
  6  4  1  0
  8  4  1  0
  1 10  1  0
  1 11  1  0
  3 12  1  0
  3 13  1  0
  6 14  1  0
  7 15  1  0
  7 16  1  0
  8 17  1  0
M  END
