
     RDKit          3D

 16 17  0  0  0  0  0  0  0  0999 V2000
   -1.2102   -1.3447   -0.1242 C   0  0  0  0  0  0  0  0  0  0  0  0
   -1.9835   -0.3615   -0.7963 O   0  0  0  0  0  0  0  0  0  0  0  0
   -1.5880    0.8000   -0.1518 C   0  0  0  0  0  0  0  0  0  0  0  0
   -0.1219    0.6540   -0.0358 C   0  0  0  0  0  0  0  0  0  0  0  0
    0.1279   -0.6389   -0.0161 C   0  0  0  0  0  0  0  0  0  0  0  0
    1.5917   -0.8178    0.1056 C   0  0  0  0  0  0  0  0  0  0  0  0
    2.1077    0.3666   -0.3796 O   0  0  0  0  0  0  0  0  0  0  0  0
    1.2122    1.3628    0.0660 C   0  0  0  0  0  0  0  0  0  0  0  0
   -1.0675   -2.1663   -0.8278 H   0  0  0  0  0  0  0  0  0  0  0  0
   -1.6195   -1.6008    0.8483 H   0  0  0  0  0  0  0  0  0  0  0  0
   -1.8632    1.7174   -0.6969 H   0  0  0  0  0  0  0  0  0  0  0  0
   -2.0330    0.7527    0.8667 H   0  0  0  0  0  0  0  0  0  0  0  0
    1.9051   -0.9260    1.1805 H   0  0  0  0  0  0  0  0  0  0  0  0
    1.9543   -1.6909   -0.4695 H   0  0  0  0  0  0  0  0  0  0  0  0
    1.4238    1.7057    1.0749 H   0  0  0  0  0  0  0  0  0  0  0  0
    1.1641    2.1877   -0.6442 H   0  0  0  0  0  0  0  0  0  0  0  0
  1  2  1  0
  2  3  1  0
  3  4  1  0
  4  5  2  0
  5  6  1  0
  6  7  1  0
  7  8  1  0
  5  1  1  0
  8  4  1  0
  1  9  1  0
  1 10  1  0
  3 11  1  0
  3 12  1  0
  6 13  1  0
  6 14  1  0
  8 15  1  0
  8 16  1  0
M  END
