
     RDKit          3D

 19 21  0  0  0  0  0  0  0  0999 V2000
    2.9627    0.1658   -0.0354 C   0  0  0  0  0  0  0  0  0  0  0  0
    2.4354    0.4513   -1.3731 O   0  0  0  0  0  0  0  0  0  0  0  0
    1.5557    0.5831   -0.3209 C   0  0  0  0  0  0  0  0  0  0  0  0
    0.5108   -0.4481   -0.0466 C   0  0  0  0  0  0  0  0  0  0  0  0
   -0.8909    0.0106   -0.3466 C   0  0  0  0  0  0  0  0  0  0  0  0
   -1.4734    1.1879    0.3538 C   0  0  0  0  0  0  0  0  0  0  0  0
   -2.2453    0.2906    1.1125 O   0  0  0  0  0  0  0  0  0  0  0  0
   -1.9751   -0.8354    0.3774 C   0  0  0  0  0  0  0  0  0  0  0  0
   -1.8464   -0.8364   -1.0877 C   0  0  0  0  0  0  0  0  0  0  0  0
    3.7272    0.9230    0.2220 H   0  0  0  0  0  0  0  0  0  0  0  0
    3.2165   -0.8936    0.0936 H   0  0  0  0  0  0  0  0  0  0  0  0
    1.3191    1.6212   -0.0404 H   0  0  0  0  0  0  0  0  0  0  0  0
    0.5844   -0.7482    1.0238 H   0  0  0  0  0  0  0  0  0  0  0  0
    0.7378   -1.3438   -0.6429 H   0  0  0  0  0  0  0  0  0  0  0  0
   -2.1868    1.7932   -0.2689 H   0  0  0  0  0  0  0  0  0  0  0  0
   -0.8045    1.8361    0.9258 H   0  0  0  0  0  0  0  0  0  0  0  0
   -1.6513   -1.7127    0.9302 H   0  0  0  0  0  0  0  0  0  0  0  0
   -1.4083   -1.7363   -1.5461 H   0  0  0  0  0  0  0  0  0  0  0  0
   -2.5679   -0.3084   -1.7415 H   0  0  0  0  0  0  0  0  0  0  0  0
  1  2  1  0
  2  3  1  0
  3  4  1  0
  4  5  1  0
  5  6  1  0
  6  7  1  0
  7  8  1  0
  8  9  1  0
  3  1  1  0
  8  5  1  0
  9  5  1  0
  1 10  1  0
  1 11  1  0
  3 12  1  0
  4 13  1  0
  4 14  1  0
  6 15  1  0
  6 16  1  0
  8 17  1  0
  9 18  1  0
  9 19  1  0
M  END
