
     RDKit          3D

 19 21  0  0  0  0  0  0  0  0999 V2000
   -1.2423   -1.3915    0.3827 C   0  0  0  0  0  0  0  0  0  0  0  0
   -1.9023   -0.2968    0.8677 O   0  0  0  0  0  0  0  0  0  0  0  0
   -1.1908    0.8381    0.5896 C   0  0  0  0  0  0  0  0  0  0  0  0
   -0.4647    0.5539   -0.6629 C   0  0  0  0  0  0  0  0  0  0  0  0
   -0.3868   -0.9832   -0.7688 C   0  0  0  0  0  0  0  0  0  0  0  0
    0.9820   -1.2960   -0.5559 O   0  0  0  0  0  0  0  0  0  0  0  0
    1.3186   -0.3233    0.3389 C   0  0  0  0  0  0  0  0  0  0  0  0
    1.9971    0.9010    0.2803 C   0  0  0  0  0  0  0  0  0  0  0  0
    0.9822    0.8458   -0.6798 C   0  0  0  0  0  0  0  0  0  0  0  0
   -0.7170   -1.9819    1.1580 H   0  0  0  0  0  0  0  0  0  0  0  0
   -2.0279   -2.0922   -0.0283 H   0  0  0  0  0  0  0  0  0  0  0  0
   -0.5847    1.2272    1.4233 H   0  0  0  0  0  0  0  0  0  0  0  0
   -1.9460    1.6506    0.3718 H   0  0  0  0  0  0  0  0  0  0  0  0
   -1.0002    0.9145   -1.5378 H   0  0  0  0  0  0  0  0  0  0  0  0
   -0.7426   -1.3391   -1.7341 H   0  0  0  0  0  0  0  0  0  0  0  0
    0.5961   -0.4221    1.2110 H   0  0  0  0  0  0  0  0  0  0  0  0
    1.8997    1.6421    1.1230 H   0  0  0  0  0  0  0  0  0  0  0  0
    3.0822    0.8915   -0.0349 H   0  0  0  0  0  0  0  0  0  0  0  0
    1.3476    0.6615   -1.7437 H   0  0  0  0  0  0  0  0  0  0  0  0
  1  2  1  0
  2  3  1  0
  3  4  1  0
  4  5  1  0
  5  6  1  0
  6  7  1  0
  7  8  1  0
  8  9  1  0
  5  1  1  0
  9  7  1  0
  9  4  1  0
  1 10  1  0
  1 11  1  0
  3 12  1  0
  3 13  1  0
  4 14  1  0
  5 15  1  0
  7 16  1  0
  8 17  1  0
  8 18  1  0
  9 19  1  0
M  END
