
     RDKit          3D

 21 23  0  0  0  0  0  0  0  0999 V2000
   -1.4348   -1.0165   -0.2207 C   0  0  0  0  0  0  0  0  0  0  0  0
   -0.6467   -0.8388   -1.3137 O   0  0  0  0  0  0  0  0  0  0  0  0
   -0.0442    0.4348   -1.2670 C   0  0  0  0  0  0  0  0  0  0  0  0
   -1.0576    1.1965   -0.3812 C   0  0  0  0  0  0  0  0  0  0  0  0
   -1.1584    0.1521    0.7388 C   0  0  0  0  0  0  0  0  0  0  0  0
    0.2003   -0.0413    1.4369 C   0  0  0  0  0  0  0  0  0  0  0  0
    1.0696   -0.6918    0.4565 C   0  0  0  0  0  0  0  0  0  0  0  0
    2.2584   -0.4095   -0.2344 C   0  0  0  0  0  0  0  0  0  0  0  0
    1.2283    0.5018   -0.5625 C   0  0  0  0  0  0  0  0  0  0  0  0
   -1.4524   -1.9797    0.2641 H   0  0  0  0  0  0  0  0  0  0  0  0
   -2.5009   -0.8259   -0.5518 H   0  0  0  0  0  0  0  0  0  0  0  0
   -0.0857    0.8501   -2.2806 H   0  0  0  0  0  0  0  0  0  0  0  0
   -2.0367    1.2498   -0.8402 H   0  0  0  0  0  0  0  0  0  0  0  0
   -0.6340    2.1194    0.0003 H   0  0  0  0  0  0  0  0  0  0  0  0
   -1.9674    0.3385    1.4284 H   0  0  0  0  0  0  0  0  0  0  0  0
   -0.0034   -0.7177    2.2789 H   0  0  0  0  0  0  0  0  0  0  0  0
    0.5686    0.9224    1.7926 H   0  0  0  0  0  0  0  0  0  0  0  0
    0.5261   -1.6043    0.0522 H   0  0  0  0  0  0  0  0  0  0  0  0
    2.6266   -1.0834   -1.0529 H   0  0  0  0  0  0  0  0  0  0  0  0
    3.1511   -0.0825    0.3574 H   0  0  0  0  0  0  0  0  0  0  0  0
    1.3932    1.5261   -0.1014 H   0  0  0  0  0  0  0  0  0  0  0  0
  1  2  1  0
  2  3  1  0
  3  4  1  0
  4  5  1  0
  5  6  1  0
  6  7  1  0
  7  8  1  0
  8  9  1  0
  5  1  1  0
  9  7  1  0
  9  3  1  0
  1 10  1  0
  1 11  1  0
  3 12  1  0
  4 13  1  0
  4 14  1  0
  5 15  1  0
  6 16  1  0
  6 17  1  0
  7 18  1  0
  8 19  1  0
  8 20  1  0
  9 21  1  0
M  END
