
     RDKit          3D

 21 22  0  0  0  0  0  0  0  0999 V2000
    1.8959   -0.2752    0.1031 C   0  0  0  0  0  0  0  0  0  0  0  0
    1.2484   -0.5431   -1.0683 O   0  0  0  0  0  0  0  0  0  0  0  0
   -0.0625   -0.8675   -0.9835 C   0  0  0  0  0  0  0  0  0  0  0  0
   -0.8773    0.3730   -1.3674 C   0  0  0  0  0  0  0  0  0  0  0  0
   -0.4486    1.4774   -0.4429 C   0  0  0  0  0  0  0  0  0  0  0  0
    0.1085    0.9887    0.8604 C   0  0  0  0  0  0  0  0  0  0  0  0
   -0.5726   -0.2381    1.3869 C   0  0  0  0  0  0  0  0  0  0  0  0
   -0.5479   -1.3176    0.3510 C   0  0  0  0  0  0  0  0  0  0  0  0
    1.4773    0.8618    0.7590 O   0  0  0  0  0  0  0  0  0  0  0  0
    1.8971   -1.1860    0.7230 H   0  0  0  0  0  0  0  0  0  0  0  0
    2.9795   -0.0976   -0.1672 H   0  0  0  0  0  0  0  0  0  0  0  0
   -0.2998   -1.6348   -1.7434 H   0  0  0  0  0  0  0  0  0  0  0  0
   -0.4952    0.6390   -2.3970 H   0  0  0  0  0  0  0  0  0  0  0  0
   -1.9500    0.1639   -1.3588 H   0  0  0  0  0  0  0  0  0  0  0  0
    0.3323    2.1431   -0.8979 H   0  0  0  0  0  0  0  0  0  0  0  0
   -1.3393    2.1342   -0.2906 H   0  0  0  0  0  0  0  0  0  0  0  0
   -0.0761    1.8047    1.6205 H   0  0  0  0  0  0  0  0  0  0  0  0
   -1.6050    0.0406    1.7083 H   0  0  0  0  0  0  0  0  0  0  0  0
   -0.0325   -0.5862    2.2764 H   0  0  0  0  0  0  0  0  0  0  0  0
   -1.6170   -1.6550    0.2145 H   0  0  0  0  0  0  0  0  0  0  0  0
   -0.0151   -2.2253    0.7138 H   0  0  0  0  0  0  0  0  0  0  0  0
  1  2  1  0
  2  3  1  0
  3  4  1  0
  4  5  1  0
  5  6  1  0
  6  7  1  0
  7  8  1  0
  6  9  1  0
  9  1  1  0
  8  3  1  0
  1 10  1  0
  1 11  1  0
  3 12  1  0
  4 13  1  0
  4 14  1  0
  5 15  1  0
  5 16  1  0
  6 17  1  0
  7 18  1  0
  7 19  1  0
  8 20  1  0
  8 21  1  0
M  END
