
     RDKit          3D

 19 21  0  0  0  0  0  0  0  0999 V2000
    0.9990    1.2083    0.5264 C   0  0  0  0  0  0  0  0  0  0  0  0
    0.6117    1.4341   -0.7710 O   0  0  0  0  0  0  0  0  0  0  0  0
   -0.4198    0.5900   -1.0623 C   0  0  0  0  0  0  0  0  0  0  0  0
   -1.6606    0.7353   -0.1684 C   0  0  0  0  0  0  0  0  0  0  0  0
   -1.5860   -0.7946   -0.0135 C   0  0  0  0  0  0  0  0  0  0  0  0
   -0.1549   -0.6603   -0.2964 C   0  0  0  0  0  0  0  0  0  0  0  0
    0.6024   -1.6313   -0.7863 O   0  0  0  0  0  0  0  0  0  0  0  0
    1.6938   -1.1276   -0.0358 C   0  0  0  0  0  0  0  0  0  0  0  0
    0.7689   -0.2557    0.7825 C   0  0  0  0  0  0  0  0  0  0  0  0
    0.4947    1.8557    1.2578 H   0  0  0  0  0  0  0  0  0  0  0  0
    2.1093    1.3603    0.6205 H   0  0  0  0  0  0  0  0  0  0  0  0
   -0.6536    0.4365   -2.1109 H   0  0  0  0  0  0  0  0  0  0  0  0
   -1.4086    1.1932    0.8082 H   0  0  0  0  0  0  0  0  0  0  0  0
   -2.5514    1.1016   -0.6701 H   0  0  0  0  0  0  0  0  0  0  0  0
   -2.1240   -1.3409   -0.8174 H   0  0  0  0  0  0  0  0  0  0  0  0
   -1.8606   -1.0989    1.0185 H   0  0  0  0  0  0  0  0  0  0  0  0
    2.3891   -0.5825   -0.6888 H   0  0  0  0  0  0  0  0  0  0  0  0
    2.1851   -1.8595    0.6079 H   0  0  0  0  0  0  0  0  0  0  0  0
    0.5655   -0.5635    1.7993 H   0  0  0  0  0  0  0  0  0  0  0  0
  1  2  1  0
  2  3  1  0
  3  4  1  0
  4  5  1  0
  5  6  1  0
  6  7  1  0
  7  8  1  0
  8  9  1  0
  9  1  1  0
  6  3  1  0
  9  6  1  0
  1 10  1  0
  1 11  1  0
  3 12  1  0
  4 13  1  0
  4 14  1  0
  5 15  1  0
  5 16  1  0
  8 17  1  0
  8 18  1  0
  9 19  1  0
M  END
