
     RDKit          3D

 19 21  0  0  0  0  0  0  0  0999 V2000
    2.3051    0.3998   -0.2133 C   0  0  0  0  0  0  0  0  0  0  0  0
    1.9084    0.1991    1.0921 O   0  0  0  0  0  0  0  0  0  0  0  0
    0.5504   -0.1045    1.0787 C   0  0  0  0  0  0  0  0  0  0  0  0
   -0.3079    1.1164    0.8682 C   0  0  0  0  0  0  0  0  0  0  0  0
   -1.5170    0.5282    0.1672 C   0  0  0  0  0  0  0  0  0  0  0  0
   -1.9953   -0.8315    0.4809 C   0  0  0  0  0  0  0  0  0  0  0  0
   -1.0059   -0.6296   -0.6323 C   0  0  0  0  0  0  0  0  0  0  0  0
    0.4385   -0.7767   -0.2968 C   0  0  0  0  0  0  0  0  0  0  0  0
    1.2621    0.0931   -1.0474 O   0  0  0  0  0  0  0  0  0  0  0  0
    3.1669   -0.2701   -0.4511 H   0  0  0  0  0  0  0  0  0  0  0  0
    2.6739    1.4385   -0.2943 H   0  0  0  0  0  0  0  0  0  0  0  0
    0.2260   -0.7526    1.8879 H   0  0  0  0  0  0  0  0  0  0  0  0
    0.2521    1.7983    0.1704 H   0  0  0  0  0  0  0  0  0  0  0  0
   -0.5507    1.6529    1.7843 H   0  0  0  0  0  0  0  0  0  0  0  0
   -2.1727    1.2122   -0.3749 H   0  0  0  0  0  0  0  0  0  0  0  0
   -3.0626   -1.0281    0.2445 H   0  0  0  0  0  0  0  0  0  0  0  0
   -1.6227   -1.4282    1.3214 H   0  0  0  0  0  0  0  0  0  0  0  0
   -1.3760   -0.8267   -1.6500 H   0  0  0  0  0  0  0  0  0  0  0  0
    0.8275   -1.7906   -0.2997 H   0  0  0  0  0  0  0  0  0  0  0  0
  1  2  1  0
  2  3  1  0
  3  4  1  0
  4  5  1  0
  5  6  1  0
  6  7  1  0
  7  8  1  0
  8  9  1  0
  9  1  1  0
  8  3  1  0
  7  5  1  0
  1 10  1  0
  1 11  1  0
  3 12  1  0
  4 13  1  0
  4 14  1  0
  5 15  1  0
  6 16  1  0
  6 17  1  0
  7 18  1  0
  8 19  1  0
M  END
