
     RDKit          3D

 21 22  0  0  0  0  0  0  0  0999 V2000
   -1.8869    0.3389   -0.5301 C   0  0  0  0  0  0  0  0  0  0  0  0
   -0.8642    1.0738   -1.1007 O   0  0  0  0  0  0  0  0  0  0  0  0
   -0.0093    1.6416   -0.1725 C   0  0  0  0  0  0  0  0  0  0  0  0
    0.7751    0.6365    0.6162 C   0  0  0  0  0  0  0  0  0  0  0  0
    1.6289   -0.1747   -0.3211 C   0  0  0  0  0  0  0  0  0  0  0  0
    0.7130   -1.2747   -0.7856 C   0  0  0  0  0  0  0  0  0  0  0  0
   -0.4420   -1.3218    0.1831 C   0  0  0  0  0  0  0  0  0  0  0  0
   -0.0749   -0.3904    1.2955 C   0  0  0  0  0  0  0  0  0  0  0  0
   -1.6195   -1.0088   -0.4407 O   0  0  0  0  0  0  0  0  0  0  0  0
   -2.7702    0.4448   -1.2238 H   0  0  0  0  0  0  0  0  0  0  0  0
   -2.2381    0.7858    0.4333 H   0  0  0  0  0  0  0  0  0  0  0  0
   -0.5180    2.3482    0.5134 H   0  0  0  0  0  0  0  0  0  0  0  0
    0.7273    2.2514   -0.7498 H   0  0  0  0  0  0  0  0  0  0  0  0
    1.4155    1.1722    1.3228 H   0  0  0  0  0  0  0  0  0  0  0  0
    2.5351   -0.5518    0.1965 H   0  0  0  0  0  0  0  0  0  0  0  0
    1.9394    0.4765   -1.1686 H   0  0  0  0  0  0  0  0  0  0  0  0
    0.3439   -1.0005   -1.7857 H   0  0  0  0  0  0  0  0  0  0  0  0
    1.2752   -2.2409   -0.7747 H   0  0  0  0  0  0  0  0  0  0  0  0
   -0.5247   -2.3448    0.6102 H   0  0  0  0  0  0  0  0  0  0  0  0
   -0.9432    0.0423    1.8234 H   0  0  0  0  0  0  0  0  0  0  0  0
    0.5379   -0.9032    2.0590 H   0  0  0  0  0  0  0  0  0  0  0  0
  1  2  1  0
  2  3  1  0
  3  4  1  0
  4  5  1  0
  5  6  1  0
  6  7  1  0
  7  8  1  0
  7  9  1  0
  9  1  1  0
  8  4  1  0
  1 10  1  0
  1 11  1  0
  3 12  1  0
  3 13  1  0
  4 14  1  0
  5 15  1  0
  5 16  1  0
  6 17  1  0
  6 18  1  0
  7 19  1  0
  8 20  1  0
  8 21  1  0
M  END
