
     RDKit          3D

 19 21  0  0  0  0  0  0  0  0999 V2000
    2.0788   -1.2156    0.3842 C   0  0  0  0  0  0  0  0  0  0  0  0
    2.4449   -0.5141   -0.7333 O   0  0  0  0  0  0  0  0  0  0  0  0
    1.4583    0.4164   -1.0062 C   0  0  0  0  0  0  0  0  0  0  0  0
    0.8792    1.2663    0.0575 C   0  0  0  0  0  0  0  0  0  0  0  0
    0.2959   -0.0634   -0.2298 C   0  0  0  0  0  0  0  0  0  0  0  0
   -1.0051   -0.1616   -0.9977 C   0  0  0  0  0  0  0  0  0  0  0  0
   -2.1822   -0.6587   -0.1707 C   0  0  0  0  0  0  0  0  0  0  0  0
   -2.0725    0.7999   -0.5169 C   0  0  0  0  0  0  0  0  0  0  0  0
    0.7152   -1.1274    0.5457 O   0  0  0  0  0  0  0  0  0  0  0  0
    2.6377   -0.7861    1.2551 H   0  0  0  0  0  0  0  0  0  0  0  0
    2.3244   -2.3088    0.2555 H   0  0  0  0  0  0  0  0  0  0  0  0
    1.3500    0.7154   -2.0698 H   0  0  0  0  0  0  0  0  0  0  0  0
    1.3510    1.4347    1.0256 H   0  0  0  0  0  0  0  0  0  0  0  0
    0.2749    2.1322   -0.3198 H   0  0  0  0  0  0  0  0  0  0  0  0
   -0.9575   -0.4596   -2.0474 H   0  0  0  0  0  0  0  0  0  0  0  0
   -2.9552   -1.2567   -0.6847 H   0  0  0  0  0  0  0  0  0  0  0  0
   -2.0071   -0.9245    0.8756 H   0  0  0  0  0  0  0  0  0  0  0  0
   -1.8115    1.5322    0.2840 H   0  0  0  0  0  0  0  0  0  0  0  0
   -2.8192    1.1794   -1.2364 H   0  0  0  0  0  0  0  0  0  0  0  0
  1  2  1  0
  2  3  1  0
  3  4  1  0
  4  5  1  0
  5  6  1  0
  6  7  1  0
  7  8  1  0
  5  9  1  0
  9  1  1  0
  5  3  1  0
  8  6  1  0
  1 10  1  0
  1 11  1  0
  3 12  1  0
  4 13  1  0
  4 14  1  0
  6 15  1  0
  7 16  1  0
  7 17  1  0
  8 18  1  0
  8 19  1  0
M  END
