
     RDKit          2D

 19 22  0  0  0  0  0  0  0  0999 V2000
    1.0607    0.0000    0.0000 C   0  0  0  0  0  0  0  0  0  0  0  0
   -0.0000   -1.0607    0.0000 O   0  0  0  0  0  0  0  0  0  0  0  0
   -1.0607    0.0000    0.0000 C   0  0  0  0  0  0  0  0  0  0  0  0
    0.0000    1.0607    0.0000 C   0  0  0  0  0  0  0  0  0  0  0  0
   -0.6810    2.3972    0.0000 C   0  0  0  0  0  0  0  0  0  0  0  0
   -2.1625    2.1625    0.0000 C   0  0  0  0  0  0  0  0  0  0  0  0
   -2.3972    0.6810    0.0000 C   0  0  0  0  0  0  0  0  0  0  0  0
   -3.0782   -0.6555    0.0000 C   0  0  0  0  0  0  0  0  0  0  0  0
   -1.7416   -1.3365    0.0000 C   0  0  0  0  0  0  0  0  0  0  0  0
    2.1213    1.0607    0.0000 H   0  0  0  0  0  0  0  0  0  0  0  0
    2.1213   -1.0607    0.0000 H   0  0  0  0  0  0  0  0  0  0  0  0
    1.2135    1.9423    0.0000 H   0  0  0  0  0  0  0  0  0  0  0  0
    0.7194    2.9347    0.0000 H   0  0  0  0  0  0  0  0  0  0  0  0
   -1.0692    3.8461    0.0000 H   0  0  0  0  0  0  0  0  0  0  0  0
   -3.2232    3.2232    0.0000 H   0  0  0  0  0  0  0  0  0  0  0  0
   -3.8238    1.1445    0.0000 H   0  0  0  0  0  0  0  0  0  0  0  0
   -3.7591   -1.9920    0.0000 H   0  0  0  0  0  0  0  0  0  0  0  0
   -4.4147    0.0255    0.0000 H   0  0  0  0  0  0  0  0  0  0  0  0
   -1.2781   -2.7631    0.0000 H   0  0  0  0  0  0  0  0  0  0  0  0
  1  2  1  0
  2  3  1  0
  3  4  1  0
  4  5  1  0
  5  6  1  0
  6  7  1  0
  7  8  1  0
  8  9  1  0
  4  1  1  0
  9  6  1  0
  7  3  1  0
  9  3  1  0
  1 10  1  0
  1 11  1  0
  4 12  1  0
  5 13  1  0
  5 14  1  0
  6 15  1  0
  7 16  1  0
  8 17  1  0
  8 18  1  0
  9 19  1  0
M  END
