
     RDKit          3D

 19 21  0  0  0  0  0  0  0  0999 V2000
    2.1928   -0.3363   -0.4792 C   0  0  0  0  0  0  0  0  0  0  0  0
    1.3243   -0.8603   -1.4292 O   0  0  0  0  0  0  0  0  0  0  0  0
    0.3813   -1.0071   -0.3890 C   0  0  0  0  0  0  0  0  0  0  0  0
    1.0225    0.1251    0.3318 C   0  0  0  0  0  0  0  0  0  0  0  0
    0.3565    1.3516   -0.1863 C   0  0  0  0  0  0  0  0  0  0  0  0
   -1.0117    0.9217   -0.7039 C   0  0  0  0  0  0  0  0  0  0  0  0
   -1.9407    0.8215    0.3235 O   0  0  0  0  0  0  0  0  0  0  0  0
   -2.0688   -0.5469    0.1234 C   0  0  0  0  0  0  0  0  0  0  0  0
   -0.9630   -0.5627   -0.8756 C   0  0  0  0  0  0  0  0  0  0  0  0
    2.8076   -1.1232   -0.0500 H   0  0  0  0  0  0  0  0  0  0  0  0
    2.7448    0.5211   -0.8885 H   0  0  0  0  0  0  0  0  0  0  0  0
    0.4653   -2.0076    0.0328 H   0  0  0  0  0  0  0  0  0  0  0  0
    1.1582    0.0448    1.4122 H   0  0  0  0  0  0  0  0  0  0  0  0
    0.2172    2.1469    0.5984 H   0  0  0  0  0  0  0  0  0  0  0  0
    0.8688    1.8393   -1.0309 H   0  0  0  0  0  0  0  0  0  0  0  0
   -1.3968    1.5175   -1.5340 H   0  0  0  0  0  0  0  0  0  0  0  0
   -3.0448   -0.7610   -0.3706 H   0  0  0  0  0  0  0  0  0  0  0  0
   -1.9222   -1.1229    1.0528 H   0  0  0  0  0  0  0  0  0  0  0  0
   -1.1911   -0.9615   -1.8762 H   0  0  0  0  0  0  0  0  0  0  0  0
  1  2  1  0
  2  3  1  0
  3  4  1  0
  4  5  1  0
  5  6  1  0
  6  7  1  0
  7  8  1  0
  8  9  1  0
  4  1  1  0
  9  6  1  0
  9  3  1  0
  1 10  1  0
  1 11  1  0
  3 12  1  0
  4 13  1  0
  5 14  1  0
  5 15  1  0
  6 16  1  0
  8 17  1  0
  8 18  1  0
  9 19  1  0
M  END
