
     RDKit          3D

 19 21  0  0  0  0  0  0  0  0999 V2000
    0.0874    1.5967    0.1817 C   0  0  0  0  0  0  0  0  0  0  0  0
    0.3453    0.8954    1.3386 O   0  0  0  0  0  0  0  0  0  0  0  0
    0.6478   -0.4638    1.0867 C   0  0  0  0  0  0  0  0  0  0  0  0
    1.5277   -0.4200   -0.1759 C   0  0  0  0  0  0  0  0  0  0  0  0
    0.3702   -0.4361   -1.1835 C   0  0  0  0  0  0  0  0  0  0  0  0
   -0.2087   -1.6532   -0.7402 O   0  0  0  0  0  0  0  0  0  0  0  0
   -0.5425   -1.2181    0.5674 C   0  0  0  0  0  0  0  0  0  0  0  0
   -1.5664   -0.1512    0.1450 C   0  0  0  0  0  0  0  0  0  0  0  0
   -0.6082    0.6257   -0.7807 C   0  0  0  0  0  0  0  0  0  0  0  0
    0.9334    2.1069   -0.2673 H   0  0  0  0  0  0  0  0  0  0  0  0
   -0.6633    2.3887    0.4470 H   0  0  0  0  0  0  0  0  0  0  0  0
    1.1525   -0.9207    1.9279 H   0  0  0  0  0  0  0  0  0  0  0  0
    2.1380    0.4642   -0.2359 H   0  0  0  0  0  0  0  0  0  0  0  0
    2.0324   -1.3843   -0.2401 H   0  0  0  0  0  0  0  0  0  0  0  0
    0.6801   -0.4479   -2.2054 H   0  0  0  0  0  0  0  0  0  0  0  0
   -0.9427   -1.9802    1.1949 H   0  0  0  0  0  0  0  0  0  0  0  0
   -2.3689   -0.5796   -0.4639 H   0  0  0  0  0  0  0  0  0  0  0  0
   -1.8906    0.4549    0.9925 H   0  0  0  0  0  0  0  0  0  0  0  0
   -1.1235    1.1227   -1.5888 H   0  0  0  0  0  0  0  0  0  0  0  0
  1  2  1  0
  2  3  1  0
  3  4  1  0
  4  5  1  0
  5  6  1  0
  6  7  1  0
  7  8  1  0
  8  9  1  0
  9  1  1  0
  7  3  1  0
  9  5  1  0
  1 10  1  0
  1 11  1  0
  3 12  1  0
  4 13  1  0
  4 14  1  0
  5 15  1  0
  7 16  1  0
  8 17  1  0
  8 18  1  0
  9 19  1  0
M  END
