
     RDKit          3D

 18 20  0  0  0  0  0  0  0  0999 V2000
   -0.9849   -1.5201   -0.2264 C   0  0  0  0  0  0  0  0  0  0  0  0
    0.3591   -1.5227    0.1367 O   0  0  0  0  0  0  0  0  0  0  0  0
    0.7313   -0.2037    0.1436 C   0  0  0  0  0  0  0  0  0  0  0  0
    1.6180    0.3857   -0.8743 C   0  0  0  0  0  0  0  0  0  0  0  0
    2.0717    0.2652    0.5256 C   0  0  0  0  0  0  0  0  0  0  0  0
   -0.4325    0.5502    0.7285 C   0  0  0  0  0  0  0  0  0  0  0  0
   -1.4356    1.0416   -0.2785 C   0  0  0  0  0  0  0  0  0  0  0  0
   -1.6056   -0.2874    0.3500 C   0  0  0  0  0  0  0  0  0  0  0  0
   -1.1479   -1.6487   -1.3015 H   0  0  0  0  0  0  0  0  0  0  0  0
   -1.4356   -2.4191    0.2726 H   0  0  0  0  0  0  0  0  0  0  0  0
    2.0727   -0.2908   -1.6190 H   0  0  0  0  0  0  0  0  0  0  0  0
    1.3019    1.3788   -1.2676 H   0  0  0  0  0  0  0  0  0  0  0  0
    2.1431    1.2385    1.0808 H   0  0  0  0  0  0  0  0  0  0  0  0
    2.8386   -0.4514    0.8400 H   0  0  0  0  0  0  0  0  0  0  0  0
   -0.3360    1.0083    1.7116 H   0  0  0  0  0  0  0  0  0  0  0  0
   -2.0855    1.8477    0.0944 H   0  0  0  0  0  0  0  0  0  0  0  0
   -1.2064    1.0507   -1.3510 H   0  0  0  0  0  0  0  0  0  0  0  0
   -2.4664   -0.4229    1.0346 H   0  0  0  0  0  0  0  0  0  0  0  0
  1  2  1  0
  2  3  1  0
  3  4  1  0
  4  5  1  0
  3  6  1  0
  6  7  1  0
  7  8  1  0
  8  1  1  0
  5  3  1  0
  8  6  1  0
  1  9  1  0
  1 10  1  0
  4 11  1  0
  4 12  1  0
  5 13  1  0
  5 14  1  0
  6 15  1  0
  7 16  1  0
  7 17  1  0
  8 18  1  0
M  END
