
     RDKit          3D

 19 21  0  0  0  0  0  0  0  0999 V2000
    2.2941   -0.4201    0.8526 C   0  0  0  0  0  0  0  0  0  0  0  0
    2.0910    0.9402    0.6813 O   0  0  0  0  0  0  0  0  0  0  0  0
    1.1216    1.0835   -0.2926 C   0  0  0  0  0  0  0  0  0  0  0  0
    0.2864   -0.1660   -0.0894 C   0  0  0  0  0  0  0  0  0  0  0  0
   -0.5219   -0.4877   -1.3138 C   0  0  0  0  0  0  0  0  0  0  0  0
   -1.7007    0.1838   -0.6000 C   0  0  0  0  0  0  0  0  0  0  0  0
   -2.2087   -0.5689    0.5572 C   0  0  0  0  0  0  0  0  0  0  0  0
   -0.9095    0.0812    0.7443 C   0  0  0  0  0  0  0  0  0  0  0  0
    1.2063   -1.0822    0.3205 O   0  0  0  0  0  0  0  0  0  0  0  0
    3.2472   -0.7030    0.3433 H   0  0  0  0  0  0  0  0  0  0  0  0
    2.4055   -0.6674    1.9387 H   0  0  0  0  0  0  0  0  0  0  0  0
    1.4889    1.0813   -1.3161 H   0  0  0  0  0  0  0  0  0  0  0  0
    0.4544    1.9614   -0.1245 H   0  0  0  0  0  0  0  0  0  0  0  0
   -0.7954   -1.5767   -1.4298 H   0  0  0  0  0  0  0  0  0  0  0  0
   -0.1943   -0.0024   -2.2293 H   0  0  0  0  0  0  0  0  0  0  0  0
   -2.0118    1.1782   -0.8872 H   0  0  0  0  0  0  0  0  0  0  0  0
   -2.3025   -1.6808    0.3895 H   0  0  0  0  0  0  0  0  0  0  0  0
   -3.0666   -0.1585    1.0961 H   0  0  0  0  0  0  0  0  0  0  0  0
   -0.8839    1.0042    1.3590 H   0  0  0  0  0  0  0  0  0  0  0  0
  1  2  1  0
  2  3  1  0
  3  4  1  0
  4  5  1  0
  5  6  1  0
  6  7  1  0
  7  8  1  0
  4  9  1  0
  9  1  1  0
  8  4  1  0
  8  6  1  0
  1 10  1  0
  1 11  1  0
  3 12  1  0
  3 13  1  0
  5 14  1  0
  5 15  1  0
  6 16  1  0
  7 17  1  0
  7 18  1  0
  8 19  1  0
M  END
