
     RDKit          3D

 17 20  0  0  0  0  0  0  0  0999 V2000
   -0.7938    0.9492   -0.9613 C   0  0  0  0  0  0  0  0  0  0  0  0
   -1.3602    1.1330    0.2663 O   0  0  0  0  0  0  0  0  0  0  0  0
   -1.2863   -0.0424    0.9770 C   0  0  0  0  0  0  0  0  0  0  0  0
    0.0047   -0.6662    0.5586 C   0  0  0  0  0  0  0  0  0  0  0  0
   -0.0061   -1.5093   -0.6520 C   0  0  0  0  0  0  0  0  0  0  0  0
    0.3130   -0.0500   -0.8468 C   0  0  0  0  0  0  0  0  0  0  0  0
    1.6063    0.4626   -0.1950 C   0  0  0  0  0  0  0  0  0  0  0  0
    1.3434    1.4431    0.7652 O   0  0  0  0  0  0  0  0  0  0  0  0
    1.2686   -0.0244    1.0193 C   0  0  0  0  0  0  0  0  0  0  0  0
   -0.3236    1.9194   -1.2943 H   0  0  0  0  0  0  0  0  0  0  0  0
   -1.5314    0.6927   -1.7321 H   0  0  0  0  0  0  0  0  0  0  0  0
   -2.1583   -0.6822    0.7075 H   0  0  0  0  0  0  0  0  0  0  0  0
   -1.2281    0.1261    2.0873 H   0  0  0  0  0  0  0  0  0  0  0  0
   -0.9487   -1.8493   -1.0807 H   0  0  0  0  0  0  0  0  0  0  0  0
    0.8521   -2.1902   -0.7960 H   0  0  0  0  0  0  0  0  0  0  0  0
    2.5187    0.5049   -0.7958 H   0  0  0  0  0  0  0  0  0  0  0  0
    1.7298   -0.2169    1.9728 H   0  0  0  0  0  0  0  0  0  0  0  0
  1  2  1  0
  2  3  1  0
  3  4  1  0
  4  5  1  0
  5  6  1  0
  6  7  1  0
  7  8  1  0
  8  9  1  0
  6  1  1  0
  9  7  1  0
  6  4  1  0
  9  4  1  0
  1 10  1  0
  1 11  1  0
  3 12  1  0
  3 13  1  0
  5 14  1  0
  5 15  1  0
  7 16  1  0
  9 17  1  0
M  END
