
     RDKit          3D

 17 19  0  0  0  0  0  0  0  0999 V2000
    1.8724    1.2162   -0.4295 C   0  0  0  0  0  0  0  0  0  0  0  0
    2.7050    0.3242    0.0333 O   0  0  0  0  0  0  0  0  0  0  0  0
    2.0957   -0.7390    0.4751 C   0  0  0  0  0  0  0  0  0  0  0  0
    0.7411   -0.5497    0.2961 C   0  0  0  0  0  0  0  0  0  0  0  0
    0.5968    0.7118   -0.2876 C   0  0  0  0  0  0  0  0  0  0  0  0
   -0.8775    0.8121   -0.4339 C   0  0  0  0  0  0  0  0  0  0  0  0
   -1.2205   -0.5743   -0.9529 C   0  0  0  0  0  0  0  0  0  0  0  0
   -0.6630   -1.0050    0.4077 C   0  0  0  0  0  0  0  0  0  0  0  0
   -1.3652    0.2574    0.9132 C   0  0  0  0  0  0  0  0  0  0  0  0
    2.0705    2.2012   -0.8640 H   0  0  0  0  0  0  0  0  0  0  0  0
    2.5178   -1.6472    0.9171 H   0  0  0  0  0  0  0  0  0  0  0  0
   -1.3129    1.6692   -0.8348 H   0  0  0  0  0  0  0  0  0  0  0  0
   -2.3016   -0.7332   -0.9522 H   0  0  0  0  0  0  0  0  0  0  0  0
   -0.6469   -0.9078   -1.8154 H   0  0  0  0  0  0  0  0  0  0  0  0
   -0.8965   -1.9376    0.8032 H   0  0  0  0  0  0  0  0  0  0  0  0
   -2.4488    0.1667    0.9435 H   0  0  0  0  0  0  0  0  0  0  0  0
   -0.8664    0.7350    1.7812 H   0  0  0  0  0  0  0  0  0  0  0  0
  1  2  1  0
  2  3  1  0
  3  4  2  0
  4  5  1  0
  5  6  1  0
  6  7  1  0
  7  8  1  0
  8  9  1  0
  5  1  2  0
  9  6  1  0
  8  4  1  0
  1 10  1  0
  3 11  1  0
  6 12  1  0
  7 13  1  0
  7 14  1  0
  8 15  1  0
  9 16  1  0
  9 17  1  0
M  END
