
     RDKit          2D

 19 21  0  0  0  0  0  0  0  0999 V2000
    1.5000    0.0000    0.0000 C   0  0  0  0  0  0  0  0  0  0  0  0
    0.7500   -1.2990    0.0000 O   0  0  0  0  0  0  0  0  0  0  0  0
   -0.7500   -1.2990    0.0000 C   0  0  0  0  0  0  0  0  0  0  0  0
   -1.5000    0.0000    0.0000 C   0  0  0  0  0  0  0  0  0  0  0  0
   -2.7990    0.7500    0.0000 C   0  0  0  0  0  0  0  0  0  0  0  0
   -2.0490    2.0490    0.0000 C   0  0  0  0  0  0  0  0  0  0  0  0
   -2.1229    0.9312    0.0000 C   0  0  0  0  0  0  0  0  0  0  0  0
   -0.7500    1.2990    0.0000 C   0  0  0  0  0  0  0  0  0  0  0  0
    0.7500    1.2990    0.0000 O   0  0  0  0  0  0  0  0  0  0  0  0
    2.6491    0.9642    0.0000 H   0  0  0  0  0  0  0  0  0  0  0  0
    2.6491   -0.9642    0.0000 H   0  0  0  0  0  0  0  0  0  0  0  0
   -0.4895   -2.7762    0.0000 H   0  0  0  0  0  0  0  0  0  0  0  0
   -2.1595   -1.8121    0.0000 H   0  0  0  0  0  0  0  0  0  0  0  0
   -3.9970    1.6528    0.0000 H   0  0  0  0  0  0  0  0  0  0  0  0
   -3.3321    0.0426    0.0000 H   0  0  0  0  0  0  0  0  0  0  0  0
   -2.4373    3.4979    0.0000 H   0  0  0  0  0  0  0  0  0  0  0  0
   -2.6119    0.3260    0.0000 H   0  0  0  0  0  0  0  0  0  0  0  0
   -4.1798    1.3361    0.0000 H   0  0  0  0  0  0  0  0  0  0  0  0
   -0.3618    2.7479    0.0000 H   0  0  0  0  0  0  0  0  0  0  0  0
  1  2  1  0
  2  3  1  0
  3  4  1  0
  4  5  1  0
  5  6  1  0
  6  7  1  0
  6  8  1  0
  8  9  1  0
  9  1  1  0
  7  4  1  0
  8  4  1  0
  1 10  1  0
  1 11  1  0
  3 12  1  0
  3 13  1  0
  5 14  1  0
  5 15  1  0
  6 16  1  0
  7 17  1  0
  7 18  1  0
  8 19  1  0
M  END
