
     RDKit          3D

 19 21  0  0  0  0  0  0  0  0999 V2000
    2.6873    0.5135    0.4435 C   0  0  0  0  0  0  0  0  0  0  0  0
    2.7342   -0.5934   -0.5621 O   0  0  0  0  0  0  0  0  0  0  0  0
    1.5495   -0.3224    0.3303 C   0  0  0  0  0  0  0  0  0  0  0  0
    0.4006    0.0714   -0.5694 C   0  0  0  0  0  0  0  0  0  0  0  0
    0.1266   -0.9869   -1.4601 O   0  0  0  0  0  0  0  0  0  0  0  0
   -0.8312   -1.4289   -0.5170 C   0  0  0  0  0  0  0  0  0  0  0  0
   -0.9523   -0.0484   -0.0662 C   0  0  0  0  0  0  0  0  0  0  0  0
   -1.6377    0.5089    1.0340 C   0  0  0  0  0  0  0  0  0  0  0  0
   -1.9784    0.9207   -0.4267 C   0  0  0  0  0  0  0  0  0  0  0  0
    2.7591    1.4676   -0.1001 H   0  0  0  0  0  0  0  0  0  0  0  0
    3.4764    0.2720    1.2016 H   0  0  0  0  0  0  0  0  0  0  0  0
    1.4210   -1.2130    0.9495 H   0  0  0  0  0  0  0  0  0  0  0  0
    0.5765    0.9828   -1.1659 H   0  0  0  0  0  0  0  0  0  0  0  0
   -0.3109   -2.0881    0.2004 H   0  0  0  0  0  0  0  0  0  0  0  0
   -1.7530   -1.8263   -0.9647 H   0  0  0  0  0  0  0  0  0  0  0  0
   -2.4705   -0.0462    1.5203 H   0  0  0  0  0  0  0  0  0  0  0  0
   -1.2093    1.2973    1.6806 H   0  0  0  0  0  0  0  0  0  0  0  0
   -2.9120    0.5630   -0.8500 H   0  0  0  0  0  0  0  0  0  0  0  0
   -1.6758    1.9563   -0.6781 H   0  0  0  0  0  0  0  0  0  0  0  0
  1  2  1  0
  2  3  1  0
  3  4  1  0
  4  5  1  0
  5  6  1  0
  6  7  1  0
  7  8  1  0
  8  9  1  0
  3  1  1  0
  7  4  1  0
  9  7  1  0
  1 10  1  0
  1 11  1  0
  3 12  1  0
  4 13  1  0
  6 14  1  0
  6 15  1  0
  8 16  1  0
  8 17  1  0
  9 18  1  0
  9 19  1  0
M  END
