
     RDKit          3D

 21 23  0  0  0  0  0  0  0  0999 V2000
   -1.3706    0.9709    0.8636 C   0  0  0  0  0  0  0  0  0  0  0  0
   -1.7987   -0.3229    0.8564 O   0  0  0  0  0  0  0  0  0  0  0  0
   -1.1290   -1.0443   -0.0949 C   0  0  0  0  0  0  0  0  0  0  0  0
   -0.9122   -0.0088   -1.2073 C   0  0  0  0  0  0  0  0  0  0  0  0
   -0.4439    1.1472   -0.3493 C   0  0  0  0  0  0  0  0  0  0  0  0
    0.9451    0.9383    0.1651 C   0  0  0  0  0  0  0  0  0  0  0  0
    1.9637    0.1472   -0.5065 C   0  0  0  0  0  0  0  0  0  0  0  0
    1.1742   -0.3949    0.6816 C   0  0  0  0  0  0  0  0  0  0  0  0
    0.2260   -1.4686    0.3614 C   0  0  0  0  0  0  0  0  0  0  0  0
   -2.1905    1.6918    0.8342 H   0  0  0  0  0  0  0  0  0  0  0  0
   -0.8155    1.1494    1.8119 H   0  0  0  0  0  0  0  0  0  0  0  0
   -1.6861   -1.9145   -0.4565 H   0  0  0  0  0  0  0  0  0  0  0  0
   -1.8466    0.2430   -1.7147 H   0  0  0  0  0  0  0  0  0  0  0  0
   -0.1462   -0.3116   -1.9186 H   0  0  0  0  0  0  0  0  0  0  0  0
   -0.6480    2.1273   -0.7693 H   0  0  0  0  0  0  0  0  0  0  0  0
    1.3076    1.8136    0.7796 H   0  0  0  0  0  0  0  0  0  0  0  0
    1.8434   -0.3523   -1.4818 H   0  0  0  0  0  0  0  0  0  0  0  0
    3.0271    0.3576   -0.2665 H   0  0  0  0  0  0  0  0  0  0  0  0
    1.7087   -0.4724    1.6692 H   0  0  0  0  0  0  0  0  0  0  0  0
    0.6678   -2.0947   -0.4702 H   0  0  0  0  0  0  0  0  0  0  0  0
    0.1238   -2.2013    1.2127 H   0  0  0  0  0  0  0  0  0  0  0  0
  1  2  1  0
  2  3  1  0
  3  4  1  0
  4  5  1  0
  5  6  1  0
  6  7  1  0
  7  8  1  0
  8  9  1  0
  5  1  1  0
  8  6  1  0
  9  3  1  0
  1 10  1  0
  1 11  1  0
  3 12  1  0
  4 13  1  0
  4 14  1  0
  5 15  1  0
  6 16  1  0
  7 17  1  0
  7 18  1  0
  8 19  1  0
  9 20  1  0
  9 21  1  0
M  END
