
     RDKit          3D

 17 19  0  0  0  0  0  0  0  0999 V2000
    2.3412   -0.9149    0.1305 C   0  0  0  0  0  0  0  0  0  0  0  0
    1.3746   -1.1839   -0.8082 O   0  0  0  0  0  0  0  0  0  0  0  0
    0.5839   -0.0320   -0.9347 C   0  0  0  0  0  0  0  0  0  0  0  0
    0.8849    0.7740    0.3025 C   0  0  0  0  0  0  0  0  0  0  0  0
    1.9074    0.1042    0.9411 O   0  0  0  0  0  0  0  0  0  0  0  0
   -0.4130    0.1713    0.1149 C   0  0  0  0  0  0  0  0  0  0  0  0
   -1.6946    0.8908   -0.0637 C   0  0  0  0  0  0  0  0  0  0  0  0
   -2.2176   -0.4587    0.3593 C   0  0  0  0  0  0  0  0  0  0  0  0
   -0.9543   -0.8301    0.8767 O   0  0  0  0  0  0  0  0  0  0  0  0
    3.2399   -0.5414   -0.4194 H   0  0  0  0  0  0  0  0  0  0  0  0
    2.5805   -1.7842    0.7853 H   0  0  0  0  0  0  0  0  0  0  0  0
    0.6143    0.5423   -1.8689 H   0  0  0  0  0  0  0  0  0  0  0  0
    0.9563    1.8828    0.2337 H   0  0  0  0  0  0  0  0  0  0  0  0
   -1.9586    1.2257   -1.0736 H   0  0  0  0  0  0  0  0  0  0  0  0
   -1.8234    1.6821    0.6948 H   0  0  0  0  0  0  0  0  0  0  0  0
   -2.9334   -0.3862    1.1823 H   0  0  0  0  0  0  0  0  0  0  0  0
   -2.4880   -1.1417   -0.4524 H   0  0  0  0  0  0  0  0  0  0  0  0
  1  2  1  0
  2  3  1  0
  3  4  1  0
  4  5  1  0
  4  6  1  0
  6  7  1  0
  7  8  1  0
  8  9  1  0
  5  1  1  0
  9  6  1  0
  6  3  1  0
  1 10  1  0
  1 11  1  0
  3 12  1  0
  4 13  1  0
  7 14  1  0
  7 15  1  0
  8 16  1  0
  8 17  1  0
M  END
