
     RDKit          3D

 21 23  0  0  0  0  0  0  0  0999 V2000
    1.6581    0.6989    0.5857 C   0  0  0  0  0  0  0  0  0  0  0  0
    2.2614   -0.5198    0.2224 O   0  0  0  0  0  0  0  0  0  0  0  0
    1.2931   -1.2755   -0.4807 C   0  0  0  0  0  0  0  0  0  0  0  0
    0.0713   -0.6239   -0.3005 C   0  0  0  0  0  0  0  0  0  0  0  0
   -0.7892   -0.8053    0.9240 C   0  0  0  0  0  0  0  0  0  0  0  0
   -1.6578    0.2117    0.1609 C   0  0  0  0  0  0  0  0  0  0  0  0
   -0.7685    1.4271    0.2924 C   0  0  0  0  0  0  0  0  0  0  0  0
    0.4859    0.8675   -0.2859 C   0  0  0  0  0  0  0  0  0  0  0  0
   -1.1419   -0.5507   -1.0772 C   0  0  0  0  0  0  0  0  0  0  0  0
    2.3790    1.5386    0.3769 H   0  0  0  0  0  0  0  0  0  0  0  0
    1.4238    0.6819    1.6494 H   0  0  0  0  0  0  0  0  0  0  0  0
    1.4166   -2.3346   -0.1320 H   0  0  0  0  0  0  0  0  0  0  0  0
    1.6320   -1.2840   -1.5366 H   0  0  0  0  0  0  0  0  0  0  0  0
   -1.3099   -1.7581    0.9134 H   0  0  0  0  0  0  0  0  0  0  0  0
   -0.3758   -0.4396    1.8609 H   0  0  0  0  0  0  0  0  0  0  0  0
   -2.6847    0.2465    0.3473 H   0  0  0  0  0  0  0  0  0  0  0  0
   -0.6719    1.7876    1.3133 H   0  0  0  0  0  0  0  0  0  0  0  0
   -1.1095    2.2711   -0.3646 H   0  0  0  0  0  0  0  0  0  0  0  0
    0.7282    1.2147   -1.2960 H   0  0  0  0  0  0  0  0  0  0  0  0
   -1.7452   -1.4555   -1.2074 H   0  0  0  0  0  0  0  0  0  0  0  0
   -1.0950    0.1015   -1.9657 H   0  0  0  0  0  0  0  0  0  0  0  0
  1  2  1  0
  2  3  1  0
  3  4  1  0
  4  5  1  0
  5  6  1  0
  6  7  1  0
  7  8  1  0
  6  9  1  0
  8  1  1  0
  8  4  1  0
  9  4  1  0
  1 10  1  0
  1 11  1  0
  3 12  1  0
  3 13  1  0
  5 14  1  0
  5 15  1  0
  6 16  1  0
  7 17  1  0
  7 18  1  0
  8 19  1  0
  9 20  1  0
  9 21  1  0
M  END
