
     RDKit          3D

 16 18  0  0  0  0  0  0  0  0999 V2000
   -1.0303    0.9985   -0.7192 C   0  0  0  0  0  0  0  0  0  0  0  0
    0.2478    1.4532   -0.7716 O   0  0  0  0  0  0  0  0  0  0  0  0
    1.2038    0.7667   -0.1239 C   0  0  0  0  0  0  0  0  0  0  0  0
    0.8622   -0.2011    0.8934 C   0  0  0  0  0  0  0  0  0  0  0  0
   -0.5638   -0.6209    1.0042 C   0  0  0  0  0  0  0  0  0  0  0  0
   -1.0029   -0.5041   -0.4648 C   0  0  0  0  0  0  0  0  0  0  0  0
    0.0710   -1.0530   -1.1284 O   0  0  0  0  0  0  0  0  0  0  0  0
    1.2164   -0.6561   -0.4893 C   0  0  0  0  0  0  0  0  0  0  0  0
   -1.5370    1.5151    0.1493 H   0  0  0  0  0  0  0  0  0  0  0  0
   -1.5975    1.2460   -1.6365 H   0  0  0  0  0  0  0  0  0  0  0  0
    2.1707    1.3104    0.0082 H   0  0  0  0  0  0  0  0  0  0  0  0
    1.5573   -0.3976    1.7172 H   0  0  0  0  0  0  0  0  0  0  0  0
   -1.1694    0.0113    1.6532 H   0  0  0  0  0  0  0  0  0  0  0  0
   -0.6273   -1.7037    1.2616 H   0  0  0  0  0  0  0  0  0  0  0  0
   -1.9529   -0.9932   -0.6543 H   0  0  0  0  0  0  0  0  0  0  0  0
    2.1517   -1.1714   -0.6991 H   0  0  0  0  0  0  0  0  0  0  0  0
  1  2  1  0
  2  3  1  0
  3  4  1  0
  4  5  1  0
  5  6  1  0
  6  7  1  0
  7  8  1  0
  6  1  1  0
  8  3  1  0
  8  4  1  0
  1  9  1  0
  1 10  1  0
  3 11  1  0
  4 12  1  0
  5 13  1  0
  5 14  1  0
  6 15  1  0
  8 16  1  0
M  END
