
     RDKit          3D

 19 21  0  0  0  0  0  0  0  0999 V2000
    2.2811    0.5217   -0.6203 C   0  0  0  0  0  0  0  0  0  0  0  0
    2.2707    0.3936    0.8557 O   0  0  0  0  0  0  0  0  0  0  0  0
    1.6232   -0.5936    0.0170 C   0  0  0  0  0  0  0  0  0  0  0  0
    0.1484   -0.7340    0.1689 C   0  0  0  0  0  0  0  0  0  0  0  0
   -0.4656    0.4236    0.9820 C   0  0  0  0  0  0  0  0  0  0  0  0
   -1.4216    0.9045   -0.0903 C   0  0  0  0  0  0  0  0  0  0  0  0
   -2.0372   -0.3629   -0.5915 C   0  0  0  0  0  0  0  0  0  0  0  0
   -0.6277   -0.5044   -1.1032 C   0  0  0  0  0  0  0  0  0  0  0  0
   -0.6263    0.8855   -1.2504 O   0  0  0  0  0  0  0  0  0  0  0  0
    1.8111    1.4561   -0.9344 H   0  0  0  0  0  0  0  0  0  0  0  0
    3.3110    0.3699   -1.0354 H   0  0  0  0  0  0  0  0  0  0  0  0
    2.1610   -1.5805   -0.0117 H   0  0  0  0  0  0  0  0  0  0  0  0
   -0.1776   -1.6720    0.6169 H   0  0  0  0  0  0  0  0  0  0  0  0
    0.2939    1.1843    1.2045 H   0  0  0  0  0  0  0  0  0  0  0  0
   -0.9898    0.0340    1.8778 H   0  0  0  0  0  0  0  0  0  0  0  0
   -2.0213    1.7622    0.0967 H   0  0  0  0  0  0  0  0  0  0  0  0
   -2.8151   -0.2483   -1.3710 H   0  0  0  0  0  0  0  0  0  0  0  0
   -2.2826   -1.1256    0.1938 H   0  0  0  0  0  0  0  0  0  0  0  0
   -0.4356   -1.1140   -1.9549 H   0  0  0  0  0  0  0  0  0  0  0  0
  1  2  1  0
  2  3  1  0
  3  4  1  0
  4  5  1  0
  5  6  1  0
  6  7  1  0
  7  8  1  0
  8  9  1  0
  3  1  1  0
  8  4  1  0
  9  6  1  0
  1 10  1  0
  1 11  1  0
  3 12  1  0
  4 13  1  0
  5 14  1  0
  5 15  1  0
  6 16  1  0
  7 17  1  0
  7 18  1  0
  8 19  1  0
M  END
