
     RDKit          3D

 19 21  0  0  0  0  0  0  0  0999 V2000
    2.0090   -0.8861   -0.0475 C   0  0  0  0  0  0  0  0  0  0  0  0
    0.7737   -1.4005    0.3189 O   0  0  0  0  0  0  0  0  0  0  0  0
    0.0918   -0.6118   -0.6361 C   0  0  0  0  0  0  0  0  0  0  0  0
    1.3095    0.2465   -0.7447 C   0  0  0  0  0  0  0  0  0  0  0  0
    1.0256    1.3753    0.1914 C   0  0  0  0  0  0  0  0  0  0  0  0
   -0.3041    1.3978    0.4789 O   0  0  0  0  0  0  0  0  0  0  0  0
   -0.9047    0.2536    0.0522 C   0  0  0  0  0  0  0  0  0  0  0  0
   -2.3524    0.1783   -0.1870 C   0  0  0  0  0  0  0  0  0  0  0  0
   -1.8460   -0.5015    1.0130 C   0  0  0  0  0  0  0  0  0  0  0  0
    2.6259   -0.5171    0.7946 H   0  0  0  0  0  0  0  0  0  0  0  0
    2.5229   -1.5239   -0.7862 H   0  0  0  0  0  0  0  0  0  0  0  0
   -0.2250   -1.1619   -1.5262 H   0  0  0  0  0  0  0  0  0  0  0  0
    1.6611    0.4992   -1.7533 H   0  0  0  0  0  0  0  0  0  0  0  0
    1.3380    2.3206   -0.3226 H   0  0  0  0  0  0  0  0  0  0  0  0
    1.6466    1.3195    1.1261 H   0  0  0  0  0  0  0  0  0  0  0  0
   -2.9098    1.1424   -0.0022 H   0  0  0  0  0  0  0  0  0  0  0  0
   -2.8029   -0.4633   -0.9765 H   0  0  0  0  0  0  0  0  0  0  0  0
   -1.8566   -0.0513    2.0200 H   0  0  0  0  0  0  0  0  0  0  0  0
   -1.8027   -1.6159    0.9872 H   0  0  0  0  0  0  0  0  0  0  0  0
  1  2  1  0
  2  3  1  0
  3  4  1  0
  4  5  1  0
  5  6  1  0
  6  7  1  0
  7  8  1  0
  8  9  1  0
  4  1  1  0
  9  7  1  0
  7  3  1  0
  1 10  1  0
  1 11  1  0
  3 12  1  0
  4 13  1  0
  5 14  1  0
  5 15  1  0
  8 16  1  0
  8 17  1  0
  9 18  1  0
  9 19  1  0
M  END
