
     RDKit          3D

 17 19  0  0  0  0  0  0  0  0999 V2000
   -3.0349    0.4920   -0.0361 C   0  0  0  0  0  0  0  0  0  0  0  0
   -2.2179    1.3208   -0.8075 O   0  0  0  0  0  0  0  0  0  0  0  0
   -1.6171    0.1349   -0.4450 C   0  0  0  0  0  0  0  0  0  0  0  0
   -0.5604    0.1712    0.6170 C   0  0  0  0  0  0  0  0  0  0  0  0
   -0.0495   -1.1846    0.8559 O   0  0  0  0  0  0  0  0  0  0  0  0
    0.8172   -0.1369    0.3879 C   0  0  0  0  0  0  0  0  0  0  0  0
    1.4534   -0.3627   -0.9380 C   0  0  0  0  0  0  0  0  0  0  0  0
    2.9508   -0.1555   -0.9738 C   0  0  0  0  0  0  0  0  0  0  0  0
    2.2819   -1.4434   -1.1647 O   0  0  0  0  0  0  0  0  0  0  0  0
   -3.8857   -0.0272   -0.4957 H   0  0  0  0  0  0  0  0  0  0  0  0
   -3.1302    0.8461    1.0314 H   0  0  0  0  0  0  0  0  0  0  0  0
   -1.5718   -0.6483   -1.2479 H   0  0  0  0  0  0  0  0  0  0  0  0
   -0.8578    0.7082    1.5385 H   0  0  0  0  0  0  0  0  0  0  0  0
    1.5289    0.1214    1.2070 H   0  0  0  0  0  0  0  0  0  0  0  0
    0.9370    0.1035   -1.8071 H   0  0  0  0  0  0  0  0  0  0  0  0
    3.5187   -0.1897   -0.0021 H   0  0  0  0  0  0  0  0  0  0  0  0
    3.4375    0.2503   -1.8597 H   0  0  0  0  0  0  0  0  0  0  0  0
  1  2  1  0
  2  3  1  0
  3  4  1  0
  4  5  1  0
  5  6  1  0
  6  7  1  0
  7  8  1  0
  8  9  1  0
  3  1  1  0
  6  4  1  0
  9  7  1  0
  1 10  1  0
  1 11  1  0
  3 12  1  0
  4 13  1  0
  6 14  1  0
  7 15  1  0
  8 16  1  0
  8 17  1  0
M  END
