
     RDKit          3D

 17 19  0  0  0  0  0  0  0  0999 V2000
    2.4913    0.2929   -0.2414 C   0  0  0  0  0  0  0  0  0  0  0  0
    1.8982    1.4955   -0.6132 O   0  0  0  0  0  0  0  0  0  0  0  0
    1.0691    0.4071   -0.7473 C   0  0  0  0  0  0  0  0  0  0  0  0
    0.0151    0.0741    0.2350 C   0  0  0  0  0  0  0  0  0  0  0  0
   -1.3019    0.7905    0.2561 C   0  0  0  0  0  0  0  0  0  0  0  0
   -2.4724    0.1464   -0.3843 C   0  0  0  0  0  0  0  0  0  0  0  0
   -2.2956   -0.0471    0.9786 O   0  0  0  0  0  0  0  0  0  0  0  0
    0.1667   -1.2872    0.8839 C   0  0  0  0  0  0  0  0  0  0  0  0
    0.5130   -0.1805    1.6129 O   0  0  0  0  0  0  0  0  0  0  0  0
    2.6637    0.1984    0.8433 H   0  0  0  0  0  0  0  0  0  0  0  0
    3.1854   -0.2085   -0.9478 H   0  0  0  0  0  0  0  0  0  0  0  0
    0.8638    0.0827   -1.7869 H   0  0  0  0  0  0  0  0  0  0  0  0
   -1.3293    1.8458    0.5964 H   0  0  0  0  0  0  0  0  0  0  0  0
   -3.2824    0.8276   -0.7360 H   0  0  0  0  0  0  0  0  0  0  0  0
   -2.2729   -0.6884   -1.0856 H   0  0  0  0  0  0  0  0  0  0  0  0
   -0.8364   -1.7707    1.0571 H   0  0  0  0  0  0  0  0  0  0  0  0
    0.9246   -1.9788    0.4708 H   0  0  0  0  0  0  0  0  0  0  0  0
  1  2  1  0
  2  3  1  0
  3  4  1  0
  4  5  1  0
  5  6  1  0
  6  7  1  0
  4  8  1  0
  8  9  1  0
  3  1  1  0
  9  4  1  0
  7  5  1  0
  1 10  1  0
  1 11  1  0
  3 12  1  0
  5 13  1  0
  6 14  1  0
  6 15  1  0
  8 16  1  0
  8 17  1  0
M  END
