
     RDKit          3D

 17 20  0  0  0  0  0  0  0  0999 V2000
   -1.7002    0.0274    0.1616 C   0  0  0  0  0  0  0  0  0  0  0  0
   -1.0905    0.4956    1.3293 O   0  0  0  0  0  0  0  0  0  0  0  0
    0.2488    0.7178    1.0873 C   0  0  0  0  0  0  0  0  0  0  0  0
    0.9261   -0.6133    0.9181 C   0  0  0  0  0  0  0  0  0  0  0  0
   -0.0151   -1.5818    0.5270 O   0  0  0  0  0  0  0  0  0  0  0  0
   -0.7410   -0.9854   -0.4826 C   0  0  0  0  0  0  0  0  0  0  0  0
    0.2618   -0.1138   -1.2517 C   0  0  0  0  0  0  0  0  0  0  0  0
    0.5723    1.0304   -0.3406 C   0  0  0  0  0  0  0  0  0  0  0  0
    1.4391   -0.1373   -0.4132 C   0  0  0  0  0  0  0  0  0  0  0  0
   -2.6862   -0.4052    0.3302 H   0  0  0  0  0  0  0  0  0  0  0  0
   -1.7865    0.9356   -0.5049 H   0  0  0  0  0  0  0  0  0  0  0  0
    0.7268    1.4013    1.8213 H   0  0  0  0  0  0  0  0  0  0  0  0
    1.6463   -0.9197    1.6625 H   0  0  0  0  0  0  0  0  0  0  0  0
   -1.2723   -1.6762   -1.1335 H   0  0  0  0  0  0  0  0  0  0  0  0
    0.2002   -0.0249   -2.3214 H   0  0  0  0  0  0  0  0  0  0  0  0
    0.7999    2.0243   -0.6922 H   0  0  0  0  0  0  0  0  0  0  0  0
    2.4705   -0.1747   -0.6972 H   0  0  0  0  0  0  0  0  0  0  0  0
  1  2  1  0
  2  3  1  0
  3  4  1  0
  4  5  1  0
  5  6  1  0
  6  7  1  0
  7  8  1  0
  8  9  1  0
  6  1  1  0
  9  7  1  0
  8  3  1  0
  9  4  1  0
  1 10  1  0
  1 11  1  0
  3 12  1  0
  4 13  1  0
  6 14  1  0
  7 15  1  0
  8 16  1  0
  9 17  1  0
M  END
