
     RDKit          3D

 19 21  0  0  0  0  0  0  0  0999 V2000
    1.8638   -0.0920   -0.0489 C   0  0  0  0  0  0  0  0  0  0  0  0
    1.6198    1.2221    0.2539 O   0  0  0  0  0  0  0  0  0  0  0  0
    0.2674    1.4660    0.2024 C   0  0  0  0  0  0  0  0  0  0  0  0
   -0.3958    0.9943    1.3326 O   0  0  0  0  0  0  0  0  0  0  0  0
   -1.1304   -0.1183    0.9637 C   0  0  0  0  0  0  0  0  0  0  0  0
   -0.1731   -1.2471    0.6272 C   0  0  0  0  0  0  0  0  0  0  0  0
    0.5644   -0.6804   -0.5873 C   0  0  0  0  0  0  0  0  0  0  0  0
   -0.1797    0.5810   -0.9410 C   0  0  0  0  0  0  0  0  0  0  0  0
   -1.5753    0.2495   -0.4639 C   0  0  0  0  0  0  0  0  0  0  0  0
    2.6087   -0.2186   -0.8715 H   0  0  0  0  0  0  0  0  0  0  0  0
    2.1868   -0.7056    0.8124 H   0  0  0  0  0  0  0  0  0  0  0  0
    0.0266    2.5100   -0.0349 H   0  0  0  0  0  0  0  0  0  0  0  0
   -1.9402   -0.3745    1.6127 H   0  0  0  0  0  0  0  0  0  0  0  0
   -0.6849   -2.1894    0.4026 H   0  0  0  0  0  0  0  0  0  0  0  0
    0.4813   -1.3887    1.4856 H   0  0  0  0  0  0  0  0  0  0  0  0
    0.6954   -1.3875   -1.3901 H   0  0  0  0  0  0  0  0  0  0  0  0
   -0.0748    0.9610   -1.9193 H   0  0  0  0  0  0  0  0  0  0  0  0
   -1.8940   -0.6659   -0.9566 H   0  0  0  0  0  0  0  0  0  0  0  0
   -2.2660    1.0841   -0.4796 H   0  0  0  0  0  0  0  0  0  0  0  0
  1  2  1  0
  2  3  1  0
  3  4  1  0
  4  5  1  0
  5  6  1  0
  6  7  1  0
  7  8  1  0
  8  9  1  0
  7  1  1  0
  8  3  1  0
  9  5  1  0
  1 10  1  0
  1 11  1  0
  3 12  1  0
  5 13  1  0
  6 14  1  0
  6 15  1  0
  7 16  1  0
  8 17  1  0
  9 18  1  0
  9 19  1  0
M  END
