
     RDKit          3D

 17 19  0  0  0  0  0  0  0  0999 V2000
   -2.0193    0.8578    0.3071 C   0  0  0  0  0  0  0  0  0  0  0  0
   -1.4144   -0.1981    1.0231 O   0  0  0  0  0  0  0  0  0  0  0  0
   -0.8083   -0.9007   -0.0000 C   0  0  0  0  0  0  0  0  0  0  0  0
    0.5969   -1.3584    0.3026 C   0  0  0  0  0  0  0  0  0  0  0  0
    1.0984   -0.0610   -0.1898 C   0  0  0  0  0  0  0  0  0  0  0  0
    1.9115    0.8826    0.3571 C   0  0  0  0  0  0  0  0  0  0  0  0
    2.2880    0.0779   -0.8371 O   0  0  0  0  0  0  0  0  0  0  0  0
   -0.2157    0.2078   -0.8417 C   0  0  0  0  0  0  0  0  0  0  0  0
   -0.9087    1.3287   -0.4140 O   0  0  0  0  0  0  0  0  0  0  0  0
   -2.7649    0.3684   -0.3550 H   0  0  0  0  0  0  0  0  0  0  0  0
   -2.4328    1.6248    0.9562 H   0  0  0  0  0  0  0  0  0  0  0  0
   -1.4062   -1.6419   -0.5300 H   0  0  0  0  0  0  0  0  0  0  0  0
    0.8021   -1.6459    1.3370 H   0  0  0  0  0  0  0  0  0  0  0  0
    0.8726   -2.1849   -0.4050 H   0  0  0  0  0  0  0  0  0  0  0  0
    2.6935    0.6634    1.1336 H   0  0  0  0  0  0  0  0  0  0  0  0
    1.8911    1.9519    0.0731 H   0  0  0  0  0  0  0  0  0  0  0  0
   -0.1839    0.0275   -1.9171 H   0  0  0  0  0  0  0  0  0  0  0  0
  1  2  1  0
  2  3  1  0
  3  4  1  0
  4  5  1  0
  5  6  1  0
  6  7  1  0
  5  8  1  0
  8  9  1  0
  9  1  1  0
  8  3  1  0
  7  5  1  0
  1 10  1  0
  1 11  1  0
  3 12  1  0
  4 13  1  0
  4 14  1  0
  6 15  1  0
  6 16  1  0
  8 17  1  0
M  END
