
     RDKit          3D

 16 18  0  0  0  0  0  0  0  0999 V2000
   -1.9233   -0.2896   -0.3021 C   0  0  0  0  0  0  0  0  0  0  0  0
   -1.1686   -1.2630   -0.9312 O   0  0  0  0  0  0  0  0  0  0  0  0
   -0.0954   -1.0499   -0.0458 C   0  0  0  0  0  0  0  0  0  0  0  0
   -0.9268   -0.1370    0.8007 C   0  0  0  0  0  0  0  0  0  0  0  0
   -0.2836    1.0679    0.9114 O   0  0  0  0  0  0  0  0  0  0  0  0
    0.6521    1.1736   -0.0813 C   0  0  0  0  0  0  0  0  0  0  0  0
    1.9667    0.5338    0.1525 C   0  0  0  0  0  0  0  0  0  0  0  0
    0.9038   -0.1346   -0.6948 C   0  0  0  0  0  0  0  0  0  0  0  0
   -2.9127   -0.6894   -0.0194 H   0  0  0  0  0  0  0  0  0  0  0  0
   -2.0343    0.6476   -0.8712 H   0  0  0  0  0  0  0  0  0  0  0  0
    0.2902   -1.9601    0.4197 H   0  0  0  0  0  0  0  0  0  0  0  0
   -1.2469   -0.5420    1.7901 H   0  0  0  0  0  0  0  0  0  0  0  0
    0.6363    2.0421   -0.7806 H   0  0  0  0  0  0  0  0  0  0  0  0
    2.2026   -0.0225    1.0718 H   0  0  0  0  0  0  0  0  0  0  0  0
    2.8582    0.8700   -0.4336 H   0  0  0  0  0  0  0  0  0  0  0  0
    1.0817   -0.2468   -1.7914 H   0  0  0  0  0  0  0  0  0  0  0  0
  1  2  1  0
  2  3  1  0
  3  4  1  0
  4  5  1  0
  5  6  1  0
  6  7  1  0
  7  8  1  0
  4  1  1  0
  8  6  1  0
  8  3  1  0
  1  9  1  0
  1 10  1  0
  3 11  1  0
  4 12  1  0
  6 13  1  0
  7 14  1  0
  7 15  1  0
  8 16  1  0
M  END
