
     RDKit          3D

 19 21  0  0  0  0  0  0  0  0999 V2000
    2.1117    0.0152   -0.3477 C   0  0  0  0  0  0  0  0  0  0  0  0
    1.5233    1.2349    0.0243 O   0  0  0  0  0  0  0  0  0  0  0  0
    0.2550    1.0097    0.5547 C   0  0  0  0  0  0  0  0  0  0  0  0
   -0.7330    1.1458   -0.6236 C   0  0  0  0  0  0  0  0  0  0  0  0
   -1.1891   -0.2859   -0.7185 C   0  0  0  0  0  0  0  0  0  0  0  0
   -1.4915   -0.5844    0.7555 C   0  0  0  0  0  0  0  0  0  0  0  0
    0.0266   -0.4231    0.8888 C   0  0  0  0  0  0  0  0  0  0  0  0
    0.0715   -1.0702   -0.5027 C   0  0  0  0  0  0  0  0  0  0  0  0
    1.1951   -0.6420   -1.1653 O   0  0  0  0  0  0  0  0  0  0  0  0
    3.0218    0.1950   -0.9264 H   0  0  0  0  0  0  0  0  0  0  0  0
    2.3807   -0.5613    0.5554 H   0  0  0  0  0  0  0  0  0  0  0  0
    0.0383    1.7232    1.3488 H   0  0  0  0  0  0  0  0  0  0  0  0
   -1.5634    1.7472   -0.2391 H   0  0  0  0  0  0  0  0  0  0  0  0
   -0.2442    1.5262   -1.5196 H   0  0  0  0  0  0  0  0  0  0  0  0
   -1.8979   -0.5806   -1.4417 H   0  0  0  0  0  0  0  0  0  0  0  0
   -2.0788    0.2209    1.2119 H   0  0  0  0  0  0  0  0  0  0  0  0
   -1.8122   -1.6146    0.9490 H   0  0  0  0  0  0  0  0  0  0  0  0
    0.5182   -0.9077    1.6820 H   0  0  0  0  0  0  0  0  0  0  0  0
   -0.1319   -2.1483   -0.4858 H   0  0  0  0  0  0  0  0  0  0  0  0
  1  2  1  0
  2  3  1  0
  3  4  1  0
  4  5  1  0
  5  6  1  0
  6  7  1  0
  7  8  1  0
  8  9  1  0
  9  1  1  0
  7  3  1  0
  8  5  1  0
  1 10  1  0
  1 11  1  0
  3 12  1  0
  4 13  1  0
  4 14  1  0
  5 15  1  0
  6 16  1  0
  6 17  1  0
  7 18  1  0
  8 19  1  0
M  END
