
     RDKit          3D

 19 21  0  0  0  0  0  0  0  0999 V2000
    0.1571    1.5523   -0.5681 C   0  0  0  0  0  0  0  0  0  0  0  0
    1.2692    0.8892   -0.9720 O   0  0  0  0  0  0  0  0  0  0  0  0
    1.5067   -0.3253   -0.4141 C   0  0  0  0  0  0  0  0  0  0  0  0
    1.1839   -0.2772    1.0677 C   0  0  0  0  0  0  0  0  0  0  0  0
   -0.3247   -0.3429    0.9886 C   0  0  0  0  0  0  0  0  0  0  0  0
   -0.8864    0.7209    0.1070 C   0  0  0  0  0  0  0  0  0  0  0  0
   -1.5037   -0.3616   -0.7501 C   0  0  0  0  0  0  0  0  0  0  0  0
   -0.4835   -1.3218   -0.1704 C   0  0  0  0  0  0  0  0  0  0  0  0
    0.6834   -1.3074   -0.8830 O   0  0  0  0  0  0  0  0  0  0  0  0
    0.4388    2.3709    0.1245 H   0  0  0  0  0  0  0  0  0  0  0  0
   -0.2835    2.0675   -1.4646 H   0  0  0  0  0  0  0  0  0  0  0  0
    2.5621   -0.6044   -0.5212 H   0  0  0  0  0  0  0  0  0  0  0  0
    1.5642    0.6000    1.5756 H   0  0  0  0  0  0  0  0  0  0  0  0
    1.5202   -1.2479    1.4936 H   0  0  0  0  0  0  0  0  0  0  0  0
   -0.8566   -0.6026    1.8975 H   0  0  0  0  0  0  0  0  0  0  0  0
   -1.6823    1.3616    0.5324 H   0  0  0  0  0  0  0  0  0  0  0  0
   -1.4778   -0.2128   -1.8254 H   0  0  0  0  0  0  0  0  0  0  0  0
   -2.5177   -0.6663   -0.3618 H   0  0  0  0  0  0  0  0  0  0  0  0
   -0.8691   -2.2924    0.1438 H   0  0  0  0  0  0  0  0  0  0  0  0
  1  2  1  0
  2  3  1  0
  3  4  1  0
  4  5  1  0
  5  6  1  0
  6  7  1  0
  7  8  1  0
  8  9  1  0
  6  1  1  0
  9  3  1  0
  8  5  1  0
  1 10  1  0
  1 11  1  0
  3 12  1  0
  4 13  1  0
  4 14  1  0
  5 15  1  0
  6 16  1  0
  7 17  1  0
  7 18  1  0
  8 19  1  0
M  END
