
     RDKit          3D

 19 20  0  0  0  0  0  0  0  0999 V2000
   -0.1873    1.9405    0.1763 C   0  0  0  0  0  0  0  0  0  0  0  0
   -0.6786    0.8088    0.8569 O   0  0  0  0  0  0  0  0  0  0  0  0
   -1.5674    0.1449    0.0399 C   0  0  0  0  0  0  0  0  0  0  0  0
   -0.8763   -1.0333   -0.6180 C   0  0  0  0  0  0  0  0  0  0  0  0
    0.1046   -1.5932    0.3721 C   0  0  0  0  0  0  0  0  0  0  0  0
    1.1375   -0.8822   -0.4339 C   0  0  0  0  0  0  0  0  0  0  0  0
    1.5560    0.4416    0.1219 C   0  0  0  0  0  0  0  0  0  0  0  0
    0.9316    1.5224   -0.5211 O   0  0  0  0  0  0  0  0  0  0  0  0
    0.1826   -0.6490   -1.4230 O   0  0  0  0  0  0  0  0  0  0  0  0
   -1.0033    2.3123   -0.4604 H   0  0  0  0  0  0  0  0  0  0  0  0
    0.1174    2.7023    0.9230 H   0  0  0  0  0  0  0  0  0  0  0  0
   -2.3699   -0.2928    0.6847 H   0  0  0  0  0  0  0  0  0  0  0  0
   -2.0575    0.7863   -0.7141 H   0  0  0  0  0  0  0  0  0  0  0  0
   -1.5419   -1.7503   -1.1186 H   0  0  0  0  0  0  0  0  0  0  0  0
   -0.0331   -1.2865    1.4163 H   0  0  0  0  0  0  0  0  0  0  0  0
    0.1809   -2.6955    0.3084 H   0  0  0  0  0  0  0  0  0  0  0  0
    1.9617   -1.5533   -0.7039 H   0  0  0  0  0  0  0  0  0  0  0  0
    1.4906    0.5138    1.2181 H   0  0  0  0  0  0  0  0  0  0  0  0
    2.6524    0.5634   -0.1246 H   0  0  0  0  0  0  0  0  0  0  0  0
  1  2  1  0
  2  3  1  0
  3  4  1  0
  4  5  1  0
  5  6  1  0
  6  7  1  0
  7  8  1  0
  6  9  1  0
  8  1  1  0
  9  4  1  0
  1 10  1  0
  1 11  1  0
  3 12  1  0
  3 13  1  0
  4 14  1  0
  5 15  1  0
  5 16  1  0
  6 17  1  0
  7 18  1  0
  7 19  1  0
M  END
