
     RDKit          3D

 15 17  0  0  0  0  0  0  0  0999 V2000
    1.6686    0.0311    0.3601 C   0  0  0  0  0  0  0  0  0  0  0  0
    1.4524   -0.5546   -0.9122 O   0  0  0  0  0  0  0  0  0  0  0  0
    0.0834   -0.5028   -1.0297 C   0  0  0  0  0  0  0  0  0  0  0  0
   -0.5115   -0.8253    0.3206 C   0  0  0  0  0  0  0  0  0  0  0  0
   -1.5997    0.1459   -0.0246 C   0  0  0  0  0  0  0  0  0  0  0  0
   -0.3571    0.8313   -0.5022 C   0  0  0  0  0  0  0  0  0  0  0  0
    0.2799    0.3531    0.7710 C   0  0  0  0  0  0  0  0  0  0  0  0
    2.1307   -0.7800    0.9770 H   0  0  0  0  0  0  0  0  0  0  0  0
    2.3512    0.8784    0.3148 H   0  0  0  0  0  0  0  0  0  0  0  0
   -0.3937   -0.9007   -1.9031 H   0  0  0  0  0  0  0  0  0  0  0  0
   -0.5954   -1.7282    0.7383 H   0  0  0  0  0  0  0  0  0  0  0  0
   -1.9725    0.6394    0.9005 H   0  0  0  0  0  0  0  0  0  0  0  0
   -2.3367   -0.1539   -0.7637 H   0  0  0  0  0  0  0  0  0  0  0  0
   -0.2654    1.7256   -0.9356 H   0  0  0  0  0  0  0  0  0  0  0  0
    0.0659    0.8407    1.6889 H   0  0  0  0  0  0  0  0  0  0  0  0
  1  2  1  0
  2  3  1  0
  3  4  1  0
  4  5  1  0
  5  6  1  0
  6  7  1  0
  7  1  1  0
  6  3  1  0
  7  4  1  0
  1  8  1  0
  1  9  1  0
  3 10  1  0
  4 11  1  0
  5 12  1  0
  5 13  1  0
  6 14  1  0
  7 15  1  0
M  END
