
     RDKit          3D

 17 19  0  0  0  0  0  0  0  0999 V2000
   -1.1586    1.3252    0.0456 C   0  0  0  0  0  0  0  0  0  0  0  0
   -1.1276    0.5692    1.2171 O   0  0  0  0  0  0  0  0  0  0  0  0
   -0.3030   -0.5245    0.9662 C   0  0  0  0  0  0  0  0  0  0  0  0
   -1.0046   -1.3212   -0.1383 C   0  0  0  0  0  0  0  0  0  0  0  0
   -0.8311   -0.5727   -1.2830 O   0  0  0  0  0  0  0  0  0  0  0  0
   -0.2272    0.6267   -0.9209 C   0  0  0  0  0  0  0  0  0  0  0  0
    0.7769    0.1166    0.1232 C   0  0  0  0  0  0  0  0  0  0  0  0
    2.0657   -0.2280   -0.0815 C   0  0  0  0  0  0  0  0  0  0  0  0
    1.6995    0.9705    0.6603 O   0  0  0  0  0  0  0  0  0  0  0  0
   -2.1707    1.4597   -0.3538 H   0  0  0  0  0  0  0  0  0  0  0  0
   -0.6691    2.3190    0.2697 H   0  0  0  0  0  0  0  0  0  0  0  0
    0.0133   -1.0843    1.8053 H   0  0  0  0  0  0  0  0  0  0  0  0
   -0.4367   -2.2937   -0.1843 H   0  0  0  0  0  0  0  0  0  0  0  0
   -2.0362   -1.5635    0.1083 H   0  0  0  0  0  0  0  0  0  0  0  0
    0.1910    1.2088   -1.6988 H   0  0  0  0  0  0  0  0  0  0  0  0
    2.6039   -0.0149   -1.0460 H   0  0  0  0  0  0  0  0  0  0  0  0
    2.6145   -0.9929    0.5110 H   0  0  0  0  0  0  0  0  0  0  0  0
  1  2  1  0
  2  3  1  0
  3  4  1  0
  4  5  1  0
  5  6  1  0
  6  7  1  0
  7  8  1  0
  8  9  1  0
  6  1  1  0
  9  7  1  0
  7  3  1  0
  1 10  1  0
  1 11  1  0
  3 12  1  0
  4 13  1  0
  4 14  1  0
  6 15  1  0
  8 16  1  0
  8 17  1  0
M  END
