
     RDKit          3D

 19 21  0  0  0  0  0  0  0  0999 V2000
   -1.9562   -0.0183   -0.1444 C   0  0  0  0  0  0  0  0  0  0  0  0
   -1.4000   -1.1606    0.3768 O   0  0  0  0  0  0  0  0  0  0  0  0
   -0.0870   -0.9569    0.6952 C   0  0  0  0  0  0  0  0  0  0  0  0
    0.8185   -0.7851   -0.5034 C   0  0  0  0  0  0  0  0  0  0  0  0
    1.9458    0.0102    0.1732 C   0  0  0  0  0  0  0  0  0  0  0  0
    1.2581    0.8910    1.0173 O   0  0  0  0  0  0  0  0  0  0  0  0
   -0.0619    0.5590    1.0252 C   0  0  0  0  0  0  0  0  0  0  0  0
   -0.7780    0.9200   -0.2815 C   0  0  0  0  0  0  0  0  0  0  0  0
    0.1020    0.2602   -1.3415 C   0  0  0  0  0  0  0  0  0  0  0  0
   -2.2839   -0.2735   -1.1960 H   0  0  0  0  0  0  0  0  0  0  0  0
   -2.7538    0.4316    0.4410 H   0  0  0  0  0  0  0  0  0  0  0  0
    0.3169   -1.5524    1.4967 H   0  0  0  0  0  0  0  0  0  0  0  0
    1.1273   -1.6648   -1.0053 H   0  0  0  0  0  0  0  0  0  0  0  0
    2.5500   -0.6895    0.7501 H   0  0  0  0  0  0  0  0  0  0  0  0
    2.5309    0.5775   -0.5991 H   0  0  0  0  0  0  0  0  0  0  0  0
   -0.6234    0.7925    1.9110 H   0  0  0  0  0  0  0  0  0  0  0  0
   -0.9871    1.9465   -0.4206 H   0  0  0  0  0  0  0  0  0  0  0  0
    0.7821    0.9661   -1.8243 H   0  0  0  0  0  0  0  0  0  0  0  0
   -0.5003   -0.2533   -2.1118 H   0  0  0  0  0  0  0  0  0  0  0  0
  1  2  1  0
  2  3  1  0
  3  4  1  0
  4  5  1  0
  5  6  1  0
  6  7  1  0
  7  8  1  0
  8  9  1  0
  8  1  1  0
  7  3  1  0
  9  4  1  0
  1 10  1  0
  1 11  1  0
  3 12  1  0
  4 13  1  0
  5 14  1  0
  5 15  1  0
  7 16  1  0
  8 17  1  0
  9 18  1  0
  9 19  1  0
M  END
