
     RDKit          3D

 15 16  0  0  0  0  0  0  0  0999 V2000
    1.6733   -0.4937    0.1604 C   0  0  0  0  0  0  0  0  0  0  0  0
    1.4335    0.7909    0.5060 O   0  0  0  0  0  0  0  0  0  0  0  0
    0.1338    1.1242    0.7759 C   0  0  0  0  0  0  0  0  0  0  0  0
   -0.8259    0.6254   -0.2460 C   0  0  0  0  0  0  0  0  0  0  0  0
   -1.5071   -0.6915   -0.1211 C   0  0  0  0  0  0  0  0  0  0  0  0
   -0.3087   -0.4662   -1.0524 C   0  0  0  0  0  0  0  0  0  0  0  0
    0.8124   -1.1011   -0.6862 O   0  0  0  0  0  0  0  0  0  0  0  0
    2.7013   -0.5406   -0.3084 H   0  0  0  0  0  0  0  0  0  0  0  0
    1.7826   -1.1250    1.0919 H   0  0  0  0  0  0  0  0  0  0  0  0
    0.1155    2.2549    0.8127 H   0  0  0  0  0  0  0  0  0  0  0  0
   -0.1896    0.8272    1.8141 H   0  0  0  0  0  0  0  0  0  0  0  0
   -1.4438    1.4093   -0.7611 H   0  0  0  0  0  0  0  0  0  0  0  0
   -2.4985   -0.8365   -0.5953 H   0  0  0  0  0  0  0  0  0  0  0  0
   -1.3619   -1.3420    0.7628 H   0  0  0  0  0  0  0  0  0  0  0  0
   -0.5169   -0.4353   -2.1533 H   0  0  0  0  0  0  0  0  0  0  0  0
  1  2  1  0
  2  3  1  0
  3  4  1  0
  4  5  1  0
  5  6  1  0
  6  7  1  0
  7  1  1  0
  6  4  1  0
  1  8  1  0
  1  9  1  0
  3 10  1  0
  3 11  1  0
  4 12  1  0
  5 13  1  0
  5 14  1  0
  6 15  1  0
M  END
