
     RDKit          3D

 15 19  0  0  0  0  0  0  0  0999 V2000
    1.9653   -0.1395   -0.0267 C   0  0  0  0  0  0  0  0  0  0  0  0
    1.2060    0.1259    1.1406 O   0  0  0  0  0  0  0  0  0  0  0  0
   -0.0015   -0.0495    0.8185 C   0  0  0  0  0  0  0  0  0  0  0  0
   -1.2897    0.7758    0.4141 C   0  0  0  0  0  0  0  0  0  0  0  0
   -0.3349    0.6534   -0.1751 C   0  0  0  0  0  0  0  0  0  0  0  0
   -1.1739   -0.7927   -0.0587 C   0  0  0  0  0  0  0  0  0  0  0  0
   -1.4399   -0.1163   -0.9513 C   0  0  0  0  0  0  0  0  0  0  0  0
   -0.0749   -0.9148   -0.5196 C   0  0  0  0  0  0  0  0  0  0  0  0
    1.1058   -0.6088   -1.0127 O   0  0  0  0  0  0  0  0  0  0  0  0
    2.3048    0.8721   -0.3576 H   0  0  0  0  0  0  0  0  0  0  0  0
    2.8212   -0.7807    0.1704 H   0  0  0  0  0  0  0  0  0  0  0  0
   -2.1612    0.6226    1.0770 H   0  0  0  0  0  0  0  0  0  0  0  0
    0.1022    0.9729   -1.0964 H   0  0  0  0  0  0  0  0  0  0  0  0
   -1.6520   -1.0518    0.8847 H   0  0  0  0  0  0  0  0  0  0  0  0
   -1.3772    0.4313   -1.8763 H   0  0  0  0  0  0  0  0  0  0  0  0
  1  2  1  0
  2  3  1  0
  3  4  1  0
  4  5  1  0
  5  6  1  0
  6  7  1  0
  7  8  1  0
  8  9  1  0
  9  1  1  0
  5  3  1  0
  8  6  1  0
  8  3  1  0
  7  4  1  0
  1 10  1  0
  1 11  1  0
  4 12  1  0
  5 13  1  0
  6 14  1  0
  7 15  1  0
M  END
