
     RDKit          3D

 16 18  0  0  0  0  0  0  0  0999 V2000
   -1.2069    1.3907    0.4656 C   0  0  0  0  0  0  0  0  0  0  0  0
   -0.1524    0.7701    1.1337 O   0  0  0  0  0  0  0  0  0  0  0  0
   -0.1670   -0.4043    0.4321 C   0  0  0  0  0  0  0  0  0  0  0  0
    1.1244   -0.8371   -0.1962 C   0  0  0  0  0  0  0  0  0  0  0  0
    2.2499    0.1240   -0.1186 C   0  0  0  0  0  0  0  0  0  0  0  0
    2.2365   -1.0681    0.5747 O   0  0  0  0  0  0  0  0  0  0  0  0
   -1.4251   -1.0980    0.0664 C   0  0  0  0  0  0  0  0  0  0  0  0
   -1.2053    0.2470   -0.5024 C   0  0  0  0  0  0  0  0  0  0  0  0
   -2.0865    1.4449    1.1496 H   0  0  0  0  0  0  0  0  0  0  0  0
   -0.9501    2.3345   -0.0449 H   0  0  0  0  0  0  0  0  0  0  0  0
    1.0071   -1.4475   -1.1067 H   0  0  0  0  0  0  0  0  0  0  0  0
    2.8612    0.2539   -1.0263 H   0  0  0  0  0  0  0  0  0  0  0  0
    2.1452    1.0246    0.5533 H   0  0  0  0  0  0  0  0  0  0  0  0
   -1.3112   -1.9477   -0.6404 H   0  0  0  0  0  0  0  0  0  0  0  0
   -2.2689   -1.1952    0.7894 H   0  0  0  0  0  0  0  0  0  0  0  0
   -0.8511    0.4080   -1.5293 H   0  0  0  0  0  0  0  0  0  0  0  0
  1  2  1  0
  2  3  1  0
  3  4  1  0
  4  5  1  0
  5  6  1  0
  3  7  1  0
  7  8  1  0
  8  1  1  0
  8  3  1  0
  6  4  1  0
  1  9  1  0
  1 10  1  0
  4 11  1  0
  5 12  1  0
  5 13  1  0
  7 14  1  0
  7 15  1  0
  8 16  1  0
M  END
