
     RDKit          3D

 19 21  0  0  0  0  0  0  0  0999 V2000
   -1.5922   -1.1199    0.0531 C   0  0  0  0  0  0  0  0  0  0  0  0
   -2.5241   -0.4560   -0.7806 O   0  0  0  0  0  0  0  0  0  0  0  0
   -1.9160    0.7707   -0.4231 C   0  0  0  0  0  0  0  0  0  0  0  0
   -0.7077    0.0255   -0.0716 C   0  0  0  0  0  0  0  0  0  0  0  0
    0.1843    0.4549    1.0054 C   0  0  0  0  0  0  0  0  0  0  0  0
    1.3635    0.2310    0.1304 C   0  0  0  0  0  0  0  0  0  0  0  0
    2.5685   -0.3584    0.3609 C   0  0  0  0  0  0  0  0  0  0  0  0
    2.4107    1.0980    0.0433 O   0  0  0  0  0  0  0  0  0  0  0  0
    0.4389   -0.0050   -1.0269 C   0  0  0  0  0  0  0  0  0  0  0  0
   -2.0654   -1.1919    1.0620 H   0  0  0  0  0  0  0  0  0  0  0  0
   -1.2791   -2.1002   -0.3036 H   0  0  0  0  0  0  0  0  0  0  0  0
   -2.4615    1.2864    0.3956 H   0  0  0  0  0  0  0  0  0  0  0  0
   -1.8061    1.3782   -1.3374 H   0  0  0  0  0  0  0  0  0  0  0  0
    0.1128    1.5479    1.2756 H   0  0  0  0  0  0  0  0  0  0  0  0
    0.1111   -0.2128    1.9024 H   0  0  0  0  0  0  0  0  0  0  0  0
    3.1640   -0.8852   -0.4100 H   0  0  0  0  0  0  0  0  0  0  0  0
    3.0127   -0.4925    1.3825 H   0  0  0  0  0  0  0  0  0  0  0  0
    0.6011   -0.9078   -1.6077 H   0  0  0  0  0  0  0  0  0  0  0  0
    0.3847    0.9370   -1.6504 H   0  0  0  0  0  0  0  0  0  0  0  0
  1  2  1  0
  2  3  1  0
  3  4  1  0
  4  5  1  0
  5  6  1  0
  6  7  1  0
  7  8  1  0
  6  9  1  0
  4  1  1  0
  8  6  1  0
  9  4  1  0
  1 10  1  0
  1 11  1  0
  3 12  1  0
  3 13  1  0
  5 14  1  0
  5 15  1  0
  7 16  1  0
  7 17  1  0
  9 18  1  0
  9 19  1  0
M  END
