
     RDKit          3D

 17 19  0  0  0  0  0  0  0  0999 V2000
   -2.1610    0.2019   -0.5532 C   0  0  0  0  0  0  0  0  0  0  0  0
   -1.1687    1.1354   -0.7977 O   0  0  0  0  0  0  0  0  0  0  0  0
   -0.3627    0.8039    0.2720 C   0  0  0  0  0  0  0  0  0  0  0  0
   -1.2805   -0.3449    0.5689 C   0  0  0  0  0  0  0  0  0  0  0  0
   -0.6766   -1.5054    0.1814 O   0  0  0  0  0  0  0  0  0  0  0  0
    0.6253   -1.2849   -0.1418 C   0  0  0  0  0  0  0  0  0  0  0  0
    0.9321    0.1741    0.0132 C   0  0  0  0  0  0  0  0  0  0  0  0
    2.2049    0.6845   -0.1698 C   0  0  0  0  0  0  0  0  0  0  0  0
    1.8551    0.4564    1.1725 O   0  0  0  0  0  0  0  0  0  0  0  0
   -2.3029   -0.5263   -1.3991 H   0  0  0  0  0  0  0  0  0  0  0  0
   -3.1010    0.5677   -0.1323 H   0  0  0  0  0  0  0  0  0  0  0  0
   -0.4204    1.6050    1.0519 H   0  0  0  0  0  0  0  0  0  0  0  0
   -1.7076   -0.2857    1.5690 H   0  0  0  0  0  0  0  0  0  0  0  0
    0.8436   -1.5599   -1.2134 H   0  0  0  0  0  0  0  0  0  0  0  0
    1.2702   -1.8930    0.5293 H   0  0  0  0  0  0  0  0  0  0  0  0
    2.4113    1.7512   -0.4690 H   0  0  0  0  0  0  0  0  0  0  0  0
    3.0389    0.0200   -0.4820 H   0  0  0  0  0  0  0  0  0  0  0  0
  1  2  1  0
  2  3  1  0
  3  4  1  0
  4  5  1  0
  5  6  1  0
  6  7  1  0
  7  8  1  0
  8  9  1  0
  4  1  1  0
  9  7  1  0
  7  3  1  0
  1 10  1  0
  1 11  1  0
  3 12  1  0
  4 13  1  0
  6 14  1  0
  6 15  1  0
  8 16  1  0
  8 17  1  0
M  END
