
     RDKit          3D

 17 19  0  0  0  0  0  0  0  0999 V2000
   -2.5944    0.3659   -0.1688 C   0  0  0  0  0  0  0  0  0  0  0  0
   -1.6980   -0.4842   -0.8682 O   0  0  0  0  0  0  0  0  0  0  0  0
   -0.8647   -0.8254    0.1444 C   0  0  0  0  0  0  0  0  0  0  0  0
   -0.5765    0.6933    0.4990 C   0  0  0  0  0  0  0  0  0  0  0  0
   -1.8537    0.9049    0.9140 O   0  0  0  0  0  0  0  0  0  0  0  0
    0.3699   -0.3373    0.6291 C   0  0  0  0  0  0  0  0  0  0  0  0
    1.5544   -0.4354   -0.3306 C   0  0  0  0  0  0  0  0  0  0  0  0
    2.8357    0.1139    0.2582 C   0  0  0  0  0  0  0  0  0  0  0  0
    2.1067    0.7168   -0.8308 O   0  0  0  0  0  0  0  0  0  0  0  0
   -3.3804   -0.2745    0.2663 H   0  0  0  0  0  0  0  0  0  0  0  0
   -2.9788    1.1620   -0.8271 H   0  0  0  0  0  0  0  0  0  0  0  0
   -1.4818   -1.3855    0.9175 H   0  0  0  0  0  0  0  0  0  0  0  0
   -0.3958    1.3681   -0.3971 H   0  0  0  0  0  0  0  0  0  0  0  0
    0.7025   -0.6181    1.6709 H   0  0  0  0  0  0  0  0  0  0  0  0
    1.6707   -1.4065   -0.8304 H   0  0  0  0  0  0  0  0  0  0  0  0
    2.7840    0.7617    1.1561 H   0  0  0  0  0  0  0  0  0  0  0  0
    3.8001   -0.3198   -0.0560 H   0  0  0  0  0  0  0  0  0  0  0  0
  1  2  1  0
  2  3  1  0
  3  4  1  0
  4  5  1  0
  4  6  1  0
  6  7  1  0
  7  8  1  0
  8  9  1  0
  5  1  1  0
  9  7  1  0
  6  3  1  0
  1 10  1  0
  1 11  1  0
  3 12  1  0
  4 13  1  0
  6 14  1  0
  7 15  1  0
  8 16  1  0
  8 17  1  0
M  END
