
     RDKit          3D

 16 17  0  0  0  0  0  0  0  0999 V2000
   -0.7549    1.5426    0.1049 C   0  0  0  0  0  0  0  0  0  0  0  0
   -1.1329    0.5339   -0.7820 O   0  0  0  0  0  0  0  0  0  0  0  0
   -1.2750   -0.6631   -0.0781 C   0  0  0  0  0  0  0  0  0  0  0  0
   -0.0351   -1.4677   -0.0098 C   0  0  0  0  0  0  0  0  0  0  0  0
    0.7209   -1.3050   -1.2797 O   0  0  0  0  0  0  0  0  0  0  0  0
    1.2102   -0.8716   -0.0355 C   0  0  0  0  0  0  0  0  0  0  0  0
    1.2812    0.6211    0.1933 C   0  0  0  0  0  0  0  0  0  0  0  0
    0.1970    0.9826    0.9594 O   0  0  0  0  0  0  0  0  0  0  0  0
   -1.6281    1.9414    0.6183 H   0  0  0  0  0  0  0  0  0  0  0  0
   -0.2970    2.3536   -0.4876 H   0  0  0  0  0  0  0  0  0  0  0  0
   -1.7381   -0.5097    0.9143 H   0  0  0  0  0  0  0  0  0  0  0  0
   -2.0349   -1.2598   -0.6639 H   0  0  0  0  0  0  0  0  0  0  0  0
   -0.1865   -2.5408    0.2508 H   0  0  0  0  0  0  0  0  0  0  0  0
    2.1163   -1.4232    0.2806 H   0  0  0  0  0  0  0  0  0  0  0  0
    1.3577    1.1737   -0.7654 H   0  0  0  0  0  0  0  0  0  0  0  0
    2.1992    0.8919    0.7806 H   0  0  0  0  0  0  0  0  0  0  0  0
  1  2  1  0
  2  3  1  0
  3  4  1  0
  4  5  1  0
  5  6  1  0
  6  7  1  0
  7  8  1  0
  8  1  1  0
  6  4  1  0
  1  9  1  0
  1 10  1  0
  3 11  1  0
  3 12  1  0
  4 13  1  0
  6 14  1  0
  7 15  1  0
  7 16  1  0
M  END
