
     RDKit          3D

 19 21  0  0  0  0  0  0  0  0999 V2000
    2.3329    1.1031    0.3606 C   0  0  0  0  0  0  0  0  0  0  0  0
    2.1468    0.4830   -0.9050 O   0  0  0  0  0  0  0  0  0  0  0  0
    2.0262   -0.3108    0.2542 C   0  0  0  0  0  0  0  0  0  0  0  0
    0.6933   -0.8938    0.5765 C   0  0  0  0  0  0  0  0  0  0  0  0
   -0.4309   -0.3671   -0.2388 C   0  0  0  0  0  0  0  0  0  0  0  0
   -1.7899   -0.9665    0.0948 C   0  0  0  0  0  0  0  0  0  0  0  0
   -2.3781    0.3812   -0.2700 C   0  0  0  0  0  0  0  0  0  0  0  0
   -0.9359    0.8435   -0.4963 C   0  0  0  0  0  0  0  0  0  0  0  0
   -0.2893    0.0204   -1.5430 O   0  0  0  0  0  0  0  0  0  0  0  0
    1.5218    1.7937    0.7034 H   0  0  0  0  0  0  0  0  0  0  0  0
    3.3612    1.4151    0.6155 H   0  0  0  0  0  0  0  0  0  0  0  0
    2.8937   -1.0167    0.4155 H   0  0  0  0  0  0  0  0  0  0  0  0
    0.7464   -1.9906    0.4173 H   0  0  0  0  0  0  0  0  0  0  0  0
    0.4914   -0.7552    1.6733 H   0  0  0  0  0  0  0  0  0  0  0  0
   -1.9226   -1.2427    1.1512 H   0  0  0  0  0  0  0  0  0  0  0  0
   -2.0175   -1.7582   -0.6427 H   0  0  0  0  0  0  0  0  0  0  0  0
   -2.8251    0.9504    0.5433 H   0  0  0  0  0  0  0  0  0  0  0  0
   -2.9445    0.4268   -1.1992 H   0  0  0  0  0  0  0  0  0  0  0  0
   -0.6800    1.8843   -0.5022 H   0  0  0  0  0  0  0  0  0  0  0  0
  1  2  1  0
  2  3  1  0
  3  4  1  0
  4  5  1  0
  5  6  1  0
  6  7  1  0
  7  8  1  0
  8  9  1  0
  3  1  1  0
  8  5  1  0
  9  5  1  0
  1 10  1  0
  1 11  1  0
  3 12  1  0
  4 13  1  0
  4 14  1  0
  6 15  1  0
  6 16  1  0
  7 17  1  0
  7 18  1  0
  8 19  1  0
M  END
