
     RDKit          3D

 19 21  0  0  0  0  0  0  0  0999 V2000
    2.9252    0.8201    0.5192 C   0  0  0  0  0  0  0  0  0  0  0  0
    2.0795    1.3631    1.4780 O   0  0  0  0  0  0  0  0  0  0  0  0
    1.4344    0.8964    0.3519 C   0  0  0  0  0  0  0  0  0  0  0  0
    0.7061   -0.4537    0.4356 C   0  0  0  0  0  0  0  0  0  0  0  0
   -0.6554   -0.2896    0.2716 C   0  0  0  0  0  0  0  0  0  0  0  0
   -1.6959   -1.3678    0.2897 C   0  0  0  0  0  0  0  0  0  0  0  0
   -2.3955   -0.0522    0.1467 C   0  0  0  0  0  0  0  0  0  0  0  0
   -1.3697    0.3038   -0.8859 C   0  0  0  0  0  0  0  0  0  0  0  0
   -1.5055    0.4390    1.0896 O   0  0  0  0  0  0  0  0  0  0  0  0
    3.5098    1.4897   -0.1455 H   0  0  0  0  0  0  0  0  0  0  0  0
    3.3861   -0.1297    0.8198 H   0  0  0  0  0  0  0  0  0  0  0  0
    1.0032    1.6414   -0.3204 H   0  0  0  0  0  0  0  0  0  0  0  0
    1.1777   -1.0800   -0.3508 H   0  0  0  0  0  0  0  0  0  0  0  0
    0.9937   -0.9251    1.3994 H   0  0  0  0  0  0  0  0  0  0  0  0
   -1.7485   -1.9700   -0.6332 H   0  0  0  0  0  0  0  0  0  0  0  0
   -1.8399   -1.9060    1.2424 H   0  0  0  0  0  0  0  0  0  0  0  0
   -3.3895    0.1121    0.1021 H   0  0  0  0  0  0  0  0  0  0  0  0
   -1.4622   -0.2764   -1.8018 H   0  0  0  0  0  0  0  0  0  0  0  0
   -1.1534    1.3850   -1.0070 H   0  0  0  0  0  0  0  0  0  0  0  0
  1  2  1  0
  2  3  1  0
  3  4  1  0
  4  5  1  0
  5  6  1  0
  6  7  1  0
  7  8  1  0
  7  9  1  0
  3  1  1  0
  8  5  1  0
  9  5  1  0
  1 10  1  0
  1 11  1  0
  3 12  1  0
  4 13  1  0
  4 14  1  0
  6 15  1  0
  6 16  1  0
  7 17  1  0
  8 18  1  0
  8 19  1  0
M  END
