
     RDKit          3D

 17 19  0  0  0  0  0  0  0  0999 V2000
   -1.5955   -0.8040   -0.1106 C   0  0  0  0  0  0  0  0  0  0  0  0
   -2.0204    0.5308    0.0108 O   0  0  0  0  0  0  0  0  0  0  0  0
   -0.9822    1.4224   -0.1755 C   0  0  0  0  0  0  0  0  0  0  0  0
    0.2446    0.9020    0.5196 C   0  0  0  0  0  0  0  0  0  0  0  0
   -0.1834    0.0270    1.5488 O   0  0  0  0  0  0  0  0  0  0  0  0
   -0.2323   -0.9691    0.5410 C   0  0  0  0  0  0  0  0  0  0  0  0
    0.8618   -0.2819   -0.1280 C   0  0  0  0  0  0  0  0  0  0  0  0
    2.1798   -0.4802   -0.3377 C   0  0  0  0  0  0  0  0  0  0  0  0
    1.2109   -0.3593   -1.4221 O   0  0  0  0  0  0  0  0  0  0  0  0
   -1.6392   -1.1656   -1.1324 H   0  0  0  0  0  0  0  0  0  0  0  0
   -2.3048   -1.3940    0.5205 H   0  0  0  0  0  0  0  0  0  0  0  0
   -0.8190    1.6622   -1.2423 H   0  0  0  0  0  0  0  0  0  0  0  0
   -1.2732    2.3725    0.3167 H   0  0  0  0  0  0  0  0  0  0  0  0
    0.9856    1.6419    0.8236 H   0  0  0  0  0  0  0  0  0  0  0  0
   -0.0730   -1.9900    0.9010 H   0  0  0  0  0  0  0  0  0  0  0  0
    2.9408    0.3555   -0.3288 H   0  0  0  0  0  0  0  0  0  0  0  0
    2.6997   -1.4703   -0.3045 H   0  0  0  0  0  0  0  0  0  0  0  0
  1  2  1  0
  2  3  1  0
  3  4  1  0
  4  5  1  0
  5  6  1  0
  6  7  1  0
  7  8  1  0
  8  9  1  0
  6  1  1  0
  9  7  1  0
  7  4  1  0
  1 10  1  0
  1 11  1  0
  3 12  1  0
  3 13  1  0
  4 14  1  0
  6 15  1  0
  8 16  1  0
  8 17  1  0
M  END
