
     RDKit          2D

 19 21  0  0  0  0  0  0  0  0999 V2000
   -1.7416   -3.4578    0.0000 C   0  0  0  0  0  0  0  0  0  0  0  0
   -3.2232   -3.2232    0.0000 O   0  0  0  0  0  0  0  0  0  0  0  0
   -3.4578   -1.7416    0.0000 C   0  0  0  0  0  0  0  0  0  0  0  0
   -2.1213   -1.0607    0.0000 C   0  0  0  0  0  0  0  0  0  0  0  0
   -1.0607   -2.1213    0.0000 C   0  0  0  0  0  0  0  0  0  0  0  0
   -0.0000   -1.0607    0.0000 C   0  0  0  0  0  0  0  0  0  0  0  0
    1.0607    0.0000    0.0000 C   0  0  0  0  0  0  0  0  0  0  0  0
    0.0000    1.0607    0.0000 O   0  0  0  0  0  0  0  0  0  0  0  0
   -1.0607    0.0000    0.0000 C   0  0  0  0  0  0  0  0  0  0  0  0
   -2.1299   -4.9067    0.0000 H   0  0  0  0  0  0  0  0  0  0  0  0
   -0.3413   -3.9954    0.0000 H   0  0  0  0  0  0  0  0  0  0  0  0
   -3.9954   -0.3413    0.0000 H   0  0  0  0  0  0  0  0  0  0  0  0
   -4.9067   -2.1299    0.0000 H   0  0  0  0  0  0  0  0  0  0  0  0
   -3.0030    0.1529    0.0000 H   0  0  0  0  0  0  0  0  0  0  0  0
    0.1529   -3.0030    0.0000 H   0  0  0  0  0  0  0  0  0  0  0  0
    1.0607   -2.1213    0.0000 H   0  0  0  0  0  0  0  0  0  0  0  0
    2.1213    1.0607    0.0000 H   0  0  0  0  0  0  0  0  0  0  0  0
    2.1213   -1.0607    0.0000 H   0  0  0  0  0  0  0  0  0  0  0  0
   -2.1213    1.0607    0.0000 H   0  0  0  0  0  0  0  0  0  0  0  0
  1  2  1  0
  2  3  1  0
  3  4  1  0
  4  5  1  0
  5  6  1  0
  6  7  1  0
  7  8  1  0
  8  9  1  0
  5  1  1  0
  9  6  1  0
  9  4  1  0
  1 10  1  0
  1 11  1  0
  3 12  1  0
  3 13  1  0
  4 14  1  0
  5 15  1  0
  6 16  1  0
  7 17  1  0
  7 18  1  0
  9 19  1  0
M  END
