
     RDKit          3D

 21 23  0  0  0  0  0  0  0  0999 V2000
   -1.1314    0.2315    1.1673 C   0  0  0  0  0  0  0  0  0  0  0  0
   -1.2622    1.1874    0.1744 O   0  0  0  0  0  0  0  0  0  0  0  0
   -0.8979    0.6054   -1.0294 C   0  0  0  0  0  0  0  0  0  0  0  0
   -1.4019   -0.8381   -0.8492 C   0  0  0  0  0  0  0  0  0  0  0  0
   -0.6373   -1.0365    0.4768 C   0  0  0  0  0  0  0  0  0  0  0  0
    0.7633   -0.8379    0.0015 C   0  0  0  0  0  0  0  0  0  0  0  0
    1.6664    0.0053    0.8236 C   0  0  0  0  0  0  0  0  0  0  0  0
    1.3258    1.1922   -0.0432 C   0  0  0  0  0  0  0  0  0  0  0  0
    0.5943    0.3168   -0.9993 C   0  0  0  0  0  0  0  0  0  0  0  0
   -0.5167    0.5275    2.0136 H   0  0  0  0  0  0  0  0  0  0  0  0
   -2.1806   -0.0178    1.5031 H   0  0  0  0  0  0  0  0  0  0  0  0
   -1.2553    1.0781   -1.9148 H   0  0  0  0  0  0  0  0  0  0  0  0
   -1.0120   -1.4875   -1.6336 H   0  0  0  0  0  0  0  0  0  0  0  0
   -2.4782   -0.8460   -0.7021 H   0  0  0  0  0  0  0  0  0  0  0  0
   -0.8724   -1.9495    0.9773 H   0  0  0  0  0  0  0  0  0  0  0  0
    1.1916   -1.7481   -0.4189 H   0  0  0  0  0  0  0  0  0  0  0  0
    2.7472   -0.2651    0.6377 H   0  0  0  0  0  0  0  0  0  0  0  0
    1.4738    0.1006    1.8919 H   0  0  0  0  0  0  0  0  0  0  0  0
    2.1682    1.6993   -0.5316 H   0  0  0  0  0  0  0  0  0  0  0  0
    0.6667    1.9487    0.4322 H   0  0  0  0  0  0  0  0  0  0  0  0
    1.0487    0.1336   -1.9773 H   0  0  0  0  0  0  0  0  0  0  0  0
  1  2  1  0
  2  3  1  0
  3  4  1  0
  4  5  1  0
  5  6  1  0
  6  7  1  0
  7  8  1  0
  8  9  1  0
  5  1  1  0
  9  6  1  0
  9  3  1  0
  1 10  1  0
  1 11  1  0
  3 12  1  0
  4 13  1  0
  4 14  1  0
  5 15  1  0
  6 16  1  0
  7 17  1  0
  7 18  1  0
  8 19  1  0
  8 20  1  0
  9 21  1  0
M  END
