
     RDKit          3D

 15 17  0  0  0  0  0  0  0  0999 V2000
    1.7505   -0.8811   -0.1885 C   0  0  0  0  0  0  0  0  0  0  0  0
    2.4253    0.2417    0.0044 O   0  0  0  0  0  0  0  0  0  0  0  0
    1.6223    1.2636    0.1144 C   0  0  0  0  0  0  0  0  0  0  0  0
    0.3206    0.7858   -0.0153 C   0  0  0  0  0  0  0  0  0  0  0  0
    0.4208   -0.5790   -0.2063 C   0  0  0  0  0  0  0  0  0  0  0  0
   -0.9848   -1.0649   -0.3254 C   0  0  0  0  0  0  0  0  0  0  0  0
   -1.5680   -0.1671    0.7356 C   0  0  0  0  0  0  0  0  0  0  0  0
   -2.0715    1.0222    0.7847 O   0  0  0  0  0  0  0  0  0  0  0  0
   -1.0921    1.1036   -0.0519 C   0  0  0  0  0  0  0  0  0  0  0  0
    2.2274   -1.8695   -0.3090 H   0  0  0  0  0  0  0  0  0  0  0  0
    1.8390    2.3127    0.2758 H   0  0  0  0  0  0  0  0  0  0  0  0
   -1.3440   -0.8240   -1.3454 H   0  0  0  0  0  0  0  0  0  0  0  0
   -1.1093   -2.1087   -0.0322 H   0  0  0  0  0  0  0  0  0  0  0  0
   -0.9755   -0.3799    1.6887 H   0  0  0  0  0  0  0  0  0  0  0  0
   -1.4606    1.1446   -1.1297 H   0  0  0  0  0  0  0  0  0  0  0  0
  1  2  1  0
  2  3  1  0
  3  4  2  0
  4  5  1  0
  5  6  1  0
  6  7  1  0
  7  8  1  0
  8  9  1  0
  5  1  2  0
  9  7  1  0
  9  4  1  0
  1 10  1  0
  3 11  1  0
  6 12  1  0
  6 13  1  0
  7 14  1  0
  9 15  1  0
M  END
