
     RDKit          3D

 19 21  0  0  0  0  0  0  0  0999 V2000
    1.6904   -0.2171    0.2079 C   0  0  0  0  0  0  0  0  0  0  0  0
    1.3392   -1.2281   -0.6875 O   0  0  0  0  0  0  0  0  0  0  0  0
   -0.0162   -1.0904   -0.8760 C   0  0  0  0  0  0  0  0  0  0  0  0
   -0.8210   -1.4142    0.3525 C   0  0  0  0  0  0  0  0  0  0  0  0
   -1.9005   -0.5443    0.2357 O   0  0  0  0  0  0  0  0  0  0  0  0
   -1.3373    0.6888   -0.1195 C   0  0  0  0  0  0  0  0  0  0  0  0
   -0.3243    1.2017    0.8947 C   0  0  0  0  0  0  0  0  0  0  0  0
    0.7981    0.9437   -0.0376 C   0  0  0  0  0  0  0  0  0  0  0  0
   -0.1934    0.3873   -1.0342 C   0  0  0  0  0  0  0  0  0  0  0  0
    1.6948   -0.6219    1.2129 H   0  0  0  0  0  0  0  0  0  0  0  0
    2.7346    0.0897   -0.0741 H   0  0  0  0  0  0  0  0  0  0  0  0
   -0.4156   -1.5919   -1.7525 H   0  0  0  0  0  0  0  0  0  0  0  0
   -1.1933   -2.4562    0.3706 H   0  0  0  0  0  0  0  0  0  0  0  0
   -0.2628   -1.2657    1.2969 H   0  0  0  0  0  0  0  0  0  0  0  0
   -2.0078    1.4249   -0.5454 H   0  0  0  0  0  0  0  0  0  0  0  0
   -0.5448    2.2960    1.0673 H   0  0  0  0  0  0  0  0  0  0  0  0
   -0.3383    0.6941    1.8607 H   0  0  0  0  0  0  0  0  0  0  0  0
    1.2928    1.8957   -0.3465 H   0  0  0  0  0  0  0  0  0  0  0  0
   -0.1946    0.8081   -2.0261 H   0  0  0  0  0  0  0  0  0  0  0  0
  1  2  1  0
  2  3  1  0
  3  4  1  0
  4  5  1  0
  5  6  1  0
  6  7  1  0
  7  8  1  0
  8  9  1  0
  8  1  1  0
  9  3  1  0
  9  6  1  0
  1 10  1  0
  1 11  1  0
  3 12  1  0
  4 13  1  0
  4 14  1  0
  6 15  1  0
  7 16  1  0
  7 17  1  0
  8 18  1  0
  9 19  1  0
M  END
