
     RDKit          3D

 18 20  0  0  0  0  0  0  0  0999 V2000
    1.9604    0.1794   -0.6257 C   0  0  0  0  0  0  0  0  0  0  0  0
    1.5526   -1.1406   -0.5668 O   0  0  0  0  0  0  0  0  0  0  0  0
    0.6027   -0.9434    0.4621 C   0  0  0  0  0  0  0  0  0  0  0  0
    0.9882    0.5024    0.4615 C   0  0  0  0  0  0  0  0  0  0  0  0
   -0.2340    1.2800    0.0224 C   0  0  0  0  0  0  0  0  0  0  0  0
   -1.1821    0.2422   -0.5346 C   0  0  0  0  0  0  0  0  0  0  0  0
   -1.9652   -0.4970    0.5014 C   0  0  0  0  0  0  0  0  0  0  0  0
   -0.7665   -1.0851   -0.0737 C   0  0  0  0  0  0  0  0  0  0  0  0
    1.7169    0.7349   -1.5444 H   0  0  0  0  0  0  0  0  0  0  0  0
    3.0300    0.2581   -0.3924 H   0  0  0  0  0  0  0  0  0  0  0  0
    0.8942   -1.5378    1.3383 H   0  0  0  0  0  0  0  0  0  0  0  0
    1.4492    0.8493    1.4106 H   0  0  0  0  0  0  0  0  0  0  0  0
   -0.7345    1.7230    0.9078 H   0  0  0  0  0  0  0  0  0  0  0  0
    0.0584    2.0403   -0.7340 H   0  0  0  0  0  0  0  0  0  0  0  0
   -1.5337    0.3191   -1.5772 H   0  0  0  0  0  0  0  0  0  0  0  0
   -2.9393   -0.8726    0.1686 H   0  0  0  0  0  0  0  0  0  0  0  0
   -1.9920   -0.0903    1.5412 H   0  0  0  0  0  0  0  0  0  0  0  0
   -0.9054   -1.9619   -0.7653 H   0  0  0  0  0  0  0  0  0  0  0  0
  1  2  1  0
  2  3  1  0
  3  4  1  0
  4  5  1  0
  5  6  1  0
  6  7  1  0
  7  8  1  0
  4  1  1  0
  8  6  1  0
  8  3  1  0
  1  9  1  0
  1 10  1  0
  3 11  1  0
  4 12  1  0
  5 13  1  0
  5 14  1  0
  6 15  1  0
  7 16  1  0
  7 17  1  0
  8 18  1  0
M  END
