
     RDKit          3D

 17 18  0  0  0  0  0  0  0  0999 V2000
    1.3511    0.7606   -0.1069 C   0  0  0  0  0  0  0  0  0  0  0  0
    1.5856   -0.5899    0.0544 O   0  0  0  0  0  0  0  0  0  0  0  0
    0.5705   -1.2149    0.7615 C   0  0  0  0  0  0  0  0  0  0  0  0
   -0.7853   -0.7290    0.3200 C   0  0  0  0  0  0  0  0  0  0  0  0
   -0.9814    0.7415    0.5435 C   0  0  0  0  0  0  0  0  0  0  0  0
   -0.0292    0.9442   -0.6480 C   0  0  0  0  0  0  0  0  0  0  0  0
   -0.6241   -0.3745   -1.1671 C   0  0  0  0  0  0  0  0  0  0  0  0
    2.1440    1.2306   -0.6726 H   0  0  0  0  0  0  0  0  0  0  0  0
    1.3611    1.2108    0.9286 H   0  0  0  0  0  0  0  0  0  0  0  0
    0.7201   -1.1799    1.8432 H   0  0  0  0  0  0  0  0  0  0  0  0
    0.6191   -2.3020    0.4745 H   0  0  0  0  0  0  0  0  0  0  0  0
   -1.6364   -1.3605    0.5541 H   0  0  0  0  0  0  0  0  0  0  0  0
   -0.5460    1.1820    1.4357 H   0  0  0  0  0  0  0  0  0  0  0  0
   -2.0216    1.0253    0.2875 H   0  0  0  0  0  0  0  0  0  0  0  0
   -0.2360    1.8153   -1.2593 H   0  0  0  0  0  0  0  0  0  0  0  0
   -1.5790   -0.1455   -1.6658 H   0  0  0  0  0  0  0  0  0  0  0  0
    0.0876   -1.0141   -1.6832 H   0  0  0  0  0  0  0  0  0  0  0  0
  1  2  1  0
  2  3  1  0
  3  4  1  0
  4  5  1  0
  5  6  1  0
  6  7  1  0
  6  1  1  0
  7  4  1  0
  1  8  1  0
  1  9  1  0
  3 10  1  0
  3 11  1  0
  4 12  1  0
  5 13  1  0
  5 14  1  0
  6 15  1  0
  7 16  1  0
  7 17  1  0
M  END
