
     RDKit          3D

 16 18  0  0  0  0  0  0  0  0999 V2000
   -2.0712    0.4510   -0.7706 C   0  0  0  0  0  0  0  0  0  0  0  0
   -2.2343   -0.8606   -0.0969 O   0  0  0  0  0  0  0  0  0  0  0  0
   -1.0301   -0.2518   -0.2654 C   0  0  0  0  0  0  0  0  0  0  0  0
   -0.1888    0.1796    0.9136 C   0  0  0  0  0  0  0  0  0  0  0  0
    1.0155   -0.1491    0.1112 C   0  0  0  0  0  0  0  0  0  0  0  0
    2.1450    0.5882   -0.1516 C   0  0  0  0  0  0  0  0  0  0  0  0
    2.1504   -0.6832    0.6431 O   0  0  0  0  0  0  0  0  0  0  0  0
    0.1547   -0.8987   -0.8598 C   0  0  0  0  0  0  0  0  0  0  0  0
   -2.6158    1.2399   -0.2102 H   0  0  0  0  0  0  0  0  0  0  0  0
   -2.4214    0.4104   -1.8433 H   0  0  0  0  0  0  0  0  0  0  0  0
   -0.3346    1.2578    1.1636 H   0  0  0  0  0  0  0  0  0  0  0  0
   -0.3856   -0.5095    1.7661 H   0  0  0  0  0  0  0  0  0  0  0  0
    2.4708    1.4542    0.4671 H   0  0  0  0  0  0  0  0  0  0  0  0
    2.7763    0.4152   -1.0405 H   0  0  0  0  0  0  0  0  0  0  0  0
    0.4176   -0.6439   -1.9090 H   0  0  0  0  0  0  0  0  0  0  0  0
    0.1514   -1.9994   -0.7557 H   0  0  0  0  0  0  0  0  0  0  0  0
  1  2  1  0
  2  3  1  0
  3  4  1  0
  4  5  1  0
  5  6  1  0
  6  7  1  0
  5  8  1  0
  3  1  1  0
  7  5  1  0
  8  3  1  0
  1  9  1  0
  1 10  1  0
  4 11  1  0
  4 12  1  0
  6 13  1  0
  6 14  1  0
  8 15  1  0
  8 16  1  0
M  END
