
     RDKit          3D

 19 21  0  0  0  0  0  0  0  0999 V2000
    1.6578   -0.1079   -0.1888 C   0  0  0  0  0  0  0  0  0  0  0  0
    1.1557   -1.1745   -0.9354 O   0  0  0  0  0  0  0  0  0  0  0  0
   -0.1724   -1.1066   -1.2268 C   0  0  0  0  0  0  0  0  0  0  0  0
   -0.5696    0.3741   -1.1497 C   0  0  0  0  0  0  0  0  0  0  0  0
   -0.6283    0.4102    0.3766 C   0  0  0  0  0  0  0  0  0  0  0  0
   -1.3785   -0.7826    0.6680 C   0  0  0  0  0  0  0  0  0  0  0  0
   -1.0141   -1.7156   -0.3303 O   0  0  0  0  0  0  0  0  0  0  0  0
   -0.0268    1.4703    1.0541 C   0  0  0  0  0  0  0  0  0  0  0  0
    0.8233    0.3095    0.9481 C   0  0  0  0  0  0  0  0  0  0  0  0
    2.6347   -0.5059    0.2306 H   0  0  0  0  0  0  0  0  0  0  0  0
    2.0110    0.7368   -0.8470 H   0  0  0  0  0  0  0  0  0  0  0  0
   -0.3969   -1.4019   -2.2920 H   0  0  0  0  0  0  0  0  0  0  0  0
   -1.6006    0.5184   -1.4892 H   0  0  0  0  0  0  0  0  0  0  0  0
    0.1472    1.0468   -1.5889 H   0  0  0  0  0  0  0  0  0  0  0  0
   -1.0873   -1.2926    1.6345 H   0  0  0  0  0  0  0  0  0  0  0  0
   -2.4761   -0.6600    0.7279 H   0  0  0  0  0  0  0  0  0  0  0  0
   -0.3147    1.8120    2.0858 H   0  0  0  0  0  0  0  0  0  0  0  0
    0.2811    2.3741    0.4444 H   0  0  0  0  0  0  0  0  0  0  0  0
    0.9546   -0.3046    1.8782 H   0  0  0  0  0  0  0  0  0  0  0  0
  1  2  1  0
  2  3  1  0
  3  4  1  0
  4  5  1  0
  5  6  1  0
  6  7  1  0
  5  8  1  0
  8  9  1  0
  9  1  1  0
  7  3  1  0
  9  5  1  0
  1 10  1  0
  1 11  1  0
  3 12  1  0
  4 13  1  0
  4 14  1  0
  6 15  1  0
  6 16  1  0
  8 17  1  0
  8 18  1  0
  9 19  1  0
M  END
