
     RDKit          3D

 19 21  0  0  0  0  0  0  0  0999 V2000
    1.7005    0.6966   -0.3749 C   0  0  0  0  0  0  0  0  0  0  0  0
    1.1865    1.6974    0.4880 O   0  0  0  0  0  0  0  0  0  0  0  0
    0.0405    1.0146    0.9761 C   0  0  0  0  0  0  0  0  0  0  0  0
    0.7432   -0.1282    1.4620 O   0  0  0  0  0  0  0  0  0  0  0  0
    1.2465   -0.6022    0.2212 C   0  0  0  0  0  0  0  0  0  0  0  0
    0.1223   -1.2747   -0.5928 C   0  0  0  0  0  0  0  0  0  0  0  0
   -1.1226   -0.8476    0.0807 C   0  0  0  0  0  0  0  0  0  0  0  0
   -2.1638    0.0572   -0.1368 C   0  0  0  0  0  0  0  0  0  0  0  0
   -0.9137    0.7113   -0.0858 C   0  0  0  0  0  0  0  0  0  0  0  0
    1.4512    0.8553   -1.4184 H   0  0  0  0  0  0  0  0  0  0  0  0
    2.8266    0.7710   -0.3083 H   0  0  0  0  0  0  0  0  0  0  0  0
   -0.3374    1.5444    1.8616 H   0  0  0  0  0  0  0  0  0  0  0  0
    2.0798   -1.3139    0.3839 H   0  0  0  0  0  0  0  0  0  0  0  0
    0.1466   -0.9147   -1.6401 H   0  0  0  0  0  0  0  0  0  0  0  0
    0.2163   -2.3680   -0.5583 H   0  0  0  0  0  0  0  0  0  0  0  0
   -1.0366   -1.2283    1.1518 H   0  0  0  0  0  0  0  0  0  0  0  0
   -2.8951    0.2723    0.6911 H   0  0  0  0  0  0  0  0  0  0  0  0
   -2.7430    0.0085   -1.0963 H   0  0  0  0  0  0  0  0  0  0  0  0
   -0.5479    1.0489   -1.1049 H   0  0  0  0  0  0  0  0  0  0  0  0
  1  2  1  0
  2  3  1  0
  3  4  1  0
  4  5  1  0
  5  6  1  0
  6  7  1  0
  7  8  1  0
  8  9  1  0
  5  1  1  0
  9  7  1  0
  9  3  1  0
  1 10  1  0
  1 11  1  0
  3 12  1  0
  5 13  1  0
  6 14  1  0
  6 15  1  0
  7 16  1  0
  8 17  1  0
  8 18  1  0
  9 19  1  0
M  END
