
     RDKit          3D

 19 21  0  0  0  0  0  0  0  0999 V2000
    2.2548   -0.0607    0.8787 C   0  0  0  0  0  0  0  0  0  0  0  0
    1.0963    0.2628    1.6053 O   0  0  0  0  0  0  0  0  0  0  0  0
    0.3349   -0.5216    0.7754 C   0  0  0  0  0  0  0  0  0  0  0  0
    1.4786   -0.7369   -0.1858 C   0  0  0  0  0  0  0  0  0  0  0  0
    1.1791   -0.0075   -1.3236 O   0  0  0  0  0  0  0  0  0  0  0  0
   -0.2204   -0.0871   -1.4671 C   0  0  0  0  0  0  0  0  0  0  0  0
   -0.6841    0.1567   -0.0682 C   0  0  0  0  0  0  0  0  0  0  0  0
   -1.4601    1.3192    0.3337 C   0  0  0  0  0  0  0  0  0  0  0  0
   -2.0999    0.0022    0.3381 C   0  0  0  0  0  0  0  0  0  0  0  0
    2.8586    0.8302    0.5869 H   0  0  0  0  0  0  0  0  0  0  0  0
    2.8865   -0.7229    1.4959 H   0  0  0  0  0  0  0  0  0  0  0  0
   -0.0689   -1.4625    1.1997 H   0  0  0  0  0  0  0  0  0  0  0  0
    1.7235   -1.7657   -0.4406 H   0  0  0  0  0  0  0  0  0  0  0  0
   -0.5391   -1.0461   -1.8967 H   0  0  0  0  0  0  0  0  0  0  0  0
   -0.5720    0.7273   -2.1241 H   0  0  0  0  0  0  0  0  0  0  0  0
   -1.3010    1.8431    1.3158 H   0  0  0  0  0  0  0  0  0  0  0  0
   -1.7236    2.0430   -0.4941 H   0  0  0  0  0  0  0  0  0  0  0  0
   -2.7739   -0.3661   -0.4470 H   0  0  0  0  0  0  0  0  0  0  0  0
   -2.3694   -0.4073    1.3491 H   0  0  0  0  0  0  0  0  0  0  0  0
  1  2  1  0
  2  3  1  0
  3  4  1  0
  4  5  1  0
  5  6  1  0
  6  7  1  0
  7  8  1  0
  8  9  1  0
  4  1  1  0
  9  7  1  0
  7  3  1  0
  1 10  1  0
  1 11  1  0
  3 12  1  0
  4 13  1  0
  6 14  1  0
  6 15  1  0
  8 16  1  0
  8 17  1  0
  9 18  1  0
  9 19  1  0
M  END
