
     RDKit          2D

 19 22  0  0  0  0  0  0  0  0999 V2000
   -4.5311   -0.7500    0.0000 C   0  0  0  0  0  0  0  0  0  0  0  0
   -4.5311    0.7500    0.0000 O   0  0  0  0  0  0  0  0  0  0  0  0
   -3.2321    1.5000    0.0000 C   0  0  0  0  0  0  0  0  0  0  0  0
   -1.9330    0.7500    0.0000 C   0  0  0  0  0  0  0  0  0  0  0  0
   -1.9330   -0.7500    0.0000 C   0  0  0  0  0  0  0  0  0  0  0  0
   -3.2321   -1.5000    0.0000 C   0  0  0  0  0  0  0  0  0  0  0  0
    0.8660    0.0000    0.0000 C   0  0  0  0  0  0  0  0  0  0  0  0
   -0.4330    0.7500    0.0000 C   0  0  0  0  0  0  0  0  0  0  0  0
   -0.4330   -0.7500    0.0000 C   0  0  0  0  0  0  0  0  0  0  0  0
   -5.0441   -2.1595    0.0000 H   0  0  0  0  0  0  0  0  0  0  0  0
   -6.0083   -0.4895    0.0000 H   0  0  0  0  0  0  0  0  0  0  0  0
   -4.1962    2.6491    0.0000 H   0  0  0  0  0  0  0  0  0  0  0  0
   -2.4151    2.7580    0.0000 H   0  0  0  0  0  0  0  0  0  0  0  0
   -1.3711    2.1408    0.0000 H   0  0  0  0  0  0  0  0  0  0  0  0
   -1.5448   -2.1989    0.0000 H   0  0  0  0  0  0  0  0  0  0  0  0
   -3.2321   -3.0000    0.0000 H   0  0  0  0  0  0  0  0  0  0  0  0
    2.3660    0.0000    0.0000 H   0  0  0  0  0  0  0  0  0  0  0  0
   -0.0448    2.1989    0.0000 H   0  0  0  0  0  0  0  0  0  0  0  0
   -0.0448   -2.1989    0.0000 H   0  0  0  0  0  0  0  0  0  0  0  0
  1  2  1  0
  2  3  1  0
  3  4  1  0
  4  5  1  0
  5  6  1  0
  6  7  1  0
  7  8  1  0
  8  9  1  0
  6  1  1  0
  9  7  1  0
  8  4  1  0
  9  5  1  0
  1 10  1  0
  1 11  1  0
  3 12  1  0
  3 13  1  0
  4 14  1  0
  5 15  1  0
  6 16  1  0
  7 17  1  0
  8 18  1  0
  9 19  1  0
M  END
