
     RDKit          3D

 17 19  0  0  0  0  0  0  0  0999 V2000
    1.9568    0.5196   -0.6151 C   0  0  0  0  0  0  0  0  0  0  0  0
    2.1479   -0.1757    0.5688 O   0  0  0  0  0  0  0  0  0  0  0  0
    0.9491   -0.7548    0.9222 C   0  0  0  0  0  0  0  0  0  0  0  0
   -0.0031   -0.2007   -0.0992 C   0  0  0  0  0  0  0  0  0  0  0  0
   -0.8165    0.9903    0.3649 C   0  0  0  0  0  0  0  0  0  0  0  0
   -2.0348    0.0627    0.2811 C   0  0  0  0  0  0  0  0  0  0  0  0
   -1.9818   -1.1441    0.9348 O   0  0  0  0  0  0  0  0  0  0  0  0
   -1.2934   -0.9379   -0.2790 C   0  0  0  0  0  0  0  0  0  0  0  0
    0.7844   -0.0136   -1.1968 O   0  0  0  0  0  0  0  0  0  0  0  0
    1.7420    1.6016   -0.3772 H   0  0  0  0  0  0  0  0  0  0  0  0
    2.8135    0.4602   -1.3041 H   0  0  0  0  0  0  0  0  0  0  0  0
    0.5928   -0.4698    1.9250 H   0  0  0  0  0  0  0  0  0  0  0  0
    1.0046   -1.8656    0.9018 H   0  0  0  0  0  0  0  0  0  0  0  0
   -0.8162    1.7630   -0.4138 H   0  0  0  0  0  0  0  0  0  0  0  0
   -0.5704    1.3064    1.3901 H   0  0  0  0  0  0  0  0  0  0  0  0
   -3.0170    0.4898    0.1266 H   0  0  0  0  0  0  0  0  0  0  0  0
   -1.4580   -1.6314   -1.1048 H   0  0  0  0  0  0  0  0  0  0  0  0
  1  2  1  0
  2  3  1  0
  3  4  1  0
  4  5  1  0
  5  6  1  0
  6  7  1  0
  7  8  1  0
  4  9  1  0
  9  1  1  0
  8  4  1  0
  8  6  1  0
  1 10  1  0
  1 11  1  0
  3 12  1  0
  3 13  1  0
  5 14  1  0
  5 15  1  0
  6 16  1  0
  8 17  1  0
M  END
