
     RDKit          3D

 19 21  0  0  0  0  0  0  0  0999 V2000
    1.1097    1.0528   -0.5241 C   0  0  0  0  0  0  0  0  0  0  0  0
    0.3415    1.4986    0.5119 O   0  0  0  0  0  0  0  0  0  0  0  0
   -0.7418    0.7156    0.8283 C   0  0  0  0  0  0  0  0  0  0  0  0
   -1.6993    0.7810   -0.3680 C   0  0  0  0  0  0  0  0  0  0  0  0
   -1.1562   -0.0502   -1.3108 O   0  0  0  0  0  0  0  0  0  0  0  0
   -0.3468   -0.9719   -0.7166 C   0  0  0  0  0  0  0  0  0  0  0  0
    1.0848   -0.4488   -0.6422 C   0  0  0  0  0  0  0  0  0  0  0  0
    1.0993   -0.9919    0.7933 C   0  0  0  0  0  0  0  0  0  0  0  0
   -0.3988   -0.7573    0.7819 C   0  0  0  0  0  0  0  0  0  0  0  0
    2.1795    1.3233   -0.2831 H   0  0  0  0  0  0  0  0  0  0  0  0
    0.8563    1.4821   -1.5144 H   0  0  0  0  0  0  0  0  0  0  0  0
   -1.2026    1.0395    1.7549 H   0  0  0  0  0  0  0  0  0  0  0  0
   -1.8463    1.8160   -0.6697 H   0  0  0  0  0  0  0  0  0  0  0  0
   -2.6486    0.3020    0.0119 H   0  0  0  0  0  0  0  0  0  0  0  0
   -0.3893   -2.0092   -1.0569 H   0  0  0  0  0  0  0  0  0  0  0  0
    1.7959   -0.9020   -1.3204 H   0  0  0  0  0  0  0  0  0  0  0  0
    1.6606   -0.3819    1.5039 H   0  0  0  0  0  0  0  0  0  0  0  0
    1.3121   -2.0666    0.8598 H   0  0  0  0  0  0  0  0  0  0  0  0
   -1.0100   -1.4311    1.3601 H   0  0  0  0  0  0  0  0  0  0  0  0
  1  2  1  0
  2  3  1  0
  3  4  1  0
  4  5  1  0
  5  6  1  0
  6  7  1  0
  7  8  1  0
  8  9  1  0
  7  1  1  0
  9  3  1  0
  9  6  1  0
  1 10  1  0
  1 11  1  0
  3 12  1  0
  4 13  1  0
  4 14  1  0
  6 15  1  0
  7 16  1  0
  8 17  1  0
  8 18  1  0
  9 19  1  0
M  END
