
     RDKit          3D

 21 23  0  0  0  0  0  0  0  0999 V2000
   -1.9940   -1.0856    0.3350 C   0  0  0  0  0  0  0  0  0  0  0  0
   -3.1235   -0.3703   -0.0326 O   0  0  0  0  0  0  0  0  0  0  0  0
   -2.2902    0.7534   -0.1719 C   0  0  0  0  0  0  0  0  0  0  0  0
   -1.1374   -0.1547   -0.5288 C   0  0  0  0  0  0  0  0  0  0  0  0
    0.0973    0.2120    0.2121 C   0  0  0  0  0  0  0  0  0  0  0  0
    0.9851   -0.9697    0.6008 C   0  0  0  0  0  0  0  0  0  0  0  0
    2.1491   -0.3056   -0.0347 C   0  0  0  0  0  0  0  0  0  0  0  0
    2.4159    1.1777    0.2185 C   0  0  0  0  0  0  0  0  0  0  0  0
    1.2521    0.7358   -0.5956 C   0  0  0  0  0  0  0  0  0  0  0  0
   -2.0182   -2.1293   -0.0389 H   0  0  0  0  0  0  0  0  0  0  0  0
   -1.7948   -0.9693    1.4077 H   0  0  0  0  0  0  0  0  0  0  0  0
   -2.1277    1.2587    0.7881 H   0  0  0  0  0  0  0  0  0  0  0  0
   -2.6129    1.3659   -1.0247 H   0  0  0  0  0  0  0  0  0  0  0  0
   -1.0542   -0.4586   -1.5661 H   0  0  0  0  0  0  0  0  0  0  0  0
   -0.0848    0.8839    1.0768 H   0  0  0  0  0  0  0  0  0  0  0  0
    0.6822   -1.8891    0.0972 H   0  0  0  0  0  0  0  0  0  0  0  0
    1.0099   -1.1126    1.6948 H   0  0  0  0  0  0  0  0  0  0  0  0
    2.8630   -0.8622   -0.6626 H   0  0  0  0  0  0  0  0  0  0  0  0
    3.3476    1.5378   -0.2244 H   0  0  0  0  0  0  0  0  0  0  0  0
    2.2680    1.4414    1.2881 H   0  0  0  0  0  0  0  0  0  0  0  0
    1.1677    0.9401   -1.6583 H   0  0  0  0  0  0  0  0  0  0  0  0
  1  2  1  0
  2  3  1  0
  3  4  1  0
  4  5  1  0
  5  6  1  0
  6  7  1  0
  7  8  1  0
  8  9  1  0
  4  1  1  0
  9  5  1  0
  9  7  1  0
  1 10  1  0
  1 11  1  0
  3 12  1  0
  3 13  1  0
  4 14  1  0
  5 15  1  0
  6 16  1  0
  6 17  1  0
  7 18  1  0
  8 19  1  0
  8 20  1  0
  9 21  1  0
M  END
