
     RDKit          3D

 14 16  0  0  0  0  0  0  0  0999 V2000
   -1.8505   -0.0970    0.0112 C   0  0  0  0  0  0  0  0  0  0  0  0
   -0.9805    0.7510    0.7119 O   0  0  0  0  0  0  0  0  0  0  0  0
    0.1163    0.8540   -0.1587 C   0  0  0  0  0  0  0  0  0  0  0  0
    0.1547   -0.5694   -0.7173 C   0  0  0  0  0  0  0  0  0  0  0  0
   -1.0464   -1.1518   -0.4210 O   0  0  0  0  0  0  0  0  0  0  0  0
    1.2937   -0.8351    0.2355 C   0  0  0  0  0  0  0  0  0  0  0  0
    2.4312   -0.1029   -0.0236 O   0  0  0  0  0  0  0  0  0  0  0  0
    1.4327    0.6610    0.5259 C   0  0  0  0  0  0  0  0  0  0  0  0
   -2.6267   -0.5327    0.6765 H   0  0  0  0  0  0  0  0  0  0  0  0
   -2.2732    0.4831   -0.8243 H   0  0  0  0  0  0  0  0  0  0  0  0
    0.0470    1.6322   -0.9214 H   0  0  0  0  0  0  0  0  0  0  0  0
    0.5170   -0.6312   -1.7572 H   0  0  0  0  0  0  0  0  0  0  0  0
    1.1739   -1.4566    1.1121 H   0  0  0  0  0  0  0  0  0  0  0  0
    1.6108    0.9953    1.5505 H   0  0  0  0  0  0  0  0  0  0  0  0
  1  2  1  0
  2  3  1  0
  3  4  1  0
  4  5  1  0
  4  6  1  0
  6  7  1  0
  7  8  1  0
  5  1  1  0
  8  6  1  0
  8  3  1  0
  1  9  1  0
  1 10  1  0
  3 11  1  0
  4 12  1  0
  6 13  1  0
  8 14  1  0
M  END
