
     RDKit          3D

 15 16  0  0  0  0  0  0  0  0999 V2000
    1.7002   -0.3333    0.7868 C   0  0  0  0  0  0  0  0  0  0  0  0
    1.2139    0.8718    0.3556 O   0  0  0  0  0  0  0  0  0  0  0  0
    0.3039    0.5461   -0.6287 C   0  0  0  0  0  0  0  0  0  0  0  0
   -1.0846    1.0258   -0.3174 C   0  0  0  0  0  0  0  0  0  0  0  0
   -1.4295   -0.3601    0.1396 C   0  0  0  0  0  0  0  0  0  0  0  0
   -0.1227   -0.8707   -0.3916 C   0  0  0  0  0  0  0  0  0  0  0  0
    0.7791   -1.3116    0.5566 O   0  0  0  0  0  0  0  0  0  0  0  0
    2.6595   -0.5227    0.2673 H   0  0  0  0  0  0  0  0  0  0  0  0
    1.9544   -0.2206    1.8769 H   0  0  0  0  0  0  0  0  0  0  0  0
    0.6359    0.7005   -1.6719 H   0  0  0  0  0  0  0  0  0  0  0  0
   -1.6215    1.4110   -1.1959 H   0  0  0  0  0  0  0  0  0  0  0  0
   -1.0675    1.8007    0.4820 H   0  0  0  0  0  0  0  0  0  0  0  0
   -1.4144   -0.3932    1.2598 H   0  0  0  0  0  0  0  0  0  0  0  0
   -2.3425   -0.8063   -0.2607 H   0  0  0  0  0  0  0  0  0  0  0  0
   -0.1641   -1.5375   -1.2584 H   0  0  0  0  0  0  0  0  0  0  0  0
  1  2  1  0
  2  3  1  0
  3  4  1  0
  4  5  1  0
  5  6  1  0
  6  7  1  0
  7  1  1  0
  6  3  1  0
  1  8  1  0
  1  9  1  0
  3 10  1  0
  4 11  1  0
  4 12  1  0
  5 13  1  0
  5 14  1  0
  6 15  1  0
M  END
