
     RDKit          3D

 17 19  0  0  0  0  0  0  0  0999 V2000
    1.6870    0.4439    0.0530 C   0  0  0  0  0  0  0  0  0  0  0  0
    0.8823    1.4736    0.4037 O   0  0  0  0  0  0  0  0  0  0  0  0
   -0.4469    1.3470    0.1618 C   0  0  0  0  0  0  0  0  0  0  0  0
   -1.2544    0.1681    0.4659 C   0  0  0  0  0  0  0  0  0  0  0  0
   -0.7418   -1.1654    0.8227 C   0  0  0  0  0  0  0  0  0  0  0  0
    0.4672   -1.5285    0.3281 O   0  0  0  0  0  0  0  0  0  0  0  0
    1.0161   -0.7136   -0.6156 C   0  0  0  0  0  0  0  0  0  0  0  0
    0.0285   -0.3322   -1.5097 O   0  0  0  0  0  0  0  0  0  0  0  0
   -0.8788    0.5209   -0.9550 C   0  0  0  0  0  0  0  0  0  0  0  0
    2.2034    0.0714    0.9801 H   0  0  0  0  0  0  0  0  0  0  0  0
    2.5156    0.7824   -0.6364 H   0  0  0  0  0  0  0  0  0  0  0  0
   -0.9888    2.3381    0.2420 H   0  0  0  0  0  0  0  0  0  0  0  0
   -2.3459    0.3083    0.6978 H   0  0  0  0  0  0  0  0  0  0  0  0
   -1.4911   -1.9337    0.4657 H   0  0  0  0  0  0  0  0  0  0  0  0
   -0.7116   -1.3046    1.9429 H   0  0  0  0  0  0  0  0  0  0  0  0
    1.7607   -1.3088   -1.1996 H   0  0  0  0  0  0  0  0  0  0  0  0
   -1.7016    0.8331   -1.6473 H   0  0  0  0  0  0  0  0  0  0  0  0
  1  2  1  0
  2  3  1  0
  3  4  1  0
  4  5  1  0
  5  6  1  0
  6  7  1  0
  7  8  1  0
  8  9  1  0
  7  1  1  0
  9  3  1  0
  9  4  1  0
  1 10  1  0
  1 11  1  0
  3 12  1  0
  4 13  1  0
  5 14  1  0
  5 15  1  0
  7 16  1  0
  9 17  1  0
M  END
