
     RDKit          3D

 15 16  0  0  0  0  0  0  0  0999 V2000
   -0.9803    0.7711    0.6797 C   0  0  0  0  0  0  0  0  0  0  0  0
   -1.9479   -0.2193    0.7940 O   0  0  0  0  0  0  0  0  0  0  0  0
   -1.6023   -0.6943   -0.4605 C   0  0  0  0  0  0  0  0  0  0  0  0
   -0.3470    0.1091   -0.5207 C   0  0  0  0  0  0  0  0  0  0  0  0
    0.9360   -0.5991   -0.2432 C   0  0  0  0  0  0  0  0  0  0  0  0
    2.0786    0.2435    0.3078 C   0  0  0  0  0  0  0  0  0  0  0  0
    2.0222   -0.2882   -1.0422 O   0  0  0  0  0  0  0  0  0  0  0  0
   -0.3379    0.7454    1.6003 H   0  0  0  0  0  0  0  0  0  0  0  0
   -1.4420    1.7294    0.4462 H   0  0  0  0  0  0  0  0  0  0  0  0
   -1.4989   -1.7932   -0.4552 H   0  0  0  0  0  0  0  0  0  0  0  0
   -2.3450   -0.3170   -1.2069 H   0  0  0  0  0  0  0  0  0  0  0  0
   -0.2559    0.8114   -1.3690 H   0  0  0  0  0  0  0  0  0  0  0  0
    0.8637   -1.5874    0.2416 H   0  0  0  0  0  0  0  0  0  0  0  0
    2.8983   -0.2454    0.8526 H   0  0  0  0  0  0  0  0  0  0  0  0
    1.9583    1.3339    0.3753 H   0  0  0  0  0  0  0  0  0  0  0  0
  1  2  1  0
  2  3  1  0
  3  4  1  0
  4  5  1  0
  5  6  1  0
  6  7  1  0
  4  1  1  0
  7  5  1  0
  1  8  1  0
  1  9  1  0
  3 10  1  0
  3 11  1  0
  4 12  1  0
  5 13  1  0
  6 14  1  0
  6 15  1  0
M  END
