
     RDKit          3D

 17 19  0  0  0  0  0  0  0  0999 V2000
   -1.3591   -1.4616   -0.2462 C   0  0  0  0  0  0  0  0  0  0  0  0
   -0.0170   -1.6329   -0.0410 O   0  0  0  0  0  0  0  0  0  0  0  0
    0.6674   -0.6064   -0.7215 C   0  0  0  0  0  0  0  0  0  0  0  0
    2.0206   -0.2714   -0.1139 C   0  0  0  0  0  0  0  0  0  0  0  0
    1.3574    0.5311    0.8465 O   0  0  0  0  0  0  0  0  0  0  0  0
    0.3573    0.6643   -0.0376 C   0  0  0  0  0  0  0  0  0  0  0  0
   -0.2697    1.8294   -0.5580 C   0  0  0  0  0  0  0  0  0  0  0  0
   -1.0707    0.7794    0.2659 C   0  0  0  0  0  0  0  0  0  0  0  0
   -1.7629   -0.1764   -0.4884 O   0  0  0  0  0  0  0  0  0  0  0  0
   -1.9947   -1.9104    0.5691 H   0  0  0  0  0  0  0  0  0  0  0  0
   -1.6303   -2.0669   -1.1603 H   0  0  0  0  0  0  0  0  0  0  0  0
    0.6263   -0.6596   -1.8034 H   0  0  0  0  0  0  0  0  0  0  0  0
    2.5371   -1.1224    0.3229 H   0  0  0  0  0  0  0  0  0  0  0  0
    2.5922    0.3346   -0.8618 H   0  0  0  0  0  0  0  0  0  0  0  0
   -0.5221    1.8831   -1.6373 H   0  0  0  0  0  0  0  0  0  0  0  0
   -0.1012    2.8082   -0.0814 H   0  0  0  0  0  0  0  0  0  0  0  0
   -1.4306    1.0779    1.2487 H   0  0  0  0  0  0  0  0  0  0  0  0
  1  2  1  0
  2  3  1  0
  3  4  1  0
  4  5  1  0
  5  6  1  0
  6  7  1  0
  7  8  1  0
  8  9  1  0
  9  1  1  0
  6  3  1  0
  8  6  1  0
  1 10  1  0
  1 11  1  0
  3 12  1  0
  4 13  1  0
  4 14  1  0
  7 15  1  0
  7 16  1  0
  8 17  1  0
M  END
