
     RDKit          3D

 19 21  0  0  0  0  0  0  0  0999 V2000
    1.7939    0.0630    0.3492 C   0  0  0  0  0  0  0  0  0  0  0  0
    1.0694   -0.2285    1.5185 O   0  0  0  0  0  0  0  0  0  0  0  0
   -0.1431   -0.8480    1.1388 C   0  0  0  0  0  0  0  0  0  0  0  0
    0.2127   -1.6462    0.0254 O   0  0  0  0  0  0  0  0  0  0  0  0
   -0.0028   -0.7470   -1.0461 C   0  0  0  0  0  0  0  0  0  0  0  0
   -1.4685   -0.4058   -0.7212 C   0  0  0  0  0  0  0  0  0  0  0  0
   -1.1001    0.1978    0.6488 C   0  0  0  0  0  0  0  0  0  0  0  0
   -0.2477    1.3519    0.1258 C   0  0  0  0  0  0  0  0  0  0  0  0
    0.7475    0.5012   -0.6872 C   0  0  0  0  0  0  0  0  0  0  0  0
    2.5576    0.8296    0.5100 H   0  0  0  0  0  0  0  0  0  0  0  0
    2.2119   -0.9215    0.0161 H   0  0  0  0  0  0  0  0  0  0  0  0
   -0.5768   -1.4441    1.9483 H   0  0  0  0  0  0  0  0  0  0  0  0
    0.1499   -1.1540   -2.0139 H   0  0  0  0  0  0  0  0  0  0  0  0
   -2.0659   -1.3017   -0.5590 H   0  0  0  0  0  0  0  0  0  0  0  0
   -1.8782    0.3379   -1.3992 H   0  0  0  0  0  0  0  0  0  0  0  0
   -1.9193    0.4588    1.2575 H   0  0  0  0  0  0  0  0  0  0  0  0
   -0.8083    2.0390   -0.5082 H   0  0  0  0  0  0  0  0  0  0  0  0
    0.2899    1.8730    0.9127 H   0  0  0  0  0  0  0  0  0  0  0  0
    1.1776    1.0446   -1.5162 H   0  0  0  0  0  0  0  0  0  0  0  0
  1  2  1  0
  2  3  1  0
  3  4  1  0
  4  5  1  0
  5  6  1  0
  6  7  1  0
  7  8  1  0
  8  9  1  0
  9  1  1  0
  7  3  1  0
  9  5  1  0
  1 10  1  0
  1 11  1  0
  3 12  1  0
  5 13  1  0
  6 14  1  0
  6 15  1  0
  7 16  1  0
  8 17  1  0
  8 18  1  0
  9 19  1  0
M  END
