
     RDKit          3D

 16 18  0  0  0  0  0  0  0  0999 V2000
    1.3411    0.7354   -0.3892 C   0  0  0  0  0  0  0  0  0  0  0  0
    1.6478   -0.5773   -0.5575 O   0  0  0  0  0  0  0  0  0  0  0  0
    0.7139   -1.3755    0.0213 C   0  0  0  0  0  0  0  0  0  0  0  0
   -0.2715   -0.5430    0.7620 C   0  0  0  0  0  0  0  0  0  0  0  0
    0.1243    0.8784    0.4430 C   0  0  0  0  0  0  0  0  0  0  0  0
   -1.1970    0.9645   -0.3376 C   0  0  0  0  0  0  0  0  0  0  0  0
   -1.2278    0.0790   -1.3985 O   0  0  0  0  0  0  0  0  0  0  0  0
   -1.5123   -0.3148   -0.0718 C   0  0  0  0  0  0  0  0  0  0  0  0
    1.2952    1.2508   -1.3635 H   0  0  0  0  0  0  0  0  0  0  0  0
    2.1952    1.2155    0.1728 H   0  0  0  0  0  0  0  0  0  0  0  0
    1.1151   -2.1405    0.7245 H   0  0  0  0  0  0  0  0  0  0  0  0
    0.1882   -1.9730   -0.7764 H   0  0  0  0  0  0  0  0  0  0  0  0
   -0.4223   -0.7201    1.8204 H   0  0  0  0  0  0  0  0  0  0  0  0
    0.1528    1.5808    1.2722 H   0  0  0  0  0  0  0  0  0  0  0  0
   -1.7625    1.8880   -0.3305 H   0  0  0  0  0  0  0  0  0  0  0  0
   -2.3801   -0.9481    0.0088 H   0  0  0  0  0  0  0  0  0  0  0  0
  1  2  1  0
  2  3  1  0
  3  4  1  0
  4  5  1  0
  5  6  1  0
  6  7  1  0
  7  8  1  0
  5  1  1  0
  8  6  1  0
  8  4  1  0
  1  9  1  0
  1 10  1  0
  3 11  1  0
  3 12  1  0
  4 13  1  0
  5 14  1  0
  6 15  1  0
  8 16  1  0
M  END
