
     RDKit          3D

 19 21  0  0  0  0  0  0  0  0999 V2000
    0.1789    1.2843    0.8184 C   0  0  0  0  0  0  0  0  0  0  0  0
   -1.1436    0.9000    1.0436 O   0  0  0  0  0  0  0  0  0  0  0  0
   -1.7832    0.4581   -0.1176 C   0  0  0  0  0  0  0  0  0  0  0  0
   -1.0954   -0.8048   -0.6702 C   0  0  0  0  0  0  0  0  0  0  0  0
   -0.3202   -1.5381    0.4460 C   0  0  0  0  0  0  0  0  0  0  0  0
    0.2836   -0.6963   -0.5678 C   0  0  0  0  0  0  0  0  0  0  0  0
    1.4030   -1.0179   -1.1764 O   0  0  0  0  0  0  0  0  0  0  0  0
    2.0369   -0.0889   -0.3026 C   0  0  0  0  0  0  0  0  0  0  0  0
    0.7760    0.6958   -0.3881 C   0  0  0  0  0  0  0  0  0  0  0  0
    0.7597    1.1625    1.7554 H   0  0  0  0  0  0  0  0  0  0  0  0
    0.1284    2.4032    0.6595 H   0  0  0  0  0  0  0  0  0  0  0  0
   -1.7813    1.2668   -0.8586 H   0  0  0  0  0  0  0  0  0  0  0  0
   -2.8078    0.1648    0.1938 H   0  0  0  0  0  0  0  0  0  0  0  0
   -1.7314   -1.4066   -1.3258 H   0  0  0  0  0  0  0  0  0  0  0  0
   -0.2601   -2.6455    0.2751 H   0  0  0  0  0  0  0  0  0  0  0  0
   -0.5073   -1.2782    1.4830 H   0  0  0  0  0  0  0  0  0  0  0  0
    2.1581   -0.5162    0.7344 H   0  0  0  0  0  0  0  0  0  0  0  0
    2.9518    0.3493   -0.6947 H   0  0  0  0  0  0  0  0  0  0  0  0
    0.7540    1.3077   -1.3073 H   0  0  0  0  0  0  0  0  0  0  0  0
  1  2  1  0
  2  3  1  0
  3  4  1  0
  4  5  1  0
  5  6  1  0
  6  7  1  0
  7  8  1  0
  8  9  1  0
  9  1  1  0
  6  4  1  0
  9  6  1  0
  1 10  1  0
  1 11  1  0
  3 12  1  0
  3 13  1  0
  4 14  1  0
  5 15  1  0
  5 16  1  0
  8 17  1  0
  8 18  1  0
  9 19  1  0
M  END
