
     RDKit          3D

 16 17  0  0  0  0  0  0  0  0999 V2000
   -0.5819    0.2898    1.2352 C   0  0  0  0  0  0  0  0  0  0  0  0
   -0.1710   -1.0408    1.0793 O   0  0  0  0  0  0  0  0  0  0  0  0
    0.6042   -1.1623   -0.0814 C   0  0  0  0  0  0  0  0  0  0  0  0
    1.5933   -0.0297   -0.0957 C   0  0  0  0  0  0  0  0  0  0  0  0
    0.8913    1.1194   -0.4901 O   0  0  0  0  0  0  0  0  0  0  0  0
   -0.4324    0.9655   -0.1259 C   0  0  0  0  0  0  0  0  0  0  0  0
   -1.0929    0.0011   -1.1204 C   0  0  0  0  0  0  0  0  0  0  0  0
   -0.2755   -1.1368   -1.1528 O   0  0  0  0  0  0  0  0  0  0  0  0
   -0.0151    0.7937    2.0221 H   0  0  0  0  0  0  0  0  0  0  0  0
   -1.6850    0.2585    1.4315 H   0  0  0  0  0  0  0  0  0  0  0  0
    1.0857   -2.1478   -0.0370 H   0  0  0  0  0  0  0  0  0  0  0  0
    1.9002    0.1571    0.9620 H   0  0  0  0  0  0  0  0  0  0  0  0
    2.4514   -0.2468   -0.7564 H   0  0  0  0  0  0  0  0  0  0  0  0
   -0.9785    1.9313   -0.1025 H   0  0  0  0  0  0  0  0  0  0  0  0
   -1.1999    0.4753   -2.1028 H   0  0  0  0  0  0  0  0  0  0  0  0
   -2.0939   -0.2274   -0.6651 H   0  0  0  0  0  0  0  0  0  0  0  0
  1  2  1  0
  2  3  1  0
  3  4  1  0
  4  5  1  0
  5  6  1  0
  6  7  1  0
  7  8  1  0
  6  1  1  0
  8  3  1  0
  1  9  1  0
  1 10  1  0
  3 11  1  0
  4 12  1  0
  4 13  1  0
  6 14  1  0
  7 15  1  0
  7 16  1  0
M  END
