
     RDKit          2D

 21 23  0  0  0  0  0  0  0  0999 V2000
   -2.3476    1.3577    0.0000 C   0  0  0  0  0  0  0  0  0  0  0  0
   -2.5377   -0.1302    0.0000 O   0  0  0  0  0  0  0  0  0  0  0  0
   -1.4929   -1.2065    0.0000 C   0  0  0  0  0  0  0  0  0  0  0  0
   -0.0000   -1.0607    0.0000 C   0  0  0  0  0  0  0  0  0  0  0  0
    1.0607    0.0000    0.0000 C   0  0  0  0  0  0  0  0  0  0  0  0
    0.0000    1.0607    0.0000 C   0  0  0  0  0  0  0  0  0  0  0  0
   -1.0607    2.1213    0.0000 C   0  0  0  0  0  0  0  0  0  0  0  0
   -1.4213    1.0607    0.0000 C   0  0  0  0  0  0  0  0  0  0  0  0
   -1.0607    0.0000    0.0000 C   0  0  0  0  0  0  0  0  0  0  0  0
   -3.8405    1.2120    0.0000 H   0  0  0  0  0  0  0  0  0  0  0  0
   -2.6450    2.8280    0.0000 H   0  0  0  0  0  0  0  0  0  0  0  0
   -1.0186   -2.6295    0.0000 H   0  0  0  0  0  0  0  0  0  0  0  0
   -2.7747   -1.9856    0.0000 H   0  0  0  0  0  0  0  0  0  0  0  0
   -0.0000   -2.5607    0.0000 H   0  0  0  0  0  0  0  0  0  0  0  0
    2.1213    1.0607    0.0000 H   0  0  0  0  0  0  0  0  0  0  0  0
    2.1213   -1.0607    0.0000 H   0  0  0  0  0  0  0  0  0  0  0  0
    1.0607    2.1213    0.0000 H   0  0  0  0  0  0  0  0  0  0  0  0
   -1.0607    3.6213    0.0000 H   0  0  0  0  0  0  0  0  0  0  0  0
   -1.9918    0.5625    0.0000 H   0  0  0  0  0  0  0  0  0  0  0  0
   -3.3034    1.9841    0.0000 H   0  0  0  0  0  0  0  0  0  0  0  0
   -2.3465   -0.7725    0.0000 H   0  0  0  0  0  0  0  0  0  0  0  0
  1  2  1  0
  2  3  1  0
  3  4  1  0
  4  5  1  0
  5  6  1  0
  6  7  1  0
  7  8  1  0
  8  9  1  0
  7  1  1  0
  9  4  1  0
  9  6  1  0
  1 10  1  0
  1 11  1  0
  3 12  1  0
  3 13  1  0
  4 14  1  0
  5 15  1  0
  5 16  1  0
  6 17  1  0
  7 18  1  0
  8 19  1  0
  8 20  1  0
  9 21  1  0
M  END
