
     RDKit          3D

 18 20  0  0  0  0  0  0  0  0999 V2000
   -0.1917    1.5387    0.3216 C   0  0  0  0  0  0  0  0  0  0  0  0
   -0.2229    0.7221    1.4362 O   0  0  0  0  0  0  0  0  0  0  0  0
   -0.5805   -0.5515    1.0440 C   0  0  0  0  0  0  0  0  0  0  0  0
   -1.4835   -0.2821   -0.1739 C   0  0  0  0  0  0  0  0  0  0  0  0
   -0.4337    0.6095   -0.8652 C   0  0  0  0  0  0  0  0  0  0  0  0
    0.7098   -0.3419   -0.9754 C   0  0  0  0  0  0  0  0  0  0  0  0
    1.7896   -0.3655    0.0714 C   0  0  0  0  0  0  0  0  0  0  0  0
    0.5985   -1.1859    0.3331 C   0  0  0  0  0  0  0  0  0  0  0  0
   -1.1249    2.1725    0.3741 H   0  0  0  0  0  0  0  0  0  0  0  0
    0.7092    2.1381    0.2189 H   0  0  0  0  0  0  0  0  0  0  0  0
   -1.0474   -1.1662    1.7883 H   0  0  0  0  0  0  0  0  0  0  0  0
   -2.3567    0.2877    0.1406 H   0  0  0  0  0  0  0  0  0  0  0  0
   -1.6778   -1.1933   -0.7333 H   0  0  0  0  0  0  0  0  0  0  0  0
   -0.7816    1.0830   -1.7528 H   0  0  0  0  0  0  0  0  0  0  0  0
    0.8957   -0.8884   -1.9034 H   0  0  0  0  0  0  0  0  0  0  0  0
    1.9011    0.5330    0.7454 H   0  0  0  0  0  0  0  0  0  0  0  0
    2.7336   -0.8308   -0.2104 H   0  0  0  0  0  0  0  0  0  0  0  0
    0.5632   -2.2791    0.1408 H   0  0  0  0  0  0  0  0  0  0  0  0
  1  2  1  0
  2  3  1  0
  3  4  1  0
  4  5  1  0
  5  6  1  0
  6  7  1  0
  7  8  1  0
  5  1  1  0
  8  6  1  0
  8  3  1  0
  1  9  1  0
  1 10  1  0
  3 11  1  0
  4 12  1  0
  4 13  1  0
  5 14  1  0
  6 15  1  0
  7 16  1  0
  7 17  1  0
  8 18  1  0
M  END
