
     RDKit          3D

 19 21  0  0  0  0  0  0  0  0999 V2000
   -0.1310    1.3559   -0.3577 C   0  0  0  0  0  0  0  0  0  0  0  0
    1.1645    1.4466    0.0655 O   0  0  0  0  0  0  0  0  0  0  0  0
    1.9855    0.4013   -0.4257 C   0  0  0  0  0  0  0  0  0  0  0  0
    1.4099   -0.8465    0.1351 C   0  0  0  0  0  0  0  0  0  0  0  0
    1.2581   -2.0243   -0.4839 O   0  0  0  0  0  0  0  0  0  0  0  0
    0.2387   -1.1919   -0.8034 C   0  0  0  0  0  0  0  0  0  0  0  0
   -0.9790   -0.9938    0.0195 C   0  0  0  0  0  0  0  0  0  0  0  0
   -2.1205   -0.1958   -0.3656 C   0  0  0  0  0  0  0  0  0  0  0  0
   -1.0245    0.4703    0.4343 C   0  0  0  0  0  0  0  0  0  0  0  0
   -0.1748    1.1193   -1.4370 H   0  0  0  0  0  0  0  0  0  0  0  0
   -0.5647    2.3995   -0.2844 H   0  0  0  0  0  0  0  0  0  0  0  0
    2.9965    0.6090    0.0338 H   0  0  0  0  0  0  0  0  0  0  0  0
    2.0549    0.4065   -1.5132 H   0  0  0  0  0  0  0  0  0  0  0  0
    1.2408   -0.8307    1.2156 H   0  0  0  0  0  0  0  0  0  0  0  0
    0.2832   -0.8218   -1.8460 H   0  0  0  0  0  0  0  0  0  0  0  0
   -1.1146   -1.7619    0.8313 H   0  0  0  0  0  0  0  0  0  0  0  0
   -2.3210    0.1842   -1.3861 H   0  0  0  0  0  0  0  0  0  0  0  0
   -3.0709   -0.3589    0.2056 H   0  0  0  0  0  0  0  0  0  0  0  0
   -1.1313    0.6330    1.5041 H   0  0  0  0  0  0  0  0  0  0  0  0
  1  2  1  0
  2  3  1  0
  3  4  1  0
  4  5  1  0
  5  6  1  0
  6  7  1  0
  7  8  1  0
  8  9  1  0
  9  1  1  0
  6  4  1  0
  9  7  1  0
  1 10  1  0
  1 11  1  0
  3 12  1  0
  3 13  1  0
  4 14  1  0
  6 15  1  0
  7 16  1  0
  8 17  1  0
  8 18  1  0
  9 19  1  0
M  END
