
     RDKit          3D

 19 21  0  0  0  0  0  0  0  0999 V2000
    0.0816    1.8520    0.1812 C   0  0  0  0  0  0  0  0  0  0  0  0
   -1.2418    1.3994   -0.0394 O   0  0  0  0  0  0  0  0  0  0  0  0
   -1.2818    0.1457   -0.5579 C   0  0  0  0  0  0  0  0  0  0  0  0
   -2.0015   -1.0100   -0.0739 C   0  0  0  0  0  0  0  0  0  0  0  0
   -0.7423   -0.7808    0.5627 C   0  0  0  0  0  0  0  0  0  0  0  0
    0.6143   -1.1403    0.1502 C   0  0  0  0  0  0  0  0  0  0  0  0
    1.4870   -0.4434   -0.7734 C   0  0  0  0  0  0  0  0  0  0  0  0
    1.5174    0.0613    0.6059 C   0  0  0  0  0  0  0  0  0  0  0  0
    0.7788    1.0994    1.0751 O   0  0  0  0  0  0  0  0  0  0  0  0
   -0.0619    2.8715    0.6520 H   0  0  0  0  0  0  0  0  0  0  0  0
    0.6023    2.0581   -0.7730 H   0  0  0  0  0  0  0  0  0  0  0  0
   -0.8240    0.0586   -1.5608 H   0  0  0  0  0  0  0  0  0  0  0  0
   -2.1462   -1.8693   -0.7604 H   0  0  0  0  0  0  0  0  0  0  0  0
   -2.9355   -0.8170    0.5105 H   0  0  0  0  0  0  0  0  0  0  0  0
   -0.7746   -0.3658    1.6160 H   0  0  0  0  0  0  0  0  0  0  0  0
    0.9552   -2.1479    0.5358 H   0  0  0  0  0  0  0  0  0  0  0  0
    1.1917    0.2673   -1.5483 H   0  0  0  0  0  0  0  0  0  0  0  0
    2.4231   -0.9985   -1.0846 H   0  0  0  0  0  0  0  0  0  0  0  0
    2.3583   -0.2403    1.2825 H   0  0  0  0  0  0  0  0  0  0  0  0
  1  2  1  0
  2  3  1  0
  3  4  1  0
  4  5  1  0
  5  6  1  0
  6  7  1  0
  7  8  1  0
  8  9  1  0
  9  1  1  0
  5  3  1  0
  8  6  1  0
  1 10  1  0
  1 11  1  0
  3 12  1  0
  4 13  1  0
  4 14  1  0
  5 15  1  0
  6 16  1  0
  7 17  1  0
  7 18  1  0
  8 19  1  0
M  END
