
     RDKit          3D

 19 21  0  0  0  0  0  0  0  0999 V2000
    1.7409   -0.0519    0.3538 C   0  0  0  0  0  0  0  0  0  0  0  0
    1.2373    1.1276    0.7694 O   0  0  0  0  0  0  0  0  0  0  0  0
    0.2657    1.7040   -0.0418 C   0  0  0  0  0  0  0  0  0  0  0  0
   -0.5589    0.6220   -0.5986 C   0  0  0  0  0  0  0  0  0  0  0  0
   -1.9559    0.3630   -0.4652 C   0  0  0  0  0  0  0  0  0  0  0  0
   -1.1281   -0.3107    0.5095 C   0  0  0  0  0  0  0  0  0  0  0  0
   -0.2995   -1.5176    0.2968 C   0  0  0  0  0  0  0  0  0  0  0  0
    0.8924   -0.9496   -0.4462 C   0  0  0  0  0  0  0  0  0  0  0  0
    0.2103   -0.1884   -1.4159 O   0  0  0  0  0  0  0  0  0  0  0  0
    2.6816    0.1386   -0.2267 H   0  0  0  0  0  0  0  0  0  0  0  0
    2.0940   -0.6208    1.2596 H   0  0  0  0  0  0  0  0  0  0  0  0
   -0.3635    2.3452    0.6425 H   0  0  0  0  0  0  0  0  0  0  0  0
    0.6848    2.3998   -0.7849 H   0  0  0  0  0  0  0  0  0  0  0  0
   -2.4418   -0.2600   -1.2740 H   0  0  0  0  0  0  0  0  0  0  0  0
   -2.6413    1.1465   -0.1095 H   0  0  0  0  0  0  0  0  0  0  0  0
   -1.1402    0.0719    1.5491 H   0  0  0  0  0  0  0  0  0  0  0  0
   -0.7589   -2.2695   -0.3745 H   0  0  0  0  0  0  0  0  0  0  0  0
    0.0043   -1.9911    1.2301 H   0  0  0  0  0  0  0  0  0  0  0  0
    1.4768   -1.7588   -0.8737 H   0  0  0  0  0  0  0  0  0  0  0  0
  1  2  1  0
  2  3  1  0
  3  4  1  0
  4  5  1  0
  5  6  1  0
  6  7  1  0
  7  8  1  0
  8  9  1  0
  8  1  1  0
  6  4  1  0
  9  4  1  0
  1 10  1  0
  1 11  1  0
  3 12  1  0
  3 13  1  0
  5 14  1  0
  5 15  1  0
  6 16  1  0
  7 17  1  0
  7 18  1  0
  8 19  1  0
M  END
