
     RDKit          3D

 19 21  0  0  0  0  0  0  0  0999 V2000
    1.3880    1.0969   -0.5127 C   0  0  0  0  0  0  0  0  0  0  0  0
    1.4116    0.8671    0.8883 O   0  0  0  0  0  0  0  0  0  0  0  0
    0.6387   -0.2663    1.0563 C   0  0  0  0  0  0  0  0  0  0  0  0
    1.2092   -1.1668   -0.0582 C   0  0  0  0  0  0  0  0  0  0  0  0
    0.5414   -0.0873   -0.9276 C   0  0  0  0  0  0  0  0  0  0  0  0
   -0.4925   -0.0572    0.1221 C   0  0  0  0  0  0  0  0  0  0  0  0
   -1.6441   -0.9295    0.1040 C   0  0  0  0  0  0  0  0  0  0  0  0
   -2.4273    0.1732    0.5265 O   0  0  0  0  0  0  0  0  0  0  0  0
   -1.3802    1.0936    0.2760 C   0  0  0  0  0  0  0  0  0  0  0  0
    2.4010    1.0652   -0.9174 H   0  0  0  0  0  0  0  0  0  0  0  0
    0.8431    2.0251   -0.7419 H   0  0  0  0  0  0  0  0  0  0  0  0
    0.5148   -0.6986    2.0112 H   0  0  0  0  0  0  0  0  0  0  0  0
    2.2953   -1.1033   -0.0460 H   0  0  0  0  0  0  0  0  0  0  0  0
    0.7357   -2.1433   -0.1099 H   0  0  0  0  0  0  0  0  0  0  0  0
    0.3596   -0.2966   -1.9371 H   0  0  0  0  0  0  0  0  0  0  0  0
   -1.9654   -1.1986   -0.9454 H   0  0  0  0  0  0  0  0  0  0  0  0
   -1.6966   -1.7992    0.7757 H   0  0  0  0  0  0  0  0  0  0  0  0
   -1.1477    1.7587    1.1102 H   0  0  0  0  0  0  0  0  0  0  0  0
   -1.5845    1.6667   -0.6741 H   0  0  0  0  0  0  0  0  0  0  0  0
  1  2  1  0
  2  3  1  0
  3  4  1  0
  4  5  1  0
  5  6  1  0
  6  7  1  0
  7  8  1  0
  8  9  1  0
  5  1  1  0
  9  6  1  0
  6  3  1  0
  1 10  1  0
  1 11  1  0
  3 12  1  0
  4 13  1  0
  4 14  1  0
  5 15  1  0
  7 16  1  0
  7 17  1  0
  9 18  1  0
  9 19  1  0
M  END
