
     RDKit          3D

 16 18  0  0  0  0  0  0  0  0999 V2000
   -2.4157   -0.2460   -0.6240 C   0  0  0  0  0  0  0  0  0  0  0  0
   -2.1165    0.6709    0.4623 O   0  0  0  0  0  0  0  0  0  0  0  0
   -1.4327   -0.5244    0.4232 C   0  0  0  0  0  0  0  0  0  0  0  0
    0.0257   -0.5817    0.1216 C   0  0  0  0  0  0  0  0  0  0  0  0
    0.7739    0.5612   -0.4345 C   0  0  0  0  0  0  0  0  0  0  0  0
    2.2534    0.3131   -0.6693 C   0  0  0  0  0  0  0  0  0  0  0  0
    2.3564   -0.1294    0.6478 O   0  0  0  0  0  0  0  0  0  0  0  0
    1.0306    0.1330    0.9408 C   0  0  0  0  0  0  0  0  0  0  0  0
   -2.0756    0.2019   -1.5914 H   0  0  0  0  0  0  0  0  0  0  0  0
   -3.4251   -0.6734   -0.6234 H   0  0  0  0  0  0  0  0  0  0  0  0
   -1.7591   -1.2388    1.2311 H   0  0  0  0  0  0  0  0  0  0  0  0
    0.3646   -1.5903   -0.2523 H   0  0  0  0  0  0  0  0  0  0  0  0
    0.3260    1.5100   -0.7203 H   0  0  0  0  0  0  0  0  0  0  0  0
    2.4726   -0.4651   -1.4339 H   0  0  0  0  0  0  0  0  0  0  0  0
    2.8656    1.2265   -0.8092 H   0  0  0  0  0  0  0  0  0  0  0  0
    0.7559    0.8326    1.7442 H   0  0  0  0  0  0  0  0  0  0  0  0
  1  2  1  0
  2  3  1  0
  3  4  1  0
  4  5  1  0
  5  6  1  0
  6  7  1  0
  7  8  1  0
  3  1  1  0
  8  4  1  0
  8  5  1  0
  1  9  1  0
  1 10  1  0
  3 11  1  0
  4 12  1  0
  5 13  1  0
  6 14  1  0
  6 15  1  0
  8 16  1  0
M  END
