
     RDKit          3D

 17 19  0  0  0  0  0  0  0  0999 V2000
    1.6392    0.4348    0.5305 C   0  0  0  0  0  0  0  0  0  0  0  0
    0.9208   -0.5251    1.1685 O   0  0  0  0  0  0  0  0  0  0  0  0
   -0.1288   -1.0678    0.5225 C   0  0  0  0  0  0  0  0  0  0  0  0
   -1.4197   -0.3037    0.8495 C   0  0  0  0  0  0  0  0  0  0  0  0
   -1.2321    0.4180   -0.4657 C   0  0  0  0  0  0  0  0  0  0  0  0
   -0.3593    1.4706   -0.3469 O   0  0  0  0  0  0  0  0  0  0  0  0
    0.9079    1.0299   -0.6809 C   0  0  0  0  0  0  0  0  0  0  0  0
    0.6985   -0.0821   -1.5269 O   0  0  0  0  0  0  0  0  0  0  0  0
   -0.3296   -0.7179   -0.8969 C   0  0  0  0  0  0  0  0  0  0  0  0
    2.5786   -0.0098    0.0866 H   0  0  0  0  0  0  0  0  0  0  0  0
    1.9924    1.2585    1.1764 H   0  0  0  0  0  0  0  0  0  0  0  0
   -0.2923   -2.1741    0.6791 H   0  0  0  0  0  0  0  0  0  0  0  0
   -1.3293    0.3633    1.7328 H   0  0  0  0  0  0  0  0  0  0  0  0
   -2.3072   -0.9263    0.9457 H   0  0  0  0  0  0  0  0  0  0  0  0
   -2.1024    0.5252   -1.1011 H   0  0  0  0  0  0  0  0  0  0  0  0
    1.5566    1.7819   -1.1250 H   0  0  0  0  0  0  0  0  0  0  0  0
   -0.7935   -1.4753   -1.5482 H   0  0  0  0  0  0  0  0  0  0  0  0
  1  2  1  0
  2  3  1  0
  3  4  1  0
  4  5  1  0
  5  6  1  0
  6  7  1  0
  7  8  1  0
  8  9  1  0
  7  1  1  0
  9  3  1  0
  9  5  1  0
  1 10  1  0
  1 11  1  0
  3 12  1  0
  4 13  1  0
  4 14  1  0
  5 15  1  0
  7 16  1  0
  9 17  1  0
M  END
