
     RDKit          3D

 15 16  0  0  0  0  0  0  0  0999 V2000
    2.1221   -0.3440    0.3189 C   0  0  0  0  0  0  0  0  0  0  0  0
    2.2384    0.8784   -0.3864 O   0  0  0  0  0  0  0  0  0  0  0  0
    1.2228   -0.1409   -0.7656 C   0  0  0  0  0  0  0  0  0  0  0  0
   -0.1291    0.4662   -0.6744 C   0  0  0  0  0  0  0  0  0  0  0  0
   -1.0077   -0.3487    0.2542 C   0  0  0  0  0  0  0  0  0  0  0  0
   -2.3387    0.0177    0.5105 C   0  0  0  0  0  0  0  0  0  0  0  0
   -1.2838    0.4317    1.4903 O   0  0  0  0  0  0  0  0  0  0  0  0
    1.8428   -0.2642    1.3844 H   0  0  0  0  0  0  0  0  0  0  0  0
    3.0188   -0.9752    0.1544 H   0  0  0  0  0  0  0  0  0  0  0  0
    1.5076   -0.5532   -1.7638 H   0  0  0  0  0  0  0  0  0  0  0  0
   -0.1387    1.5305   -0.4381 H   0  0  0  0  0  0  0  0  0  0  0  0
   -0.6055    0.3914   -1.6953 H   0  0  0  0  0  0  0  0  0  0  0  0
   -0.6188   -1.3554    0.5302 H   0  0  0  0  0  0  0  0  0  0  0  0
   -2.7995    0.8967    0.0217 H   0  0  0  0  0  0  0  0  0  0  0  0
   -3.0307   -0.6311    1.0591 H   0  0  0  0  0  0  0  0  0  0  0  0
  1  2  1  0
  2  3  1  0
  3  4  1  0
  4  5  1  0
  5  6  1  0
  6  7  1  0
  3  1  1  0
  7  5  1  0
  1  8  1  0
  1  9  1  0
  3 10  1  0
  4 11  1  0
  4 12  1  0
  5 13  1  0
  6 14  1  0
  6 15  1  0
M  END
