
     RDKit          3D

 19 21  0  0  0  0  0  0  0  0999 V2000
    1.3836    0.7900   -0.8533 C   0  0  0  0  0  0  0  0  0  0  0  0
    1.0733   -0.4627   -1.3847 O   0  0  0  0  0  0  0  0  0  0  0  0
    0.2806   -1.1029   -0.4034 C   0  0  0  0  0  0  0  0  0  0  0  0
    1.1880   -1.2487    0.8044 C   0  0  0  0  0  0  0  0  0  0  0  0
    1.2797    0.0298    1.3597 O   0  0  0  0  0  0  0  0  0  0  0  0
    0.6544    0.8958    0.4729 C   0  0  0  0  0  0  0  0  0  0  0  0
   -0.5553    0.0601    0.0630 C   0  0  0  0  0  0  0  0  0  0  0  0
   -1.7879   -0.0036    0.7599 C   0  0  0  0  0  0  0  0  0  0  0  0
   -1.6761    0.6097   -0.6759 C   0  0  0  0  0  0  0  0  0  0  0  0
    0.8717    1.5327   -1.5336 H   0  0  0  0  0  0  0  0  0  0  0  0
    2.4546    0.9738   -0.7704 H   0  0  0  0  0  0  0  0  0  0  0  0
   -0.2270   -1.9723   -0.7292 H   0  0  0  0  0  0  0  0  0  0  0  0
    0.7835   -1.9823    1.5341 H   0  0  0  0  0  0  0  0  0  0  0  0
    2.1764   -1.5679    0.4198 H   0  0  0  0  0  0  0  0  0  0  0  0
    0.4416    1.8697    0.8216 H   0  0  0  0  0  0  0  0  0  0  0  0
   -2.0605    0.7353    1.5395 H   0  0  0  0  0  0  0  0  0  0  0  0
   -2.3851   -0.9196    0.7895 H   0  0  0  0  0  0  0  0  0  0  0  0
   -2.1289    0.0440   -1.4886 H   0  0  0  0  0  0  0  0  0  0  0  0
   -1.7665    1.7191   -0.7253 H   0  0  0  0  0  0  0  0  0  0  0  0
  1  2  1  0
  2  3  1  0
  3  4  1  0
  4  5  1  0
  5  6  1  0
  6  7  1  0
  7  8  1  0
  8  9  1  0
  6  1  1  0
  9  7  1  0
  7  3  1  0
  1 10  1  0
  1 11  1  0
  3 12  1  0
  4 13  1  0
  4 14  1  0
  6 15  1  0
  8 16  1  0
  8 17  1  0
  9 18  1  0
  9 19  1  0
M  END
