
     RDKit          3D

 16 18  0  0  0  0  0  0  0  0999 V2000
   -1.4018    0.8202   -0.2018 C   0  0  0  0  0  0  0  0  0  0  0  0
   -0.3747    0.8146   -1.1762 O   0  0  0  0  0  0  0  0  0  0  0  0
    0.8038    0.8972   -0.4880 C   0  0  0  0  0  0  0  0  0  0  0  0
    1.8464   -0.1222   -0.4829 C   0  0  0  0  0  0  0  0  0  0  0  0
    0.7925   -0.1097    0.6231 C   0  0  0  0  0  0  0  0  0  0  0  0
   -0.2333   -1.1806    0.4736 C   0  0  0  0  0  0  0  0  0  0  0  0
   -1.3026   -1.1203    1.3816 O   0  0  0  0  0  0  0  0  0  0  0  0
   -1.6132   -0.6443    0.1363 C   0  0  0  0  0  0  0  0  0  0  0  0
   -2.2980    1.3245   -0.5455 H   0  0  0  0  0  0  0  0  0  0  0  0
   -1.0306    1.2987    0.7467 H   0  0  0  0  0  0  0  0  0  0  0  0
    1.1048    1.9568   -0.2457 H   0  0  0  0  0  0  0  0  0  0  0  0
    1.8857   -0.9842   -1.1704 H   0  0  0  0  0  0  0  0  0  0  0  0
    2.8453    0.1842   -0.1188 H   0  0  0  0  0  0  0  0  0  0  0  0
    1.0592    0.2971    1.6082 H   0  0  0  0  0  0  0  0  0  0  0  0
    0.0706   -2.1592    0.0651 H   0  0  0  0  0  0  0  0  0  0  0  0
   -2.1541   -1.2728   -0.6054 H   0  0  0  0  0  0  0  0  0  0  0  0
  1  2  1  0
  2  3  1  0
  3  4  1  0
  4  5  1  0
  5  6  1  0
  6  7  1  0
  7  8  1  0
  8  1  1  0
  5  3  1  0
  8  6  1  0
  1  9  1  0
  1 10  1  0
  3 11  1  0
  4 12  1  0
  4 13  1  0
  5 14  1  0
  6 15  1  0
  8 16  1  0
M  END
