
     RDKit          3D

 17 19  0  0  0  0  0  0  0  0999 V2000
   -1.3824   -1.5703   -0.3364 C   0  0  0  0  0  0  0  0  0  0  0  0
   -1.6379   -0.6004    0.5867 O   0  0  0  0  0  0  0  0  0  0  0  0
   -0.4893    0.1105    0.8384 C   0  0  0  0  0  0  0  0  0  0  0  0
   -0.6178    1.5664    0.4077 C   0  0  0  0  0  0  0  0  0  0  0  0
    0.5583    1.8909   -0.2446 O   0  0  0  0  0  0  0  0  0  0  0  0
    1.0614    0.7555   -0.8275 C   0  0  0  0  0  0  0  0  0  0  0  0
    1.9119   -0.1968    0.0248 C   0  0  0  0  0  0  0  0  0  0  0  0
    0.4950   -0.4195   -0.1455 C   0  0  0  0  0  0  0  0  0  0  0  0
   -0.1089   -1.4187   -0.8257 O   0  0  0  0  0  0  0  0  0  0  0  0
   -2.1730   -1.5758   -1.1191 H   0  0  0  0  0  0  0  0  0  0  0  0
   -1.4261   -2.5733    0.1620 H   0  0  0  0  0  0  0  0  0  0  0  0
   -0.1137    0.0167    1.8676 H   0  0  0  0  0  0  0  0  0  0  0  0
   -0.7254    2.2076    1.3054 H   0  0  0  0  0  0  0  0  0  0  0  0
   -1.5068    1.6036   -0.2613 H   0  0  0  0  0  0  0  0  0  0  0  0
    1.2318    0.6830   -1.9146 H   0  0  0  0  0  0  0  0  0  0  0  0
    2.6856   -0.7631   -0.5078 H   0  0  0  0  0  0  0  0  0  0  0  0
    2.2371    0.2837    0.9899 H   0  0  0  0  0  0  0  0  0  0  0  0
  1  2  1  0
  2  3  1  0
  3  4  1  0
  4  5  1  0
  5  6  1  0
  6  7  1  0
  7  8  1  0
  8  9  1  0
  9  1  1  0
  8  3  1  0
  8  6  1  0
  1 10  1  0
  1 11  1  0
  3 12  1  0
  4 13  1  0
  4 14  1  0
  6 15  1  0
  7 16  1  0
  7 17  1  0
M  END
