
     RDKit          3D

 17 19  0  0  0  0  0  0  0  0999 V2000
   -0.5881   -1.4590    0.0642 C   0  0  0  0  0  0  0  0  0  0  0  0
   -1.7875   -0.8430   -0.1098 O   0  0  0  0  0  0  0  0  0  0  0  0
   -1.7816    0.5218   -0.1046 C   0  0  0  0  0  0  0  0  0  0  0  0
   -0.4918    1.1452    0.3469 C   0  0  0  0  0  0  0  0  0  0  0  0
    0.2469    1.7065   -0.7847 O   0  0  0  0  0  0  0  0  0  0  0  0
    0.6457    0.5994   -0.1424 C   0  0  0  0  0  0  0  0  0  0  0  0
    1.9913    0.3266    0.3756 C   0  0  0  0  0  0  0  0  0  0  0  0
    1.7887   -1.0293    0.0188 O   0  0  0  0  0  0  0  0  0  0  0  0
    0.5656   -0.7900   -0.6568 C   0  0  0  0  0  0  0  0  0  0  0  0
   -0.3296   -1.5376    1.1598 H   0  0  0  0  0  0  0  0  0  0  0  0
   -0.6690   -2.5056   -0.2937 H   0  0  0  0  0  0  0  0  0  0  0  0
   -2.6273    0.8959    0.5453 H   0  0  0  0  0  0  0  0  0  0  0  0
   -2.0816    0.8584   -1.1402 H   0  0  0  0  0  0  0  0  0  0  0  0
   -0.5455    1.8299    1.2285 H   0  0  0  0  0  0  0  0  0  0  0  0
    2.1750    0.4926    1.4355 H   0  0  0  0  0  0  0  0  0  0  0  0
    2.8498    0.7545   -0.2185 H   0  0  0  0  0  0  0  0  0  0  0  0
    0.6391   -0.9663   -1.7239 H   0  0  0  0  0  0  0  0  0  0  0  0
  1  2  1  0
  2  3  1  0
  3  4  1  0
  4  5  1  0
  5  6  1  0
  6  7  1  0
  7  8  1  0
  8  9  1  0
  9  1  1  0
  6  4  1  0
  9  6  1  0
  1 10  1  0
  1 11  1  0
  3 12  1  0
  3 13  1  0
  4 14  1  0
  7 15  1  0
  7 16  1  0
  9 17  1  0
M  END
