
     RDKit          3D

 11 12  0  0  0  0  0  0  0  0999 V2000
    1.3321   -0.2600   -0.0208 C   0  0  0  0  0  0  0  0  0  0  0  0
    0.9743    1.0684   -0.3413 O   0  0  0  0  0  0  0  0  0  0  0  0
   -0.3643    0.9494   -0.0302 C   0  0  0  0  0  0  0  0  0  0  0  0
   -1.1488   -0.2406   -0.4919 C   0  0  0  0  0  0  0  0  0  0  0  0
   -0.0724   -0.4316    0.5096 C   0  0  0  0  0  0  0  0  0  0  0  0
    2.1087   -0.3628    0.7364 H   0  0  0  0  0  0  0  0  0  0  0  0
    1.4443   -0.9123   -0.9315 H   0  0  0  0  0  0  0  0  0  0  0  0
   -0.8243    1.7026    0.6326 H   0  0  0  0  0  0  0  0  0  0  0  0
   -1.0160   -0.6411   -1.5184 H   0  0  0  0  0  0  0  0  0  0  0  0
   -2.1721   -0.3194   -0.1202 H   0  0  0  0  0  0  0  0  0  0  0  0
   -0.2616   -0.5526    1.5757 H   0  0  0  0  0  0  0  0  0  0  0  0
  1  2  1  0
  2  3  1  0
  3  4  1  0
  4  5  1  0
  5  1  1  0
  5  3  1  0
  1  6  1  0
  1  7  1  0
  3  8  1  0
  4  9  1  0
  4 10  1  0
  5 11  1  0
M  END
