
     RDKit          3D

 19 21  0  0  0  0  0  0  0  0999 V2000
    2.2044    0.0236    0.1511 C   0  0  0  0  0  0  0  0  0  0  0  0
    1.5239    0.8853   -0.6274 O   0  0  0  0  0  0  0  0  0  0  0  0
    0.2412    1.1577   -0.2993 C   0  0  0  0  0  0  0  0  0  0  0  0
   -0.6540    0.1075    0.1510 C   0  0  0  0  0  0  0  0  0  0  0  0
   -1.9916   -0.3229    0.5359 C   0  0  0  0  0  0  0  0  0  0  0  0
   -1.8507    0.9460    0.2839 C   0  0  0  0  0  0  0  0  0  0  0  0
    0.0071   -1.1484    0.1126 C   0  0  0  0  0  0  0  0  0  0  0  0
    0.6580   -1.4387   -1.2014 O   0  0  0  0  0  0  0  0  0  0  0  0
    1.4274   -1.2520   -0.0183 C   0  0  0  0  0  0  0  0  0  0  0  0
    3.2355   -0.0935   -0.2197 H   0  0  0  0  0  0  0  0  0  0  0  0
    2.2613    0.2673    1.2200 H   0  0  0  0  0  0  0  0  0  0  0  0
    0.3733    1.9862    0.4753 H   0  0  0  0  0  0  0  0  0  0  0  0
   -0.0711    1.7518   -1.2233 H   0  0  0  0  0  0  0  0  0  0  0  0
   -2.6320   -0.9906   -0.1316 H   0  0  0  0  0  0  0  0  0  0  0  0
   -2.1315   -0.7226    1.5935 H   0  0  0  0  0  0  0  0  0  0  0  0
   -2.3604    1.4398   -0.6071 H   0  0  0  0  0  0  0  0  0  0  0  0
   -1.8971    1.7071    1.1312 H   0  0  0  0  0  0  0  0  0  0  0  0
   -0.3806   -2.1833    0.4231 H   0  0  0  0  0  0  0  0  0  0  0  0
    2.0367   -2.1205    0.2024 H   0  0  0  0  0  0  0  0  0  0  0  0
  1  2  1  0
  2  3  1  0
  3  4  1  0
  4  5  1  0
  5  6  1  0
  4  7  1  0
  7  8  1  0
  8  9  1  0
  9  1  1  0
  6  4  1  0
  9  7  1  0
  1 10  1  0
  1 11  1  0
  3 12  1  0
  3 13  1  0
  5 14  1  0
  5 15  1  0
  6 16  1  0
  6 17  1  0
  7 18  1  0
  9 19  1  0
M  END
