
     RDKit          3D

 17 20  0  0  0  0  0  0  0  0999 V2000
    1.9272   -0.0442    0.0888 C   0  0  0  0  0  0  0  0  0  0  0  0
    1.5443    1.2596   -0.3212 O   0  0  0  0  0  0  0  0  0  0  0  0
    0.1853    1.1597   -0.4424 C   0  0  0  0  0  0  0  0  0  0  0  0
   -0.1202   -0.2199   -1.0076 C   0  0  0  0  0  0  0  0  0  0  0  0
    0.5846   -0.6627    0.2739 C   0  0  0  0  0  0  0  0  0  0  0  0
   -0.1958    0.4956    0.8852 C   0  0  0  0  0  0  0  0  0  0  0  0
   -1.6012    0.0239    0.7469 C   0  0  0  0  0  0  0  0  0  0  0  0
   -2.4168    0.4560   -0.2771 O   0  0  0  0  0  0  0  0  0  0  0  0
   -1.5497   -0.5219   -0.6940 C   0  0  0  0  0  0  0  0  0  0  0  0
    2.4540   -0.4896   -0.7690 H   0  0  0  0  0  0  0  0  0  0  0  0
    2.4741   -0.0364    1.0266 H   0  0  0  0  0  0  0  0  0  0  0  0
   -0.4075    1.9798   -0.7664 H   0  0  0  0  0  0  0  0  0  0  0  0
    0.3101   -0.4970   -1.9364 H   0  0  0  0  0  0  0  0  0  0  0  0
    0.4420   -1.6366    0.6331 H   0  0  0  0  0  0  0  0  0  0  0  0
    0.1633    0.9315    1.7802 H   0  0  0  0  0  0  0  0  0  0  0  0
   -1.9620   -0.6262    1.5376 H   0  0  0  0  0  0  0  0  0  0  0  0
   -1.8316   -1.5717   -0.7581 H   0  0  0  0  0  0  0  0  0  0  0  0
  1  2  1  0
  2  3  1  0
  3  4  1  0
  4  5  1  0
  5  6  1  0
  6  7  1  0
  7  8  1  0
  8  9  1  0
  5  1  1  0
  9  7  1  0
  6  3  1  0
  9  4  1  0
  1 10  1  0
  1 11  1  0
  3 12  1  0
  4 13  1  0
  5 14  1  0
  6 15  1  0
  7 16  1  0
  9 17  1  0
M  END
