
     RDKit          3D

 17 19  0  0  0  0  0  0  0  0999 V2000
    2.2762    0.2593    0.1470 C   0  0  0  0  0  0  0  0  0  0  0  0
    1.3551    1.1661   -0.4233 O   0  0  0  0  0  0  0  0  0  0  0  0
    0.3129    0.3404   -0.7608 C   0  0  0  0  0  0  0  0  0  0  0  0
   -1.0429    0.9064   -0.4164 C   0  0  0  0  0  0  0  0  0  0  0  0
   -1.8762   -0.3184   -0.1798 C   0  0  0  0  0  0  0  0  0  0  0  0
   -0.9602   -0.3816    0.9945 C   0  0  0  0  0  0  0  0  0  0  0  0
   -0.9559    1.0255    0.9824 O   0  0  0  0  0  0  0  0  0  0  0  0
    0.3737   -0.7152    0.3640 C   0  0  0  0  0  0  0  0  0  0  0  0
    1.4513   -0.3324    1.1305 O   0  0  0  0  0  0  0  0  0  0  0  0
    2.4543   -0.5080   -0.6055 H   0  0  0  0  0  0  0  0  0  0  0  0
    3.1483    0.7479    0.5654 H   0  0  0  0  0  0  0  0  0  0  0  0
    0.3740   -0.1148   -1.7451 H   0  0  0  0  0  0  0  0  0  0  0  0
   -1.4312    1.7229   -0.9715 H   0  0  0  0  0  0  0  0  0  0  0  0
   -2.9441   -0.1073    0.0367 H   0  0  0  0  0  0  0  0  0  0  0  0
   -1.7057   -1.0858   -0.9724 H   0  0  0  0  0  0  0  0  0  0  0  0
   -1.2502   -0.8761    1.8903 H   0  0  0  0  0  0  0  0  0  0  0  0
    0.4208   -1.7287   -0.0359 H   0  0  0  0  0  0  0  0  0  0  0  0
  1  2  1  0
  2  3  1  0
  3  4  1  0
  4  5  1  0
  5  6  1  0
  6  7  1  0
  6  8  1  0
  8  9  1  0
  9  1  1  0
  8  3  1  0
  7  4  1  0
  1 10  1  0
  1 11  1  0
  3 12  1  0
  4 13  1  0
  5 14  1  0
  5 15  1  0
  6 16  1  0
  8 17  1  0
M  END
