
     RDKit          3D

 19 20  0  0  0  0  0  0  0  0999 V2000
    0.0852   -1.4381   -0.5466 C   0  0  0  0  0  0  0  0  0  0  0  0
    1.3376   -0.9178   -0.7258 O   0  0  0  0  0  0  0  0  0  0  0  0
    1.7425   -0.0880    0.3084 C   0  0  0  0  0  0  0  0  0  0  0  0
    0.8693    1.1363    0.3495 C   0  0  0  0  0  0  0  0  0  0  0  0
   -0.1292    1.0788    1.2940 O   0  0  0  0  0  0  0  0  0  0  0  0
   -1.0086    0.0469    1.1578 C   0  0  0  0  0  0  0  0  0  0  0  0
   -0.9838   -0.4192   -0.2808 C   0  0  0  0  0  0  0  0  0  0  0  0
   -0.8356    0.8239   -1.1383 C   0  0  0  0  0  0  0  0  0  0  0  0
    0.4137    1.3985   -0.9354 O   0  0  0  0  0  0  0  0  0  0  0  0
   -0.1932   -1.9790   -1.4848 H   0  0  0  0  0  0  0  0  0  0  0  0
    0.0198   -2.1998    0.2603 H   0  0  0  0  0  0  0  0  0  0  0  0
    1.8158   -0.6115    1.2809 H   0  0  0  0  0  0  0  0  0  0  0  0
    2.7902    0.2342    0.0530 H   0  0  0  0  0  0  0  0  0  0  0  0
    1.5233    2.0087    0.6263 H   0  0  0  0  0  0  0  0  0  0  0  0
   -0.7838   -0.7735    1.8417 H   0  0  0  0  0  0  0  0  0  0  0  0
   -2.0546    0.4027    1.3663 H   0  0  0  0  0  0  0  0  0  0  0  0
   -1.9591   -0.8978   -0.5056 H   0  0  0  0  0  0  0  0  0  0  0  0
   -1.6039    1.5435   -0.7249 H   0  0  0  0  0  0  0  0  0  0  0  0
   -1.0457    0.6514   -2.1961 H   0  0  0  0  0  0  0  0  0  0  0  0
  1  2  1  0
  2  3  1  0
  3  4  1  0
  4  5  1  0
  5  6  1  0
  6  7  1  0
  7  8  1  0
  8  9  1  0
  7  1  1  0
  9  4  1  0
  1 10  1  0
  1 11  1  0
  3 12  1  0
  3 13  1  0
  4 14  1  0
  6 15  1  0
  6 16  1  0
  7 17  1  0
  8 18  1  0
  8 19  1  0
M  END
