
     RDKit          3D

 19 21  0  0  0  0  0  0  0  0999 V2000
   -1.8775    0.9258   -0.5738 C   0  0  0  0  0  0  0  0  0  0  0  0
   -2.1963    0.9213    0.8010 O   0  0  0  0  0  0  0  0  0  0  0  0
   -2.1796   -0.4890    0.7058 C   0  0  0  0  0  0  0  0  0  0  0  0
   -1.0542   -0.3004   -0.3238 C   0  0  0  0  0  0  0  0  0  0  0  0
    0.2370   -0.0839    0.4001 C   0  0  0  0  0  0  0  0  0  0  0  0
    0.9256   -1.2765    0.5833 O   0  0  0  0  0  0  0  0  0  0  0  0
    2.0468   -0.9254   -0.1476 C   0  0  0  0  0  0  0  0  0  0  0  0
    2.7262    0.3366    0.2751 C   0  0  0  0  0  0  0  0  0  0  0  0
    1.3892    0.4272   -0.3963 C   0  0  0  0  0  0  0  0  0  0  0  0
   -1.3659    1.8132   -0.9353 H   0  0  0  0  0  0  0  0  0  0  0  0
   -2.8128    0.6307   -1.1290 H   0  0  0  0  0  0  0  0  0  0  0  0
   -1.8277   -1.0101    1.5956 H   0  0  0  0  0  0  0  0  0  0  0  0
   -3.0778   -0.8657    0.2079 H   0  0  0  0  0  0  0  0  0  0  0  0
   -1.0662   -1.0812   -1.0808 H   0  0  0  0  0  0  0  0  0  0  0  0
    0.1384    0.4381    1.3631 H   0  0  0  0  0  0  0  0  0  0  0  0
    2.3929   -1.5136   -0.9953 H   0  0  0  0  0  0  0  0  0  0  0  0
    3.5695    0.7450   -0.3142 H   0  0  0  0  0  0  0  0  0  0  0  0
    2.7525    0.5193    1.3817 H   0  0  0  0  0  0  0  0  0  0  0  0
    1.2798    0.7884   -1.4177 H   0  0  0  0  0  0  0  0  0  0  0  0
  1  2  1  0
  2  3  1  0
  3  4  1  0
  4  5  1  0
  5  6  1  0
  6  7  1  0
  7  8  1  0
  8  9  1  0
  4  1  1  0
  9  5  1  0
  9  7  1  0
  1 10  1  0
  1 11  1  0
  3 12  1  0
  3 13  1  0
  4 14  1  0
  5 15  1  0
  7 16  1  0
  8 17  1  0
  8 18  1  0
  9 19  1  0
M  END
