
     RDKit          3D

 16 18  0  0  0  0  0  0  0  0999 V2000
    1.4821    0.2853   -0.2525 C   0  0  0  0  0  0  0  0  0  0  0  0
    1.2666   -0.9859   -0.7212 O   0  0  0  0  0  0  0  0  0  0  0  0
    0.1520   -1.5176   -0.1345 C   0  0  0  0  0  0  0  0  0  0  0  0
   -1.1937   -0.8998   -0.2534 C   0  0  0  0  0  0  0  0  0  0  0  0
   -1.4183    0.2460   -0.9695 O   0  0  0  0  0  0  0  0  0  0  0  0
   -0.7330    1.2897   -0.4031 C   0  0  0  0  0  0  0  0  0  0  0  0
    0.2923    0.7163    0.5437 C   0  0  0  0  0  0  0  0  0  0  0  0
   -0.3430   -0.6012    0.9111 C   0  0  0  0  0  0  0  0  0  0  0  0
    1.5766    0.9527   -1.1577 H   0  0  0  0  0  0  0  0  0  0  0  0
    2.4462    0.4014    0.3015 H   0  0  0  0  0  0  0  0  0  0  0  0
    0.1817   -2.6097    0.0900 H   0  0  0  0  0  0  0  0  0  0  0  0
   -2.0742   -1.5792   -0.1935 H   0  0  0  0  0  0  0  0  0  0  0  0
   -1.3585    2.0220    0.1249 H   0  0  0  0  0  0  0  0  0  0  0  0
   -0.2175    1.8372   -1.2378 H   0  0  0  0  0  0  0  0  0  0  0  0
    0.4975    1.3207    1.4188 H   0  0  0  0  0  0  0  0  0  0  0  0
   -0.5569   -0.8778    1.9332 H   0  0  0  0  0  0  0  0  0  0  0  0
  1  2  1  0
  2  3  1  0
  3  4  1  0
  4  5  1  0
  5  6  1  0
  6  7  1  0
  7  8  1  0
  7  1  1  0
  8  3  1  0
  8  4  1  0
  1  9  1  0
  1 10  1  0
  3 11  1  0
  4 12  1  0
  6 13  1  0
  6 14  1  0
  7 15  1  0
  8 16  1  0
M  END
