
     RDKit          3D

 15 16  0  0  0  0  0  0  0  0999 V2000
   -1.0964   -0.2293   -0.9465 C   0  0  0  0  0  0  0  0  0  0  0  0
   -2.0030   -0.1244    0.1321 O   0  0  0  0  0  0  0  0  0  0  0  0
   -0.9770   -0.0669    1.1040 C   0  0  0  0  0  0  0  0  0  0  0  0
    0.0031   -0.0226    0.0136 C   0  0  0  0  0  0  0  0  0  0  0  0
    1.1921   -0.8586   -0.0133 C   0  0  0  0  0  0  0  0  0  0  0  0
    1.9865    0.3072    0.0253 O   0  0  0  0  0  0  0  0  0  0  0  0
    0.8775    1.1714   -0.1334 C   0  0  0  0  0  0  0  0  0  0  0  0
   -1.2502    0.5062   -1.7478 H   0  0  0  0  0  0  0  0  0  0  0  0
   -1.1287   -1.3057   -1.2828 H   0  0  0  0  0  0  0  0  0  0  0  0
   -0.9700   -0.8967    1.8151 H   0  0  0  0  0  0  0  0  0  0  0  0
   -1.0292    0.9292    1.6347 H   0  0  0  0  0  0  0  0  0  0  0  0
    1.3537   -1.3304   -1.0225 H   0  0  0  0  0  0  0  0  0  0  0  0
    1.3944   -1.5930    0.7587 H   0  0  0  0  0  0  0  0  0  0  0  0
    0.8242    1.6796   -1.0996 H   0  0  0  0  0  0  0  0  0  0  0  0
    0.8230    1.8341    0.7624 H   0  0  0  0  0  0  0  0  0  0  0  0
  1  2  1  0
  2  3  1  0
  3  4  1  0
  4  5  1  0
  5  6  1  0
  6  7  1  0
  4  1  1  0
  7  4  1  0
  1  8  1  0
  1  9  1  0
  3 10  1  0
  3 11  1  0
  5 12  1  0
  5 13  1  0
  7 14  1  0
  7 15  1  0
M  END
