
     RDKit          3D

 19 20  0  0  0  0  0  0  0  0999 V2000
    1.9667    0.5956    0.7961 C   0  0  0  0  0  0  0  0  0  0  0  0
    1.9745   -0.7901    0.5317 O   0  0  0  0  0  0  0  0  0  0  0  0
    1.4508   -0.7781   -0.7815 C   0  0  0  0  0  0  0  0  0  0  0  0
    0.3645    0.2636   -0.6370 C   0  0  0  0  0  0  0  0  0  0  0  0
   -0.9875   -0.3866   -0.4811 C   0  0  0  0  0  0  0  0  0  0  0  0
   -2.0919    0.6386   -0.3342 C   0  0  0  0  0  0  0  0  0  0  0  0
   -2.7103   -0.2777    0.5458 O   0  0  0  0  0  0  0  0  0  0  0  0
   -1.3999   -0.5880    0.9808 C   0  0  0  0  0  0  0  0  0  0  0  0
    0.6446    0.9536    0.5439 O   0  0  0  0  0  0  0  0  0  0  0  0
    2.6766    1.1104    0.0997 H   0  0  0  0  0  0  0  0  0  0  0  0
    2.2452    0.7569    1.8578 H   0  0  0  0  0  0  0  0  0  0  0  0
    1.0417   -1.7733   -1.0475 H   0  0  0  0  0  0  0  0  0  0  0  0
    2.2676   -0.4392   -1.4310 H   0  0  0  0  0  0  0  0  0  0  0  0
    0.4020    0.9180   -1.5196 H   0  0  0  0  0  0  0  0  0  0  0  0
   -1.2055   -1.2377   -1.1241 H   0  0  0  0  0  0  0  0  0  0  0  0
   -1.6839    1.5075    0.2506 H   0  0  0  0  0  0  0  0  0  0  0  0
   -2.6593    0.8791   -1.2280 H   0  0  0  0  0  0  0  0  0  0  0  0
   -1.2678   -1.5990    1.3634 H   0  0  0  0  0  0  0  0  0  0  0  0
   -1.0281    0.2465    1.6143 H   0  0  0  0  0  0  0  0  0  0  0  0
  1  2  1  0
  2  3  1  0
  3  4  1  0
  4  5  1  0
  5  6  1  0
  6  7  1  0
  7  8  1  0
  4  9  1  0
  9  1  1  0
  8  5  1  0
  1 10  1  0
  1 11  1  0
  3 12  1  0
  3 13  1  0
  4 14  1  0
  5 15  1  0
  6 16  1  0
  6 17  1  0
  8 18  1  0
  8 19  1  0
M  END
