
     RDKit          3D

 19 22  0  0  0  0  0  0  0  0999 V2000
   -1.6708   -0.6288   -0.4461 C   0  0  0  0  0  0  0  0  0  0  0  0
   -1.7699    0.6823   -0.7957 O   0  0  0  0  0  0  0  0  0  0  0  0
   -0.8609    1.5008   -0.2089 C   0  0  0  0  0  0  0  0  0  0  0  0
   -0.0274    1.0423    0.8540 C   0  0  0  0  0  0  0  0  0  0  0  0
    0.2402   -0.3972    1.0441 C   0  0  0  0  0  0  0  0  0  0  0  0
    1.5923   -0.7323    0.3764 C   0  0  0  0  0  0  0  0  0  0  0  0
    0.7949   -0.2719   -0.8684 C   0  0  0  0  0  0  0  0  0  0  0  0
   -0.2982   -1.0725   -0.2295 C   0  0  0  0  0  0  0  0  0  0  0  0
    0.5020    1.1891   -0.6214 C   0  0  0  0  0  0  0  0  0  0  0  0
   -2.1777   -1.3026   -1.1689 H   0  0  0  0  0  0  0  0  0  0  0  0
   -2.2518   -0.7596    0.5150 H   0  0  0  0  0  0  0  0  0  0  0  0
   -1.1359    2.5740   -0.2172 H   0  0  0  0  0  0  0  0  0  0  0  0
    0.3833    1.7481    1.5811 H   0  0  0  0  0  0  0  0  0  0  0  0
    0.0371   -0.8926    1.9693 H   0  0  0  0  0  0  0  0  0  0  0  0
    2.4031   -0.0571    0.6514 H   0  0  0  0  0  0  0  0  0  0  0  0
    1.7940   -1.8094    0.3555 H   0  0  0  0  0  0  0  0  0  0  0  0
    1.1936   -0.5698   -1.8132 H   0  0  0  0  0  0  0  0  0  0  0  0
   -0.0675   -2.1387   -0.2602 H   0  0  0  0  0  0  0  0  0  0  0  0
    1.3198    1.8961   -0.7171 H   0  0  0  0  0  0  0  0  0  0  0  0
  1  2  1  0
  2  3  1  0
  3  4  1  0
  4  5  1  0
  5  6  1  0
  6  7  1  0
  7  8  1  0
  7  9  1  0
  8  1  1  0
  9  3  1  0
  9  4  1  0
  8  5  1  0
  1 10  1  0
  1 11  1  0
  3 12  1  0
  4 13  1  0
  5 14  1  0
  6 15  1  0
  6 16  1  0
  7 17  1  0
  8 18  1  0
  9 19  1  0
M  END
