
     RDKit          3D

 19 21  0  0  0  0  0  0  0  0999 V2000
    1.4770    0.9854    0.7862 C   0  0  0  0  0  0  0  0  0  0  0  0
    2.3197    0.2886   -0.0966 O   0  0  0  0  0  0  0  0  0  0  0  0
    1.4682   -0.1560   -1.0969 C   0  0  0  0  0  0  0  0  0  0  0  0
    0.4390   -1.1318   -0.5324 C   0  0  0  0  0  0  0  0  0  0  0  0
   -0.5538   -0.1669    0.0818 C   0  0  0  0  0  0  0  0  0  0  0  0
   -1.5353   -0.5338    1.0649 C   0  0  0  0  0  0  0  0  0  0  0  0
   -1.9793   -0.1885   -0.3631 C   0  0  0  0  0  0  0  0  0  0  0  0
    0.1850    1.1149    0.0025 C   0  0  0  0  0  0  0  0  0  0  0  0
    0.7051    1.0192   -1.3137 O   0  0  0  0  0  0  0  0  0  0  0  0
    1.9421    1.9702    0.9974 H   0  0  0  0  0  0  0  0  0  0  0  0
    1.3264    0.3813    1.7153 H   0  0  0  0  0  0  0  0  0  0  0  0
    1.9604   -0.5109   -1.9878 H   0  0  0  0  0  0  0  0  0  0  0  0
   -0.0357   -1.7314   -1.3048 H   0  0  0  0  0  0  0  0  0  0  0  0
    0.8859   -1.7058    0.3014 H   0  0  0  0  0  0  0  0  0  0  0  0
   -1.8766    0.2053    1.8104 H   0  0  0  0  0  0  0  0  0  0  0  0
   -1.6874   -1.6025    1.3302 H   0  0  0  0  0  0  0  0  0  0  0  0
   -2.2319   -1.0422   -1.0320 H   0  0  0  0  0  0  0  0  0  0  0  0
   -2.4442    0.7848   -0.5435 H   0  0  0  0  0  0  0  0  0  0  0  0
   -0.3645    2.0201    0.1809 H   0  0  0  0  0  0  0  0  0  0  0  0
  1  2  1  0
  2  3  1  0
  3  4  1  0
  4  5  1  0
  5  6  1  0
  6  7  1  0
  5  8  1  0
  8  9  1  0
  8  1  1  0
  9  3  1  0
  7  5  1  0
  1 10  1  0
  1 11  1  0
  3 12  1  0
  4 13  1  0
  4 14  1  0
  6 15  1  0
  6 16  1  0
  7 17  1  0
  7 18  1  0
  8 19  1  0
M  END
