
     RDKit          3D

 21 23  0  0  0  0  0  0  0  0999 V2000
   -1.4669   -0.9093    0.5231 C   0  0  0  0  0  0  0  0  0  0  0  0
   -1.1346    0.0896    1.4024 O   0  0  0  0  0  0  0  0  0  0  0  0
   -0.4496    1.0990    0.6821 C   0  0  0  0  0  0  0  0  0  0  0  0
   -1.0854    0.9386   -0.6776 C   0  0  0  0  0  0  0  0  0  0  0  0
   -0.7676   -0.5614   -0.8063 C   0  0  0  0  0  0  0  0  0  0  0  0
    0.6944   -0.8355   -0.6388 C   0  0  0  0  0  0  0  0  0  0  0  0
    1.1288   -0.7473    0.8330 C   0  0  0  0  0  0  0  0  0  0  0  0
    1.0176    0.7734    0.6195 C   0  0  0  0  0  0  0  0  0  0  0  0
    1.5057    0.4601   -0.7718 C   0  0  0  0  0  0  0  0  0  0  0  0
   -1.2952   -1.9263    0.8357 H   0  0  0  0  0  0  0  0  0  0  0  0
   -2.5616   -0.7971    0.2602 H   0  0  0  0  0  0  0  0  0  0  0  0
   -0.6745    2.0382    1.1769 H   0  0  0  0  0  0  0  0  0  0  0  0
   -2.1804    1.0344   -0.5327 H   0  0  0  0  0  0  0  0  0  0  0  0
   -0.7217    1.5482   -1.4649 H   0  0  0  0  0  0  0  0  0  0  0  0
   -1.2368   -1.0253   -1.6590 H   0  0  0  0  0  0  0  0  0  0  0  0
    1.1034   -1.6942   -1.1652 H   0  0  0  0  0  0  0  0  0  0  0  0
    2.1847   -1.0564    0.9229 H   0  0  0  0  0  0  0  0  0  0  0  0
    0.4253   -1.1240    1.5631 H   0  0  0  0  0  0  0  0  0  0  0  0
    1.6834    1.3702    1.2364 H   0  0  0  0  0  0  0  0  0  0  0  0
    2.5739    0.2103   -0.7569 H   0  0  0  0  0  0  0  0  0  0  0  0
    1.2570    1.1149   -1.5819 H   0  0  0  0  0  0  0  0  0  0  0  0
  1  2  1  0
  2  3  1  0
  3  4  1  0
  4  5  1  0
  5  6  1  0
  6  7  1  0
  7  8  1  0
  8  9  1  0
  5  1  1  0
  9  6  1  0
  8  3  1  0
  1 10  1  0
  1 11  1  0
  3 12  1  0
  4 13  1  0
  4 14  1  0
  5 15  1  0
  6 16  1  0
  7 17  1  0
  7 18  1  0
  8 19  1  0
  9 20  1  0
  9 21  1  0
M  END
