
     RDKit          3D

 19 21  0  0  0  0  0  0  0  0999 V2000
    1.7051    1.0739    0.4281 C   0  0  0  0  0  0  0  0  0  0  0  0
    1.9632   -0.1866   -0.1003 O   0  0  0  0  0  0  0  0  0  0  0  0
    1.0870   -1.1013    0.5308 C   0  0  0  0  0  0  0  0  0  0  0  0
   -0.0186   -1.3520   -0.4667 C   0  0  0  0  0  0  0  0  0  0  0  0
   -1.3854   -0.9025   -0.2760 C   0  0  0  0  0  0  0  0  0  0  0  0
   -1.7822    0.3614    0.3883 C   0  0  0  0  0  0  0  0  0  0  0  0
   -0.5328    1.0654   -0.1598 C   0  0  0  0  0  0  0  0  0  0  0  0
    0.3987    1.1509    0.8316 O   0  0  0  0  0  0  0  0  0  0  0  0
   -0.3736   -0.0637   -1.1100 C   0  0  0  0  0  0  0  0  0  0  0  0
    2.3383    1.1475    1.3563 H   0  0  0  0  0  0  0  0  0  0  0  0
    1.9968    1.8983   -0.2517 H   0  0  0  0  0  0  0  0  0  0  0  0
    0.7336   -0.7299    1.4996 H   0  0  0  0  0  0  0  0  0  0  0  0
    1.6927   -2.0387    0.6572 H   0  0  0  0  0  0  0  0  0  0  0  0
    0.1565   -2.1924   -1.1566 H   0  0  0  0  0  0  0  0  0  0  0  0
   -2.1833   -1.4160   -0.8347 H   0  0  0  0  0  0  0  0  0  0  0  0
   -1.8371    0.3489    1.4957 H   0  0  0  0  0  0  0  0  0  0  0  0
   -2.6786    0.8883   -0.0007 H   0  0  0  0  0  0  0  0  0  0  0  0
   -0.7315    2.0265   -0.6521 H   0  0  0  0  0  0  0  0  0  0  0  0
   -0.5489    0.0219   -2.1790 H   0  0  0  0  0  0  0  0  0  0  0  0
  1  2  1  0
  2  3  1  0
  3  4  1  0
  4  5  1  0
  5  6  1  0
  6  7  1  0
  7  8  1  0
  7  9  1  0
  8  1  1  0
  9  4  1  0
  9  5  1  0
  1 10  1  0
  1 11  1  0
  3 12  1  0
  3 13  1  0
  4 14  1  0
  5 15  1  0
  6 16  1  0
  6 17  1  0
  7 18  1  0
  9 19  1  0
M  END
