
     RDKit          3D

 19 21  0  0  0  0  0  0  0  0999 V2000
   -1.4379   -0.9279   -0.1782 C   0  0  0  0  0  0  0  0  0  0  0  0
   -0.7749   -0.4084   -1.2595 O   0  0  0  0  0  0  0  0  0  0  0  0
   -0.1121    0.7749   -0.8579 C   0  0  0  0  0  0  0  0  0  0  0  0
   -0.9728    1.1914    0.3617 C   0  0  0  0  0  0  0  0  0  0  0  0
   -0.9332   -0.1883    1.0545 C   0  0  0  0  0  0  0  0  0  0  0  0
    0.3790   -0.5364    1.4085 O   0  0  0  0  0  0  0  0  0  0  0  0
    1.0787   -0.8507    0.3074 C   0  0  0  0  0  0  0  0  0  0  0  0
    2.2258   -0.4160   -0.3820 C   0  0  0  0  0  0  0  0  0  0  0  0
    1.2324    0.5890   -0.3203 C   0  0  0  0  0  0  0  0  0  0  0  0
   -2.5088   -0.5685   -0.2750 H   0  0  0  0  0  0  0  0  0  0  0  0
   -1.5013   -1.9966   -0.0784 H   0  0  0  0  0  0  0  0  0  0  0  0
   -0.2146    1.5349   -1.6673 H   0  0  0  0  0  0  0  0  0  0  0  0
   -0.4676    1.9359    0.9711 H   0  0  0  0  0  0  0  0  0  0  0  0
   -1.9983    1.3859    0.0847 H   0  0  0  0  0  0  0  0  0  0  0  0
   -1.6276   -0.2277    1.8899 H   0  0  0  0  0  0  0  0  0  0  0  0
    0.4635   -1.5845   -0.3016 H   0  0  0  0  0  0  0  0  0  0  0  0
    2.4980   -0.8158   -1.3815 H   0  0  0  0  0  0  0  0  0  0  0  0
    3.1776   -0.3084    0.2107 H   0  0  0  0  0  0  0  0  0  0  0  0
    1.4942    1.4170    0.4131 H   0  0  0  0  0  0  0  0  0  0  0  0
  1  2  1  0
  2  3  1  0
  3  4  1  0
  4  5  1  0
  5  6  1  0
  6  7  1  0
  7  8  1  0
  8  9  1  0
  5  1  1  0
  9  7  1  0
  9  3  1  0
  1 10  1  0
  1 11  1  0
  3 12  1  0
  4 13  1  0
  4 14  1  0
  5 15  1  0
  7 16  1  0
  8 17  1  0
  8 18  1  0
  9 19  1  0
M  END
