
     RDKit          3D

 17 19  0  0  0  0  0  0  0  0999 V2000
    1.5734    0.0876    0.0110 C   0  0  0  0  0  0  0  0  0  0  0  0
    0.9435    1.3421    0.1477 O   0  0  0  0  0  0  0  0  0  0  0  0
   -0.4054    1.3069   -0.1025 C   0  0  0  0  0  0  0  0  0  0  0  0
   -1.1372    0.2740    0.7844 C   0  0  0  0  0  0  0  0  0  0  0  0
   -0.5649   -0.9253    0.1888 C   0  0  0  0  0  0  0  0  0  0  0  0
   -0.6396   -0.5837   -1.3030 C   0  0  0  0  0  0  0  0  0  0  0  0
   -0.6998    0.7840   -1.3816 O   0  0  0  0  0  0  0  0  0  0  0  0
    0.1314   -1.9538    0.5146 O   0  0  0  0  0  0  0  0  0  0  0  0
    0.8544   -0.9024    0.8244 C   0  0  0  0  0  0  0  0  0  0  0  0
    2.5921    0.2405    0.4791 H   0  0  0  0  0  0  0  0  0  0  0  0
    1.7709   -0.1730   -1.0319 H   0  0  0  0  0  0  0  0  0  0  0  0
   -0.8113    2.3037    0.0271 H   0  0  0  0  0  0  0  0  0  0  0  0
   -0.8367    0.5222    1.8122 H   0  0  0  0  0  0  0  0  0  0  0  0
   -2.2034    0.4617    0.6273 H   0  0  0  0  0  0  0  0  0  0  0  0
    0.1446   -1.0617   -1.8841 H   0  0  0  0  0  0  0  0  0  0  0  0
   -1.6110   -1.0480   -1.6452 H   0  0  0  0  0  0  0  0  0  0  0  0
    0.8991   -0.6746    1.9316 H   0  0  0  0  0  0  0  0  0  0  0  0
  1  2  1  0
  2  3  1  0
  3  4  1  0
  4  5  1  0
  5  6  1  0
  6  7  1  0
  5  8  1  0
  8  9  1  0
  9  1  1  0
  7  3  1  0
  9  5  1  0
  1 10  1  0
  1 11  1  0
  3 12  1  0
  4 13  1  0
  4 14  1  0
  6 15  1  0
  6 16  1  0
  9 17  1  0
M  END
