
     RDKit          3D

 18 19  0  0  0  0  0  0  0  0999 V2000
   -0.7980   -1.2755    0.2747 C   0  0  0  0  0  0  0  0  0  0  0  0
   -2.2114   -1.3323    0.1011 O   0  0  0  0  0  0  0  0  0  0  0  0
   -2.1186    0.0000   -0.3404 C   0  0  0  0  0  0  0  0  0  0  0  0
   -0.8584    0.1939    0.4824 C   0  0  0  0  0  0  0  0  0  0  0  0
    0.1336    1.1075   -0.0981 C   0  0  0  0  0  0  0  0  0  0  0  0
    1.5401    0.8870    0.3663 C   0  0  0  0  0  0  0  0  0  0  0  0
    2.1689   -0.4410    0.0734 C   0  0  0  0  0  0  0  0  0  0  0  0
    2.5983    0.7738   -0.4985 O   0  0  0  0  0  0  0  0  0  0  0  0
   -0.3727   -1.6622   -0.6742 H   0  0  0  0  0  0  0  0  0  0  0  0
   -0.5437   -1.8973    1.1525 H   0  0  0  0  0  0  0  0  0  0  0  0
   -1.9025    0.0192   -1.4247 H   0  0  0  0  0  0  0  0  0  0  0  0
   -2.9069    0.6795   -0.0061 H   0  0  0  0  0  0  0  0  0  0  0  0
   -1.0824    0.4072    1.5728 H   0  0  0  0  0  0  0  0  0  0  0  0
    0.1021    1.0371   -1.2163 H   0  0  0  0  0  0  0  0  0  0  0  0
   -0.1594    2.1695    0.1498 H   0  0  0  0  0  0  0  0  0  0  0  0
    1.7940    1.3402    1.3714 H   0  0  0  0  0  0  0  0  0  0  0  0
    2.7932   -0.8656    0.8925 H   0  0  0  0  0  0  0  0  0  0  0  0
    1.8236   -1.1411   -0.6830 H   0  0  0  0  0  0  0  0  0  0  0  0
  1  2  1  0
  2  3  1  0
  3  4  1  0
  4  5  1  0
  5  6  1  0
  6  7  1  0
  7  8  1  0
  4  1  1  0
  8  6  1  0
  1  9  1  0
  1 10  1  0
  3 11  1  0
  3 12  1  0
  4 13  1  0
  5 14  1  0
  5 15  1  0
  6 16  1  0
  7 17  1  0
  7 18  1  0
M  END
