
     RDKit          3D

 19 21  0  0  0  0  0  0  0  0999 V2000
   -0.9769   -1.3869   -0.1143 C   0  0  0  0  0  0  0  0  0  0  0  0
    0.2599   -1.5792   -0.4973 O   0  0  0  0  0  0  0  0  0  0  0  0
    1.1664   -0.6916   -0.8059 C   0  0  0  0  0  0  0  0  0  0  0  0
    1.9067   -0.0715    0.4271 C   0  0  0  0  0  0  0  0  0  0  0  0
    1.0993    0.7128   -0.5261 C   0  0  0  0  0  0  0  0  0  0  0  0
   -0.2118    1.3222   -0.1992 C   0  0  0  0  0  0  0  0  0  0  0  0
   -0.9306    0.7791    0.9669 C   0  0  0  0  0  0  0  0  0  0  0  0
   -1.5776   -0.0325   -0.1540 C   0  0  0  0  0  0  0  0  0  0  0  0
   -1.1347    0.8071   -1.1210 O   0  0  0  0  0  0  0  0  0  0  0  0
   -1.1131   -1.7583    0.9487 H   0  0  0  0  0  0  0  0  0  0  0  0
   -1.6720   -2.0665   -0.6972 H   0  0  0  0  0  0  0  0  0  0  0  0
    1.8955   -1.0273   -1.6105 H   0  0  0  0  0  0  0  0  0  0  0  0
    3.0229   -0.0461    0.3638 H   0  0  0  0  0  0  0  0  0  0  0  0
    1.5522   -0.3522    1.4193 H   0  0  0  0  0  0  0  0  0  0  0  0
    1.7204    1.3975   -1.1826 H   0  0  0  0  0  0  0  0  0  0  0  0
   -0.2476    2.4185   -0.2340 H   0  0  0  0  0  0  0  0  0  0  0  0
   -1.6795    1.4722    1.3851 H   0  0  0  0  0  0  0  0  0  0  0  0
   -0.3934    0.1800    1.7079 H   0  0  0  0  0  0  0  0  0  0  0  0
   -2.6861   -0.0773   -0.0765 H   0  0  0  0  0  0  0  0  0  0  0  0
  1  2  1  0
  2  3  1  0
  3  4  1  0
  4  5  1  0
  5  6  1  0
  6  7  1  0
  7  8  1  0
  8  9  1  0
  8  1  1  0
  5  3  1  0
  9  6  1  0
  1 10  1  0
  1 11  1  0
  3 12  1  0
  4 13  1  0
  4 14  1  0
  5 15  1  0
  6 16  1  0
  7 17  1  0
  7 18  1  0
  8 19  1  0
M  END
