
     RDKit          3D

 19 21  0  0  0  0  0  0  0  0999 V2000
   -1.8153    1.3510    0.0455 C   0  0  0  0  0  0  0  0  0  0  0  0
   -1.7187    0.5259    1.1976 O   0  0  0  0  0  0  0  0  0  0  0  0
   -0.7469   -0.4135    0.8417 C   0  0  0  0  0  0  0  0  0  0  0  0
   -1.1666   -0.7568   -0.5852 C   0  0  0  0  0  0  0  0  0  0  0  0
   -0.7709    0.6829   -0.8107 C   0  0  0  0  0  0  0  0  0  0  0  0
    0.3071    0.4594    0.2374 C   0  0  0  0  0  0  0  0  0  0  0  0
    1.5710   -0.1358   -0.2114 C   0  0  0  0  0  0  0  0  0  0  0  0
    2.5195   -0.8544    0.6067 C   0  0  0  0  0  0  0  0  0  0  0  0
    1.6754   -1.5390   -0.3138 O   0  0  0  0  0  0  0  0  0  0  0  0
   -2.8058    1.1883   -0.3886 H   0  0  0  0  0  0  0  0  0  0  0  0
   -1.6074    2.3948    0.2715 H   0  0  0  0  0  0  0  0  0  0  0  0
   -0.5043   -1.1944    1.5023 H   0  0  0  0  0  0  0  0  0  0  0  0
   -0.5831   -1.5194   -1.0827 H   0  0  0  0  0  0  0  0  0  0  0  0
   -2.2524   -0.9675   -0.6734 H   0  0  0  0  0  0  0  0  0  0  0  0
   -0.5226    1.0387   -1.7611 H   0  0  0  0  0  0  0  0  0  0  0  0
    0.4461    1.3900    0.8164 H   0  0  0  0  0  0  0  0  0  0  0  0
    1.9899    0.3527   -1.1426 H   0  0  0  0  0  0  0  0  0  0  0  0
    2.3993   -1.0801    1.6767 H   0  0  0  0  0  0  0  0  0  0  0  0
    3.5855   -0.9228    0.2743 H   0  0  0  0  0  0  0  0  0  0  0  0
  1  2  1  0
  2  3  1  0
  3  4  1  0
  4  5  1  0
  5  6  1  0
  6  7  1  0
  7  8  1  0
  8  9  1  0
  5  1  1  0
  9  7  1  0
  6  3  1  0
  1 10  1  0
  1 11  1  0
  3 12  1  0
  4 13  1  0
  4 14  1  0
  5 15  1  0
  6 16  1  0
  7 17  1  0
  8 18  1  0
  8 19  1  0
M  END
