
     RDKit          3D

 21 23  0  0  0  0  0  0  0  0999 V2000
   -1.8013   -0.1054    0.0415 C   0  0  0  0  0  0  0  0  0  0  0  0
   -1.4289    1.0625    0.6350 O   0  0  0  0  0  0  0  0  0  0  0  0
   -0.3375    1.6949   -0.0106 C   0  0  0  0  0  0  0  0  0  0  0  0
    0.7064    0.6872   -0.1509 C   0  0  0  0  0  0  0  0  0  0  0  0
    0.2678   -0.3360   -1.1824 C   0  0  0  0  0  0  0  0  0  0  0  0
   -0.7269   -1.0848   -0.2768 C   0  0  0  0  0  0  0  0  0  0  0  0
    0.2076   -1.3825    0.8645 C   0  0  0  0  0  0  0  0  0  0  0  0
    0.8835   -0.1225    1.1692 C   0  0  0  0  0  0  0  0  0  0  0  0
    1.9732    0.5132    0.4639 C   0  0  0  0  0  0  0  0  0  0  0  0
   -2.6281   -0.5341    0.6417 H   0  0  0  0  0  0  0  0  0  0  0  0
   -2.2827    0.1673   -0.9455 H   0  0  0  0  0  0  0  0  0  0  0  0
   -0.0446    2.5306    0.6890 H   0  0  0  0  0  0  0  0  0  0  0  0
   -0.7212    2.1596   -0.9176 H   0  0  0  0  0  0  0  0  0  0  0  0
   -0.2724    0.1688   -1.9798 H   0  0  0  0  0  0  0  0  0  0  0  0
    1.0805   -0.9986   -1.4957 H   0  0  0  0  0  0  0  0  0  0  0  0
   -1.1572   -1.9530   -0.7595 H   0  0  0  0  0  0  0  0  0  0  0  0
   -0.3797   -1.7718    1.6993 H   0  0  0  0  0  0  0  0  0  0  0  0
    0.8723   -2.2131    0.5253 H   0  0  0  0  0  0  0  0  0  0  0  0
    0.5567    0.3651    2.1224 H   0  0  0  0  0  0  0  0  0  0  0  0
    2.5290    1.3299    0.9776 H   0  0  0  0  0  0  0  0  0  0  0  0
    2.7033   -0.1772   -0.0531 H   0  0  0  0  0  0  0  0  0  0  0  0
  1  2  1  0
  2  3  1  0
  3  4  1  0
  4  5  1  0
  5  6  1  0
  6  7  1  0
  7  8  1  0
  8  9  1  0
  6  1  1  0
  8  4  1  0
  9  4  1  0
  1 10  1  0
  1 11  1  0
  3 12  1  0
  3 13  1  0
  5 14  1  0
  5 15  1  0
  6 16  1  0
  7 17  1  0
  7 18  1  0
  8 19  1  0
  9 20  1  0
  9 21  1  0
M  END
