
     RDKit          3D

 21 23  0  0  0  0  0  0  0  0999 V2000
   -1.4892   -0.5126    1.3263 C   0  0  0  0  0  0  0  0  0  0  0  0
   -0.1041   -0.5610    1.1605 O   0  0  0  0  0  0  0  0  0  0  0  0
    0.0827    0.4414    0.2133 C   0  0  0  0  0  0  0  0  0  0  0  0
    1.5010    0.6224   -0.1978 C   0  0  0  0  0  0  0  0  0  0  0  0
    2.3107   -0.4390   -0.8169 C   0  0  0  0  0  0  0  0  0  0  0  0
    2.4866   -0.1640    0.6674 C   0  0  0  0  0  0  0  0  0  0  0  0
   -0.8428    0.0362   -0.8805 C   0  0  0  0  0  0  0  0  0  0  0  0
   -2.2318    0.6891   -0.8157 C   0  0  0  0  0  0  0  0  0  0  0  0
   -1.9962   -0.5992   -0.1052 C   0  0  0  0  0  0  0  0  0  0  0  0
   -1.8728   -1.3389    1.9562 H   0  0  0  0  0  0  0  0  0  0  0  0
   -1.8015    0.4916    1.7309 H   0  0  0  0  0  0  0  0  0  0  0  0
   -0.2692    1.3799    0.6884 H   0  0  0  0  0  0  0  0  0  0  0  0
    1.7698    1.6698   -0.4513 H   0  0  0  0  0  0  0  0  0  0  0  0
    3.1847   -0.1190   -1.4190 H   0  0  0  0  0  0  0  0  0  0  0  0
    1.8799   -1.4108   -1.1339 H   0  0  0  0  0  0  0  0  0  0  0  0
    3.3821    0.4102    1.0023 H   0  0  0  0  0  0  0  0  0  0  0  0
    2.1016   -0.9705    1.3035 H   0  0  0  0  0  0  0  0  0  0  0  0
   -0.5090   -0.3989   -1.8152 H   0  0  0  0  0  0  0  0  0  0  0  0
   -2.8495    0.6441   -1.7144 H   0  0  0  0  0  0  0  0  0  0  0  0
   -2.2802    1.6468   -0.2276 H   0  0  0  0  0  0  0  0  0  0  0  0
   -2.4527   -1.5176   -0.4713 H   0  0  0  0  0  0  0  0  0  0  0  0
  1  2  1  0
  2  3  1  0
  3  4  1  0
  4  5  1  0
  5  6  1  0
  3  7  1  0
  7  8  1  0
  8  9  1  0
  9  1  1  0
  6  4  1  0
  9  7  1  0
  1 10  1  0
  1 11  1  0
  3 12  1  0
  4 13  1  0
  5 14  1  0
  5 15  1  0
  6 16  1  0
  6 17  1  0
  7 18  1  0
  8 19  1  0
  8 20  1  0
  9 21  1  0
M  END
