
     RDKit          3D

 17 20  0  0  0  0  0  0  0  0999 V2000
   -2.2058   -0.1987    0.5215 C   0  0  0  0  0  0  0  0  0  0  0  0
   -1.9733    0.2326   -0.8858 O   0  0  0  0  0  0  0  0  0  0  0  0
   -0.9386   -0.0023    0.0324 C   0  0  0  0  0  0  0  0  0  0  0  0
   -0.1108    1.2060    0.3154 C   0  0  0  0  0  0  0  0  0  0  0  0
    1.2968    0.9287   -0.1932 C   0  0  0  0  0  0  0  0  0  0  0  0
    1.9831    0.1918    0.7662 O   0  0  0  0  0  0  0  0  0  0  0  0
    1.3960   -0.9857    0.3882 C   0  0  0  0  0  0  0  0  0  0  0  0
    1.1326   -0.3216   -0.9827 C   0  0  0  0  0  0  0  0  0  0  0  0
    0.0870   -1.0627   -0.2953 C   0  0  0  0  0  0  0  0  0  0  0  0
   -2.7356   -1.1835    0.4830 H   0  0  0  0  0  0  0  0  0  0  0  0
   -2.7571    0.5484    1.1096 H   0  0  0  0  0  0  0  0  0  0  0  0
   -0.0721    1.3221    1.4372 H   0  0  0  0  0  0  0  0  0  0  0  0
   -0.5264    2.1451   -0.0778 H   0  0  0  0  0  0  0  0  0  0  0  0
    1.8154    1.7695   -0.6380 H   0  0  0  0  0  0  0  0  0  0  0  0
    2.0320   -1.8791    0.4113 H   0  0  0  0  0  0  0  0  0  0  0  0
    1.7996   -0.6625   -1.7447 H   0  0  0  0  0  0  0  0  0  0  0  0
   -0.2228   -2.0481   -0.6473 H   0  0  0  0  0  0  0  0  0  0  0  0
  1  2  1  0
  2  3  1  0
  3  4  1  0
  4  5  1  0
  5  6  1  0
  6  7  1  0
  7  8  1  0
  8  9  1  0
  3  1  1  0
  8  5  1  0
  9  3  1  0
  9  7  1  0
  1 10  1  0
  1 11  1  0
  4 12  1  0
  4 13  1  0
  5 14  1  0
  7 15  1  0
  8 16  1  0
  9 17  1  0
M  END
