
     RDKit          3D

 17 19  0  0  0  0  0  0  0  0999 V2000
    1.8379    0.7211    0.3726 C   0  0  0  0  0  0  0  0  0  0  0  0
    1.8407   -0.5439   -0.2049 O   0  0  0  0  0  0  0  0  0  0  0  0
    0.5116   -0.7998   -0.4907 C   0  0  0  0  0  0  0  0  0  0  0  0
   -0.3087   -0.9932    0.7511 C   0  0  0  0  0  0  0  0  0  0  0  0
   -1.6556   -0.4120    0.3294 C   0  0  0  0  0  0  0  0  0  0  0  0
   -1.7652    1.0357    0.6125 O   0  0  0  0  0  0  0  0  0  0  0  0
   -1.4402    0.4949   -0.6663 C   0  0  0  0  0  0  0  0  0  0  0  0
    0.0401    0.5792   -0.9517 C   0  0  0  0  0  0  0  0  0  0  0  0
    0.7212    1.3885   -0.0619 O   0  0  0  0  0  0  0  0  0  0  0  0
    1.8516    0.5489    1.4832 H   0  0  0  0  0  0  0  0  0  0  0  0
    2.7829    1.2864    0.1605 H   0  0  0  0  0  0  0  0  0  0  0  0
    0.3365   -1.5701   -1.2326 H   0  0  0  0  0  0  0  0  0  0  0  0
   -0.4076   -2.0497    0.9754 H   0  0  0  0  0  0  0  0  0  0  0  0
    0.0373   -0.4039    1.5971 H   0  0  0  0  0  0  0  0  0  0  0  0
   -2.5149   -0.9054    0.7683 H   0  0  0  0  0  0  0  0  0  0  0  0
   -2.1507    0.8667   -1.4439 H   0  0  0  0  0  0  0  0  0  0  0  0
    0.2831    0.7565   -1.9981 H   0  0  0  0  0  0  0  0  0  0  0  0
  1  2  1  0
  2  3  1  0
  3  4  1  0
  4  5  1  0
  5  6  1  0
  6  7  1  0
  7  8  1  0
  8  9  1  0
  9  1  1  0
  8  3  1  0
  7  5  1  0
  1 10  1  0
  1 11  1  0
  3 12  1  0
  4 13  1  0
  4 14  1  0
  5 15  1  0
  7 16  1  0
  8 17  1  0
M  END
