
     RDKit          3D

 18 19  0  0  0  0  0  0  0  0999 V2000
   -1.2379    0.6738   -0.4846 C   0  0  0  0  0  0  0  0  0  0  0  0
   -1.6472   -0.6134   -0.6937 O   0  0  0  0  0  0  0  0  0  0  0  0
   -1.0251   -1.4500    0.1889 C   0  0  0  0  0  0  0  0  0  0  0  0
    0.2746   -0.7747    0.5272 C   0  0  0  0  0  0  0  0  0  0  0  0
    1.2019   -0.6649   -0.6573 C   0  0  0  0  0  0  0  0  0  0  0  0
    1.9055    0.5030   -0.4004 O   0  0  0  0  0  0  0  0  0  0  0  0
    1.0605    1.3991    0.1974 C   0  0  0  0  0  0  0  0  0  0  0  0
   -0.1979    0.6862    0.5940 C   0  0  0  0  0  0  0  0  0  0  0  0
   -0.8201    1.0540   -1.4540 H   0  0  0  0  0  0  0  0  0  0  0  0
   -2.0536    1.3603   -0.1978 H   0  0  0  0  0  0  0  0  0  0  0  0
   -0.9115   -2.4822   -0.1683 H   0  0  0  0  0  0  0  0  0  0  0  0
   -1.6271   -1.4916    1.1151 H   0  0  0  0  0  0  0  0  0  0  0  0
    0.7430   -1.1060    1.4435 H   0  0  0  0  0  0  0  0  0  0  0  0
    1.8758   -1.5261   -0.7707 H   0  0  0  0  0  0  0  0  0  0  0  0
    0.5869   -0.5255   -1.5692 H   0  0  0  0  0  0  0  0  0  0  0  0
    1.5381    1.7559    1.1569 H   0  0  0  0  0  0  0  0  0  0  0  0
    0.8969    2.2947   -0.4159 H   0  0  0  0  0  0  0  0  0  0  0  0
   -0.5627    0.9074    1.5891 H   0  0  0  0  0  0  0  0  0  0  0  0
  1  2  1  0
  2  3  1  0
  3  4  1  0
  4  5  1  0
  5  6  1  0
  6  7  1  0
  7  8  1  0
  8  1  1  0
  8  4  1  0
  1  9  1  0
  1 10  1  0
  3 11  1  0
  3 12  1  0
  4 13  1  0
  5 14  1  0
  5 15  1  0
  7 16  1  0
  7 17  1  0
  8 18  1  0
M  END
