
     RDKit          2D

 19 22  0  0  0  0  0  0  0  0999 V2000
    1.2882   -4.1319    0.0000 C   0  0  0  0  0  0  0  0  0  0  0  0
    0.0595   -4.9922    0.0000 O   0  0  0  0  0  0  0  0  0  0  0  0
   -0.0712   -3.4979    0.0000 C   0  0  0  0  0  0  0  0  0  0  0  0
    0.3170   -2.0490    0.0000 C   0  0  0  0  0  0  0  0  0  0  0  0
    1.6160   -1.2990    0.0000 C   0  0  0  0  0  0  0  0  0  0  0  0
    0.8660    0.0000    0.0000 C   0  0  0  0  0  0  0  0  0  0  0  0
   -0.4330    0.7500    0.0000 C   0  0  0  0  0  0  0  0  0  0  0  0
   -0.9821   -1.2990    0.0000 C   0  0  0  0  0  0  0  0  0  0  0  0
   -0.4330   -0.7500    0.0000 C   0  0  0  0  0  0  0  0  0  0  0  0
    2.3489   -5.1925    0.0000 H   0  0  0  0  0  0  0  0  0  0  0  0
    2.1012   -3.2290    0.0000 H   0  0  0  0  0  0  0  0  0  0  0  0
   -1.5703   -3.5503    0.0000 H   0  0  0  0  0  0  0  0  0  0  0  0
    2.9151   -0.5490    0.0000 H   0  0  0  0  0  0  0  0  0  0  0  0
    2.3473   -2.2694    0.0000 H   0  0  0  0  0  0  0  0  0  0  0  0
    1.9267    1.0607    0.0000 H   0  0  0  0  0  0  0  0  0  0  0  0
   -1.1830    2.0490    0.0000 H   0  0  0  0  0  0  0  0  0  0  0  0
   -1.8848   -2.4970    0.0000 H   0  0  0  0  0  0  0  0  0  0  0  0
   -2.1005   -0.8243    0.0000 H   0  0  0  0  0  0  0  0  0  0  0  0
   -1.2224   -0.8609    0.0000 H   0  0  0  0  0  0  0  0  0  0  0  0
  1  2  1  0
  2  3  1  0
  3  4  1  0
  4  5  1  0
  5  6  1  0
  6  7  1  0
  7  8  1  0
  7  9  1  0
  3  1  1  0
  8  4  1  0
  9  4  1  0
  9  6  1  0
  1 10  1  0
  1 11  1  0
  3 12  1  0
  5 13  1  0
  5 14  1  0
  6 15  1  0
  7 16  1  0
  8 17  1  0
  8 18  1  0
  9 19  1  0
M  END
