
     RDKit          3D

 19 21  0  0  0  0  0  0  0  0999 V2000
   -1.1580    1.3984   -0.1117 C   0  0  0  0  0  0  0  0  0  0  0  0
    0.0861    1.1604   -0.6744 O   0  0  0  0  0  0  0  0  0  0  0  0
    0.7549    0.1033   -0.1184 C   0  0  0  0  0  0  0  0  0  0  0  0
    1.9494    0.2996    0.7635 C   0  0  0  0  0  0  0  0  0  0  0  0
    2.1296   -0.1457   -0.6831 C   0  0  0  0  0  0  0  0  0  0  0  0
   -0.0754   -1.1183    0.0806 C   0  0  0  0  0  0  0  0  0  0  0  0
   -1.4891   -1.0020   -0.3572 C   0  0  0  0  0  0  0  0  0  0  0  0
   -2.3566   -0.6277    0.7480 O   0  0  0  0  0  0  0  0  0  0  0  0
   -2.1260    0.2736   -0.2847 C   0  0  0  0  0  0  0  0  0  0  0  0
   -1.0815    1.7400    0.9574 H   0  0  0  0  0  0  0  0  0  0  0  0
   -1.5694    2.3015   -0.6510 H   0  0  0  0  0  0  0  0  0  0  0  0
    2.1936   -0.4442    1.5295 H   0  0  0  0  0  0  0  0  0  0  0  0
    2.2638    1.3311    1.0166 H   0  0  0  0  0  0  0  0  0  0  0  0
    2.4856   -1.1732   -0.8544 H   0  0  0  0  0  0  0  0  0  0  0  0
    2.5689    0.6281   -1.3676 H   0  0  0  0  0  0  0  0  0  0  0  0
    0.3763   -2.0077   -0.4482 H   0  0  0  0  0  0  0  0  0  0  0  0
   -0.0074   -1.3894    1.1753 H   0  0  0  0  0  0  0  0  0  0  0  0
   -1.9165   -1.7781   -1.0363 H   0  0  0  0  0  0  0  0  0  0  0  0
   -3.0281    0.4504   -0.9103 H   0  0  0  0  0  0  0  0  0  0  0  0
  1  2  1  0
  2  3  1  0
  3  4  1  0
  4  5  1  0
  3  6  1  0
  6  7  1  0
  7  8  1  0
  8  9  1  0
  9  1  1  0
  5  3  1  0
  9  7  1  0
  1 10  1  0
  1 11  1  0
  4 12  1  0
  4 13  1  0
  5 14  1  0
  5 15  1  0
  6 16  1  0
  6 17  1  0
  7 18  1  0
  9 19  1  0
M  END
