
     RDKit          3D

 15 18  0  0  0  0  0  0  0  0999 V2000
    2.2937   -0.0677   -0.6420 C   0  0  0  0  0  0  0  0  0  0  0  0
    2.1426    0.1067    0.7641 O   0  0  0  0  0  0  0  0  0  0  0  0
    1.1427   -0.7644    0.0482 C   0  0  0  0  0  0  0  0  0  0  0  0
   -0.1654   -0.1228    0.0367 C   0  0  0  0  0  0  0  0  0  0  0  0
   -0.1295    1.1920   -0.6527 O   0  0  0  0  0  0  0  0  0  0  0  0
   -1.1145    0.2136   -0.8484 C   0  0  0  0  0  0  0  0  0  0  0  0
   -2.1968    0.2864    0.2303 C   0  0  0  0  0  0  0  0  0  0  0  0
   -2.3317   -0.7563    1.1102 O   0  0  0  0  0  0  0  0  0  0  0  0
   -1.1046   -0.1390    1.2167 C   0  0  0  0  0  0  0  0  0  0  0  0
    3.1671   -0.6583   -0.9705 H   0  0  0  0  0  0  0  0  0  0  0  0
    2.0330    0.7956   -1.2867 H   0  0  0  0  0  0  0  0  0  0  0  0
    1.2818   -1.8147    0.3787 H   0  0  0  0  0  0  0  0  0  0  0  0
   -1.4028   -0.0303   -1.8685 H   0  0  0  0  0  0  0  0  0  0  0  0
   -2.7026    1.2555    0.3938 H   0  0  0  0  0  0  0  0  0  0  0  0
   -0.9129    0.5036    2.0901 H   0  0  0  0  0  0  0  0  0  0  0  0
  1  2  1  0
  2  3  1  0
  3  4  1  0
  4  5  1  0
  5  6  1  0
  6  7  1  0
  7  8  1  0
  8  9  1  0
  3  1  1  0
  6  4  1  0
  9  7  1  0
  9  4  1  0
  1 10  1  0
  1 11  1  0
  3 12  1  0
  6 13  1  0
  7 14  1  0
  9 15  1  0
M  END
