
     RDKit          3D

 17 19  0  0  0  0  0  0  0  0999 V2000
   -1.6939   -0.9237    0.3144 C   0  0  0  0  0  0  0  0  0  0  0  0
   -2.0982    0.2205    1.0046 O   0  0  0  0  0  0  0  0  0  0  0  0
   -1.4385    1.2773    0.3409 C   0  0  0  0  0  0  0  0  0  0  0  0
   -0.1645    0.6849   -0.0741 C   0  0  0  0  0  0  0  0  0  0  0  0
   -0.3090   -0.6563   -0.1035 C   0  0  0  0  0  0  0  0  0  0  0  0
    1.0364   -1.0689   -0.5471 C   0  0  0  0  0  0  0  0  0  0  0  0
    1.9629   -0.2477    0.3039 C   0  0  0  0  0  0  0  0  0  0  0  0
    1.2400    0.8141   -0.4889 C   0  0  0  0  0  0  0  0  0  0  0  0
    1.2835   -0.1106   -1.5610 O   0  0  0  0  0  0  0  0  0  0  0  0
   -1.7747   -1.8322    0.9404 H   0  0  0  0  0  0  0  0  0  0  0  0
   -2.3553   -0.9794   -0.5933 H   0  0  0  0  0  0  0  0  0  0  0  0
   -1.3381    2.1651    1.0006 H   0  0  0  0  0  0  0  0  0  0  0  0
   -2.0602    1.5772   -0.5353 H   0  0  0  0  0  0  0  0  0  0  0  0
    1.2500   -2.0778   -0.7617 H   0  0  0  0  0  0  0  0  0  0  0  0
    1.7584   -0.2558    1.3941 H   0  0  0  0  0  0  0  0  0  0  0  0
    3.0170   -0.3454    0.0011 H   0  0  0  0  0  0  0  0  0  0  0  0
    1.6844    1.7588   -0.6350 H   0  0  0  0  0  0  0  0  0  0  0  0
  1  2  1  0
  2  3  1  0
  3  4  1  0
  4  5  2  0
  5  6  1  0
  6  7  1  0
  7  8  1  0
  8  9  1  0
  5  1  1  0
  9  6  1  0
  8  4  1  0
  1 10  1  0
  1 11  1  0
  3 12  1  0
  3 13  1  0
  6 14  1  0
  7 15  1  0
  7 16  1  0
  8 17  1  0
M  END
