
     RDKit          3D

 19 21  0  0  0  0  0  0  0  0999 V2000
    1.6519    0.3608   -0.7156 C   0  0  0  0  0  0  0  0  0  0  0  0
    0.7831   -0.3431   -1.5590 O   0  0  0  0  0  0  0  0  0  0  0  0
   -0.2716   -0.6232   -0.8028 C   0  0  0  0  0  0  0  0  0  0  0  0
    0.3632   -1.2241    0.4528 C   0  0  0  0  0  0  0  0  0  0  0  0
    1.3235   -0.0577    0.7096 C   0  0  0  0  0  0  0  0  0  0  0  0
    0.6073    0.9186    1.3661 O   0  0  0  0  0  0  0  0  0  0  0  0
   -0.7488    0.9397    1.0412 C   0  0  0  0  0  0  0  0  0  0  0  0
   -1.0399    0.6725   -0.3880 C   0  0  0  0  0  0  0  0  0  0  0  0
   -1.6685   -0.5300   -0.9167 C   0  0  0  0  0  0  0  0  0  0  0  0
    1.4274    1.4419   -0.7894 H   0  0  0  0  0  0  0  0  0  0  0  0
    2.7018    0.1145   -0.9088 H   0  0  0  0  0  0  0  0  0  0  0  0
    0.9005   -2.1201    0.1251 H   0  0  0  0  0  0  0  0  0  0  0  0
   -0.3411   -1.3862    1.2587 H   0  0  0  0  0  0  0  0  0  0  0  0
    2.1752   -0.4510    1.2558 H   0  0  0  0  0  0  0  0  0  0  0  0
   -1.0782    2.0013    1.2515 H   0  0  0  0  0  0  0  0  0  0  0  0
   -1.3205    0.3267    1.7624 H   0  0  0  0  0  0  0  0  0  0  0  0
   -0.9679    1.5387   -1.0757 H   0  0  0  0  0  0  0  0  0  0  0  0
   -2.2097   -0.4554   -1.8889 H   0  0  0  0  0  0  0  0  0  0  0  0
   -2.2878   -1.1240   -0.1783 H   0  0  0  0  0  0  0  0  0  0  0  0
  1  2  1  0
  2  3  1  0
  3  4  1  0
  4  5  1  0
  5  6  1  0
  6  7  1  0
  7  8  1  0
  8  9  1  0
  5  1  1  0
  8  3  1  0
  9  3  1  0
  1 10  1  0
  1 11  1  0
  4 12  1  0
  4 13  1  0
  5 14  1  0
  7 15  1  0
  7 16  1  0
  8 17  1  0
  9 18  1  0
  9 19  1  0
M  END
