
     RDKit          3D

 19 21  0  0  0  0  0  0  0  0999 V2000
   -0.1752    2.1025    0.0838 C   0  0  0  0  0  0  0  0  0  0  0  0
   -1.0045    1.2081    0.7423 O   0  0  0  0  0  0  0  0  0  0  0  0
   -0.7085    0.0102    0.1508 C   0  0  0  0  0  0  0  0  0  0  0  0
   -1.5587   -0.3279   -1.0529 C   0  0  0  0  0  0  0  0  0  0  0  0
   -1.4996   -1.1904    0.1882 C   0  0  0  0  0  0  0  0  0  0  0  0
    0.7573    0.0927   -0.0597 C   0  0  0  0  0  0  0  0  0  0  0  0
    1.6086   -0.4311    1.1072 C   0  0  0  0  0  0  0  0  0  0  0  0
    1.6495   -0.9852   -0.3541 C   0  0  0  0  0  0  0  0  0  0  0  0
    0.9472    1.4229   -0.3312 O   0  0  0  0  0  0  0  0  0  0  0  0
   -0.7040    2.6031   -0.7667 H   0  0  0  0  0  0  0  0  0  0  0  0
    0.1557    2.8997    0.7806 H   0  0  0  0  0  0  0  0  0  0  0  0
   -1.0635   -0.6685   -1.9656 H   0  0  0  0  0  0  0  0  0  0  0  0
   -2.4621    0.2872   -1.2378 H   0  0  0  0  0  0  0  0  0  0  0  0
   -0.9630   -2.1687    0.0549 H   0  0  0  0  0  0  0  0  0  0  0  0
   -2.4416   -1.2259    0.7658 H   0  0  0  0  0  0  0  0  0  0  0  0
    1.1062   -1.0486    1.8529 H   0  0  0  0  0  0  0  0  0  0  0  0
    2.4798    0.1745    1.3942 H   0  0  0  0  0  0  0  0  0  0  0  0
    2.5985   -0.7483   -0.9164 H   0  0  0  0  0  0  0  0  0  0  0  0
    1.2779   -2.0063   -0.4362 H   0  0  0  0  0  0  0  0  0  0  0  0
  1  2  1  0
  2  3  1  0
  3  4  1  0
  4  5  1  0
  3  6  1  0
  6  7  1  0
  7  8  1  0
  6  9  1  0
  9  1  1  0
  5  3  1  0
  8  6  1  0
  1 10  1  0
  1 11  1  0
  4 12  1  0
  4 13  1  0
  5 14  1  0
  5 15  1  0
  7 16  1  0
  7 17  1  0
  8 18  1  0
  8 19  1  0
M  END
