
     RDKit          3D

 19 21  0  0  0  0  0  0  0  0999 V2000
    2.2271    0.8633   -0.6568 C   0  0  0  0  0  0  0  0  0  0  0  0
    2.6746   -0.1199    0.1850 O   0  0  0  0  0  0  0  0  0  0  0  0
    1.5940   -0.7119    0.7973 C   0  0  0  0  0  0  0  0  0  0  0  0
    0.4138   -0.1557    0.0934 C   0  0  0  0  0  0  0  0  0  0  0  0
    0.8636    1.0005   -0.4957 O   0  0  0  0  0  0  0  0  0  0  0  0
   -0.7278   -0.9285   -0.3747 C   0  0  0  0  0  0  0  0  0  0  0  0
   -1.8576   -0.0887   -0.9861 C   0  0  0  0  0  0  0  0  0  0  0  0
   -2.0168    0.6180    0.3482 C   0  0  0  0  0  0  0  0  0  0  0  0
   -0.8710   -0.1729    0.8760 C   0  0  0  0  0  0  0  0  0  0  0  0
    2.6881    1.8384   -0.3584 H   0  0  0  0  0  0  0  0  0  0  0  0
    2.4695    0.6837   -1.7171 H   0  0  0  0  0  0  0  0  0  0  0  0
    1.5090   -0.4149    1.8844 H   0  0  0  0  0  0  0  0  0  0  0  0
    1.6073   -1.8114    0.7924 H   0  0  0  0  0  0  0  0  0  0  0  0
   -0.7775   -2.0161   -0.4447 H   0  0  0  0  0  0  0  0  0  0  0  0
   -1.4102    0.6216   -1.7140 H   0  0  0  0  0  0  0  0  0  0  0  0
   -2.7305   -0.6521   -1.3064 H   0  0  0  0  0  0  0  0  0  0  0  0
   -1.7775    1.6975    0.3389 H   0  0  0  0  0  0  0  0  0  0  0  0
   -2.9613    0.4030    0.8707 H   0  0  0  0  0  0  0  0  0  0  0  0
   -0.9168   -0.6536    1.8673 H   0  0  0  0  0  0  0  0  0  0  0  0
  1  2  1  0
  2  3  1  0
  3  4  1  0
  4  5  1  0
  4  6  1  0
  6  7  1  0
  7  8  1  0
  8  9  1  0
  5  1  1  0
  9  6  1  0
  9  4  1  0
  1 10  1  0
  1 11  1  0
  3 12  1  0
  3 13  1  0
  6 14  1  0
  7 15  1  0
  7 16  1  0
  8 17  1  0
  8 18  1  0
  9 19  1  0
M  END
