
     RDKit          2D

 17 20  0  0  0  0  0  0  0  0999 V2000
    1.5121    1.9490    0.0000 C   0  0  0  0  0  0  0  0  0  0  0  0
    2.8824    1.3389    0.0000 O   0  0  0  0  0  0  0  0  0  0  0  0
    2.7256   -0.1529    0.0000 C   0  0  0  0  0  0  0  0  0  0  0  0
    1.4266   -0.9029    0.0000 C   0  0  0  0  0  0  0  0  0  0  0  0
   -0.0000   -1.0607    0.0000 C   0  0  0  0  0  0  0  0  0  0  0  0
    1.0607    0.0000    0.0000 C   0  0  0  0  0  0  0  0  0  0  0  0
    0.0000    1.0607    0.0000 C   0  0  0  0  0  0  0  0  0  0  0  0
   -1.0607    0.0000    0.0000 O   0  0  0  0  0  0  0  0  0  0  0  0
    1.4266    0.5971    0.0000 C   0  0  0  0  0  0  0  0  0  0  0  0
    2.2621    3.2481    0.0000 H   0  0  0  0  0  0  0  0  0  0  0  0
    0.2986    2.8307    0.0000 H   0  0  0  0  0  0  0  0  0  0  0  0
    4.2256   -0.1529    0.0000 H   0  0  0  0  0  0  0  0  0  0  0  0
    2.0367   -2.2732    0.0000 H   0  0  0  0  0  0  0  0  0  0  0  0
   -0.0000   -2.5607    0.0000 H   0  0  0  0  0  0  0  0  0  0  0  0
    1.7440    0.4105    0.0000 H   0  0  0  0  0  0  0  0  0  0  0  0
    2.3465   -0.7725    0.0000 H   0  0  0  0  0  0  0  0  0  0  0  0
    2.3501    1.7791    0.0000 H   0  0  0  0  0  0  0  0  0  0  0  0
  1  2  1  0
  2  3  1  0
  3  4  1  0
  4  5  1  0
  5  6  1  0
  6  7  1  0
  7  8  1  0
  7  9  1  0
  7  1  1  0
  9  3  1  0
  9  4  1  0
  8  5  1  0
  1 10  1  0
  1 11  1  0
  3 12  1  0
  4 13  1  0
  5 14  1  0
  6 15  1  0
  6 16  1  0
  9 17  1  0
M  END
