
     RDKit          3D

 21 23  0  0  0  0  0  0  0  0999 V2000
    1.4032   -0.6341    0.9829 C   0  0  0  0  0  0  0  0  0  0  0  0
    1.6991   -0.9321   -0.3192 O   0  0  0  0  0  0  0  0  0  0  0  0
    1.4405    0.0585   -1.2278 C   0  0  0  0  0  0  0  0  0  0  0  0
    0.1040    0.7282   -0.8770 C   0  0  0  0  0  0  0  0  0  0  0  0
    0.4135    1.5171    0.4092 C   0  0  0  0  0  0  0  0  0  0  0  0
    0.1433    0.1824    1.1214 C   0  0  0  0  0  0  0  0  0  0  0  0
   -0.7535   -0.1245   -0.0221 C   0  0  0  0  0  0  0  0  0  0  0  0
   -1.3510   -1.3786   -0.3481 C   0  0  0  0  0  0  0  0  0  0  0  0
   -2.1942   -0.1263    0.0033 C   0  0  0  0  0  0  0  0  0  0  0  0
    2.2638   -0.1574    1.4960 H   0  0  0  0  0  0  0  0  0  0  0  0
    1.2334   -1.6180    1.5130 H   0  0  0  0  0  0  0  0  0  0  0  0
    2.1899    0.8970   -1.1856 H   0  0  0  0  0  0  0  0  0  0  0  0
    1.3292   -0.3492   -2.2438 H   0  0  0  0  0  0  0  0  0  0  0  0
   -0.3453    1.3116   -1.6742 H   0  0  0  0  0  0  0  0  0  0  0  0
    1.4468    1.8513    0.4838 H   0  0  0  0  0  0  0  0  0  0  0  0
   -0.3768    2.2448    0.6619 H   0  0  0  0  0  0  0  0  0  0  0  0
   -0.2678    0.2604    2.1167 H   0  0  0  0  0  0  0  0  0  0  0  0
   -1.4630   -2.2072    0.3701 H   0  0  0  0  0  0  0  0  0  0  0  0
   -1.4104   -1.7147   -1.4046 H   0  0  0  0  0  0  0  0  0  0  0  0
   -2.7948    0.3123   -0.8300 H   0  0  0  0  0  0  0  0  0  0  0  0
   -2.7098   -0.1214    0.9740 H   0  0  0  0  0  0  0  0  0  0  0  0
  1  2  1  0
  2  3  1  0
  3  4  1  0
  4  5  1  0
  5  6  1  0
  6  7  1  0
  7  8  1  0
  8  9  1  0
  6  1  1  0
  9  7  1  0
  7  4  1  0
  1 10  1  0
  1 11  1  0
  3 12  1  0
  3 13  1  0
  4 14  1  0
  5 15  1  0
  5 16  1  0
  6 17  1  0
  8 18  1  0
  8 19  1  0
  9 20  1  0
  9 21  1  0
M  END
