
     RDKit          3D

 16 18  0  0  0  0  0  0  0  0999 V2000
   -1.7328    0.4869   -0.2688 C   0  0  0  0  0  0  0  0  0  0  0  0
   -1.5151   -0.8574   -0.5597 O   0  0  0  0  0  0  0  0  0  0  0  0
   -0.3990   -1.2591    0.1779 C   0  0  0  0  0  0  0  0  0  0  0  0
   -0.4009   -0.3879    1.2956 O   0  0  0  0  0  0  0  0  0  0  0  0
   -0.5141    0.8199    0.5622 C   0  0  0  0  0  0  0  0  0  0  0  0
    0.7075    0.7381   -0.3041 C   0  0  0  0  0  0  0  0  0  0  0  0
    1.8626   -0.0088    0.2643 C   0  0  0  0  0  0  0  0  0  0  0  0
    0.8475   -0.7893   -0.5245 C   0  0  0  0  0  0  0  0  0  0  0  0
   -2.6206    0.5149    0.4107 H   0  0  0  0  0  0  0  0  0  0  0  0
   -1.8267    1.1273   -1.1394 H   0  0  0  0  0  0  0  0  0  0  0  0
   -0.4005   -2.3042    0.4587 H   0  0  0  0  0  0  0  0  0  0  0  0
   -0.6027    1.6934    1.1814 H   0  0  0  0  0  0  0  0  0  0  0  0
    0.7740    1.3022   -1.2378 H   0  0  0  0  0  0  0  0  0  0  0  0
    2.8323    0.1857   -0.1832 H   0  0  0  0  0  0  0  0  0  0  0  0
    1.8719   -0.1168    1.3812 H   0  0  0  0  0  0  0  0  0  0  0  0
    1.1164   -1.1450   -1.5144 H   0  0  0  0  0  0  0  0  0  0  0  0
  1  2  1  0
  2  3  1  0
  3  4  1  0
  4  5  1  0
  5  6  1  0
  6  7  1  0
  7  8  1  0
  5  1  1  0
  8  6  1  0
  8  3  1  0
  1  9  1  0
  1 10  1  0
  3 11  1  0
  5 12  1  0
  6 13  1  0
  7 14  1  0
  7 15  1  0
  8 16  1  0
M  END
