
     RDKit          3D

 15 16  0  0  0  0  0  0  0  0999 V2000
    1.9919    1.0997    0.1532 C   0  0  0  0  0  0  0  0  0  0  0  0
    2.7604    0.0316    0.0123 O   0  0  0  0  0  0  0  0  0  0  0  0
    2.0267   -1.0399   -0.1599 C   0  0  0  0  0  0  0  0  0  0  0  0
    0.7010   -0.6486   -0.1298 C   0  0  0  0  0  0  0  0  0  0  0  0
    0.6689    0.7260    0.0711 C   0  0  0  0  0  0  0  0  0  0  0  0
   -0.5600    1.3881    0.1429 O   0  0  0  0  0  0  0  0  0  0  0  0
   -1.6769    0.5583    0.4850 C   0  0  0  0  0  0  0  0  0  0  0  0
   -1.7050   -0.6065   -0.5089 C   0  0  0  0  0  0  0  0  0  0  0  0
   -0.5081   -1.3568   -0.2585 O   0  0  0  0  0  0  0  0  0  0  0  0
    2.3229    2.1186    0.3094 H   0  0  0  0  0  0  0  0  0  0  0  0
    2.3231   -2.0736   -0.3054 H   0  0  0  0  0  0  0  0  0  0  0  0
   -1.4354    0.0850    1.4717 H   0  0  0  0  0  0  0  0  0  0  0  0
   -2.6222    1.1115    0.4899 H   0  0  0  0  0  0  0  0  0  0  0  0
   -2.5747   -1.2325   -0.2677 H   0  0  0  0  0  0  0  0  0  0  0  0
   -1.7124   -0.1608   -1.5055 H   0  0  0  0  0  0  0  0  0  0  0  0
  1  2  1  0
  2  3  1  0
  3  4  2  0
  4  5  1  0
  5  6  1  0
  6  7  1  0
  7  8  1  0
  8  9  1  0
  5  1  2  0
  9  4  1  0
  1 10  1  0
  3 11  1  0
  7 12  1  0
  7 13  1  0
  8 14  1  0
  8 15  1  0
M  END
