
     RDKit          3D

 18 19  0  0  0  0  0  0  0  0999 V2000
    0.4931    1.4185   -0.0682 C   0  0  0  0  0  0  0  0  0  0  0  0
    1.1925    0.6793    0.8778 O   0  0  0  0  0  0  0  0  0  0  0  0
    1.5479   -0.5556    0.3264 C   0  0  0  0  0  0  0  0  0  0  0  0
    0.2256   -1.3098    0.1415 C   0  0  0  0  0  0  0  0  0  0  0  0
   -0.4267   -0.6469   -1.0814 C   0  0  0  0  0  0  0  0  0  0  0  0
   -0.7769    0.6883   -0.4089 C   0  0  0  0  0  0  0  0  0  0  0  0
   -1.3041    0.1339    0.9142 C   0  0  0  0  0  0  0  0  0  0  0  0
   -0.5818   -0.9910    1.2012 O   0  0  0  0  0  0  0  0  0  0  0  0
    1.0925    1.7119   -0.9345 H   0  0  0  0  0  0  0  0  0  0  0  0
    0.1791    2.3715    0.4468 H   0  0  0  0  0  0  0  0  0  0  0  0
    1.9660   -0.3340   -0.6774 H   0  0  0  0  0  0  0  0  0  0  0  0
    2.2077   -1.1397    0.9607 H   0  0  0  0  0  0  0  0  0  0  0  0
    0.3653   -2.3775    0.0114 H   0  0  0  0  0  0  0  0  0  0  0  0
    0.2701   -0.5269   -1.9053 H   0  0  0  0  0  0  0  0  0  0  0  0
   -1.3333   -1.2155   -1.2854 H   0  0  0  0  0  0  0  0  0  0  0  0
   -1.5078    1.2608   -0.9598 H   0  0  0  0  0  0  0  0  0  0  0  0
   -2.3884   -0.0673    0.7350 H   0  0  0  0  0  0  0  0  0  0  0  0
   -1.2209    0.9000    1.7060 H   0  0  0  0  0  0  0  0  0  0  0  0
  1  2  1  0
  2  3  1  0
  3  4  1  0
  4  5  1  0
  5  6  1  0
  6  7  1  0
  7  8  1  0
  6  1  1  0
  8  4  1  0
  1  9  1  0
  1 10  1  0
  3 11  1  0
  3 12  1  0
  4 13  1  0
  5 14  1  0
  5 15  1  0
  6 16  1  0
  7 17  1  0
  7 18  1  0
M  END
