
     RDKit          3D

 19 20  0  0  0  0  0  0  0  0999 V2000
    2.0661    1.2382    0.3344 C   0  0  0  0  0  0  0  0  0  0  0  0
    2.7905    0.2261    0.7533 O   0  0  0  0  0  0  0  0  0  0  0  0
    2.1128   -0.8923    0.6661 C   0  0  0  0  0  0  0  0  0  0  0  0
    0.8760   -0.5945    0.1619 C   0  0  0  0  0  0  0  0  0  0  0  0
    0.8387    0.7814   -0.0550 C   0  0  0  0  0  0  0  0  0  0  0  0
   -0.4193    1.3335   -0.6046 C   0  0  0  0  0  0  0  0  0  0  0  0
   -1.5593    0.6692    0.1630 C   0  0  0  0  0  0  0  0  0  0  0  0
   -1.5856   -0.7868   -0.1662 C   0  0  0  0  0  0  0  0  0  0  0  0
   -0.2684   -1.4664   -0.1355 C   0  0  0  0  0  0  0  0  0  0  0  0
    2.3413    2.2947    0.2810 H   0  0  0  0  0  0  0  0  0  0  0  0
    2.5187   -1.8482    0.9582 H   0  0  0  0  0  0  0  0  0  0  0  0
   -0.4147    2.4301   -0.4741 H   0  0  0  0  0  0  0  0  0  0  0  0
   -0.5537    1.0253   -1.6699 H   0  0  0  0  0  0  0  0  0  0  0  0
   -1.5279    0.8998    1.2374 H   0  0  0  0  0  0  0  0  0  0  0  0
   -2.4922    1.1255   -0.2379 H   0  0  0  0  0  0  0  0  0  0  0  0
   -2.0479   -0.8799   -1.1914 H   0  0  0  0  0  0  0  0  0  0  0  0
   -2.3315   -1.2978    0.5070 H   0  0  0  0  0  0  0  0  0  0  0  0
   -0.0623   -1.9463   -1.1321 H   0  0  0  0  0  0  0  0  0  0  0  0
   -0.2815   -2.3118    0.6042 H   0  0  0  0  0  0  0  0  0  0  0  0
  1  2  1  0
  2  3  1  0
  3  4  2  0
  4  5  1  0
  5  6  1  0
  6  7  1  0
  7  8  1  0
  8  9  1  0
  5  1  2  0
  9  4  1  0
  1 10  1  0
  3 11  1  0
  6 12  1  0
  6 13  1  0
  7 14  1  0
  7 15  1  0
  8 16  1  0
  8 17  1  0
  9 18  1  0
  9 19  1  0
M  END
