
     RDKit          3D

 19 20  0  0  0  0  0  0  0  0999 V2000
    2.2412    0.2030    0.0958 C   0  0  0  0  0  0  0  0  0  0  0  0
    1.4183    0.9292   -0.7262 O   0  0  0  0  0  0  0  0  0  0  0  0
    0.2021    1.2267   -0.0953 C   0  0  0  0  0  0  0  0  0  0  0  0
   -0.4601   -0.0525    0.2551 C   0  0  0  0  0  0  0  0  0  0  0  0
    0.5232   -0.9660    0.9172 C   0  0  0  0  0  0  0  0  0  0  0  0
    1.6161   -0.1564    1.3106 O   0  0  0  0  0  0  0  0  0  0  0  0
   -1.4228   -0.6473   -0.6992 C   0  0  0  0  0  0  0  0  0  0  0  0
   -2.2459   -0.9827    0.4007 O   0  0  0  0  0  0  0  0  0  0  0  0
   -1.7457    0.1653    1.0228 C   0  0  0  0  0  0  0  0  0  0  0  0
    3.1552    0.7423    0.3794 H   0  0  0  0  0  0  0  0  0  0  0  0
    2.4680   -0.7830   -0.3996 H   0  0  0  0  0  0  0  0  0  0  0  0
    0.4803    1.7709    0.8555 H   0  0  0  0  0  0  0  0  0  0  0  0
   -0.3941    1.9336   -0.6770 H   0  0  0  0  0  0  0  0  0  0  0  0
    0.0679   -1.4295    1.7973 H   0  0  0  0  0  0  0  0  0  0  0  0
    0.9445   -1.7145    0.2003 H   0  0  0  0  0  0  0  0  0  0  0  0
   -1.9426    0.0962   -1.3058 H   0  0  0  0  0  0  0  0  0  0  0  0
   -1.0965   -1.5567   -1.2583 H   0  0  0  0  0  0  0  0  0  0  0  0
   -1.6014    0.1010    2.1067 H   0  0  0  0  0  0  0  0  0  0  0  0
   -2.2077    1.1203    0.6776 H   0  0  0  0  0  0  0  0  0  0  0  0
  1  2  1  0
  2  3  1  0
  3  4  1  0
  4  5  1  0
  5  6  1  0
  4  7  1  0
  7  8  1  0
  8  9  1  0
  6  1  1  0
  9  4  1  0
  1 10  1  0
  1 11  1  0
  3 12  1  0
  3 13  1  0
  5 14  1  0
  5 15  1  0
  7 16  1  0
  7 17  1  0
  9 18  1  0
  9 19  1  0
M  END
