
     RDKit          3D

 16 18  0  0  0  0  0  0  0  0999 V2000
    1.8402    0.1222   -0.7926 C   0  0  0  0  0  0  0  0  0  0  0  0
    1.0972    1.0530   -0.0916 O   0  0  0  0  0  0  0  0  0  0  0  0
    0.4252    0.3806    0.9200 C   0  0  0  0  0  0  0  0  0  0  0  0
   -1.0597    0.5445    0.7757 C   0  0  0  0  0  0  0  0  0  0  0  0
   -1.5408    0.6041   -0.6395 C   0  0  0  0  0  0  0  0  0  0  0  0
   -1.1341   -0.7085   -0.0978 C   0  0  0  0  0  0  0  0  0  0  0  0
    0.2638   -1.0009    0.3108 C   0  0  0  0  0  0  0  0  0  0  0  0
    1.1906   -1.0988   -0.6937 O   0  0  0  0  0  0  0  0  0  0  0  0
    1.9312    0.3497   -1.8753 H   0  0  0  0  0  0  0  0  0  0  0  0
    2.8390    0.0623   -0.2930 H   0  0  0  0  0  0  0  0  0  0  0  0
    0.8473    0.4243    1.9191 H   0  0  0  0  0  0  0  0  0  0  0  0
   -1.7281    0.5781    1.6279 H   0  0  0  0  0  0  0  0  0  0  0  0
   -2.5952    0.8259   -0.7673 H   0  0  0  0  0  0  0  0  0  0  0  0
   -0.8797    1.1586   -1.3505 H   0  0  0  0  0  0  0  0  0  0  0  0
   -1.8768   -1.4787    0.1347 H   0  0  0  0  0  0  0  0  0  0  0  0
    0.3799   -1.8164    1.0513 H   0  0  0  0  0  0  0  0  0  0  0  0
  1  2  1  0
  2  3  1  0
  3  4  1  0
  4  5  1  0
  5  6  1  0
  6  7  1  0
  7  8  1  0
  8  1  1  0
  7  3  1  0
  6  4  1  0
  1  9  1  0
  1 10  1  0
  3 11  1  0
  4 12  1  0
  5 13  1  0
  5 14  1  0
  6 15  1  0
  7 16  1  0
M  END
