
     RDKit          3D

 19 21  0  0  0  0  0  0  0  0999 V2000
    1.6491   -0.2907    0.4013 C   0  0  0  0  0  0  0  0  0  0  0  0
    1.2067   -1.1011   -0.6256 O   0  0  0  0  0  0  0  0  0  0  0  0
   -0.1257   -1.4303   -0.5574 C   0  0  0  0  0  0  0  0  0  0  0  0
   -0.9045   -0.7071    0.4676 C   0  0  0  0  0  0  0  0  0  0  0  0
   -2.0301    0.1802    0.2171 C   0  0  0  0  0  0  0  0  0  0  0  0
   -0.7535    0.7817    0.2287 C   0  0  0  0  0  0  0  0  0  0  0  0
    0.1603    1.1428   -0.8534 C   0  0  0  0  0  0  0  0  0  0  0  0
    1.1125    1.1070    0.3534 C   0  0  0  0  0  0  0  0  0  0  0  0
    0.0065    1.2731    1.2238 O   0  0  0  0  0  0  0  0  0  0  0  0
    1.5136   -0.7397    1.4097 H   0  0  0  0  0  0  0  0  0  0  0  0
    2.7673   -0.2074    0.2705 H   0  0  0  0  0  0  0  0  0  0  0  0
   -0.6094   -1.3504   -1.5617 H   0  0  0  0  0  0  0  0  0  0  0  0
   -0.1766   -2.5323   -0.3145 H   0  0  0  0  0  0  0  0  0  0  0  0
   -0.7629   -1.0876    1.5145 H   0  0  0  0  0  0  0  0  0  0  0  0
   -2.5824    0.1222   -0.7610 H   0  0  0  0  0  0  0  0  0  0  0  0
   -2.7371    0.3526    1.0576 H   0  0  0  0  0  0  0  0  0  0  0  0
    0.0341    2.1438   -1.2491 H   0  0  0  0  0  0  0  0  0  0  0  0
    0.4138    0.4131   -1.6290 H   0  0  0  0  0  0  0  0  0  0  0  0
    1.8183    1.9299    0.4076 H   0  0  0  0  0  0  0  0  0  0  0  0
  1  2  1  0
  2  3  1  0
  3  4  1  0
  4  5  1  0
  5  6  1  0
  6  7  1  0
  7  8  1  0
  8  9  1  0
  8  1  1  0
  6  4  1  0
  9  6  1  0
  1 10  1  0
  1 11  1  0
  3 12  1  0
  3 13  1  0
  4 14  1  0
  5 15  1  0
  5 16  1  0
  7 17  1  0
  7 18  1  0
  8 19  1  0
M  END
