
     RDKit          3D

 16 18  0  0  0  0  0  0  0  0999 V2000
    2.0814    0.3910    0.0582 C   0  0  0  0  0  0  0  0  0  0  0  0
    2.1774   -0.8190   -0.6059 O   0  0  0  0  0  0  0  0  0  0  0  0
    1.2968   -0.8516    0.4511 C   0  0  0  0  0  0  0  0  0  0  0  0
   -0.1672   -0.6974    0.2901 C   0  0  0  0  0  0  0  0  0  0  0  0
   -0.8133    0.1768    1.3580 C   0  0  0  0  0  0  0  0  0  0  0  0
   -1.8442    0.5579    0.3169 C   0  0  0  0  0  0  0  0  0  0  0  0
   -0.9550   -0.1905   -0.6880 C   0  0  0  0  0  0  0  0  0  0  0  0
   -0.9312   -1.5435   -0.4622 O   0  0  0  0  0  0  0  0  0  0  0  0
    2.8192    0.6918    0.8090 H   0  0  0  0  0  0  0  0  0  0  0  0
    1.5964    1.1909   -0.4955 H   0  0  0  0  0  0  0  0  0  0  0  0
    1.6285   -1.4317    1.3162 H   0  0  0  0  0  0  0  0  0  0  0  0
   -0.1923    1.0772    1.5855 H   0  0  0  0  0  0  0  0  0  0  0  0
   -1.1664   -0.4036    2.2075 H   0  0  0  0  0  0  0  0  0  0  0  0
   -2.7835   -0.0196    0.4940 H   0  0  0  0  0  0  0  0  0  0  0  0
   -1.9471    1.6208    0.1171 H   0  0  0  0  0  0  0  0  0  0  0  0
   -0.7995    0.2506   -1.6711 H   0  0  0  0  0  0  0  0  0  0  0  0
  1  2  1  0
  2  3  1  0
  3  4  1  0
  4  5  1  0
  5  6  1  0
  6  7  1  0
  7  8  1  0
  3  1  1  0
  7  4  1  0
  8  4  1  0
  1  9  1  0
  1 10  1  0
  3 11  1  0
  5 12  1  0
  5 13  1  0
  6 14  1  0
  6 15  1  0
  7 16  1  0
M  END
