
     RDKit          3D

 19 21  0  0  0  0  0  0  0  0999 V2000
   -0.5550    1.5473    0.2743 C   0  0  0  0  0  0  0  0  0  0  0  0
    0.8284    1.3780    0.5244 O   0  0  0  0  0  0  0  0  0  0  0  0
    1.3963    0.4751   -0.3210 C   0  0  0  0  0  0  0  0  0  0  0  0
    2.0765   -0.7553    0.0690 C   0  0  0  0  0  0  0  0  0  0  0  0
    0.6716   -0.8809   -0.0915 C   0  0  0  0  0  0  0  0  0  0  0  0
   -0.3428   -0.7405    1.0310 C   0  0  0  0  0  0  0  0  0  0  0  0
   -1.2890    0.2194    0.2876 C   0  0  0  0  0  0  0  0  0  0  0  0
   -1.2751   -0.4340   -1.0887 C   0  0  0  0  0  0  0  0  0  0  0  0
   -0.0990   -1.2206   -1.1390 O   0  0  0  0  0  0  0  0  0  0  0  0
   -0.9428    2.1199    1.1611 H   0  0  0  0  0  0  0  0  0  0  0  0
   -0.7389    2.1353   -0.6260 H   0  0  0  0  0  0  0  0  0  0  0  0
    1.5398    0.8045   -1.3711 H   0  0  0  0  0  0  0  0  0  0  0  0
    2.7657   -1.2289   -0.6399 H   0  0  0  0  0  0  0  0  0  0  0  0
    2.4806   -0.7951    1.1240 H   0  0  0  0  0  0  0  0  0  0  0  0
   -0.8596   -1.6867    1.1223 H   0  0  0  0  0  0  0  0  0  0  0  0
    0.0606   -0.3037    1.9363 H   0  0  0  0  0  0  0  0  0  0  0  0
   -2.2741    0.2624    0.7384 H   0  0  0  0  0  0  0  0  0  0  0  0
   -1.3330    0.2831   -1.9060 H   0  0  0  0  0  0  0  0  0  0  0  0
   -2.1101   -1.1793   -1.0852 H   0  0  0  0  0  0  0  0  0  0  0  0
  1  2  1  0
  2  3  1  0
  3  4  1  0
  4  5  1  0
  5  6  1  0
  6  7  1  0
  7  8  1  0
  8  9  1  0
  7  1  1  0
  5  3  1  0
  9  5  1  0
  1 10  1  0
  1 11  1  0
  3 12  1  0
  4 13  1  0
  4 14  1  0
  6 15  1  0
  6 16  1  0
  7 17  1  0
  8 18  1  0
  8 19  1  0
M  END
