
     RDKit          3D

 19 21  0  0  0  0  0  0  0  0999 V2000
   -1.4425    1.0193   -0.5064 C   0  0  0  0  0  0  0  0  0  0  0  0
   -1.0134    1.0569    0.8334 O   0  0  0  0  0  0  0  0  0  0  0  0
   -0.3279   -0.1417    1.0128 C   0  0  0  0  0  0  0  0  0  0  0  0
   -1.3207   -1.1139    0.3488 C   0  0  0  0  0  0  0  0  0  0  0  0
   -1.2204   -0.3804   -1.0023 C   0  0  0  0  0  0  0  0  0  0  0  0
    0.1534   -0.5158   -1.2373 O   0  0  0  0  0  0  0  0  0  0  0  0
    0.7626   -0.1672   -0.0271 C   0  0  0  0  0  0  0  0  0  0  0  0
    1.7930    0.8786   -0.0779 C   0  0  0  0  0  0  0  0  0  0  0  0
    2.1254   -0.5533    0.3106 C   0  0  0  0  0  0  0  0  0  0  0  0
   -2.5364    1.2871   -0.4602 H   0  0  0  0  0  0  0  0  0  0  0  0
   -0.9734    1.7957   -1.1224 H   0  0  0  0  0  0  0  0  0  0  0  0
   -0.0604   -0.3960    2.0079 H   0  0  0  0  0  0  0  0  0  0  0  0
   -2.3153   -1.0404    0.7816 H   0  0  0  0  0  0  0  0  0  0  0  0
   -0.9099   -2.1114    0.2381 H   0  0  0  0  0  0  0  0  0  0  0  0
   -1.8648   -0.7500   -1.7546 H   0  0  0  0  0  0  0  0  0  0  0  0
    1.8781    1.6749    0.6975 H   0  0  0  0  0  0  0  0  0  0  0  0
    2.1291    1.2454   -1.0781 H   0  0  0  0  0  0  0  0  0  0  0  0
    2.3249   -0.7344    1.4075 H   0  0  0  0  0  0  0  0  0  0  0  0
    2.8187   -1.0533   -0.3719 H   0  0  0  0  0  0  0  0  0  0  0  0
  1  2  1  0
  2  3  1  0
  3  4  1  0
  4  5  1  0
  5  6  1  0
  6  7  1  0
  7  8  1  0
  8  9  1  0
  5  1  1  0
  9  7  1  0
  7  3  1  0
  1 10  1  0
  1 11  1  0
  3 12  1  0
  4 13  1  0
  4 14  1  0
  5 15  1  0
  8 16  1  0
  8 17  1  0
  9 18  1  0
  9 19  1  0
M  END
