
     RDKit          3D

 19 21  0  0  0  0  0  0  0  0999 V2000
    1.7053    0.0265   -0.5445 C   0  0  0  0  0  0  0  0  0  0  0  0
    1.6364   -1.3871   -0.5331 O   0  0  0  0  0  0  0  0  0  0  0  0
    0.4273   -1.2227    0.1868 C   0  0  0  0  0  0  0  0  0  0  0  0
   -0.6955   -1.0928   -0.7581 C   0  0  0  0  0  0  0  0  0  0  0  0
   -1.4737    0.1617   -0.7040 C   0  0  0  0  0  0  0  0  0  0  0  0
   -2.2349    0.2474    0.5341 O   0  0  0  0  0  0  0  0  0  0  0  0
   -1.2081    1.1424    0.2581 C   0  0  0  0  0  0  0  0  0  0  0  0
    0.0496    1.1097    1.0595 C   0  0  0  0  0  0  0  0  0  0  0  0
    0.9814    0.0118    0.7538 C   0  0  0  0  0  0  0  0  0  0  0  0
    2.7713    0.3202   -0.5316 H   0  0  0  0  0  0  0  0  0  0  0  0
    1.1085    0.4418   -1.3939 H   0  0  0  0  0  0  0  0  0  0  0  0
    0.3604   -2.0688    0.9274 H   0  0  0  0  0  0  0  0  0  0  0  0
   -1.4149   -1.9423   -0.5564 H   0  0  0  0  0  0  0  0  0  0  0  0
   -0.3970   -1.2627   -1.8347 H   0  0  0  0  0  0  0  0  0  0  0  0
   -2.0675    0.4060   -1.6213 H   0  0  0  0  0  0  0  0  0  0  0  0
   -1.5989    2.1810    0.0740 H   0  0  0  0  0  0  0  0  0  0  0  0
   -0.2252    1.0484    2.1454 H   0  0  0  0  0  0  0  0  0  0  0  0
    0.6010    2.0729    0.9420 H   0  0  0  0  0  0  0  0  0  0  0  0
    1.6744   -0.1934    1.5966 H   0  0  0  0  0  0  0  0  0  0  0  0
  1  2  1  0
  2  3  1  0
  3  4  1  0
  4  5  1  0
  5  6  1  0
  6  7  1  0
  7  8  1  0
  8  9  1  0
  9  1  1  0
  9  3  1  0
  7  5  1  0
  1 10  1  0
  1 11  1  0
  3 12  1  0
  4 13  1  0
  4 14  1  0
  5 15  1  0
  7 16  1  0
  8 17  1  0
  8 18  1  0
  9 19  1  0
M  END
