
     RDKit          3D

 19 21  0  0  0  0  0  0  0  0999 V2000
   -0.9494   -0.2995   -1.3129 C   0  0  0  0  0  0  0  0  0  0  0  0
   -0.6578    1.0358   -1.2630 O   0  0  0  0  0  0  0  0  0  0  0  0
   -0.2876    1.3716    0.0267 C   0  0  0  0  0  0  0  0  0  0  0  0
   -1.0514    0.4091    0.9046 C   0  0  0  0  0  0  0  0  0  0  0  0
   -0.8362   -0.8676    0.0765 C   0  0  0  0  0  0  0  0  0  0  0  0
    0.5861   -1.2811    0.2973 C   0  0  0  0  0  0  0  0  0  0  0  0
    1.5637   -0.2081    0.0130 C   0  0  0  0  0  0  0  0  0  0  0  0
    1.7638    0.6084    1.2519 O   0  0  0  0  0  0  0  0  0  0  0  0
    1.1903    1.1528    0.1451 C   0  0  0  0  0  0  0  0  0  0  0  0
   -1.9709   -0.4872   -1.7311 H   0  0  0  0  0  0  0  0  0  0  0  0
   -0.2334   -0.8218   -1.9777 H   0  0  0  0  0  0  0  0  0  0  0  0
   -0.6055    2.3995    0.2361 H   0  0  0  0  0  0  0  0  0  0  0  0
   -2.1015    0.6850    0.9602 H   0  0  0  0  0  0  0  0  0  0  0  0
   -0.6176    0.2864    1.8968 H   0  0  0  0  0  0  0  0  0  0  0  0
   -1.5590   -1.6268    0.3286 H   0  0  0  0  0  0  0  0  0  0  0  0
    0.6519   -1.6688    1.3468 H   0  0  0  0  0  0  0  0  0  0  0  0
    0.7734   -2.1698   -0.3653 H   0  0  0  0  0  0  0  0  0  0  0  0
    2.5455   -0.4508   -0.4708 H   0  0  0  0  0  0  0  0  0  0  0  0
    1.7954    1.9330   -0.3628 H   0  0  0  0  0  0  0  0  0  0  0  0
  1  2  1  0
  2  3  1  0
  3  4  1  0
  4  5  1  0
  5  6  1  0
  6  7  1  0
  7  8  1  0
  8  9  1  0
  5  1  1  0
  9  7  1  0
  9  3  1  0
  1 10  1  0
  1 11  1  0
  3 12  1  0
  4 13  1  0
  4 14  1  0
  5 15  1  0
  6 16  1  0
  6 17  1  0
  7 18  1  0
  9 19  1  0
M  END
