
     RDKit          3D

 17 19  0  0  0  0  0  0  0  0999 V2000
    2.8259   -0.4838   -0.1545 C   0  0  0  0  0  0  0  0  0  0  0  0
    2.5106    0.6559   -0.9399 O   0  0  0  0  0  0  0  0  0  0  0  0
    1.5776    0.2892    0.0545 C   0  0  0  0  0  0  0  0  0  0  0  0
    0.2722   -0.2959   -0.4338 C   0  0  0  0  0  0  0  0  0  0  0  0
   -0.4509    0.6850   -1.3115 O   0  0  0  0  0  0  0  0  0  0  0  0
   -0.9734    0.1777   -0.1665 C   0  0  0  0  0  0  0  0  0  0  0  0
   -2.2000   -0.6819   -0.1440 C   0  0  0  0  0  0  0  0  0  0  0  0
   -2.6153    0.0158    0.9913 O   0  0  0  0  0  0  0  0  0  0  0  0
   -1.5743    0.9705    0.9113 C   0  0  0  0  0  0  0  0  0  0  0  0
    2.7347   -1.4528   -0.6991 H   0  0  0  0  0  0  0  0  0  0  0  0
    3.6875   -0.4094    0.5277 H   0  0  0  0  0  0  0  0  0  0  0  0
    1.5270    1.0432    0.8663 H   0  0  0  0  0  0  0  0  0  0  0  0
    0.4266   -1.2615   -0.9939 H   0  0  0  0  0  0  0  0  0  0  0  0
   -2.8158   -0.5043   -1.0417 H   0  0  0  0  0  0  0  0  0  0  0  0
   -1.9059   -1.7417    0.0381 H   0  0  0  0  0  0  0  0  0  0  0  0
   -2.0391    1.9467    0.6513 H   0  0  0  0  0  0  0  0  0  0  0  0
   -0.9873    1.0473    1.8442 H   0  0  0  0  0  0  0  0  0  0  0  0
  1  2  1  0
  2  3  1  0
  3  4  1  0
  4  5  1  0
  5  6  1  0
  6  7  1  0
  7  8  1  0
  8  9  1  0
  3  1  1  0
  6  4  1  0
  9  6  1  0
  1 10  1  0
  1 11  1  0
  3 12  1  0
  4 13  1  0
  7 14  1  0
  7 15  1  0
  9 16  1  0
  9 17  1  0
M  END
