
     RDKit          3D

 19 21  0  0  0  0  0  0  0  0999 V2000
   -1.0707   -0.3203    1.3102 C   0  0  0  0  0  0  0  0  0  0  0  0
   -2.2226   -0.8916    0.7133 O   0  0  0  0  0  0  0  0  0  0  0  0
   -1.5650   -0.9691   -0.5397 C   0  0  0  0  0  0  0  0  0  0  0  0
   -0.6296    0.0297   -0.0346 C   0  0  0  0  0  0  0  0  0  0  0  0
   -0.7333    1.4407   -0.5083 C   0  0  0  0  0  0  0  0  0  0  0  0
    0.3828    1.1702   -1.3411 O   0  0  0  0  0  0  0  0  0  0  0  0
    0.7224    0.1806   -0.4462 C   0  0  0  0  0  0  0  0  0  0  0  0
    1.9115    0.4369    0.3863 C   0  0  0  0  0  0  0  0  0  0  0  0
    1.8075   -0.7478   -0.5597 C   0  0  0  0  0  0  0  0  0  0  0  0
   -0.5003   -1.1451    1.8022 H   0  0  0  0  0  0  0  0  0  0  0  0
   -1.2874    0.5430    1.9464 H   0  0  0  0  0  0  0  0  0  0  0  0
   -1.2249   -2.0015   -0.6707 H   0  0  0  0  0  0  0  0  0  0  0  0
   -2.2206   -0.6533   -1.3844 H   0  0  0  0  0  0  0  0  0  0  0  0
   -1.6392    1.7386   -1.0437 H   0  0  0  0  0  0  0  0  0  0  0  0
   -0.4510    2.1391    0.3210 H   0  0  0  0  0  0  0  0  0  0  0  0
    2.6370    1.2539    0.1047 H   0  0  0  0  0  0  0  0  0  0  0  0
    1.9033    0.2660    1.4748 H   0  0  0  0  0  0  0  0  0  0  0  0
    2.4623   -0.7336   -1.4747 H   0  0  0  0  0  0  0  0  0  0  0  0
    1.7177   -1.7365   -0.0559 H   0  0  0  0  0  0  0  0  0  0  0  0
  1  2  1  0
  2  3  1  0
  3  4  1  0
  4  5  1  0
  5  6  1  0
  6  7  1  0
  7  8  1  0
  8  9  1  0
  4  1  1  0
  9  7  1  0
  7  4  1  0
  1 10  1  0
  1 11  1  0
  3 12  1  0
  3 13  1  0
  5 14  1  0
  5 15  1  0
  8 16  1  0
  8 17  1  0
  9 18  1  0
  9 19  1  0
M  END
