
     RDKit          3D

 17 20  0  0  0  0  0  0  0  0999 V2000
    1.8863   -0.2719    0.2694 C   0  0  0  0  0  0  0  0  0  0  0  0
    1.5568    0.4438   -0.8387 O   0  0  0  0  0  0  0  0  0  0  0  0
    0.2307    0.7574   -0.9865 C   0  0  0  0  0  0  0  0  0  0  0  0
   -0.5719   -0.5020   -0.9122 C   0  0  0  0  0  0  0  0  0  0  0  0
   -0.2225   -1.2301    0.3960 C   0  0  0  0  0  0  0  0  0  0  0  0
    1.1163   -1.3377    0.5830 O   0  0  0  0  0  0  0  0  0  0  0  0
   -0.8845   -0.0033    1.0611 C   0  0  0  0  0  0  0  0  0  0  0  0
   -0.4822    1.1977    0.2909 C   0  0  0  0  0  0  0  0  0  0  0  0
   -1.6037    0.1997   -0.1477 C   0  0  0  0  0  0  0  0  0  0  0  0
    1.9951    0.4528    1.1284 H   0  0  0  0  0  0  0  0  0  0  0  0
    2.9420   -0.6502    0.1153 H   0  0  0  0  0  0  0  0  0  0  0  0
    0.0444    1.3722   -1.8621 H   0  0  0  0  0  0  0  0  0  0  0  0
   -0.7633   -1.0876   -1.7688 H   0  0  0  0  0  0  0  0  0  0  0  0
   -0.7645   -2.1558    0.5639 H   0  0  0  0  0  0  0  0  0  0  0  0
   -1.1860   -0.0297    2.0821 H   0  0  0  0  0  0  0  0  0  0  0  0
   -0.7916    2.2043    0.4611 H   0  0  0  0  0  0  0  0  0  0  0  0
   -2.5013    0.6405   -0.4352 H   0  0  0  0  0  0  0  0  0  0  0  0
  1  2  1  0
  2  3  1  0
  3  4  1  0
  4  5  1  0
  5  6  1  0
  5  7  1  0
  7  8  1  0
  8  9  1  0
  6  1  1  0
  9  7  1  0
  8  3  1  0
  9  4  1  0
  1 10  1  0
  1 11  1  0
  3 12  1  0
  4 13  1  0
  5 14  1  0
  7 15  1  0
  8 16  1  0
  9 17  1  0
M  END
