
     RDKit          3D

 21 23  0  0  0  0  0  0  0  0999 V2000
    3.1129    0.3794    0.3603 C   0  0  0  0  0  0  0  0  0  0  0  0
    2.2939    1.4898    0.6999 O   0  0  0  0  0  0  0  0  0  0  0  0
    1.7687    0.4448   -0.0886 C   0  0  0  0  0  0  0  0  0  0  0  0
    0.7167   -0.3794    0.6231 C   0  0  0  0  0  0  0  0  0  0  0  0
   -0.5334   -0.2253    0.0942 C   0  0  0  0  0  0  0  0  0  0  0  0
   -1.8037   -0.9101    0.5772 C   0  0  0  0  0  0  0  0  0  0  0  0
   -2.2679   -0.0131   -0.5491 C   0  0  0  0  0  0  0  0  0  0  0  0
   -1.0391   -0.4852   -1.2751 C   0  0  0  0  0  0  0  0  0  0  0  0
   -1.3697    1.0262    0.0651 C   0  0  0  0  0  0  0  0  0  0  0  0
    3.3933   -0.3179    1.1745 H   0  0  0  0  0  0  0  0  0  0  0  0
    3.9947    0.7113   -0.2288 H   0  0  0  0  0  0  0  0  0  0  0  0
    1.5527    0.6664   -1.1550 H   0  0  0  0  0  0  0  0  0  0  0  0
    0.7861   -0.1819    1.7158 H   0  0  0  0  0  0  0  0  0  0  0  0
    1.0921   -1.4475    0.5471 H   0  0  0  0  0  0  0  0  0  0  0  0
   -1.8562   -1.9825    0.3374 H   0  0  0  0  0  0  0  0  0  0  0  0
   -2.1577   -0.5990    1.5698 H   0  0  0  0  0  0  0  0  0  0  0  0
   -3.1947    0.0950   -0.8972 H   0  0  0  0  0  0  0  0  0  0  0  0
   -0.6689    0.1707   -2.0873 H   0  0  0  0  0  0  0  0  0  0  0  0
   -1.1045   -1.5596   -1.5062 H   0  0  0  0  0  0  0  0  0  0  0  0
   -1.0130    1.8212   -0.5997 H   0  0  0  0  0  0  0  0  0  0  0  0
   -1.7024    1.2966    1.0659 H   0  0  0  0  0  0  0  0  0  0  0  0
  1  2  1  0
  2  3  1  0
  3  4  1  0
  4  5  1  0
  5  6  1  0
  6  7  1  0
  7  8  1  0
  7  9  1  0
  3  1  1  0
  8  5  1  0
  9  5  1  0
  1 10  1  0
  1 11  1  0
  3 12  1  0
  4 13  1  0
  4 14  1  0
  6 15  1  0
  6 16  1  0
  7 17  1  0
  8 18  1  0
  8 19  1  0
  9 20  1  0
  9 21  1  0
M  END
