
     RDKit          3D

 16 18  0  0  0  0  0  0  0  0999 V2000
   -1.5407    0.1143   -0.6885 C   0  0  0  0  0  0  0  0  0  0  0  0
   -1.1656    1.3959   -0.3445 O   0  0  0  0  0  0  0  0  0  0  0  0
    0.1097    1.3062    0.2420 C   0  0  0  0  0  0  0  0  0  0  0  0
    1.0053    1.0624   -0.7699 O   0  0  0  0  0  0  0  0  0  0  0  0
    1.5780   -0.1684   -0.5896 C   0  0  0  0  0  0  0  0  0  0  0  0
    0.6440   -0.9760    0.2437 C   0  0  0  0  0  0  0  0  0  0  0  0
   -0.8159   -0.8471    0.1920 C   0  0  0  0  0  0  0  0  0  0  0  0
   -0.0290    0.0542    1.0646 C   0  0  0  0  0  0  0  0  0  0  0  0
   -1.4410   -0.1228   -1.7510 H   0  0  0  0  0  0  0  0  0  0  0  0
   -2.6381    0.0424   -0.4463 H   0  0  0  0  0  0  0  0  0  0  0  0
    0.3278    2.2011    0.8244 H   0  0  0  0  0  0  0  0  0  0  0  0
    1.8552   -0.6214   -1.5505 H   0  0  0  0  0  0  0  0  0  0  0  0
    2.5156   -0.0115    0.0210 H   0  0  0  0  0  0  0  0  0  0  0  0
    1.0681   -1.8642    0.7138 H   0  0  0  0  0  0  0  0  0  0  0  0
   -1.4050   -1.6273    0.6995 H   0  0  0  0  0  0  0  0  0  0  0  0
   -0.0683    0.0622    2.1393 H   0  0  0  0  0  0  0  0  0  0  0  0
  1  2  1  0
  2  3  1  0
  3  4  1  0
  4  5  1  0
  5  6  1  0
  6  7  1  0
  7  8  1  0
  7  1  1  0
  8  3  1  0
  8  6  1  0
  1  9  1  0
  1 10  1  0
  3 11  1  0
  5 12  1  0
  5 13  1  0
  6 14  1  0
  7 15  1  0
  8 16  1  0
M  END
