
     RDKit          3D

 19 21  0  0  0  0  0  0  0  0999 V2000
    1.8269    0.0247    0.0418 C   0  0  0  0  0  0  0  0  0  0  0  0
    1.3285    1.0108    0.8966 O   0  0  0  0  0  0  0  0  0  0  0  0
   -0.0762    1.0682    0.7297 C   0  0  0  0  0  0  0  0  0  0  0  0
   -0.2701    1.0860   -0.7990 C   0  0  0  0  0  0  0  0  0  0  0  0
   -0.3991   -0.4300   -0.9869 C   0  0  0  0  0  0  0  0  0  0  0  0
   -1.5593   -0.6364    0.0043 C   0  0  0  0  0  0  0  0  0  0  0  0
   -0.6933   -0.2283    1.2109 C   0  0  0  0  0  0  0  0  0  0  0  0
    0.2525   -1.2629    1.1090 O   0  0  0  0  0  0  0  0  0  0  0  0
    0.7291   -1.0266   -0.2005 C   0  0  0  0  0  0  0  0  0  0  0  0
    2.5939   -0.5325    0.6572 H   0  0  0  0  0  0  0  0  0  0  0  0
    2.2376    0.4035   -0.8882 H   0  0  0  0  0  0  0  0  0  0  0  0
   -0.5156    1.9524    1.1876 H   0  0  0  0  0  0  0  0  0  0  0  0
    0.5803    1.5085   -1.3202 H   0  0  0  0  0  0  0  0  0  0  0  0
   -1.2362    1.5658   -1.0014 H   0  0  0  0  0  0  0  0  0  0  0  0
   -0.5741   -0.7643   -1.9673 H   0  0  0  0  0  0  0  0  0  0  0  0
   -1.7924   -1.6940    0.0064 H   0  0  0  0  0  0  0  0  0  0  0  0
   -2.3768    0.0547   -0.1675 H   0  0  0  0  0  0  0  0  0  0  0  0
   -1.2249   -0.1814    2.1303 H   0  0  0  0  0  0  0  0  0  0  0  0
    1.1692   -1.9182   -0.6425 H   0  0  0  0  0  0  0  0  0  0  0  0
  1  2  1  0
  2  3  1  0
  3  4  1  0
  4  5  1  0
  5  6  1  0
  6  7  1  0
  7  8  1  0
  8  9  1  0
  9  1  1  0
  7  3  1  0
  9  5  1  0
  1 10  1  0
  1 11  1  0
  3 12  1  0
  4 13  1  0
  4 14  1  0
  5 15  1  0
  6 16  1  0
  6 17  1  0
  7 18  1  0
  9 19  1  0
M  END
