
     RDKit          3D

 19 21  0  0  0  0  0  0  0  0999 V2000
   -0.8636    1.4295   -0.0200 C   0  0  0  0  0  0  0  0  0  0  0  0
    0.0268    1.3151    1.0219 O   0  0  0  0  0  0  0  0  0  0  0  0
    1.0273    0.3935    0.7994 C   0  0  0  0  0  0  0  0  0  0  0  0
    1.4770    0.4260   -0.6682 C   0  0  0  0  0  0  0  0  0  0  0  0
    0.3487   -0.5334   -0.9171 C   0  0  0  0  0  0  0  0  0  0  0  0
   -0.9992    0.1683   -0.8392 C   0  0  0  0  0  0  0  0  0  0  0  0
   -1.7437   -0.7332   -0.0888 O   0  0  0  0  0  0  0  0  0  0  0  0
   -0.9325   -1.2355    0.9015 C   0  0  0  0  0  0  0  0  0  0  0  0
    0.4942   -0.9949    0.5154 C   0  0  0  0  0  0  0  0  0  0  0  0
   -1.8758    1.6143    0.4438 H   0  0  0  0  0  0  0  0  0  0  0  0
   -0.6738    2.3306   -0.6485 H   0  0  0  0  0  0  0  0  0  0  0  0
    1.8935    0.4683    1.4429 H   0  0  0  0  0  0  0  0  0  0  0  0
    1.4088    1.3994   -1.1501 H   0  0  0  0  0  0  0  0  0  0  0  0
    2.4486   -0.0996   -0.8072 H   0  0  0  0  0  0  0  0  0  0  0  0
    0.4675   -1.2738   -1.6940 H   0  0  0  0  0  0  0  0  0  0  0  0
   -1.4450    0.3635   -1.8100 H   0  0  0  0  0  0  0  0  0  0  0  0
   -1.0799   -2.3557    0.8960 H   0  0  0  0  0  0  0  0  0  0  0  0
   -1.1984   -0.9047    1.9101 H   0  0  0  0  0  0  0  0  0  0  0  0
    1.2196   -1.7776    0.7120 H   0  0  0  0  0  0  0  0  0  0  0  0
  1  2  1  0
  2  3  1  0
  3  4  1  0
  4  5  1  0
  5  6  1  0
  6  7  1  0
  7  8  1  0
  8  9  1  0
  6  1  1  0
  9  3  1  0
  9  5  1  0
  1 10  1  0
  1 11  1  0
  3 12  1  0
  4 13  1  0
  4 14  1  0
  5 15  1  0
  6 16  1  0
  8 17  1  0
  8 18  1  0
  9 19  1  0
M  END
