
     RDKit          3D

 17 19  0  0  0  0  0  0  0  0999 V2000
    2.0724   -0.2227   -0.0028 C   0  0  0  0  0  0  0  0  0  0  0  0
    1.3303    0.0215    1.1423 O   0  0  0  0  0  0  0  0  0  0  0  0
    0.0623    0.3609    0.6811 C   0  0  0  0  0  0  0  0  0  0  0  0
   -1.1166   -0.3297    1.2605 C   0  0  0  0  0  0  0  0  0  0  0  0
   -1.9036   -0.8247    0.2689 O   0  0  0  0  0  0  0  0  0  0  0  0
   -1.2610   -0.7553   -0.9314 C   0  0  0  0  0  0  0  0  0  0  0  0
    0.0109    0.0037   -0.7712 C   0  0  0  0  0  0  0  0  0  0  0  0
   -0.0428    1.4111   -0.3320 C   0  0  0  0  0  0  0  0  0  0  0  0
    1.1785   -0.6759   -0.9776 O   0  0  0  0  0  0  0  0  0  0  0  0
    2.5273    0.7092   -0.4241 H   0  0  0  0  0  0  0  0  0  0  0  0
    2.8485   -0.9871    0.2397 H   0  0  0  0  0  0  0  0  0  0  0  0
   -1.6860    0.4170    1.8773 H   0  0  0  0  0  0  0  0  0  0  0  0
   -0.7985   -1.1313    1.9466 H   0  0  0  0  0  0  0  0  0  0  0  0
   -1.9032   -0.2384   -1.6983 H   0  0  0  0  0  0  0  0  0  0  0  0
   -1.0590   -1.7660   -1.3703 H   0  0  0  0  0  0  0  0  0  0  0  0
    0.7923    2.1129   -0.4754 H   0  0  0  0  0  0  0  0  0  0  0  0
   -1.0519    1.8949   -0.4336 H   0  0  0  0  0  0  0  0  0  0  0  0
  1  2  1  0
  2  3  1  0
  3  4  1  0
  4  5  1  0
  5  6  1  0
  6  7  1  0
  7  8  1  0
  7  9  1  0
  9  1  1  0
  7  3  1  0
  8  3  1  0
  1 10  1  0
  1 11  1  0
  4 12  1  0
  4 13  1  0
  6 14  1  0
  6 15  1  0
  8 16  1  0
  8 17  1  0
M  END
