
     RDKit          3D

 19 21  0  0  0  0  0  0  0  0999 V2000
    2.1121   -0.3421    0.5390 C   0  0  0  0  0  0  0  0  0  0  0  0
    2.5408    0.3739   -0.5747 O   0  0  0  0  0  0  0  0  0  0  0  0
    1.4509    0.8786   -1.2277 C   0  0  0  0  0  0  0  0  0  0  0  0
    0.2622    0.2200   -0.6189 C   0  0  0  0  0  0  0  0  0  0  0  0
    0.6653   -0.4980    0.4284 C   0  0  0  0  0  0  0  0  0  0  0  0
   -0.5571   -1.1084    1.0132 C   0  0  0  0  0  0  0  0  0  0  0  0
   -1.4376    0.0939    0.8118 C   0  0  0  0  0  0  0  0  0  0  0  0
   -2.3344    0.5432   -0.1589 C   0  0  0  0  0  0  0  0  0  0  0  0
   -1.1706    0.0418   -0.7446 C   0  0  0  0  0  0  0  0  0  0  0  0
    2.4217    0.2769    1.4316 H   0  0  0  0  0  0  0  0  0  0  0  0
    2.6807   -1.2984    0.5671 H   0  0  0  0  0  0  0  0  0  0  0  0
    1.4408    0.6028   -2.3153 H   0  0  0  0  0  0  0  0  0  0  0  0
    1.3161    1.9652   -1.1339 H   0  0  0  0  0  0  0  0  0  0  0  0
   -0.4496   -1.4138    2.0538 H   0  0  0  0  0  0  0  0  0  0  0  0
   -0.8395   -1.9508    0.3383 H   0  0  0  0  0  0  0  0  0  0  0  0
   -0.9194    0.9404    1.3675 H   0  0  0  0  0  0  0  0  0  0  0  0
   -3.3145    0.0103   -0.2544 H   0  0  0  0  0  0  0  0  0  0  0  0
   -2.5411    1.6470   -0.2957 H   0  0  0  0  0  0  0  0  0  0  0  0
   -1.3269   -0.9825   -1.2267 H   0  0  0  0  0  0  0  0  0  0  0  0
  1  2  1  0
  2  3  1  0
  3  4  1  0
  4  5  2  0
  5  6  1  0
  6  7  1  0
  7  8  1  0
  8  9  1  0
  5  1  1  0
  9  7  1  0
  9  4  1  0
  1 10  1  0
  1 11  1  0
  3 12  1  0
  3 13  1  0
  6 14  1  0
  6 15  1  0
  7 16  1  0
  8 17  1  0
  8 18  1  0
  9 19  1  0
M  END
