
     RDKit          3D

 19 21  0  0  0  0  0  0  0  0999 V2000
    1.8522    0.0165   -0.1465 C   0  0  0  0  0  0  0  0  0  0  0  0
    1.4198    0.6992    1.0140 O   0  0  0  0  0  0  0  0  0  0  0  0
    0.0553    0.7862    1.0377 C   0  0  0  0  0  0  0  0  0  0  0  0
   -0.4262    1.2730   -0.2967 C   0  0  0  0  0  0  0  0  0  0  0  0
   -0.8234    0.0764   -1.0484 C   0  0  0  0  0  0  0  0  0  0  0  0
   -1.1463   -0.9729   -0.0845 C   0  0  0  0  0  0  0  0  0  0  0  0
   -0.6394   -0.5375    1.2705 C   0  0  0  0  0  0  0  0  0  0  0  0
    0.0323   -1.0808   -1.0731 C   0  0  0  0  0  0  0  0  0  0  0  0
    1.1549   -1.1379   -0.3433 O   0  0  0  0  0  0  0  0  0  0  0  0
    2.9141   -0.2874    0.0996 H   0  0  0  0  0  0  0  0  0  0  0  0
    1.9297    0.6814   -1.0103 H   0  0  0  0  0  0  0  0  0  0  0  0
   -0.2291    1.5210    1.8267 H   0  0  0  0  0  0  0  0  0  0  0  0
   -1.3569    1.8813   -0.0935 H   0  0  0  0  0  0  0  0  0  0  0  0
    0.2656    1.9663   -0.8001 H   0  0  0  0  0  0  0  0  0  0  0  0
   -1.5196    0.2349   -1.8915 H   0  0  0  0  0  0  0  0  0  0  0  0
   -1.9809   -1.6560   -0.1874 H   0  0  0  0  0  0  0  0  0  0  0  0
   -1.5036   -0.3805    1.9183 H   0  0  0  0  0  0  0  0  0  0  0  0
    0.0679   -1.2856    1.7163 H   0  0  0  0  0  0  0  0  0  0  0  0
   -0.0662   -1.7974   -1.9077 H   0  0  0  0  0  0  0  0  0  0  0  0
  1  2  1  0
  2  3  1  0
  3  4  1  0
  4  5  1  0
  5  6  1  0
  6  7  1  0
  6  8  1  0
  8  9  1  0
  9  1  1  0
  7  3  1  0
  8  5  1  0
  1 10  1  0
  1 11  1  0
  3 12  1  0
  4 13  1  0
  4 14  1  0
  5 15  1  0
  6 16  1  0
  7 17  1  0
  7 18  1  0
  8 19  1  0
M  END
