
     RDKit          3D

 16 18  0  0  0  0  0  0  0  0999 V2000
    2.1024    0.2231   -0.2724 C   0  0  0  0  0  0  0  0  0  0  0  0
    1.6571    0.5341    1.0812 O   0  0  0  0  0  0  0  0  0  0  0  0
    0.7195    0.1205   -0.0060 C   0  0  0  0  0  0  0  0  0  0  0  0
   -0.3120    1.1492   -0.3321 C   0  0  0  0  0  0  0  0  0  0  0  0
   -1.6508    0.5071   -0.0369 C   0  0  0  0  0  0  0  0  0  0  0  0
   -2.0257   -0.4495   -0.9646 O   0  0  0  0  0  0  0  0  0  0  0  0
   -1.4497   -0.9268    0.1985 C   0  0  0  0  0  0  0  0  0  0  0  0
    0.0303   -1.1757    0.2705 C   0  0  0  0  0  0  0  0  0  0  0  0
    2.7245   -0.7048   -0.3409 H   0  0  0  0  0  0  0  0  0  0  0  0
    2.5409    1.1287   -0.7487 H   0  0  0  0  0  0  0  0  0  0  0  0
   -0.2752    1.4099   -1.4201 H   0  0  0  0  0  0  0  0  0  0  0  0
   -0.1971    2.0965    0.2129 H   0  0  0  0  0  0  0  0  0  0  0  0
   -2.3905    1.0232    0.5843 H   0  0  0  0  0  0  0  0  0  0  0  0
   -2.1118   -1.4714    0.9145 H   0  0  0  0  0  0  0  0  0  0  0  0
    0.3922   -1.9238   -0.4457 H   0  0  0  0  0  0  0  0  0  0  0  0
    0.2460   -1.5404    1.3056 H   0  0  0  0  0  0  0  0  0  0  0  0
  1  2  1  0
  2  3  1  0
  3  4  1  0
  4  5  1  0
  5  6  1  0
  6  7  1  0
  7  8  1  0
  3  1  1  0
  7  5  1  0
  8  3  1  0
  1  9  1  0
  1 10  1  0
  4 11  1  0
  4 12  1  0
  5 13  1  0
  7 14  1  0
  8 15  1  0
  8 16  1  0
M  END
