
     RDKit          3D

 21 23  0  0  0  0  0  0  0  0999 V2000
    1.0072   -0.9191    1.0453 C   0  0  0  0  0  0  0  0  0  0  0  0
    1.7003    0.2428    0.9347 O   0  0  0  0  0  0  0  0  0  0  0  0
    1.0786    1.2913    0.3392 C   0  0  0  0  0  0  0  0  0  0  0  0
    0.2180    0.9436   -0.8396 C   0  0  0  0  0  0  0  0  0  0  0  0
    0.6656   -0.4430   -1.3156 C   0  0  0  0  0  0  0  0  0  0  0  0
    0.1531   -1.2746   -0.1342 C   0  0  0  0  0  0  0  0  0  0  0  0
   -1.2624   -0.7835   -0.0244 C   0  0  0  0  0  0  0  0  0  0  0  0
   -1.6369    0.3233    0.8855 C   0  0  0  0  0  0  0  0  0  0  0  0
   -1.2057    0.6948   -0.4751 C   0  0  0  0  0  0  0  0  0  0  0  0
    1.7633   -1.7550    1.1445 H   0  0  0  0  0  0  0  0  0  0  0  0
    0.4347   -0.9729    2.0173 H   0  0  0  0  0  0  0  0  0  0  0  0
    0.4806    1.9395    1.0170 H   0  0  0  0  0  0  0  0  0  0  0  0
    1.8884    1.9741   -0.0582 H   0  0  0  0  0  0  0  0  0  0  0  0
    0.2861    1.6911   -1.6361 H   0  0  0  0  0  0  0  0  0  0  0  0
    0.1913   -0.7294   -2.2597 H   0  0  0  0  0  0  0  0  0  0  0  0
    1.7741   -0.4623   -1.3632 H   0  0  0  0  0  0  0  0  0  0  0  0
    0.1939   -2.3477   -0.3641 H   0  0  0  0  0  0  0  0  0  0  0  0
   -2.0043   -1.3763   -0.5609 H   0  0  0  0  0  0  0  0  0  0  0  0
   -2.7342    0.4168    1.0753 H   0  0  0  0  0  0  0  0  0  0  0  0
   -1.0388    0.5183    1.7871 H   0  0  0  0  0  0  0  0  0  0  0  0
   -1.9526    1.0282   -1.2146 H   0  0  0  0  0  0  0  0  0  0  0  0
  1  2  1  0
  2  3  1  0
  3  4  1  0
  4  5  1  0
  5  6  1  0
  6  7  1  0
  7  8  1  0
  8  9  1  0
  6  1  1  0
  9  7  1  0
  9  4  1  0
  1 10  1  0
  1 11  1  0
  3 12  1  0
  3 13  1  0
  4 14  1  0
  5 15  1  0
  5 16  1  0
  6 17  1  0
  7 18  1  0
  8 19  1  0
  8 20  1  0
  9 21  1  0
M  END
