
     RDKit          3D

 19 21  0  0  0  0  0  0  0  0999 V2000
   -1.8317   -0.2069   -0.4844 C   0  0  0  0  0  0  0  0  0  0  0  0
   -0.9658   -0.0350   -1.5789 O   0  0  0  0  0  0  0  0  0  0  0  0
    0.3104   -0.2810   -1.1771 C   0  0  0  0  0  0  0  0  0  0  0  0
    0.8812    0.9974   -0.5376 C   0  0  0  0  0  0  0  0  0  0  0  0
   -0.1835    1.2685    0.5115 C   0  0  0  0  0  0  0  0  0  0  0  0
   -0.8878   -0.0722    0.6823 C   0  0  0  0  0  0  0  0  0  0  0  0
    0.2114   -1.0135    0.1779 C   0  0  0  0  0  0  0  0  0  0  0  0
    1.5429   -0.6793    0.7415 C   0  0  0  0  0  0  0  0  0  0  0  0
    2.0169    0.4684    0.0780 O   0  0  0  0  0  0  0  0  0  0  0  0
   -2.6644    0.4878   -0.4773 H   0  0  0  0  0  0  0  0  0  0  0  0
   -2.1966   -1.2698   -0.5111 H   0  0  0  0  0  0  0  0  0  0  0  0
    0.9810   -0.7525   -1.8637 H   0  0  0  0  0  0  0  0  0  0  0  0
    1.0564    1.7879   -1.2334 H   0  0  0  0  0  0  0  0  0  0  0  0
    0.2115    1.6690    1.4419 H   0  0  0  0  0  0  0  0  0  0  0  0
   -0.8844    2.0051    0.0651 H   0  0  0  0  0  0  0  0  0  0  0  0
   -1.2637   -0.2857    1.6475 H   0  0  0  0  0  0  0  0  0  0  0  0
   -0.0732   -2.0349    0.0978 H   0  0  0  0  0  0  0  0  0  0  0  0
    2.2188   -1.5439    0.5810 H   0  0  0  0  0  0  0  0  0  0  0  0
    1.5205   -0.5094    1.8391 H   0  0  0  0  0  0  0  0  0  0  0  0
  1  2  1  0
  2  3  1  0
  3  4  1  0
  4  5  1  0
  5  6  1  0
  6  7  1  0
  7  8  1  0
  8  9  1  0
  6  1  1  0
  7  3  1  0
  9  4  1  0
  1 10  1  0
  1 11  1  0
  3 12  1  0
  4 13  1  0
  5 14  1  0
  5 15  1  0
  6 16  1  0
  7 17  1  0
  8 18  1  0
  8 19  1  0
M  END
