
     RDKit          3D

 21 22  0  0  0  0  0  0  0  0999 V2000
    2.0787    0.0826    0.1584 C   0  0  0  0  0  0  0  0  0  0  0  0
    1.4344    1.1898   -0.4167 O   0  0  0  0  0  0  0  0  0  0  0  0
    0.3660    1.5254    0.3921 C   0  0  0  0  0  0  0  0  0  0  0  0
   -0.9462    1.0028   -0.1114 C   0  0  0  0  0  0  0  0  0  0  0  0
   -1.5304    0.0670    0.9189 C   0  0  0  0  0  0  0  0  0  0  0  0
   -0.9626   -1.0928    0.1419 C   0  0  0  0  0  0  0  0  0  0  0  0
    0.4226   -1.4791    0.5831 C   0  0  0  0  0  0  0  0  0  0  0  0
    1.4120   -1.0448   -0.2891 O   0  0  0  0  0  0  0  0  0  0  0  0
   -0.8180   -0.1617   -1.0449 C   0  0  0  0  0  0  0  0  0  0  0  0
    2.0156    0.1775    1.2689 H   0  0  0  0  0  0  0  0  0  0  0  0
    3.1553    0.0933   -0.1271 H   0  0  0  0  0  0  0  0  0  0  0  0
    0.3021    2.6469    0.4700 H   0  0  0  0  0  0  0  0  0  0  0  0
    0.5796    1.1907    1.4403 H   0  0  0  0  0  0  0  0  0  0  0  0
   -1.6215    1.7998   -0.4710 H   0  0  0  0  0  0  0  0  0  0  0  0
   -2.6315    0.0968    0.9342 H   0  0  0  0  0  0  0  0  0  0  0  0
   -1.0352    0.1559    1.8942 H   0  0  0  0  0  0  0  0  0  0  0  0
   -1.6683   -1.9440   -0.0162 H   0  0  0  0  0  0  0  0  0  0  0  0
    0.6064   -1.2007    1.6329 H   0  0  0  0  0  0  0  0  0  0  0  0
    0.4608   -2.6050    0.5567 H   0  0  0  0  0  0  0  0  0  0  0  0
    0.1119   -0.2501   -1.6122 H   0  0  0  0  0  0  0  0  0  0  0  0
   -1.7317   -0.2503   -1.6771 H   0  0  0  0  0  0  0  0  0  0  0  0
  1  2  1  0
  2  3  1  0
  3  4  1  0
  4  5  1  0
  5  6  1  0
  6  7  1  0
  7  8  1  0
  6  9  1  0
  8  1  1  0
  9  4  1  0
  1 10  1  0
  1 11  1  0
  3 12  1  0
  3 13  1  0
  4 14  1  0
  5 15  1  0
  5 16  1  0
  6 17  1  0
  7 18  1  0
  7 19  1  0
  9 20  1  0
  9 21  1  0
M  END
