
     RDKit          3D

 21 22  0  0  0  0  0  0  0  0999 V2000
   -2.8786   -0.7506    0.4583 C   0  0  0  0  0  0  0  0  0  0  0  0
   -3.0808    0.6249    0.5232 O   0  0  0  0  0  0  0  0  0  0  0  0
   -1.9185    1.1832   -0.0442 C   0  0  0  0  0  0  0  0  0  0  0  0
   -0.9539    0.0248   -0.1294 C   0  0  0  0  0  0  0  0  0  0  0  0
    0.4057    0.4812    0.2560 C   0  0  0  0  0  0  0  0  0  0  0  0
    1.4637   -0.5676    0.2162 C   0  0  0  0  0  0  0  0  0  0  0  0
    2.8488   -0.0309    0.6262 C   0  0  0  0  0  0  0  0  0  0  0  0
    2.5634   -0.5622   -0.7619 C   0  0  0  0  0  0  0  0  0  0  0  0
   -1.5147   -0.8593    0.8150 O   0  0  0  0  0  0  0  0  0  0  0  0
   -3.5195   -1.3053    1.1419 H   0  0  0  0  0  0  0  0  0  0  0  0
   -2.9853   -1.0839   -0.6094 H   0  0  0  0  0  0  0  0  0  0  0  0
   -1.5760    1.9641    0.6628 H   0  0  0  0  0  0  0  0  0  0  0  0
   -2.1678    1.5959   -1.0306 H   0  0  0  0  0  0  0  0  0  0  0  0
   -0.9370   -0.4096   -1.1283 H   0  0  0  0  0  0  0  0  0  0  0  0
    0.6604    1.3698   -0.3658 H   0  0  0  0  0  0  0  0  0  0  0  0
    0.3558    0.8686    1.3157 H   0  0  0  0  0  0  0  0  0  0  0  0
    1.1658   -1.5397    0.6553 H   0  0  0  0  0  0  0  0  0  0  0  0
    3.4102   -0.6563    1.3425 H   0  0  0  0  0  0  0  0  0  0  0  0
    2.9985    1.0466    0.6842 H   0  0  0  0  0  0  0  0  0  0  0  0
    3.0576   -1.5337   -0.9586 H   0  0  0  0  0  0  0  0  0  0  0  0
    2.6023    0.1400   -1.6109 H   0  0  0  0  0  0  0  0  0  0  0  0
  1  2  1  0
  2  3  1  0
  3  4  1  0
  4  5  1  0
  5  6  1  0
  6  7  1  0
  7  8  1  0
  4  9  1  0
  9  1  1  0
  8  6  1  0
  1 10  1  0
  1 11  1  0
  3 12  1  0
  3 13  1  0
  4 14  1  0
  5 15  1  0
  5 16  1  0
  6 17  1  0
  7 18  1  0
  7 19  1  0
  8 20  1  0
  8 21  1  0
M  END
