
     RDKit          3D

 19 21  0  0  0  0  0  0  0  0999 V2000
    2.3809    0.6041    0.4751 C   0  0  0  0  0  0  0  0  0  0  0  0
    1.2751    0.4506    1.4140 O   0  0  0  0  0  0  0  0  0  0  0  0
    1.4559   -0.4600    0.2620 C   0  0  0  0  0  0  0  0  0  0  0  0
    0.2975   -0.2876   -0.6705 C   0  0  0  0  0  0  0  0  0  0  0  0
   -0.5913   -1.5338   -0.7768 C   0  0  0  0  0  0  0  0  0  0  0  0
   -1.7345   -0.7667   -0.1483 C   0  0  0  0  0  0  0  0  0  0  0  0
   -0.8826    0.4592   -0.1986 C   0  0  0  0  0  0  0  0  0  0  0  0
   -1.0310    1.5562    0.5918 C   0  0  0  0  0  0  0  0  0  0  0  0
   -1.2624    1.5843   -0.8755 O   0  0  0  0  0  0  0  0  0  0  0  0
    2.3207    1.5246   -0.1120 H   0  0  0  0  0  0  0  0  0  0  0  0
    3.3305    0.4752    1.0175 H   0  0  0  0  0  0  0  0  0  0  0  0
    1.6576   -1.5116    0.5731 H   0  0  0  0  0  0  0  0  0  0  0  0
    0.6710   -0.0442   -1.6947 H   0  0  0  0  0  0  0  0  0  0  0  0
   -0.2350   -2.3972   -0.2049 H   0  0  0  0  0  0  0  0  0  0  0  0
   -0.8494   -1.8258   -1.8022 H   0  0  0  0  0  0  0  0  0  0  0  0
   -1.9418   -1.1520    0.8868 H   0  0  0  0  0  0  0  0  0  0  0  0
   -2.6633   -0.7282   -0.7156 H   0  0  0  0  0  0  0  0  0  0  0  0
   -1.9916    1.8205    1.0769 H   0  0  0  0  0  0  0  0  0  0  0  0
   -0.2063    2.2325    0.9019 H   0  0  0  0  0  0  0  0  0  0  0  0
  1  2  1  0
  2  3  1  0
  3  4  1  0
  4  5  1  0
  5  6  1  0
  6  7  1  0
  7  8  1  0
  8  9  1  0
  3  1  1  0
  7  4  1  0
  9  7  1  0
  1 10  1  0
  1 11  1  0
  3 12  1  0
  4 13  1  0
  5 14  1  0
  5 15  1  0
  6 16  1  0
  6 17  1  0
  8 18  1  0
  8 19  1  0
M  END
