
     RDKit          3D

 15 16  0  0  0  0  0  0  0  0999 V2000
    0.2516    1.3144    0.3387 C   0  0  0  0  0  0  0  0  0  0  0  0
   -0.8409    0.8199    1.0636 O   0  0  0  0  0  0  0  0  0  0  0  0
   -1.5942    0.0630    0.1667 C   0  0  0  0  0  0  0  0  0  0  0  0
   -0.5355   -0.6750   -0.6079 C   0  0  0  0  0  0  0  0  0  0  0  0
    0.0649   -1.6314    0.2124 O   0  0  0  0  0  0  0  0  0  0  0  0
    1.3028   -0.9835    0.2087 C   0  0  0  0  0  0  0  0  0  0  0  0
    0.7007    0.1644   -0.5453 C   0  0  0  0  0  0  0  0  0  0  0  0
    1.0532    1.6206    1.0225 H   0  0  0  0  0  0  0  0  0  0  0  0
   -0.1216    2.1011   -0.3254 H   0  0  0  0  0  0  0  0  0  0  0  0
   -2.2211    0.6776   -0.4949 H   0  0  0  0  0  0  0  0  0  0  0  0
   -2.1969   -0.6514    0.7895 H   0  0  0  0  0  0  0  0  0  0  0  0
   -0.7848   -1.0024   -1.6122 H   0  0  0  0  0  0  0  0  0  0  0  0
    1.6929   -0.7143    1.2154 H   0  0  0  0  0  0  0  0  0  0  0  0
    2.0604   -1.5564   -0.3582 H   0  0  0  0  0  0  0  0  0  0  0  0
    1.1686    0.4534   -1.4852 H   0  0  0  0  0  0  0  0  0  0  0  0
  1  2  1  0
  2  3  1  0
  3  4  1  0
  4  5  1  0
  5  6  1  0
  6  7  1  0
  7  1  1  0
  7  4  1  0
  1  8  1  0
  1  9  1  0
  3 10  1  0
  3 11  1  0
  4 12  1  0
  6 13  1  0
  6 14  1  0
  7 15  1  0
M  END
