
     RDKit          3D

 19 21  0  0  0  0  0  0  0  0999 V2000
   -2.7985    0.4546   -0.0408 C   0  0  0  0  0  0  0  0  0  0  0  0
   -2.6572    0.1960   -1.3892 O   0  0  0  0  0  0  0  0  0  0  0  0
   -1.7551   -0.5394   -0.4742 C   0  0  0  0  0  0  0  0  0  0  0  0
   -0.3143   -0.1185   -0.5768 C   0  0  0  0  0  0  0  0  0  0  0  0
    0.3193    0.3728    0.6568 C   0  0  0  0  0  0  0  0  0  0  0  0
    1.5561    1.2391    0.4467 C   0  0  0  0  0  0  0  0  0  0  0  0
    2.4518    0.5025   -0.2765 O   0  0  0  0  0  0  0  0  0  0  0  0
    2.1559   -0.8268   -0.1623 C   0  0  0  0  0  0  0  0  0  0  0  0
    0.6847   -0.9809    0.0472 C   0  0  0  0  0  0  0  0  0  0  0  0
   -2.5052    1.4657    0.2679 H   0  0  0  0  0  0  0  0  0  0  0  0
   -3.6317    0.0140    0.5390 H   0  0  0  0  0  0  0  0  0  0  0  0
   -2.0409   -1.5910   -0.4996 H   0  0  0  0  0  0  0  0  0  0  0  0
   -0.0394    0.3492   -1.5340 H   0  0  0  0  0  0  0  0  0  0  0  0
   -0.1109    0.2783    1.6514 H   0  0  0  0  0  0  0  0  0  0  0  0
    1.9318    1.6611    1.3847 H   0  0  0  0  0  0  0  0  0  0  0  0
    1.2055    2.0894   -0.2093 H   0  0  0  0  0  0  0  0  0  0  0  0
    2.5375   -1.3441   -1.0693 H   0  0  0  0  0  0  0  0  0  0  0  0
    2.6757   -1.3233    0.7061 H   0  0  0  0  0  0  0  0  0  0  0  0
    0.3350   -1.8988    0.5321 H   0  0  0  0  0  0  0  0  0  0  0  0
  1  2  1  0
  2  3  1  0
  3  4  1  0
  4  5  1  0
  5  6  1  0
  6  7  1  0
  7  8  1  0
  8  9  1  0
  3  1  1  0
  9  4  1  0
  9  5  1  0
  1 10  1  0
  1 11  1  0
  3 12  1  0
  4 13  1  0
  5 14  1  0
  6 15  1  0
  6 16  1  0
  8 17  1  0
  8 18  1  0
  9 19  1  0
M  END
