
     RDKit          3D

 21 23  0  0  0  0  0  0  0  0999 V2000
    2.1817    0.8311   -0.0587 C   0  0  0  0  0  0  0  0  0  0  0  0
    1.9954    0.1072   -1.2207 O   0  0  0  0  0  0  0  0  0  0  0  0
    1.7307   -0.9955   -0.3929 C   0  0  0  0  0  0  0  0  0  0  0  0
    1.1042   -0.0781    0.5943 C   0  0  0  0  0  0  0  0  0  0  0  0
   -0.2101    0.5291    0.3322 C   0  0  0  0  0  0  0  0  0  0  0  0
   -1.4580    0.0581    0.9406 C   0  0  0  0  0  0  0  0  0  0  0  0
   -2.1266    0.7752   -0.2319 C   0  0  0  0  0  0  0  0  0  0  0  0
   -0.9857   -0.0119   -0.8462 C   0  0  0  0  0  0  0  0  0  0  0  0
   -1.4222   -1.1105    0.0386 C   0  0  0  0  0  0  0  0  0  0  0  0
    1.8492    1.8808   -0.1205 H   0  0  0  0  0  0  0  0  0  0  0  0
    3.1714    0.7182    0.4245 H   0  0  0  0  0  0  0  0  0  0  0  0
    1.1387   -1.7753   -0.8848 H   0  0  0  0  0  0  0  0  0  0  0  0
    2.7195   -1.3591    0.0156 H   0  0  0  0  0  0  0  0  0  0  0  0
    1.3176   -0.2779    1.6667 H   0  0  0  0  0  0  0  0  0  0  0  0
   -0.1961    1.6601    0.2174 H   0  0  0  0  0  0  0  0  0  0  0  0
   -1.7804    0.1243    1.8924 H   0  0  0  0  0  0  0  0  0  0  0  0
   -1.9424    1.8672   -0.1746 H   0  0  0  0  0  0  0  0  0  0  0  0
   -3.1332    0.4455   -0.4746 H   0  0  0  0  0  0  0  0  0  0  0  0
   -0.7095   -0.0056   -1.8044 H   0  0  0  0  0  0  0  0  0  0  0  0
   -2.4807   -1.4445   -0.2101 H   0  0  0  0  0  0  0  0  0  0  0  0
   -0.7634   -1.9384    0.2973 H   0  0  0  0  0  0  0  0  0  0  0  0
  1  2  1  0
  2  3  1  0
  3  4  1  0
  4  5  1  0
  5  6  1  0
  6  7  1  0
  7  8  1  0
  8  9  1  0
  4  1  1  0
  8  5  1  0
  9  6  1  0
  1 10  1  0
  1 11  1  0
  3 12  1  0
  3 13  1  0
  4 14  1  0
  5 15  1  0
  6 16  1  0
  7 17  1  0
  7 18  1  0
  8 19  1  0
  9 20  1  0
  9 21  1  0
M  END
