
     RDKit          3D

 19 21  0  0  0  0  0  0  0  0999 V2000
   -1.6398   -0.8101    0.2454 C   0  0  0  0  0  0  0  0  0  0  0  0
   -0.8292   -1.9403    0.2256 O   0  0  0  0  0  0  0  0  0  0  0  0
    0.4610   -1.4148    0.1479 C   0  0  0  0  0  0  0  0  0  0  0  0
    0.6986   -0.7354    1.3280 O   0  0  0  0  0  0  0  0  0  0  0  0
    1.5312    0.3405    0.9774 C   0  0  0  0  0  0  0  0  0  0  0  0
    0.8969    0.8866   -0.2797 C   0  0  0  0  0  0  0  0  0  0  0  0
   -0.5036    1.4064   -0.1272 C   0  0  0  0  0  0  0  0  0  0  0  0
   -1.0509    0.1561   -0.7616 C   0  0  0  0  0  0  0  0  0  0  0  0
    0.3481   -0.3597   -0.9165 C   0  0  0  0  0  0  0  0  0  0  0  0
   -2.6684   -1.0297   -0.0704 H   0  0  0  0  0  0  0  0  0  0  0  0
   -1.6290   -0.3333    1.2392 H   0  0  0  0  0  0  0  0  0  0  0  0
    1.2192   -2.1744   -0.0967 H   0  0  0  0  0  0  0  0  0  0  0  0
    1.6020    1.0680    1.7912 H   0  0  0  0  0  0  0  0  0  0  0  0
    2.5013   -0.1153    0.6883 H   0  0  0  0  0  0  0  0  0  0  0  0
    1.5736    1.4960   -0.9160 H   0  0  0  0  0  0  0  0  0  0  0  0
   -0.7119    2.2906   -0.7816 H   0  0  0  0  0  0  0  0  0  0  0  0
   -0.8528    1.5927    0.9028 H   0  0  0  0  0  0  0  0  0  0  0  0
   -1.6389    0.2861   -1.6808 H   0  0  0  0  0  0  0  0  0  0  0  0
    0.6924   -0.6101   -1.9154 H   0  0  0  0  0  0  0  0  0  0  0  0
  1  2  1  0
  2  3  1  0
  3  4  1  0
  4  5  1  0
  5  6  1  0
  6  7  1  0
  7  8  1  0
  8  9  1  0
  8  1  1  0
  9  3  1  0
  9  6  1  0
  1 10  1  0
  1 11  1  0
  3 12  1  0
  5 13  1  0
  5 14  1  0
  6 15  1  0
  7 16  1  0
  7 17  1  0
  8 18  1  0
  9 19  1  0
M  END
