
     RDKit          3D

 12 13  0  0  0  0  0  0  0  0999 V2000
   -1.5301    0.0364    0.1532 C   0  0  0  0  0  0  0  0  0  0  0  0
   -0.7954    1.0722   -0.3512 O   0  0  0  0  0  0  0  0  0  0  0  0
    0.4999    0.6678   -0.5424 C   0  0  0  0  0  0  0  0  0  0  0  0
    1.2629    0.0087    0.5974 C   0  0  0  0  0  0  0  0  0  0  0  0
    0.4762   -0.7915   -0.3526 C   0  0  0  0  0  0  0  0  0  0  0  0
   -0.8142   -1.1266    0.0265 O   0  0  0  0  0  0  0  0  0  0  0  0
   -2.5164   -0.1092   -0.3593 H   0  0  0  0  0  0  0  0  0  0  0  0
   -1.7931    0.2889    1.2127 H   0  0  0  0  0  0  0  0  0  0  0  0
    1.1107    1.1603   -1.3183 H   0  0  0  0  0  0  0  0  0  0  0  0
    2.3518   -0.0348    0.5028 H   0  0  0  0  0  0  0  0  0  0  0  0
    0.8130    0.2265    1.5853 H   0  0  0  0  0  0  0  0  0  0  0  0
    0.9347   -1.3987   -1.1542 H   0  0  0  0  0  0  0  0  0  0  0  0
  1  2  1  0
  2  3  1  0
  3  4  1  0
  4  5  1  0
  5  6  1  0
  6  1  1  0
  5  3  1  0
  1  7  1  0
  1  8  1  0
  3  9  1  0
  4 10  1  0
  4 11  1  0
  5 12  1  0
M  END
