
     RDKit          3D

 12 13  0  0  0  0  0  0  0  0999 V2000
   -1.4848   -0.0931   -0.5067 C   0  0  0  0  0  0  0  0  0  0  0  0
   -1.6978   -0.9523    0.5689 O   0  0  0  0  0  0  0  0  0  0  0  0
   -0.4189   -1.0012    0.0825 C   0  0  0  0  0  0  0  0  0  0  0  0
    0.6838   -0.2208    0.7887 C   0  0  0  0  0  0  0  0  0  0  0  0
    1.1777    0.9560   -0.0429 C   0  0  0  0  0  0  0  0  0  0  0  0
    1.9620   -0.2810    0.2871 O   0  0  0  0  0  0  0  0  0  0  0  0
   -1.9037   -0.3510   -1.5030 H   0  0  0  0  0  0  0  0  0  0  0  0
   -1.4588    0.9841   -0.3076 H   0  0  0  0  0  0  0  0  0  0  0  0
   -0.0522   -1.8408   -0.5273 H   0  0  0  0  0  0  0  0  0  0  0  0
    0.5517    0.0422    1.8538 H   0  0  0  0  0  0  0  0  0  0  0  0
    1.6216    1.8241    0.4495 H   0  0  0  0  0  0  0  0  0  0  0  0
    1.0195    0.9339   -1.1429 H   0  0  0  0  0  0  0  0  0  0  0  0
  1  2  1  0
  2  3  1  0
  3  4  1  0
  4  5  1  0
  5  6  1  0
  3  1  1  0
  6  4  1  0
  1  7  1  0
  1  8  1  0
  3  9  1  0
  4 10  1  0
  5 11  1  0
  5 12  1  0
M  END
