
     RDKit          3D

 19 21  0  0  0  0  0  0  0  0999 V2000
    3.0692   -0.6796    0.2939 C   0  0  0  0  0  0  0  0  0  0  0  0
    2.4177   -0.1137    1.3886 O   0  0  0  0  0  0  0  0  0  0  0  0
    1.5508   -0.4780    0.3918 C   0  0  0  0  0  0  0  0  0  0  0  0
    0.9344    0.5899   -0.4418 C   0  0  0  0  0  0  0  0  0  0  0  0
   -0.5242    0.7760   -0.3304 C   0  0  0  0  0  0  0  0  0  0  0  0
   -1.0004    1.1131    0.9636 O   0  0  0  0  0  0  0  0  0  0  0  0
   -2.2297    0.7704    0.3925 C   0  0  0  0  0  0  0  0  0  0  0  0
   -2.7833   -0.5032    0.0921 C   0  0  0  0  0  0  0  0  0  0  0  0
   -1.3382   -0.4676   -0.0344 C   0  0  0  0  0  0  0  0  0  0  0  0
    3.4778   -1.6984    0.3929 H   0  0  0  0  0  0  0  0  0  0  0  0
    3.5360   -0.0223   -0.4525 H   0  0  0  0  0  0  0  0  0  0  0  0
    1.0188   -1.4551    0.3925 H   0  0  0  0  0  0  0  0  0  0  0  0
    1.2748    0.4179   -1.4915 H   0  0  0  0  0  0  0  0  0  0  0  0
    1.4236    1.5639   -0.1665 H   0  0  0  0  0  0  0  0  0  0  0  0
   -0.9340    1.3861   -1.1535 H   0  0  0  0  0  0  0  0  0  0  0  0
   -2.4085    1.5330   -0.4278 H   0  0  0  0  0  0  0  0  0  0  0  0
   -3.3204   -0.7127   -0.8820 H   0  0  0  0  0  0  0  0  0  0  0  0
   -3.3131   -1.0563    0.9164 H   0  0  0  0  0  0  0  0  0  0  0  0
   -0.8516   -0.9631    0.8693 H   0  0  0  0  0  0  0  0  0  0  0  0
  1  2  1  0
  2  3  1  0
  3  4  1  0
  4  5  1  0
  5  6  1  0
  6  7  1  0
  7  8  1  0
  8  9  1  0
  3  1  1  0
  9  5  1  0
  9  7  1  0
  1 10  1  0
  1 11  1  0
  3 12  1  0
  4 13  1  0
  4 14  1  0
  5 15  1  0
  7 16  1  0
  8 17  1  0
  8 18  1  0
  9 19  1  0
M  END
