
     RDKit          3D

 19 21  0  0  0  0  0  0  0  0999 V2000
    1.3204    0.0453    0.8985 C   0  0  0  0  0  0  0  0  0  0  0  0
    0.3174   -0.7321    1.4126 O   0  0  0  0  0  0  0  0  0  0  0  0
   -0.4809   -1.1965    0.3441 C   0  0  0  0  0  0  0  0  0  0  0  0
    0.5137   -1.2192   -0.8325 C   0  0  0  0  0  0  0  0  0  0  0  0
    1.0094    0.2210   -0.5935 C   0  0  0  0  0  0  0  0  0  0  0  0
   -0.1804    1.1132   -0.6978 C   0  0  0  0  0  0  0  0  0  0  0  0
   -1.0062    1.1920    0.5584 C   0  0  0  0  0  0  0  0  0  0  0  0
   -1.4871   -0.1290   -0.0128 C   0  0  0  0  0  0  0  0  0  0  0  0
   -1.2752    0.4259   -1.2778 O   0  0  0  0  0  0  0  0  0  0  0  0
    1.5212    0.9854    1.4034 H   0  0  0  0  0  0  0  0  0  0  0  0
    2.2900   -0.5352    0.9092 H   0  0  0  0  0  0  0  0  0  0  0  0
   -0.9098   -2.1741    0.5393 H   0  0  0  0  0  0  0  0  0  0  0  0
    1.3043   -1.9523   -0.6718 H   0  0  0  0  0  0  0  0  0  0  0  0
   -0.0125   -1.3027   -1.7883 H   0  0  0  0  0  0  0  0  0  0  0  0
    1.8667    0.4767   -1.1865 H   0  0  0  0  0  0  0  0  0  0  0  0
   -0.0029    2.1079   -1.1602 H   0  0  0  0  0  0  0  0  0  0  0  0
   -0.5118    1.0277    1.5085 H   0  0  0  0  0  0  0  0  0  0  0  0
   -1.7377    2.0163    0.4879 H   0  0  0  0  0  0  0  0  0  0  0  0
   -2.5387   -0.3705    0.1592 H   0  0  0  0  0  0  0  0  0  0  0  0
  1  2  1  0
  2  3  1  0
  3  4  1  0
  4  5  1  0
  5  6  1  0
  6  7  1  0
  7  8  1  0
  8  9  1  0
  5  1  1  0
  9  6  1  0
  8  3  1  0
  1 10  1  0
  1 11  1  0
  3 12  1  0
  4 13  1  0
  4 14  1  0
  5 15  1  0
  6 16  1  0
  7 17  1  0
  7 18  1  0
  8 19  1  0
M  END
