
     RDKit          3D

 15 16  0  0  0  0  0  0  0  0999 V2000
    1.2689    0.3933    0.4593 C   0  0  0  0  0  0  0  0  0  0  0  0
    0.7480   -0.5072    1.3969 O   0  0  0  0  0  0  0  0  0  0  0  0
   -0.5441   -0.8321    0.9153 C   0  0  0  0  0  0  0  0  0  0  0  0
   -0.1621   -1.1255   -0.5519 C   0  0  0  0  0  0  0  0  0  0  0  0
    0.3610    0.3113   -0.7416 C   0  0  0  0  0  0  0  0  0  0  0  0
   -0.9090    1.0194   -0.3140 C   0  0  0  0  0  0  0  0  0  0  0  0
   -1.3193    0.2992    0.8076 O   0  0  0  0  0  0  0  0  0  0  0  0
    1.1491    1.4075    0.9429 H   0  0  0  0  0  0  0  0  0  0  0  0
    2.3211    0.2492    0.2454 H   0  0  0  0  0  0  0  0  0  0  0  0
   -0.9800   -1.6738    1.4106 H   0  0  0  0  0  0  0  0  0  0  0  0
   -1.0584   -1.3136   -1.1439 H   0  0  0  0  0  0  0  0  0  0  0  0
    0.6319   -1.8640   -0.6245 H   0  0  0  0  0  0  0  0  0  0  0  0
    0.7551    0.5329   -1.6892 H   0  0  0  0  0  0  0  0  0  0  0  0
   -0.5887    2.0532   -0.0158 H   0  0  0  0  0  0  0  0  0  0  0  0
   -1.6734    1.0504   -1.0972 H   0  0  0  0  0  0  0  0  0  0  0  0
  1  2  1  0
  2  3  1  0
  3  4  1  0
  4  5  1  0
  5  6  1  0
  6  7  1  0
  5  1  1  0
  7  3  1  0
  1  8  1  0
  1  9  1  0
  3 10  1  0
  4 11  1  0
  4 12  1  0
  5 13  1  0
  6 14  1  0
  6 15  1  0
M  END
