
     RDKit          2D

 19 22  0  0  0  0  0  0  0  0999 V2000
    1.3706   -2.3740    0.0000 C   0  0  0  0  0  0  0  0  0  0  0  0
    1.9807   -1.0037    0.0000 O   0  0  0  0  0  0  0  0  0  0  0  0
    0.8660    0.0000    0.0000 C   0  0  0  0  0  0  0  0  0  0  0  0
   -0.4330    0.7500    0.0000 C   0  0  0  0  0  0  0  0  0  0  0  0
   -1.8033    0.1399    0.0000 C   0  0  0  0  0  0  0  0  0  0  0  0
   -1.6465   -1.3519    0.0000 C   0  0  0  0  0  0  0  0  0  0  0  0
   -0.1211   -2.2172    0.0000 C   0  0  0  0  0  0  0  0  0  0  0  0
   -1.0976   -1.2022    0.0000 C   0  0  0  0  0  0  0  0  0  0  0  0
   -0.4330   -0.7500    0.0000 C   0  0  0  0  0  0  0  0  0  0  0  0
    2.7972   -2.8375    0.0000 H   0  0  0  0  0  0  0  0  0  0  0  0
    1.0588   -3.8412    0.0000 H   0  0  0  0  0  0  0  0  0  0  0  0
    1.7477    1.2135    0.0000 H   0  0  0  0  0  0  0  0  0  0  0  0
   -1.1830    2.0490    0.0000 H   0  0  0  0  0  0  0  0  0  0  0  0
   -3.1024    0.8899    0.0000 H   0  0  0  0  0  0  0  0  0  0  0  0
   -3.1354   -1.1690    0.0000 H   0  0  0  0  0  0  0  0  0  0  0  0
   -1.9840   -2.8134    0.0000 H   0  0  0  0  0  0  0  0  0  0  0  0
   -1.6871   -3.2347    0.0000 H   0  0  0  0  0  0  0  0  0  0  0  0
   -3.0437   -1.7551    0.0000 H   0  0  0  0  0  0  0  0  0  0  0  0
   -1.9184   -0.5412    0.0000 H   0  0  0  0  0  0  0  0  0  0  0  0
  1  2  1  0
  2  3  1  0
  3  4  1  0
  4  5  1  0
  5  6  1  0
  6  7  1  0
  7  8  1  0
  7  9  1  0
  7  1  1  0
  9  3  1  0
  9  4  1  0
  8  5  1  0
  1 10  1  0
  1 11  1  0
  3 12  1  0
  4 13  1  0
  5 14  1  0
  6 15  1  0
  6 16  1  0
  8 17  1  0
  8 18  1  0
  9 19  1  0
M  END
