
     RDKit          3D

 18 20  0  0  0  0  0  0  0  0999 V2000
    1.3506   -0.4343    0.8902 C   0  0  0  0  0  0  0  0  0  0  0  0
    0.9937   -1.4506    0.0592 O   0  0  0  0  0  0  0  0  0  0  0  0
   -0.2275   -1.4084   -0.5111 C   0  0  0  0  0  0  0  0  0  0  0  0
   -1.2446   -0.5275    0.0339 C   0  0  0  0  0  0  0  0  0  0  0  0
   -0.8329    0.5794    0.9118 C   0  0  0  0  0  0  0  0  0  0  0  0
    0.6176    0.8238    0.4685 C   0  0  0  0  0  0  0  0  0  0  0  0
    0.4303    0.8680   -1.0358 C   0  0  0  0  0  0  0  0  0  0  0  0
   -0.5781   -0.1978   -1.2801 C   0  0  0  0  0  0  0  0  0  0  0  0
    2.4521   -0.2867    0.9220 H   0  0  0  0  0  0  0  0  0  0  0  0
    0.9893   -0.7125    1.9242 H   0  0  0  0  0  0  0  0  0  0  0  0
   -0.5791   -2.3660   -0.9487 H   0  0  0  0  0  0  0  0  0  0  0  0
   -2.2898   -0.8680    0.0589 H   0  0  0  0  0  0  0  0  0  0  0  0
   -1.3877    1.5104    0.6029 H   0  0  0  0  0  0  0  0  0  0  0  0
   -0.9025    0.3947    1.9873 H   0  0  0  0  0  0  0  0  0  0  0  0
    1.0319    1.7387    0.8885 H   0  0  0  0  0  0  0  0  0  0  0  0
    0.0305    1.8655   -1.2783 H   0  0  0  0  0  0  0  0  0  0  0  0
    1.3887    0.6678   -1.5505 H   0  0  0  0  0  0  0  0  0  0  0  0
   -1.2427   -0.1965   -2.1431 H   0  0  0  0  0  0  0  0  0  0  0  0
  1  2  1  0
  2  3  1  0
  3  4  1  0
  4  5  1  0
  5  6  1  0
  6  7  1  0
  7  8  1  0
  6  1  1  0
  8  3  1  0
  8  4  1  0
  1  9  1  0
  1 10  1  0
  3 11  1  0
  4 12  1  0
  5 13  1  0
  5 14  1  0
  6 15  1  0
  7 16  1  0
  7 17  1  0
  8 18  1  0
M  END
