
     RDKit          3D

 17 19  0  0  0  0  0  0  0  0999 V2000
   -1.2232   -1.2756   -0.2190 C   0  0  0  0  0  0  0  0  0  0  0  0
   -1.9089   -0.1134   -0.6021 O   0  0  0  0  0  0  0  0  0  0  0  0
   -1.3760    0.9279    0.1114 C   0  0  0  0  0  0  0  0  0  0  0  0
   -0.0026    1.2582   -0.4873 C   0  0  0  0  0  0  0  0  0  0  0  0
    0.8112    0.1191    0.0038 C   0  0  0  0  0  0  0  0  0  0  0  0
    2.0947   -0.2575   -0.2422 C   0  0  0  0  0  0  0  0  0  0  0  0
    1.8435    0.5404    0.9867 O   0  0  0  0  0  0  0  0  0  0  0  0
   -0.2037   -0.7183    0.7379 C   0  0  0  0  0  0  0  0  0  0  0  0
   -0.9678    0.3231    1.3264 O   0  0  0  0  0  0  0  0  0  0  0  0
   -0.7607   -1.7875   -1.0844 H   0  0  0  0  0  0  0  0  0  0  0  0
   -1.9304   -1.9206    0.3439 H   0  0  0  0  0  0  0  0  0  0  0  0
   -2.0055    1.7870    0.2502 H   0  0  0  0  0  0  0  0  0  0  0  0
    0.3105    2.2499   -0.1541 H   0  0  0  0  0  0  0  0  0  0  0  0
   -0.1716    1.2216   -1.6028 H   0  0  0  0  0  0  0  0  0  0  0  0
    2.4832   -1.2576    0.0344 H   0  0  0  0  0  0  0  0  0  0  0  0
    2.8119    0.3168   -0.8588 H   0  0  0  0  0  0  0  0  0  0  0  0
    0.1953   -1.4134    1.4558 H   0  0  0  0  0  0  0  0  0  0  0  0
  1  2  1  0
  2  3  1  0
  3  4  1  0
  4  5  1  0
  5  6  1  0
  6  7  1  0
  5  8  1  0
  8  9  1  0
  8  1  1  0
  9  3  1  0
  7  5  1  0
  1 10  1  0
  1 11  1  0
  3 12  1  0
  4 13  1  0
  4 14  1  0
  6 15  1  0
  6 16  1  0
  8 17  1  0
M  END
