
     RDKit          3D

 19 22  0  0  0  0  0  0  0  0999 V2000
    2.1636   -0.3771    0.2671 C   0  0  0  0  0  0  0  0  0  0  0  0
    2.0726    0.9543   -0.1001 O   0  0  0  0  0  0  0  0  0  0  0  0
    0.8493    0.8401   -0.7445 C   0  0  0  0  0  0  0  0  0  0  0  0
    0.8583   -0.6303   -0.3958 C   0  0  0  0  0  0  0  0  0  0  0  0
   -0.3289   -0.8702    0.4886 C   0  0  0  0  0  0  0  0  0  0  0  0
   -1.5925   -0.8382   -0.3811 C   0  0  0  0  0  0  0  0  0  0  0  0
   -1.6188    0.6495   -0.1821 C   0  0  0  0  0  0  0  0  0  0  0  0
   -0.7060    0.4696    1.0044 C   0  0  0  0  0  0  0  0  0  0  0  0
   -0.3337    1.4183   -0.0283 C   0  0  0  0  0  0  0  0  0  0  0  0
    2.9707   -0.9657   -0.1817 H   0  0  0  0  0  0  0  0  0  0  0  0
    2.1390   -0.4687    1.3658 H   0  0  0  0  0  0  0  0  0  0  0  0
    0.8333    1.0628   -1.8182 H   0  0  0  0  0  0  0  0  0  0  0  0
    0.8414   -1.2467   -1.2990 H   0  0  0  0  0  0  0  0  0  0  0  0
   -0.2757   -1.6995    1.1941 H   0  0  0  0  0  0  0  0  0  0  0  0
   -1.4144   -1.1953   -1.4120 H   0  0  0  0  0  0  0  0  0  0  0  0
   -2.3770   -1.4241    0.1058 H   0  0  0  0  0  0  0  0  0  0  0  0
   -2.5924    1.1671   -0.0411 H   0  0  0  0  0  0  0  0  0  0  0  0
   -1.0500    0.6711    1.9994 H   0  0  0  0  0  0  0  0  0  0  0  0
   -0.4389    2.4830    0.1587 H   0  0  0  0  0  0  0  0  0  0  0  0
  1  2  1  0
  2  3  1  0
  3  4  1  0
  4  5  1  0
  5  6  1  0
  6  7  1  0
  7  8  1  0
  8  9  1  0
  4  1  1  0
  8  5  1  0
  9  3  1  0
  9  7  1  0
  1 10  1  0
  1 11  1  0
  3 12  1  0
  4 13  1  0
  5 14  1  0
  6 15  1  0
  6 16  1  0
  7 17  1  0
  8 18  1  0
  9 19  1  0
M  END
