
     RDKit          3D

 21 23  0  0  0  0  0  0  0  0999 V2000
    1.7811   -0.8386   -0.1422 C   0  0  0  0  0  0  0  0  0  0  0  0
    0.6698   -1.5510    0.3734 O   0  0  0  0  0  0  0  0  0  0  0  0
   -0.4329   -1.0701   -0.2814 C   0  0  0  0  0  0  0  0  0  0  0  0
   -1.7508   -1.0815    0.4068 C   0  0  0  0  0  0  0  0  0  0  0  0
   -1.8334    0.4302    0.1072 C   0  0  0  0  0  0  0  0  0  0  0  0
   -0.4305    0.4342   -0.0184 C   0  0  0  0  0  0  0  0  0  0  0  0
    0.5090    0.8247    1.0719 C   0  0  0  0  0  0  0  0  0  0  0  0
    1.5603    0.6471   -0.0416 C   0  0  0  0  0  0  0  0  0  0  0  0
    0.4221    1.0869   -0.9848 C   0  0  0  0  0  0  0  0  0  0  0  0
    2.7004   -1.0775    0.4087 H   0  0  0  0  0  0  0  0  0  0  0  0
    1.8957   -1.1840   -1.1781 H   0  0  0  0  0  0  0  0  0  0  0  0
   -0.4169   -1.3355   -1.3515 H   0  0  0  0  0  0  0  0  0  0  0  0
   -1.7560   -1.3329    1.4656 H   0  0  0  0  0  0  0  0  0  0  0  0
   -2.5111   -1.6060   -0.2335 H   0  0  0  0  0  0  0  0  0  0  0  0
   -2.4189    0.6696   -0.7954 H   0  0  0  0  0  0  0  0  0  0  0  0
   -2.2975    0.9597    0.9807 H   0  0  0  0  0  0  0  0  0  0  0  0
    0.3582    1.8548    1.3859 H   0  0  0  0  0  0  0  0  0  0  0  0
    0.6928    0.1065    1.8706 H   0  0  0  0  0  0  0  0  0  0  0  0
    2.4127    1.2955    0.0084 H   0  0  0  0  0  0  0  0  0  0  0  0
    0.3771    2.1755   -1.0715 H   0  0  0  0  0  0  0  0  0  0  0  0
    0.4688    0.5924   -1.9809 H   0  0  0  0  0  0  0  0  0  0  0  0
  1  2  1  0
  2  3  1  0
  3  4  1  0
  4  5  1  0
  5  6  1  0
  6  7  1  0
  7  8  1  0
  8  9  1  0
  8  1  1  0
  6  3  1  0
  9  6  1  0
  1 10  1  0
  1 11  1  0
  3 12  1  0
  4 13  1  0
  4 14  1  0
  5 15  1  0
  5 16  1  0
  7 17  1  0
  7 18  1  0
  8 19  1  0
  9 20  1  0
  9 21  1  0
M  END
