
     RDKit          3D

 16 18  0  0  0  0  0  0  0  0999 V2000
    2.1670   -0.2593   -0.1615 C   0  0  0  0  0  0  0  0  0  0  0  0
    1.8397    0.5475    1.0456 O   0  0  0  0  0  0  0  0  0  0  0  0
    1.2164    0.8167   -0.2024 C   0  0  0  0  0  0  0  0  0  0  0  0
   -0.2612    0.6487   -0.2174 C   0  0  0  0  0  0  0  0  0  0  0  0
   -0.8880   -0.0590    0.9474 C   0  0  0  0  0  0  0  0  0  0  0  0
   -2.0587   -0.3566    0.0679 C   0  0  0  0  0  0  0  0  0  0  0  0
   -0.8153   -0.6438   -0.7096 C   0  0  0  0  0  0  0  0  0  0  0  0
   -0.3030   -1.2061    0.4578 O   0  0  0  0  0  0  0  0  0  0  0  0
    3.2167   -0.0631   -0.5051 H   0  0  0  0  0  0  0  0  0  0  0  0
    1.9962   -1.3010    0.0860 H   0  0  0  0  0  0  0  0  0  0  0  0
    1.5819    1.7957   -0.6027 H   0  0  0  0  0  0  0  0  0  0  0  0
   -0.7912    1.5645   -0.5626 H   0  0  0  0  0  0  0  0  0  0  0  0
   -0.9094    0.2613    1.9027 H   0  0  0  0  0  0  0  0  0  0  0  0
   -2.6346   -1.2595    0.2922 H   0  0  0  0  0  0  0  0  0  0  0  0
   -2.6085    0.5479   -0.2024 H   0  0  0  0  0  0  0  0  0  0  0  0
   -0.7480   -1.0341   -1.6359 H   0  0  0  0  0  0  0  0  0  0  0  0
  1  2  1  0
  2  3  1  0
  3  4  1  0
  4  5  1  0
  5  6  1  0
  6  7  1  0
  7  8  1  0
  3  1  1  0
  7  4  1  0
  8  5  1  0
  1  9  1  0
  1 10  1  0
  3 11  1  0
  4 12  1  0
  5 13  1  0
  6 14  1  0
  6 15  1  0
  7 16  1  0
M  END
