
     RDKit          3D

 19 21  0  0  0  0  0  0  0  0999 V2000
    1.5444   -0.7488   -0.3240 C   0  0  0  0  0  0  0  0  0  0  0  0
    0.5543   -1.6815   -0.2877 O   0  0  0  0  0  0  0  0  0  0  0  0
   -0.7111   -1.2276   -0.0940 C   0  0  0  0  0  0  0  0  0  0  0  0
   -1.0068   -0.5017    1.1892 C   0  0  0  0  0  0  0  0  0  0  0  0
   -0.9016    0.7996    0.4279 C   0  0  0  0  0  0  0  0  0  0  0  0
    0.4916    1.3508    0.3097 C   0  0  0  0  0  0  0  0  0  0  0  0
    1.0434    0.5632   -0.8645 C   0  0  0  0  0  0  0  0  0  0  0  0
   -0.0579    0.3933   -1.7066 O   0  0  0  0  0  0  0  0  0  0  0  0
   -1.0645    0.0238   -0.8447 C   0  0  0  0  0  0  0  0  0  0  0  0
    1.9634   -0.5368    0.6956 H   0  0  0  0  0  0  0  0  0  0  0  0
    2.3882   -1.1684   -0.9384 H   0  0  0  0  0  0  0  0  0  0  0  0
   -1.4558   -2.0305   -0.3585 H   0  0  0  0  0  0  0  0  0  0  0  0
   -0.3028   -0.6469    2.0091 H   0  0  0  0  0  0  0  0  0  0  0  0
   -2.0690   -0.7005    1.4837 H   0  0  0  0  0  0  0  0  0  0  0  0
   -1.6936    1.4876    0.7074 H   0  0  0  0  0  0  0  0  0  0  0  0
    0.4950    2.4227    0.0937 H   0  0  0  0  0  0  0  0  0  0  0  0
    1.0439    1.0595    1.2193 H   0  0  0  0  0  0  0  0  0  0  0  0
    1.8108    1.1139   -1.4202 H   0  0  0  0  0  0  0  0  0  0  0  0
   -2.0719    0.0281   -1.2970 H   0  0  0  0  0  0  0  0  0  0  0  0
  1  2  1  0
  2  3  1  0
  3  4  1  0
  4  5  1  0
  5  6  1  0
  6  7  1  0
  7  8  1  0
  8  9  1  0
  7  1  1  0
  9  3  1  0
  9  5  1  0
  1 10  1  0
  1 11  1  0
  3 12  1  0
  4 13  1  0
  4 14  1  0
  5 15  1  0
  6 16  1  0
  6 17  1  0
  7 18  1  0
  9 19  1  0
M  END
