
     RDKit          3D

 21 23  0  0  0  0  0  0  0  0999 V2000
    0.2999    1.5728   -0.6069 C   0  0  0  0  0  0  0  0  0  0  0  0
   -0.7446    1.5346    0.2022 O   0  0  0  0  0  0  0  0  0  0  0  0
   -1.5377    0.4597    0.3166 C   0  0  0  0  0  0  0  0  0  0  0  0
   -0.9132   -0.4836    1.3496 C   0  0  0  0  0  0  0  0  0  0  0  0
   -0.3746   -1.2491    0.2042 C   0  0  0  0  0  0  0  0  0  0  0  0
   -1.3968   -0.5956   -0.7327 C   0  0  0  0  0  0  0  0  0  0  0  0
    0.9667   -0.8631   -0.2865 C   0  0  0  0  0  0  0  0  0  0  0  0
    1.9102   -0.0301    0.4853 C   0  0  0  0  0  0  0  0  0  0  0  0
    1.1977    0.4405   -0.8012 C   0  0  0  0  0  0  0  0  0  0  0  0
   -0.0477    1.9345   -1.6241 H   0  0  0  0  0  0  0  0  0  0  0  0
    0.9522    2.4384   -0.2636 H   0  0  0  0  0  0  0  0  0  0  0  0
   -2.5681    0.6747    0.5980 H   0  0  0  0  0  0  0  0  0  0  0  0
   -1.6866   -1.0460    1.9250 H   0  0  0  0  0  0  0  0  0  0  0  0
   -0.2299    0.0004    2.0433 H   0  0  0  0  0  0  0  0  0  0  0  0
   -0.5481   -2.3340    0.3318 H   0  0  0  0  0  0  0  0  0  0  0  0
   -1.0053   -0.2974   -1.7056 H   0  0  0  0  0  0  0  0  0  0  0  0
   -2.3173   -1.2412   -0.7514 H   0  0  0  0  0  0  0  0  0  0  0  0
    1.4664   -1.7218   -0.8346 H   0  0  0  0  0  0  0  0  0  0  0  0
    1.6570    0.4643    1.4291 H   0  0  0  0  0  0  0  0  0  0  0  0
    3.0146   -0.2253    0.3991 H   0  0  0  0  0  0  0  0  0  0  0  0
    1.9053    0.5674   -1.6774 H   0  0  0  0  0  0  0  0  0  0  0  0
  1  2  1  0
  2  3  1  0
  3  4  1  0
  4  5  1  0
  5  6  1  0
  5  7  1  0
  7  8  1  0
  8  9  1  0
  9  1  1  0
  6  3  1  0
  9  7  1  0
  1 10  1  0
  1 11  1  0
  3 12  1  0
  4 13  1  0
  4 14  1  0
  5 15  1  0
  6 16  1  0
  6 17  1  0
  7 18  1  0
  8 19  1  0
  8 20  1  0
  9 21  1  0
M  END
