
     RDKit          3D

 21 23  0  0  0  0  0  0  0  0999 V2000
   -1.6345   -0.4379   -1.0655 C   0  0  0  0  0  0  0  0  0  0  0  0
   -1.2500    0.9073   -1.1996 O   0  0  0  0  0  0  0  0  0  0  0  0
   -1.2472    1.3124    0.1430 C   0  0  0  0  0  0  0  0  0  0  0  0
   -0.5052    0.2407    0.8851 C   0  0  0  0  0  0  0  0  0  0  0  0
   -0.6699   -0.9602   -0.0096 C   0  0  0  0  0  0  0  0  0  0  0  0
    0.6833   -1.2710   -0.5683 C   0  0  0  0  0  0  0  0  0  0  0  0
    1.6506   -0.5248    0.3001 C   0  0  0  0  0  0  0  0  0  0  0  0
    1.8354    0.9612    0.0057 C   0  0  0  0  0  0  0  0  0  0  0  0
    0.9396    0.4964    1.0734 C   0  0  0  0  0  0  0  0  0  0  0  0
   -2.6547   -0.5109   -0.6124 H   0  0  0  0  0  0  0  0  0  0  0  0
   -1.5705   -0.9929   -2.0084 H   0  0  0  0  0  0  0  0  0  0  0  0
   -0.8643    2.3225    0.2900 H   0  0  0  0  0  0  0  0  0  0  0  0
   -2.3125    1.2905    0.4664 H   0  0  0  0  0  0  0  0  0  0  0  0
   -1.0057    0.0967    1.8634 H   0  0  0  0  0  0  0  0  0  0  0  0
   -1.0914   -1.8381    0.4974 H   0  0  0  0  0  0  0  0  0  0  0  0
    0.8693   -2.3684   -0.4913 H   0  0  0  0  0  0  0  0  0  0  0  0
    0.7723   -1.0254   -1.6479 H   0  0  0  0  0  0  0  0  0  0  0  0
    2.5193   -1.0885    0.6634 H   0  0  0  0  0  0  0  0  0  0  0  0
    2.8147    1.3697    0.2874 H   0  0  0  0  0  0  0  0  0  0  0  0
    1.4625    1.2707   -0.9988 H   0  0  0  0  0  0  0  0  0  0  0  0
    1.2590    0.7500    2.1265 H   0  0  0  0  0  0  0  0  0  0  0  0
  1  2  1  0
  2  3  1  0
  3  4  1  0
  4  5  1  0
  5  6  1  0
  6  7  1  0
  7  8  1  0
  8  9  1  0
  5  1  1  0
  9  7  1  0
  9  4  1  0
  1 10  1  0
  1 11  1  0
  3 12  1  0
  3 13  1  0
  4 14  1  0
  5 15  1  0
  6 16  1  0
  6 17  1  0
  7 18  1  0
  8 19  1  0
  8 20  1  0
  9 21  1  0
M  END
