
     RDKit          3D

 17 19  0  0  0  0  0  0  0  0999 V2000
   -0.9288    1.3771    0.0549 C   0  0  0  0  0  0  0  0  0  0  0  0
   -1.1204    0.7058    1.2787 O   0  0  0  0  0  0  0  0  0  0  0  0
   -1.3661   -0.5923    0.8653 C   0  0  0  0  0  0  0  0  0  0  0  0
   -0.3200   -0.8760   -0.1764 C   0  0  0  0  0  0  0  0  0  0  0  0
    1.0534   -1.2686    0.2639 C   0  0  0  0  0  0  0  0  0  0  0  0
    1.7777   -0.0840    0.4170 O   0  0  0  0  0  0  0  0  0  0  0  0
    1.4552    0.6588   -0.7210 C   0  0  0  0  0  0  0  0  0  0  0  0
   -0.0463    0.5078   -0.7822 C   0  0  0  0  0  0  0  0  0  0  0  0
   -0.5974   -0.5366   -1.4749 O   0  0  0  0  0  0  0  0  0  0  0  0
   -1.8992    1.4981   -0.4709 H   0  0  0  0  0  0  0  0  0  0  0  0
   -0.4965    2.3505    0.3042 H   0  0  0  0  0  0  0  0  0  0  0  0
   -1.3576   -1.3205    1.6993 H   0  0  0  0  0  0  0  0  0  0  0  0
   -2.3501   -0.6056    0.3620 H   0  0  0  0  0  0  0  0  0  0  0  0
    1.5203   -1.8488   -0.5530 H   0  0  0  0  0  0  0  0  0  0  0  0
    1.0327   -1.8569    1.1912 H   0  0  0  0  0  0  0  0  0  0  0  0
    1.7838    1.7050   -0.6158 H   0  0  0  0  0  0  0  0  0  0  0  0
    1.8592    0.1861   -1.6424 H   0  0  0  0  0  0  0  0  0  0  0  0
  1  2  1  0
  2  3  1  0
  3  4  1  0
  4  5  1  0
  5  6  1  0
  6  7  1  0
  7  8  1  0
  8  9  1  0
  8  1  1  0
  8  4  1  0
  9  4  1  0
  1 10  1  0
  1 11  1  0
  3 12  1  0
  3 13  1  0
  5 14  1  0
  5 15  1  0
  7 16  1  0
  7 17  1  0
M  END
