
     RDKit          3D

 19 21  0  0  0  0  0  0  0  0999 V2000
    1.6030    0.2474    0.7881 C   0  0  0  0  0  0  0  0  0  0  0  0
    0.5735   -0.4677    1.4506 O   0  0  0  0  0  0  0  0  0  0  0  0
    0.0372   -1.2784    0.5151 C   0  0  0  0  0  0  0  0  0  0  0  0
   -1.3050   -1.4959    0.1063 C   0  0  0  0  0  0  0  0  0  0  0  0
   -0.8079   -0.3011   -0.3851 C   0  0  0  0  0  0  0  0  0  0  0  0
   -1.2369    1.0111    0.2923 C   0  0  0  0  0  0  0  0  0  0  0  0
   -0.1031    1.7748    0.3464 O   0  0  0  0  0  0  0  0  0  0  0  0
    0.9434    1.1082   -0.2870 C   0  0  0  0  0  0  0  0  0  0  0  0
    0.1948    0.2086   -1.2957 C   0  0  0  0  0  0  0  0  0  0  0  0
    2.2963   -0.4940    0.3485 H   0  0  0  0  0  0  0  0  0  0  0  0
    2.0381    0.9118    1.5255 H   0  0  0  0  0  0  0  0  0  0  0  0
    0.8349   -1.8719   -0.0281 H   0  0  0  0  0  0  0  0  0  0  0  0
   -2.1060   -1.4533    0.9050 H   0  0  0  0  0  0  0  0  0  0  0  0
   -1.5219   -2.3621   -0.5748 H   0  0  0  0  0  0  0  0  0  0  0  0
   -1.7228    0.8237    1.2521 H   0  0  0  0  0  0  0  0  0  0  0  0
   -1.9521    1.4673   -0.4203 H   0  0  0  0  0  0  0  0  0  0  0  0
    1.6451    1.7736   -0.7766 H   0  0  0  0  0  0  0  0  0  0  0  0
    0.8487   -0.5296   -1.7453 H   0  0  0  0  0  0  0  0  0  0  0  0
   -0.2593    0.9277   -2.0172 H   0  0  0  0  0  0  0  0  0  0  0  0
  1  2  1  0
  2  3  1  0
  3  4  1  0
  4  5  1  0
  5  6  1  0
  6  7  1  0
  7  8  1  0
  8  9  1  0
  8  1  1  0
  5  3  1  0
  9  5  1  0
  1 10  1  0
  1 11  1  0
  3 12  1  0
  4 13  1  0
  4 14  1  0
  6 15  1  0
  6 16  1  0
  8 17  1  0
  9 18  1  0
  9 19  1  0
M  END
