
     RDKit          3D

 19 21  0  0  0  0  0  0  0  0999 V2000
    2.2908    0.0262    0.8973 C   0  0  0  0  0  0  0  0  0  0  0  0
    0.9648   -0.1043    1.5230 O   0  0  0  0  0  0  0  0  0  0  0  0
    1.1788    0.8878    0.4075 C   0  0  0  0  0  0  0  0  0  0  0  0
    0.4359    0.4052   -0.7777 C   0  0  0  0  0  0  0  0  0  0  0  0
   -0.6750    1.2777   -1.3234 C   0  0  0  0  0  0  0  0  0  0  0  0
   -1.2958    0.0565   -1.7139 O   0  0  0  0  0  0  0  0  0  0  0  0
   -0.7424   -0.4304   -0.5477 C   0  0  0  0  0  0  0  0  0  0  0  0
   -0.8777   -1.7010    0.0553 C   0  0  0  0  0  0  0  0  0  0  0  0
   -1.5941   -0.4901    0.6270 C   0  0  0  0  0  0  0  0  0  0  0  0
    2.5773   -0.8314    0.2686 H   0  0  0  0  0  0  0  0  0  0  0  0
    2.9863    0.4076    1.6785 H   0  0  0  0  0  0  0  0  0  0  0  0
    1.0108    1.8764    0.8574 H   0  0  0  0  0  0  0  0  0  0  0  0
    1.1050    0.1122   -1.6036 H   0  0  0  0  0  0  0  0  0  0  0  0
   -1.2562    1.7012   -0.5044 H   0  0  0  0  0  0  0  0  0  0  0  0
   -0.4309    1.8900   -2.1812 H   0  0  0  0  0  0  0  0  0  0  0  0
   -1.5764   -2.4540   -0.3973 H   0  0  0  0  0  0  0  0  0  0  0  0
   -0.0771   -2.1212    0.6824 H   0  0  0  0  0  0  0  0  0  0  0  0
   -1.3259   -0.1040    1.6127 H   0  0  0  0  0  0  0  0  0  0  0  0
   -2.6980   -0.4043    0.4395 H   0  0  0  0  0  0  0  0  0  0  0  0
  1  2  1  0
  2  3  1  0
  3  4  1  0
  4  5  1  0
  5  6  1  0
  6  7  1  0
  7  8  1  0
  8  9  1  0
  3  1  1  0
  7  4  1  0
  9  7  1  0
  1 10  1  0
  1 11  1  0
  3 12  1  0
  4 13  1  0
  5 14  1  0
  5 15  1  0
  8 16  1  0
  8 17  1  0
  9 18  1  0
  9 19  1  0
M  END
