
     RDKit          3D

 19 21  0  0  0  0  0  0  0  0999 V2000
    1.2385    1.5114    0.5750 C   0  0  0  0  0  0  0  0  0  0  0  0
   -0.1338    1.2831    0.2924 O   0  0  0  0  0  0  0  0  0  0  0  0
   -0.1684   -0.0598    0.0569 C   0  0  0  0  0  0  0  0  0  0  0  0
   -1.4056   -0.7649   -0.2112 C   0  0  0  0  0  0  0  0  0  0  0  0
   -2.7438   -0.1142   -0.0190 C   0  0  0  0  0  0  0  0  0  0  0  0
   -2.1477   -0.3906   -1.3009 O   0  0  0  0  0  0  0  0  0  0  0  0
    0.8017   -0.7135    1.0591 C   0  0  0  0  0  0  0  0  0  0  0  0
    1.7984    0.1577    0.3070 C   0  0  0  0  0  0  0  0  0  0  0  0
    0.9910   -0.2544   -0.9344 C   0  0  0  0  0  0  0  0  0  0  0  0
    1.3417    1.7166    1.6645 H   0  0  0  0  0  0  0  0  0  0  0  0
    1.6540    2.3152   -0.0311 H   0  0  0  0  0  0  0  0  0  0  0  0
   -1.4163   -1.8598    0.0706 H   0  0  0  0  0  0  0  0  0  0  0  0
   -2.7803    0.9637    0.2660 H   0  0  0  0  0  0  0  0  0  0  0  0
   -3.6391   -0.7447    0.1564 H   0  0  0  0  0  0  0  0  0  0  0  0
    0.8728   -1.7832    0.8787 H   0  0  0  0  0  0  0  0  0  0  0  0
    0.6935   -0.3541    2.0862 H   0  0  0  0  0  0  0  0  0  0  0  0
    2.8210   -0.0625    0.3415 H   0  0  0  0  0  0  0  0  0  0  0  0
    1.2076   -1.3090   -1.1696 H   0  0  0  0  0  0  0  0  0  0  0  0
    1.0147    0.4629   -1.7524 H   0  0  0  0  0  0  0  0  0  0  0  0
  1  2  1  0
  2  3  1  0
  3  4  1  0
  4  5  1  0
  5  6  1  0
  3  7  1  0
  7  8  1  0
  8  9  1  0
  8  1  1  0
  9  3  1  0
  6  4  1  0
  1 10  1  0
  1 11  1  0
  4 12  1  0
  5 13  1  0
  5 14  1  0
  7 15  1  0
  7 16  1  0
  8 17  1  0
  9 18  1  0
  9 19  1  0
M  END
