
     RDKit          3D

 17 19  0  0  0  0  0  0  0  0999 V2000
    1.8129    0.0043   -0.1424 C   0  0  0  0  0  0  0  0  0  0  0  0
    1.3223    1.3243   -0.0175 O   0  0  0  0  0  0  0  0  0  0  0  0
   -0.0116    1.2626    0.4526 C   0  0  0  0  0  0  0  0  0  0  0  0
    0.0150    0.2814    1.4587 O   0  0  0  0  0  0  0  0  0  0  0  0
   -0.2941   -0.8646    0.7223 C   0  0  0  0  0  0  0  0  0  0  0  0
   -1.6207   -0.3889    0.0943 C   0  0  0  0  0  0  0  0  0  0  0  0
   -0.9004    0.7489   -0.6493 C   0  0  0  0  0  0  0  0  0  0  0  0
   -0.0870   -0.0445   -1.4693 O   0  0  0  0  0  0  0  0  0  0  0  0
    0.5763   -0.8325   -0.5062 C   0  0  0  0  0  0  0  0  0  0  0  0
    2.2860   -0.3554    0.7711 H   0  0  0  0  0  0  0  0  0  0  0  0
    2.4738   -0.0201   -1.0271 H   0  0  0  0  0  0  0  0  0  0  0  0
   -0.2676    2.2517    0.8174 H   0  0  0  0  0  0  0  0  0  0  0  0
   -0.3608   -1.7775    1.2541 H   0  0  0  0  0  0  0  0  0  0  0  0
   -1.9397   -1.1833   -0.5681 H   0  0  0  0  0  0  0  0  0  0  0  0
   -2.3219   -0.0307    0.8309 H   0  0  0  0  0  0  0  0  0  0  0  0
   -1.5364    1.4410   -1.1328 H   0  0  0  0  0  0  0  0  0  0  0  0
    0.8538   -1.8167   -0.8886 H   0  0  0  0  0  0  0  0  0  0  0  0
  1  2  1  0
  2  3  1  0
  3  4  1  0
  4  5  1  0
  5  6  1  0
  6  7  1  0
  7  8  1  0
  8  9  1  0
  9  1  1  0
  7  3  1  0
  9  5  1  0
  1 10  1  0
  1 11  1  0
  3 12  1  0
  5 13  1  0
  6 14  1  0
  6 15  1  0
  7 16  1  0
  9 17  1  0
M  END
