
     RDKit          3D

  4  3  0  0  0  0  0  0  0  0999 V2000
   -0.0605    0.0099    0.0103 C   0  0  0  0  0  0  0  0  0  0  0  0
    1.1345   -0.2153   -0.1932 O   0  0  0  0  0  0  0  0  0  0  0  0
   -0.7159   -0.8329    0.0953 H   0  0  0  0  0  0  0  0  0  0  0  0
   -0.3581    1.0383    0.0876 H   0  0  0  0  0  0  0  0  0  0  0  0
  1  2  2  0
  1  3  1  0
  1  4  1  0
M  END
