
     RDKit          3D

 21 22  0  0  0  0  0  0  0  0999 V2000
    3.8960   -0.6006    0.3953 C   0  0  0  0  0  0  0  0  0  0  0  0
    2.5081   -0.1684    0.6893 C   0  0  0  0  0  0  0  0  0  0  0  0
    1.3752    0.1659    0.9304 C   0  0  0  0  0  0  0  0  0  0  0  0
    0.0086    0.5941    1.2305 C   0  0  0  0  0  0  0  0  0  0  0  0
   -0.5136    1.7908    0.3667 C   0  0  0  0  0  0  0  0  0  0  0  0
   -1.0195    0.4307    0.2367 C   0  0  0  0  0  0  0  0  0  0  0  0
   -0.9846   -0.4043   -0.9669 C   0  0  0  0  0  0  0  0  0  0  0  0
   -2.2226   -1.1404   -0.4336 C   0  0  0  0  0  0  0  0  0  0  0  0
   -2.4288    0.0271    0.5143 C   0  0  0  0  0  0  0  0  0  0  0  0
    4.6085    0.2266    0.5480 H   0  0  0  0  0  0  0  0  0  0  0  0
    4.1983   -1.4088    1.0989 H   0  0  0  0  0  0  0  0  0  0  0  0
    3.9330   -0.9917   -0.6299 H   0  0  0  0  0  0  0  0  0  0  0  0
   -0.3083    0.6227    2.3054 H   0  0  0  0  0  0  0  0  0  0  0  0
   -1.0587    2.5662    0.9435 H   0  0  0  0  0  0  0  0  0  0  0  0
    0.2380    2.2203   -0.3260 H   0  0  0  0  0  0  0  0  0  0  0  0
   -0.1539   -1.1157   -1.0904 H   0  0  0  0  0  0  0  0  0  0  0  0
   -1.2795    0.1124   -1.9279 H   0  0  0  0  0  0  0  0  0  0  0  0
   -1.9305   -2.0394    0.1415 H   0  0  0  0  0  0  0  0  0  0  0  0
   -3.0177   -1.2773   -1.1856 H   0  0  0  0  0  0  0  0  0  0  0  0
   -2.6340   -0.3116    1.5638 H   0  0  0  0  0  0  0  0  0  0  0  0
   -3.2140    0.7014    0.1162 H   0  0  0  0  0  0  0  0  0  0  0  0
  1  2  1  0
  2  3  3  0
  3  4  1  0
  4  5  1  0
  5  6  1  0
  6  7  1  0
  7  8  1  0
  8  9  1  0
  6  4  1  0
  9  6  1  0
  1 10  1  0
  1 11  1  0
  1 12  1  0
  4 13  1  0
  5 14  1  0
  5 15  1  0
  7 16  1  0
  7 17  1  0
  8 18  1  0
  8 19  1  0
  9 20  1  0
  9 21  1  0
M  END
