
     RDKit          3D

 21 20  0  0  0  0  0  0  0  0999 V2000
    3.2703    1.7320   -1.0736 C   0  0  0  0  0  0  0  0  0  0  0  0
    2.2404    0.6941   -1.0235 C   0  0  0  0  0  0  0  0  0  0  0  0
    1.3828   -0.1748   -0.9606 C   0  0  0  0  0  0  0  0  0  0  0  0
    0.3682   -1.2276   -0.8664 C   0  0  0  0  0  0  0  0  0  0  0  0
    0.3148   -1.7357    0.5418 C   0  0  0  0  0  0  0  0  0  0  0  0
   -0.0457   -0.6114    1.5094 C   0  0  0  0  0  0  0  0  0  0  0  0
   -1.3626   -0.1212    1.0876 C   0  0  0  0  0  0  0  0  0  0  0  0
   -2.4527    0.2926    0.7577 C   0  0  0  0  0  0  0  0  0  0  0  0
   -3.7684    0.7835    0.3356 C   0  0  0  0  0  0  0  0  0  0  0  0
    3.3349    2.1154   -2.1103 H   0  0  0  0  0  0  0  0  0  0  0  0
    4.2940    1.3105   -0.8545 H   0  0  0  0  0  0  0  0  0  0  0  0
    3.0956    2.5072   -0.3212 H   0  0  0  0  0  0  0  0  0  0  0  0
    0.5859   -2.0822   -1.5344 H   0  0  0  0  0  0  0  0  0  0  0  0
   -0.6214   -0.8304   -1.1727 H   0  0  0  0  0  0  0  0  0  0  0  0
   -0.3601   -2.5886    0.6606 H   0  0  0  0  0  0  0  0  0  0  0  0
    1.3556   -2.0581    0.8369 H   0  0  0  0  0  0  0  0  0  0  0  0
   -0.0366   -0.9653    2.5554 H   0  0  0  0  0  0  0  0  0  0  0  0
    0.7064    0.1975    1.4457 H   0  0  0  0  0  0  0  0  0  0  0  0
   -3.6267    1.8039   -0.0743 H   0  0  0  0  0  0  0  0  0  0  0  0
   -4.2126    0.0747   -0.3628 H   0  0  0  0  0  0  0  0  0  0  0  0
   -4.4621    0.8841    1.2057 H   0  0  0  0  0  0  0  0  0  0  0  0
  1  2  1  0
  2  3  3  0
  3  4  1  0
  4  5  1  0
  5  6  1  0
  6  7  1  0
  7  8  3  0
  8  9  1  0
  1 10  1  0
  1 11  1  0
  1 12  1  0
  4 13  1  0
  4 14  1  0
  5 15  1  0
  5 16  1  0
  6 17  1  0
  6 18  1  0
  9 19  1  0
  9 20  1  0
  9 21  1  0
M  END
