
     RDKit          3D

 19 20  0  0  0  0  0  0  0  0999 V2000
    2.8418    1.7899    0.7321 C   0  0  0  0  0  0  0  0  0  0  0  0
    1.9512    0.7096    0.3594 C   0  0  0  0  0  0  0  0  0  0  0  0
    1.2180   -0.2093    0.0365 C   0  0  0  0  0  0  0  0  0  0  0  0
    0.3267   -1.3191   -0.3282 C   0  0  0  0  0  0  0  0  0  0  0  0
   -0.7249   -1.5496    0.7372 C   0  0  0  0  0  0  0  0  0  0  0  0
   -1.7058   -0.8155   -0.1410 C   0  0  0  0  0  0  0  0  0  0  0  0
   -2.2098    0.5311    0.2222 C   0  0  0  0  0  0  0  0  0  0  0  0
   -1.9625   -1.4088   -1.3458 O   0  0  0  0  0  0  0  0  0  0  0  0
   -0.7089   -0.8553   -1.2925 C   0  0  0  0  0  0  0  0  0  0  0  0
    2.5011    2.2088    1.7174 H   0  0  0  0  0  0  0  0  0  0  0  0
    2.8330    2.5731   -0.0341 H   0  0  0  0  0  0  0  0  0  0  0  0
    3.8760    1.3953    0.9202 H   0  0  0  0  0  0  0  0  0  0  0  0
    0.9264   -2.1897   -0.6045 H   0  0  0  0  0  0  0  0  0  0  0  0
   -0.5693   -0.9888    1.6792 H   0  0  0  0  0  0  0  0  0  0  0  0
   -1.0542   -2.5989    0.8597 H   0  0  0  0  0  0  0  0  0  0  0  0
   -3.2730    0.4583    0.5378 H   0  0  0  0  0  0  0  0  0  0  0  0
   -2.0467    1.3156   -0.5415 H   0  0  0  0  0  0  0  0  0  0  0  0
   -1.6513    0.8832    1.1318 H   0  0  0  0  0  0  0  0  0  0  0  0
   -0.5677    0.0702   -1.8851 H   0  0  0  0  0  0  0  0  0  0  0  0
  1  2  1  0
  2  3  3  0
  3  4  1  0
  4  5  1  0
  5  6  1  0
  6  7  1  0
  6  8  1  0
  8  9  1  0
  9  4  1  0
  9  6  1  0
  1 10  1  0
  1 11  1  0
  1 12  1  0
  4 13  1  0
  5 14  1  0
  5 15  1  0
  7 16  1  0
  7 17  1  0
  7 18  1  0
  9 19  1  0
M  END
