
     RDKit          3D

 19 20  0  0  0  0  0  0  0  0999 V2000
    3.1305   -1.6208   -1.2209 C   0  0  0  0  0  0  0  0  0  0  0  0
    1.9884   -0.8138   -0.7724 C   0  0  0  0  0  0  0  0  0  0  0  0
    1.0590   -0.1382   -0.4049 C   0  0  0  0  0  0  0  0  0  0  0  0
   -0.0499    0.6843    0.0593 C   0  0  0  0  0  0  0  0  0  0  0  0
   -0.3693    0.3027    1.4684 C   0  0  0  0  0  0  0  0  0  0  0  0
   -1.8283    0.6639    1.6355 C   0  0  0  0  0  0  0  0  0  0  0  0
   -2.8114   -0.1579    1.1378 O   0  0  0  0  0  0  0  0  0  0  0  0
   -2.3765    0.8597    0.3032 C   0  0  0  0  0  0  0  0  0  0  0  0
   -1.3294    0.4140   -0.7036 C   0  0  0  0  0  0  0  0  0  0  0  0
    3.1198   -1.6520   -2.3327 H   0  0  0  0  0  0  0  0  0  0  0  0
    3.1549   -2.6167   -0.7633 H   0  0  0  0  0  0  0  0  0  0  0  0
    4.1017   -1.1117   -0.9580 H   0  0  0  0  0  0  0  0  0  0  0  0
    0.1621    1.7701   -0.0042 H   0  0  0  0  0  0  0  0  0  0  0  0
    0.2198    0.8673    2.2002 H   0  0  0  0  0  0  0  0  0  0  0  0
   -0.2171   -0.7927    1.6073 H   0  0  0  0  0  0  0  0  0  0  0  0
   -2.0963    1.2825    2.4994 H   0  0  0  0  0  0  0  0  0  0  0  0
   -2.9904    1.7395    0.1089 H   0  0  0  0  0  0  0  0  0  0  0  0
   -1.3878    0.9739   -1.6513 H   0  0  0  0  0  0  0  0  0  0  0  0
   -1.4799   -0.6540   -0.9302 H   0  0  0  0  0  0  0  0  0  0  0  0
  1  2  1  0
  2  3  3  0
  3  4  1  0
  4  5  1  0
  5  6  1  0
  6  7  1  0
  7  8  1  0
  8  9  1  0
  9  4  1  0
  8  6  1  0
  1 10  1  0
  1 11  1  0
  1 12  1  0
  4 13  1  0
  5 14  1  0
  5 15  1  0
  6 16  1  0
  8 17  1  0
  9 18  1  0
  9 19  1  0
M  END
