
     RDKit          3D

 19 19  0  0  0  0  0  0  0  0999 V2000
    3.7621    0.0514    0.2956 C   0  0  0  0  0  0  0  0  0  0  0  0
    2.3004   -0.0695    0.3889 C   0  0  0  0  0  0  0  0  0  0  0  0
    1.1056   -0.1892    0.4642 C   0  0  0  0  0  0  0  0  0  0  0  0
   -0.3687   -0.3145    0.5702 C   0  0  0  0  0  0  0  0  0  0  0  0
   -1.1001    0.9528    0.3802 C   0  0  0  0  0  0  0  0  0  0  0  0
   -0.3810    2.1465    0.1410 O   0  0  0  0  0  0  0  0  0  0  0  0
   -1.1570   -0.0346   -0.7009 C   0  0  0  0  0  0  0  0  0  0  0  0
   -2.3138   -0.9529   -0.9274 C   0  0  0  0  0  0  0  0  0  0  0  0
   -3.2127   -0.8424    0.1449 O   0  0  0  0  0  0  0  0  0  0  0  0
    4.0892    1.0951    0.2566 H   0  0  0  0  0  0  0  0  0  0  0  0
    4.2630   -0.4027    1.1944 H   0  0  0  0  0  0  0  0  0  0  0  0
    4.1141   -0.5185   -0.5906 H   0  0  0  0  0  0  0  0  0  0  0  0
   -0.7583   -1.0389    1.3023 H   0  0  0  0  0  0  0  0  0  0  0  0
   -1.9801    1.1581    1.0474 H   0  0  0  0  0  0  0  0  0  0  0  0
   -0.3339    2.3162   -0.8526 H   0  0  0  0  0  0  0  0  0  0  0  0
   -0.5615    0.2116   -1.6206 H   0  0  0  0  0  0  0  0  0  0  0  0
   -2.8047   -0.8347   -1.8911 H   0  0  0  0  0  0  0  0  0  0  0  0
   -1.9111   -2.0056   -0.8778 H   0  0  0  0  0  0  0  0  0  0  0  0
   -2.7514   -0.7283    1.0029 H   0  0  0  0  0  0  0  0  0  0  0  0
  1  2  1  0
  2  3  3  0
  3  4  1  0
  4  5  1  0
  5  6  1  0
  5  7  1  0
  7  8  1  0
  8  9  1  0
  7  4  1  0
  1 10  1  0
  1 11  1  0
  1 12  1  0
  4 13  1  0
  5 14  1  0
  6 15  1  0
  7 16  1  0
  8 17  1  0
  8 18  1  0
  9 19  1  0
M  END
