
     RDKit          3D

 21 21  0  0  0  0  0  0  0  0999 V2000
    2.5779   -3.2435   -0.4447 C   0  0  0  0  0  0  0  0  0  0  0  0
    1.5884   -2.1699   -0.4151 C   0  0  0  0  0  0  0  0  0  0  0  0
    0.6664   -1.1357   -0.3789 C   0  0  0  0  0  0  0  0  0  0  0  0
   -0.1804   -0.1811   -0.3474 C   0  0  0  0  0  0  0  0  0  0  0  0
   -0.8751    0.2329   -1.5163 O   0  0  0  0  0  0  0  0  0  0  0  0
   -1.1843   -0.2003    0.8728 C   0  0  0  0  0  0  0  0  0  0  0  0
   -0.9744    1.2743    0.9782 C   0  0  0  0  0  0  0  0  0  0  0  0
   -1.9186    2.0925    0.1331 C   0  0  0  0  0  0  0  0  0  0  0  0
    0.3946    1.1334    0.3315 C   0  0  0  0  0  0  0  0  0  0  0  0
    3.1366   -3.1447   -1.4733 H   0  0  0  0  0  0  0  0  0  0  0  0
    2.0458   -4.2326   -0.6084 H   0  0  0  0  0  0  0  0  0  0  0  0
    3.2820   -3.1912    0.3390 H   0  0  0  0  0  0  0  0  0  0  0  0
   -0.1761    0.0760   -2.2358 H   0  0  0  0  0  0  0  0  0  0  0  0
   -2.1380   -0.5835    0.5683 H   0  0  0  0  0  0  0  0  0  0  0  0
   -0.7590   -0.7628    1.7482 H   0  0  0  0  0  0  0  0  0  0  0  0
   -0.9317    1.6167    2.0434 H   0  0  0  0  0  0  0  0  0  0  0  0
   -2.2750    2.9703    0.7670 H   0  0  0  0  0  0  0  0  0  0  0  0
   -1.3781    2.5484   -0.7107 H   0  0  0  0  0  0  0  0  0  0  0  0
   -2.7763    1.4882   -0.1974 H   0  0  0  0  0  0  0  0  0  0  0  0
    1.2361    0.8953    0.9688 H   0  0  0  0  0  0  0  0  0  0  0  0
    0.6393    1.8863   -0.4224 H   0  0  0  0  0  0  0  0  0  0  0  0
  1  2  1  0
  2  3  3  0
  3  4  1  0
  4  5  1  0
  4  6  1  0
  6  7  1  0
  7  8  1  0
  7  9  1  0
  9  4  1  0
  1 10  1  0
  1 11  1  0
  1 12  1  0
  5 13  1  0
  6 14  1  0
  6 15  1  0
  7 16  1  0
  8 17  1  0
  8 18  1  0
  8 19  1  0
  9 20  1  0
  9 21  1  0
M  END
