
     RDKit          3D

 17 17  0  0  0  0  0  0  0  0999 V2000
    3.7136    0.3220   -0.5887 C   0  0  0  0  0  0  0  0  0  0  0  0
    2.2790    0.5257   -0.2999 C   0  0  0  0  0  0  0  0  0  0  0  0
    1.0994    0.6913   -0.0832 C   0  0  0  0  0  0  0  0  0  0  0  0
   -0.2941    0.8665    0.1861 C   0  0  0  0  0  0  0  0  0  0  0  0
   -0.8182    1.9838    0.4293 O   0  0  0  0  0  0  0  0  0  0  0  0
   -1.1786   -0.3226    0.1817 C   0  0  0  0  0  0  0  0  0  0  0  0
   -0.5375   -1.5317   -0.0946 O   0  0  0  0  0  0  0  0  0  0  0  0
   -2.2722   -0.2975    1.2025 C   0  0  0  0  0  0  0  0  0  0  0  0
   -2.5924   -0.1980   -0.2403 C   0  0  0  0  0  0  0  0  0  0  0  0
    4.2421    1.2996   -0.6667 H   0  0  0  0  0  0  0  0  0  0  0  0
    4.1922   -0.2448    0.2343 H   0  0  0  0  0  0  0  0  0  0  0  0
    3.7495   -0.2228   -1.5617 H   0  0  0  0  0  0  0  0  0  0  0  0
   -0.8493   -1.9095   -0.9325 H   0  0  0  0  0  0  0  0  0  0  0  0
   -2.4283   -1.2451    1.7409 H   0  0  0  0  0  0  0  0  0  0  0  0
   -2.3555    0.5946    1.8664 H   0  0  0  0  0  0  0  0  0  0  0  0
   -2.9071    0.7859   -0.6690 H   0  0  0  0  0  0  0  0  0  0  0  0
   -3.0425   -1.0973   -0.7047 H   0  0  0  0  0  0  0  0  0  0  0  0
  1  2  1  0
  2  3  3  0
  3  4  1  0
  4  5  2  0
  4  6  1  0
  6  7  1  0
  6  8  1  0
  8  9  1  0
  9  6  1  0
  1 10  1  0
  1 11  1  0
  1 12  1  0
  7 13  1  0
  8 14  1  0
  8 15  1  0
  9 16  1  0
  9 17  1  0
M  END
