
     RDKit          3D

 19 19  0  0  0  0  0  0  0  0999 V2000
    3.6946    0.4569   -0.4116 C   0  0  0  0  0  0  0  0  0  0  0  0
    2.2223    0.3731   -0.5338 C   0  0  0  0  0  0  0  0  0  0  0  0
    1.0207    0.3149   -0.6521 C   0  0  0  0  0  0  0  0  0  0  0  0
   -0.4442    0.2517   -0.7747 C   0  0  0  0  0  0  0  0  0  0  0  0
   -0.9025   -0.3387   -1.9395 O   0  0  0  0  0  0  0  0  0  0  0  0
   -1.2810    1.2870   -0.0744 C   0  0  0  0  0  0  0  0  0  0  0  0
   -1.2360   -0.0715    0.4752 C   0  0  0  0  0  0  0  0  0  0  0  0
   -2.4794   -0.9215    0.2886 C   0  0  0  0  0  0  0  0  0  0  0  0
   -0.4644   -0.4073    1.5711 O   0  0  0  0  0  0  0  0  0  0  0  0
    4.1523   -0.5417   -0.4274 H   0  0  0  0  0  0  0  0  0  0  0  0
    3.9763    0.9789    0.5136 H   0  0  0  0  0  0  0  0  0  0  0  0
    4.1246    1.0066   -1.2976 H   0  0  0  0  0  0  0  0  0  0  0  0
   -0.7980   -1.3222   -1.8450 H   0  0  0  0  0  0  0  0  0  0  0  0
   -2.1816    1.6986   -0.5342 H   0  0  0  0  0  0  0  0  0  0  0  0
   -0.6569    2.0776    0.4289 H   0  0  0  0  0  0  0  0  0  0  0  0
   -2.6867   -1.5106    1.2080 H   0  0  0  0  0  0  0  0  0  0  0  0
   -2.3506   -1.6559   -0.5353 H   0  0  0  0  0  0  0  0  0  0  0  0
   -3.3415   -0.2847    0.0257 H   0  0  0  0  0  0  0  0  0  0  0  0
   -0.3682   -1.3912    1.6036 H   0  0  0  0  0  0  0  0  0  0  0  0
  1  2  1  0
  2  3  3  0
  3  4  1  0
  4  5  1  0
  4  6  1  0
  6  7  1  0
  7  8  1  0
  7  9  1  0
  7  4  1  0
  1 10  1  0
  1 11  1  0
  1 12  1  0
  5 13  1  0
  6 14  1  0
  6 15  1  0
  8 16  1  0
  8 17  1  0
  8 18  1  0
  9 19  1  0
M  END
