
     RDKit          3D

 21 21  0  0  0  0  0  0  0  0999 V2000
    3.1578   -1.1930   -0.1732 C   0  0  0  0  0  0  0  0  0  0  0  0
    1.7881   -0.6861   -0.1120 C   0  0  0  0  0  0  0  0  0  0  0  0
    0.6608   -0.2578   -0.0630 C   0  0  0  0  0  0  0  0  0  0  0  0
   -0.6963    0.2574   -0.0173 C   0  0  0  0  0  0  0  0  0  0  0  0
   -1.7964   -0.6110    0.5435 C   0  0  0  0  0  0  0  0  0  0  0  0
   -1.9773   -1.8893   -0.2002 C   0  0  0  0  0  0  0  0  0  0  0  0
   -1.0981    1.0289   -1.1053 O   0  0  0  0  0  0  0  0  0  0  0  0
   -0.8702    1.7640    0.0768 C   0  0  0  0  0  0  0  0  0  0  0  0
    0.3899    2.6016   -0.0005 C   0  0  0  0  0  0  0  0  0  0  0  0
    3.4240   -1.7610    0.7360 H   0  0  0  0  0  0  0  0  0  0  0  0
    3.9034   -0.3704   -0.2720 H   0  0  0  0  0  0  0  0  0  0  0  0
    3.2667   -1.8461   -1.0687 H   0  0  0  0  0  0  0  0  0  0  0  0
   -2.7630   -0.0759    0.5888 H   0  0  0  0  0  0  0  0  0  0  0  0
   -1.5003   -0.8616    1.5889 H   0  0  0  0  0  0  0  0  0  0  0  0
   -1.0627   -2.5116   -0.1998 H   0  0  0  0  0  0  0  0  0  0  0  0
   -2.7583   -2.4786    0.3229 H   0  0  0  0  0  0  0  0  0  0  0  0
   -2.3611   -1.6880   -1.2222 H   0  0  0  0  0  0  0  0  0  0  0  0
   -1.7293    2.1224    0.6493 H   0  0  0  0  0  0  0  0  0  0  0  0
    0.0927    3.5782   -0.4622 H   0  0  0  0  0  0  0  0  0  0  0  0
    1.1326    2.0548   -0.6181 H   0  0  0  0  0  0  0  0  0  0  0  0
    0.7970    2.8232    1.0086 H   0  0  0  0  0  0  0  0  0  0  0  0
  1  2  1  0
  2  3  3  0
  3  4  1  0
  4  5  1  0
  5  6  1  0
  4  7  1  0
  7  8  1  0
  8  9  1  0
  8  4  1  0
  1 10  1  0
  1 11  1  0
  1 12  1  0
  5 13  1  0
  5 14  1  0
  6 15  1  0
  6 16  1  0
  6 17  1  0
  8 18  1  0
  9 19  1  0
  9 20  1  0
  9 21  1  0
M  END
