
     RDKit          3D

 21 21  0  0  0  0  0  0  0  0999 V2000
    3.4268   -2.4731    0.1197 C   0  0  0  0  0  0  0  0  0  0  0  0
    2.5145   -1.4445   -0.2410 C   0  0  0  0  0  0  0  0  0  0  0  0
    1.7441   -0.5469   -0.5590 C   0  0  0  0  0  0  0  0  0  0  0  0
    0.8317    0.4950   -0.9246 C   0  0  0  0  0  0  0  0  0  0  0  0
    0.0145    0.4019   -2.0447 O   0  0  0  0  0  0  0  0  0  0  0  0
   -0.6518    0.0845   -0.8935 C   0  0  0  0  0  0  0  0  0  0  0  0
   -1.4758    1.0965   -0.1355 C   0  0  0  0  0  0  0  0  0  0  0  0
   -2.9282    0.7324   -0.0799 C   0  0  0  0  0  0  0  0  0  0  0  0
   -0.9173    1.0618    1.2914 C   0  0  0  0  0  0  0  0  0  0  0  0
    4.4634   -2.2790   -0.2752 H   0  0  0  0  0  0  0  0  0  0  0  0
    3.4421   -2.5411    1.2329 H   0  0  0  0  0  0  0  0  0  0  0  0
    3.0231   -3.4411   -0.3084 H   0  0  0  0  0  0  0  0  0  0  0  0
    1.1153    1.5184   -0.6560 H   0  0  0  0  0  0  0  0  0  0  0  0
   -0.8739   -0.9776   -0.6858 H   0  0  0  0  0  0  0  0  0  0  0  0
   -1.3617    2.0861   -0.5965 H   0  0  0  0  0  0  0  0  0  0  0  0
   -3.1019   -0.3524    0.0567 H   0  0  0  0  0  0  0  0  0  0  0  0
   -3.4676    1.0710   -0.9785 H   0  0  0  0  0  0  0  0  0  0  0  0
   -3.3885    1.2573    0.7750 H   0  0  0  0  0  0  0  0  0  0  0  0
   -1.5899    1.5604    2.0110 H   0  0  0  0  0  0  0  0  0  0  0  0
   -0.9194   -0.0326    1.5637 H   0  0  0  0  0  0  0  0  0  0  0  0
    0.1007    1.4864    1.3282 H   0  0  0  0  0  0  0  0  0  0  0  0
  1  2  1  0
  2  3  3  0
  3  4  1  0
  4  5  1  0
  5  6  1  0
  6  7  1  0
  7  8  1  0
  7  9  1  0
  6  4  1  0
  1 10  1  0
  1 11  1  0
  1 12  1  0
  4 13  1  0
  6 14  1  0
  7 15  1  0
  8 16  1  0
  8 17  1  0
  8 18  1  0
  9 19  1  0
  9 20  1  0
  9 21  1  0
M  END
