
     RDKit          3D

 21 21  0  0  0  0  0  0  0  0999 V2000
    3.8096   -0.9302   -0.9676 C   0  0  0  0  0  0  0  0  0  0  0  0
    2.3396   -0.5832   -0.7642 C   0  0  0  0  0  0  0  0  0  0  0  0
    1.0681   -0.2976   -0.5970 C   0  0  0  0  0  0  0  0  0  0  0  0
   -0.1596   -0.0423   -0.4266 C   0  0  0  0  0  0  0  0  0  0  0  0
   -0.7253    0.7449    0.5442 C   0  0  0  0  0  0  0  0  0  0  0  0
   -0.0116    1.4848    1.6824 C   0  0  0  0  0  0  0  0  0  0  0  0
   -2.2034    0.6612    0.5794 C   0  0  0  0  0  0  0  0  0  0  0  0
   -2.2962   -0.8417    0.1062 C   0  0  0  0  0  0  0  0  0  0  0  0
   -1.4069   -0.6016   -1.1408 C   0  0  0  0  0  0  0  0  0  0  0  0
    3.9082   -1.3874   -2.0111 H   0  0  0  0  0  0  0  0  0  0  0  0
    4.3171    0.0708   -1.0761 H   0  0  0  0  0  0  0  0  0  0  0  0
    4.2168   -1.5098   -0.1968 H   0  0  0  0  0  0  0  0  0  0  0  0
    0.6801    0.7154    2.0913 H   0  0  0  0  0  0  0  0  0  0  0  0
   -0.7348    1.9319    2.3560 H   0  0  0  0  0  0  0  0  0  0  0  0
    0.5919    2.2815    1.1451 H   0  0  0  0  0  0  0  0  0  0  0  0
   -2.6712    0.7599    1.5772 H   0  0  0  0  0  0  0  0  0  0  0  0
   -2.6372    1.2572   -0.2230 H   0  0  0  0  0  0  0  0  0  0  0  0
   -3.3089   -1.1233   -0.1128 H   0  0  0  0  0  0  0  0  0  0  0  0
   -1.7303   -1.4170    0.8439 H   0  0  0  0  0  0  0  0  0  0  0  0
   -1.8436    0.2758   -1.6730 H   0  0  0  0  0  0  0  0  0  0  0  0
   -1.2025   -1.4490   -1.7369 H   0  0  0  0  0  0  0  0  0  0  0  0
  1  2  1  0
  2  3  3  0
  3  4  1  0
  4  5  2  0
  5  6  1  0
  5  7  1  0
  7  8  1  0
  8  9  1  0
  9  4  1  0
  1 10  1  0
  1 11  1  0
  1 12  1  0
  6 13  1  0
  6 14  1  0
  6 15  1  0
  7 16  1  0
  7 17  1  0
  8 18  1  0
  8 19  1  0
  9 20  1  0
  9 21  1  0
M  END
