
     RDKit          3D

 19 19  0  0  0  0  0  0  0  0999 V2000
    3.3485   -1.7858    0.6821 C   0  0  0  0  0  0  0  0  0  0  0  0
    1.9014   -1.2278    0.9097 C   0  0  0  0  0  0  0  0  0  0  0  0
    0.8565   -0.8460    1.0740 C   0  0  0  0  0  0  0  0  0  0  0  0
   -0.6056   -0.3151    1.3308 C   0  0  0  0  0  0  0  0  0  0  0  0
   -1.0316   -0.0132   -0.0692 C   0  0  0  0  0  0  0  0  0  0  0  0
   -2.2382    0.8125   -0.0316 C   0  0  0  0  0  0  0  0  0  0  0  0
   -2.1907    1.7025   -0.9519 C   0  0  0  0  0  0  0  0  0  0  0  0
   -0.8109    1.4136   -1.6863 C   0  0  0  0  0  0  0  0  0  0  0  0
   -0.0715    0.9776   -0.6247 O   0  0  0  0  0  0  0  0  0  0  0  0
    3.2608   -2.4827   -0.1309 H   0  0  0  0  0  0  0  0  0  0  0  0
    3.5377   -2.3703    1.6397 H   0  0  0  0  0  0  0  0  0  0  0  0
    3.9910   -0.9350    0.6186 H   0  0  0  0  0  0  0  0  0  0  0  0
   -1.1605   -0.9381    1.9048 H   0  0  0  0  0  0  0  0  0  0  0  0
   -0.3694    0.7527    1.7553 H   0  0  0  0  0  0  0  0  0  0  0  0
   -0.9913   -0.8175   -0.7919 H   0  0  0  0  0  0  0  0  0  0  0  0
   -3.0660    0.6610    0.6885 H   0  0  0  0  0  0  0  0  0  0  0  0
   -2.6981    2.5926   -1.3337 H   0  0  0  0  0  0  0  0  0  0  0  0
   -1.1833    0.5522   -2.3268 H   0  0  0  0  0  0  0  0  0  0  0  0
   -0.4789    2.2667   -2.2337 H   0  0  0  0  0  0  0  0  0  0  0  0
  1  2  1  0
  2  3  3  0
  3  4  1  0
  4  5  1  0
  5  6  1  0
  6  7  2  0
  7  8  1  0
  8  9  1  0
  9  5  1  0
  1 10  1  0
  1 11  1  0
  1 12  1  0
  4 13  1  0
  4 14  1  0
  5 15  1  0
  6 16  1  0
  7 17  1  0
  8 18  1  0
  8 19  1  0
M  END
