
     RDKit          3D

 20 20  0  0  0  0  0  0  0  0999 V2000
    3.5468   -0.6748   -0.5298 C   0  0  0  0  0  0  0  0  0  0  0  0
    2.2533    0.0334   -0.5087 C   0  0  0  0  0  0  0  0  0  0  0  0
    1.1913    0.6131   -0.5114 C   0  0  0  0  0  0  0  0  0  0  0  0
   -0.1079    1.2981   -0.5248 C   0  0  0  0  0  0  0  0  0  0  0  0
   -1.1519    0.2921   -0.1720 C   0  0  0  0  0  0  0  0  0  0  0  0
   -2.5695    0.8631   -0.1453 C   0  0  0  0  0  0  0  0  0  0  0  0
   -0.8644   -0.7380    0.9194 C   0  0  0  0  0  0  0  0  0  0  0  0
   -1.0278   -1.1349   -0.5327 C   0  0  0  0  0  0  0  0  0  0  0  0
    3.5616   -1.2929   -1.4393 H   0  0  0  0  0  0  0  0  0  0  0  0
    4.3957    0.0601   -0.5101 H   0  0  0  0  0  0  0  0  0  0  0  0
    3.6745   -1.2850    0.3928 H   0  0  0  0  0  0  0  0  0  0  0  0
   -0.3462    1.6924   -1.5370 H   0  0  0  0  0  0  0  0  0  0  0  0
   -0.1486    2.1144    0.2476 H   0  0  0  0  0  0  0  0  0  0  0  0
   -3.1937    0.3601    0.6246 H   0  0  0  0  0  0  0  0  0  0  0  0
   -2.5190    1.9431    0.1766 H   0  0  0  0  0  0  0  0  0  0  0  0
   -3.0151    0.8453   -1.1484 H   0  0  0  0  0  0  0  0  0  0  0  0
    0.1233   -0.7616    1.3895 H   0  0  0  0  0  0  0  0  0  0  0  0
   -1.7138   -0.9956    1.6015 H   0  0  0  0  0  0  0  0  0  0  0  0
   -1.9725   -1.6846   -0.7782 H   0  0  0  0  0  0  0  0  0  0  0  0
   -0.1163   -1.5480   -1.0191 H   0  0  0  0  0  0  0  0  0  0  0  0
  1  2  1  0
  2  3  3  0
  3  4  1  0
  4  5  1  0
  5  6  1  0
  5  7  1  0
  7  8  1  0
  8  5  1  0
  1  9  1  0
  1 10  1  0
  1 11  1  0
  4 12  1  0
  4 13  1  0
  6 14  1  0
  6 15  1  0
  6 16  1  0
  7 17  1  0
  7 18  1  0
  8 19  1  0
  8 20  1  0
M  END
