
     RDKit          3D

 14 14  0  0  0  0  0  0  0  0999 V2000
    3.1332   -0.1335    0.1682 C   0  0  0  0  0  0  0  0  0  0  0  0
    1.4784   -0.1157    0.0921 C   0  0  0  0  0  0  0  0  0  0  0  0
    0.2230   -0.1136    0.0532 C   0  0  0  0  0  0  0  0  0  0  0  0
   -1.1404   -0.0906    0.0195 C   0  0  0  0  0  0  0  0  0  0  0  0
   -1.5062    1.3843   -0.2763 C   0  0  0  0  0  0  0  0  0  0  0  0
   -1.4779    1.5469   -1.6172 O   0  0  0  0  0  0  0  0  0  0  0  0
   -2.0802   -0.9789    0.4264 C   0  0  0  0  0  0  0  0  0  0  0  0
   -1.7338   -0.9680   -1.0383 O   0  0  0  0  0  0  0  0  0  0  0  0
    3.3275    0.3188   -0.8001 H   0  0  0  0  0  0  0  0  0  0  0  0
    3.2410    0.7389    0.9288 H   0  0  0  0  0  0  0  0  0  0  0  0
    3.3850   -1.0677    0.4804 H   0  0  0  0  0  0  0  0  0  0  0  0
   -1.7754    2.1374    0.2868 H   0  0  0  0  0  0  0  0  0  0  0  0
   -1.9087   -1.9558    0.8317 H   0  0  0  0  0  0  0  0  0  0  0  0
   -3.1654   -0.7025    0.4449 H   0  0  0  0  0  0  0  0  0  0  0  0
  1  2  1  0
  2  3  3  0
  3  4  1  0
  4  5  1  0
  5  6  2  0
  4  7  1  0
  7  8  1  0
  8  4  1  0
  1  9  1  0
  1 10  1  0
  1 11  1  0
  5 12  1  0
  7 13  1  0
  7 14  1  0
M  END
