
     RDKit          3D

 19 20  0  0  0  0  0  0  0  0999 V2000
    1.9742    2.7028    0.8499 C   0  0  0  0  0  0  0  0  0  0  0  0
    1.4877    1.7704    0.3963 C   0  0  0  0  0  0  0  0  0  0  0  0
    0.8965    0.5983   -0.1887 C   0  0  0  0  0  0  0  0  0  0  0  0
    0.2849   -0.5600   -0.7790 C   0  0  0  0  0  0  0  0  0  0  0  0
   -0.3577   -1.4436    0.3096 C   0  0  0  0  0  0  0  0  0  0  0  0
   -1.0482   -2.4049   -0.5638 C   0  0  0  0  0  0  0  0  0  0  0  0
   -1.7195   -1.5264   -1.3938 O   0  0  0  0  0  0  0  0  0  0  0  0
   -1.2314   -0.3036   -1.0655 C   0  0  0  0  0  0  0  0  0  0  0  0
   -1.3122   -0.2873    0.4693 C   0  0  0  0  0  0  0  0  0  0  0  0
    2.4400    3.5810    0.1869 H   0  0  0  0  0  0  0  0  0  0  0  0
    2.8687    2.6713    1.6882 H   0  0  0  0  0  0  0  0  0  0  0  0
    1.3296    3.4370    1.5969 H   0  0  0  0  0  0  0  0  0  0  0  0
    0.7019   -0.9815   -1.6529 H   0  0  0  0  0  0  0  0  0  0  0  0
    0.2460   -1.7730    1.1337 H   0  0  0  0  0  0  0  0  0  0  0  0
   -1.7127   -3.0967   -0.0185 H   0  0  0  0  0  0  0  0  0  0  0  0
   -0.3133   -2.9577   -1.1985 H   0  0  0  0  0  0  0  0  0  0  0  0
   -1.4177    0.5639   -1.6194 H   0  0  0  0  0  0  0  0  0  0  0  0
   -2.2938   -0.5845    0.8820 H   0  0  0  0  0  0  0  0  0  0  0  0
   -0.8229    0.5946    0.9673 H   0  0  0  0  0  0  0  0  0  0  0  0
  1  2  1  0
  2  3  3  0
  3  4  1  0
  4  5  1  0
  5  6  1  0
  6  7  1  0
  7  8  1  0
  8  9  1  0
  8  4  1  0
  9  5  1  0
  1 10  1  0
  1 11  1  0
  1 12  1  0
  4 13  1  0
  5 14  1  0
  6 15  1  0
  6 16  1  0
  8 17  1  0
  9 18  1  0
  9 19  1  0
M  END
