
     RDKit          3D

 18 19  0  0  0  0  0  0  0  0999 V2000
    3.3705   -1.0443    0.1490 C   0  0  0  0  0  0  0  0  0  0  0  0
    1.9350   -0.6215   -0.1056 C   0  0  0  0  0  0  0  0  0  0  0  0
    0.8367   -0.3145   -0.2870 C   0  0  0  0  0  0  0  0  0  0  0  0
   -0.5629    0.0696   -0.4929 C   0  0  0  0  0  0  0  0  0  0  0  0
   -1.5953   -0.8306    0.0422 C   0  0  0  0  0  0  0  0  0  0  0  0
   -2.1905    0.3185    0.8331 C   0  0  0  0  0  0  0  0  0  0  0  0
   -1.1040    1.2630    0.3371 C   0  0  0  0  0  0  0  0  0  0  0  0
   -0.8852    1.3750   -1.1156 C   0  0  0  0  0  0  0  0  0  0  0  0
    4.0352   -0.2829   -0.3589 H   0  0  0  0  0  0  0  0  0  0  0  0
    3.5337   -1.9865   -0.3652 H   0  0  0  0  0  0  0  0  0  0  0  0
    3.5694   -0.9832    1.2102 H   0  0  0  0  0  0  0  0  0  0  0  0
   -2.2745   -1.1965   -0.7597 H   0  0  0  0  0  0  0  0  0  0  0  0
   -1.2517   -1.6503    0.6904 H   0  0  0  0  0  0  0  0  0  0  0  0
   -2.1688    0.1392    1.9088 H   0  0  0  0  0  0  0  0  0  0  0  0
   -3.1548    0.6934    0.4464 H   0  0  0  0  0  0  0  0  0  0  0  0
   -0.4263    1.7063    1.0728 H   0  0  0  0  0  0  0  0  0  0  0  0
   -1.7115    1.3794   -1.8358 H   0  0  0  0  0  0  0  0  0  0  0  0
    0.0449    1.9661   -1.3690 H   0  0  0  0  0  0  0  0  0  0  0  0
  1  2  1  0
  2  3  3  0
  3  4  1  0
  4  5  1  0
  5  6  1  0
  6  7  1  0
  7  8  1  0
  7  4  1  0
  8  4  1  0
  1  9  1  0
  1 10  1  0
  1 11  1  0
  5 12  1  0
  5 13  1  0
  6 14  1  0
  6 15  1  0
  7 16  1  0
  8 17  1  0
  8 18  1  0
M  END
