
     RDKit          3D

 25 24  0  0  0  0  0  0  0  0999 V2000
    4.6443   -0.3905   -0.9309 C   0  0  0  0  0  0  0  0  0  0  0  0
    3.2606   -0.4943   -0.4197 C   0  0  0  0  0  0  0  0  0  0  0  0
    2.1325   -0.5695    0.0169 C   0  0  0  0  0  0  0  0  0  0  0  0
    0.7697   -0.6378    0.5492 C   0  0  0  0  0  0  0  0  0  0  0  0
   -0.0781    0.2693   -0.2759 C   0  0  0  0  0  0  0  0  0  0  0  0
   -1.5334    0.2684    0.2029 C   0  0  0  0  0  0  0  0  0  0  0  0
   -2.1204   -1.1208    0.1165 C   0  0  0  0  0  0  0  0  0  0  0  0
   -1.6079    0.7249    1.6498 C   0  0  0  0  0  0  0  0  0  0  0  0
   -2.3812    1.1863   -0.6140 C   0  0  0  0  0  0  0  0  0  0  0  0
    4.6692    0.3685   -1.7105 H   0  0  0  0  0  0  0  0  0  0  0  0
    4.9658   -1.3649   -1.3997 H   0  0  0  0  0  0  0  0  0  0  0  0
    5.3152   -0.2177   -0.0836 H   0  0  0  0  0  0  0  0  0  0  0  0
    0.3874   -1.6935    0.5403 H   0  0  0  0  0  0  0  0  0  0  0  0
    0.7401   -0.2779    1.5973 H   0  0  0  0  0  0  0  0  0  0  0  0
   -0.0123    0.1236   -1.3595 H   0  0  0  0  0  0  0  0  0  0  0  0
    0.2774    1.3210   -0.0702 H   0  0  0  0  0  0  0  0  0  0  0  0
   -3.1787   -1.0574   -0.1815 H   0  0  0  0  0  0  0  0  0  0  0  0
   -1.5926   -1.6533   -0.7020 H   0  0  0  0  0  0  0  0  0  0  0  0
   -2.0098   -1.5961    1.0995 H   0  0  0  0  0  0  0  0  0  0  0  0
   -0.9973    1.6566    1.7392 H   0  0  0  0  0  0  0  0  0  0  0  0
   -2.6258    0.9235    1.9757 H   0  0  0  0  0  0  0  0  0  0  0  0
   -1.1743   -0.0763    2.2721 H   0  0  0  0  0  0  0  0  0  0  0  0
   -2.7581    2.0417   -0.0204 H   0  0  0  0  0  0  0  0  0  0  0  0
   -1.8172    1.5975   -1.4765 H   0  0  0  0  0  0  0  0  0  0  0  0
   -3.2752    0.6687   -1.0699 H   0  0  0  0  0  0  0  0  0  0  0  0
  1  2  1  0
  2  3  3  0
  3  4  1  0
  4  5  1  0
  5  6  1  0
  6  7  1  0
  6  8  1  0
  6  9  1  0
  1 10  1  0
  1 11  1  0
  1 12  1  0
  4 13  1  0
  4 14  1  0
  5 15  1  0
  5 16  1  0
  7 17  1  0
  7 18  1  0
  7 19  1  0
  8 20  1  0
  8 21  1  0
  8 22  1  0
  9 23  1  0
  9 24  1  0
  9 25  1  0
M  END
