
     RDKit          3D

 17 16  0  0  0  0  0  0  0  0999 V2000
   -4.3992   -0.1804    0.1291 C   0  0  0  0  0  0  0  0  0  0  0  0
   -3.1187    0.4383    0.1575 C   0  0  0  0  0  0  0  0  0  0  0  0
   -1.9811    0.9821    0.1617 C   0  0  0  0  0  0  0  0  0  0  0  0
   -0.6546    1.6443    0.1610 C   0  0  0  0  0  0  0  0  0  0  0  0
   -0.6007    2.9072    0.2073 O   0  0  0  0  0  0  0  0  0  0  0  0
    0.4730    0.8374    0.1154 C   0  0  0  0  0  0  0  0  0  0  0  0
    1.5464    0.0496    0.0591 C   0  0  0  0  0  0  0  0  0  0  0  0
    2.7520   -0.8583   -0.0073 C   0  0  0  0  0  0  0  0  0  0  0  0
    3.4520   -0.7624    1.3129 C   0  0  0  0  0  0  0  0  0  0  0  0
   -5.1675    0.3028    0.7236 H   0  0  0  0  0  0  0  0  0  0  0  0
   -4.3386   -1.3015    0.2365 H   0  0  0  0  0  0  0  0  0  0  0  0
   -4.7211   -0.0987   -0.9973 H   0  0  0  0  0  0  0  0  0  0  0  0
    2.4768   -1.8108   -0.3944 H   0  0  0  0  0  0  0  0  0  0  0  0
    3.4032   -0.2627   -0.7186 H   0  0  0  0  0  0  0  0  0  0  0  0
    4.3441   -0.0600    1.1755 H   0  0  0  0  0  0  0  0  0  0  0  0
    2.7697   -0.1638    2.0196 H   0  0  0  0  0  0  0  0  0  0  0  0
    3.7644   -1.6629    1.8097 H   0  0  0  0  0  0  0  0  0  0  0  0
  1  2  1  0
  2  3  3  0
  3  4  1  0
  4  5  2  0
  4  6  1  0
  6  7  3  0
  7  8  1  0
  8  9  1  0
  1 10  1  0
  1 11  1  0
  1 12  1  0
  8 13  1  0
  8 14  1  0
  9 15  1  0
  9 16  1  0
  9 17  1  0
M  END
