
     RDKit          3D

 21 20  0  0  0  0  0  0  0  0999 V2000
   -2.9759   -3.1385    0.9340 C   0  0  0  0  0  0  0  0  0  0  0  0
   -1.9355   -2.2160    0.4944 C   0  0  0  0  0  0  0  0  0  0  0  0
   -1.0640   -1.4216    0.1364 C   0  0  0  0  0  0  0  0  0  0  0  0
   -0.0140   -0.4913   -0.2732 C   0  0  0  0  0  0  0  0  0  0  0  0
   -0.0202   -0.3782   -1.6521 O   0  0  0  0  0  0  0  0  0  0  0  0
   -0.3151    0.8502    0.3852 C   0  0  0  0  0  0  0  0  0  0  0  0
    0.7821    1.7976   -0.0503 C   0  0  0  0  0  0  0  0  0  0  0  0
    2.0140    1.3055    0.3658 O   0  0  0  0  0  0  0  0  0  0  0  0
    3.0664    2.1122    0.0063 C   0  0  0  0  0  0  0  0  0  0  0  0
   -3.8193   -2.6212    1.4394 H   0  0  0  0  0  0  0  0  0  0  0  0
   -2.5560   -3.8582    1.6851 H   0  0  0  0  0  0  0  0  0  0  0  0
   -3.3714   -3.6578    0.0356 H   0  0  0  0  0  0  0  0  0  0  0  0
    0.9864   -0.8060    0.0815 H   0  0  0  0  0  0  0  0  0  0  0  0
   -0.6382   -1.0146   -2.0382 H   0  0  0  0  0  0  0  0  0  0  0  0
   -1.3020    1.2160    0.0622 H   0  0  0  0  0  0  0  0  0  0  0  0
   -0.3526    0.7465    1.4802 H   0  0  0  0  0  0  0  0  0  0  0  0
    0.5579    2.8003    0.3176 H   0  0  0  0  0  0  0  0  0  0  0  0
    0.7188    1.8438   -1.1708 H   0  0  0  0  0  0  0  0  0  0  0  0
    3.9983    1.6221    0.3867 H   0  0  0  0  0  0  0  0  0  0  0  0
    3.1897    2.2003   -1.1007 H   0  0  0  0  0  0  0  0  0  0  0  0
    3.0505    3.1089    0.4858 H   0  0  0  0  0  0  0  0  0  0  0  0
  1  2  1  0
  2  3  3  0
  3  4  1  0
  4  5  1  0
  4  6  1  0
  6  7  1  0
  7  8  1  0
  8  9  1  0
  1 10  1  0
  1 11  1  0
  1 12  1  0
  4 13  1  0
  5 14  1  0
  6 15  1  0
  6 16  1  0
  7 17  1  0
  7 18  1  0
  9 19  1  0
  9 20  1  0
  9 21  1  0
M  END
