
     RDKit          3D

 19 20  0  0  0  0  0  0  0  0999 V2000
    3.2565    1.1836    0.8207 C   0  0  0  0  0  0  0  0  0  0  0  0
    1.9352    0.6471    0.4317 C   0  0  0  0  0  0  0  0  0  0  0  0
    0.8641    0.2129    0.1009 C   0  0  0  0  0  0  0  0  0  0  0  0
   -0.3840   -0.2692   -0.2821 C   0  0  0  0  0  0  0  0  0  0  0  0
   -0.8053   -1.6624   -0.0274 C   0  0  0  0  0  0  0  0  0  0  0  0
   -2.1159   -1.6306   -0.5803 O   0  0  0  0  0  0  0  0  0  0  0  0
   -2.1871   -0.3652   -1.1095 C   0  0  0  0  0  0  0  0  0  0  0  0
   -0.8127   -0.1152   -1.7512 C   0  0  0  0  0  0  0  0  0  0  0  0
   -1.6333    0.5243    0.0181 C   0  0  0  0  0  0  0  0  0  0  0  0
    3.3273    2.2713    0.5847 H   0  0  0  0  0  0  0  0  0  0  0  0
    3.3895    1.0707    1.9186 H   0  0  0  0  0  0  0  0  0  0  0  0
    4.0059    0.6443    0.2312 H   0  0  0  0  0  0  0  0  0  0  0  0
   -0.1993   -2.3642   -0.6649 H   0  0  0  0  0  0  0  0  0  0  0  0
   -0.8208   -1.9910    1.0074 H   0  0  0  0  0  0  0  0  0  0  0  0
   -3.0417   -0.0201   -1.6275 H   0  0  0  0  0  0  0  0  0  0  0  0
   -0.4809   -0.9210   -2.4009 H   0  0  0  0  0  0  0  0  0  0  0  0
   -0.7429    0.9089   -2.1102 H   0  0  0  0  0  0  0  0  0  0  0  0
   -2.0463    0.3059    1.0080 H   0  0  0  0  0  0  0  0  0  0  0  0
   -1.5083    1.5701   -0.2636 H   0  0  0  0  0  0  0  0  0  0  0  0
  1  2  1  0
  2  3  3  0
  3  4  1  0
  4  5  1  0
  5  6  1  0
  6  7  1  0
  7  8  1  0
  7  9  1  0
  8  4  1  0
  9  4  1  0
  1 10  1  0
  1 11  1  0
  1 12  1  0
  5 13  1  0
  5 14  1  0
  7 15  1  0
  8 16  1  0
  8 17  1  0
  9 18  1  0
  9 19  1  0
M  END
