
     RDKit          3D

 20 20  0  0  0  0  0  0  0  0999 V2000
    3.4870    0.8599    0.6145 C   0  0  0  0  0  0  0  0  0  0  0  0
    2.0825    0.4680    0.4905 C   0  0  0  0  0  0  0  0  0  0  0  0
    0.9133    0.1358    0.3666 C   0  0  0  0  0  0  0  0  0  0  0  0
   -0.4786   -0.2518    0.2430 C   0  0  0  0  0  0  0  0  0  0  0  0
   -0.9216   -1.2277    1.2842 C   0  0  0  0  0  0  0  0  0  0  0  0
   -0.7744   -0.6792   -1.1773 C   0  0  0  0  0  0  0  0  0  0  0  0
   -2.0285    0.1766   -1.1127 C   0  0  0  0  0  0  0  0  0  0  0  0
   -1.4584    0.8868    0.1005 C   0  0  0  0  0  0  0  0  0  0  0  0
    4.0525    0.1431    1.2779 H   0  0  0  0  0  0  0  0  0  0  0  0
    3.9436    0.8902   -0.3955 H   0  0  0  0  0  0  0  0  0  0  0  0
    3.5319    1.8866    1.0387 H   0  0  0  0  0  0  0  0  0  0  0  0
   -0.3402   -0.9868    2.2224 H   0  0  0  0  0  0  0  0  0  0  0  0
   -1.9921   -1.1856    1.5092 H   0  0  0  0  0  0  0  0  0  0  0  0
   -0.6582   -2.2810    0.9785 H   0  0  0  0  0  0  0  0  0  0  0  0
   -1.0259   -1.7700   -1.2456 H   0  0  0  0  0  0  0  0  0  0  0  0
   -0.0749   -0.3227   -1.9363 H   0  0  0  0  0  0  0  0  0  0  0  0
   -2.1360    0.8994   -1.9403 H   0  0  0  0  0  0  0  0  0  0  0  0
   -2.9404   -0.4154   -0.8948 H   0  0  0  0  0  0  0  0  0  0  0  0
   -0.9398    1.8265   -0.1101 H   0  0  0  0  0  0  0  0  0  0  0  0
   -2.2418    0.9474    0.8824 H   0  0  0  0  0  0  0  0  0  0  0  0
  1  2  1  0
  2  3  3  0
  3  4  1  0
  4  5  1  0
  4  6  1  0
  6  7  1  0
  7  8  1  0
  8  4  1  0
  1  9  1  0
  1 10  1  0
  1 11  1  0
  5 12  1  0
  5 13  1  0
  5 14  1  0
  6 15  1  0
  6 16  1  0
  7 17  1  0
  7 18  1  0
  8 19  1  0
  8 20  1  0
M  END
