
     RDKit          3D

 19 19  0  0  0  0  0  0  0  0999 V2000
    2.1640    1.1780    2.4310 C   0  0  0  0  0  0  0  0  0  0  0  0
    1.2580    0.4424    1.5321 C   0  0  0  0  0  0  0  0  0  0  0  0
    0.5328   -0.1651    0.7844 C   0  0  0  0  0  0  0  0  0  0  0  0
   -0.3427   -0.9235   -0.1418 C   0  0  0  0  0  0  0  0  0  0  0  0
   -0.1814   -0.5765   -1.6073 C   0  0  0  0  0  0  0  0  0  0  0  0
   -0.4856    0.8785   -1.8742 C   0  0  0  0  0  0  0  0  0  0  0  0
   -1.7765    1.1574   -1.5087 O   0  0  0  0  0  0  0  0  0  0  0  0
   -1.5320   -1.6143    0.3667 C   0  0  0  0  0  0  0  0  0  0  0  0
   -0.3656   -2.3086    0.0820 O   0  0  0  0  0  0  0  0  0  0  0  0
    2.1555    2.2521    2.2026 H   0  0  0  0  0  0  0  0  0  0  0  0
    3.2034    0.7606    2.3081 H   0  0  0  0  0  0  0  0  0  0  0  0
    1.8556    1.0417    3.4921 H   0  0  0  0  0  0  0  0  0  0  0  0
   -0.8564   -1.2136   -2.2031 H   0  0  0  0  0  0  0  0  0  0  0  0
    0.8866   -0.8027   -1.8632 H   0  0  0  0  0  0  0  0  0  0  0  0
    0.2081    1.5634   -1.3882 H   0  0  0  0  0  0  0  0  0  0  0  0
   -0.4025    1.0333   -2.9708 H   0  0  0  0  0  0  0  0  0  0  0  0
   -2.1677    0.5680   -0.8359 H   0  0  0  0  0  0  0  0  0  0  0  0
   -2.4197   -1.7470   -0.2560 H   0  0  0  0  0  0  0  0  0  0  0  0
   -1.7339   -1.5243    1.4503 H   0  0  0  0  0  0  0  0  0  0  0  0
  1  2  1  0
  2  3  3  0
  3  4  1  0
  4  5  1  0
  5  6  1  0
  6  7  1  0
  4  8  1  0
  8  9  1  0
  9  4  1  0
  1 10  1  0
  1 11  1  0
  1 12  1  0
  5 13  1  0
  5 14  1  0
  6 15  1  0
  6 16  1  0
  7 17  1  0
  8 18  1  0
  8 19  1  0
M  END
