
     RDKit          3D

 19 20  0  0  0  0  0  0  0  0999 V2000
   -3.5306    0.4559   -0.4050 C   0  0  0  0  0  0  0  0  0  0  0  0
   -2.0672    0.5899   -0.2983 C   0  0  0  0  0  0  0  0  0  0  0  0
   -0.8728    0.6903   -0.2297 C   0  0  0  0  0  0  0  0  0  0  0  0
    0.5609    0.7867   -0.1539 C   0  0  0  0  0  0  0  0  0  0  0  0
    1.2119    1.9266   -0.6039 O   0  0  0  0  0  0  0  0  0  0  0  0
    1.5050    0.5961   -1.0858 C   0  0  0  0  0  0  0  0  0  0  0  0
    2.4436   -0.1290   -0.1487 C   0  0  0  0  0  0  0  0  0  0  0  0
    1.2895   -0.0997    0.8659 C   0  0  0  0  0  0  0  0  0  0  0  0
    0.6051   -1.4332    1.0000 C   0  0  0  0  0  0  0  0  0  0  0  0
   -3.8989   -0.3808    0.2033 H   0  0  0  0  0  0  0  0  0  0  0  0
   -3.9585    1.4172   -0.0305 H   0  0  0  0  0  0  0  0  0  0  0  0
   -3.7930    0.3957   -1.4752 H   0  0  0  0  0  0  0  0  0  0  0  0
    1.6291    0.5782   -2.1524 H   0  0  0  0  0  0  0  0  0  0  0  0
    2.7089   -1.1199   -0.5131 H   0  0  0  0  0  0  0  0  0  0  0  0
    3.2941    0.5280    0.1740 H   0  0  0  0  0  0  0  0  0  0  0  0
    1.5267    0.4265    1.8013 H   0  0  0  0  0  0  0  0  0  0  0  0
    0.6629   -1.9372    0.0178 H   0  0  0  0  0  0  0  0  0  0  0  0
   -0.4547   -1.2580    1.2675 H   0  0  0  0  0  0  0  0  0  0  0  0
    1.1382   -2.0330    1.7667 H   0  0  0  0  0  0  0  0  0  0  0  0
  1  2  1  0
  2  3  3  0
  3  4  1  0
  4  5  1  0
  5  6  1  0
  6  7  1  0
  7  8  1  0
  8  9  1  0
  6  4  1  0
  8  4  1  0
  1 10  1  0
  1 11  1  0
  1 12  1  0
  6 13  1  0
  7 14  1  0
  7 15  1  0
  8 16  1  0
  9 17  1  0
  9 18  1  0
  9 19  1  0
M  END
