
     RDKit          3D

 21 21  0  0  0  0  0  0  0  0999 V2000
    3.3285    2.2109    0.6985 C   0  0  0  0  0  0  0  0  0  0  0  0
    1.9798    1.7124    0.4261 C   0  0  0  0  0  0  0  0  0  0  0  0
    0.8620    1.3111    0.2193 C   0  0  0  0  0  0  0  0  0  0  0  0
   -0.4955    0.8007   -0.0193 C   0  0  0  0  0  0  0  0  0  0  0  0
   -0.4530   -0.4744   -0.8184 C   0  0  0  0  0  0  0  0  0  0  0  0
    0.1301   -0.3725   -2.0601 O   0  0  0  0  0  0  0  0  0  0  0  0
   -0.1870   -1.7123    0.0224 C   0  0  0  0  0  0  0  0  0  0  0  0
   -1.4992   -1.4916   -0.6289 C   0  0  0  0  0  0  0  0  0  0  0  0
   -2.6927   -1.0562    0.2102 C   0  0  0  0  0  0  0  0  0  0  0  0
    3.2225    3.2332    1.1135 H   0  0  0  0  0  0  0  0  0  0  0  0
    3.8323    1.6143    1.5045 H   0  0  0  0  0  0  0  0  0  0  0  0
    3.9174    2.1989   -0.2370 H   0  0  0  0  0  0  0  0  0  0  0  0
   -0.9568    0.6756    0.9779 H   0  0  0  0  0  0  0  0  0  0  0  0
   -1.0544    1.6157   -0.5238 H   0  0  0  0  0  0  0  0  0  0  0  0
    0.2377   -1.2619   -2.4574 H   0  0  0  0  0  0  0  0  0  0  0  0
   -0.0650   -1.6017    1.1110 H   0  0  0  0  0  0  0  0  0  0  0  0
    0.5167   -2.4524   -0.4283 H   0  0  0  0  0  0  0  0  0  0  0  0
   -1.7398   -2.1859   -1.4650 H   0  0  0  0  0  0  0  0  0  0  0  0
   -2.3464   -0.8232    1.2580 H   0  0  0  0  0  0  0  0  0  0  0  0
   -3.4501   -1.8501    0.2468 H   0  0  0  0  0  0  0  0  0  0  0  0
   -3.0872   -0.0904   -0.1792 H   0  0  0  0  0  0  0  0  0  0  0  0
  1  2  1  0
  2  3  3  0
  3  4  1  0
  4  5  1  0
  5  6  1  0
  5  7  1  0
  7  8  1  0
  8  9  1  0
  8  5  1  0
  1 10  1  0
  1 11  1  0
  1 12  1  0
  4 13  1  0
  4 14  1  0
  6 15  1  0
  7 16  1  0
  7 17  1  0
  8 18  1  0
  9 19  1  0
  9 20  1  0
  9 21  1  0
M  END
