
     RDKit          3D

 19 19  0  0  0  0  0  0  0  0999 V2000
    3.5312    0.9527   -0.3614 C   0  0  0  0  0  0  0  0  0  0  0  0
    2.2253    0.3959    0.0504 C   0  0  0  0  0  0  0  0  0  0  0  0
    1.1805   -0.0462    0.4006 C   0  0  0  0  0  0  0  0  0  0  0  0
   -0.0801   -0.5942    0.8473 C   0  0  0  0  0  0  0  0  0  0  0  0
   -0.2835   -1.9034    0.3891 O   0  0  0  0  0  0  0  0  0  0  0  0
   -1.6385   -2.0863    0.7464 C   0  0  0  0  0  0  0  0  0  0  0  0
   -2.2221   -0.8125    0.2257 C   0  0  0  0  0  0  0  0  0  0  0  0
   -1.2626    0.1060    0.2879 C   0  0  0  0  0  0  0  0  0  0  0  0
   -1.4451    1.5072   -0.1393 C   0  0  0  0  0  0  0  0  0  0  0  0
    4.0534    1.4306    0.5001 H   0  0  0  0  0  0  0  0  0  0  0  0
    4.2137    0.1450   -0.7112 H   0  0  0  0  0  0  0  0  0  0  0  0
    3.3881    1.6480   -1.1874 H   0  0  0  0  0  0  0  0  0  0  0  0
   -0.1755   -0.6329    1.9554 H   0  0  0  0  0  0  0  0  0  0  0  0
   -2.0758   -2.9746    0.2817 H   0  0  0  0  0  0  0  0  0  0  0  0
   -1.6656   -2.1057    1.8552 H   0  0  0  0  0  0  0  0  0  0  0  0
   -3.2466   -0.7387   -0.1185 H   0  0  0  0  0  0  0  0  0  0  0  0
   -2.0695    2.0799    0.6068 H   0  0  0  0  0  0  0  0  0  0  0  0
   -1.9550    1.5786   -1.1190 H   0  0  0  0  0  0  0  0  0  0  0  0
   -0.4724    2.0504   -0.2012 H   0  0  0  0  0  0  0  0  0  0  0  0
  1  2  1  0
  2  3  3  0
  3  4  1  0
  4  5  1  0
  5  6  1  0
  6  7  1  0
  7  8  2  0
  8  9  1  0
  8  4  1  0
  1 10  1  0
  1 11  1  0
  1 12  1  0
  4 13  1  0
  6 14  1  0
  6 15  1  0
  7 16  1  0
  9 17  1  0
  9 18  1  0
  9 19  1  0
M  END
