
     RDKit          3D

 19 19  0  0  0  0  0  0  0  0999 V2000
   -3.7110   -0.1805   -0.0240 C   0  0  0  0  0  0  0  0  0  0  0  0
   -2.3434    0.2299   -0.3891 C   0  0  0  0  0  0  0  0  0  0  0  0
   -1.2235    0.5688   -0.7017 C   0  0  0  0  0  0  0  0  0  0  0  0
    0.1330    0.9757   -1.0838 C   0  0  0  0  0  0  0  0  0  0  0  0
    1.0583   -0.1319   -0.6448 C   0  0  0  0  0  0  0  0  0  0  0  0
    1.0477   -0.4156    0.8445 C   0  0  0  0  0  0  0  0  0  0  0  0
    2.5513   -0.6610    0.6541 C   0  0  0  0  0  0  0  0  0  0  0  0
    2.4680    0.2943   -0.4725 C   0  0  0  0  0  0  0  0  0  0  0  0
    3.2259    1.0665   -0.9982 O   0  0  0  0  0  0  0  0  0  0  0  0
   -3.7584   -1.2722   -0.1233 H   0  0  0  0  0  0  0  0  0  0  0  0
   -3.9946    0.1813    0.9862 H   0  0  0  0  0  0  0  0  0  0  0  0
   -4.4075    0.3137   -0.7593 H   0  0  0  0  0  0  0  0  0  0  0  0
    0.4248    1.9409   -0.6569 H   0  0  0  0  0  0  0  0  0  0  0  0
    0.2347    1.0382   -2.1986 H   0  0  0  0  0  0  0  0  0  0  0  0
    0.9822   -1.0630   -1.2020 H   0  0  0  0  0  0  0  0  0  0  0  0
    0.9344    0.4895    1.4752 H   0  0  0  0  0  0  0  0  0  0  0  0
    0.5133   -1.3022    1.1692 H   0  0  0  0  0  0  0  0  0  0  0  0
    2.6909   -1.6933    0.2668 H   0  0  0  0  0  0  0  0  0  0  0  0
    3.1741   -0.3791    1.4989 H   0  0  0  0  0  0  0  0  0  0  0  0
  1  2  1  0
  2  3  3  0
  3  4  1  0
  4  5  1  0
  5  6  1  0
  6  7  1  0
  7  8  1  0
  8  9  2  0
  8  5  1  0
  1 10  1  0
  1 11  1  0
  1 12  1  0
  4 13  1  0
  4 14  1  0
  5 15  1  0
  6 16  1  0
  6 17  1  0
  7 18  1  0
  7 19  1  0
M  END
