
     RDKit          3D

 15 16  0  0  0  0  0  0  0  0999 V2000
    3.2416    0.2233    0.7800 C   0  0  0  0  0  0  0  0  0  0  0  0
    1.8564    0.0094    0.3174 C   0  0  0  0  0  0  0  0  0  0  0  0
    0.7222   -0.1865   -0.0584 C   0  0  0  0  0  0  0  0  0  0  0  0
   -0.6301   -0.4028   -0.5116 C   0  0  0  0  0  0  0  0  0  0  0  0
   -1.0899   -1.6918   -0.7675 O   0  0  0  0  0  0  0  0  0  0  0  0
   -1.6724   -0.8592    0.2139 C   0  0  0  0  0  0  0  0  0  0  0  0
   -2.6008    0.2006   -0.3752 C   0  0  0  0  0  0  0  0  0  0  0  0
   -1.3885    0.7573   -1.0691 C   0  0  0  0  0  0  0  0  0  0  0  0
   -1.0861    1.6969   -1.7686 O   0  0  0  0  0  0  0  0  0  0  0  0
    3.6173   -0.6493    1.3514 H   0  0  0  0  0  0  0  0  0  0  0  0
    3.3059    1.1727    1.3768 H   0  0  0  0  0  0  0  0  0  0  0  0
    3.9232    0.3259   -0.1069 H   0  0  0  0  0  0  0  0  0  0  0  0
   -1.8535   -1.2462    1.2113 H   0  0  0  0  0  0  0  0  0  0  0  0
   -3.0290    0.8557    0.3978 H   0  0  0  0  0  0  0  0  0  0  0  0
   -3.3162   -0.2058   -1.1254 H   0  0  0  0  0  0  0  0  0  0  0  0
  1  2  1  0
  2  3  3  0
  3  4  1  0
  4  5  1  0
  5  6  1  0
  6  7  1  0
  7  8  1  0
  8  9  2  0
  6  4  1  0
  8  4  1  0
  1 10  1  0
  1 11  1  0
  1 12  1  0
  6 13  1  0
  7 14  1  0
  7 15  1  0
M  END
