
     RDKit          3D

 21 21  0  0  0  0  0  0  0  0999 V2000
   -4.0654    1.4626    0.6368 C   0  0  0  0  0  0  0  0  0  0  0  0
   -2.6767    1.1063    0.3423 C   0  0  0  0  0  0  0  0  0  0  0  0
   -1.5383    0.7934    0.1040 C   0  0  0  0  0  0  0  0  0  0  0  0
   -0.1161    0.4198   -0.1724 C   0  0  0  0  0  0  0  0  0  0  0  0
   -0.0787   -1.0562   -0.1761 C   0  0  0  0  0  0  0  0  0  0  0  0
    1.2377   -1.6765   -0.4232 C   0  0  0  0  0  0  0  0  0  0  0  0
    1.8447   -1.2942   -1.7383 O   0  0  0  0  0  0  0  0  0  0  0  0
    2.5387   -1.0965   -0.4977 C   0  0  0  0  0  0  0  0  0  0  0  0
    2.8806    0.3338   -0.2320 C   0  0  0  0  0  0  0  0  0  0  0  0
   -4.2020    1.5253    1.7532 H   0  0  0  0  0  0  0  0  0  0  0  0
   -4.7589    0.7291    0.1870 H   0  0  0  0  0  0  0  0  0  0  0  0
   -4.3102    2.4985    0.2733 H   0  0  0  0  0  0  0  0  0  0  0  0
    0.1448    0.7978   -1.2060 H   0  0  0  0  0  0  0  0  0  0  0  0
    0.5257    0.9397    0.5337 H   0  0  0  0  0  0  0  0  0  0  0  0
   -0.4281   -1.4021    0.8489 H   0  0  0  0  0  0  0  0  0  0  0  0
   -0.8679   -1.5043   -0.8577 H   0  0  0  0  0  0  0  0  0  0  0  0
    1.2125   -2.8299   -0.4884 H   0  0  0  0  0  0  0  0  0  0  0  0
    3.4072   -1.8486   -0.4037 H   0  0  0  0  0  0  0  0  0  0  0  0
    2.8169    0.6175    0.8530 H   0  0  0  0  0  0  0  0  0  0  0  0
    4.0064    0.4087   -0.4434 H   0  0  0  0  0  0  0  0  0  0  0  0
    2.4270    1.0760   -0.8883 H   0  0  0  0  0  0  0  0  0  0  0  0
  1  2  1  0
  2  3  3  0
  3  4  1  0
  4  5  1  0
  5  6  1  0
  6  7  1  0
  7  8  1  0
  8  9  1  0
  8  6  1  0
  1 10  1  0
  1 11  1  0
  1 12  1  0
  4 13  1  0
  4 14  1  0
  5 15  1  0
  5 16  1  0
  6 17  1  0
  8 18  1  0
  9 19  1  0
  9 20  1  0
  9 21  1  0
M  END
