
     RDKit          3D

 21 21  0  0  0  0  0  0  0  0999 V2000
    3.4354    0.6834   -0.1753 C   0  0  0  0  0  0  0  0  0  0  0  0
    2.0916    0.0917   -0.0604 C   0  0  0  0  0  0  0  0  0  0  0  0
    0.9892   -0.3907    0.0326 C   0  0  0  0  0  0  0  0  0  0  0  0
   -0.3578   -0.9966    0.1559 C   0  0  0  0  0  0  0  0  0  0  0  0
   -0.7121   -1.7681   -1.0925 C   0  0  0  0  0  0  0  0  0  0  0  0
   -1.3075    0.1428    0.4287 C   0  0  0  0  0  0  0  0  0  0  0  0
   -1.4441    1.2542   -0.5589 C   0  0  0  0  0  0  0  0  0  0  0  0
   -1.5877    0.4295    1.8428 C   0  0  0  0  0  0  0  0  0  0  0  0
   -2.5596   -0.2351    1.0724 O   0  0  0  0  0  0  0  0  0  0  0  0
    3.8529    0.6880    0.8555 H   0  0  0  0  0  0  0  0  0  0  0  0
    4.0654    0.0967   -0.8871 H   0  0  0  0  0  0  0  0  0  0  0  0
    3.4069    1.7114   -0.5625 H   0  0  0  0  0  0  0  0  0  0  0  0
   -0.3434   -1.6556    1.0241 H   0  0  0  0  0  0  0  0  0  0  0  0
   -0.3518   -2.8243   -0.9485 H   0  0  0  0  0  0  0  0  0  0  0  0
   -1.7696   -1.7047   -1.3634 H   0  0  0  0  0  0  0  0  0  0  0  0
   -0.0735   -1.3369   -1.9114 H   0  0  0  0  0  0  0  0  0  0  0  0
   -2.5110    1.4073   -0.7966 H   0  0  0  0  0  0  0  0  0  0  0  0
   -0.9623    0.9882   -1.5433 H   0  0  0  0  0  0  0  0  0  0  0  0
   -0.9555    2.2000   -0.2467 H   0  0  0  0  0  0  0  0  0  0  0  0
   -1.1597   -0.2620    2.6229 H   0  0  0  0  0  0  0  0  0  0  0  0
   -1.7458    1.4807    2.1118 H   0  0  0  0  0  0  0  0  0  0  0  0
  1  2  1  0
  2  3  3  0
  3  4  1  0
  4  5  1  0
  4  6  1  0
  6  7  1  0
  6  8  1  0
  8  9  1  0
  9  6  1  0
  1 10  1  0
  1 11  1  0
  1 12  1  0
  4 13  1  0
  5 14  1  0
  5 15  1  0
  5 16  1  0
  7 17  1  0
  7 18  1  0
  7 19  1  0
  8 20  1  0
  8 21  1  0
M  END
