
     RDKit          3D

 17 17  0  0  0  0  0  0  0  0999 V2000
    3.2255   -0.3316   -0.9961 C   0  0  0  0  0  0  0  0  0  0  0  0
    1.8519   -0.2589   -0.5918 C   0  0  0  0  0  0  0  0  0  0  0  0
    0.6550   -0.1826   -0.2311 C   0  0  0  0  0  0  0  0  0  0  0  0
   -0.7217   -0.1127    0.1753 C   0  0  0  0  0  0  0  0  0  0  0  0
   -0.7193   -0.7023    1.6670 C   0  0  0  0  0  0  0  0  0  0  0  0
   -1.4180   -1.6782    1.8234 O   0  0  0  0  0  0  0  0  0  0  0  0
   -1.2696    1.2895    0.2198 C   0  0  0  0  0  0  0  0  0  0  0  0
   -1.9616    0.0886   -0.3816 C   0  0  0  0  0  0  0  0  0  0  0  0
   -2.3859    0.2425   -1.6696 O   0  0  0  0  0  0  0  0  0  0  0  0
    3.4377   -1.2567   -1.5737 H   0  0  0  0  0  0  0  0  0  0  0  0
    3.4169    0.4915   -1.7726 H   0  0  0  0  0  0  0  0  0  0  0  0
    3.9430   -0.2512   -0.1842 H   0  0  0  0  0  0  0  0  0  0  0  0
   -0.1559   -0.2511    2.4305 H   0  0  0  0  0  0  0  0  0  0  0  0
   -1.6942    1.7780    1.0773 H   0  0  0  0  0  0  0  0  0  0  0  0
   -0.7706    1.9924   -0.5299 H   0  0  0  0  0  0  0  0  0  0  0  0
   -2.8877   -0.1980    0.2760 H   0  0  0  0  0  0  0  0  0  0  0  0
   -2.5455   -0.6595   -2.0615 H   0  0  0  0  0  0  0  0  0  0  0  0
  1  2  1  0
  2  3  3  0
  3  4  1  0
  4  5  1  0
  5  6  2  0
  4  7  1  0
  7  8  1  0
  8  9  1  0
  8  4  1  0
  1 10  1  0
  1 11  1  0
  1 12  1  0
  5 13  1  0
  7 14  1  0
  7 15  1  0
  8 16  1  0
  9 17  1  0
M  END
