
     RDKit          3D

 19 20  0  0  0  0  0  0  0  0999 V2000
    3.6736    0.6388    0.2025 C   0  0  0  0  0  0  0  0  0  0  0  0
    2.3654   -0.0399    0.1494 C   0  0  0  0  0  0  0  0  0  0  0  0
    1.3008   -0.6063    0.1228 C   0  0  0  0  0  0  0  0  0  0  0  0
   -0.0051   -1.2745    0.1002 C   0  0  0  0  0  0  0  0  0  0  0  0
   -1.0533   -0.2587    0.4189 C   0  0  0  0  0  0  0  0  0  0  0  0
   -1.1565    0.9095   -0.5063 C   0  0  0  0  0  0  0  0  0  0  0  0
   -2.5957    0.5352   -0.7667 C   0  0  0  0  0  0  0  0  0  0  0  0
   -2.8086   -0.7108   -1.3125 O   0  0  0  0  0  0  0  0  0  0  0  0
   -2.4222   -0.7528    0.0052 C   0  0  0  0  0  0  0  0  0  0  0  0
    3.6036    1.6244   -0.2888 H   0  0  0  0  0  0  0  0  0  0  0  0
    4.0406    0.7159    1.2512 H   0  0  0  0  0  0  0  0  0  0  0  0
    4.4508    0.0496   -0.3460 H   0  0  0  0  0  0  0  0  0  0  0  0
   -0.0574   -2.0592    0.9052 H   0  0  0  0  0  0  0  0  0  0  0  0
   -0.1618   -1.7637   -0.8813 H   0  0  0  0  0  0  0  0  0  0  0  0
   -1.0642   -0.0027    1.4915 H   0  0  0  0  0  0  0  0  0  0  0  0
   -1.0541    1.9010    0.0095 H   0  0  0  0  0  0  0  0  0  0  0  0
   -0.4841    0.8964   -1.3745 H   0  0  0  0  0  0  0  0  0  0  0  0
   -3.4101    1.2087   -0.5029 H   0  0  0  0  0  0  0  0  0  0  0  0
   -3.1617   -1.0110    0.7999 H   0  0  0  0  0  0  0  0  0  0  0  0
  1  2  1  0
  2  3  3  0
  3  4  1  0
  4  5  1  0
  5  6  1  0
  6  7  1  0
  7  8  1  0
  8  9  1  0
  9  5  1  0
  9  7  1  0
  1 10  1  0
  1 11  1  0
  1 12  1  0
  4 13  1  0
  4 14  1  0
  5 15  1  0
  6 16  1  0
  6 17  1  0
  7 18  1  0
  9 19  1  0
M  END
