
     RDKit          3D

 21 20  0  0  0  0  0  0  0  0999 V2000
    1.8276   -0.7758   -3.4542 C   0  0  0  0  0  0  0  0  0  0  0  0
    1.5362   -0.7329   -2.1029 C   0  0  0  0  0  0  0  0  0  0  0  0
    1.2798   -0.6787   -0.9612 C   0  0  0  0  0  0  0  0  0  0  0  0
    0.9204   -0.6302    0.6595 C   0  0  0  0  0  0  0  0  0  0  0  0
   -0.6321   -0.5099    0.3433 C   0  0  0  0  0  0  0  0  0  0  0  0
   -0.6997    0.7273   -0.4927 O   0  0  0  0  0  0  0  0  0  0  0  0
   -1.4639   -0.2235    1.5117 C   0  0  0  0  0  0  0  0  0  0  0  0
   -1.1112    1.1636    2.1357 C   0  0  0  0  0  0  0  0  0  0  0  0
   -1.9438    1.3988    3.1872 O   0  0  0  0  0  0  0  0  0  0  0  0
    2.9773   -0.6212   -3.6174 H   0  0  0  0  0  0  0  0  0  0  0  0
    1.3015   -0.1160   -4.1317 H   0  0  0  0  0  0  0  0  0  0  0  0
    1.7246   -1.8242   -3.9075 H   0  0  0  0  0  0  0  0  0  0  0  0
    1.3032    0.2575    0.9403 H   0  0  0  0  0  0  0  0  0  0  0  0
    1.1314   -1.6167    0.9312 H   0  0  0  0  0  0  0  0  0  0  0  0
   -0.9996   -1.2334   -0.3631 H   0  0  0  0  0  0  0  0  0  0  0  0
    0.0560    1.2434   -0.1326 H   0  0  0  0  0  0  0  0  0  0  0  0
   -2.5395   -0.3120    1.3627 H   0  0  0  0  0  0  0  0  0  0  0  0
   -1.1523   -0.9740    2.3263 H   0  0  0  0  0  0  0  0  0  0  0  0
   -0.0677    1.1763    2.4386 H   0  0  0  0  0  0  0  0  0  0  0  0
   -1.2372    1.9220    1.3293 H   0  0  0  0  0  0  0  0  0  0  0  0
   -2.2109    2.3594    3.2945 H   0  0  0  0  0  0  0  0  0  0  0  0
  1  2  1  0
  2  3  3  0
  3  4  1  0
  4  5  1  0
  5  6  1  0
  5  7  1  0
  7  8  1  0
  8  9  1  0
  1 10  1  0
  1 11  1  0
  1 12  1  0
  4 13  1  0
  4 14  1  0
  5 15  1  0
  6 16  1  0
  7 17  1  0
  7 18  1  0
  8 19  1  0
  8 20  1  0
  9 21  1  0
M  END
