
     RDKit          3D

 21 21  0  0  0  0  0  0  0  0999 V2000
    3.6883   -0.6001    0.6955 C   0  0  0  0  0  0  0  0  0  0  0  0
    2.2542   -0.5322    0.4087 C   0  0  0  0  0  0  0  0  0  0  0  0
    1.0584   -0.4675    0.1528 C   0  0  0  0  0  0  0  0  0  0  0  0
   -0.3758   -0.4005   -0.1303 C   0  0  0  0  0  0  0  0  0  0  0  0
   -0.8713   -1.2495   -1.2789 C   0  0  0  0  0  0  0  0  0  0  0  0
   -1.2754   -0.2762    1.0255 C   0  0  0  0  0  0  0  0  0  0  0  0
   -1.0354    0.8954    0.1809 C   0  0  0  0  0  0  0  0  0  0  0  0
   -2.0108    1.3997   -0.8323 C   0  0  0  0  0  0  0  0  0  0  0  0
   -0.2394    1.9020    0.7515 O   0  0  0  0  0  0  0  0  0  0  0  0
    4.2437   -1.1257   -0.1221 H   0  0  0  0  0  0  0  0  0  0  0  0
    4.0992    0.4104    0.8049 H   0  0  0  0  0  0  0  0  0  0  0  0
    3.8140   -1.2284    1.6030 H   0  0  0  0  0  0  0  0  0  0  0  0
   -0.2627   -2.1901   -1.2783 H   0  0  0  0  0  0  0  0  0  0  0  0
   -1.9141   -1.5431   -1.1169 H   0  0  0  0  0  0  0  0  0  0  0  0
   -0.6980   -0.7142   -2.2372 H   0  0  0  0  0  0  0  0  0  0  0  0
   -2.2993   -0.7472    0.9812 H   0  0  0  0  0  0  0  0  0  0  0  0
   -0.8755   -0.3121    2.0724 H   0  0  0  0  0  0  0  0  0  0  0  0
   -2.2642    2.4643   -0.6320 H   0  0  0  0  0  0  0  0  0  0  0  0
   -2.9338    0.7880   -0.8395 H   0  0  0  0  0  0  0  0  0  0  0  0
   -1.5748    1.3976   -1.8683 H   0  0  0  0  0  0  0  0  0  0  0  0
   -0.5271    2.1293    1.6592 H   0  0  0  0  0  0  0  0  0  0  0  0
  1  2  1  0
  2  3  3  0
  3  4  1  0
  4  5  1  0
  4  6  1  0
  6  7  1  0
  7  8  1  0
  7  9  1  0
  7  4  1  0
  1 10  1  0
  1 11  1  0
  1 12  1  0
  5 13  1  0
  5 14  1  0
  5 15  1  0
  6 16  1  0
  6 17  1  0
  8 18  1  0
  8 19  1  0
  8 20  1  0
  9 21  1  0
M  END
