
     RDKit          3D

 17 16  0  0  0  0  0  0  0  0999 V2000
   -3.8569   -0.2242    1.2238 C   0  0  0  0  0  0  0  0  0  0  0  0
   -2.6373   -0.1339    0.5177 C   0  0  0  0  0  0  0  0  0  0  0  0
   -1.5978   -0.0764   -0.0917 C   0  0  0  0  0  0  0  0  0  0  0  0
   -0.2193    0.0245   -0.8867 C   0  0  0  0  0  0  0  0  0  0  0  0
    0.8253   -0.3918    0.4999 C   0  0  0  0  0  0  0  0  0  0  0  0
    1.8420   -0.1597    0.0044 C   0  0  0  0  0  0  0  0  0  0  0  0
    3.2142    0.1264   -0.6551 C   0  0  0  0  0  0  0  0  0  0  0  0
    4.8536    0.4809   -1.4554 C   0  0  0  0  0  0  0  0  0  0  0  0
    4.5140    0.1492   -2.2913 O   0  0  0  0  0  0  0  0  0  0  0  0
   -4.5561   -0.8414    0.1845 H   0  0  0  0  0  0  0  0  0  0  0  0
   -3.8330   -1.1188    1.8066 H   0  0  0  0  0  0  0  0  0  0  0  0
   -4.4806    0.6525    1.0277 H   0  0  0  0  0  0  0  0  0  0  0  0
   -0.0351    0.9715   -1.0874 H   0  0  0  0  0  0  0  0  0  0  0  0
   -0.2088   -0.8820   -1.4029 H   0  0  0  0  0  0  0  0  0  0  0  0
    0.8002    1.0492    0.8394 H   0  0  0  0  0  0  0  0  0  0  0  0
    0.2603   -0.4978    1.2404 H   0  0  0  0  0  0  0  0  0  0  0  0
    5.1153    0.8719   -0.2856 H   0  0  0  0  0  0  0  0  0  0  0  0
  1  2  1  0
  2  3  3  0
  3  4  1  0
  4  5  1  0
  5  6  1  0
  6  7  3  0
  7  8  1  0
  8  9  2  0
  1 10  1  0
  1 11  1  0
  1 12  1  0
  4 13  1  0
  4 14  1  0
  5 15  1  0
  5 16  1  0
  8 17  1  0
M  END
