
     RDKit          3D

 19 19  0  0  0  0  0  0  0  0999 V2000
    2.9168   -1.4967   -1.6037 C   0  0  0  0  0  0  0  0  0  0  0  0
    1.5583   -0.6006   -0.9156 C   0  0  0  0  0  0  0  0  0  0  0  0
    0.6086    0.0514   -0.4322 C   0  0  0  0  0  0  0  0  0  0  0  0
   -0.4235    0.7879    0.0916 C   0  0  0  0  0  0  0  0  0  0  0  0
    0.1473    0.9638    1.6095 C   0  0  0  0  0  0  0  0  0  0  0  0
   -1.6912   -0.2015    0.3977 C   0  0  0  0  0  0  0  0  0  0  0  0
   -2.0875    0.0550    1.7998 O   0  0  0  0  0  0  0  0  0  0  0  0
   -1.6777    0.9898   -0.4386 C   0  0  0  0  0  0  0  0  0  0  0  0
   -1.7921    0.7967   -1.8498 O   0  0  0  0  0  0  0  0  0  0  0  0
    2.9249   -2.2686   -1.0263 H   0  0  0  0  0  0  0  0  0  0  0  0
    3.5547   -0.8918   -0.4150 H   0  0  0  0  0  0  0  0  0  0  0  0
    3.3013   -0.6220   -2.0868 H   0  0  0  0  0  0  0  0  0  0  0  0
   -0.5192    1.6757    2.0528 H   0  0  0  0  0  0  0  0  0  0  0  0
   -0.0472   -0.0627    2.0808 H   0  0  0  0  0  0  0  0  0  0  0  0
    1.2133    1.0546    1.6047 H   0  0  0  0  0  0  0  0  0  0  0  0
   -1.3726   -1.2055    0.3087 H   0  0  0  0  0  0  0  0  0  0  0  0
   -1.9497   -0.8160    2.2447 H   0  0  0  0  0  0  0  0  0  0  0  0
   -2.4380    1.7994   -0.1843 H   0  0  0  0  0  0  0  0  0  0  0  0
   -2.2265   -0.0090   -2.1129 H   0  0  0  0  0  0  0  0  0  0  0  0
  1  2  1  0
  2  3  3  0
  3  4  1  0
  4  5  1  0
  4  6  1  0
  6  7  1  0
  6  8  1  0
  8  9  1  0
  8  4  1  0
  1 10  1  0
  1 11  1  0
  1 12  1  0
  5 13  1  0
  5 14  1  0
  5 15  1  0
  6 16  1  0
  7 17  1  0
  8 18  1  0
  9 19  1  0
M  END
