
     RDKit          3D

 15 16  0  0  0  0  0  0  0  0999 V2000
    3.1400    0.6198   -1.1205 C   0  0  0  0  0  0  0  0  0  0  0  0
    1.6948    0.4332   -0.8147 C   0  0  0  0  0  0  0  0  0  0  0  0
    0.5336    0.2797   -0.5707 C   0  0  0  0  0  0  0  0  0  0  0  0
   -0.7672    0.0929   -0.2933 C   0  0  0  0  0  0  0  0  0  0  0  0
   -1.3313   -0.7142    0.8070 C   0  0  0  0  0  0  0  0  0  0  0  0
   -2.4681   -0.0857    0.0551 C   0  0  0  0  0  0  0  0  0  0  0  0
   -1.6747    1.0808    0.0311 O   0  0  0  0  0  0  0  0  0  0  0  0
   -1.7786   -0.4614   -1.1833 C   0  0  0  0  0  0  0  0  0  0  0  0
   -1.9022   -0.9302   -2.2741 O   0  0  0  0  0  0  0  0  0  0  0  0
    3.3315    1.6942   -1.0702 H   0  0  0  0  0  0  0  0  0  0  0  0
    3.4055    0.1488   -2.0747 H   0  0  0  0  0  0  0  0  0  0  0  0
    3.6909    0.1280   -0.3029 H   0  0  0  0  0  0  0  0  0  0  0  0
   -1.2172   -0.3625    1.8374 H   0  0  0  0  0  0  0  0  0  0  0  0
   -1.2117   -1.8052    0.6981 H   0  0  0  0  0  0  0  0  0  0  0  0
   -3.4453   -0.1181    0.2735 H   0  0  0  0  0  0  0  0  0  0  0  0
  1  2  1  0
  2  3  3  0
  3  4  1  0
  4  5  1  0
  5  6  1  0
  6  7  1  0
  6  8  1  0
  8  9  2  0
  7  4  1  0
  8  4  1  0
  1 10  1  0
  1 11  1  0
  1 12  1  0
  5 13  1  0
  5 14  1  0
  6 15  1  0
M  END
