
     RDKit          3D

 17 18  0  0  0  0  0  0  0  0999 V2000
    2.2191    2.6484   -0.6580 C   0  0  0  0  0  0  0  0  0  0  0  0
    1.5183    1.3553   -0.4466 C   0  0  0  0  0  0  0  0  0  0  0  0
    0.8861    0.1967   -0.2802 C   0  0  0  0  0  0  0  0  0  0  0  0
    0.3048   -0.8531   -0.1426 C   0  0  0  0  0  0  0  0  0  0  0  0
    0.0882   -1.4738    1.1643 O   0  0  0  0  0  0  0  0  0  0  0  0
   -0.8230   -2.2744    0.3900 C   0  0  0  0  0  0  0  0  0  0  0  0
   -1.2187   -1.0433   -0.2524 C   0  0  0  0  0  0  0  0  0  0  0  0
   -2.1538   -0.1824   -0.5700 C   0  0  0  0  0  0  0  0  0  0  0  0
   -1.8129   -0.1345    0.7931 O   0  0  0  0  0  0  0  0  0  0  0  0
    2.4604    2.8585   -1.7008 H   0  0  0  0  0  0  0  0  0  0  0  0
    1.6032    3.4235   -0.1635 H   0  0  0  0  0  0  0  0  0  0  0  0
    3.1598    2.6258   -0.0383 H   0  0  0  0  0  0  0  0  0  0  0  0
    0.6093   -1.8339   -0.8003 H   0  0  0  0  0  0  0  0  0  0  0  0
   -0.2215   -2.9295   -0.2683 H   0  0  0  0  0  0  0  0  0  0  0  0
   -1.5307   -2.7699    1.0825 H   0  0  0  0  0  0  0  0  0  0  0  0
   -3.2164   -0.4356   -0.8652 H   0  0  0  0  0  0  0  0  0  0  0  0
   -1.8721    0.8222   -1.0702 H   0  0  0  0  0  0  0  0  0  0  0  0
  1  2  1  0
  2  3  3  0
  3  4  1  0
  4  5  1  0
  5  6  1  0
  6  7  1  0
  7  8  1  0
  8  9  1  0
  7  4  1  0
  9  7  1  0
  1 10  1  0
  1 11  1  0
  1 12  1  0
  4 13  1  0
  6 14  1  0
  6 15  1  0
  8 16  1  0
  8 17  1  0
M  END
