
     RDKit          3D

 21 21  0  0  0  0  0  0  0  0999 V2000
    3.5158   -1.5982    0.4981 C   0  0  0  0  0  0  0  0  0  0  0  0
    2.2376   -0.7077    0.8631 C   0  0  0  0  0  0  0  0  0  0  0  0
    1.1994   -0.0003    1.1695 C   0  0  0  0  0  0  0  0  0  0  0  0
    0.1438    0.7445    1.4777 C   0  0  0  0  0  0  0  0  0  0  0  0
    0.4541    2.0925    1.7421 O   0  0  0  0  0  0  0  0  0  0  0  0
   -0.7227    0.7165    0.1850 C   0  0  0  0  0  0  0  0  0  0  0  0
   -1.1617   -0.7585    0.0008 C   0  0  0  0  0  0  0  0  0  0  0  0
   -2.0353    0.4615   -0.2513 C   0  0  0  0  0  0  0  0  0  0  0  0
   -2.2108    0.5758   -1.8353 C   0  0  0  0  0  0  0  0  0  0  0  0
    4.3272   -1.0896    1.0596 H   0  0  0  0  0  0  0  0  0  0  0  0
    3.5557   -1.4534   -0.5594 H   0  0  0  0  0  0  0  0  0  0  0  0
    3.3605   -2.5526    0.9671 H   0  0  0  0  0  0  0  0  0  0  0  0
   -0.5591    0.3766    2.2912 H   0  0  0  0  0  0  0  0  0  0  0  0
   -0.1274    2.7166    1.2111 H   0  0  0  0  0  0  0  0  0  0  0  0
    0.0247    1.0375   -0.6715 H   0  0  0  0  0  0  0  0  0  0  0  0
   -0.7803   -1.3042   -0.8803 H   0  0  0  0  0  0  0  0  0  0  0  0
   -1.3662   -1.3585    0.9207 H   0  0  0  0  0  0  0  0  0  0  0  0
   -3.0012    0.5527    0.2415 H   0  0  0  0  0  0  0  0  0  0  0  0
   -1.3101    0.1142   -2.2483 H   0  0  0  0  0  0  0  0  0  0  0  0
   -2.4611    1.5611   -2.1304 H   0  0  0  0  0  0  0  0  0  0  0  0
   -3.0828   -0.1265   -2.0447 H   0  0  0  0  0  0  0  0  0  0  0  0
  1  2  1  0
  2  3  3  0
  3  4  1  0
  4  5  1  0
  4  6  1  0
  6  7  1  0
  7  8  1  0
  8  9  1  0
  8  6  1  0
  1 10  1  0
  1 11  1  0
  1 12  1  0
  4 13  1  0
  5 14  1  0
  6 15  1  0
  7 16  1  0
  7 17  1  0
  8 18  1  0
  9 19  1  0
  9 20  1  0
  9 21  1  0
M  END
