
     RDKit          3D

 18 17  0  0  0  0  0  0  0  0999 V2000
   -3.4329   -1.1249    2.5616 C   0  0  0  0  0  0  0  0  0  0  0  0
   -2.3525   -1.0136    1.6026 C   0  0  0  0  0  0  0  0  0  0  0  0
   -1.4789   -0.9429    0.8259 C   0  0  0  0  0  0  0  0  0  0  0  0
   -0.3301   -0.8260   -0.1812 C   0  0  0  0  0  0  0  0  0  0  0  0
    0.3249    0.5389    0.0991 C   0  0  0  0  0  0  0  0  0  0  0  0
    1.3914    0.7781   -0.7225 C   0  0  0  0  0  0  0  0  0  0  0  0
    2.3959    1.0214   -1.5175 C   0  0  0  0  0  0  0  0  0  0  0  0
    3.5123    1.2856   -2.3698 C   0  0  0  0  0  0  0  0  0  0  0  0
   -3.1206   -1.4611    3.5725 H   0  0  0  0  0  0  0  0  0  0  0  0
   -4.2326   -1.7640    2.1041 H   0  0  0  0  0  0  0  0  0  0  0  0
   -3.8771   -0.0810    2.7414 H   0  0  0  0  0  0  0  0  0  0  0  0
    0.3534   -1.6361    0.0698 H   0  0  0  0  0  0  0  0  0  0  0  0
   -0.7721   -0.8301   -1.1805 H   0  0  0  0  0  0  0  0  0  0  0  0
    0.6551    0.5079    1.2121 H   0  0  0  0  0  0  0  0  0  0  0  0
   -0.4832    1.3351    0.0418 H   0  0  0  0  0  0  0  0  0  0  0  0
    3.6348    2.4172   -2.5325 H   0  0  0  0  0  0  0  0  0  0  0  0
    3.3249    0.7965   -3.3609 H   0  0  0  0  0  0  0  0  0  0  0  0
    4.4872    0.9992   -1.9305 H   0  0  0  0  0  0  0  0  0  0  0  0
  1  2  1  0
  2  3  3  0
  3  4  1  0
  4  5  1  0
  5  6  1  0
  6  7  3  0
  7  8  1  0
  1  9  1  0
  1 10  1  0
  1 11  1  0
  4 12  1  0
  4 13  1  0
  5 14  1  0
  5 15  1  0
  8 16  1  0
  8 17  1  0
  8 18  1  0
M  END
