
     RDKit          3D

 18 18  0  0  0  0  0  0  0  0999 V2000
    3.6643   -1.0599   -0.1224 C   0  0  0  0  0  0  0  0  0  0  0  0
    2.2502   -0.7265    0.0939 C   0  0  0  0  0  0  0  0  0  0  0  0
    1.0812   -0.4530    0.2921 C   0  0  0  0  0  0  0  0  0  0  0  0
   -0.3121   -0.1211    0.5461 C   0  0  0  0  0  0  0  0  0  0  0  0
   -0.6896    1.2172   -0.0617 C   0  0  0  0  0  0  0  0  0  0  0  0
   -2.2024    1.0965   -0.0467 C   0  0  0  0  0  0  0  0  0  0  0  0
   -2.3949   -0.3837   -0.2302 C   0  0  0  0  0  0  0  0  0  0  0  0
   -1.1680   -0.9843   -0.1013 O   0  0  0  0  0  0  0  0  0  0  0  0
    4.1170   -0.3981   -0.8825 H   0  0  0  0  0  0  0  0  0  0  0  0
    3.7790   -2.0987   -0.5072 H   0  0  0  0  0  0  0  0  0  0  0  0
    4.1655   -1.0251    0.8521 H   0  0  0  0  0  0  0  0  0  0  0  0
   -0.5389   -0.1645    1.6237 H   0  0  0  0  0  0  0  0  0  0  0  0
   -0.3406    2.0595    0.5702 H   0  0  0  0  0  0  0  0  0  0  0  0
   -0.2789    1.2474   -1.0810 H   0  0  0  0  0  0  0  0  0  0  0  0
   -2.5313    1.4375    0.9628 H   0  0  0  0  0  0  0  0  0  0  0  0
   -2.6782    1.6990   -0.8408 H   0  0  0  0  0  0  0  0  0  0  0  0
   -2.8684   -0.5501   -1.2202 H   0  0  0  0  0  0  0  0  0  0  0  0
   -3.0540   -0.7920    0.5795 H   0  0  0  0  0  0  0  0  0  0  0  0
  1  2  1  0
  2  3  3  0
  3  4  1  0
  4  5  1  0
  5  6  1  0
  6  7  1  0
  7  8  1  0
  8  4  1  0
  1  9  1  0
  1 10  1  0
  1 11  1  0
  4 12  1  0
  5 13  1  0
  5 14  1  0
  6 15  1  0
  6 16  1  0
  7 17  1  0
  7 18  1  0
M  END
