
     RDKit          3D

 20 19  0  0  0  0  0  0  0  0999 V2000
    3.2762    2.4408   -0.3624 C   0  0  0  0  0  0  0  0  0  0  0  0
    2.0198    1.7469   -0.0779 C   0  0  0  0  0  0  0  0  0  0  0  0
    0.9873    1.1540    0.1504 C   0  0  0  0  0  0  0  0  0  0  0  0
   -0.2628    0.4129    0.4131 C   0  0  0  0  0  0  0  0  0  0  0  0
   -1.3584    1.2753    0.4324 O   0  0  0  0  0  0  0  0  0  0  0  0
   -0.4197   -0.6147   -0.6928 C   0  0  0  0  0  0  0  0  0  0  0  0
   -1.6536   -1.4430   -0.5558 C   0  0  0  0  0  0  0  0  0  0  0  0
   -1.7502   -2.2361    0.7060 C   0  0  0  0  0  0  0  0  0  0  0  0
    3.7738    2.0410   -1.2705 H   0  0  0  0  0  0  0  0  0  0  0  0
    3.9669    2.1728    0.4827 H   0  0  0  0  0  0  0  0  0  0  0  0
    3.1539    3.5348   -0.4557 H   0  0  0  0  0  0  0  0  0  0  0  0
   -0.1858   -0.0926    1.3746 H   0  0  0  0  0  0  0  0  0  0  0  0
   -1.8206    1.2893   -0.4622 H   0  0  0  0  0  0  0  0  0  0  0  0
   -0.4914   -0.1111   -1.6926 H   0  0  0  0  0  0  0  0  0  0  0  0
    0.4685   -1.2431   -0.7125 H   0  0  0  0  0  0  0  0  0  0  0  0
   -2.5788   -0.8219   -0.6485 H   0  0  0  0  0  0  0  0  0  0  0  0
   -1.6486   -2.1749   -1.4048 H   0  0  0  0  0  0  0  0  0  0  0  0
   -2.2191   -1.6530    1.5451 H   0  0  0  0  0  0  0  0  0  0  0  0
   -2.4833   -3.0690    0.5082 H   0  0  0  0  0  0  0  0  0  0  0  0
   -0.7740   -2.6083    1.0226 H   0  0  0  0  0  0  0  0  0  0  0  0
  1  2  1  0
  2  3  3  0
  3  4  1  0
  4  5  1  0
  4  6  1  0
  6  7  1  0
  7  8  1  0
  1  9  1  0
  1 10  1  0
  1 11  1  0
  4 12  1  0
  5 13  1  0
  6 14  1  0
  6 15  1  0
  7 16  1  0
  7 17  1  0
  8 18  1  0
  8 19  1  0
  8 20  1  0
M  END
