
     RDKit          3D

 19 19  0  0  0  0  0  0  0  0999 V2000
    3.2672   -1.4079   -1.0660 C   0  0  0  0  0  0  0  0  0  0  0  0
    2.2198   -0.7257   -0.3030 C   0  0  0  0  0  0  0  0  0  0  0  0
    1.3508   -0.1381    0.3238 C   0  0  0  0  0  0  0  0  0  0  0  0
    0.2965    0.5528    1.0733 C   0  0  0  0  0  0  0  0  0  0  0  0
   -0.8913    0.6787    0.1748 C   0  0  0  0  0  0  0  0  0  0  0  0
   -0.7947    1.3694   -1.0235 O   0  0  0  0  0  0  0  0  0  0  0  0
   -1.8480   -0.5029    0.1459 C   0  0  0  0  0  0  0  0  0  0  0  0
   -2.2140    0.7506    0.8954 C   0  0  0  0  0  0  0  0  0  0  0  0
   -3.2519    1.4887    0.3729 O   0  0  0  0  0  0  0  0  0  0  0  0
    2.8682   -1.6862   -2.0614 H   0  0  0  0  0  0  0  0  0  0  0  0
    3.6670   -2.2906   -0.5038 H   0  0  0  0  0  0  0  0  0  0  0  0
    4.1471   -0.7580   -1.2548 H   0  0  0  0  0  0  0  0  0  0  0  0
    0.6660    1.5265    1.4673 H   0  0  0  0  0  0  0  0  0  0  0  0
   -0.0160   -0.0305    1.9673 H   0  0  0  0  0  0  0  0  0  0  0  0
   -0.0301    1.0447   -1.5656 H   0  0  0  0  0  0  0  0  0  0  0  0
   -2.3982   -0.7152   -0.7906 H   0  0  0  0  0  0  0  0  0  0  0  0
   -1.5669   -1.4084    0.7431 H   0  0  0  0  0  0  0  0  0  0  0  0
   -2.2330    0.6800    2.0069 H   0  0  0  0  0  0  0  0  0  0  0  0
   -3.2385    1.5722   -0.6019 H   0  0  0  0  0  0  0  0  0  0  0  0
  1  2  1  0
  2  3  3  0
  3  4  1  0
  4  5  1  0
  5  6  1  0
  5  7  1  0
  7  8  1  0
  8  9  1  0
  8  5  1  0
  1 10  1  0
  1 11  1  0
  1 12  1  0
  4 13  1  0
  4 14  1  0
  6 15  1  0
  7 16  1  0
  7 17  1  0
  8 18  1  0
  9 19  1  0
M  END
