
     RDKit          3D

 19 18  0  0  0  0  0  0  0  0999 V2000
    3.9343    0.1406    0.8879 C   0  0  0  0  0  0  0  0  0  0  0  0
    2.5868    0.3637    0.3160 C   0  0  0  0  0  0  0  0  0  0  0  0
    1.4981    0.5349   -0.1656 C   0  0  0  0  0  0  0  0  0  0  0  0
    0.1626    0.7403   -0.7809 C   0  0  0  0  0  0  0  0  0  0  0  0
   -0.8392    0.3878    0.2851 C   0  0  0  0  0  0  0  0  0  0  0  0
   -0.7087    0.9818    1.3462 O   0  0  0  0  0  0  0  0  0  0  0  0
   -1.8814   -0.6230   -0.0073 C   0  0  0  0  0  0  0  0  0  0  0  0
   -2.6650   -0.3100   -1.2562 C   0  0  0  0  0  0  0  0  0  0  0  0
   -2.7007   -0.7225    1.1293 O   0  0  0  0  0  0  0  0  0  0  0  0
    4.0919   -0.9756    0.8673 H   0  0  0  0  0  0  0  0  0  0  0  0
    3.9203    0.4660    1.9527 H   0  0  0  0  0  0  0  0  0  0  0  0
    4.7189    0.6950    0.3768 H   0  0  0  0  0  0  0  0  0  0  0  0
    0.0183    1.7634   -1.1486 H   0  0  0  0  0  0  0  0  0  0  0  0
    0.0757    0.0330   -1.6386 H   0  0  0  0  0  0  0  0  0  0  0  0
   -1.3405   -1.6012   -0.1740 H   0  0  0  0  0  0  0  0  0  0  0  0
   -3.7430   -0.4335   -1.0138 H   0  0  0  0  0  0  0  0  0  0  0  0
   -2.3090   -0.9473   -2.0743 H   0  0  0  0  0  0  0  0  0  0  0  0
   -2.5187    0.7618   -1.5145 H   0  0  0  0  0  0  0  0  0  0  0  0
   -2.3007   -1.2553    1.8396 H   0  0  0  0  0  0  0  0  0  0  0  0
  1  2  1  0
  2  3  3  0
  3  4  1  0
  4  5  1  0
  5  6  2  0
  5  7  1  0
  7  8  1  0
  7  9  1  0
  1 10  1  0
  1 11  1  0
  1 12  1  0
  4 13  1  0
  4 14  1  0
  7 15  1  0
  8 16  1  0
  8 17  1  0
  8 18  1  0
  9 19  1  0
M  END
