
     RDKit          3D

 19 19  0  0  0  0  0  0  0  0999 V2000
   -3.4220   -0.8187   -0.2111 C   0  0  0  0  0  0  0  0  0  0  0  0
   -1.9081   -0.3536   -0.0880 C   0  0  0  0  0  0  0  0  0  0  0  0
   -0.7434    0.0055    0.0278 C   0  0  0  0  0  0  0  0  0  0  0  0
    0.5786    0.3905    0.1524 C   0  0  0  0  0  0  0  0  0  0  0  0
    1.0198    1.7821    0.4554 C   0  0  0  0  0  0  0  0  0  0  0  0
    0.7531    2.7947   -0.3663 O   0  0  0  0  0  0  0  0  0  0  0  0
    1.5735   -0.3696   -0.6398 C   0  0  0  0  0  0  0  0  0  0  0  0
    2.0892   -1.7429   -0.1165 C   0  0  0  0  0  0  0  0  0  0  0  0
    2.8672   -0.6123   -0.4259 O   0  0  0  0  0  0  0  0  0  0  0  0
   -3.3322   -1.6413   -0.9218 H   0  0  0  0  0  0  0  0  0  0  0  0
   -3.7880   -0.8984    0.7736 H   0  0  0  0  0  0  0  0  0  0  0  0
   -3.8598    0.0261   -0.8235 H   0  0  0  0  0  0  0  0  0  0  0  0
    0.8717   -0.0767    1.2968 H   0  0  0  0  0  0  0  0  0  0  0  0
    2.0513    1.7033    0.9590 H   0  0  0  0  0  0  0  0  0  0  0  0
    0.2856    2.0085    1.3972 H   0  0  0  0  0  0  0  0  0  0  0  0
   -0.1594    2.9720   -0.5512 H   0  0  0  0  0  0  0  0  0  0  0  0
    1.1230   -0.6365   -1.7316 H   0  0  0  0  0  0  0  0  0  0  0  0
    2.0570   -2.5986   -0.8302 H   0  0  0  0  0  0  0  0  0  0  0  0
    1.9430   -1.9341    0.9576 H   0  0  0  0  0  0  0  0  0  0  0  0
  1  2  1  0
  2  3  3  0
  3  4  1  0
  4  5  1  0
  5  6  1  0
  4  7  1  0
  7  8  1  0
  8  9  1  0
  9  7  1  0
  1 10  1  0
  1 11  1  0
  1 12  1  0
  4 13  1  0
  5 14  1  0
  5 15  1  0
  6 16  1  0
  7 17  1  0
  8 18  1  0
  8 19  1  0
M  END
