
     RDKit          3D

 19 19  0  0  0  0  0  0  0  0999 V2000
    3.0582    0.2548   -0.7759 C   0  0  0  0  0  0  0  0  0  0  0  0
    1.8707   -0.1190   -0.8292 C   0  0  0  0  0  0  0  0  0  0  0  0
    0.5236   -0.5327   -0.8836 C   0  0  0  0  0  0  0  0  0  0  0  0
   -0.8750   -0.9380   -0.9387 C   0  0  0  0  0  0  0  0  0  0  0  0
   -1.9761   -0.0269   -0.7412 C   0  0  0  0  0  0  0  0  0  0  0  0
   -1.4754   -0.9515    0.4375 C   0  0  0  0  0  0  0  0  0  0  0  0
   -0.6204   -0.1472    1.4654 C   0  0  0  0  0  0  0  0  0  0  0  0
   -0.6583    1.2539    1.0331 C   0  0  0  0  0  0  0  0  0  0  0  0
   -1.8769    1.7366    1.4932 O   0  0  0  0  0  0  0  0  0  0  0  0
    3.4740    1.2453   -0.2765 H   0  0  0  0  0  0  0  0  0  0  0  0
    3.5765    0.3828   -1.8296 H   0  0  0  0  0  0  0  0  0  0  0  0
    3.8254   -0.4963   -0.2528 H   0  0  0  0  0  0  0  0  0  0  0  0
   -1.0760   -1.8670   -1.5725 H   0  0  0  0  0  0  0  0  0  0  0  0
   -1.9062    1.0263   -0.5507 H   0  0  0  0  0  0  0  0  0  0  0  0
   -2.9880   -0.3618   -1.1687 H   0  0  0  0  0  0  0  0  0  0  0  0
   -2.2105   -1.6086    0.8266 H   0  0  0  0  0  0  0  0  0  0  0  0
    0.4218   -0.5600    1.3383 H   0  0  0  0  0  0  0  0  0  0  0  0
   -0.9130   -0.3141    2.4801 H   0  0  0  0  0  0  0  0  0  0  0  0
   -0.1744    2.0236    0.5472 H   0  0  0  0  0  0  0  0  0  0  0  0
  1  2  1  0
  2  3  3  0
  3  4  1  0
  4  5  1  0
  5  6  1  0
  6  7  1  0
  7  8  1  0
  8  9  2  0
  6  4  1  0
  1 10  1  0
  1 11  1  0
  1 12  1  0
  4 13  1  0
  5 14  1  0
  5 15  1  0
  6 16  1  0
  7 17  1  0
  7 18  1  0
  8 19  1  0
M  END
