
     RDKit          3D

 18 18  0  0  0  0  0  0  0  0999 V2000
    2.7958    2.3034    0.2272 C   0  0  0  0  0  0  0  0  0  0  0  0
    1.9306    1.1473   -0.0122 C   0  0  0  0  0  0  0  0  0  0  0  0
    1.2240    0.1679   -0.2155 C   0  0  0  0  0  0  0  0  0  0  0  0
    0.3595   -0.9877   -0.4638 C   0  0  0  0  0  0  0  0  0  0  0  0
   -1.0799   -0.5220   -0.4116 C   0  0  0  0  0  0  0  0  0  0  0  0
   -2.1079   -1.5822   -0.6456 C   0  0  0  0  0  0  0  0  0  0  0  0
   -2.4896   -1.4344    0.7069 O   0  0  0  0  0  0  0  0  0  0  0  0
   -1.6451   -0.3620    0.9647 C   0  0  0  0  0  0  0  0  0  0  0  0
    2.2904    3.2382   -0.1546 H   0  0  0  0  0  0  0  0  0  0  0  0
    2.9559    2.4795    1.3091 H   0  0  0  0  0  0  0  0  0  0  0  0
    3.7266    2.2023   -0.3503 H   0  0  0  0  0  0  0  0  0  0  0  0
    0.5771   -1.4165   -1.4770 H   0  0  0  0  0  0  0  0  0  0  0  0
    0.5467   -1.7696    0.3004 H   0  0  0  0  0  0  0  0  0  0  0  0
   -1.2234    0.3486   -1.1017 H   0  0  0  0  0  0  0  0  0  0  0  0
   -1.7284   -2.5947   -0.8892 H   0  0  0  0  0  0  0  0  0  0  0  0
   -2.9797   -1.2982   -1.2714 H   0  0  0  0  0  0  0  0  0  0  0  0
   -0.9855   -0.5514    1.8132 H   0  0  0  0  0  0  0  0  0  0  0  0
   -2.1672    0.6315    1.0572 H   0  0  0  0  0  0  0  0  0  0  0  0
  1  2  1  0
  2  3  3  0
  3  4  1  0
  4  5  1  0
  5  6  1  0
  6  7  1  0
  7  8  1  0
  8  5  1  0
  1  9  1  0
  1 10  1  0
  1 11  1  0
  4 12  1  0
  4 13  1  0
  5 14  1  0
  6 15  1  0
  6 16  1  0
  8 17  1  0
  8 18  1  0
M  END
