
     RDKit          3D

 19 18  0  0  0  0  0  0  0  0999 V2000
    3.5497   -1.0308   -0.8174 C   0  0  0  0  0  0  0  0  0  0  0  0
    2.2498   -0.4182   -0.4546 C   0  0  0  0  0  0  0  0  0  0  0  0
    1.1959    0.0737   -0.1608 C   0  0  0  0  0  0  0  0  0  0  0  0
   -0.1032    0.6685    0.2246 C   0  0  0  0  0  0  0  0  0  0  0  0
   -1.2200   -0.1822   -0.1598 C   0  0  0  0  0  0  0  0  0  0  0  0
   -2.1507   -0.8841   -0.4958 C   0  0  0  0  0  0  0  0  0  0  0  0
   -3.2868   -1.7101   -0.9079 C   0  0  0  0  0  0  0  0  0  0  0  0
   -0.0454    0.9063    1.5785 O   0  0  0  0  0  0  0  0  0  0  0  0
   -0.1907    2.2759    1.8225 C   0  0  0  0  0  0  0  0  0  0  0  0
    4.3680   -0.6650   -0.1759 H   0  0  0  0  0  0  0  0  0  0  0  0
    3.7849   -0.7129   -1.8507 H   0  0  0  0  0  0  0  0  0  0  0  0
    3.4843   -2.1370   -0.7957 H   0  0  0  0  0  0  0  0  0  0  0  0
   -0.2523    1.6403   -0.3296 H   0  0  0  0  0  0  0  0  0  0  0  0
   -2.9851   -2.7772   -0.8589 H   0  0  0  0  0  0  0  0  0  0  0  0
   -4.1752   -1.5254   -0.2734 H   0  0  0  0  0  0  0  0  0  0  0  0
   -3.5291   -1.5176   -1.9881 H   0  0  0  0  0  0  0  0  0  0  0  0
    0.6364    2.8250    1.3085 H   0  0  0  0  0  0  0  0  0  0  0  0
   -1.1521    2.6680    1.4310 H   0  0  0  0  0  0  0  0  0  0  0  0
   -0.1784    2.5029    2.9036 H   0  0  0  0  0  0  0  0  0  0  0  0
  1  2  1  0
  2  3  3  0
  3  4  1  0
  4  5  1  0
  5  6  3  0
  6  7  1  0
  4  8  1  0
  8  9  1  0
  1 10  1  0
  1 11  1  0
  1 12  1  0
  4 13  1  0
  7 14  1  0
  7 15  1  0
  7 16  1  0
  9 17  1  0
  9 18  1  0
  9 19  1  0
M  END
