
     RDKit          3D

 21 20  0  0  0  0  0  0  0  0999 V2000
    4.5350   -0.5968    0.8002 C   0  0  0  0  0  0  0  0  0  0  0  0
    3.0711   -0.6028    0.8397 C   0  0  0  0  0  0  0  0  0  0  0  0
    1.8477   -0.6266    0.8626 C   0  0  0  0  0  0  0  0  0  0  0  0
    0.3847   -0.6796    0.8970 C   0  0  0  0  0  0  0  0  0  0  0  0
    0.0249   -1.9922    0.5994 O   0  0  0  0  0  0  0  0  0  0  0  0
   -0.2207    0.2996   -0.0994 C   0  0  0  0  0  0  0  0  0  0  0  0
   -1.6011    0.1780   -0.0379 O   0  0  0  0  0  0  0  0  0  0  0  0
   -2.2557    1.0238   -0.9042 C   0  0  0  0  0  0  0  0  0  0  0  0
   -3.7524    0.7830   -0.7299 C   0  0  0  0  0  0  0  0  0  0  0  0
    4.9412    0.4177    1.0683 H   0  0  0  0  0  0  0  0  0  0  0  0
    4.8702   -1.3456    1.5468 H   0  0  0  0  0  0  0  0  0  0  0  0
    4.8801   -0.8305   -0.2219 H   0  0  0  0  0  0  0  0  0  0  0  0
   -0.0052   -0.4643    1.9112 H   0  0  0  0  0  0  0  0  0  0  0  0
   -0.6223   -2.0702   -0.1311 H   0  0  0  0  0  0  0  0  0  0  0  0
    0.0847    1.3155    0.2285 H   0  0  0  0  0  0  0  0  0  0  0  0
    0.1902    0.0651   -1.1104 H   0  0  0  0  0  0  0  0  0  0  0  0
   -1.9901    0.9138   -1.9537 H   0  0  0  0  0  0  0  0  0  0  0  0
   -2.1011    2.0983   -0.6035 H   0  0  0  0  0  0  0  0  0  0  0  0
   -4.2744    1.1543   -1.6157 H   0  0  0  0  0  0  0  0  0  0  0  0
   -3.9197   -0.3164   -0.6906 H   0  0  0  0  0  0  0  0  0  0  0  0
   -4.0869    1.2760    0.1995 H   0  0  0  0  0  0  0  0  0  0  0  0
  1  2  1  0
  2  3  3  0
  3  4  1  0
  4  5  1  0
  4  6  1  0
  6  7  1  0
  7  8  1  0
  8  9  1  0
  1 10  1  0
  1 11  1  0
  1 12  1  0
  4 13  1  0
  5 14  1  0
  6 15  1  0
  6 16  1  0
  8 17  1  0
  8 18  1  0
  9 19  1  0
  9 20  1  0
  9 21  1  0
M  END
