
     RDKit          3D

 21 21  0  0  0  0  0  0  0  0999 V2000
    1.5894   -0.1892    3.7089 C   0  0  0  0  0  0  0  0  0  0  0  0
    0.8213   -0.5392    2.5196 C   0  0  0  0  0  0  0  0  0  0  0  0
    0.1778   -0.8120    1.5246 C   0  0  0  0  0  0  0  0  0  0  0  0
   -0.5886   -1.1285    0.3251 C   0  0  0  0  0  0  0  0  0  0  0  0
    0.0761   -0.6304   -0.9442 C   0  0  0  0  0  0  0  0  0  0  0  0
    0.2754    0.8548   -0.9349 C   0  0  0  0  0  0  0  0  0  0  0  0
   -0.9254    1.3030   -1.7396 C   0  0  0  0  0  0  0  0  0  0  0  0
   -1.1091    0.1498   -2.6901 C   0  0  0  0  0  0  0  0  0  0  0  0
   -0.7424   -0.9558   -1.9774 O   0  0  0  0  0  0  0  0  0  0  0  0
    2.4141   -0.9110    3.8310 H   0  0  0  0  0  0  0  0  0  0  0  0
    1.9803    0.8291    3.6883 H   0  0  0  0  0  0  0  0  0  0  0  0
    0.9683   -0.3113    4.6417 H   0  0  0  0  0  0  0  0  0  0  0  0
   -0.7075   -2.2512    0.2167 H   0  0  0  0  0  0  0  0  0  0  0  0
   -1.6229   -0.7608    0.4495 H   0  0  0  0  0  0  0  0  0  0  0  0
    1.0533   -1.1267   -1.0965 H   0  0  0  0  0  0  0  0  0  0  0  0
    0.3292    1.3105    0.0519 H   0  0  0  0  0  0  0  0  0  0  0  0
    1.1732    1.1066   -1.5601 H   0  0  0  0  0  0  0  0  0  0  0  0
   -0.6736    2.2198   -2.3350 H   0  0  0  0  0  0  0  0  0  0  0  0
   -1.8184    1.4994   -1.1156 H   0  0  0  0  0  0  0  0  0  0  0  0
   -2.1967    0.1042   -2.9646 H   0  0  0  0  0  0  0  0  0  0  0  0
   -0.4739    0.2386   -3.5994 H   0  0  0  0  0  0  0  0  0  0  0  0
  1  2  1  0
  2  3  3  0
  3  4  1  0
  4  5  1  0
  5  6  1  0
  6  7  1  0
  7  8  1  0
  8  9  1  0
  9  5  1  0
  1 10  1  0
  1 11  1  0
  1 12  1  0
  4 13  1  0
  4 14  1  0
  5 15  1  0
  6 16  1  0
  6 17  1  0
  7 18  1  0
  7 19  1  0
  8 20  1  0
  8 21  1  0
M  END
