
     RDKit          3D

 19 20  0  0  0  0  0  0  0  0999 V2000
    3.5002    0.9051   -0.2101 C   0  0  0  0  0  0  0  0  0  0  0  0
    2.1073    0.7537    0.2244 C   0  0  0  0  0  0  0  0  0  0  0  0
    0.9500    0.6171    0.5836 C   0  0  0  0  0  0  0  0  0  0  0  0
   -0.4149    0.4327    1.0185 C   0  0  0  0  0  0  0  0  0  0  0  0
   -0.4825   -0.6529    1.9090 O   0  0  0  0  0  0  0  0  0  0  0  0
   -1.6247   -1.1203    1.2577 C   0  0  0  0  0  0  0  0  0  0  0  0
   -1.2297   -0.3311    0.0758 C   0  0  0  0  0  0  0  0  0  0  0  0
   -0.9062   -0.8002   -1.2323 C   0  0  0  0  0  0  0  0  0  0  0  0
   -2.0894    0.1588   -0.9662 C   0  0  0  0  0  0  0  0  0  0  0  0
    4.1122    0.0185    0.0523 H   0  0  0  0  0  0  0  0  0  0  0  0
    3.9931    1.7713    0.2827 H   0  0  0  0  0  0  0  0  0  0  0  0
    3.5664    1.0932   -1.3011 H   0  0  0  0  0  0  0  0  0  0  0  0
   -0.9289    1.3302    1.4140 H   0  0  0  0  0  0  0  0  0  0  0  0
   -2.5185   -0.6819    1.7603 H   0  0  0  0  0  0  0  0  0  0  0  0
   -1.6900   -2.2193    1.1444 H   0  0  0  0  0  0  0  0  0  0  0  0
   -1.1950   -1.8122   -1.6134 H   0  0  0  0  0  0  0  0  0  0  0  0
   -0.0605   -0.3741   -1.8127 H   0  0  0  0  0  0  0  0  0  0  0  0
   -1.9753    1.2053   -1.3083 H   0  0  0  0  0  0  0  0  0  0  0  0
   -3.1137   -0.2938   -1.0605 H   0  0  0  0  0  0  0  0  0  0  0  0
  1  2  1  0
  2  3  3  0
  3  4  1  0
  4  5  1  0
  5  6  1  0
  6  7  1  0
  7  8  1  0
  8  9  1  0
  7  4  1  0
  9  7  1  0
  1 10  1  0
  1 11  1  0
  1 12  1  0
  4 13  1  0
  6 14  1  0
  6 15  1  0
  8 16  1  0
  8 17  1  0
  9 18  1  0
  9 19  1  0
M  END
