
     RDKit          3D

 23 22  0  0  0  0  0  0  0  0999 V2000
    4.1351    0.4235    0.6630 C   0  0  0  0  0  0  0  0  0  0  0  0
    2.6824    0.5460    0.5476 C   0  0  0  0  0  0  0  0  0  0  0  0
    1.4849    0.6356    0.4479 C   0  0  0  0  0  0  0  0  0  0  0  0
   -0.0001    0.7513    0.2986 C   0  0  0  0  0  0  0  0  0  0  0  0
   -0.5189   -0.6292    0.0069 C   0  0  0  0  0  0  0  0  0  0  0  0
    0.1707   -1.1116   -1.2738 C   0  0  0  0  0  0  0  0  0  0  0  0
   -1.9778   -0.5565   -0.3442 C   0  0  0  0  0  0  0  0  0  0  0  0
   -2.8015    0.0135    0.7638 C   0  0  0  0  0  0  0  0  0  0  0  0
   -2.4844    1.3157    1.1033 O   0  0  0  0  0  0  0  0  0  0  0  0
    4.6217    0.3353   -0.3338 H   0  0  0  0  0  0  0  0  0  0  0  0
    4.3619   -0.5438    1.1921 H   0  0  0  0  0  0  0  0  0  0  0  0
    4.5650    1.2924    1.2231 H   0  0  0  0  0  0  0  0  0  0  0  0
   -0.2787    1.4078   -0.5337 H   0  0  0  0  0  0  0  0  0  0  0  0
   -0.3062    1.1322    1.3079 H   0  0  0  0  0  0  0  0  0  0  0  0
   -0.3527   -1.3157    0.8399 H   0  0  0  0  0  0  0  0  0  0  0  0
   -0.2932   -0.5221   -2.0938 H   0  0  0  0  0  0  0  0  0  0  0  0
   -0.0215   -2.1943   -1.3984 H   0  0  0  0  0  0  0  0  0  0  0  0
    1.2591   -0.9573   -1.2110 H   0  0  0  0  0  0  0  0  0  0  0  0
   -2.0989    0.1285   -1.2437 H   0  0  0  0  0  0  0  0  0  0  0  0
   -2.3644   -1.5408   -0.7004 H   0  0  0  0  0  0  0  0  0  0  0  0
   -2.7599   -0.6388    1.6864 H   0  0  0  0  0  0  0  0  0  0  0  0
   -3.8829    0.0427    0.4220 H   0  0  0  0  0  0  0  0  0  0  0  0
   -3.1398    1.9855    0.7543 H   0  0  0  0  0  0  0  0  0  0  0  0
  1  2  1  0
  2  3  3  0
  3  4  1  0
  4  5  1  0
  5  6  1  0
  5  7  1  0
  7  8  1  0
  8  9  1  0
  1 10  1  0
  1 11  1  0
  1 12  1  0
  4 13  1  0
  4 14  1  0
  5 15  1  0
  6 16  1  0
  6 17  1  0
  6 18  1  0
  7 19  1  0
  7 20  1  0
  8 21  1  0
  8 22  1  0
  9 23  1  0
M  END
