
     RDKit          3D

 23 23  0  0  0  0  0  0  0  0999 V2000
    3.1477    3.1359    0.1269 C   0  0  0  0  0  0  0  0  0  0  0  0
    2.5024    1.8087    0.2781 C   0  0  0  0  0  0  0  0  0  0  0  0
    1.9763    0.7310    0.3801 C   0  0  0  0  0  0  0  0  0  0  0  0
    1.3208   -0.5807    0.5261 C   0  0  0  0  0  0  0  0  0  0  0  0
   -0.1368   -0.3712    0.1887 C   0  0  0  0  0  0  0  0  0  0  0  0
   -0.9704   -1.6263    0.2869 C   0  0  0  0  0  0  0  0  0  0  0  0
   -2.3653   -1.5574    0.8422 C   0  0  0  0  0  0  0  0  0  0  0  0
   -0.7186   -0.9267   -1.0442 C   0  0  0  0  0  0  0  0  0  0  0  0
   -1.9016   -0.2350   -1.6673 C   0  0  0  0  0  0  0  0  0  0  0  0
    3.1375    3.6885    1.1045 H   0  0  0  0  0  0  0  0  0  0  0  0
    2.6008    3.6904   -0.6426 H   0  0  0  0  0  0  0  0  0  0  0  0
    4.2155    3.0007   -0.1257 H   0  0  0  0  0  0  0  0  0  0  0  0
    1.4003   -0.9396    1.5709 H   0  0  0  0  0  0  0  0  0  0  0  0
    1.7979   -1.3422   -0.1183 H   0  0  0  0  0  0  0  0  0  0  0  0
   -0.6054    0.5180    0.6288 H   0  0  0  0  0  0  0  0  0  0  0  0
   -0.4609   -2.5966    0.4626 H   0  0  0  0  0  0  0  0  0  0  0  0
   -2.6314   -0.5786    1.2484 H   0  0  0  0  0  0  0  0  0  0  0  0
   -2.5474   -2.3822    1.5681 H   0  0  0  0  0  0  0  0  0  0  0  0
   -3.0678   -1.7462   -0.0226 H   0  0  0  0  0  0  0  0  0  0  0  0
   -0.0393   -1.4978   -1.7334 H   0  0  0  0  0  0  0  0  0  0  0  0
   -2.5987    0.0640   -0.8376 H   0  0  0  0  0  0  0  0  0  0  0  0
   -2.4413   -0.9548   -2.3138 H   0  0  0  0  0  0  0  0  0  0  0  0
   -1.6142    0.6980   -2.1922 H   0  0  0  0  0  0  0  0  0  0  0  0
  1  2  1  0
  2  3  3  0
  3  4  1  0
  4  5  1  0
  5  6  1  0
  6  7  1  0
  6  8  1  0
  8  9  1  0
  8  5  1  0
  1 10  1  0
  1 11  1  0
  1 12  1  0
  4 13  1  0
  4 14  1  0
  5 15  1  0
  6 16  1  0
  7 17  1  0
  7 18  1  0
  7 19  1  0
  8 20  1  0
  9 21  1  0
  9 22  1  0
  9 23  1  0
M  END
