
     RDKit          3D

 18 17  0  0  0  0  0  0  0  0999 V2000
    2.9717   -0.4946    1.6331 C   0  0  0  0  0  0  0  0  0  0  0  0
    1.9257   -0.2114    0.9739 C   0  0  0  0  0  0  0  0  0  0  0  0
    0.7511    0.1087    0.2039 C   0  0  0  0  0  0  0  0  0  0  0  0
   -0.3657    0.3916   -0.5256 C   0  0  0  0  0  0  0  0  0  0  0  0
   -1.5672    0.7512    0.3394 C   0  0  0  0  0  0  0  0  0  0  0  0
   -2.6922    1.0641   -0.3989 O   0  0  0  0  0  0  0  0  0  0  0  0
   -0.6574   -0.3985   -1.6965 C   0  0  0  0  0  0  0  0  0  0  0  0
   -0.7623   -1.7470   -1.4863 O   0  0  0  0  0  0  0  0  0  0  0  0
    3.7024   -1.2395    1.0994 H   0  0  0  0  0  0  0  0  0  0  0  0
    3.7033    0.3570    1.9154 H   0  0  0  0  0  0  0  0  0  0  0  0
    2.8381   -0.9653    2.7020 H   0  0  0  0  0  0  0  0  0  0  0  0
   -0.1350    1.4790   -1.0014 H   0  0  0  0  0  0  0  0  0  0  0  0
   -1.3355    1.5692    1.0675 H   0  0  0  0  0  0  0  0  0  0  0  0
   -1.8727   -0.1338    0.9831 H   0  0  0  0  0  0  0  0  0  0  0  0
   -3.1448    1.7911    0.0659 H   0  0  0  0  0  0  0  0  0  0  0  0
   -1.6977   -0.1019   -2.0706 H   0  0  0  0  0  0  0  0  0  0  0  0
    0.0338   -0.2232   -2.5745 H   0  0  0  0  0  0  0  0  0  0  0  0
   -1.6957   -1.9966   -1.2297 H   0  0  0  0  0  0  0  0  0  0  0  0
  1  2  1  0
  2  3  3  0
  3  4  1  0
  4  5  1  0
  5  6  1  0
  4  7  1  0
  7  8  1  0
  1  9  1  0
  1 10  1  0
  1 11  1  0
  4 12  1  0
  5 13  1  0
  5 14  1  0
  6 15  1  0
  7 16  1  0
  7 17  1  0
  8 18  1  0
M  END
