
     RDKit          3D

 14 13  0  0  0  0  0  0  0  0999 V2000
    2.7621    0.6241    0.3190 C   0  0  0  0  0  0  0  0  0  0  0  0
    1.3921    0.3668   -0.1404 C   0  0  0  0  0  0  0  0  0  0  0  0
    0.2580    0.1472   -0.5214 C   0  0  0  0  0  0  0  0  0  0  0  0
   -1.1080   -0.1141   -1.0007 C   0  0  0  0  0  0  0  0  0  0  0  0
   -2.0215   -0.1017    0.1827 C   0  0  0  0  0  0  0  0  0  0  0  0
   -1.2029   -1.3786   -1.5956 O   0  0  0  0  0  0  0  0  0  0  0  0
    2.7637    1.6325    0.7588 H   0  0  0  0  0  0  0  0  0  0  0  0
    3.1118   -0.1224    1.0494 H   0  0  0  0  0  0  0  0  0  0  0  0
    3.4941    0.5888   -0.5297 H   0  0  0  0  0  0  0  0  0  0  0  0
   -1.3390    0.6483   -1.7559 H   0  0  0  0  0  0  0  0  0  0  0  0
   -2.3751    0.9387    0.4394 H   0  0  0  0  0  0  0  0  0  0  0  0
   -1.5678   -0.4999    1.0885 H   0  0  0  0  0  0  0  0  0  0  0  0
   -2.9103   -0.7071   -0.0516 H   0  0  0  0  0  0  0  0  0  0  0  0
   -1.2572   -2.0225   -0.8327 H   0  0  0  0  0  0  0  0  0  0  0  0
  1  2  1  0
  2  3  3  0
  3  4  1  0
  4  5  1  0
  4  6  1  0
  1  7  1  0
  1  8  1  0
  1  9  1  0
  4 10  1  0
  5 11  1  0
  5 12  1  0
  5 13  1  0
  6 14  1  0
M  END
