
     RDKit          3D

 21 20  0  0  0  0  0  0  0  0999 V2000
    4.0743    1.2297    0.3363 C   0  0  0  0  0  0  0  0  0  0  0  0
    2.7149    0.7656    0.4598 C   0  0  0  0  0  0  0  0  0  0  0  0
    1.5650    0.3626    0.5743 C   0  0  0  0  0  0  0  0  0  0  0  0
    0.2187   -0.1177    0.6849 C   0  0  0  0  0  0  0  0  0  0  0  0
   -0.0154   -1.1317    1.3902 O   0  0  0  0  0  0  0  0  0  0  0  0
   -0.9181    0.5292    0.0021 C   0  0  0  0  0  0  0  0  0  0  0  0
   -0.6830    0.5052   -1.4792 C   0  0  0  0  0  0  0  0  0  0  0  0
   -2.2443   -0.0003    0.4244 C   0  0  0  0  0  0  0  0  0  0  0  0
   -2.4250   -1.4590    0.1694 C   0  0  0  0  0  0  0  0  0  0  0  0
    4.2840    1.4489   -0.7272 H   0  0  0  0  0  0  0  0  0  0  0  0
    4.1956    2.1521    0.9323 H   0  0  0  0  0  0  0  0  0  0  0  0
    4.7854    0.4799    0.7526 H   0  0  0  0  0  0  0  0  0  0  0  0
   -0.8894    1.6155    0.3060 H   0  0  0  0  0  0  0  0  0  0  0  0
   -1.1666    1.3696   -1.9544 H   0  0  0  0  0  0  0  0  0  0  0  0
   -1.0003   -0.4219   -1.9615 H   0  0  0  0  0  0  0  0  0  0  0  0
    0.4271    0.6067   -1.6430 H   0  0  0  0  0  0  0  0  0  0  0  0
   -2.3786    0.2474    1.5035 H   0  0  0  0  0  0  0  0  0  0  0  0
   -3.0282    0.5758   -0.1144 H   0  0  0  0  0  0  0  0  0  0  0  0
   -2.1392   -2.0724    1.0468 H   0  0  0  0  0  0  0  0  0  0  0  0
   -1.8552   -1.7852   -0.7079 H   0  0  0  0  0  0  0  0  0  0  0  0
   -3.5219   -1.6698    0.0048 H   0  0  0  0  0  0  0  0  0  0  0  0
  1  2  1  0
  2  3  3  0
  3  4  1  0
  4  5  2  0
  4  6  1  0
  6  7  1  0
  6  8  1  0
  8  9  1  0
  1 10  1  0
  1 11  1  0
  1 12  1  0
  6 13  1  0
  7 14  1  0
  7 15  1  0
  7 16  1  0
  8 17  1  0
  8 18  1  0
  9 19  1  0
  9 20  1  0
  9 21  1  0
M  END
