
     RDKit          3D

 21 21  0  0  0  0  0  0  0  0999 V2000
    3.1871    1.6463    0.1487 C   0  0  0  0  0  0  0  0  0  0  0  0
    2.2510    0.8547    0.2358 C   0  0  0  0  0  0  0  0  0  0  0  0
    1.1034   -0.0921    0.3605 C   0  0  0  0  0  0  0  0  0  0  0  0
    0.0635   -0.9241    0.4841 C   0  0  0  0  0  0  0  0  0  0  0  0
    0.1437   -2.2656   -0.1328 C   0  0  0  0  0  0  0  0  0  0  0  0
   -1.3027   -0.3334    0.1537 C   0  0  0  0  0  0  0  0  0  0  0  0
   -1.5607    0.2007   -1.2424 C   0  0  0  0  0  0  0  0  0  0  0  0
   -2.4543    1.1523   -0.3937 C   0  0  0  0  0  0  0  0  0  0  0  0
   -1.5029    0.9911    0.6430 O   0  0  0  0  0  0  0  0  0  0  0  0
    3.8218    2.0464    1.0734 H   0  0  0  0  0  0  0  0  0  0  0  0
    3.0874    2.6365   -0.4771 H   0  0  0  0  0  0  0  0  0  0  0  0
    4.1719    1.1768   -0.4047 H   0  0  0  0  0  0  0  0  0  0  0  0
   -0.0949   -1.1824    1.6207 H   0  0  0  0  0  0  0  0  0  0  0  0
    0.7844   -3.0219    0.4287 H   0  0  0  0  0  0  0  0  0  0  0  0
   -0.9104   -2.7202    0.1357 H   0  0  0  0  0  0  0  0  0  0  0  0
    0.2933   -2.3624   -1.1997 H   0  0  0  0  0  0  0  0  0  0  0  0
   -2.1069   -1.0341    0.5272 H   0  0  0  0  0  0  0  0  0  0  0  0
   -0.8133    0.8289   -1.7286 H   0  0  0  0  0  0  0  0  0  0  0  0
   -2.2215   -0.4251   -1.9108 H   0  0  0  0  0  0  0  0  0  0  0  0
   -2.5153    2.1468   -0.8055 H   0  0  0  0  0  0  0  0  0  0  0  0
   -3.4247    0.6808   -0.1266 H   0  0  0  0  0  0  0  0  0  0  0  0
  1  2  1  0
  2  3  3  0
  3  4  1  0
  4  5  1  0
  4  6  1  0
  6  7  1  0
  7  8  1  0
  8  9  1  0
  9  6  1  0
  1 10  1  0
  1 11  1  0
  1 12  1  0
  4 13  1  0
  5 14  1  0
  5 15  1  0
  5 16  1  0
  6 17  1  0
  7 18  1  0
  7 19  1  0
  8 20  1  0
  8 21  1  0
M  END
