
     RDKit          3D

 23 22  0  0  0  0  0  0  0  0999 V2000
    3.6139    1.9889    1.4004 C   0  0  0  0  0  0  0  0  0  0  0  0
    2.1364    1.5515    1.4618 C   0  0  0  0  0  0  0  0  0  0  0  0
    0.8850    1.1858    1.5124 C   0  0  0  0  0  0  0  0  0  0  0  0
   -0.4349    0.7939    1.5687 C   0  0  0  0  0  0  0  0  0  0  0  0
   -0.7548   -0.3862    0.7049 C   0  0  0  0  0  0  0  0  0  0  0  0
   -0.4803   -0.2629   -0.7488 C   0  0  0  0  0  0  0  0  0  0  0  0
    0.8824   -0.1275   -0.9730 O   0  0  0  0  0  0  0  0  0  0  0  0
   -1.0963   -1.4528   -1.4446 C   0  0  0  0  0  0  0  0  0  0  0  0
   -2.5765   -1.4731   -1.1341 C   0  0  0  0  0  0  0  0  0  0  0  0
    4.0401    1.2938    2.1935 H   0  0  0  0  0  0  0  0  0  0  0  0
    3.7426    3.0200    1.5422 H   0  0  0  0  0  0  0  0  0  0  0  0
    3.9745    1.6070    0.3862 H   0  0  0  0  0  0  0  0  0  0  0  0
   -1.1644    1.6562    1.4074 H   0  0  0  0  0  0  0  0  0  0  0  0
   -0.7411    0.4706    2.6477 H   0  0  0  0  0  0  0  0  0  0  0  0
   -1.8655   -0.6265    0.8527 H   0  0  0  0  0  0  0  0  0  0  0  0
   -0.2172   -1.3194    1.1388 H   0  0  0  0  0  0  0  0  0  0  0  0
   -0.9235    0.7139   -1.0977 H   0  0  0  0  0  0  0  0  0  0  0  0
    1.4402   -0.4735   -0.2749 H   0  0  0  0  0  0  0  0  0  0  0  0
   -0.5755   -2.3746   -1.0411 H   0  0  0  0  0  0  0  0  0  0  0  0
   -0.9972   -1.4232   -2.5682 H   0  0  0  0  0  0  0  0  0  0  0  0
   -3.1950   -1.7502   -2.0438 H   0  0  0  0  0  0  0  0  0  0  0  0
   -2.9166   -0.4613   -0.8721 H   0  0  0  0  0  0  0  0  0  0  0  0
   -2.7763   -2.1506   -0.2849 H   0  0  0  0  0  0  0  0  0  0  0  0
  1  2  1  0
  2  3  3  0
  3  4  1  0
  4  5  1  0
  5  6  1  0
  6  7  1  0
  6  8  1  0
  8  9  1  0
  1 10  1  0
  1 11  1  0
  1 12  1  0
  4 13  1  0
  4 14  1  0
  5 15  1  0
  5 16  1  0
  6 17  1  0
  7 18  1  0
  8 19  1  0
  8 20  1  0
  9 21  1  0
  9 22  1  0
  9 23  1  0
M  END
