
     RDKit          3D

 21 20  0  0  0  0  0  0  0  0999 V2000
    3.4061   -1.1176    0.1138 C   0  0  0  0  0  0  0  0  0  0  0  0
    2.1909   -0.3006    0.1376 C   0  0  0  0  0  0  0  0  0  0  0  0
    1.1659    0.3698    0.1721 C   0  0  0  0  0  0  0  0  0  0  0  0
   -0.0494    1.1653    0.2382 C   0  0  0  0  0  0  0  0  0  0  0  0
    0.0255    2.3838   -0.6705 C   0  0  0  0  0  0  0  0  0  0  0  0
   -1.2069    0.3375   -0.1977 C   0  0  0  0  0  0  0  0  0  0  0  0
   -1.4301   -0.8650    0.6236 C   0  0  0  0  0  0  0  0  0  0  0  0
   -2.5704   -1.7536    0.2628 C   0  0  0  0  0  0  0  0  0  0  0  0
   -0.7146   -1.1200    1.5546 O   0  0  0  0  0  0  0  0  0  0  0  0
    4.3165   -0.4875    0.3347 H   0  0  0  0  0  0  0  0  0  0  0  0
    3.3698   -1.9401    0.8427 H   0  0  0  0  0  0  0  0  0  0  0  0
    3.5172   -1.4809   -0.9435 H   0  0  0  0  0  0  0  0  0  0  0  0
   -0.2430    1.5355    1.2619 H   0  0  0  0  0  0  0  0  0  0  0  0
   -0.4082    3.2712   -0.1700 H   0  0  0  0  0  0  0  0  0  0  0  0
   -0.5157    2.2212   -1.6298 H   0  0  0  0  0  0  0  0  0  0  0  0
    1.1056    2.6500   -0.8650 H   0  0  0  0  0  0  0  0  0  0  0  0
   -1.1659    0.0787   -1.2807 H   0  0  0  0  0  0  0  0  0  0  0  0
   -2.1300    0.9824   -0.1020 H   0  0  0  0  0  0  0  0  0  0  0  0
   -2.7188   -1.7759   -0.8514 H   0  0  0  0  0  0  0  0  0  0  0  0
   -3.5394   -1.3532    0.6637 H   0  0  0  0  0  0  0  0  0  0  0  0
   -2.4049   -2.8010    0.6420 H   0  0  0  0  0  0  0  0  0  0  0  0
  1  2  1  0
  2  3  3  0
  3  4  1  0
  4  5  1  0
  4  6  1  0
  6  7  1  0
  7  8  1  0
  7  9  2  0
  1 10  1  0
  1 11  1  0
  1 12  1  0
  4 13  1  0
  5 14  1  0
  5 15  1  0
  5 16  1  0
  6 17  1  0
  6 18  1  0
  8 19  1  0
  8 20  1  0
  8 21  1  0
M  END
