
     RDKit          3D

 18 17  0  0  0  0  0  0  0  0999 V2000
    3.3138    0.1175    1.1192 C   0  0  0  0  0  0  0  0  0  0  0  0
    2.1347   -0.0385    0.2452 C   0  0  0  0  0  0  0  0  0  0  0  0
    1.1620   -0.1466   -0.4698 C   0  0  0  0  0  0  0  0  0  0  0  0
   -0.0039   -0.2729   -1.3491 C   0  0  0  0  0  0  0  0  0  0  0  0
   -0.0852    0.8137   -2.2253 O   0  0  0  0  0  0  0  0  0  0  0  0
   -1.2255   -0.2897   -0.4685 C   0  0  0  0  0  0  0  0  0  0  0  0
   -1.3100    0.8828    0.2680 O   0  0  0  0  0  0  0  0  0  0  0  0
   -2.4719    0.7775    1.0543 C   0  0  0  0  0  0  0  0  0  0  0  0
    3.1537    1.0610    1.6835 H   0  0  0  0  0  0  0  0  0  0  0  0
    4.2263    0.1985    0.4652 H   0  0  0  0  0  0  0  0  0  0  0  0
    3.4180   -0.7441    1.8146 H   0  0  0  0  0  0  0  0  0  0  0  0
    0.0296   -1.1981   -1.9566 H   0  0  0  0  0  0  0  0  0  0  0  0
   -0.7205    0.6321   -2.9420 H   0  0  0  0  0  0  0  0  0  0  0  0
   -1.2011   -1.1992    0.1400 H   0  0  0  0  0  0  0  0  0  0  0  0
   -2.1167   -0.2865   -1.1616 H   0  0  0  0  0  0  0  0  0  0  0  0
   -2.5237    1.7262    1.6378 H   0  0  0  0  0  0  0  0  0  0  0  0
   -3.3737    0.6209    0.4188 H   0  0  0  0  0  0  0  0  0  0  0  0
   -2.4059   -0.1071    1.7263 H   0  0  0  0  0  0  0  0  0  0  0  0
  1  2  1  0
  2  3  3  0
  3  4  1  0
  4  5  1  0
  4  6  1  0
  6  7  1  0
  7  8  1  0
  1  9  1  0
  1 10  1  0
  1 11  1  0
  4 12  1  0
  5 13  1  0
  6 14  1  0
  6 15  1  0
  8 16  1  0
  8 17  1  0
  8 18  1  0
M  END
