
     RDKit          3D

 23 22  0  0  0  0  0  0  0  0999 V2000
    3.5125    3.4356    0.7276 C   0  0  0  0  0  0  0  0  0  0  0  0
    2.8465    2.1127    0.1780 C   0  0  0  0  0  0  0  0  0  0  0  0
    2.2616    0.9082   -0.3159 C   0  0  0  0  0  0  0  0  0  0  0  0
    1.6856   -0.2417   -0.8097 C   0  0  0  0  0  0  0  0  0  0  0  0
    0.2473   -0.4031   -0.7351 C   0  0  0  0  0  0  0  0  0  0  0  0
   -0.5436   -0.1806    0.4935 C   0  0  0  0  0  0  0  0  0  0  0  0
   -1.7787   -0.6027    0.3300 O   0  0  0  0  0  0  0  0  0  0  0  0
   -2.3115   -1.7474   -0.0125 C   0  0  0  0  0  0  0  0  0  0  0  0
   -3.8756   -1.6322    0.0992 C   0  0  0  0  0  0  0  0  0  0  0  0
    3.3088    4.1571   -0.0368 H   0  0  0  0  0  0  0  0  0  0  0  0
    4.6685    3.0654    0.4798 H   0  0  0  0  0  0  0  0  0  0  0  0
    3.4500    3.4382    1.7537 H   0  0  0  0  0  0  0  0  0  0  0  0
    2.1903   -1.1047   -0.1903 H   0  0  0  0  0  0  0  0  0  0  0  0
    2.0026   -0.2876   -1.9229 H   0  0  0  0  0  0  0  0  0  0  0  0
    0.1916   -1.6443   -0.8496 H   0  0  0  0  0  0  0  0  0  0  0  0
   -0.3111   -0.0947   -1.6659 H   0  0  0  0  0  0  0  0  0  0  0  0
    0.0285   -0.4009    1.3940 H   0  0  0  0  0  0  0  0  0  0  0  0
   -0.7014    1.0260    0.5264 H   0  0  0  0  0  0  0  0  0  0  0  0
   -2.0711   -2.6630    0.6167 H   0  0  0  0  0  0  0  0  0  0  0  0
   -2.2138   -2.0517   -1.1305 H   0  0  0  0  0  0  0  0  0  0  0  0
   -4.3005   -1.3524   -0.8650 H   0  0  0  0  0  0  0  0  0  0  0  0
   -4.1977   -2.7136    0.2803 H   0  0  0  0  0  0  0  0  0  0  0  0
   -4.0889   -1.0228    0.9863 H   0  0  0  0  0  0  0  0  0  0  0  0
  1  2  1  0
  2  3  3  0
  3  4  1  0
  4  5  1  0
  5  6  1  0
  6  7  1  0
  7  8  1  0
  8  9  1  0
  1 10  1  0
  1 11  1  0
  1 12  1  0
  4 13  1  0
  4 14  1  0
  5 15  1  0
  5 16  1  0
  6 17  1  0
  6 18  1  0
  8 19  1  0
  8 20  1  0
  9 21  1  0
  9 22  1  0
  9 23  1  0
M  END
