
     RDKit          3D

 19 20  0  0  0  0  0  0  0  0999 V2000
   -3.1934   -1.7562    0.1542 C   0  0  0  0  0  0  0  0  0  0  0  0
   -1.9673   -0.9134    0.0749 C   0  0  0  0  0  0  0  0  0  0  0  0
   -0.9941   -0.2315   -0.0062 C   0  0  0  0  0  0  0  0  0  0  0  0
    0.0972    0.5608   -0.0912 C   0  0  0  0  0  0  0  0  0  0  0  0
    0.1695    1.9992    0.2453 C   0  0  0  0  0  0  0  0  0  0  0  0
    1.5040    1.5779   -0.2900 C   0  0  0  0  0  0  0  0  0  0  0  0
    0.7952    0.8502   -1.2469 O   0  0  0  0  0  0  0  0  0  0  0  0
    1.3894    0.3591    0.5794 C   0  0  0  0  0  0  0  0  0  0  0  0
    2.1455   -0.8534    0.0654 C   0  0  0  0  0  0  0  0  0  0  0  0
   -4.0253   -1.2168   -0.3540 H   0  0  0  0  0  0  0  0  0  0  0  0
   -2.9530   -2.6969   -0.3442 H   0  0  0  0  0  0  0  0  0  0  0  0
   -3.4351   -1.9834    1.2086 H   0  0  0  0  0  0  0  0  0  0  0  0
   -0.4428    2.6464   -0.4256 H   0  0  0  0  0  0  0  0  0  0  0  0
    0.1954    2.2983    1.2997 H   0  0  0  0  0  0  0  0  0  0  0  0
    2.3167    2.1480   -0.4472 H   0  0  0  0  0  0  0  0  0  0  0  0
    1.4813    0.5637    1.6455 H   0  0  0  0  0  0  0  0  0  0  0  0
    1.5720   -1.7607    0.3288 H   0  0  0  0  0  0  0  0  0  0  0  0
    3.1095   -0.8716    0.5847 H   0  0  0  0  0  0  0  0  0  0  0  0
    2.2352   -0.7196   -1.0364 H   0  0  0  0  0  0  0  0  0  0  0  0
  1  2  1  0
  2  3  3  0
  3  4  1  0
  4  5  1  0
  5  6  1  0
  6  7  1  0
  6  8  1  0
  8  9  1  0
  7  4  1  0
  8  4  1  0
  1 10  1  0
  1 11  1  0
  1 12  1  0
  5 13  1  0
  5 14  1  0
  6 15  1  0
  8 16  1  0
  9 17  1  0
  9 18  1  0
  9 19  1  0
M  END
