
     RDKit          3D

 19 18  0  0  0  0  0  0  0  0999 V2000
    3.4477   -1.1815   -0.4720 C   0  0  0  0  0  0  0  0  0  0  0  0
    2.0563   -0.7707   -0.2764 C   0  0  0  0  0  0  0  0  0  0  0  0
    0.8909   -0.4432   -0.0988 C   0  0  0  0  0  0  0  0  0  0  0  0
   -0.5112   -0.0633    0.0924 C   0  0  0  0  0  0  0  0  0  0  0  0
   -0.6518    1.4584    0.1449 C   0  0  0  0  0  0  0  0  0  0  0  0
    0.0713    2.0052    1.1746 O   0  0  0  0  0  0  0  0  0  0  0  0
   -1.3333   -0.6037   -1.0110 C   0  0  0  0  0  0  0  0  0  0  0  0
   -2.7937   -0.3343   -1.0131 C   0  0  0  0  0  0  0  0  0  0  0  0
   -0.8909   -1.2655   -1.9345 O   0  0  0  0  0  0  0  0  0  0  0  0
    3.9312   -0.5867   -1.2988 H   0  0  0  0  0  0  0  0  0  0  0  0
    3.5076   -2.2429   -0.8084 H   0  0  0  0  0  0  0  0  0  0  0  0
    4.0030   -0.9664    0.4380 H   0  0  0  0  0  0  0  0  0  0  0  0
   -0.8811   -0.5299    1.0438 H   0  0  0  0  0  0  0  0  0  0  0  0
   -1.7065    1.7556    0.1021 H   0  0  0  0  0  0  0  0  0  0  0  0
   -0.1939    1.8188   -0.8187 H   0  0  0  0  0  0  0  0  0  0  0  0
    0.6335    2.7589    0.8647 H   0  0  0  0  0  0  0  0  0  0  0  0
   -3.1107    0.2981   -0.1620 H   0  0  0  0  0  0  0  0  0  0  0  0
   -3.3476   -1.3060   -0.9880 H   0  0  0  0  0  0  0  0  0  0  0  0
   -3.1206    0.1988   -1.9319 H   0  0  0  0  0  0  0  0  0  0  0  0
  1  2  1  0
  2  3  3  0
  3  4  1  0
  4  5  1  0
  5  6  1  0
  4  7  1  0
  7  8  1  0
  7  9  2  0
  1 10  1  0
  1 11  1  0
  1 12  1  0
  4 13  1  0
  5 14  1  0
  5 15  1  0
  6 16  1  0
  8 17  1  0
  8 18  1  0
  8 19  1  0
M  END
