
     RDKit          3D

 20 19  0  0  0  0  0  0  0  0999 V2000
   -2.6391   -1.8215    1.0259 C   0  0  0  0  0  0  0  0  0  0  0  0
   -1.6624   -0.8963    0.4459 C   0  0  0  0  0  0  0  0  0  0  0  0
   -0.8625   -0.1133   -0.0480 C   0  0  0  0  0  0  0  0  0  0  0  0
    0.0786    0.8429   -0.6361 C   0  0  0  0  0  0  0  0  0  0  0  0
   -0.5672    1.5582   -1.8111 C   0  0  0  0  0  0  0  0  0  0  0  0
    1.2281    0.0344   -1.1985 C   0  0  0  0  0  0  0  0  0  0  0  0
    1.8878   -0.7138   -0.2581 O   0  0  0  0  0  0  0  0  0  0  0  0
    2.4522   -0.0037    0.7630 C   0  0  0  0  0  0  0  0  0  0  0  0
   -3.4967   -1.2395    1.4495 H   0  0  0  0  0  0  0  0  0  0  0  0
   -2.9398   -2.5117    0.2246 H   0  0  0  0  0  0  0  0  0  0  0  0
   -2.1905   -2.4216    1.8531 H   0  0  0  0  0  0  0  0  0  0  0  0
    0.4286    1.5864    0.1178 H   0  0  0  0  0  0  0  0  0  0  0  0
   -1.5166    1.0341   -2.0464 H   0  0  0  0  0  0  0  0  0  0  0  0
   -0.8183    2.6170   -1.5638 H   0  0  0  0  0  0  0  0  0  0  0  0
    0.0526    1.4893   -2.7337 H   0  0  0  0  0  0  0  0  0  0  0  0
    1.8923    0.7091   -1.7841 H   0  0  0  0  0  0  0  0  0  0  0  0
    0.7651   -0.6870   -1.9252 H   0  0  0  0  0  0  0  0  0  0  0  0
    1.7065    0.5892    1.3554 H   0  0  0  0  0  0  0  0  0  0  0  0
    3.2813    0.6771    0.4409 H   0  0  0  0  0  0  0  0  0  0  0  0
    2.9199   -0.7292    1.4663 H   0  0  0  0  0  0  0  0  0  0  0  0
  1  2  1  0
  2  3  3  0
  3  4  1  0
  4  5  1  0
  4  6  1  0
  6  7  1  0
  7  8  1  0
  1  9  1  0
  1 10  1  0
  1 11  1  0
  4 12  1  0
  5 13  1  0
  5 14  1  0
  5 15  1  0
  6 16  1  0
  6 17  1  0
  8 18  1  0
  8 19  1  0
  8 20  1  0
M  END
