
     RDKit          3D

 18 18  0  0  0  0  0  0  0  0999 V2000
    3.3577   -0.8084   -0.5070 C   0  0  0  0  0  0  0  0  0  0  0  0
    1.8381   -0.2390    0.4155 C   0  0  0  0  0  0  0  0  0  0  0  0
    0.6252    0.2101    1.1633 C   0  0  0  0  0  0  0  0  0  0  0  0
   -0.3798    0.5710    1.7930 C   0  0  0  0  0  0  0  0  0  0  0  0
   -1.1149    1.7310    1.1716 O   0  0  0  0  0  0  0  0  0  0  0  0
   -1.6961    0.3341    1.2869 C   0  0  0  0  0  0  0  0  0  0  0  0
   -1.6945   -0.4054   -0.0666 C   0  0  0  0  0  0  0  0  0  0  0  0
   -0.9689    0.3226   -1.0980 C   0  0  0  0  0  0  0  0  0  0  0  0
    3.5103    0.2706   -0.7002 H   0  0  0  0  0  0  0  0  0  0  0  0
    2.4380   -0.9089   -1.4270 H   0  0  0  0  0  0  0  0  0  0  0  0
    3.3483   -1.6127    0.0269 H   0  0  0  0  0  0  0  0  0  0  0  0
   -0.1722    0.7643    2.9380 H   0  0  0  0  0  0  0  0  0  0  0  0
   -2.5103    0.2539    1.9283 H   0  0  0  0  0  0  0  0  0  0  0  0
   -2.7284   -0.5048   -0.3674 H   0  0  0  0  0  0  0  0  0  0  0  0
   -1.2258   -1.4919    0.0248 H   0  0  0  0  0  0  0  0  0  0  0  0
   -1.5614    1.3127   -1.2357 H   0  0  0  0  0  0  0  0  0  0  0  0
   -1.1270   -0.3077   -2.0606 H   0  0  0  0  0  0  0  0  0  0  0  0
    0.0617    0.5086   -0.9784 H   0  0  0  0  0  0  0  0  0  0  0  0
  1  2  1  0
  2  3  3  0
  3  4  1  0
  4  5  1  0
  5  6  1  0
  6  7  1  0
  7  8  1  0
  6  4  1  0
  1  9  1  0
  1 10  1  0
  1 11  1  0
  4 12  1  0
  6 13  1  0
  7 14  1  0
  7 15  1  0
  8 16  1  0
  8 17  1  0
  8 18  1  0
M  END
