
     RDKit          3D

 19 19  0  0  0  0  0  0  0  0999 V2000
    3.2188    0.9612   -0.3991 C   0  0  0  0  0  0  0  0  0  0  0  0
    1.8370    0.4989   -0.1801 C   0  0  0  0  0  0  0  0  0  0  0  0
    0.7002    0.1367    0.0110 C   0  0  0  0  0  0  0  0  0  0  0  0
   -0.6715   -0.3051    0.2660 C   0  0  0  0  0  0  0  0  0  0  0  0
   -1.4173    0.4651    1.3167 C   0  0  0  0  0  0  0  0  0  0  0  0
   -1.5539    1.7999    1.0357 O   0  0  0  0  0  0  0  0  0  0  0  0
   -0.8387   -1.8070    0.3683 C   0  0  0  0  0  0  0  0  0  0  0  0
   -0.9085   -1.8425   -1.0188 O   0  0  0  0  0  0  0  0  0  0  0  0
   -1.3919   -0.5337   -1.0280 C   0  0  0  0  0  0  0  0  0  0  0  0
    3.5134    0.7258   -1.4421 H   0  0  0  0  0  0  0  0  0  0  0  0
    3.3151    2.0472   -0.1714 H   0  0  0  0  0  0  0  0  0  0  0  0
    3.9391    0.4152    0.2617 H   0  0  0  0  0  0  0  0  0  0  0  0
   -0.8080    0.3863    2.2622 H   0  0  0  0  0  0  0  0  0  0  0  0
   -2.3687   -0.0392    1.5082 H   0  0  0  0  0  0  0  0  0  0  0  0
   -1.3803    1.9585    0.0821 H   0  0  0  0  0  0  0  0  0  0  0  0
    0.1096   -2.2409    0.7905 H   0  0  0  0  0  0  0  0  0  0  0  0
   -1.7388   -2.1141    0.9134 H   0  0  0  0  0  0  0  0  0  0  0  0
   -1.0467    0.0657   -1.8923 H   0  0  0  0  0  0  0  0  0  0  0  0
   -2.5090   -0.5780   -0.9493 H   0  0  0  0  0  0  0  0  0  0  0  0
  1  2  1  0
  2  3  3  0
  3  4  1  0
  4  5  1  0
  5  6  1  0
  4  7  1  0
  7  8  1  0
  8  9  1  0
  9  4  1  0
  1 10  1  0
  1 11  1  0
  1 12  1  0
  5 13  1  0
  5 14  1  0
  6 15  1  0
  7 16  1  0
  7 17  1  0
  9 18  1  0
  9 19  1  0
M  END
