
     RDKit          3D

 18 18  0  0  0  0  0  0  0  0999 V2000
    2.7613    0.5971    1.7215 C   0  0  0  0  0  0  0  0  0  0  0  0
    1.6147    0.1797    0.8842 C   0  0  0  0  0  0  0  0  0  0  0  0
    0.6747   -0.1775    0.2131 C   0  0  0  0  0  0  0  0  0  0  0  0
   -0.4594   -0.6303   -0.6071 C   0  0  0  0  0  0  0  0  0  0  0  0
   -0.8823   -1.9962   -0.1109 C   0  0  0  0  0  0  0  0  0  0  0  0
   -1.6082    0.3429   -0.4533 C   0  0  0  0  0  0  0  0  0  0  0  0
   -1.3925    1.7782   -0.8512 C   0  0  0  0  0  0  0  0  0  0  0  0
   -2.0744    0.8721   -1.6841 O   0  0  0  0  0  0  0  0  0  0  0  0
    3.5298    1.1076    1.1064 H   0  0  0  0  0  0  0  0  0  0  0  0
    3.1962   -0.2959    2.2536 H   0  0  0  0  0  0  0  0  0  0  0  0
    2.3369    1.2669    2.5012 H   0  0  0  0  0  0  0  0  0  0  0  0
   -0.1128   -0.6831   -1.6352 H   0  0  0  0  0  0  0  0  0  0  0  0
   -1.6663   -2.4077   -0.7973 H   0  0  0  0  0  0  0  0  0  0  0  0
    0.0094   -2.6667   -0.2715 H   0  0  0  0  0  0  0  0  0  0  0  0
   -1.2142   -1.9979    0.9227 H   0  0  0  0  0  0  0  0  0  0  0  0
   -2.3414    0.1324    0.3266 H   0  0  0  0  0  0  0  0  0  0  0  0
   -2.0195    2.5473   -0.3767 H   0  0  0  0  0  0  0  0  0  0  0  0
   -0.3520    2.0310   -1.1466 H   0  0  0  0  0  0  0  0  0  0  0  0
  1  2  1  0
  2  3  3  0
  3  4  1  0
  4  5  1  0
  4  6  1  0
  6  7  1  0
  7  8  1  0
  8  6  1  0
  1  9  1  0
  1 10  1  0
  1 11  1  0
  4 12  1  0
  5 13  1  0
  5 14  1  0
  5 15  1  0
  6 16  1  0
  7 17  1  0
  7 18  1  0
M  END
