
     RDKit          3D

 16 16  0  0  0  0  0  0  0  0999 V2000
    2.7744    0.3763    1.7410 C   0  0  0  0  0  0  0  0  0  0  0  0
    1.7107    0.3025    0.7086 C   0  0  0  0  0  0  0  0  0  0  0  0
    0.8315    0.2431   -0.1154 C   0  0  0  0  0  0  0  0  0  0  0  0
   -0.2471    0.1549   -1.1030 C   0  0  0  0  0  0  0  0  0  0  0  0
    0.1723   -0.4380   -2.2697 O   0  0  0  0  0  0  0  0  0  0  0  0
   -1.3936   -0.5692   -0.4337 C   0  0  0  0  0  0  0  0  0  0  0  0
   -2.6425    0.1081   -0.1640 C   0  0  0  0  0  0  0  0  0  0  0  0
   -2.5462   -0.5974   -1.3714 O   0  0  0  0  0  0  0  0  0  0  0  0
    3.5732   -0.3795    1.5410 H   0  0  0  0  0  0  0  0  0  0  0  0
    3.2355    1.3877    1.6283 H   0  0  0  0  0  0  0  0  0  0  0  0
    2.3631    0.2722    2.7594 H   0  0  0  0  0  0  0  0  0  0  0  0
   -0.5967    1.1917   -1.3811 H   0  0  0  0  0  0  0  0  0  0  0  0
   -0.0406   -1.3785   -2.3654 H   0  0  0  0  0  0  0  0  0  0  0  0
   -1.2085   -1.6205   -0.1372 H   0  0  0  0  0  0  0  0  0  0  0  0
   -2.6656    1.2147   -0.2613 H   0  0  0  0  0  0  0  0  0  0  0  0
   -3.3198   -0.2682    0.6287 H   0  0  0  0  0  0  0  0  0  0  0  0
  1  2  1  0
  2  3  3  0
  3  4  1  0
  4  5  1  0
  4  6  1  0
  6  7  1  0
  7  8  1  0
  8  6  1  0
  1  9  1  0
  1 10  1  0
  1 11  1  0
  4 12  1  0
  5 13  1  0
  6 14  1  0
  7 15  1  0
  7 16  1  0
M  END
