
     RDKit          3D

 17 16  0  0  0  0  0  0  0  0999 V2000
   -3.6395   -0.7439   -0.3521 C   0  0  0  0  0  0  0  0  0  0  0  0
   -2.4423   -0.0062    0.0382 C   0  0  0  0  0  0  0  0  0  0  0  0
   -1.4509    0.5939    0.3764 C   0  0  0  0  0  0  0  0  0  0  0  0
   -0.2439    1.3327    0.8151 C   0  0  0  0  0  0  0  0  0  0  0  0
   -0.0887    2.5057    0.0761 O   0  0  0  0  0  0  0  0  0  0  0  0
    0.8912    0.4373    0.4915 C   0  0  0  0  0  0  0  0  0  0  0  0
    1.8286   -0.2781    0.2352 C   0  0  0  0  0  0  0  0  0  0  0  0
    2.9592   -1.1529   -0.0797 C   0  0  0  0  0  0  0  0  0  0  0  0
    4.1847   -0.5151    0.0877 O   0  0  0  0  0  0  0  0  0  0  0  0
   -3.3189   -1.5995   -0.9656 H   0  0  0  0  0  0  0  0  0  0  0  0
   -4.2116   -1.1194    0.5322 H   0  0  0  0  0  0  0  0  0  0  0  0
   -4.3660   -0.0841   -0.9027 H   0  0  0  0  0  0  0  0  0  0  0  0
   -0.2782    1.5306    1.9080 H   0  0  0  0  0  0  0  0  0  0  0  0
    0.3303    2.2495   -0.7998 H   0  0  0  0  0  0  0  0  0  0  0  0
    2.8175   -1.5129   -1.1270 H   0  0  0  0  0  0  0  0  0  0  0  0
    2.9630   -2.0635    0.5622 H   0  0  0  0  0  0  0  0  0  0  0  0
    4.0655    0.4258    0.4226 H   0  0  0  0  0  0  0  0  0  0  0  0
  1  2  1  0
  2  3  3  0
  3  4  1  0
  4  5  1  0
  4  6  1  0
  6  7  3  0
  7  8  1  0
  8  9  1  0
  1 10  1  0
  1 11  1  0
  1 12  1  0
  4 13  1  0
  5 14  1  0
  8 15  1  0
  8 16  1  0
  9 17  1  0
M  END
