
     RDKit          3D

 19 20  0  0  0  0  0  0  0  0999 V2000
    3.5826   -0.7605   -0.5769 C   0  0  0  0  0  0  0  0  0  0  0  0
    2.1581   -0.3817   -0.5975 C   0  0  0  0  0  0  0  0  0  0  0  0
    0.6954   -0.0056   -0.6038 C   0  0  0  0  0  0  0  0  0  0  0  0
   -0.5151    0.3263   -0.5998 C   0  0  0  0  0  0  0  0  0  0  0  0
   -0.9273    1.4133    0.3246 C   0  0  0  0  0  0  0  0  0  0  0  0
   -1.6053    0.6026    1.4754 C   0  0  0  0  0  0  0  0  0  0  0  0
   -0.9215   -0.6224    1.2429 O   0  0  0  0  0  0  0  0  0  0  0  0
   -1.5496   -0.7538   -0.0067 C   0  0  0  0  0  0  0  0  0  0  0  0
   -1.3286   -0.6215   -1.3797 C   0  0  0  0  0  0  0  0  0  0  0  0
    4.1268    0.2496   -0.5904 H   0  0  0  0  0  0  0  0  0  0  0  0
    3.8260   -1.3786   -1.3722 H   0  0  0  0  0  0  0  0  0  0  0  0
    3.7747   -1.2229    0.4494 H   0  0  0  0  0  0  0  0  0  0  0  0
   -0.0525    1.9015    0.8152 H   0  0  0  0  0  0  0  0  0  0  0  0
   -1.7615    2.0817   -0.0433 H   0  0  0  0  0  0  0  0  0  0  0  0
   -1.4551    0.9710    2.4448 H   0  0  0  0  0  0  0  0  0  0  0  0
   -2.6661    0.4835    1.1823 H   0  0  0  0  0  0  0  0  0  0  0  0
   -2.5867   -0.6115    0.2058 H   0  0  0  0  0  0  0  0  0  0  0  0
   -0.8334   -1.5519   -1.8016 H   0  0  0  0  0  0  0  0  0  0  0  0
   -1.9610   -0.1191   -2.1086 H   0  0  0  0  0  0  0  0  0  0  0  0
  1  2  1  0
  2  3  3  0
  3  4  1  0
  4  5  1  0
  5  6  1  0
  6  7  1  0
  7  8  1  0
  8  9  1  0
  8  4  1  0
  9  4  1  0
  1 10  1  0
  1 11  1  0
  1 12  1  0
  5 13  1  0
  5 14  1  0
  6 15  1  0
  6 16  1  0
  8 17  1  0
  9 18  1  0
  9 19  1  0
M  END
