
     RDKit          3D

 21 20  0  0  0  0  0  0  0  0999 V2000
    5.1936   -1.0563    0.5796 C   0  0  0  0  0  0  0  0  0  0  0  0
    3.9539   -0.6321    0.5137 C   0  0  0  0  0  0  0  0  0  0  0  0
    2.7962   -0.2228    0.4695 C   0  0  0  0  0  0  0  0  0  0  0  0
    1.3378    0.3001    0.4354 C   0  0  0  0  0  0  0  0  0  0  0  0
    0.3049    0.6569    0.4260 C   0  0  0  0  0  0  0  0  0  0  0  0
   -1.2007    1.1629    0.4370 C   0  0  0  0  0  0  0  0  0  0  0  0
   -2.0232   -0.0712    0.0418 C   0  0  0  0  0  0  0  0  0  0  0  0
   -3.4946    0.1727    0.2245 C   0  0  0  0  0  0  0  0  0  0  0  0
   -1.9817    0.0154   -1.5996 C   0  0  0  0  0  0  0  0  0  0  0  0
    5.8581   -0.7185    1.4068 H   0  0  0  0  0  0  0  0  0  0  0  0
    5.8063   -0.9546   -0.4198 H   0  0  0  0  0  0  0  0  0  0  0  0
    5.2868   -2.2585    0.6484 H   0  0  0  0  0  0  0  0  0  0  0  0
   -1.1809    1.7367   -0.6132 H   0  0  0  0  0  0  0  0  0  0  0  0
   -1.3883    1.7489    1.1940 H   0  0  0  0  0  0  0  0  0  0  0  0
   -1.5572   -0.9989    0.1625 H   0  0  0  0  0  0  0  0  0  0  0  0
   -3.7437    0.7052    1.1604 H   0  0  0  0  0  0  0  0  0  0  0  0
   -3.8530    0.8296   -0.6468 H   0  0  0  0  0  0  0  0  0  0  0  0
   -4.0163   -0.7944    0.0967 H   0  0  0  0  0  0  0  0  0  0  0  0
   -0.9858   -0.1337   -1.9197 H   0  0  0  0  0  0  0  0  0  0  0  0
   -2.8059   -0.6066   -1.8762 H   0  0  0  0  0  0  0  0  0  0  0  0
   -2.3064    1.1190   -1.6833 H   0  0  0  0  0  0  0  0  0  0  0  0
  1  2  1  0
  2  3  3  0
  3  4  1  0
  4  5  3  0
  5  6  1  0
  6  7  1  0
  7  8  1  0
  7  9  1  0
  1 10  1  0
  1 11  1  0
  1 12  1  0
  6 13  1  0
  6 14  1  0
  7 15  1  0
  8 16  1  0
  8 17  1  0
  8 18  1  0
  9 19  1  0
  9 20  1  0
  9 21  1  0
M  END
