
     RDKit          3D

 21 20  0  0  0  0  0  0  0  0999 V2000
    4.2010   -0.1222   -0.3047 C   0  0  0  0  0  0  0  0  0  0  0  0
    2.7669    0.1182   -0.4771 C   0  0  0  0  0  0  0  0  0  0  0  0
    1.5825    0.3083   -0.6000 C   0  0  0  0  0  0  0  0  0  0  0  0
    0.1213    0.5253   -0.7357 C   0  0  0  0  0  0  0  0  0  0  0  0
   -0.2771    1.6309    0.0116 O   0  0  0  0  0  0  0  0  0  0  0  0
   -0.5778   -0.7137   -0.1628 C   0  0  0  0  0  0  0  0  0  0  0  0
   -2.0580   -0.5360   -0.2821 C   0  0  0  0  0  0  0  0  0  0  0  0
   -2.6019    0.6598    0.4505 C   0  0  0  0  0  0  0  0  0  0  0  0
   -2.6779   -1.6739    0.2558 O   0  0  0  0  0  0  0  0  0  0  0  0
    4.8183    0.5868   -0.9214 H   0  0  0  0  0  0  0  0  0  0  0  0
    4.3827   -1.1750   -0.6171 H   0  0  0  0  0  0  0  0  0  0  0  0
    4.5262   -0.0199    0.7516 H   0  0  0  0  0  0  0  0  0  0  0  0
   -0.1748    0.6971   -1.7789 H   0  0  0  0  0  0  0  0  0  0  0  0
    0.5122    1.9553    0.5124 H   0  0  0  0  0  0  0  0  0  0  0  0
   -0.3387   -0.8047    0.9163 H   0  0  0  0  0  0  0  0  0  0  0  0
   -0.3061   -1.6178   -0.7385 H   0  0  0  0  0  0  0  0  0  0  0  0
   -2.3279   -0.4999   -1.3730 H   0  0  0  0  0  0  0  0  0  0  0  0
   -3.6492    0.4115    0.7584 H   0  0  0  0  0  0  0  0  0  0  0  0
   -2.5902    1.5182   -0.2634 H   0  0  0  0  0  0  0  0  0  0  0  0
   -2.0093    0.8304    1.3573 H   0  0  0  0  0  0  0  0  0  0  0  0
   -3.3223   -2.0787   -0.4065 H   0  0  0  0  0  0  0  0  0  0  0  0
  1  2  1  0
  2  3  3  0
  3  4  1  0
  4  5  1  0
  4  6  1  0
  6  7  1  0
  7  8  1  0
  7  9  1  0
  1 10  1  0
  1 11  1  0
  1 12  1  0
  4 13  1  0
  5 14  1  0
  6 15  1  0
  6 16  1  0
  7 17  1  0
  8 18  1  0
  8 19  1  0
  8 20  1  0
  9 21  1  0
M  END
