
     RDKit          3D

 19 19  0  0  0  0  0  0  0  0999 V2000
    3.1316    0.8979    1.4014 C   0  0  0  0  0  0  0  0  0  0  0  0
    1.7211    0.5753    1.1455 C   0  0  0  0  0  0  0  0  0  0  0  0
    0.5626    0.3262    0.9275 C   0  0  0  0  0  0  0  0  0  0  0  0
   -0.8698    0.0319    0.6806 C   0  0  0  0  0  0  0  0  0  0  0  0
   -1.4655   -0.4315    1.8422 O   0  0  0  0  0  0  0  0  0  0  0  0
   -0.9192   -0.9664   -0.4244 C   0  0  0  0  0  0  0  0  0  0  0  0
   -0.3391   -0.6240   -1.7539 C   0  0  0  0  0  0  0  0  0  0  0  0
   -1.8537   -0.6080   -1.5734 C   0  0  0  0  0  0  0  0  0  0  0  0
   -2.4469    0.6529   -1.5614 O   0  0  0  0  0  0  0  0  0  0  0  0
    3.3179    1.9820    1.3955 H   0  0  0  0  0  0  0  0  0  0  0  0
    3.7110    0.4195    0.5835 H   0  0  0  0  0  0  0  0  0  0  0  0
    3.4512    0.5124    2.4002 H   0  0  0  0  0  0  0  0  0  0  0  0
   -1.4108    0.9425    0.3715 H   0  0  0  0  0  0  0  0  0  0  0  0
   -0.9401   -0.1847    2.6619 H   0  0  0  0  0  0  0  0  0  0  0  0
   -0.9171   -2.0403   -0.1254 H   0  0  0  0  0  0  0  0  0  0  0  0
    0.0213   -1.4578   -2.3976 H   0  0  0  0  0  0  0  0  0  0  0  0
    0.1448    0.3592   -1.9162 H   0  0  0  0  0  0  0  0  0  0  0  0
   -2.4473   -1.4050   -2.0523 H   0  0  0  0  0  0  0  0  0  0  0  0
   -2.4517    1.0182   -2.4650 H   0  0  0  0  0  0  0  0  0  0  0  0
  1  2  1  0
  2  3  3  0
  3  4  1  0
  4  5  1  0
  4  6  1  0
  6  7  1  0
  7  8  1  0
  8  9  1  0
  8  6  1  0
  1 10  1  0
  1 11  1  0
  1 12  1  0
  4 13  1  0
  5 14  1  0
  6 15  1  0
  7 16  1  0
  7 17  1  0
  8 18  1  0
  9 19  1  0
M  END
