
     RDKit          3D

 21 21  0  0  0  0  0  0  0  0999 V2000
    4.3901   -0.1464   -0.0057 C   0  0  0  0  0  0  0  0  0  0  0  0
    2.9446   -0.3264    0.1715 C   0  0  0  0  0  0  0  0  0  0  0  0
    1.7547   -0.4544    0.3225 C   0  0  0  0  0  0  0  0  0  0  0  0
    0.2862   -0.6032    0.4842 C   0  0  0  0  0  0  0  0  0  0  0  0
   -0.3407    0.4793   -0.3295 C   0  0  0  0  0  0  0  0  0  0  0  0
   -1.8346    0.5057   -0.2993 C   0  0  0  0  0  0  0  0  0  0  0  0
   -2.3951    1.5357   -1.0733 O   0  0  0  0  0  0  0  0  0  0  0  0
   -2.5441   -0.8462   -0.5101 C   0  0  0  0  0  0  0  0  0  0  0  0
   -2.6432   -0.0480    0.7776 C   0  0  0  0  0  0  0  0  0  0  0  0
    4.9655   -1.0330    0.3675 H   0  0  0  0  0  0  0  0  0  0  0  0
    4.7750    0.7296    0.5528 H   0  0  0  0  0  0  0  0  0  0  0  0
    4.5739   -0.0827   -1.0935 H   0  0  0  0  0  0  0  0  0  0  0  0
   -0.0053   -1.6062    0.1114 H   0  0  0  0  0  0  0  0  0  0  0  0
    0.0575   -0.5559    1.5479 H   0  0  0  0  0  0  0  0  0  0  0  0
    0.0776    1.4793   -0.0985 H   0  0  0  0  0  0  0  0  0  0  0  0
   -0.0463    0.2926   -1.4054 H   0  0  0  0  0  0  0  0  0  0  0  0
   -2.7293    2.2824   -0.5029 H   0  0  0  0  0  0  0  0  0  0  0  0
   -1.9249   -1.7615   -0.5373 H   0  0  0  0  0  0  0  0  0  0  0  0
   -3.4696   -0.8542   -1.1170 H   0  0  0  0  0  0  0  0  0  0  0  0
   -3.6307    0.4579    0.9886 H   0  0  0  0  0  0  0  0  0  0  0  0
   -2.2612   -0.5801    1.6486 H   0  0  0  0  0  0  0  0  0  0  0  0
  1  2  1  0
  2  3  3  0
  3  4  1  0
  4  5  1  0
  5  6  1  0
  6  7  1  0
  6  8  1  0
  8  9  1  0
  9  6  1  0
  1 10  1  0
  1 11  1  0
  1 12  1  0
  4 13  1  0
  4 14  1  0
  5 15  1  0
  5 16  1  0
  7 17  1  0
  8 18  1  0
  8 19  1  0
  9 20  1  0
  9 21  1  0
M  END
