
     RDKit          3D

 21 20  0  0  0  0  0  0  0  0999 V2000
    3.4202   -0.2265   -0.1114 C   0  0  0  0  0  0  0  0  0  0  0  0
    1.9985    0.0284    0.1629 C   0  0  0  0  0  0  0  0  0  0  0  0
    0.8277    0.2171    0.3895 C   0  0  0  0  0  0  0  0  0  0  0  0
   -0.6138    0.4421    0.6431 C   0  0  0  0  0  0  0  0  0  0  0  0
   -1.1236    1.6474   -0.1041 C   0  0  0  0  0  0  0  0  0  0  0  0
   -0.7639    0.5704    2.0087 O   0  0  0  0  0  0  0  0  0  0  0  0
   -1.3511   -0.7579    0.0922 C   0  0  0  0  0  0  0  0  0  0  0  0
   -1.1247   -0.9366   -1.3760 C   0  0  0  0  0  0  0  0  0  0  0  0
   -0.8004   -1.8845    0.7439 O   0  0  0  0  0  0  0  0  0  0  0  0
    3.6957   -1.1237    0.4478 H   0  0  0  0  0  0  0  0  0  0  0  0
    4.0459    0.6599    0.1755 H   0  0  0  0  0  0  0  0  0  0  0  0
    3.5913   -0.3828   -1.2114 H   0  0  0  0  0  0  0  0  0  0  0  0
   -2.2408    1.5326   -0.1546 H   0  0  0  0  0  0  0  0  0  0  0  0
   -0.9479    2.5944    0.4360 H   0  0  0  0  0  0  0  0  0  0  0  0
   -0.7693    1.6620   -1.1376 H   0  0  0  0  0  0  0  0  0  0  0  0
   -0.8854    1.5043    2.3081 H   0  0  0  0  0  0  0  0  0  0  0  0
   -2.4233   -0.6956    0.3012 H   0  0  0  0  0  0  0  0  0  0  0  0
   -0.9228   -2.0141   -1.6325 H   0  0  0  0  0  0  0  0  0  0  0  0
   -0.2826   -0.2830   -1.6734 H   0  0  0  0  0  0  0  0  0  0  0  0
   -2.0099   -0.5997   -1.9132 H   0  0  0  0  0  0  0  0  0  0  0  0
   -1.3199   -1.9540    1.6054 H   0  0  0  0  0  0  0  0  0  0  0  0
  1  2  1  0
  2  3  3  0
  3  4  1  0
  4  5  1  0
  4  6  1  0
  4  7  1  0
  7  8  1  0
  7  9  1  0
  1 10  1  0
  1 11  1  0
  1 12  1  0
  5 13  1  0
  5 14  1  0
  5 15  1  0
  6 16  1  0
  7 17  1  0
  8 18  1  0
  8 19  1  0
  8 20  1  0
  9 21  1  0
M  END
