
     RDKit          3D

 21 21  0  0  0  0  0  0  0  0999 V2000
    4.4145    0.7984    1.8645 C   0  0  0  0  0  0  0  0  0  0  0  0
    3.2064    0.4458    1.0994 C   0  0  0  0  0  0  0  0  0  0  0  0
    2.2093    0.1665    0.4864 C   0  0  0  0  0  0  0  0  0  0  0  0
    0.9913   -0.1746   -0.2926 C   0  0  0  0  0  0  0  0  0  0  0  0
    0.0021   -0.4070    0.6290 O   0  0  0  0  0  0  0  0  0  0  0  0
   -1.1765   -0.7385    0.0320 C   0  0  0  0  0  0  0  0  0  0  0  0
   -1.7771    0.2655   -0.8859 C   0  0  0  0  0  0  0  0  0  0  0  0
   -3.1107   -0.1575   -1.5357 C   0  0  0  0  0  0  0  0  0  0  0  0
   -3.1552    0.8269   -0.4282 C   0  0  0  0  0  0  0  0  0  0  0  0
    4.7273    1.8464    1.6332 H   0  0  0  0  0  0  0  0  0  0  0  0
    5.2772    0.1564    1.5657 H   0  0  0  0  0  0  0  0  0  0  0  0
    4.2321    0.6507    2.9321 H   0  0  0  0  0  0  0  0  0  0  0  0
    0.7439    0.6103   -1.0072 H   0  0  0  0  0  0  0  0  0  0  0  0
    1.1630   -1.1242   -0.8723 H   0  0  0  0  0  0  0  0  0  0  0  0
   -1.0635   -1.6929   -0.5629 H   0  0  0  0  0  0  0  0  0  0  0  0
   -1.9231   -1.0253    0.8286 H   0  0  0  0  0  0  0  0  0  0  0  0
   -1.1801    0.9168   -1.5298 H   0  0  0  0  0  0  0  0  0  0  0  0
   -3.4538   -1.2009   -1.3130 H   0  0  0  0  0  0  0  0  0  0  0  0
   -3.3270    0.2026   -2.5494 H   0  0  0  0  0  0  0  0  0  0  0  0
   -3.5188    0.4917    0.5460 H   0  0  0  0  0  0  0  0  0  0  0  0
   -3.2814    1.9068   -0.6399 H   0  0  0  0  0  0  0  0  0  0  0  0
  1  2  1  0
  2  3  3  0
  3  4  1  0
  4  5  1  0
  5  6  1  0
  6  7  1  0
  7  8  1  0
  8  9  1  0
  9  7  1  0
  1 10  1  0
  1 11  1  0
  1 12  1  0
  4 13  1  0
  4 14  1  0
  6 15  1  0
  6 16  1  0
  7 17  1  0
  8 18  1  0
  8 19  1  0
  9 20  1  0
  9 21  1  0
M  END
