
     RDKit          3D

 19 19  0  0  0  0  0  0  0  0999 V2000
    2.2154   -2.9152   -1.0391 C   0  0  0  0  0  0  0  0  0  0  0  0
    1.5637   -1.6336   -0.7148 C   0  0  0  0  0  0  0  0  0  0  0  0
    1.0202   -0.5901   -0.4649 C   0  0  0  0  0  0  0  0  0  0  0  0
    0.3731    0.6870   -0.1664 C   0  0  0  0  0  0  0  0  0  0  0  0
   -0.9310    1.0144   -0.9025 C   0  0  0  0  0  0  0  0  0  0  0  0
   -1.1097    2.3686   -1.2150 O   0  0  0  0  0  0  0  0  0  0  0  0
   -0.9456    0.5795    0.5051 C   0  0  0  0  0  0  0  0  0  0  0  0
   -1.1935    1.5776    1.6221 C   0  0  0  0  0  0  0  0  0  0  0  0
   -1.4939   -0.6742    0.7655 O   0  0  0  0  0  0  0  0  0  0  0  0
    2.9033   -3.1404   -0.2217 H   0  0  0  0  0  0  0  0  0  0  0  0
    2.6797   -2.8383   -2.0337 H   0  0  0  0  0  0  0  0  0  0  0  0
    1.4422   -3.6897   -1.0831 H   0  0  0  0  0  0  0  0  0  0  0  0
    1.0247    1.5666    0.1004 H   0  0  0  0  0  0  0  0  0  0  0  0
   -1.2623    0.3127   -1.6747 H   0  0  0  0  0  0  0  0  0  0  0  0
   -0.4661    2.6157   -1.9264 H   0  0  0  0  0  0  0  0  0  0  0  0
   -2.2912    1.5702    1.8044 H   0  0  0  0  0  0  0  0  0  0  0  0
   -0.8768    2.5804    1.2573 H   0  0  0  0  0  0  0  0  0  0  0  0
   -0.6381    1.3170    2.5475 H   0  0  0  0  0  0  0  0  0  0  0  0
   -2.0141   -0.7082    1.5861 H   0  0  0  0  0  0  0  0  0  0  0  0
  1  2  1  0
  2  3  3  0
  3  4  1  0
  4  5  1  0
  5  6  1  0
  5  7  1  0
  7  8  1  0
  7  9  1  0
  7  4  1  0
  1 10  1  0
  1 11  1  0
  1 12  1  0
  4 13  1  0
  5 14  1  0
  6 15  1  0
  8 16  1  0
  8 17  1  0
  8 18  1  0
  9 19  1  0
M  END
