
     RDKit          3D

 19 18  0  0  0  0  0  0  0  0999 V2000
   -1.1559    3.4216    0.2803 C   0  0  0  0  0  0  0  0  0  0  0  0
   -1.1091    1.9924    0.1607 C   0  0  0  0  0  0  0  0  0  0  0  0
   -1.0592    0.8007    0.0782 C   0  0  0  0  0  0  0  0  0  0  0  0
   -1.0010   -0.7870   -0.0215 C   0  0  0  0  0  0  0  0  0  0  0  0
    0.4230   -0.9887   -0.4326 C   0  0  0  0  0  0  0  0  0  0  0  0
    1.6923   -1.1593   -0.7761 C   0  0  0  0  0  0  0  0  0  0  0  0
    3.0751   -1.3672   -1.1403 C   0  0  0  0  0  0  0  0  0  0  0  0
   -1.0842   -1.1430    1.4060 C   0  0  0  0  0  0  0  0  0  0  0  0
   -1.1466   -2.4759    1.7500 O   0  0  0  0  0  0  0  0  0  0  0  0
   -1.3708    3.6217    1.3753 H   0  0  0  0  0  0  0  0  0  0  0  0
   -0.2350    3.9373   -0.0416 H   0  0  0  0  0  0  0  0  0  0  0  0
   -2.0329    3.8238   -0.3212 H   0  0  0  0  0  0  0  0  0  0  0  0
   -1.6830   -1.1141   -0.7440 H   0  0  0  0  0  0  0  0  0  0  0  0
    3.5256   -0.3479   -1.3041 H   0  0  0  0  0  0  0  0  0  0  0  0
    3.1790   -1.9212   -2.0885 H   0  0  0  0  0  0  0  0  0  0  0  0
    3.5339   -1.9348   -0.3044 H   0  0  0  0  0  0  0  0  0  0  0  0
   -1.8029   -0.5321    1.9679 H   0  0  0  0  0  0  0  0  0  0  0  0
   -0.0136   -0.8700    1.8490 H   0  0  0  0  0  0  0  0  0  0  0  0
   -1.7347   -2.9561    1.1250 H   0  0  0  0  0  0  0  0  0  0  0  0
  1  2  1  0
  2  3  3  0
  3  4  1  0
  4  5  1  0
  5  6  3  0
  6  7  1  0
  4  8  1  0
  8  9  1  0
  1 10  1  0
  1 11  1  0
  1 12  1  0
  4 13  1  0
  7 14  1  0
  7 15  1  0
  7 16  1  0
  8 17  1  0
  8 18  1  0
  9 19  1  0
M  END
