
     RDKit          3D

 17 18  0  0  0  0  0  0  0  0999 V2000
    3.8030   -0.0750   -0.6133 C   0  0  0  0  0  0  0  0  0  0  0  0
    2.3498   -0.0517   -0.3608 C   0  0  0  0  0  0  0  0  0  0  0  0
    1.1547   -0.0382   -0.1635 C   0  0  0  0  0  0  0  0  0  0  0  0
   -0.2686   -0.0199    0.0784 C   0  0  0  0  0  0  0  0  0  0  0  0
   -0.9567   -1.0320    0.5716 C   0  0  0  0  0  0  0  0  0  0  0  0
   -2.3986   -0.6949    0.6993 C   0  0  0  0  0  0  0  0  0  0  0  0
   -2.4994    0.6480    0.0245 C   0  0  0  0  0  0  0  0  0  0  0  0
   -1.9047    1.6772    0.8578 O   0  0  0  0  0  0  0  0  0  0  0  0
   -1.1944    1.1148   -0.1781 C   0  0  0  0  0  0  0  0  0  0  0  0
    4.1063   -1.0063   -1.1524 H   0  0  0  0  0  0  0  0  0  0  0  0
    4.2940    0.0543    0.3514 H   0  0  0  0  0  0  0  0  0  0  0  0
    4.0995    0.7641   -1.2970 H   0  0  0  0  0  0  0  0  0  0  0  0
   -0.5270   -1.9918    0.8502 H   0  0  0  0  0  0  0  0  0  0  0  0
   -2.7235   -0.6617    1.7580 H   0  0  0  0  0  0  0  0  0  0  0  0
   -2.9672   -1.4201    0.1034 H   0  0  0  0  0  0  0  0  0  0  0  0
   -3.4502    0.9396   -0.4157 H   0  0  0  0  0  0  0  0  0  0  0  0
   -0.9170    1.7935   -1.0214 H   0  0  0  0  0  0  0  0  0  0  0  0
  1  2  1  0
  2  3  3  0
  3  4  1  0
  4  5  2  0
  5  6  1  0
  6  7  1  0
  7  8  1  0
  8  9  1  0
  9  4  1  0
  9  7  1  0
  1 10  1  0
  1 11  1  0
  1 12  1  0
  5 13  1  0
  6 14  1  0
  6 15  1  0
  7 16  1  0
  9 17  1  0
M  END
