
     RDKit          3D

 17 16  0  0  0  0  0  0  0  0999 V2000
    4.2018    0.9699    2.3531 C   0  0  0  0  0  0  0  0  0  0  0  0
    2.7795    0.8046    1.6513 C   0  0  0  0  0  0  0  0  0  0  0  0
    2.5393    0.7781    1.5322 C   0  0  0  0  0  0  0  0  0  0  0  0
   -0.6487    0.4511   -0.0498 C   0  0  0  0  0  0  0  0  0  0  0  0
   -1.2656    0.3968   -0.3652 C   0  0  0  0  0  0  0  0  0  0  0  0
   -1.6562    0.3627   -0.5715 C   0  0  0  0  0  0  0  0  0  0  0  0
   -1.8993   -1.5712    0.0022 C   0  0  0  0  0  0  0  0  0  0  0  0
   -2.9266    0.0242   -1.5119 C   0  0  0  0  0  0  0  0  0  0  0  0
   -2.5613   -0.9648   -2.3464 O   0  0  0  0  0  0  0  0  0  0  0  0
    4.7858    0.7343    1.6682 H   0  0  0  0  0  0  0  0  0  0  0  0
    3.7285    0.8299    3.3984 H   0  0  0  0  0  0  0  0  0  0  0  0
    4.0159    2.2957    2.2040 H   0  0  0  0  0  0  0  0  0  0  0  0
   -0.9557   -0.6551   -1.8220 H   0  0  0  0  0  0  0  0  0  0  0  0
   -1.8046   -1.3878    1.0612 H   0  0  0  0  0  0  0  0  0  0  0  0
   -1.4155   -1.9495   -0.7349 H   0  0  0  0  0  0  0  0  0  0  0  0
   -3.0703   -1.5322   -0.1907 H   0  0  0  0  0  0  0  0  0  0  0  0
   -3.8470    0.4132   -1.5173 H   0  0  0  0  0  0  0  0  0  0  0  0
  1  2  1  0
  2  3  3  0
  3  4  1  0
  4  5  3  0
  5  6  1  0
  6  7  1  0
  6  8  1  0
  8  9  2  0
  1 10  1  0
  1 11  1  0
  1 12  1  0
  6 13  1  0
  7 14  1  0
  7 15  1  0
  7 16  1  0
  8 17  1  0
M  END
