
     RDKit          3D

 17 16  0  0  0  0  0  0  0  0999 V2000
    3.0232   -0.1233    0.8514 C   0  0  0  0  0  0  0  0  0  0  0  0
    1.6386   -0.1034    0.3513 C   0  0  0  0  0  0  0  0  0  0  0  0
    0.5092   -0.0909   -0.0749 C   0  0  0  0  0  0  0  0  0  0  0  0
   -0.8808   -0.0729   -0.5858 C   0  0  0  0  0  0  0  0  0  0  0  0
   -1.5327    1.1780   -0.0482 C   0  0  0  0  0  0  0  0  0  0  0  0
   -0.8832   -0.0338   -2.0731 C   0  0  0  0  0  0  0  0  0  0  0  0
   -0.0036   -0.6186   -2.6680 O   0  0  0  0  0  0  0  0  0  0  0  0
   -1.5760   -1.2932   -0.1166 C   0  0  0  0  0  0  0  0  0  0  0  0
   -2.5407   -1.7188   -0.7041 O   0  0  0  0  0  0  0  0  0  0  0  0
    3.3017    0.9258    1.0421 H   0  0  0  0  0  0  0  0  0  0  0  0
    3.1120   -0.6856    1.8055 H   0  0  0  0  0  0  0  0  0  0  0  0
    3.7125   -0.5210    0.0662 H   0  0  0  0  0  0  0  0  0  0  0  0
   -1.0459    2.0378   -0.5746 H   0  0  0  0  0  0  0  0  0  0  0  0
   -2.6178    1.1568   -0.2200 H   0  0  0  0  0  0  0  0  0  0  0  0
   -1.3659    1.2629    1.0448 H   0  0  0  0  0  0  0  0  0  0  0  0
   -1.6434    0.4981   -2.6128 H   0  0  0  0  0  0  0  0  0  0  0  0
   -1.2071   -1.7979    0.7601 H   0  0  0  0  0  0  0  0  0  0  0  0
  1  2  1  0
  2  3  3  0
  3  4  1  0
  4  5  1  0
  4  6  1  0
  6  7  2  0
  4  8  1  0
  8  9  2  0
  1 10  1  0
  1 11  1  0
  1 12  1  0
  5 13  1  0
  5 14  1  0
  5 15  1  0
  6 16  1  0
  8 17  1  0
M  END
