
     RDKit          3D

 19 20  0  0  0  0  0  0  0  0999 V2000
    3.6326    0.8560    0.0242 C   0  0  0  0  0  0  0  0  0  0  0  0
    2.2933    0.2799   -0.2433 C   0  0  0  0  0  0  0  0  0  0  0  0
    1.2220   -0.1839   -0.4506 C   0  0  0  0  0  0  0  0  0  0  0  0
   -0.0978   -0.7345   -0.6874 C   0  0  0  0  0  0  0  0  0  0  0  0
   -0.8550    0.2057   -1.4355 O   0  0  0  0  0  0  0  0  0  0  0  0
   -1.9495    0.4276   -0.6409 C   0  0  0  0  0  0  0  0  0  0  0  0
   -1.3373    0.6197    0.7550 C   0  0  0  0  0  0  0  0  0  0  0  0
   -0.9443   -0.8475    0.5266 C   0  0  0  0  0  0  0  0  0  0  0  0
   -2.3372   -0.9627   -0.1117 C   0  0  0  0  0  0  0  0  0  0  0  0
    4.0982    0.3999    0.9172 H   0  0  0  0  0  0  0  0  0  0  0  0
    4.3128    0.6789   -0.8355 H   0  0  0  0  0  0  0  0  0  0  0  0
    3.5474    1.9505    0.1405 H   0  0  0  0  0  0  0  0  0  0  0  0
   -0.1070   -1.6638   -1.2665 H   0  0  0  0  0  0  0  0  0  0  0  0
   -2.7311    1.0782   -0.9281 H   0  0  0  0  0  0  0  0  0  0  0  0
   -0.4875    1.3076    0.7752 H   0  0  0  0  0  0  0  0  0  0  0  0
   -2.0586    0.7074    1.5655 H   0  0  0  0  0  0  0  0  0  0  0  0
   -0.7123   -1.4461    1.3501 H   0  0  0  0  0  0  0  0  0  0  0  0
   -2.3235   -1.7163   -0.9055 H   0  0  0  0  0  0  0  0  0  0  0  0
   -3.1653   -0.9565    0.5936 H   0  0  0  0  0  0  0  0  0  0  0  0
  1  2  1  0
  2  3  3  0
  3  4  1  0
  4  5  1  0
  5  6  1  0
  6  7  1  0
  7  8  1  0
  8  9  1  0
  8  4  1  0
  9  6  1  0
  1 10  1  0
  1 11  1  0
  1 12  1  0
  4 13  1  0
  6 14  1  0
  7 15  1  0
  7 16  1  0
  8 17  1  0
  9 18  1  0
  9 19  1  0
M  END
