
     RDKit          3D

 18 18  0  0  0  0  0  0  0  0999 V2000
    3.0694    0.6976    0.4599 C   0  0  0  0  0  0  0  0  0  0  0  0
    1.7933    0.0104    0.2466 C   0  0  0  0  0  0  0  0  0  0  0  0
    0.7351   -0.5743    0.0607 C   0  0  0  0  0  0  0  0  0  0  0  0
   -0.5355   -1.2497   -0.1705 C   0  0  0  0  0  0  0  0  0  0  0  0
   -1.5960   -0.9830    0.8727 C   0  0  0  0  0  0  0  0  0  0  0  0
   -2.5082   -0.7943   -0.1757 O   0  0  0  0  0  0  0  0  0  0  0  0
   -1.4476   -0.3808   -0.9732 C   0  0  0  0  0  0  0  0  0  0  0  0
   -1.1942    1.1046   -0.8547 C   0  0  0  0  0  0  0  0  0  0  0  0
    2.8439    1.6248    1.0344 H   0  0  0  0  0  0  0  0  0  0  0  0
    3.7688    0.0678    1.0666 H   0  0  0  0  0  0  0  0  0  0  0  0
    3.5914    0.9106   -0.4938 H   0  0  0  0  0  0  0  0  0  0  0  0
   -0.4659   -2.2874   -0.5158 H   0  0  0  0  0  0  0  0  0  0  0  0
   -1.3574   -0.0572    1.4231 H   0  0  0  0  0  0  0  0  0  0  0  0
   -1.8457   -1.8691    1.4956 H   0  0  0  0  0  0  0  0  0  0  0  0
   -1.4852   -0.7095   -2.0292 H   0  0  0  0  0  0  0  0  0  0  0  0
   -1.5368    1.5249    0.1131 H   0  0  0  0  0  0  0  0  0  0  0  0
   -0.0970    1.3197   -0.9265 H   0  0  0  0  0  0  0  0  0  0  0  0
   -1.7325    1.6449   -1.6589 H   0  0  0  0  0  0  0  0  0  0  0  0
  1  2  1  0
  2  3  3  0
  3  4  1  0
  4  5  1  0
  5  6  1  0
  6  7  1  0
  7  8  1  0
  7  4  1  0
  1  9  1  0
  1 10  1  0
  1 11  1  0
  4 12  1  0
  5 13  1  0
  5 14  1  0
  7 15  1  0
  8 16  1  0
  8 17  1  0
  8 18  1  0
M  END
