
     RDKit          3D

 19 19  0  0  0  0  0  0  0  0999 V2000
    4.0508    0.2052   -0.4982 C   0  0  0  0  0  0  0  0  0  0  0  0
    2.6498    0.4694   -0.1530 C   0  0  0  0  0  0  0  0  0  0  0  0
    1.4931    0.6825    0.1108 C   0  0  0  0  0  0  0  0  0  0  0  0
    0.1114    0.9353    0.4483 C   0  0  0  0  0  0  0  0  0  0  0  0
   -0.4965   -0.2828    1.0401 C   0  0  0  0  0  0  0  0  0  0  0  0
   -1.7236   -0.3810    0.5586 C   0  0  0  0  0  0  0  0  0  0  0  0
   -2.7246   -1.4716    0.8823 C   0  0  0  0  0  0  0  0  0  0  0  0
   -1.9487    0.7669   -0.3473 C   0  0  0  0  0  0  0  0  0  0  0  0
   -0.6904    1.2022   -0.6633 O   0  0  0  0  0  0  0  0  0  0  0  0
    4.3832   -0.7569   -0.0502 H   0  0  0  0  0  0  0  0  0  0  0  0
    4.1262    0.1786   -1.5908 H   0  0  0  0  0  0  0  0  0  0  0  0
    4.7383    0.9785   -0.0951 H   0  0  0  0  0  0  0  0  0  0  0  0
    0.0139    1.7389    1.2217 H   0  0  0  0  0  0  0  0  0  0  0  0
   -0.0398   -0.9726    1.7352 H   0  0  0  0  0  0  0  0  0  0  0  0
   -3.6311   -1.2845    0.3120 H   0  0  0  0  0  0  0  0  0  0  0  0
   -2.9882   -1.4333    1.9627 H   0  0  0  0  0  0  0  0  0  0  0  0
   -2.3310   -2.4622    0.6390 H   0  0  0  0  0  0  0  0  0  0  0  0
   -2.5969    1.5447    0.0971 H   0  0  0  0  0  0  0  0  0  0  0  0
   -2.3959    0.3427   -1.2845 H   0  0  0  0  0  0  0  0  0  0  0  0
  1  2  1  0
  2  3  3  0
  3  4  1  0
  4  5  1  0
  5  6  2  0
  6  7  1  0
  6  8  1  0
  8  9  1  0
  9  4  1  0
  1 10  1  0
  1 11  1  0
  1 12  1  0
  4 13  1  0
  5 14  1  0
  7 15  1  0
  7 16  1  0
  7 17  1  0
  8 18  1  0
  8 19  1  0
M  END
