
     RDKit          3D

 19 18  0  0  0  0  0  0  0  0999 V2000
    3.0682    0.9917    0.5455 C   0  0  0  0  0  0  0  0  0  0  0  0
    1.5760    0.9463    0.5614 C   0  0  0  0  0  0  0  0  0  0  0  0
    0.3806    0.9093    0.5949 C   0  0  0  0  0  0  0  0  0  0  0  0
   -1.0856    0.8692    0.6606 C   0  0  0  0  0  0  0  0  0  0  0  0
   -1.5136   -0.3522   -0.1134 C   0  0  0  0  0  0  0  0  0  0  0  0
   -1.0865   -0.3230   -1.5462 C   0  0  0  0  0  0  0  0  0  0  0  0
   -0.8646   -1.5668    0.5322 C   0  0  0  0  0  0  0  0  0  0  0  0
    3.4219    1.9304    1.0370 H   0  0  0  0  0  0  0  0  0  0  0  0
    3.4019    0.1590    1.1714 H   0  0  0  0  0  0  0  0  0  0  0  0
    3.4555    0.9254   -0.4891 H   0  0  0  0  0  0  0  0  0  0  0  0
   -1.5258    1.8004    0.2531 H   0  0  0  0  0  0  0  0  0  0  0  0
   -1.4108    0.7324    1.7089 H   0  0  0  0  0  0  0  0  0  0  0  0
   -2.6207   -0.3993   -0.0371 H   0  0  0  0  0  0  0  0  0  0  0  0
   -0.6308   -1.2760   -1.8870 H   0  0  0  0  0  0  0  0  0  0  0  0
   -1.9932   -0.1488   -2.1743 H   0  0  0  0  0  0  0  0  0  0  0  0
   -0.3974    0.5071   -1.7871 H   0  0  0  0  0  0  0  0  0  0  0  0
    0.1182   -1.3450    0.9663 H   0  0  0  0  0  0  0  0  0  0  0  0
   -0.7102   -2.3916   -0.2058 H   0  0  0  0  0  0  0  0  0  0  0  0
   -1.5830   -1.9687    1.2766 H   0  0  0  0  0  0  0  0  0  0  0  0
  1  2  1  0
  2  3  3  0
  3  4  1  0
  4  5  1  0
  5  6  1  0
  5  7  1  0
  1  8  1  0
  1  9  1  0
  1 10  1  0
  4 11  1  0
  4 12  1  0
  5 13  1  0
  6 14  1  0
  6 15  1  0
  6 16  1  0
  7 17  1  0
  7 18  1  0
  7 19  1  0
M  END
