
     RDKit          3D

 19 19  0  0  0  0  0  0  0  0999 V2000
    4.1031   -0.3961    0.6610 C   0  0  0  0  0  0  0  0  0  0  0  0
    2.9524    0.4271    0.3181 C   0  0  0  0  0  0  0  0  0  0  0  0
    2.0135    1.1237    0.0291 C   0  0  0  0  0  0  0  0  0  0  0  0
    0.8901    1.9531   -0.3134 C   0  0  0  0  0  0  0  0  0  0  0  0
   -0.3359    1.1541   -0.3453 C   0  0  0  0  0  0  0  0  0  0  0  0
   -1.3509    0.4739   -0.3575 C   0  0  0  0  0  0  0  0  0  0  0  0
   -2.5827   -0.3220   -0.3730 C   0  0  0  0  0  0  0  0  0  0  0  0
   -3.2479   -0.5356    0.9213 C   0  0  0  0  0  0  0  0  0  0  0  0
   -2.4928   -1.7053    0.2965 C   0  0  0  0  0  0  0  0  0  0  0  0
    4.3035   -0.3764    1.7493 H   0  0  0  0  0  0  0  0  0  0  0  0
    4.9969    0.0161    0.1419 H   0  0  0  0  0  0  0  0  0  0  0  0
    3.9063   -1.4561    0.3803 H   0  0  0  0  0  0  0  0  0  0  0  0
    0.7222    2.7973    0.4023 H   0  0  0  0  0  0  0  0  0  0  0  0
    1.1031    2.4146   -1.3097 H   0  0  0  0  0  0  0  0  0  0  0  0
   -3.1518   -0.3441   -1.3270 H   0  0  0  0  0  0  0  0  0  0  0  0
   -2.8592   -0.0756    1.8319 H   0  0  0  0  0  0  0  0  0  0  0  0
   -4.3649   -0.6867    0.9480 H   0  0  0  0  0  0  0  0  0  0  0  0
   -3.0924   -2.5268   -0.1381 H   0  0  0  0  0  0  0  0  0  0  0  0
   -1.5126   -1.9351    0.7618 H   0  0  0  0  0  0  0  0  0  0  0  0
  1  2  1  0
  2  3  3  0
  3  4  1  0
  4  5  1  0
  5  6  3  0
  6  7  1  0
  7  8  1  0
  8  9  1  0
  9  7  1  0
  1 10  1  0
  1 11  1  0
  1 12  1  0
  4 13  1  0
  4 14  1  0
  7 15  1  0
  8 16  1  0
  8 17  1  0
  9 18  1  0
  9 19  1  0
M  END
