
     RDKit          3D

 14 13  0  0  0  0  0  0  0  0999 V2000
   -3.0965    0.7789   -0.0196 C   0  0  0  0  0  0  0  0  0  0  0  0
   -1.6434    0.6122    0.1845 C   0  0  0  0  0  0  0  0  0  0  0  0
   -0.4564    0.4717    0.3656 C   0  0  0  0  0  0  0  0  0  0  0  0
    0.9898    0.2895    0.5701 C   0  0  0  0  0  0  0  0  0  0  0  0
    1.4324   -0.7905   -0.3337 C   0  0  0  0  0  0  0  0  0  0  0  0
    0.6666   -1.4083   -1.1160 O   0  0  0  0  0  0  0  0  0  0  0  0
    2.8356   -1.1859   -0.3416 C   0  0  0  0  0  0  0  0  0  0  0  0
    3.6899   -0.6217    0.4131 O   0  0  0  0  0  0  0  0  0  0  0  0
   -3.3187    1.8126   -0.4092 H   0  0  0  0  0  0  0  0  0  0  0  0
   -3.6491    0.7092    0.9387 H   0  0  0  0  0  0  0  0  0  0  0  0
   -3.3978    0.0304   -0.7485 H   0  0  0  0  0  0  0  0  0  0  0  0
    1.5331    1.2547    0.3614 H   0  0  0  0  0  0  0  0  0  0  0  0
    1.2003    0.0189    1.6439 H   0  0  0  0  0  0  0  0  0  0  0  0
    3.2144   -1.9717   -0.9845 H   0  0  0  0  0  0  0  0  0  0  0  0
  1  2  1  0
  2  3  3  0
  3  4  1  0
  4  5  1  0
  5  6  2  0
  5  7  1  0
  7  8  2  0
  1  9  1  0
  1 10  1  0
  1 11  1  0
  4 12  1  0
  4 13  1  0
  7 14  1  0
M  END
