
     RDKit          3D

 15 14  0  0  0  0  0  0  0  0999 V2000
   -2.6166   -1.5112    2.3369 C   0  0  0  0  0  0  0  0  0  0  0  0
   -1.5278   -1.3929    1.5546 C   0  0  0  0  0  0  0  0  0  0  0  0
   -0.4637   -1.2710    0.7618 C   0  0  0  0  0  0  0  0  0  0  0  0
    0.6901   -1.1630   -0.0881 C   0  0  0  0  0  0  0  0  0  0  0  0
    1.4595   -2.1448   -0.1902 O   0  0  0  0  0  0  0  0  0  0  0  0
    0.9544    0.0437   -0.7976 C   0  0  0  0  0  0  0  0  0  0  0  0
    1.1919    1.0430   -1.3767 C   0  0  0  0  0  0  0  0  0  0  0  0
    1.4899    2.3158   -2.1285 C   0  0  0  0  0  0  0  0  0  0  0  0
    2.4614    2.0620   -3.0843 O   0  0  0  0  0  0  0  0  0  0  0  0
   -2.4851   -2.4455    3.0090 H   0  0  0  0  0  0  0  0  0  0  0  0
   -2.7566   -0.7243    3.1299 H   0  0  0  0  0  0  0  0  0  0  0  0
   -3.6270   -1.6569    1.8317 H   0  0  0  0  0  0  0  0  0  0  0  0
    1.8238    3.1078   -1.4177 H   0  0  0  0  0  0  0  0  0  0  0  0
    0.5317    2.5661   -2.6094 H   0  0  0  0  0  0  0  0  0  0  0  0
    2.8741    1.1714   -2.8373 H   0  0  0  0  0  0  0  0  0  0  0  0
  1  2  1  0
  2  3  3  0
  3  4  1  0
  4  5  2  0
  4  6  1  0
  6  7  3  0
  7  8  1  0
  8  9  1  0
  1 10  1  0
  1 11  1  0
  1 12  1  0
  8 13  1  0
  8 14  1  0
  9 15  1  0
M  END
