
     RDKit          3D

 18 18  0  0  0  0  0  0  0  0999 V2000
    2.9013    2.3782    0.8041 C   0  0  0  0  0  0  0  0  0  0  0  0
    2.0104    1.4113    0.1977 C   0  0  0  0  0  0  0  0  0  0  0  0
    1.2520    0.5780   -0.3447 C   0  0  0  0  0  0  0  0  0  0  0  0
    0.3713   -0.4027   -0.9640 C   0  0  0  0  0  0  0  0  0  0  0  0
    0.2754   -1.7109   -0.2500 C   0  0  0  0  0  0  0  0  0  0  0  0
   -0.8611   -0.7486   -0.2470 C   0  0  0  0  0  0  0  0  0  0  0  0
   -1.9976   -1.0699   -1.0225 O   0  0  0  0  0  0  0  0  0  0  0  0
   -3.1579   -0.8046   -0.3315 C   0  0  0  0  0  0  0  0  0  0  0  0
    2.4686    3.3902    0.6348 H   0  0  0  0  0  0  0  0  0  0  0  0
    3.0802    2.1613    1.8719 H   0  0  0  0  0  0  0  0  0  0  0  0
    3.9067    2.3993    0.3050 H   0  0  0  0  0  0  0  0  0  0  0  0
    0.3267   -0.4499   -2.0782 H   0  0  0  0  0  0  0  0  0  0  0  0
    0.2567   -2.6138   -0.8784 H   0  0  0  0  0  0  0  0  0  0  0  0
    0.8272   -1.8606    0.6992 H   0  0  0  0  0  0  0  0  0  0  0  0
   -1.1344   -0.3443    0.7467 H   0  0  0  0  0  0  0  0  0  0  0  0
   -3.2294   -1.3936    0.6209 H   0  0  0  0  0  0  0  0  0  0  0  0
   -3.2905    0.2589   -0.0328 H   0  0  0  0  0  0  0  0  0  0  0  0
   -4.0054   -1.1781   -0.9577 H   0  0  0  0  0  0  0  0  0  0  0  0
  1  2  1  0
  2  3  3  0
  3  4  1  0
  4  5  1  0
  5  6  1  0
  6  7  1  0
  7  8  1  0
  6  4  1  0
  1  9  1  0
  1 10  1  0
  1 11  1  0
  4 12  1  0
  5 13  1  0
  5 14  1  0
  6 15  1  0
  8 16  1  0
  8 17  1  0
  8 18  1  0
M  END
