
     RDKit          3D

 19 19  0  0  0  0  0  0  0  0999 V2000
    3.2333    0.6477    0.1194 C   0  0  0  0  0  0  0  0  0  0  0  0
    1.9043    0.0299   -0.0380 C   0  0  0  0  0  0  0  0  0  0  0  0
    0.8148   -0.4915   -0.1645 C   0  0  0  0  0  0  0  0  0  0  0  0
   -0.4975   -1.1241   -0.3146 C   0  0  0  0  0  0  0  0  0  0  0  0
   -1.0603   -1.4679    1.0643 C   0  0  0  0  0  0  0  0  0  0  0  0
   -1.6686   -0.1084    1.0773 C   0  0  0  0  0  0  0  0  0  0  0  0
   -2.0748    0.6704    1.9175 O   0  0  0  0  0  0  0  0  0  0  0  0
   -1.5730   -0.0938   -0.3951 C   0  0  0  0  0  0  0  0  0  0  0  0
   -1.2167    1.2140   -1.0275 C   0  0  0  0  0  0  0  0  0  0  0  0
    3.1546    1.7155   -0.1373 H   0  0  0  0  0  0  0  0  0  0  0  0
    3.9719    0.2026   -0.5956 H   0  0  0  0  0  0  0  0  0  0  0  0
    3.6245    0.4515    1.1278 H   0  0  0  0  0  0  0  0  0  0  0  0
   -0.5474   -1.9486   -1.0470 H   0  0  0  0  0  0  0  0  0  0  0  0
   -1.7705   -2.3105    1.0672 H   0  0  0  0  0  0  0  0  0  0  0  0
   -0.2605   -1.5356    1.8559 H   0  0  0  0  0  0  0  0  0  0  0  0
   -2.5110   -0.5285   -0.8299 H   0  0  0  0  0  0  0  0  0  0  0  0
   -2.1781    1.6901   -1.3664 H   0  0  0  0  0  0  0  0  0  0  0  0
   -0.6179    1.0565   -1.9562 H   0  0  0  0  0  0  0  0  0  0  0  0
   -0.7269    1.9306   -0.3573 H   0  0  0  0  0  0  0  0  0  0  0  0
  1  2  1  0
  2  3  3  0
  3  4  1  0
  4  5  1  0
  5  6  1  0
  6  7  2  0
  6  8  1  0
  8  9  1  0
  8  4  1  0
  1 10  1  0
  1 11  1  0
  1 12  1  0
  4 13  1  0
  5 14  1  0
  5 15  1  0
  8 16  1  0
  9 17  1  0
  9 18  1  0
  9 19  1  0
M  END
