
     RDKit          3D

 21 21  0  0  0  0  0  0  0  0999 V2000
    3.7634   -1.0634    0.3853 C   0  0  0  0  0  0  0  0  0  0  0  0
    2.4459   -0.5757    0.5173 C   0  0  0  0  0  0  0  0  0  0  0  0
    1.0889   -0.0520    0.6390 C   0  0  0  0  0  0  0  0  0  0  0  0
   -0.1437    0.4139    0.7500 C   0  0  0  0  0  0  0  0  0  0  0  0
   -0.3327    1.7472    0.2261 C   0  0  0  0  0  0  0  0  0  0  0  0
   -1.7160    1.8177   -0.1035 C   0  0  0  0  0  0  0  0  0  0  0  0
   -2.3753    0.4987    0.2765 C   0  0  0  0  0  0  0  0  0  0  0  0
   -1.2249   -0.4578    0.1857 C   0  0  0  0  0  0  0  0  0  0  0  0
   -0.9944   -0.6916   -1.3098 C   0  0  0  0  0  0  0  0  0  0  0  0
    4.3136   -0.7901   -0.5102 H   0  0  0  0  0  0  0  0  0  0  0  0
    4.1717   -1.5754    1.2114 H   0  0  0  0  0  0  0  0  0  0  0  0
    3.4650   -2.3147   -0.1970 H   0  0  0  0  0  0  0  0  0  0  0  0
   -0.2969    0.4846    1.9520 H   0  0  0  0  0  0  0  0  0  0  0  0
    0.2534    2.5864   -0.0306 H   0  0  0  0  0  0  0  0  0  0  0  0
   -2.1900    2.6446   -0.4919 H   0  0  0  0  0  0  0  0  0  0  0  0
   -2.8348    0.6091    1.2664 H   0  0  0  0  0  0  0  0  0  0  0  0
   -3.1934    0.3245   -0.4974 H   0  0  0  0  0  0  0  0  0  0  0  0
   -1.3450   -1.3577    0.7819 H   0  0  0  0  0  0  0  0  0  0  0  0
   -1.7062   -1.4455   -1.6415 H   0  0  0  0  0  0  0  0  0  0  0  0
    0.0687   -1.0098   -1.4753 H   0  0  0  0  0  0  0  0  0  0  0  0
   -1.2173    0.2069   -1.9344 H   0  0  0  0  0  0  0  0  0  0  0  0
  1  2  1  0
  2  3  3  0
  3  4  1  0
  4  5  1  0
  5  6  2  0
  6  7  1  0
  7  8  1  0
  8  9  1  0
  8  4  1  0
  1 10  1  0
  1 11  1  0
  1 12  1  0
  4 13  1  0
  5 14  1  0
  6 15  1  0
  7 16  1  0
  7 17  1  0
  8 18  1  0
  9 19  1  0
  9 20  1  0
  9 21  1  0
M  END
