
     RDKit          3D

 19 20  0  0  0  0  0  0  0  0999 V2000
    3.2887    0.2997   -0.1886 C   0  0  0  0  0  0  0  0  0  0  0  0
    1.9234   -0.2403   -0.2204 C   0  0  0  0  0  0  0  0  0  0  0  0
    0.8072   -0.7038   -0.2457 C   0  0  0  0  0  0  0  0  0  0  0  0
   -0.5347   -1.2673   -0.2761 C   0  0  0  0  0  0  0  0  0  0  0  0
   -1.4461   -0.7750    0.7906 C   0  0  0  0  0  0  0  0  0  0  0  0
   -1.2237    0.7311    0.8650 C   0  0  0  0  0  0  0  0  0  0  0  0
   -1.2765    1.0021   -0.6510 C   0  0  0  0  0  0  0  0  0  0  0  0
   -1.4706   -0.4447   -1.0873 C   0  0  0  0  0  0  0  0  0  0  0  0
   -2.4798   -0.8353   -0.1735 O   0  0  0  0  0  0  0  0  0  0  0  0
    4.0534   -0.5096   -0.3306 H   0  0  0  0  0  0  0  0  0  0  0  0
    3.4253    1.0837   -0.9516 H   0  0  0  0  0  0  0  0  0  0  0  0
    3.5200    0.7216    0.8276 H   0  0  0  0  0  0  0  0  0  0  0  0
   -0.6313   -2.3255   -0.4843 H   0  0  0  0  0  0  0  0  0  0  0  0
   -1.5833   -1.3114    1.6955 H   0  0  0  0  0  0  0  0  0  0  0  0
   -0.2164    0.9611    1.2643 H   0  0  0  0  0  0  0  0  0  0  0  0
   -2.0305    1.2530    1.3746 H   0  0  0  0  0  0  0  0  0  0  0  0
   -2.1538    1.6065   -0.9037 H   0  0  0  0  0  0  0  0  0  0  0  0
   -0.3339    1.3996   -1.0245 H   0  0  0  0  0  0  0  0  0  0  0  0
   -1.6374   -0.6455   -2.1176 H   0  0  0  0  0  0  0  0  0  0  0  0
  1  2  1  0
  2  3  3  0
  3  4  1  0
  4  5  1  0
  5  6  1  0
  6  7  1  0
  7  8  1  0
  8  9  1  0
  8  4  1  0
  9  5  1  0
  1 10  1  0
  1 11  1  0
  1 12  1  0
  4 13  1  0
  5 14  1  0
  6 15  1  0
  6 16  1  0
  7 17  1  0
  7 18  1  0
  8 19  1  0
M  END
