
     RDKit          3D

 21 21  0  0  0  0  0  0  0  0999 V2000
    3.6904   -0.1829   -0.2934 C   0  0  0  0  0  0  0  0  0  0  0  0
    2.2158   -0.1595   -0.4428 C   0  0  0  0  0  0  0  0  0  0  0  0
    1.0180   -0.1554   -0.5714 C   0  0  0  0  0  0  0  0  0  0  0  0
   -0.4033   -0.1398   -0.7021 C   0  0  0  0  0  0  0  0  0  0  0  0
   -1.0544   -1.4988   -0.4859 C   0  0  0  0  0  0  0  0  0  0  0  0
   -2.4365   -1.0496   -0.0585 C   0  0  0  0  0  0  0  0  0  0  0  0
   -2.3498    0.2624    0.3293 O   0  0  0  0  0  0  0  0  0  0  0  0
   -1.0144    0.5926    0.4755 C   0  0  0  0  0  0  0  0  0  0  0  0
   -0.7347    2.0568    0.2900 C   0  0  0  0  0  0  0  0  0  0  0  0
    3.9943    0.8020    0.0864 H   0  0  0  0  0  0  0  0  0  0  0  0
    3.9815   -1.0215    0.4017 H   0  0  0  0  0  0  0  0  0  0  0  0
    4.1857   -0.3918   -1.2648 H   0  0  0  0  0  0  0  0  0  0  0  0
   -0.8030    0.3003   -1.6089 H   0  0  0  0  0  0  0  0  0  0  0  0
   -1.0538   -2.0963   -1.4041 H   0  0  0  0  0  0  0  0  0  0  0  0
   -0.6073   -2.0179    0.3867 H   0  0  0  0  0  0  0  0  0  0  0  0
   -3.1473   -1.0932   -0.9271 H   0  0  0  0  0  0  0  0  0  0  0  0
   -2.8313   -1.6444    0.7826 H   0  0  0  0  0  0  0  0  0  0  0  0
   -0.6777    0.2182    1.4461 H   0  0  0  0  0  0  0  0  0  0  0  0
   -1.3804    2.6827    0.9388 H   0  0  0  0  0  0  0  0  0  0  0  0
   -0.9258    2.3168   -0.7718 H   0  0  0  0  0  0  0  0  0  0  0  0
    0.3341    2.2193    0.5673 H   0  0  0  0  0  0  0  0  0  0  0  0
  1  2  1  0
  2  3  3  0
  3  4  1  0
  4  5  1  0
  5  6  1  0
  6  7  1  0
  7  8  1  0
  8  9  1  0
  8  4  1  0
  1 10  1  0
  1 11  1  0
  1 12  1  0
  4 13  1  0
  5 14  1  0
  5 15  1  0
  6 16  1  0
  6 17  1  0
  8 18  1  0
  9 19  1  0
  9 20  1  0
  9 21  1  0
M  END
