
     RDKit          3D

 19 18  0  0  0  0  0  0  0  0999 V2000
    4.8836    1.5246   -1.2616 C   0  0  0  0  0  0  0  0  0  0  0  0
    3.6093    0.8929   -0.8855 C   0  0  0  0  0  0  0  0  0  0  0  0
    2.5657    0.3616   -0.5929 C   0  0  0  0  0  0  0  0  0  0  0  0
    1.3232   -0.2554   -0.2471 C   0  0  0  0  0  0  0  0  0  0  0  0
    0.2661   -0.7569    0.0461 C   0  0  0  0  0  0  0  0  0  0  0  0
   -1.0311   -1.3499    0.3980 C   0  0  0  0  0  0  0  0  0  0  0  0
   -2.0765   -0.2464    0.2742 C   0  0  0  0  0  0  0  0  0  0  0  0
   -3.4489   -0.7704    0.6200 C   0  0  0  0  0  0  0  0  0  0  0  0
   -4.3355    0.3124    0.4771 O   0  0  0  0  0  0  0  0  0  0  0  0
    5.7318    0.7967   -1.1647 H   0  0  0  0  0  0  0  0  0  0  0  0
    5.0632    2.3453   -0.5543 H   0  0  0  0  0  0  0  0  0  0  0  0
    4.8474    1.8563   -2.3056 H   0  0  0  0  0  0  0  0  0  0  0  0
   -1.2898   -2.1682   -0.2818 H   0  0  0  0  0  0  0  0  0  0  0  0
   -0.9748   -1.7207    1.4282 H   0  0  0  0  0  0  0  0  0  0  0  0
   -1.8236    0.6051    0.9311 H   0  0  0  0  0  0  0  0  0  0  0  0
   -2.0953    0.0731   -0.7727 H   0  0  0  0  0  0  0  0  0  0  0  0
   -3.5155   -1.0880    1.6721 H   0  0  0  0  0  0  0  0  0  0  0  0
   -3.7494   -1.5606   -0.0955 H   0  0  0  0  0  0  0  0  0  0  0  0
   -3.9498    1.1487    0.8002 H   0  0  0  0  0  0  0  0  0  0  0  0
  1  2  1  0
  2  3  3  0
  3  4  1  0
  4  5  3  0
  5  6  1  0
  6  7  1  0
  7  8  1  0
  8  9  1  0
  1 10  1  0
  1 11  1  0
  1 12  1  0
  6 13  1  0
  6 14  1  0
  7 15  1  0
  7 16  1  0
  8 17  1  0
  8 18  1  0
  9 19  1  0
M  END
