
     RDKit          3D

 19 19  0  0  0  0  0  0  0  0999 V2000
    3.9223    0.1898   -0.0778 C   0  0  0  0  0  0  0  0  0  0  0  0
    2.4488    0.0270   -0.0407 C   0  0  0  0  0  0  0  0  0  0  0  0
    1.2575   -0.0998    0.0055 C   0  0  0  0  0  0  0  0  0  0  0  0
   -0.1683   -0.2638    0.0801 C   0  0  0  0  0  0  0  0  0  0  0  0
   -0.9079    1.0496    0.0054 C   0  0  0  0  0  0  0  0  0  0  0  0
   -2.3472    0.7028    0.4098 C   0  0  0  0  0  0  0  0  0  0  0  0
   -2.8016   -0.2714   -0.4437 O   0  0  0  0  0  0  0  0  0  0  0  0
   -2.0030   -1.3827   -0.5390 C   0  0  0  0  0  0  0  0  0  0  0  0
   -0.6873   -1.0712   -0.9485 O   0  0  0  0  0  0  0  0  0  0  0  0
    4.4245   -0.7935    0.0381 H   0  0  0  0  0  0  0  0  0  0  0  0
    4.2216    0.7359   -0.9755 H   0  0  0  0  0  0  0  0  0  0  0  0
    4.2634    0.7945    0.8100 H   0  0  0  0  0  0  0  0  0  0  0  0
   -0.5063   -0.7589    1.0306 H   0  0  0  0  0  0  0  0  0  0  0  0
   -0.4811    1.8411    0.6148 H   0  0  0  0  0  0  0  0  0  0  0  0
   -0.9635    1.3571   -1.0635 H   0  0  0  0  0  0  0  0  0  0  0  0
   -2.2636    0.2968    1.4551 H   0  0  0  0  0  0  0  0  0  0  0  0
   -3.0077    1.5644    0.3762 H   0  0  0  0  0  0  0  0  0  0  0  0
   -2.4709   -2.0919   -1.2320 H   0  0  0  0  0  0  0  0  0  0  0  0
   -1.9295   -1.8258    0.4951 H   0  0  0  0  0  0  0  0  0  0  0  0
  1  2  1  0
  2  3  3  0
  3  4  1  0
  4  5  1  0
  5  6  1  0
  6  7  1  0
  7  8  1  0
  8  9  1  0
  9  4  1  0
  1 10  1  0
  1 11  1  0
  1 12  1  0
  4 13  1  0
  5 14  1  0
  5 15  1  0
  6 16  1  0
  6 17  1  0
  8 18  1  0
  8 19  1  0
M  END
