
     RDKit          3D

 23 23  0  0  0  0  0  0  0  0999 V2000
    3.4145   -1.0829    0.0783 C   0  0  0  0  0  0  0  0  0  0  0  0
    2.0234   -0.7473    0.3829 C   0  0  0  0  0  0  0  0  0  0  0  0
    0.8791   -0.4685    0.6382 C   0  0  0  0  0  0  0  0  0  0  0  0
   -0.5160   -0.1535    0.9402 C   0  0  0  0  0  0  0  0  0  0  0  0
   -1.5227   -0.7318   -0.0306 C   0  0  0  0  0  0  0  0  0  0  0  0
   -0.9861   -1.1684   -1.3479 C   0  0  0  0  0  0  0  0  0  0  0  0
   -2.1515    0.6427   -0.1249 C   0  0  0  0  0  0  0  0  0  0  0  0
   -0.9027    1.2166    0.4840 C   0  0  0  0  0  0  0  0  0  0  0  0
   -0.0044    1.8794   -0.5067 C   0  0  0  0  0  0  0  0  0  0  0  0
    3.9255   -0.2052   -0.3679 H   0  0  0  0  0  0  0  0  0  0  0  0
    3.4704   -1.9383   -0.6516 H   0  0  0  0  0  0  0  0  0  0  0  0
    3.9885   -1.3677    0.9834 H   0  0  0  0  0  0  0  0  0  0  0  0
   -0.8064   -0.3494    1.9877 H   0  0  0  0  0  0  0  0  0  0  0  0
   -2.2208   -1.4398    0.4735 H   0  0  0  0  0  0  0  0  0  0  0  0
   -1.1759   -0.4198   -2.1076 H   0  0  0  0  0  0  0  0  0  0  0  0
    0.1003   -1.4123   -1.3306 H   0  0  0  0  0  0  0  0  0  0  0  0
   -1.5741   -2.0832   -1.6534 H   0  0  0  0  0  0  0  0  0  0  0  0
   -3.0787    0.7858    0.4555 H   0  0  0  0  0  0  0  0  0  0  0  0
   -2.2767    1.0012   -1.1623 H   0  0  0  0  0  0  0  0  0  0  0  0
   -1.2032    1.8704    1.3538 H   0  0  0  0  0  0  0  0  0  0  0  0
   -0.4622    1.7926   -1.5135 H   0  0  0  0  0  0  0  0  0  0  0  0
    0.0894    2.9832   -0.3218 H   0  0  0  0  0  0  0  0  0  0  0  0
    0.9902    1.3960   -0.5748 H   0  0  0  0  0  0  0  0  0  0  0  0
  1  2  1  0
  2  3  3  0
  3  4  1  0
  4  5  1  0
  5  6  1  0
  5  7  1  0
  7  8  1  0
  8  9  1  0
  8  4  1  0
  1 10  1  0
  1 11  1  0
  1 12  1  0
  4 13  1  0
  5 14  1  0
  6 15  1  0
  6 16  1  0
  6 17  1  0
  7 18  1  0
  7 19  1  0
  8 20  1  0
  9 21  1  0
  9 22  1  0
  9 23  1  0
M  END
