
     RDKit          3D

 21 21  0  0  0  0  0  0  0  0999 V2000
    3.4227   -0.1073    0.0490 C   0  0  0  0  0  0  0  0  0  0  0  0
    1.9769    0.1095   -0.1751 C   0  0  0  0  0  0  0  0  0  0  0  0
    0.7923    0.2658   -0.3583 C   0  0  0  0  0  0  0  0  0  0  0  0
   -0.6413    0.4731   -0.5981 C   0  0  0  0  0  0  0  0  0  0  0  0
   -1.0495    1.8881   -0.2479 C   0  0  0  0  0  0  0  0  0  0  0  0
   -2.3967    2.0255   -0.4910 O   0  0  0  0  0  0  0  0  0  0  0  0
   -1.4237   -0.5589    0.1650 C   0  0  0  0  0  0  0  0  0  0  0  0
   -1.1326   -1.9800   -0.1936 C   0  0  0  0  0  0  0  0  0  0  0  0
   -0.6539   -1.4390    1.1665 C   0  0  0  0  0  0  0  0  0  0  0  0
    3.7650    0.4064    0.9717 H   0  0  0  0  0  0  0  0  0  0  0  0
    3.5323   -1.2199    0.1447 H   0  0  0  0  0  0  0  0  0  0  0  0
    4.0048    0.2982   -0.8015 H   0  0  0  0  0  0  0  0  0  0  0  0
   -0.8225    0.3425   -1.6811 H   0  0  0  0  0  0  0  0  0  0  0  0
   -0.7627    2.1609    0.7904 H   0  0  0  0  0  0  0  0  0  0  0  0
   -0.4550    2.5550   -0.9125 H   0  0  0  0  0  0  0  0  0  0  0  0
   -2.6914    2.9836   -0.5721 H   0  0  0  0  0  0  0  0  0  0  0  0
   -2.4228   -0.2691    0.5376 H   0  0  0  0  0  0  0  0  0  0  0  0
   -1.9244   -2.7579   -0.1124 H   0  0  0  0  0  0  0  0  0  0  0  0
   -0.3661   -2.1882   -0.9609 H   0  0  0  0  0  0  0  0  0  0  0  0
   -1.1736   -1.7752    2.0717 H   0  0  0  0  0  0  0  0  0  0  0  0
    0.4223   -1.2132    1.2079 H   0  0  0  0  0  0  0  0  0  0  0  0
  1  2  1  0
  2  3  3  0
  3  4  1  0
  4  5  1  0
  5  6  1  0
  4  7  1  0
  7  8  1  0
  8  9  1  0
  9  7  1  0
  1 10  1  0
  1 11  1  0
  1 12  1  0
  4 13  1  0
  5 14  1  0
  5 15  1  0
  6 16  1  0
  7 17  1  0
  8 18  1  0
  8 19  1  0
  9 20  1  0
  9 21  1  0
M  END
