
     RDKit          3D

 21 20  0  0  0  0  0  0  0  0999 V2000
    3.6273   -0.4733    0.2331 C   0  0  0  0  0  0  0  0  0  0  0  0
    2.2004   -0.5366   -0.1517 C   0  0  0  0  0  0  0  0  0  0  0  0
    1.0346   -0.5727   -0.4705 C   0  0  0  0  0  0  0  0  0  0  0  0
   -0.3722   -0.6329   -0.8712 C   0  0  0  0  0  0  0  0  0  0  0  0
   -0.5607    0.3098   -1.8805 O   0  0  0  0  0  0  0  0  0  0  0  0
   -1.2638   -0.2991    0.3127 C   0  0  0  0  0  0  0  0  0  0  0  0
   -2.6979   -0.3829   -0.1821 C   0  0  0  0  0  0  0  0  0  0  0  0
   -1.0234    1.1709    0.6544 C   0  0  0  0  0  0  0  0  0  0  0  0
    0.3257    1.3756    0.9858 O   0  0  0  0  0  0  0  0  0  0  0  0
    4.1215   -1.4559    0.0736 H   0  0  0  0  0  0  0  0  0  0  0  0
    4.1728    0.2577   -0.4235 H   0  0  0  0  0  0  0  0  0  0  0  0
    3.6653   -0.1218    1.2619 H   0  0  0  0  0  0  0  0  0  0  0  0
   -0.6440   -1.6256   -1.2863 H   0  0  0  0  0  0  0  0  0  0  0  0
    0.0795    1.0403   -1.7260 H   0  0  0  0  0  0  0  0  0  0  0  0
   -1.0788   -0.9571    1.1654 H   0  0  0  0  0  0  0  0  0  0  0  0
   -2.9297    0.5115   -0.7701 H   0  0  0  0  0  0  0  0  0  0  0  0
   -3.3321   -0.3951    0.7510 H   0  0  0  0  0  0  0  0  0  0  0  0
   -2.9067   -1.3382   -0.6898 H   0  0  0  0  0  0  0  0  0  0  0  0
   -1.6944    1.5156    1.4650 H   0  0  0  0  0  0  0  0  0  0  0  0
   -1.1969    1.7276   -0.2911 H   0  0  0  0  0  0  0  0  0  0  0  0
    0.4734    0.8821    1.8398 H   0  0  0  0  0  0  0  0  0  0  0  0
  1  2  1  0
  2  3  3  0
  3  4  1  0
  4  5  1  0
  4  6  1  0
  6  7  1  0
  6  8  1  0
  8  9  1  0
  1 10  1  0
  1 11  1  0
  1 12  1  0
  4 13  1  0
  5 14  1  0
  6 15  1  0
  7 16  1  0
  7 17  1  0
  7 18  1  0
  8 19  1  0
  8 20  1  0
  9 21  1  0
M  END
