
     RDKit          3D

 18 18  0  0  0  0  0  0  0  0999 V2000
    3.5827    0.4613   -0.1031 C   0  0  0  0  0  0  0  0  0  0  0  0
    2.1699    0.3073    0.2542 C   0  0  0  0  0  0  0  0  0  0  0  0
    0.9956    0.1904    0.5693 C   0  0  0  0  0  0  0  0  0  0  0  0
   -0.4068    0.0579    0.9704 C   0  0  0  0  0  0  0  0  0  0  0  0
   -1.3874    0.1895   -0.1309 C   0  0  0  0  0  0  0  0  0  0  0  0
   -2.7278    0.8230    0.1544 C   0  0  0  0  0  0  0  0  0  0  0  0
   -1.1179   -1.1652    0.5203 C   0  0  0  0  0  0  0  0  0  0  0  0
   -0.5293   -2.0912   -0.3139 O   0  0  0  0  0  0  0  0  0  0  0  0
    4.0098    1.4181    0.2141 H   0  0  0  0  0  0  0  0  0  0  0  0
    4.1996   -0.3737    0.3351 H   0  0  0  0  0  0  0  0  0  0  0  0
    3.6477    0.3695   -1.2022 H   0  0  0  0  0  0  0  0  0  0  0  0
   -0.7158    0.4839    1.9390 H   0  0  0  0  0  0  0  0  0  0  0  0
   -1.0442    0.3325   -1.1779 H   0  0  0  0  0  0  0  0  0  0  0  0
   -3.1813    0.2701    1.0010 H   0  0  0  0  0  0  0  0  0  0  0  0
   -2.6337    1.9034    0.4193 H   0  0  0  0  0  0  0  0  0  0  0  0
   -3.3849    0.6919   -0.7290 H   0  0  0  0  0  0  0  0  0  0  0  0
   -1.8907   -1.5808    1.1895 H   0  0  0  0  0  0  0  0  0  0  0  0
    0.4145   -2.2880   -0.0941 H   0  0  0  0  0  0  0  0  0  0  0  0
  1  2  1  0
  2  3  3  0
  3  4  1  0
  4  5  1  0
  5  6  1  0
  5  7  1  0
  7  8  1  0
  7  4  1  0
  1  9  1  0
  1 10  1  0
  1 11  1  0
  4 12  1  0
  5 13  1  0
  6 14  1  0
  6 15  1  0
  6 16  1  0
  7 17  1  0
  8 18  1  0
M  END
