
     RDKit          3D

 19 20  0  0  0  0  0  0  0  0999 V2000
    3.7322    1.5317    0.2687 C   0  0  0  0  0  0  0  0  0  0  0  0
    2.5394    1.1136    0.2534 C   0  0  0  0  0  0  0  0  0  0  0  0
    1.0878    0.6093    0.2105 C   0  0  0  0  0  0  0  0  0  0  0  0
   -0.2806    0.1522    0.1841 C   0  0  0  0  0  0  0  0  0  0  0  0
   -0.5005   -1.2346   -0.1853 C   0  0  0  0  0  0  0  0  0  0  0  0
   -1.4003   -0.8415   -1.2788 C   0  0  0  0  0  0  0  0  0  0  0  0
   -1.4713    0.3529   -0.2867 C   0  0  0  0  0  0  0  0  0  0  0  0
   -1.8346   -0.9130    0.6738 C   0  0  0  0  0  0  0  0  0  0  0  0
   -2.8953   -1.5905    0.3031 O   0  0  0  0  0  0  0  0  0  0  0  0
    3.8228    2.5418   -0.3071 H   0  0  0  0  0  0  0  0  0  0  0  0
    4.4358    0.8484   -0.2783 H   0  0  0  0  0  0  0  0  0  0  0  0
    4.1400    1.9010    1.2780 H   0  0  0  0  0  0  0  0  0  0  0  0
   -0.4490    0.2332    1.4682 H   0  0  0  0  0  0  0  0  0  0  0  0
    0.0041   -2.0948    0.0067 H   0  0  0  0  0  0  0  0  0  0  0  0
   -1.0754   -0.4707   -2.2386 H   0  0  0  0  0  0  0  0  0  0  0  0
   -2.4172   -1.3267   -1.3126 H   0  0  0  0  0  0  0  0  0  0  0  0
   -2.2787    1.0100   -0.3985 H   0  0  0  0  0  0  0  0  0  0  0  0
   -1.4707   -0.7779    1.6492 H   0  0  0  0  0  0  0  0  0  0  0  0
   -3.6885   -1.0444   -0.0100 H   0  0  0  0  0  0  0  0  0  0  0  0
  1  2  1  0
  2  3  3  0
  3  4  1  0
  4  5  1  0
  5  6  1  0
  6  7  1  0
  7  8  1  0
  8  9  1  0
  7  4  1  0
  8  5  1  0
  1 10  1  0
  1 11  1  0
  1 12  1  0
  4 13  1  0
  5 14  1  0
  6 15  1  0
  6 16  1  0
  7 17  1  0
  8 18  1  0
  9 19  1  0
M  END
