
     RDKit          3D

 21 21  0  0  0  0  0  0  0  0999 V2000
    4.0416   -0.0397   -0.1620 C   0  0  0  0  0  0  0  0  0  0  0  0
    2.6521   -0.5057   -0.0381 C   0  0  0  0  0  0  0  0  0  0  0  0
    1.5099   -0.8795    0.0472 C   0  0  0  0  0  0  0  0  0  0  0  0
    0.1183   -1.3513    0.1639 C   0  0  0  0  0  0  0  0  0  0  0  0
   -0.7737   -0.2230   -0.3088 C   0  0  0  0  0  0  0  0  0  0  0  0
   -2.1797   -0.7110   -0.1864 C   0  0  0  0  0  0  0  0  0  0  0  0
   -2.9803    0.1905    0.3209 C   0  0  0  0  0  0  0  0  0  0  0  0
   -2.2036    1.4121    0.6056 C   0  0  0  0  0  0  0  0  0  0  0  0
   -0.7792    0.9247    0.6975 C   0  0  0  0  0  0  0  0  0  0  0  0
    4.6451   -0.9462   -0.3792 H   0  0  0  0  0  0  0  0  0  0  0  0
    4.3977    0.4773    0.7515 H   0  0  0  0  0  0  0  0  0  0  0  0
    4.1769    0.6390   -1.0233 H   0  0  0  0  0  0  0  0  0  0  0  0
   -0.1258   -1.6373    1.2052 H   0  0  0  0  0  0  0  0  0  0  0  0
    0.0185   -2.2006   -0.5433 H   0  0  0  0  0  0  0  0  0  0  0  0
   -0.5015    0.0950   -1.3231 H   0  0  0  0  0  0  0  0  0  0  0  0
   -2.4787   -1.7200   -0.4962 H   0  0  0  0  0  0  0  0  0  0  0  0
   -4.0675    0.1158    0.5285 H   0  0  0  0  0  0  0  0  0  0  0  0
   -2.3089    2.0849   -0.2719 H   0  0  0  0  0  0  0  0  0  0  0  0
   -2.5222    1.9140    1.5484 H   0  0  0  0  0  0  0  0  0  0  0  0
   -0.1362    1.7702    0.3336 H   0  0  0  0  0  0  0  0  0  0  0  0
   -0.5028    0.5908    1.7132 H   0  0  0  0  0  0  0  0  0  0  0  0
  1  2  1  0
  2  3  3  0
  3  4  1  0
  4  5  1  0
  5  6  1  0
  6  7  2  0
  7  8  1  0
  8  9  1  0
  9  5  1  0
  1 10  1  0
  1 11  1  0
  1 12  1  0
  4 13  1  0
  4 14  1  0
  5 15  1  0
  6 16  1  0
  7 17  1  0
  8 18  1  0
  8 19  1  0
  9 20  1  0
  9 21  1  0
M  END
