
     RDKit          3D

 23 23  0  0  0  0  0  0  0  0999 V2000
    3.4553   -2.0877   -0.5398 C   0  0  0  0  0  0  0  0  0  0  0  0
    2.2656   -1.2293   -0.5922 C   0  0  0  0  0  0  0  0  0  0  0  0
    1.2955   -0.5058   -0.6446 C   0  0  0  0  0  0  0  0  0  0  0  0
    0.1319    0.3346   -0.6945 C   0  0  0  0  0  0  0  0  0  0  0  0
    0.0874    1.3434   -1.8180 C   0  0  0  0  0  0  0  0  0  0  0  0
   -1.1654   -0.4645   -0.6016 C   0  0  0  0  0  0  0  0  0  0  0  0
   -1.7167    0.7023    0.2253 C   0  0  0  0  0  0  0  0  0  0  0  0
   -2.5415    0.2870    1.4026 C   0  0  0  0  0  0  0  0  0  0  0  0
   -0.2682    0.9855    0.6257 C   0  0  0  0  0  0  0  0  0  0  0  0
    4.1712   -1.6954    0.2378 H   0  0  0  0  0  0  0  0  0  0  0  0
    3.1722   -3.1350   -0.3174 H   0  0  0  0  0  0  0  0  0  0  0  0
    4.0383   -2.0086   -1.5047 H   0  0  0  0  0  0  0  0  0  0  0  0
   -0.7714    1.1065   -2.4814 H   0  0  0  0  0  0  0  0  0  0  0  0
    1.0232    1.2749   -2.3954 H   0  0  0  0  0  0  0  0  0  0  0  0
    0.0385    2.3915   -1.4296 H   0  0  0  0  0  0  0  0  0  0  0  0
   -1.6990   -0.5763   -1.5551 H   0  0  0  0  0  0  0  0  0  0  0  0
   -1.0836   -1.3816    0.0057 H   0  0  0  0  0  0  0  0  0  0  0  0
   -2.1568    1.5158   -0.3863 H   0  0  0  0  0  0  0  0  0  0  0  0
   -2.2029   -0.6607    1.8167 H   0  0  0  0  0  0  0  0  0  0  0  0
   -3.6222    0.3117    1.1408 H   0  0  0  0  0  0  0  0  0  0  0  0
   -2.3998    1.0677    2.1939 H   0  0  0  0  0  0  0  0  0  0  0  0
   -0.0195    0.3671    1.5204 H   0  0  0  0  0  0  0  0  0  0  0  0
   -0.0321    2.0570    0.6986 H   0  0  0  0  0  0  0  0  0  0  0  0
  1  2  1  0
  2  3  3  0
  3  4  1  0
  4  5  1  0
  4  6  1  0
  6  7  1  0
  7  8  1  0
  7  9  1  0
  9  4  1  0
  1 10  1  0
  1 11  1  0
  1 12  1  0
  5 13  1  0
  5 14  1  0
  5 15  1  0
  6 16  1  0
  6 17  1  0
  7 18  1  0
  8 19  1  0
  8 20  1  0
  8 21  1  0
  9 22  1  0
  9 23  1  0
M  END
