
     RDKit          3D

 21 21  0  0  0  0  0  0  0  0999 V2000
    3.6227   -0.4799   -0.7814 C   0  0  0  0  0  0  0  0  0  0  0  0
    2.2284   -0.1755   -0.4588 C   0  0  0  0  0  0  0  0  0  0  0  0
    1.0754    0.0599   -0.1951 C   0  0  0  0  0  0  0  0  0  0  0  0
   -0.3404    0.3607    0.1313 C   0  0  0  0  0  0  0  0  0  0  0  0
   -0.4861    1.6616    0.4253 O   0  0  0  0  0  0  0  0  0  0  0  0
   -1.7165    2.1293    0.7504 C   0  0  0  0  0  0  0  0  0  0  0  0
   -1.2227   -0.2666   -0.9073 C   0  0  0  0  0  0  0  0  0  0  0  0
   -1.0763   -1.5770   -0.1171 C   0  0  0  0  0  0  0  0  0  0  0  0
   -0.8406   -0.6790    1.1086 C   0  0  0  0  0  0  0  0  0  0  0  0
    3.8950   -0.1617   -1.8146 H   0  0  0  0  0  0  0  0  0  0  0  0
    3.7804   -1.5845   -0.7397 H   0  0  0  0  0  0  0  0  0  0  0  0
    4.3352   -0.0386   -0.0524 H   0  0  0  0  0  0  0  0  0  0  0  0
   -2.0842    1.6037    1.6435 H   0  0  0  0  0  0  0  0  0  0  0  0
   -2.4470    2.1648   -0.0759 H   0  0  0  0  0  0  0  0  0  0  0  0
   -1.5930    3.2062    1.0734 H   0  0  0  0  0  0  0  0  0  0  0  0
   -0.7640   -0.4064   -1.9131 H   0  0  0  0  0  0  0  0  0  0  0  0
   -2.2760    0.0131   -0.9020 H   0  0  0  0  0  0  0  0  0  0  0  0
   -2.0239   -2.1402   -0.0088 H   0  0  0  0  0  0  0  0  0  0  0  0
   -0.2036   -2.1800   -0.3994 H   0  0  0  0  0  0  0  0  0  0  0  0
   -1.7975   -0.4093    1.5620 H   0  0  0  0  0  0  0  0  0  0  0  0
   -0.0653   -1.1007    1.7771 H   0  0  0  0  0  0  0  0  0  0  0  0
  1  2  1  0
  2  3  3  0
  3  4  1  0
  4  5  1  0
  5  6  1  0
  4  7  1  0
  7  8  1  0
  8  9  1  0
  9  4  1  0
  1 10  1  0
  1 11  1  0
  1 12  1  0
  6 13  1  0
  6 14  1  0
  6 15  1  0
  7 16  1  0
  7 17  1  0
  8 18  1  0
  8 19  1  0
  9 20  1  0
  9 21  1  0
M  END
