
     RDKit          3D

 19 20  0  0  0  0  0  0  0  0999 V2000
    3.8931    0.2753    0.1030 C   0  0  0  0  0  0  0  0  0  0  0  0
    2.4858    0.0037   -0.1944 C   0  0  0  0  0  0  0  0  0  0  0  0
    1.3240   -0.2401   -0.4497 C   0  0  0  0  0  0  0  0  0  0  0  0
   -0.0495   -0.5536   -0.7485 C   0  0  0  0  0  0  0  0  0  0  0  0
   -1.0368    0.5723   -1.0055 C   0  0  0  0  0  0  0  0  0  0  0  0
   -2.0468   -0.2211   -0.1881 C   0  0  0  0  0  0  0  0  0  0  0  0
   -2.5747    0.5148    1.0190 C   0  0  0  0  0  0  0  0  0  0  0  0
   -0.9121   -1.1784    0.1316 C   0  0  0  0  0  0  0  0  0  0  0  0
   -0.4292   -1.8594   -0.9565 O   0  0  0  0  0  0  0  0  0  0  0  0
    4.3354    0.9267   -0.6810 H   0  0  0  0  0  0  0  0  0  0  0  0
    4.5106   -0.6656    0.0851 H   0  0  0  0  0  0  0  0  0  0  0  0
    4.0249    0.7837    1.0892 H   0  0  0  0  0  0  0  0  0  0  0  0
   -0.6919    1.5051   -0.5254 H   0  0  0  0  0  0  0  0  0  0  0  0
   -1.2710    0.6792   -2.0712 H   0  0  0  0  0  0  0  0  0  0  0  0
   -2.8501   -0.6886   -0.7832 H   0  0  0  0  0  0  0  0  0  0  0  0
   -3.2552   -0.1836    1.5478 H   0  0  0  0  0  0  0  0  0  0  0  0
   -3.0529    1.4766    0.7524 H   0  0  0  0  0  0  0  0  0  0  0  0
   -1.7240    0.7414    1.7192 H   0  0  0  0  0  0  0  0  0  0  0  0
   -0.6796   -1.4456    1.1563 H   0  0  0  0  0  0  0  0  0  0  0  0
  1  2  1  0
  2  3  3  0
  3  4  1  0
  4  5  1  0
  5  6  1  0
  6  7  1  0
  6  8  1  0
  8  9  1  0
  8  4  1  0
  9  4  1  0
  1 10  1  0
  1 11  1  0
  1 12  1  0
  5 13  1  0
  5 14  1  0
  6 15  1  0
  7 16  1  0
  7 17  1  0
  7 18  1  0
  8 19  1  0
M  END
