
     RDKit          3D

 19 19  0  0  0  0  0  0  0  0999 V2000
    4.1159    0.1517   -0.0423 C   0  0  0  0  0  0  0  0  0  0  0  0
    2.6876    0.0689    0.2574 C   0  0  0  0  0  0  0  0  0  0  0  0
    1.5036    0.0207    0.5007 C   0  0  0  0  0  0  0  0  0  0  0  0
    0.0987   -0.0119    0.7938 C   0  0  0  0  0  0  0  0  0  0  0  0
   -0.6676   -1.0500   -0.0382 C   0  0  0  0  0  0  0  0  0  0  0  0
   -1.7399   -0.0302    0.2568 C   0  0  0  0  0  0  0  0  0  0  0  0
   -2.8119    0.1182   -0.7988 C   0  0  0  0  0  0  0  0  0  0  0  0
   -3.4455    1.3371   -0.7316 O   0  0  0  0  0  0  0  0  0  0  0  0
   -0.7120    0.9379    0.1706 O   0  0  0  0  0  0  0  0  0  0  0  0
    4.4347    1.2212   -0.0232 H   0  0  0  0  0  0  0  0  0  0  0  0
    4.7308   -0.4002    0.6941 H   0  0  0  0  0  0  0  0  0  0  0  0
    4.2999   -0.2882   -1.0584 H   0  0  0  0  0  0  0  0  0  0  0  0
   -0.1813   -0.1001    1.8613 H   0  0  0  0  0  0  0  0  0  0  0  0
   -0.7684   -2.0274    0.4300 H   0  0  0  0  0  0  0  0  0  0  0  0
   -0.4209   -1.0355   -1.1126 H   0  0  0  0  0  0  0  0  0  0  0  0
   -2.1254   -0.0501    1.2797 H   0  0  0  0  0  0  0  0  0  0  0  0
   -3.5590   -0.6786   -0.6039 H   0  0  0  0  0  0  0  0  0  0  0  0
   -2.4072   -0.0942   -1.8127 H   0  0  0  0  0  0  0  0  0  0  0  0
   -3.0321    1.9109   -0.0228 H   0  0  0  0  0  0  0  0  0  0  0  0
  1  2  1  0
  2  3  3  0
  3  4  1  0
  4  5  1  0
  5  6  1  0
  6  7  1  0
  7  8  1  0
  6  9  1  0
  9  4  1  0
  1 10  1  0
  1 11  1  0
  1 12  1  0
  4 13  1  0
  5 14  1  0
  5 15  1  0
  6 16  1  0
  7 17  1  0
  7 18  1  0
  8 19  1  0
M  END
