
     RDKit          3D

 19 18  0  0  0  0  0  0  0  0999 V2000
    1.8526    0.2829    2.9753 C   0  0  0  0  0  0  0  0  0  0  0  0
    1.0187   -0.0610    1.8596 C   0  0  0  0  0  0  0  0  0  0  0  0
    0.2830   -0.3636    0.8610 C   0  0  0  0  0  0  0  0  0  0  0  0
   -0.5594   -0.6958   -0.2684 C   0  0  0  0  0  0  0  0  0  0  0  0
   -1.8214   -1.2874    0.1634 C   0  0  0  0  0  0  0  0  0  0  0  0
   -0.5955    0.4665   -1.0541 O   0  0  0  0  0  0  0  0  0  0  0  0
   -0.0260    0.3459   -2.2656 C   0  0  0  0  0  0  0  0  0  0  0  0
   -0.2504    1.6951   -2.9714 C   0  0  0  0  0  0  0  0  0  0  0  0
    0.1132    1.9353   -4.0588 O   0  0  0  0  0  0  0  0  0  0  0  0
    2.5935    1.1013    2.6341 H   0  0  0  0  0  0  0  0  0  0  0  0
    2.4827   -0.5397    3.3201 H   0  0  0  0  0  0  0  0  0  0  0  0
    1.2739    0.7726    3.8029 H   0  0  0  0  0  0  0  0  0  0  0  0
    0.0094   -1.4322   -0.9075 H   0  0  0  0  0  0  0  0  0  0  0  0
   -2.1641   -0.9399    1.1814 H   0  0  0  0  0  0  0  0  0  0  0  0
   -1.6288   -2.3874    0.3563 H   0  0  0  0  0  0  0  0  0  0  0  0
   -2.6051   -1.2537   -0.5875 H   0  0  0  0  0  0  0  0  0  0  0  0
    1.1171    0.3432   -2.1317 H   0  0  0  0  0  0  0  0  0  0  0  0
   -0.2879   -0.4161   -2.9516 H   0  0  0  0  0  0  0  0  0  0  0  0
   -0.8055    2.4339   -2.3363 H   0  0  0  0  0  0  0  0  0  0  0  0
  1  2  1  0
  2  3  3  0
  3  4  1  0
  4  5  1  0
  4  6  1  0
  6  7  1  0
  7  8  1  0
  8  9  2  0
  1 10  1  0
  1 11  1  0
  1 12  1  0
  4 13  1  0
  5 14  1  0
  5 15  1  0
  5 16  1  0
  7 17  1  0
  7 18  1  0
  8 19  1  0
M  END
