
     RDKit          3D

 21 20  0  0  0  0  0  0  0  0999 V2000
    4.0827    0.0473    1.2015 C   0  0  0  0  0  0  0  0  0  0  0  0
    2.6401    0.1950    1.0029 C   0  0  0  0  0  0  0  0  0  0  0  0
    1.4552    0.3295    0.8235 C   0  0  0  0  0  0  0  0  0  0  0  0
    0.0018    0.5138    0.5855 C   0  0  0  0  0  0  0  0  0  0  0  0
   -0.5245   -0.7690    0.0206 C   0  0  0  0  0  0  0  0  0  0  0  0
   -2.0018   -0.6907   -0.2579 C   0  0  0  0  0  0  0  0  0  0  0  0
   -2.7049   -0.4212    0.9119 O   0  0  0  0  0  0  0  0  0  0  0  0
   -2.3258    0.3879   -1.2831 C   0  0  0  0  0  0  0  0  0  0  0  0
   -1.6490    0.1740   -2.4768 O   0  0  0  0  0  0  0  0  0  0  0  0
    4.3228    0.2252    2.2711 H   0  0  0  0  0  0  0  0  0  0  0  0
    4.6560    0.8049    0.6046 H   0  0  0  0  0  0  0  0  0  0  0  0
    4.4081   -0.9354    0.8371 H   0  0  0  0  0  0  0  0  0  0  0  0
   -0.1763    1.3604   -0.1080 H   0  0  0  0  0  0  0  0  0  0  0  0
   -0.5258    0.7465    1.5246 H   0  0  0  0  0  0  0  0  0  0  0  0
   -0.0253   -0.9726   -0.9510 H   0  0  0  0  0  0  0  0  0  0  0  0
   -0.3723   -1.6054    0.7278 H   0  0  0  0  0  0  0  0  0  0  0  0
   -2.3703   -1.6661   -0.6293 H   0  0  0  0  0  0  0  0  0  0  0  0
   -2.1124   -0.5562    1.7079 H   0  0  0  0  0  0  0  0  0  0  0  0
   -3.4363    0.4119   -1.4414 H   0  0  0  0  0  0  0  0  0  0  0  0
   -2.0541    1.3885   -0.8875 H   0  0  0  0  0  0  0  0  0  0  0  0
   -1.2879    1.0319   -2.8658 H   0  0  0  0  0  0  0  0  0  0  0  0
  1  2  1  0
  2  3  3  0
  3  4  1  0
  4  5  1  0
  5  6  1  0
  6  7  1  0
  6  8  1  0
  8  9  1  0
  1 10  1  0
  1 11  1  0
  1 12  1  0
  4 13  1  0
  4 14  1  0
  5 15  1  0
  5 16  1  0
  6 17  1  0
  7 18  1  0
  8 19  1  0
  8 20  1  0
  9 21  1  0
M  END
