
     RDKit          3D

 17 17  0  0  0  0  0  0  0  0999 V2000
    3.3000   -0.2307   -0.1409 C   0  0  0  0  0  0  0  0  0  0  0  0
    1.8215   -0.1560   -0.0861 C   0  0  0  0  0  0  0  0  0  0  0  0
    0.6197   -0.0795   -0.0279 C   0  0  0  0  0  0  0  0  0  0  0  0
   -0.8173    0.0286    0.0434 C   0  0  0  0  0  0  0  0  0  0  0  0
   -1.5427   -1.2649    0.3184 C   0  0  0  0  0  0  0  0  0  0  0  0
   -1.3744    1.2265    0.7535 C   0  0  0  0  0  0  0  0  0  0  0  0
   -2.4309    1.1698   -0.2147 O   0  0  0  0  0  0  0  0  0  0  0  0
   -1.4594    0.7189   -1.1191 C   0  0  0  0  0  0  0  0  0  0  0  0
   -1.2900    0.8779   -2.3427 O   0  0  0  0  0  0  0  0  0  0  0  0
    3.6039   -1.2710   -0.3754 H   0  0  0  0  0  0  0  0  0  0  0  0
    3.6444    0.4029   -0.9982 H   0  0  0  0  0  0  0  0  0  0  0  0
    3.7350    0.1612    0.7886 H   0  0  0  0  0  0  0  0  0  0  0  0
   -1.3630   -1.6778    1.3091 H   0  0  0  0  0  0  0  0  0  0  0  0
   -1.3095   -2.0202   -0.4602 H   0  0  0  0  0  0  0  0  0  0  0  0
   -2.6401   -1.0381    0.1762 H   0  0  0  0  0  0  0  0  0  0  0  0
   -0.7810    2.1266    0.5891 H   0  0  0  0  0  0  0  0  0  0  0  0
   -1.7162    1.0256    1.7869 H   0  0  0  0  0  0  0  0  0  0  0  0
  1  2  1  0
  2  3  3  0
  3  4  1  0
  4  5  1  0
  4  6  1  0
  6  7  1  0
  7  8  1  0
  8  9  2  0
  8  4  1  0
  1 10  1  0
  1 11  1  0
  1 12  1  0
  5 13  1  0
  5 14  1  0
  5 15  1  0
  6 16  1  0
  6 17  1  0
M  END
