
     RDKit          3D

 20 20  0  0  0  0  0  0  0  0999 V2000
    3.5947   -1.6333    1.3161 C   0  0  0  0  0  0  0  0  0  0  0  0
    2.4286   -0.8889    0.8341 C   0  0  0  0  0  0  0  0  0  0  0  0
    1.4823   -0.2645    0.4434 C   0  0  0  0  0  0  0  0  0  0  0  0
    0.3002    0.4888   -0.0266 C   0  0  0  0  0  0  0  0  0  0  0  0
   -0.9287    0.2927    0.8141 C   0  0  0  0  0  0  0  0  0  0  0  0
   -0.7951   -0.3544   -0.5447 C   0  0  0  0  0  0  0  0  0  0  0  0
   -1.6779    0.2118   -1.6314 C   0  0  0  0  0  0  0  0  0  0  0  0
   -2.3873    1.4821   -1.1736 C   0  0  0  0  0  0  0  0  0  0  0  0
    3.3580   -2.1436    2.2751 H   0  0  0  0  0  0  0  0  0  0  0  0
    3.9021   -2.4367    0.6048 H   0  0  0  0  0  0  0  0  0  0  0  0
    4.4842   -0.9668    1.4185 H   0  0  0  0  0  0  0  0  0  0  0  0
    0.4633    1.4437   -0.5636 H   0  0  0  0  0  0  0  0  0  0  0  0
   -0.8498   -0.3513    1.7203 H   0  0  0  0  0  0  0  0  0  0  0  0
   -1.5378    1.2006    0.9379 H   0  0  0  0  0  0  0  0  0  0  0  0
   -0.7442   -1.4652   -0.5023 H   0  0  0  0  0  0  0  0  0  0  0  0
   -1.0185    0.5346   -2.4791 H   0  0  0  0  0  0  0  0  0  0  0  0
   -2.3794   -0.5177   -2.0525 H   0  0  0  0  0  0  0  0  0  0  0  0
   -3.0947    1.2668   -0.3776 H   0  0  0  0  0  0  0  0  0  0  0  0
   -1.6614    2.2303   -0.8182 H   0  0  0  0  0  0  0  0  0  0  0  0
   -2.9386    1.8711   -2.0663 H   0  0  0  0  0  0  0  0  0  0  0  0
  1  2  1  0
  2  3  3  0
  3  4  1  0
  4  5  1  0
  5  6  1  0
  6  7  1  0
  7  8  1  0
  6  4  1  0
  1  9  1  0
  1 10  1  0
  1 11  1  0
  4 12  1  0
  5 13  1  0
  5 14  1  0
  6 15  1  0
  7 16  1  0
  7 17  1  0
  8 18  1  0
  8 19  1  0
  8 20  1  0
M  END
