
     RDKit          3D

 19 19  0  0  0  0  0  0  0  0999 V2000
    3.5130   -0.9757    0.4362 C   0  0  0  0  0  0  0  0  0  0  0  0
    2.0548   -0.9360    0.2277 C   0  0  0  0  0  0  0  0  0  0  0  0
    0.8608   -0.8853    0.0627 C   0  0  0  0  0  0  0  0  0  0  0  0
   -0.6036   -0.8458   -0.1295 C   0  0  0  0  0  0  0  0  0  0  0  0
   -1.3834   -0.3310    1.0082 C   0  0  0  0  0  0  0  0  0  0  0  0
   -1.2211    0.5368   -0.1867 C   0  0  0  0  0  0  0  0  0  0  0  0
   -2.3789    0.6637   -1.1636 C   0  0  0  0  0  0  0  0  0  0  0  0
   -0.3367    1.7213   -0.0133 C   0  0  0  0  0  0  0  0  0  0  0  0
    0.6061    1.6840    0.7527 O   0  0  0  0  0  0  0  0  0  0  0  0
    3.7843   -0.4328    1.3692 H   0  0  0  0  0  0  0  0  0  0  0  0
    4.0577   -0.4443   -0.3824 H   0  0  0  0  0  0  0  0  0  0  0  0
    3.8049   -2.0242    0.5211 H   0  0  0  0  0  0  0  0  0  0  0  0
   -1.0418   -1.6469   -0.7675 H   0  0  0  0  0  0  0  0  0  0  0  0
   -0.8949   -0.0375    1.9689 H   0  0  0  0  0  0  0  0  0  0  0  0
   -2.3775   -0.7936    1.1750 H   0  0  0  0  0  0  0  0  0  0  0  0
   -2.8952   -0.3120   -1.2580 H   0  0  0  0  0  0  0  0  0  0  0  0
   -2.0132    0.9173   -2.1985 H   0  0  0  0  0  0  0  0  0  0  0  0
   -3.0446    1.4920   -0.8712 H   0  0  0  0  0  0  0  0  0  0  0  0
   -0.4908    2.6501   -0.5510 H   0  0  0  0  0  0  0  0  0  0  0  0
  1  2  1  0
  2  3  3  0
  3  4  1  0
  4  5  1  0
  5  6  1  0
  6  7  1  0
  6  8  1  0
  8  9  2  0
  6  4  1  0
  1 10  1  0
  1 11  1  0
  1 12  1  0
  4 13  1  0
  5 14  1  0
  5 15  1  0
  7 16  1  0
  7 17  1  0
  7 18  1  0
  8 19  1  0
M  END
