
     RDKit          3D

 21 22  0  0  0  0  0  0  0  0999 V2000
    4.3777    0.5739   -0.0578 C   0  0  0  0  0  0  0  0  0  0  0  0
    2.9457    0.6068    0.2769 C   0  0  0  0  0  0  0  0  0  0  0  0
    1.7705    0.6197    0.5486 C   0  0  0  0  0  0  0  0  0  0  0  0
    0.3499    0.6491    0.8555 C   0  0  0  0  0  0  0  0  0  0  0  0
   -0.2959   -0.6634    1.1382 C   0  0  0  0  0  0  0  0  0  0  0  0
   -1.7993   -0.7203    1.3000 C   0  0  0  0  0  0  0  0  0  0  0  0
   -2.0220    0.1759    0.1214 C   0  0  0  0  0  0  0  0  0  0  0  0
   -2.9317   -0.3464   -0.9538 C   0  0  0  0  0  0  0  0  0  0  0  0
   -0.5453    0.0881   -0.1791 C   0  0  0  0  0  0  0  0  0  0  0  0
    4.4948    0.0789   -1.0363 H   0  0  0  0  0  0  0  0  0  0  0  0
    4.9715    0.0375    0.7067 H   0  0  0  0  0  0  0  0  0  0  0  0
    4.7683    1.6209   -0.0685 H   0  0  0  0  0  0  0  0  0  0  0  0
   -0.0713    1.5078    1.4361 H   0  0  0  0  0  0  0  0  0  0  0  0
    0.2799   -1.6063    1.0936 H   0  0  0  0  0  0  0  0  0  0  0  0
   -2.1824   -1.7536    1.1261 H   0  0  0  0  0  0  0  0  0  0  0  0
   -2.0802   -0.2941    2.2935 H   0  0  0  0  0  0  0  0  0  0  0  0
   -2.3018    1.2284    0.3627 H   0  0  0  0  0  0  0  0  0  0  0  0
   -2.7435   -1.4068   -1.2032 H   0  0  0  0  0  0  0  0  0  0  0  0
   -2.8260    0.3057   -1.8457 H   0  0  0  0  0  0  0  0  0  0  0  0
   -3.9698   -0.2539   -0.5826 H   0  0  0  0  0  0  0  0  0  0  0  0
   -0.1890   -0.4479   -1.0563 H   0  0  0  0  0  0  0  0  0  0  0  0
  1  2  1  0
  2  3  3  0
  3  4  1  0
  4  5  1  0
  5  6  1  0
  6  7  1  0
  7  8  1  0
  7  9  1  0
  9  4  1  0
  9  5  1  0
  1 10  1  0
  1 11  1  0
  1 12  1  0
  4 13  1  0
  5 14  1  0
  6 15  1  0
  6 16  1  0
  7 17  1  0
  8 18  1  0
  8 19  1  0
  8 20  1  0
  9 21  1  0
M  END
