
     RDKit          3D

 23 22  0  0  0  0  0  0  0  0999 V2000
    3.4069    1.5973   -0.3235 C   0  0  0  0  0  0  0  0  0  0  0  0
    2.1333    0.7356   -0.2429 C   0  0  0  0  0  0  0  0  0  0  0  0
    0.9428   -0.0536   -0.1465 C   0  0  0  0  0  0  0  0  0  0  0  0
   -0.0904   -0.7207   -0.0668 C   0  0  0  0  0  0  0  0  0  0  0  0
   -0.7248   -0.2317    1.3823 C   0  0  0  0  0  0  0  0  0  0  0  0
    0.1270   -2.2286    0.2948 C   0  0  0  0  0  0  0  0  0  0  0  0
   -1.1652   -0.5646   -1.0345 C   0  0  0  0  0  0  0  0  0  0  0  0
   -1.9865    0.7274   -0.9556 C   0  0  0  0  0  0  0  0  0  0  0  0
   -1.3712    1.8875   -1.3089 O   0  0  0  0  0  0  0  0  0  0  0  0
    3.9738    1.3030    0.6288 H   0  0  0  0  0  0  0  0  0  0  0  0
    3.7841    1.1804   -1.2327 H   0  0  0  0  0  0  0  0  0  0  0  0
    3.0165    2.6202   -0.2962 H   0  0  0  0  0  0  0  0  0  0  0  0
   -1.8207   -0.4837    1.2567 H   0  0  0  0  0  0  0  0  0  0  0  0
   -0.2604   -0.8008    2.1565 H   0  0  0  0  0  0  0  0  0  0  0  0
   -0.5474    0.8051    1.4171 H   0  0  0  0  0  0  0  0  0  0  0  0
    1.0803   -2.3071    0.8739 H   0  0  0  0  0  0  0  0  0  0  0  0
   -0.6771   -2.4401    1.0883 H   0  0  0  0  0  0  0  0  0  0  0  0
   -0.0803   -2.9140   -0.4902 H   0  0  0  0  0  0  0  0  0  0  0  0
   -0.6196   -0.4599   -2.1025 H   0  0  0  0  0  0  0  0  0  0  0  0
   -1.7948   -1.5150   -1.2477 H   0  0  0  0  0  0  0  0  0  0  0  0
   -2.2301    0.8571    0.1604 H   0  0  0  0  0  0  0  0  0  0  0  0
   -2.9854    0.5007   -1.4564 H   0  0  0  0  0  0  0  0  0  0  0  0
   -2.1106    2.5056   -1.6492 H   0  0  0  0  0  0  0  0  0  0  0  0
  1  2  1  0
  2  3  3  0
  3  4  1  0
  4  5  1  0
  4  6  1  0
  4  7  1  0
  7  8  1  0
  8  9  1  0
  1 10  1  0
  1 11  1  0
  1 12  1  0
  5 13  1  0
  5 14  1  0
  5 15  1  0
  6 16  1  0
  6 17  1  0
  6 18  1  0
  7 19  1  0
  7 20  1  0
  8 21  1  0
  8 22  1  0
  9 23  1  0
M  END
