
     RDKit          3D

 19 20  0  0  0  0  0  0  0  0999 V2000
    2.6225    0.9530    2.4325 C   0  0  0  0  0  0  0  0  0  0  0  0
    1.7704    0.4177    1.3670 C   0  0  0  0  0  0  0  0  0  0  0  0
    1.0723   -0.0406    0.4968 C   0  0  0  0  0  0  0  0  0  0  0  0
    0.1949   -0.6068   -0.5560 C   0  0  0  0  0  0  0  0  0  0  0  0
   -0.6657   -1.7502   -0.0041 C   0  0  0  0  0  0  0  0  0  0  0  0
   -1.8571   -1.0461   -0.6578 C   0  0  0  0  0  0  0  0  0  0  0  0
   -1.0420    0.2014   -0.6862 C   0  0  0  0  0  0  0  0  0  0  0  0
   -1.2907    1.3660   -1.3563 C   0  0  0  0  0  0  0  0  0  0  0  0
   -1.3206    1.2679    0.1300 O   0  0  0  0  0  0  0  0  0  0  0  0
    3.1882    1.8580    2.0993 H   0  0  0  0  0  0  0  0  0  0  0  0
    1.9746    1.2363    3.2866 H   0  0  0  0  0  0  0  0  0  0  0  0
    3.3462    0.1698    2.7088 H   0  0  0  0  0  0  0  0  0  0  0  0
    0.7208   -0.8686   -1.4890 H   0  0  0  0  0  0  0  0  0  0  0  0
   -0.4383   -2.7308   -0.4198 H   0  0  0  0  0  0  0  0  0  0  0  0
   -0.7204   -1.6727    1.1076 H   0  0  0  0  0  0  0  0  0  0  0  0
   -2.7558   -1.0016   -0.0211 H   0  0  0  0  0  0  0  0  0  0  0  0
   -2.0173   -1.4500   -1.6813 H   0  0  0  0  0  0  0  0  0  0  0  0
   -2.2926    1.6262   -1.7751 H   0  0  0  0  0  0  0  0  0  0  0  0
   -0.4894    2.0710   -1.6929 H   0  0  0  0  0  0  0  0  0  0  0  0
  1  2  1  0
  2  3  3  0
  3  4  1  0
  4  5  1  0
  5  6  1  0
  6  7  1  0
  7  8  1  0
  8  9  1  0
  7  4  1  0
  9  7  1  0
  1 10  1  0
  1 11  1  0
  1 12  1  0
  4 13  1  0
  5 14  1  0
  5 15  1  0
  6 16  1  0
  6 17  1  0
  8 18  1  0
  8 19  1  0
M  END
