
     RDKit          3D

 16 17  0  0  0  0  0  0  0  0999 V2000
    3.3484   -0.0581   -0.3388 C   0  0  0  0  0  0  0  0  0  0  0  0
    1.9174   -0.2017   -0.0397 C   0  0  0  0  0  0  0  0  0  0  0  0
    0.7431   -0.3149    0.2219 C   0  0  0  0  0  0  0  0  0  0  0  0
   -0.6937   -0.4388    0.5483 C   0  0  0  0  0  0  0  0  0  0  0  0
   -1.5588   -1.0253   -0.4852 C   0  0  0  0  0  0  0  0  0  0  0  0
   -1.5780    0.4269   -0.2623 C   0  0  0  0  0  0  0  0  0  0  0  0
   -2.1663    0.8911    1.0457 C   0  0  0  0  0  0  0  0  0  0  0  0
   -1.1805    0.1392    1.6916 O   0  0  0  0  0  0  0  0  0  0  0  0
    3.5491    0.8830   -0.9077 H   0  0  0  0  0  0  0  0  0  0  0  0
    3.6782   -0.9175   -0.9702 H   0  0  0  0  0  0  0  0  0  0  0  0
    3.9155    0.0259    0.6040 H   0  0  0  0  0  0  0  0  0  0  0  0
   -2.4144   -1.6406   -0.0929 H   0  0  0  0  0  0  0  0  0  0  0  0
   -1.0828   -1.3945   -1.3912 H   0  0  0  0  0  0  0  0  0  0  0  0
   -1.1784    1.1561   -0.9860 H   0  0  0  0  0  0  0  0  0  0  0  0
   -2.1052    1.9828    1.2042 H   0  0  0  0  0  0  0  0  0  0  0  0
   -3.1934    0.4864    1.1593 H   0  0  0  0  0  0  0  0  0  0  0  0
  1  2  1  0
  2  3  3  0
  3  4  1  0
  4  5  1  0
  5  6  1  0
  6  7  1  0
  7  8  1  0
  6  4  1  0
  8  4  1  0
  1  9  1  0
  1 10  1  0
  1 11  1  0
  5 12  1  0
  5 13  1  0
  6 14  1  0
  7 15  1  0
  7 16  1  0
M  END
