
     RDKit          3D

 21 21  0  0  0  0  0  0  0  0999 V2000
    3.9737    1.9499   -0.0622 C   0  0  0  0  0  0  0  0  0  0  0  0
    2.6702    1.2960   -0.1057 C   0  0  0  0  0  0  0  0  0  0  0  0
    1.5855    0.7305   -0.1511 C   0  0  0  0  0  0  0  0  0  0  0  0
    0.3131    0.0687   -0.2219 C   0  0  0  0  0  0  0  0  0  0  0  0
   -0.8862    0.6186   -0.2405 C   0  0  0  0  0  0  0  0  0  0  0  0
   -1.9397   -0.4144   -0.3190 C   0  0  0  0  0  0  0  0  0  0  0  0
   -2.9451   -0.1622    0.7671 C   0  0  0  0  0  0  0  0  0  0  0  0
   -1.2570   -1.7388   -0.1423 C   0  0  0  0  0  0  0  0  0  0  0  0
    0.1876   -1.4161   -0.2872 C   0  0  0  0  0  0  0  0  0  0  0  0
    4.6864    1.2770   -0.5806 H   0  0  0  0  0  0  0  0  0  0  0  0
    3.9412    2.9596   -0.5391 H   0  0  0  0  0  0  0  0  0  0  0  0
    4.3192    2.1290    0.9838 H   0  0  0  0  0  0  0  0  0  0  0  0
   -1.1060    1.6767   -0.2046 H   0  0  0  0  0  0  0  0  0  0  0  0
   -2.4501   -0.3543   -1.3234 H   0  0  0  0  0  0  0  0  0  0  0  0
   -2.4911    0.4866    1.5437 H   0  0  0  0  0  0  0  0  0  0  0  0
   -3.9017    0.2552    0.3978 H   0  0  0  0  0  0  0  0  0  0  0  0
   -3.1353   -1.1439    1.2893 H   0  0  0  0  0  0  0  0  0  0  0  0
   -1.5351   -2.4489   -0.9602 H   0  0  0  0  0  0  0  0  0  0  0  0
   -1.4590   -2.1930    0.8449 H   0  0  0  0  0  0  0  0  0  0  0  0
    0.7966   -1.8129    0.5579 H   0  0  0  0  0  0  0  0  0  0  0  0
    0.6328   -1.7633   -1.2466 H   0  0  0  0  0  0  0  0  0  0  0  0
  1  2  1  0
  2  3  3  0
  3  4  1  0
  4  5  2  0
  5  6  1  0
  6  7  1  0
  6  8  1  0
  8  9  1  0
  9  4  1  0
  1 10  1  0
  1 11  1  0
  1 12  1  0
  5 13  1  0
  6 14  1  0
  7 15  1  0
  7 16  1  0
  7 17  1  0
  8 18  1  0
  8 19  1  0
  9 20  1  0
  9 21  1  0
M  END
