
     RDKit          3D

 19 19  0  0  0  0  0  0  0  0999 V2000
    4.0493    1.0628    0.2400 C   0  0  0  0  0  0  0  0  0  0  0  0
    2.6217    0.8589   -0.1097 C   0  0  0  0  0  0  0  0  0  0  0  0
    1.4759    0.6794   -0.3887 C   0  0  0  0  0  0  0  0  0  0  0  0
    0.0880    0.4474   -0.7069 C   0  0  0  0  0  0  0  0  0  0  0  0
   -0.0715   -0.6008   -1.6419 O   0  0  0  0  0  0  0  0  0  0  0  0
   -1.4575   -0.8333   -1.4726 C   0  0  0  0  0  0  0  0  0  0  0  0
   -1.5147   -0.9283    0.0298 C   0  0  0  0  0  0  0  0  0  0  0  0
   -2.8718   -0.5608    0.5806 C   0  0  0  0  0  0  0  0  0  0  0  0
   -0.6213    0.0589    0.4143 O   0  0  0  0  0  0  0  0  0  0  0  0
    4.2446    0.7908    1.2871 H   0  0  0  0  0  0  0  0  0  0  0  0
    4.3371    2.1301    0.1293 H   0  0  0  0  0  0  0  0  0  0  0  0
    4.6372    0.4914   -0.4910 H   0  0  0  0  0  0  0  0  0  0  0  0
   -0.4056    1.3261   -1.1749 H   0  0  0  0  0  0  0  0  0  0  0  0
   -1.7853   -1.7480   -1.9629 H   0  0  0  0  0  0  0  0  0  0  0  0
   -1.9637    0.0914   -1.8460 H   0  0  0  0  0  0  0  0  0  0  0  0
   -1.2005   -1.9478    0.3255 H   0  0  0  0  0  0  0  0  0  0  0  0
   -3.1550    0.4146    0.1282 H   0  0  0  0  0  0  0  0  0  0  0  0
   -3.6497   -1.3023    0.3097 H   0  0  0  0  0  0  0  0  0  0  0  0
   -2.7570   -0.4304    1.6746 H   0  0  0  0  0  0  0  0  0  0  0  0
  1  2  1  0
  2  3  3  0
  3  4  1  0
  4  5  1  0
  5  6  1  0
  6  7  1  0
  7  8  1  0
  7  9  1  0
  9  4  1  0
  1 10  1  0
  1 11  1  0
  1 12  1  0
  4 13  1  0
  6 14  1  0
  6 15  1  0
  7 16  1  0
  8 17  1  0
  8 18  1  0
  8 19  1  0
M  END
