
     RDKit          3D

 19 19  0  0  0  0  0  0  0  0999 V2000
    3.7050    0.1074   -0.0442 C   0  0  0  0  0  0  0  0  0  0  0  0
    2.3307   -0.4108   -0.0881 C   0  0  0  0  0  0  0  0  0  0  0  0
    1.1904   -0.8407   -0.1069 C   0  0  0  0  0  0  0  0  0  0  0  0
   -0.1537   -1.3674   -0.1135 C   0  0  0  0  0  0  0  0  0  0  0  0
   -1.0760   -0.4144   -0.8514 C   0  0  0  0  0  0  0  0  0  0  0  0
   -2.3512   -0.9957   -0.8124 O   0  0  0  0  0  0  0  0  0  0  0  0
   -1.1631    0.9151   -0.1717 C   0  0  0  0  0  0  0  0  0  0  0  0
   -2.5083    1.4586    0.2515 C   0  0  0  0  0  0  0  0  0  0  0  0
   -1.5608    0.9192    1.1544 O   0  0  0  0  0  0  0  0  0  0  0  0
    3.8661    0.8648   -0.8639 H   0  0  0  0  0  0  0  0  0  0  0  0
    4.4396   -0.7023   -0.0605 H   0  0  0  0  0  0  0  0  0  0  0  0
    3.8952    0.6748    0.9116 H   0  0  0  0  0  0  0  0  0  0  0  0
   -0.5893   -1.5207    0.8842 H   0  0  0  0  0  0  0  0  0  0  0  0
   -0.2267   -2.3442   -0.6679 H   0  0  0  0  0  0  0  0  0  0  0  0
   -0.7690   -0.2597   -1.9052 H   0  0  0  0  0  0  0  0  0  0  0  0
   -2.5908   -1.1303    0.1513 H   0  0  0  0  0  0  0  0  0  0  0  0
   -0.4327    1.7123   -0.4308 H   0  0  0  0  0  0  0  0  0  0  0  0
   -2.6476    2.5400    0.3394 H   0  0  0  0  0  0  0  0  0  0  0  0
   -3.3577    0.7941    0.0001 H   0  0  0  0  0  0  0  0  0  0  0  0
  1  2  1  0
  2  3  3  0
  3  4  1  0
  4  5  1  0
  5  6  1  0
  5  7  1  0
  7  8  1  0
  8  9  1  0
  9  7  1  0
  1 10  1  0
  1 11  1  0
  1 12  1  0
  4 13  1  0
  4 14  1  0
  5 15  1  0
  6 16  1  0
  7 17  1  0
  8 18  1  0
  8 19  1  0
M  END
