
     RDKit          3D

 19 20  0  0  0  0  0  0  0  0999 V2000
    3.7176   -0.1140   -0.7643 C   0  0  0  0  0  0  0  0  0  0  0  0
    2.2884    0.0068   -0.3787 C   0  0  0  0  0  0  0  0  0  0  0  0
    1.1307    0.0839   -0.0693 C   0  0  0  0  0  0  0  0  0  0  0  0
   -0.2265    0.1561    0.2981 C   0  0  0  0  0  0  0  0  0  0  0  0
   -0.9313   -1.1156    0.7264 C   0  0  0  0  0  0  0  0  0  0  0  0
   -2.2429   -0.4352    1.1764 C   0  0  0  0  0  0  0  0  0  0  0  0
   -1.9024    0.9572    0.6937 C   0  0  0  0  0  0  0  0  0  0  0  0
   -1.2106    0.7677   -0.6487 C   0  0  0  0  0  0  0  0  0  0  0  0
   -0.6185    1.1236    1.2302 O   0  0  0  0  0  0  0  0  0  0  0  0
    4.3059   -0.5475    0.0659 H   0  0  0  0  0  0  0  0  0  0  0  0
    3.7410   -0.6803   -1.6987 H   0  0  0  0  0  0  0  0  0  0  0  0
    4.1486    0.9035   -0.9519 H   0  0  0  0  0  0  0  0  0  0  0  0
   -0.4513   -1.6501    1.5403 H   0  0  0  0  0  0  0  0  0  0  0  0
   -1.1132   -1.7019   -0.1883 H   0  0  0  0  0  0  0  0  0  0  0  0
   -2.3012   -0.4025    2.2812 H   0  0  0  0  0  0  0  0  0  0  0  0
   -3.1100   -0.8694    0.6865 H   0  0  0  0  0  0  0  0  0  0  0  0
   -2.6079    1.7412    0.8005 H   0  0  0  0  0  0  0  0  0  0  0  0
   -1.6761    0.0282   -1.2945 H   0  0  0  0  0  0  0  0  0  0  0  0
   -0.9402    1.7484   -1.0764 H   0  0  0  0  0  0  0  0  0  0  0  0
  1  2  1  0
  2  3  3  0
  3  4  1  0
  4  5  1  0
  5  6  1  0
  6  7  1  0
  7  8  1  0
  7  9  1  0
  8  4  1  0
  9  4  1  0
  1 10  1  0
  1 11  1  0
  1 12  1  0
  5 13  1  0
  5 14  1  0
  6 15  1  0
  6 16  1  0
  7 17  1  0
  8 18  1  0
  8 19  1  0
M  END
