
     RDKit          3D

 21 21  0  0  0  0  0  0  0  0999 V2000
    1.9163   -1.2732    3.2567 C   0  0  0  0  0  0  0  0  0  0  0  0
    1.0217   -0.9169    2.1506 C   0  0  0  0  0  0  0  0  0  0  0  0
    0.2784   -0.6277    1.2028 C   0  0  0  0  0  0  0  0  0  0  0  0
   -0.5942   -0.2780    0.0644 C   0  0  0  0  0  0  0  0  0  0  0  0
   -0.0592    1.0317   -0.6503 C   0  0  0  0  0  0  0  0  0  0  0  0
   -1.0225    2.1477   -0.6501 C   0  0  0  0  0  0  0  0  0  0  0  0
   -0.1610   -0.2657   -1.3068 C   0  0  0  0  0  0  0  0  0  0  0  0
   -1.2509   -0.4680   -2.3741 C   0  0  0  0  0  0  0  0  0  0  0  0
    1.0407   -0.8668   -1.6489 O   0  0  0  0  0  0  0  0  0  0  0  0
    1.4174   -1.9985    3.8977 H   0  0  0  0  0  0  0  0  0  0  0  0
    2.8712   -1.7047    2.7882 H   0  0  0  0  0  0  0  0  0  0  0  0
    2.2710   -0.3770    3.8077 H   0  0  0  0  0  0  0  0  0  0  0  0
   -1.6855   -0.2472    0.2859 H   0  0  0  0  0  0  0  0  0  0  0  0
    0.9523    1.3411   -0.2527 H   0  0  0  0  0  0  0  0  0  0  0  0
   -1.8245    2.1241   -1.4119 H   0  0  0  0  0  0  0  0  0  0  0  0
   -0.4407    3.1010   -0.8415 H   0  0  0  0  0  0  0  0  0  0  0  0
   -1.4377    2.3000    0.3997 H   0  0  0  0  0  0  0  0  0  0  0  0
   -1.2994   -1.5172   -2.6874 H   0  0  0  0  0  0  0  0  0  0  0  0
   -1.1521    0.2221   -3.1992 H   0  0  0  0  0  0  0  0  0  0  0  0
   -2.2438   -0.2446   -1.8757 H   0  0  0  0  0  0  0  0  0  0  0  0
    1.4024   -1.4823   -0.9553 H   0  0  0  0  0  0  0  0  0  0  0  0
  1  2  1  0
  2  3  3  0
  3  4  1  0
  4  5  1  0
  5  6  1  0
  5  7  1  0
  7  8  1  0
  7  9  1  0
  7  4  1  0
  1 10  1  0
  1 11  1  0
  1 12  1  0
  4 13  1  0
  5 14  1  0
  6 15  1  0
  6 16  1  0
  6 17  1  0
  8 18  1  0
  8 19  1  0
  8 20  1  0
  9 21  1  0
M  END
