
     RDKit          3D

 19 19  0  0  0  0  0  0  0  0999 V2000
    3.7327    0.8342   -1.0285 C   0  0  0  0  0  0  0  0  0  0  0  0
    2.4767    0.3463   -0.3619 C   0  0  0  0  0  0  0  0  0  0  0  0
    1.3338   -0.1190    0.2337 C   0  0  0  0  0  0  0  0  0  0  0  0
    0.1540   -0.5966    0.8343 C   0  0  0  0  0  0  0  0  0  0  0  0
   -0.8547    0.5866    1.1729 C   0  0  0  0  0  0  0  0  0  0  0  0
   -0.2814    1.8620    0.9601 O   0  0  0  0  0  0  0  0  0  0  0  0
   -1.1049   -0.3270    0.0296 C   0  0  0  0  0  0  0  0  0  0  0  0
   -2.1773   -1.2109    0.1231 O   0  0  0  0  0  0  0  0  0  0  0  0
   -3.0171   -1.3036   -0.9575 C   0  0  0  0  0  0  0  0  0  0  0  0
    3.9375    1.8659   -0.7526 H   0  0  0  0  0  0  0  0  0  0  0  0
    3.4844    0.6944   -2.1384 H   0  0  0  0  0  0  0  0  0  0  0  0
    4.5151    0.0954   -0.7987 H   0  0  0  0  0  0  0  0  0  0  0  0
    0.1749   -1.3533    1.5861 H   0  0  0  0  0  0  0  0  0  0  0  0
   -1.5321    0.5235    1.9953 H   0  0  0  0  0  0  0  0  0  0  0  0
    0.1290    1.9592    0.0449 H   0  0  0  0  0  0  0  0  0  0  0  0
   -1.0168    0.1491   -0.9419 H   0  0  0  0  0  0  0  0  0  0  0  0
   -3.8145   -2.0856   -0.7476 H   0  0  0  0  0  0  0  0  0  0  0  0
   -2.5275   -1.5719   -1.9114 H   0  0  0  0  0  0  0  0  0  0  0  0
   -3.6119   -0.3487   -1.0920 H   0  0  0  0  0  0  0  0  0  0  0  0
  1  2  1  0
  2  3  3  0
  3  4  1  0
  4  5  1  0
  5  6  1  0
  5  7  1  0
  7  8  1  0
  8  9  1  0
  7  4  1  0
  1 10  1  0
  1 11  1  0
  1 12  1  0
  4 13  1  0
  5 14  1  0
  6 15  1  0
  7 16  1  0
  9 17  1  0
  9 18  1  0
  9 19  1  0
M  END
