
     RDKit          3D

 23 22  0  0  0  0  0  0  0  0999 V2000
    3.8792    0.6891    0.4135 C   0  0  0  0  0  0  0  0  0  0  0  0
    2.6816   -0.1421    0.2939 C   0  0  0  0  0  0  0  0  0  0  0  0
    1.6803   -0.8202    0.1966 C   0  0  0  0  0  0  0  0  0  0  0  0
    0.4872   -1.6543    0.0785 C   0  0  0  0  0  0  0  0  0  0  0  0
   -0.6925   -0.8302    0.4883 C   0  0  0  0  0  0  0  0  0  0  0  0
   -1.9273   -1.6989    0.3643 C   0  0  0  0  0  0  0  0  0  0  0  0
   -0.8240    0.3841   -0.4145 C   0  0  0  0  0  0  0  0  0  0  0  0
   -1.9224    1.1602   -0.0399 O   0  0  0  0  0  0  0  0  0  0  0  0
   -2.0759    2.2686   -0.8327 C   0  0  0  0  0  0  0  0  0  0  0  0
    3.9865    1.3976   -0.4395 H   0  0  0  0  0  0  0  0  0  0  0  0
    3.7749    1.3013    1.3354 H   0  0  0  0  0  0  0  0  0  0  0  0
    4.7847    0.0611    0.4223 H   0  0  0  0  0  0  0  0  0  0  0  0
    0.3083   -2.0174   -0.9476 H   0  0  0  0  0  0  0  0  0  0  0  0
    0.5932   -2.4931    0.7874 H   0  0  0  0  0  0  0  0  0  0  0  0
   -0.6282   -0.5077    1.5515 H   0  0  0  0  0  0  0  0  0  0  0  0
   -2.6503   -1.5130    1.1805 H   0  0  0  0  0  0  0  0  0  0  0  0
   -1.6658   -2.7940    0.4393 H   0  0  0  0  0  0  0  0  0  0  0  0
   -2.4329   -1.5777   -0.6061 H   0  0  0  0  0  0  0  0  0  0  0  0
    0.1237    0.9590   -0.4276 H   0  0  0  0  0  0  0  0  0  0  0  0
   -1.0169    0.0194   -1.4530 H   0  0  0  0  0  0  0  0  0  0  0  0
   -2.9644    2.8250   -0.4691 H   0  0  0  0  0  0  0  0  0  0  0  0
   -1.2131    2.9545   -0.8325 H   0  0  0  0  0  0  0  0  0  0  0  0
   -2.2857    2.0284   -1.8984 H   0  0  0  0  0  0  0  0  0  0  0  0
  1  2  1  0
  2  3  3  0
  3  4  1  0
  4  5  1  0
  5  6  1  0
  5  7  1  0
  7  8  1  0
  8  9  1  0
  1 10  1  0
  1 11  1  0
  1 12  1  0
  4 13  1  0
  4 14  1  0
  5 15  1  0
  6 16  1  0
  6 17  1  0
  6 18  1  0
  7 19  1  0
  7 20  1  0
  9 21  1  0
  9 22  1  0
  9 23  1  0
M  END
