
     RDKit          3D

 19 18  0  0  0  0  0  0  0  0999 V2000
    4.1127   -1.3760   -0.8065 C   0  0  0  0  0  0  0  0  0  0  0  0
    2.9183   -0.8385   -0.1397 C   0  0  0  0  0  0  0  0  0  0  0  0
    1.9328   -0.3755    0.4067 C   0  0  0  0  0  0  0  0  0  0  0  0
    0.7420    0.1616    1.0673 C   0  0  0  0  0  0  0  0  0  0  0  0
   -0.4294    0.0636    0.1018 C   0  0  0  0  0  0  0  0  0  0  0  0
   -1.6725    0.5841    0.6882 C   0  0  0  0  0  0  0  0  0  0  0  0
   -1.7203    1.0409    1.8378 O   0  0  0  0  0  0  0  0  0  0  0  0
   -2.8184    0.5521   -0.0917 O   0  0  0  0  0  0  0  0  0  0  0  0
   -4.0676    1.0330    0.3887 C   0  0  0  0  0  0  0  0  0  0  0  0
    3.8889   -2.3541   -1.3026 H   0  0  0  0  0  0  0  0  0  0  0  0
    4.5058   -0.6949   -1.5697 H   0  0  0  0  0  0  0  0  0  0  0  0
    4.8627   -1.5962   -0.0052 H   0  0  0  0  0  0  0  0  0  0  0  0
    0.9137    1.2093    1.3845 H   0  0  0  0  0  0  0  0  0  0  0  0
    0.4989   -0.4195    1.9828 H   0  0  0  0  0  0  0  0  0  0  0  0
   -0.5391   -1.0352   -0.1236 H   0  0  0  0  0  0  0  0  0  0  0  0
   -0.1199    0.6115   -0.8136 H   0  0  0  0  0  0  0  0  0  0  0  0
   -3.8611    2.0709    0.7656 H   0  0  0  0  0  0  0  0  0  0  0  0
   -4.7788    1.0068   -0.4402 H   0  0  0  0  0  0  0  0  0  0  0  0
   -4.3687    0.3560    1.2085 H   0  0  0  0  0  0  0  0  0  0  0  0
  1  2  1  0
  2  3  3  0
  3  4  1  0
  4  5  1  0
  5  6  1  0
  6  7  2  0
  6  8  1  0
  8  9  1  0
  1 10  1  0
  1 11  1  0
  1 12  1  0
  4 13  1  0
  4 14  1  0
  5 15  1  0
  5 16  1  0
  9 17  1  0
  9 18  1  0
  9 19  1  0
M  END
