
     RDKit          3D

 23 23  0  0  0  0  0  0  0  0999 V2000
    4.1032   -0.6068    0.8104 C   0  0  0  0  0  0  0  0  0  0  0  0
    2.8507   -0.6360    0.0522 C   0  0  0  0  0  0  0  0  0  0  0  0
    1.8022   -0.6737   -0.5634 C   0  0  0  0  0  0  0  0  0  0  0  0
    0.5319   -0.7214   -1.2895 C   0  0  0  0  0  0  0  0  0  0  0  0
   -0.5807   -0.3579   -0.3333 C   0  0  0  0  0  0  0  0  0  0  0  0
   -0.4387    1.0244    0.2647 C   0  0  0  0  0  0  0  0  0  0  0  0
   -1.9338    1.2143   -0.0109 C   0  0  0  0  0  0  0  0  0  0  0  0
   -2.7461    0.6157    1.1181 C   0  0  0  0  0  0  0  0  0  0  0  0
   -1.7566    0.1992   -1.1456 C   0  0  0  0  0  0  0  0  0  0  0  0
    4.3579    0.4115    1.1399 H   0  0  0  0  0  0  0  0  0  0  0  0
    4.8903   -1.0258    0.1388 H   0  0  0  0  0  0  0  0  0  0  0  0
    4.0095   -1.2282    1.7399 H   0  0  0  0  0  0  0  0  0  0  0  0
    0.3557   -1.7424   -1.6757 H   0  0  0  0  0  0  0  0  0  0  0  0
    0.4985   -0.0354   -2.1440 H   0  0  0  0  0  0  0  0  0  0  0  0
   -0.8600   -1.1169    0.4000 H   0  0  0  0  0  0  0  0  0  0  0  0
    0.1438    1.7007   -0.3951 H   0  0  0  0  0  0  0  0  0  0  0  0
   -0.1985    1.0637    1.3344 H   0  0  0  0  0  0  0  0  0  0  0  0
   -2.2179    2.2090   -0.3446 H   0  0  0  0  0  0  0  0  0  0  0  0
   -3.5822    1.3128    1.3328 H   0  0  0  0  0  0  0  0  0  0  0  0
   -3.0932   -0.3966    0.8598 H   0  0  0  0  0  0  0  0  0  0  0  0
   -2.1606    0.5288    2.0543 H   0  0  0  0  0  0  0  0  0  0  0  0
   -2.5860   -0.4871   -1.2882 H   0  0  0  0  0  0  0  0  0  0  0  0
   -1.3892    0.7267   -2.0550 H   0  0  0  0  0  0  0  0  0  0  0  0
  1  2  1  0
  2  3  3  0
  3  4  1  0
  4  5  1  0
  5  6  1  0
  6  7  1  0
  7  8  1  0
  7  9  1  0
  9  5  1  0
  1 10  1  0
  1 11  1  0
  1 12  1  0
  4 13  1  0
  4 14  1  0
  5 15  1  0
  6 16  1  0
  6 17  1  0
  7 18  1  0
  8 19  1  0
  8 20  1  0
  8 21  1  0
  9 22  1  0
  9 23  1  0
M  END
