
     RDKit          3D

 23 23  0  0  0  0  0  0  0  0999 V2000
    3.5597    1.3769    2.6311 C   0  0  0  0  0  0  0  0  0  0  0  0
    2.5937    0.7162    1.7447 C   0  0  0  0  0  0  0  0  0  0  0  0
    1.8030    0.1587    0.9914 C   0  0  0  0  0  0  0  0  0  0  0  0
    0.8411   -0.4943    0.1050 C   0  0  0  0  0  0  0  0  0  0  0  0
   -0.1408   -1.3792    0.7365 C   0  0  0  0  0  0  0  0  0  0  0  0
   -0.6002   -0.0700    0.2647 C   0  0  0  0  0  0  0  0  0  0  0  0
   -1.3153    0.1650   -1.0232 C   0  0  0  0  0  0  0  0  0  0  0  0
   -2.7549    0.5845   -0.7882 C   0  0  0  0  0  0  0  0  0  0  0  0
   -1.2332   -1.0091   -1.9779 C   0  0  0  0  0  0  0  0  0  0  0  0
    3.3988    1.0934    3.6928 H   0  0  0  0  0  0  0  0  0  0  0  0
    3.4448    2.4939    2.5980 H   0  0  0  0  0  0  0  0  0  0  0  0
    4.5648    1.0693    2.2761 H   0  0  0  0  0  0  0  0  0  0  0  0
    1.1907   -0.7881   -0.9146 H   0  0  0  0  0  0  0  0  0  0  0  0
   -0.1022   -1.5736    1.8372 H   0  0  0  0  0  0  0  0  0  0  0  0
   -0.4592   -2.2928    0.1799 H   0  0  0  0  0  0  0  0  0  0  0  0
   -0.8511    0.6679    1.0608 H   0  0  0  0  0  0  0  0  0  0  0  0
   -0.8576    1.0313   -1.5902 H   0  0  0  0  0  0  0  0  0  0  0  0
   -3.1661    0.1530    0.1309 H   0  0  0  0  0  0  0  0  0  0  0  0
   -3.3648    0.2102   -1.6575 H   0  0  0  0  0  0  0  0  0  0  0  0
   -2.8677    1.6847   -0.7206 H   0  0  0  0  0  0  0  0  0  0  0  0
   -0.1980   -1.0844   -2.3758 H   0  0  0  0  0  0  0  0  0  0  0  0
   -1.5786   -1.9341   -1.4842 H   0  0  0  0  0  0  0  0  0  0  0  0
   -1.9068   -0.7793   -2.8435 H   0  0  0  0  0  0  0  0  0  0  0  0
  1  2  1  0
  2  3  3  0
  3  4  1  0
  4  5  1  0
  5  6  1  0
  6  7  1  0
  7  8  1  0
  7  9  1  0
  6  4  1  0
  1 10  1  0
  1 11  1  0
  1 12  1  0
  4 13  1  0
  5 14  1  0
  5 15  1  0
  6 16  1  0
  7 17  1  0
  8 18  1  0
  8 19  1  0
  8 20  1  0
  9 21  1  0
  9 22  1  0
  9 23  1  0
M  END
