
     RDKit          3D

 20 20  0  0  0  0  0  0  0  0999 V2000
    3.7613   -0.3582    0.0532 C   0  0  0  0  0  0  0  0  0  0  0  0
    2.2943   -0.3802    0.2366 C   0  0  0  0  0  0  0  0  0  0  0  0
    1.1032   -0.3927    0.4059 C   0  0  0  0  0  0  0  0  0  0  0  0
   -0.3291   -0.4323    0.6154 C   0  0  0  0  0  0  0  0  0  0  0  0
   -1.0738   -1.4288   -0.2614 C   0  0  0  0  0  0  0  0  0  0  0  0
   -2.1799   -0.3936   -0.3441 C   0  0  0  0  0  0  0  0  0  0  0  0
   -1.0945    0.6482   -0.1353 C   0  0  0  0  0  0  0  0  0  0  0  0
   -1.4768    1.7937    0.7476 C   0  0  0  0  0  0  0  0  0  0  0  0
    4.2958   -0.1263    0.9788 H   0  0  0  0  0  0  0  0  0  0  0  0
    4.1104   -1.2939   -0.4380 H   0  0  0  0  0  0  0  0  0  0  0  0
    3.9897    0.4611   -0.6653 H   0  0  0  0  0  0  0  0  0  0  0  0
   -0.6613   -0.4656    1.6842 H   0  0  0  0  0  0  0  0  0  0  0  0
   -1.3992   -2.3460    0.2631 H   0  0  0  0  0  0  0  0  0  0  0  0
   -0.5094   -1.5911   -1.1950 H   0  0  0  0  0  0  0  0  0  0  0  0
   -2.8576   -0.5102    0.5308 H   0  0  0  0  0  0  0  0  0  0  0  0
   -2.6966   -0.3449   -1.3204 H   0  0  0  0  0  0  0  0  0  0  0  0
   -0.6462    0.9135   -1.1109 H   0  0  0  0  0  0  0  0  0  0  0  0
   -0.8969    1.7298    1.6838 H   0  0  0  0  0  0  0  0  0  0  0  0
   -1.1758    2.7296    0.2481 H   0  0  0  0  0  0  0  0  0  0  0  0
   -2.5575    1.7880    1.0119 H   0  0  0  0  0  0  0  0  0  0  0  0
  1  2  1  0
  2  3  3  0
  3  4  1  0
  4  5  1  0
  5  6  1  0
  6  7  1  0
  7  8  1  0
  7  4  1  0
  1  9  1  0
  1 10  1  0
  1 11  1  0
  4 12  1  0
  5 13  1  0
  5 14  1  0
  6 15  1  0
  6 16  1  0
  7 17  1  0
  8 18  1  0
  8 19  1  0
  8 20  1  0
M  END
