
     RDKit          3D

 19 19  0  0  0  0  0  0  0  0999 V2000
   -2.5739   -0.6681    2.4641 C   0  0  0  0  0  0  0  0  0  0  0  0
   -1.8185   -0.2438    1.6999 C   0  0  0  0  0  0  0  0  0  0  0  0
   -0.9624    0.2178    0.8315 C   0  0  0  0  0  0  0  0  0  0  0  0
    0.0353    0.7522   -0.2150 C   0  0  0  0  0  0  0  0  0  0  0  0
    0.9525   -0.2164   -0.7173 C   0  0  0  0  0  0  0  0  0  0  0  0
    1.8618   -1.1474   -1.2072 C   0  0  0  0  0  0  0  0  0  0  0  0
    2.6881   -2.0007   -1.6480 C   0  0  0  0  0  0  0  0  0  0  0  0
    0.4744    2.1200   -0.0832 C   0  0  0  0  0  0  0  0  0  0  0  0
   -0.5843    1.7301   -1.1509 C   0  0  0  0  0  0  0  0  0  0  0  0
   -2.5392   -1.8249    2.8239 H   0  0  0  0  0  0  0  0  0  0  0  0
   -2.7574   -0.1169    3.5300 H   0  0  0  0  0  0  0  0  0  0  0  0
   -3.7455   -0.6582    2.1907 H   0  0  0  0  0  0  0  0  0  0  0  0
    2.4968   -3.1289   -1.3208 H   0  0  0  0  0  0  0  0  0  0  0  0
    3.7857   -1.9246   -1.1715 H   0  0  0  0  0  0  0  0  0  0  0  0
    2.8480   -2.0655   -2.7756 H   0  0  0  0  0  0  0  0  0  0  0  0
    0.2457    2.9294    0.5374 H   0  0  0  0  0  0  0  0  0  0  0  0
    1.5204    2.2910   -0.6257 H   0  0  0  0  0  0  0  0  0  0  0  0
   -0.2865    1.9065   -2.1757 H   0  0  0  0  0  0  0  0  0  0  0  0
   -1.6409    2.0483   -0.9864 H   0  0  0  0  0  0  0  0  0  0  0  0
  1  2  1  0
  2  3  3  0
  3  4  1  0
  4  5  1  0
  5  6  3  0
  6  7  1  0
  4  8  1  0
  8  9  1  0
  9  4  1  0
  1 10  1  0
  1 11  1  0
  1 12  1  0
  7 13  1  0
  7 14  1  0
  7 15  1  0
  8 16  1  0
  8 17  1  0
  9 18  1  0
  9 19  1  0
M  END
