
     RDKit          3D

 21 21  0  0  0  0  0  0  0  0999 V2000
    3.5301    1.0834   -0.6308 C   0  0  0  0  0  0  0  0  0  0  0  0
    2.2555    0.4719   -0.2236 C   0  0  0  0  0  0  0  0  0  0  0  0
    1.2078   -0.0227    0.0900 C   0  0  0  0  0  0  0  0  0  0  0  0
   -0.0396   -0.6088    0.4887 C   0  0  0  0  0  0  0  0  0  0  0  0
   -0.4847   -1.6666   -0.5289 C   0  0  0  0  0  0  0  0  0  0  0  0
   -1.9560   -1.7900   -0.1097 C   0  0  0  0  0  0  0  0  0  0  0  0
   -2.2925   -0.3343    0.0934 C   0  0  0  0  0  0  0  0  0  0  0  0
   -1.1937    0.3273    0.4337 C   0  0  0  0  0  0  0  0  0  0  0  0
   -1.1107    1.7823    0.7198 C   0  0  0  0  0  0  0  0  0  0  0  0
    3.9175    0.6035   -1.5552 H   0  0  0  0  0  0  0  0  0  0  0  0
    3.4095    2.1748   -0.7951 H   0  0  0  0  0  0  0  0  0  0  0  0
    4.3106    0.9672    0.1405 H   0  0  0  0  0  0  0  0  0  0  0  0
   -0.0309   -1.0839    1.4846 H   0  0  0  0  0  0  0  0  0  0  0  0
   -0.4925   -1.2496   -1.5503 H   0  0  0  0  0  0  0  0  0  0  0  0
    0.0604   -2.6009   -0.4147 H   0  0  0  0  0  0  0  0  0  0  0  0
   -1.9847   -2.3474    0.8523 H   0  0  0  0  0  0  0  0  0  0  0  0
   -2.5670   -2.2471   -0.9001 H   0  0  0  0  0  0  0  0  0  0  0  0
   -3.2750    0.0750   -0.0253 H   0  0  0  0  0  0  0  0  0  0  0  0
   -0.3755    1.9027    1.5566 H   0  0  0  0  0  0  0  0  0  0  0  0
   -0.7888    2.3748   -0.1659 H   0  0  0  0  0  0  0  0  0  0  0  0
   -2.1001    2.1884    1.0401 H   0  0  0  0  0  0  0  0  0  0  0  0
  1  2  1  0
  2  3  3  0
  3  4  1  0
  4  5  1  0
  5  6  1  0
  6  7  1  0
  7  8  2  0
  8  9  1  0
  8  4  1  0
  1 10  1  0
  1 11  1  0
  1 12  1  0
  4 13  1  0
  5 14  1  0
  5 15  1  0
  6 16  1  0
  6 17  1  0
  7 18  1  0
  9 19  1  0
  9 20  1  0
  9 21  1  0
M  END
