
     RDKit          3D

 13 12  0  0  0  0  0  0  0  0999 V2000
    3.1948   -0.1130    2.0207 C   0  0  0  0  0  0  0  0  0  0  0  0
    2.0213   -0.1319    1.3514 C   0  0  0  0  0  0  0  0  0  0  0  0
    1.0898   -0.1300    0.8109 C   0  0  0  0  0  0  0  0  0  0  0  0
   -0.2790   -0.1162    0.0058 C   0  0  0  0  0  0  0  0  0  0  0  0
   -1.1249   -0.0906   -0.4899 C   0  0  0  0  0  0  0  0  0  0  0  0
   -2.2843   -0.0610   -1.1461 C   0  0  0  0  0  0  0  0  0  0  0  0
   -2.7844   -1.3427   -1.5242 O   0  0  0  0  0  0  0  0  0  0  0  0
   -3.1630    0.9582   -1.6274 C   0  0  0  0  0  0  0  0  0  0  0  0
   -4.4474    0.5262   -1.8761 O   0  0  0  0  0  0  0  0  0  0  0  0
    3.0731   -1.2333    2.9006 H   0  0  0  0  0  0  0  0  0  0  0  0
    4.1100   -0.6210    1.6588 H   0  0  0  0  0  0  0  0  0  0  0  0
    3.4289    0.4253    2.9846 H   0  0  0  0  0  0  0  0  0  0  0  0
   -2.8349    1.9301   -1.7495 H   0  0  0  0  0  0  0  0  0  0  0  0
  1  2  1  0
  2  3  3  0
  3  4  1  0
  4  5  3  0
  5  6  1  0
  6  7  2  0
  6  8  1  0
  8  9  2  0
  1 10  1  0
  1 11  1  0
  1 12  1  0
  8 13  1  0
M  END
