
     RDKit          3D

 19 20  0  0  0  0  0  0  0  0999 V2000
    3.8090    0.2071   -0.4938 C   0  0  0  0  0  0  0  0  0  0  0  0
    2.3574    0.2923   -0.3191 C   0  0  0  0  0  0  0  0  0  0  0  0
    1.1568    0.3532   -0.1791 C   0  0  0  0  0  0  0  0  0  0  0  0
   -0.3041    0.4089    0.0093 C   0  0  0  0  0  0  0  0  0  0  0  0
   -1.0394    1.2653   -0.7831 O   0  0  0  0  0  0  0  0  0  0  0  0
   -1.7804    0.2460   -1.3509 C   0  0  0  0  0  0  0  0  0  0  0  0
   -1.0374   -0.7634   -0.5244 C   0  0  0  0  0  0  0  0  0  0  0  0
   -0.9492   -0.5296    0.9387 C   0  0  0  0  0  0  0  0  0  0  0  0
   -2.1678   -0.0503    1.6992 C   0  0  0  0  0  0  0  0  0  0  0  0
    4.2192    1.2133   -0.7782 H   0  0  0  0  0  0  0  0  0  0  0  0
    4.3085   -0.0823    0.4570 H   0  0  0  0  0  0  0  0  0  0  0  0
    4.0920   -0.5698   -1.2443 H   0  0  0  0  0  0  0  0  0  0  0  0
   -2.8810    0.3178   -1.1467 H   0  0  0  0  0  0  0  0  0  0  0  0
   -1.6184    0.1963   -2.4354 H   0  0  0  0  0  0  0  0  0  0  0  0
   -0.4773   -1.5835   -0.9919 H   0  0  0  0  0  0  0  0  0  0  0  0
   -0.2683   -1.1992    1.5021 H   0  0  0  0  0  0  0  0  0  0  0  0
   -2.5995    0.8116    1.1479 H   0  0  0  0  0  0  0  0  0  0  0  0
   -2.9468   -0.8514    1.7892 H   0  0  0  0  0  0  0  0  0  0  0  0
   -1.8732    0.3178    2.7034 H   0  0  0  0  0  0  0  0  0  0  0  0
  1  2  1  0
  2  3  3  0
  3  4  1  0
  4  5  1  0
  5  6  1  0
  6  7  1  0
  7  8  1  0
  8  9  1  0
  7  4  1  0
  8  4  1  0
  1 10  1  0
  1 11  1  0
  1 12  1  0
  6 13  1  0
  6 14  1  0
  7 15  1  0
  8 16  1  0
  9 17  1  0
  9 18  1  0
  9 19  1  0
M  END
