
     RDKit          3D

 16 16  0  0  0  0  0  0  0  0999 V2000
    2.8627    1.2191    1.5533 C   0  0  0  0  0  0  0  0  0  0  0  0
    1.6187    0.5836    1.1352 C   0  0  0  0  0  0  0  0  0  0  0  0
    0.5826    0.0479    0.7646 C   0  0  0  0  0  0  0  0  0  0  0  0
   -0.6409   -0.5834    0.3536 C   0  0  0  0  0  0  0  0  0  0  0  0
   -0.7184   -0.8982   -1.1493 C   0  0  0  0  0  0  0  0  0  0  0  0
   -2.2099   -0.7086   -0.9272 C   0  0  0  0  0  0  0  0  0  0  0  0
   -1.7980    0.2916    0.1278 C   0  0  0  0  0  0  0  0  0  0  0  0
   -2.2986    1.3259    0.5109 O   0  0  0  0  0  0  0  0  0  0  0  0
    2.7797    1.5782    2.6191 H   0  0  0  0  0  0  0  0  0  0  0  0
    3.0789    2.1255    0.9357 H   0  0  0  0  0  0  0  0  0  0  0  0
    3.6879    0.5005    1.4858 H   0  0  0  0  0  0  0  0  0  0  0  0
   -0.9205   -1.5083    0.9306 H   0  0  0  0  0  0  0  0  0  0  0  0
   -0.4092   -1.9312   -1.3836 H   0  0  0  0  0  0  0  0  0  0  0  0
   -0.2480   -0.0922   -1.7551 H   0  0  0  0  0  0  0  0  0  0  0  0
   -2.6194   -1.6654   -0.4909 H   0  0  0  0  0  0  0  0  0  0  0  0
   -2.7477   -0.2849   -1.7769 H   0  0  0  0  0  0  0  0  0  0  0  0
  1  2  1  0
  2  3  3  0
  3  4  1  0
  4  5  1  0
  5  6  1  0
  6  7  1  0
  7  8  2  0
  7  4  1  0
  1  9  1  0
  1 10  1  0
  1 11  1  0
  4 12  1  0
  5 13  1  0
  5 14  1  0
  6 15  1  0
  6 16  1  0
M  END
