
     RDKit          3D

 19 19  0  0  0  0  0  0  0  0999 V2000
    2.3687    2.6682    1.9865 C   0  0  0  0  0  0  0  0  0  0  0  0
    1.5209    1.7471    1.1979 C   0  0  0  0  0  0  0  0  0  0  0  0
    0.8231    0.9686    0.5589 C   0  0  0  0  0  0  0  0  0  0  0  0
    0.0157    0.0424   -0.1711 C   0  0  0  0  0  0  0  0  0  0  0  0
   -0.8687   -0.7455    0.4420 C   0  0  0  0  0  0  0  0  0  0  0  0
   -1.7258   -1.7199   -0.2799 C   0  0  0  0  0  0  0  0  0  0  0  0
   -1.3456   -1.8069   -1.7340 C   0  0  0  0  0  0  0  0  0  0  0  0
   -0.0251   -1.4801   -1.9005 O   0  0  0  0  0  0  0  0  0  0  0  0
    0.1130   -0.1012   -1.6435 C   0  0  0  0  0  0  0  0  0  0  0  0
    1.9044    2.9319    2.9457 H   0  0  0  0  0  0  0  0  0  0  0  0
    2.6042    3.5157    1.3238 H   0  0  0  0  0  0  0  0  0  0  0  0
    3.3525    2.1740    2.2367 H   0  0  0  0  0  0  0  0  0  0  0  0
   -1.0010   -0.7064    1.5227 H   0  0  0  0  0  0  0  0  0  0  0  0
   -2.7921   -1.3773   -0.1885 H   0  0  0  0  0  0  0  0  0  0  0  0
   -1.6770   -2.7066    0.2298 H   0  0  0  0  0  0  0  0  0  0  0  0
   -1.5739   -2.8470   -2.0489 H   0  0  0  0  0  0  0  0  0  0  0  0
   -1.9904   -1.1390   -2.3406 H   0  0  0  0  0  0  0  0  0  0  0  0
   -0.7656    0.3730   -2.1523 H   0  0  0  0  0  0  0  0  0  0  0  0
    1.0626    0.2089   -2.0790 H   0  0  0  0  0  0  0  0  0  0  0  0
  1  2  1  0
  2  3  3  0
  3  4  1  0
  4  5  2  0
  5  6  1  0
  6  7  1  0
  7  8  1  0
  8  9  1  0
  9  4  1  0
  1 10  1  0
  1 11  1  0
  1 12  1  0
  5 13  1  0
  6 14  1  0
  6 15  1  0
  7 16  1  0
  7 17  1  0
  9 18  1  0
  9 19  1  0
M  END
