
     RDKit          3D

 23 23  0  0  0  0  0  0  0  0999 V2000
    2.3292   -1.3676   -3.3010 C   0  0  0  0  0  0  0  0  0  0  0  0
    1.4319   -1.1734   -2.1642 C   0  0  0  0  0  0  0  0  0  0  0  0
    0.6813   -0.9899   -1.2145 C   0  0  0  0  0  0  0  0  0  0  0  0
   -0.2140   -0.7883   -0.0700 C   0  0  0  0  0  0  0  0  0  0  0  0
   -1.0633    0.4279   -0.1363 C   0  0  0  0  0  0  0  0  0  0  0  0
   -2.4976    0.3406    0.4025 C   0  0  0  0  0  0  0  0  0  0  0  0
    0.0827    0.4453    0.7782 C   0  0  0  0  0  0  0  0  0  0  0  0
   -0.0717    0.2070    2.2586 C   0  0  0  0  0  0  0  0  0  0  0  0
    0.2206    1.4160    3.0842 C   0  0  0  0  0  0  0  0  0  0  0  0
    2.0915   -0.6288   -4.1178 H   0  0  0  0  0  0  0  0  0  0  0  0
    2.3252   -2.3990   -3.6733 H   0  0  0  0  0  0  0  0  0  0  0  0
    3.3982   -1.1351   -3.0357 H   0  0  0  0  0  0  0  0  0  0  0  0
   -0.6677   -1.6689    0.4063 H   0  0  0  0  0  0  0  0  0  0  0  0
   -0.9985    1.0617   -1.0454 H   0  0  0  0  0  0  0  0  0  0  0  0
   -2.5696   -0.4394    1.1698 H   0  0  0  0  0  0  0  0  0  0  0  0
   -3.1960    0.0481   -0.4173 H   0  0  0  0  0  0  0  0  0  0  0  0
   -2.8456    1.2976    0.8058 H   0  0  0  0  0  0  0  0  0  0  0  0
    0.9733    1.0423    0.5214 H   0  0  0  0  0  0  0  0  0  0  0  0
   -1.0813   -0.1537    2.5325 H   0  0  0  0  0  0  0  0  0  0  0  0
    0.6363   -0.5952    2.5491 H   0  0  0  0  0  0  0  0  0  0  0  0
   -0.6256    2.1180    3.1849 H   0  0  0  0  0  0  0  0  0  0  0  0
    0.5261    1.0406    4.1046 H   0  0  0  0  0  0  0  0  0  0  0  0
    1.1348    1.8940    2.6763 H   0  0  0  0  0  0  0  0  0  0  0  0
  1  2  1  0
  2  3  3  0
  3  4  1  0
  4  5  1  0
  5  6  1  0
  5  7  1  0
  7  8  1  0
  8  9  1  0
  7  4  1  0
  1 10  1  0
  1 11  1  0
  1 12  1  0
  4 13  1  0
  5 14  1  0
  6 15  1  0
  6 16  1  0
  6 17  1  0
  7 18  1  0
  8 19  1  0
  8 20  1  0
  9 21  1  0
  9 22  1  0
  9 23  1  0
M  END
