
     RDKit          3D

 17 18  0  0  0  0  0  0  0  0999 V2000
    3.6049    0.2995   -0.0525 C   0  0  0  0  0  0  0  0  0  0  0  0
    2.1512    0.1451   -0.2046 C   0  0  0  0  0  0  0  0  0  0  0  0
    0.9454    0.0069   -0.3147 C   0  0  0  0  0  0  0  0  0  0  0  0
   -0.5025   -0.1337   -0.4506 C   0  0  0  0  0  0  0  0  0  0  0  0
   -0.9885   -1.0134   -1.4382 O   0  0  0  0  0  0  0  0  0  0  0  0
   -1.2561   -0.1653    0.8251 C   0  0  0  0  0  0  0  0  0  0  0  0
   -2.7388   -0.3776    0.6947 C   0  0  0  0  0  0  0  0  0  0  0  0
   -2.7602    0.7164   -0.1904 O   0  0  0  0  0  0  0  0  0  0  0  0
   -1.3918    0.9939   -0.1343 C   0  0  0  0  0  0  0  0  0  0  0  0
    4.0319    0.3124   -1.0746 H   0  0  0  0  0  0  0  0  0  0  0  0
    3.9557   -0.5521    0.5538 H   0  0  0  0  0  0  0  0  0  0  0  0
    3.8549    1.2906    0.4019 H   0  0  0  0  0  0  0  0  0  0  0  0
   -0.8147   -1.9337   -1.0843 H   0  0  0  0  0  0  0  0  0  0  0  0
   -0.7794   -0.0358    1.7989 H   0  0  0  0  0  0  0  0  0  0  0  0
   -2.9416   -1.3069    0.1438 H   0  0  0  0  0  0  0  0  0  0  0  0
   -3.3292   -0.2004    1.6130 H   0  0  0  0  0  0  0  0  0  0  0  0
   -1.0412    1.9544    0.2720 H   0  0  0  0  0  0  0  0  0  0  0  0
  1  2  1  0
  2  3  3  0
  3  4  1  0
  4  5  1  0
  4  6  1  0
  6  7  1  0
  7  8  1  0
  8  9  1  0
  9  4  1  0
  9  6  1  0
  1 10  1  0
  1 11  1  0
  1 12  1  0
  5 13  1  0
  6 14  1  0
  7 15  1  0
  7 16  1  0
  9 17  1  0
M  END
