
     RDKit          3D

 25 24  0  0  0  0  0  0  0  0999 V2000
    2.5826    2.6726   -1.5351 C   0  0  0  0  0  0  0  0  0  0  0  0
    2.1723    1.3175   -1.1643 C   0  0  0  0  0  0  0  0  0  0  0  0
    1.8458    0.1934   -0.8407 C   0  0  0  0  0  0  0  0  0  0  0  0
    1.4687   -1.1714   -0.4308 C   0  0  0  0  0  0  0  0  0  0  0  0
    0.3991   -1.0047    0.6587 C   0  0  0  0  0  0  0  0  0  0  0  0
   -0.0882   -2.3115    1.1801 C   0  0  0  0  0  0  0  0  0  0  0  0
   -0.7490   -0.1596    0.1162 C   0  0  0  0  0  0  0  0  0  0  0  0
   -1.7630   -0.0354    1.2360 C   0  0  0  0  0  0  0  0  0  0  0  0
   -2.9549    0.7870    0.8137 C   0  0  0  0  0  0  0  0  0  0  0  0
    1.8069    3.4206   -1.3164 H   0  0  0  0  0  0  0  0  0  0  0  0
    2.8516    2.6506   -2.6234 H   0  0  0  0  0  0  0  0  0  0  0  0
    3.5085    2.9857   -1.0118 H   0  0  0  0  0  0  0  0  0  0  0  0
    1.0674   -1.6800   -1.3089 H   0  0  0  0  0  0  0  0  0  0  0  0
    2.3204   -1.7268   -0.0197 H   0  0  0  0  0  0  0  0  0  0  0  0
    0.8970   -0.4508    1.4825 H   0  0  0  0  0  0  0  0  0  0  0  0
   -0.3447   -2.2877    2.2683 H   0  0  0  0  0  0  0  0  0  0  0  0
    0.6019   -3.1626    0.9908 H   0  0  0  0  0  0  0  0  0  0  0  0
   -1.0467   -2.5865    0.6592 H   0  0  0  0  0  0  0  0  0  0  0  0
   -0.4003    0.8296   -0.2210 H   0  0  0  0  0  0  0  0  0  0  0  0
   -1.1787   -0.6644   -0.7768 H   0  0  0  0  0  0  0  0  0  0  0  0
   -1.2500    0.4371    2.0882 H   0  0  0  0  0  0  0  0  0  0  0  0
   -2.1088   -1.0498    1.4852 H   0  0  0  0  0  0  0  0  0  0  0  0
   -3.8583    0.3530    1.2511 H   0  0  0  0  0  0  0  0  0  0  0  0
   -2.8059    1.8114    1.2038 H   0  0  0  0  0  0  0  0  0  0  0  0
   -2.9738    0.8326   -0.3008 H   0  0  0  0  0  0  0  0  0  0  0  0
  1  2  1  0
  2  3  3  0
  3  4  1  0
  4  5  1  0
  5  6  1  0
  5  7  1  0
  7  8  1  0
  8  9  1  0
  1 10  1  0
  1 11  1  0
  1 12  1  0
  4 13  1  0
  4 14  1  0
  5 15  1  0
  6 16  1  0
  6 17  1  0
  6 18  1  0
  7 19  1  0
  7 20  1  0
  8 21  1  0
  8 22  1  0
  9 23  1  0
  9 24  1  0
  9 25  1  0
M  END
