
     RDKit          3D

 19 20  0  0  0  0  0  0  0  0999 V2000
    3.3971   -1.8498   -0.2861 C   0  0  0  0  0  0  0  0  0  0  0  0
    2.0351   -1.3859   -0.0036 C   0  0  0  0  0  0  0  0  0  0  0  0
    0.9108   -0.9816    0.2347 C   0  0  0  0  0  0  0  0  0  0  0  0
   -0.4116   -0.4873    0.5254 C   0  0  0  0  0  0  0  0  0  0  0  0
   -0.3821    1.0471    0.6841 C   0  0  0  0  0  0  0  0  0  0  0  0
   -1.0741    1.4112   -0.5729 C   0  0  0  0  0  0  0  0  0  0  0  0
   -2.4156    1.5333   -0.9622 C   0  0  0  0  0  0  0  0  0  0  0  0
   -2.1726    0.2819   -0.3905 C   0  0  0  0  0  0  0  0  0  0  0  0
   -1.2697   -0.7215   -0.5847 O   0  0  0  0  0  0  0  0  0  0  0  0
    4.0916   -1.0683    0.0117 H   0  0  0  0  0  0  0  0  0  0  0  0
    3.4944   -2.0617   -1.3901 H   0  0  0  0  0  0  0  0  0  0  0  0
    3.6293   -2.7694    0.3098 H   0  0  0  0  0  0  0  0  0  0  0  0
   -0.8943   -0.9396    1.3889 H   0  0  0  0  0  0  0  0  0  0  0  0
    0.6594    1.4091    0.7150 H   0  0  0  0  0  0  0  0  0  0  0  0
   -0.9497    1.3155    1.5854 H   0  0  0  0  0  0  0  0  0  0  0  0
   -0.3444    1.2287   -1.4260 H   0  0  0  0  0  0  0  0  0  0  0  0
   -2.6780    1.5870   -2.0559 H   0  0  0  0  0  0  0  0  0  0  0  0
   -3.0568    2.2909   -0.4232 H   0  0  0  0  0  0  0  0  0  0  0  0
   -2.5689    0.1602    0.6686 H   0  0  0  0  0  0  0  0  0  0  0  0
  1  2  1  0
  2  3  3  0
  3  4  1  0
  4  5  1  0
  5  6  1  0
  6  7  1  0
  7  8  1  0
  8  9  1  0
  9  4  1  0
  8  6  1  0
  1 10  1  0
  1 11  1  0
  1 12  1  0
  4 13  1  0
  5 14  1  0
  5 15  1  0
  6 16  1  0
  7 17  1  0
  7 18  1  0
  8 19  1  0
M  END
