
     RDKit          3D

 19 20  0  0  0  0  0  0  0  0999 V2000
    4.1082    0.5010   -0.3930 C   0  0  0  0  0  0  0  0  0  0  0  0
    2.7690   -0.0215   -0.0949 C   0  0  0  0  0  0  0  0  0  0  0  0
    1.6693   -0.4354    0.1646 C   0  0  0  0  0  0  0  0  0  0  0  0
    0.3020   -0.9261    0.4724 C   0  0  0  0  0  0  0  0  0  0  0  0
   -0.5842   -0.0142    1.1105 C   0  0  0  0  0  0  0  0  0  0  0  0
   -1.3258    1.0266    0.5544 O   0  0  0  0  0  0  0  0  0  0  0  0
   -2.1705   -0.0483    0.1612 C   0  0  0  0  0  0  0  0  0  0  0  0
   -3.1150    0.3056   -0.9455 C   0  0  0  0  0  0  0  0  0  0  0  0
   -0.8126   -0.5649   -0.3542 C   0  0  0  0  0  0  0  0  0  0  0  0
    4.4972    0.1028   -1.3566 H   0  0  0  0  0  0  0  0  0  0  0  0
    4.0007    1.5981   -0.5123 H   0  0  0  0  0  0  0  0  0  0  0  0
    4.8221    0.3356    0.4346 H   0  0  0  0  0  0  0  0  0  0  0  0
    0.3547   -2.0105    0.7799 H   0  0  0  0  0  0  0  0  0  0  0  0
   -1.2439   -0.4982    1.8978 H   0  0  0  0  0  0  0  0  0  0  0  0
   -2.6207   -0.6204    0.9619 H   0  0  0  0  0  0  0  0  0  0  0  0
   -3.7957    1.1013   -0.5618 H   0  0  0  0  0  0  0  0  0  0  0  0
   -3.7317   -0.5942   -1.1479 H   0  0  0  0  0  0  0  0  0  0  0  0
   -2.5908    0.5930   -1.8683 H   0  0  0  0  0  0  0  0  0  0  0  0
   -0.5324    0.1697   -1.1749 H   0  0  0  0  0  0  0  0  0  0  0  0
  1  2  1  0
  2  3  3  0
  3  4  1  0
  4  5  1  0
  5  6  1  0
  6  7  1  0
  7  8  1  0
  7  9  1  0
  9  4  1  0
  9  5  1  0
  1 10  1  0
  1 11  1  0
  1 12  1  0
  4 13  1  0
  5 14  1  0
  7 15  1  0
  8 16  1  0
  8 17  1  0
  8 18  1  0
  9 19  1  0
M  END
