
     RDKit          3D

 13 12  0  0  0  0  0  0  0  0999 V2000
    2.8225   -0.5650    1.6078 C   0  0  0  0  0  0  0  0  0  0  0  0
    1.8111   -0.7238    0.6772 C   0  0  0  0  0  0  0  0  0  0  0  0
    0.8562   -0.8671   -0.2014 C   0  0  0  0  0  0  0  0  0  0  0  0
   -0.1199   -0.9967   -1.0989 C   0  0  0  0  0  0  0  0  0  0  0  0
   -0.2562   -1.8617   -2.0540 O   0  0  0  0  0  0  0  0  0  0  0  0
   -1.3161   -0.0275   -1.0861 C   0  0  0  0  0  0  0  0  0  0  0  0
   -2.3369    0.7977   -1.0518 C   0  0  0  0  0  0  0  0  0  0  0  0
   -3.3196    1.5709   -1.0161 C   0  0  0  0  0  0  0  0  0  0  0  0
   -3.5091    2.2407   -2.2794 O   0  0  0  0  0  0  0  0  0  0  0  0
    3.9004   -0.8291    1.2630 H   0  0  0  0  0  0  0  0  0  0  0  0
    3.0018    0.4892    2.0255 H   0  0  0  0  0  0  0  0  0  0  0  0
    2.6059   -1.2582    2.4671 H   0  0  0  0  0  0  0  0  0  0  0  0
   -4.1400    2.0305   -0.4822 H   0  0  0  0  0  0  0  0  0  0  0  0
  1  2  1  0
  2  3  3  0
  3  4  1  0
  4  5  2  0
  4  6  1  0
  6  7  3  0
  7  8  1  0
  8  9  2  0
  1 10  1  0
  1 11  1  0
  1 12  1  0
  8 13  1  0
M  END
