
     RDKit          3D

 14 13  0  0  0  0  0  0  0  0999 V2000
   -3.4005   -0.3379   -1.5071 C   0  0  0  0  0  0  0  0  0  0  0  0
   -2.1858   -0.5763   -0.7196 C   0  0  0  0  0  0  0  0  0  0  0  0
   -1.1866   -0.7808   -0.0477 C   0  0  0  0  0  0  0  0  0  0  0  0
   -0.0226   -1.0196    0.7608 C   0  0  0  0  0  0  0  0  0  0  0  0
   -0.1094   -1.9621    1.5964 O   0  0  0  0  0  0  0  0  0  0  0  0
    1.1742   -0.2294    0.6260 C   0  0  0  0  0  0  0  0  0  0  0  0
    2.1925    0.4209    0.5020 C   0  0  0  0  0  0  0  0  0  0  0  0
    3.4240    1.1840    0.3426 C   0  0  0  0  0  0  0  0  0  0  0  0
   -3.9342    0.5870   -1.1401 H   0  0  0  0  0  0  0  0  0  0  0  0
   -4.0606   -1.2269   -1.4327 H   0  0  0  0  0  0  0  0  0  0  0  0
   -3.1435   -0.1107   -2.5715 H   0  0  0  0  0  0  0  0  0  0  0  0
    4.2204    0.6016    0.8821 H   0  0  0  0  0  0  0  0  0  0  0  0
    3.3697    2.1954    0.7483 H   0  0  0  0  0  0  0  0  0  0  0  0
    3.6625    1.2549   -0.7585 H   0  0  0  0  0  0  0  0  0  0  0  0
  1  2  1  0
  2  3  3  0
  3  4  1  0
  4  5  2  0
  4  6  1  0
  6  7  3  0
  7  8  1  0
  1  9  1  0
  1 10  1  0
  1 11  1  0
  8 12  1  0
  8 13  1  0
  8 14  1  0
M  END
