
     RDKit          3D

 21 20  0  0  0  0  0  0  0  0999 V2000
    3.3129    0.7860    2.1831 C   0  0  0  0  0  0  0  0  0  0  0  0
    2.2429    0.2286    1.3289 C   0  0  0  0  0  0  0  0  0  0  0  0
    1.3818   -0.2329    0.6240 C   0  0  0  0  0  0  0  0  0  0  0  0
    0.3370   -0.8088   -0.2635 C   0  0  0  0  0  0  0  0  0  0  0  0
    1.0239   -1.5307   -1.4325 C   0  0  0  0  0  0  0  0  0  0  0  0
   -0.4389    0.2373   -0.7058 O   0  0  0  0  0  0  0  0  0  0  0  0
   -1.7532    0.0502   -0.2867 C   0  0  0  0  0  0  0  0  0  0  0  0
   -2.6639    1.1501   -0.7272 C   0  0  0  0  0  0  0  0  0  0  0  0
   -3.9601    0.9039   -0.2789 O   0  0  0  0  0  0  0  0  0  0  0  0
    4.1690    0.0865    2.2591 H   0  0  0  0  0  0  0  0  0  0  0  0
    2.8592    0.9710    3.1931 H   0  0  0  0  0  0  0  0  0  0  0  0
    3.6487    1.7374    1.7726 H   0  0  0  0  0  0  0  0  0  0  0  0
   -0.2408   -1.5508    0.3129 H   0  0  0  0  0  0  0  0  0  0  0  0
    0.2391   -1.9132   -2.1141 H   0  0  0  0  0  0  0  0  0  0  0  0
    1.5703   -2.4101   -1.0395 H   0  0  0  0  0  0  0  0  0  0  0  0
    1.6554   -0.8299   -2.0005 H   0  0  0  0  0  0  0  0  0  0  0  0
   -2.1539   -0.9512   -0.5328 H   0  0  0  0  0  0  0  0  0  0  0  0
   -1.7386    0.0824    0.8421 H   0  0  0  0  0  0  0  0  0  0  0  0
   -2.3621    2.1245   -0.2500 H   0  0  0  0  0  0  0  0  0  0  0  0
   -2.6641    1.3098   -1.8207 H   0  0  0  0  0  0  0  0  0  0  0  0
   -4.4645    0.5598   -1.0636 H   0  0  0  0  0  0  0  0  0  0  0  0
  1  2  1  0
  2  3  3  0
  3  4  1  0
  4  5  1  0
  4  6  1  0
  6  7  1  0
  7  8  1  0
  8  9  1  0
  1 10  1  0
  1 11  1  0
  1 12  1  0
  4 13  1  0
  5 14  1  0
  5 15  1  0
  5 16  1  0
  7 17  1  0
  7 18  1  0
  8 19  1  0
  8 20  1  0
  9 21  1  0
M  END
