
     RDKit          3D

 21 20  0  0  0  0  0  0  0  0999 V2000
    3.5806   -0.3927   -2.0931 C   0  0  0  0  0  0  0  0  0  0  0  0
    2.4765   -0.3752   -1.1313 C   0  0  0  0  0  0  0  0  0  0  0  0
    1.5584   -0.3796   -0.3215 C   0  0  0  0  0  0  0  0  0  0  0  0
    0.4540   -0.3783    0.6399 C   0  0  0  0  0  0  0  0  0  0  0  0
    0.7617    0.5734    1.7395 C   0  0  0  0  0  0  0  0  0  0  0  0
    1.8123    1.1922    1.7407 O   0  0  0  0  0  0  0  0  0  0  0  0
   -0.8463   -0.0072   -0.0540 C   0  0  0  0  0  0  0  0  0  0  0  0
   -2.0060    0.0036    0.9083 C   0  0  0  0  0  0  0  0  0  0  0  0
   -3.2882    0.3751    0.1956 C   0  0  0  0  0  0  0  0  0  0  0  0
    3.2466    0.0066   -3.0852 H   0  0  0  0  0  0  0  0  0  0  0  0
    4.4114    0.2311   -1.6891 H   0  0  0  0  0  0  0  0  0  0  0  0
    3.8905   -1.4618   -2.1833 H   0  0  0  0  0  0  0  0  0  0  0  0
    0.3443   -1.3955    1.0800 H   0  0  0  0  0  0  0  0  0  0  0  0
    0.0914    0.7534    2.5585 H   0  0  0  0  0  0  0  0  0  0  0  0
   -0.7485    0.9462   -0.5925 H   0  0  0  0  0  0  0  0  0  0  0  0
   -1.0300   -0.7933   -0.8153 H   0  0  0  0  0  0  0  0  0  0  0  0
   -1.7688    0.7295    1.7225 H   0  0  0  0  0  0  0  0  0  0  0  0
   -2.1231   -1.0280    1.2882 H   0  0  0  0  0  0  0  0  0  0  0  0
   -3.0461    1.0504   -0.6490 H   0  0  0  0  0  0  0  0  0  0  0  0
   -3.8103   -0.5318   -0.2012 H   0  0  0  0  0  0  0  0  0  0  0  0
   -3.9603    0.8820    0.9424 H   0  0  0  0  0  0  0  0  0  0  0  0
  1  2  1  0
  2  3  3  0
  3  4  1  0
  4  5  1  0
  5  6  2  0
  4  7  1  0
  7  8  1  0
  8  9  1  0
  1 10  1  0
  1 11  1  0
  1 12  1  0
  4 13  1  0
  5 14  1  0
  7 15  1  0
  7 16  1  0
  8 17  1  0
  8 18  1  0
  9 19  1  0
  9 20  1  0
  9 21  1  0
M  END
