
     RDKit          3D

 23 22  0  0  0  0  0  0  0  0999 V2000
    4.0589    0.5320   -0.1296 C   0  0  0  0  0  0  0  0  0  0  0  0
    2.5117    0.4551    0.5200 C   0  0  0  0  0  0  0  0  0  0  0  0
    1.1538    0.4059    1.1085 C   0  0  0  0  0  0  0  0  0  0  0  0
    0.0238    0.3600    1.5741 C   0  0  0  0  0  0  0  0  0  0  0  0
   -1.0038   -0.1397    0.4603 C   0  0  0  0  0  0  0  0  0  0  0  0
   -0.8645    0.9249   -0.6156 C   0  0  0  0  0  0  0  0  0  0  0  0
   -1.6483    0.8689   -1.8313 C   0  0  0  0  0  0  0  0  0  0  0  0
   -0.6965   -1.3998    0.0535 O   0  0  0  0  0  0  0  0  0  0  0  0
   -1.6131   -2.3827    0.3364 C   0  0  0  0  0  0  0  0  0  0  0  0
    4.4916    1.2754    0.3031 H   0  0  0  0  0  0  0  0  0  0  0  0
    3.9625   -0.2246   -0.8517 H   0  0  0  0  0  0  0  0  0  0  0  0
    4.3571   -0.3685    0.8289 H   0  0  0  0  0  0  0  0  0  0  0  0
   -0.2843    1.7135    1.3130 H   0  0  0  0  0  0  0  0  0  0  0  0
   -0.2224    0.5365    2.5577 H   0  0  0  0  0  0  0  0  0  0  0  0
   -1.9582   -0.1450    0.9340 H   0  0  0  0  0  0  0  0  0  0  0  0
    0.2362    0.8560   -0.9090 H   0  0  0  0  0  0  0  0  0  0  0  0
   -1.0079    1.9291   -0.1115 H   0  0  0  0  0  0  0  0  0  0  0  0
   -2.2311    1.8180   -2.0452 H   0  0  0  0  0  0  0  0  0  0  0  0
   -2.4526    0.0723   -1.8768 H   0  0  0  0  0  0  0  0  0  0  0  0
   -1.0103    0.6934   -2.7472 H   0  0  0  0  0  0  0  0  0  0  0  0
   -1.8482   -2.4564    1.4065 H   0  0  0  0  0  0  0  0  0  0  0  0
   -2.5958   -1.9878   -0.0973 H   0  0  0  0  0  0  0  0  0  0  0  0
   -1.3587   -3.3364   -0.1808 H   0  0  0  0  0  0  0  0  0  0  0  0
  1  2  1  0
  2  3  3  0
  3  4  1  0
  4  5  1  0
  5  6  1  0
  6  7  1  0
  5  8  1  0
  8  9  1  0
  1 10  1  0
  1 11  1  0
  1 12  1  0
  4 13  1  0
  4 14  1  0
  5 15  1  0
  6 16  1  0
  6 17  1  0
  7 18  1  0
  7 19  1  0
  7 20  1  0
  9 21  1  0
  9 22  1  0
  9 23  1  0
M  END
