
     RDKit          3D

 19 19  0  0  0  0  0  0  0  0999 V2000
    3.7066    0.9649    0.1841 C   0  0  0  0  0  0  0  0  0  0  0  0
    2.4154    0.2527    0.1653 C   0  0  0  0  0  0  0  0  0  0  0  0
    1.3496   -0.3128    0.1574 C   0  0  0  0  0  0  0  0  0  0  0  0
    0.0446   -0.9763    0.1479 C   0  0  0  0  0  0  0  0  0  0  0  0
   -0.0148   -1.8586    1.2453 O   0  0  0  0  0  0  0  0  0  0  0  0
   -1.0959    0.0071    0.3300 C   0  0  0  0  0  0  0  0  0  0  0  0
   -2.4030   -0.6034   -0.1500 C   0  0  0  0  0  0  0  0  0  0  0  0
   -2.5874    0.7606   -0.7683 C   0  0  0  0  0  0  0  0  0  0  0  0
   -1.2218    0.9697   -0.6439 O   0  0  0  0  0  0  0  0  0  0  0  0
    4.1550    0.9841    1.1823 H   0  0  0  0  0  0  0  0  0  0  0  0
    3.5747    2.0130   -0.1502 H   0  0  0  0  0  0  0  0  0  0  0  0
    4.3655    0.4814   -0.5830 H   0  0  0  0  0  0  0  0  0  0  0  0
   -0.0498   -1.5689   -0.7628 H   0  0  0  0  0  0  0  0  0  0  0  0
    0.4094   -1.3917    1.9982 H   0  0  0  0  0  0  0  0  0  0  0  0
   -1.1532    0.4349    1.3507 H   0  0  0  0  0  0  0  0  0  0  0  0
   -3.0813   -0.8443    0.6841 H   0  0  0  0  0  0  0  0  0  0  0  0
   -2.2197   -1.3928   -0.8917 H   0  0  0  0  0  0  0  0  0  0  0  0
   -3.2201    1.4102   -0.1250 H   0  0  0  0  0  0  0  0  0  0  0  0
   -2.9740    0.6701   -1.7890 H   0  0  0  0  0  0  0  0  0  0  0  0
  1  2  1  0
  2  3  3  0
  3  4  1  0
  4  5  1  0
  4  6  1  0
  6  7  1  0
  7  8  1  0
  8  9  1  0
  9  6  1  0
  1 10  1  0
  1 11  1  0
  1 12  1  0
  4 13  1  0
  5 14  1  0
  6 15  1  0
  7 16  1  0
  7 17  1  0
  8 18  1  0
  8 19  1  0
M  END
