
     RDKit          3D

 21 21  0  0  0  0  0  0  0  0999 V2000
    3.6206   -0.1704    1.0566 C   0  0  0  0  0  0  0  0  0  0  0  0
    2.4900    0.0477    0.1364 C   0  0  0  0  0  0  0  0  0  0  0  0
    1.5554    0.2361   -0.6066 C   0  0  0  0  0  0  0  0  0  0  0  0
    0.4022    0.4749   -1.4934 C   0  0  0  0  0  0  0  0  0  0  0  0
   -0.7572    0.8441   -0.6244 C   0  0  0  0  0  0  0  0  0  0  0  0
   -1.8656    1.0752   -1.4552 O   0  0  0  0  0  0  0  0  0  0  0  0
   -1.0129   -0.2529    0.3741 C   0  0  0  0  0  0  0  0  0  0  0  0
   -2.1259   -0.0982    1.3451 C   0  0  0  0  0  0  0  0  0  0  0  0
   -2.3144   -1.0381    0.1775 C   0  0  0  0  0  0  0  0  0  0  0  0
    4.1306   -1.1455    0.8079 H   0  0  0  0  0  0  0  0  0  0  0  0
    4.3592    0.6553    0.9257 H   0  0  0  0  0  0  0  0  0  0  0  0
    3.2673   -0.2646    2.0929 H   0  0  0  0  0  0  0  0  0  0  0  0
    0.2392   -0.3991   -2.1268 H   0  0  0  0  0  0  0  0  0  0  0  0
    0.5927    1.3493   -2.1745 H   0  0  0  0  0  0  0  0  0  0  0  0
   -0.4881    1.7686   -0.0717 H   0  0  0  0  0  0  0  0  0  0  0  0
   -1.9265    0.3663   -2.1382 H   0  0  0  0  0  0  0  0  0  0  0  0
   -0.1546   -0.8722    0.7076 H   0  0  0  0  0  0  0  0  0  0  0  0
   -2.0930   -0.5795    2.3277 H   0  0  0  0  0  0  0  0  0  0  0  0
   -2.6708    0.8613    1.3257 H   0  0  0  0  0  0  0  0  0  0  0  0
   -2.9731   -0.7145   -0.6480 H   0  0  0  0  0  0  0  0  0  0  0  0
   -2.2754   -2.1442    0.3977 H   0  0  0  0  0  0  0  0  0  0  0  0
  1  2  1  0
  2  3  3  0
  3  4  1  0
  4  5  1  0
  5  6  1  0
  5  7  1  0
  7  8  1  0
  8  9  1  0
  9  7  1  0
  1 10  1  0
  1 11  1  0
  1 12  1  0
  4 13  1  0
  4 14  1  0
  5 15  1  0
  6 16  1  0
  7 17  1  0
  8 18  1  0
  8 19  1  0
  9 20  1  0
  9 21  1  0
M  END
