
     RDKit          3D

 23 23  0  0  0  0  0  0  0  0999 V2000
    4.1876    0.9945    2.2398 C   0  0  0  0  0  0  0  0  0  0  0  0
    3.0527    0.3129    1.6035 C   0  0  0  0  0  0  0  0  0  0  0  0
    2.1071   -0.2342    1.0897 C   0  0  0  0  0  0  0  0  0  0  0  0
    0.9695   -0.8903    0.4443 C   0  0  0  0  0  0  0  0  0  0  0  0
    0.1770    0.1197   -0.3621 C   0  0  0  0  0  0  0  0  0  0  0  0
   -0.9994   -0.4833   -1.0474 C   0  0  0  0  0  0  0  0  0  0  0  0
   -2.0887   -1.1523   -0.2707 C   0  0  0  0  0  0  0  0  0  0  0  0
   -2.3249    0.1943   -0.7893 C   0  0  0  0  0  0  0  0  0  0  0  0
   -3.1536    0.4616   -2.0123 C   0  0  0  0  0  0  0  0  0  0  0  0
    4.9403    0.2150    2.4612 H   0  0  0  0  0  0  0  0  0  0  0  0
    4.5482    1.7419    1.4994 H   0  0  0  0  0  0  0  0  0  0  0  0
    3.8601    1.5472    3.1586 H   0  0  0  0  0  0  0  0  0  0  0  0
    0.2489   -1.3045    1.1996 H   0  0  0  0  0  0  0  0  0  0  0  0
    1.3330   -1.7217   -0.1657 H   0  0  0  0  0  0  0  0  0  0  0  0
    0.8598    0.5273   -1.1544 H   0  0  0  0  0  0  0  0  0  0  0  0
   -0.1203    0.9928    0.2454 H   0  0  0  0  0  0  0  0  0  0  0  0
   -0.8047   -0.8840   -2.0779 H   0  0  0  0  0  0  0  0  0  0  0  0
   -2.4941   -2.0725   -0.6941 H   0  0  0  0  0  0  0  0  0  0  0  0
   -1.8615   -1.2357    0.8263 H   0  0  0  0  0  0  0  0  0  0  0  0
   -2.3422    1.0433   -0.0573 H   0  0  0  0  0  0  0  0  0  0  0  0
   -2.9178    1.5168   -2.3337 H   0  0  0  0  0  0  0  0  0  0  0  0
   -2.9184   -0.1741   -2.8690 H   0  0  0  0  0  0  0  0  0  0  0  0
   -4.2588    0.4854   -1.7806 H   0  0  0  0  0  0  0  0  0  0  0  0
  1  2  1  0
  2  3  3  0
  3  4  1  0
  4  5  1  0
  5  6  1  0
  6  7  1  0
  7  8  1  0
  8  9  1  0
  8  6  1  0
  1 10  1  0
  1 11  1  0
  1 12  1  0
  4 13  1  0
  4 14  1  0
  5 15  1  0
  5 16  1  0
  6 17  1  0
  7 18  1  0
  7 19  1  0
  8 20  1  0
  9 21  1  0
  9 22  1  0
  9 23  1  0
M  END
