
     RDKit          3D

 17 18  0  0  0  0  0  0  0  0999 V2000
    3.7041    0.3178   -0.3336 C   0  0  0  0  0  0  0  0  0  0  0  0
    2.2954   -0.0871   -0.1563 C   0  0  0  0  0  0  0  0  0  0  0  0
    1.1419   -0.4007    0.0004 C   0  0  0  0  0  0  0  0  0  0  0  0
   -0.2617   -0.7719    0.2133 C   0  0  0  0  0  0  0  0  0  0  0  0
   -1.0868    0.3151    0.8226 C   0  0  0  0  0  0  0  0  0  0  0  0
   -2.5408    0.0003    1.0662 C   0  0  0  0  0  0  0  0  0  0  0  0
   -2.6967   -0.1927   -0.3877 C   0  0  0  0  0  0  0  0  0  0  0  0
   -3.6716   -0.3622   -1.0967 O   0  0  0  0  0  0  0  0  0  0  0  0
   -1.2515   -0.1054   -0.6614 C   0  0  0  0  0  0  0  0  0  0  0  0
    4.3009   -0.5743   -0.5658 H   0  0  0  0  0  0  0  0  0  0  0  0
    3.7858    1.1285   -1.0721 H   0  0  0  0  0  0  0  0  0  0  0  0
    4.0582    0.7080    0.6426 H   0  0  0  0  0  0  0  0  0  0  0  0
   -0.4656   -1.8035    0.5952 H   0  0  0  0  0  0  0  0  0  0  0  0
   -0.7002    1.3323    0.9521 H   0  0  0  0  0  0  0  0  0  0  0  0
   -3.1200    0.8295    1.5079 H   0  0  0  0  0  0  0  0  0  0  0  0
   -2.6168   -0.9265    1.6899 H   0  0  0  0  0  0  0  0  0  0  0  0
   -0.8748    0.5928   -1.4223 H   0  0  0  0  0  0  0  0  0  0  0  0
  1  2  1  0
  2  3  3  0
  3  4  1  0
  4  5  1  0
  5  6  1  0
  6  7  1  0
  7  8  2  0
  7  9  1  0
  9  4  1  0
  9  5  1  0
  1 10  1  0
  1 11  1  0
  1 12  1  0
  4 13  1  0
  5 14  1  0
  6 15  1  0
  6 16  1  0
  9 17  1  0
M  END
