
     RDKit          3D

 21 21  0  0  0  0  0  0  0  0999 V2000
    3.5194    0.7752   -2.5326 C   0  0  0  0  0  0  0  0  0  0  0  0
    2.2770    0.5176   -1.8255 C   0  0  0  0  0  0  0  0  0  0  0  0
    1.2522    0.2844   -1.2343 C   0  0  0  0  0  0  0  0  0  0  0  0
    0.0219   -0.0200   -0.5121 C   0  0  0  0  0  0  0  0  0  0  0  0
   -0.0789    0.6152    0.8356 C   0  0  0  0  0  0  0  0  0  0  0  0
   -1.3571    0.3015    1.5570 C   0  0  0  0  0  0  0  0  0  0  0  0
   -1.6355   -1.1384    1.8467 C   0  0  0  0  0  0  0  0  0  0  0  0
   -2.2206   -1.3062    0.5690 O   0  0  0  0  0  0  0  0  0  0  0  0
   -2.5579    0.0666    0.6659 C   0  0  0  0  0  0  0  0  0  0  0  0
    3.3650    1.2750   -3.5057 H   0  0  0  0  0  0  0  0  0  0  0  0
    4.1269   -0.1252   -2.7069 H   0  0  0  0  0  0  0  0  0  0  0  0
    4.1391    1.4868   -1.9298 H   0  0  0  0  0  0  0  0  0  0  0  0
   -0.8005    0.1779   -1.1925 H   0  0  0  0  0  0  0  0  0  0  0  0
   -0.0250   -1.1369   -0.3268 H   0  0  0  0  0  0  0  0  0  0  0  0
    0.7534    0.3022    1.5128 H   0  0  0  0  0  0  0  0  0  0  0  0
    0.0129    1.7108    0.7187 H   0  0  0  0  0  0  0  0  0  0  0  0
   -1.4974    0.9398    2.4271 H   0  0  0  0  0  0  0  0  0  0  0  0
   -0.7830   -1.7757    2.0736 H   0  0  0  0  0  0  0  0  0  0  0  0
   -2.4848   -1.2432    2.5856 H   0  0  0  0  0  0  0  0  0  0  0  0
   -3.5202    0.1823    1.2317 H   0  0  0  0  0  0  0  0  0  0  0  0
   -2.5067    0.6379   -0.2574 H   0  0  0  0  0  0  0  0  0  0  0  0
  1  2  1  0
  2  3  3  0
  3  4  1  0
  4  5  1  0
  5  6  1  0
  6  7  1  0
  7  8  1  0
  8  9  1  0
  9  6  1  0
  1 10  1  0
  1 11  1  0
  1 12  1  0
  4 13  1  0
  4 14  1  0
  5 15  1  0
  5 16  1  0
  6 17  1  0
  7 18  1  0
  7 19  1  0
  9 20  1  0
  9 21  1  0
M  END
