
     RDKit          3D

 19 20  0  0  0  0  0  0  0  0999 V2000
    4.0928   -0.6747    0.0255 C   0  0  0  0  0  0  0  0  0  0  0  0
    2.6256   -0.4882    0.0549 C   0  0  0  0  0  0  0  0  0  0  0  0
    1.4284   -0.3274    0.0981 C   0  0  0  0  0  0  0  0  0  0  0  0
   -0.0008   -0.1478    0.1717 C   0  0  0  0  0  0  0  0  0  0  0  0
   -0.9265   -1.0813    0.1714 C   0  0  0  0  0  0  0  0  0  0  0  0
   -2.2740   -0.4877    0.2602 C   0  0  0  0  0  0  0  0  0  0  0  0
   -2.6905    0.3192   -0.9269 C   0  0  0  0  0  0  0  0  0  0  0  0
   -2.1112    0.9838    0.2714 C   0  0  0  0  0  0  0  0  0  0  0  0
   -0.6392    1.2029    0.2626 C   0  0  0  0  0  0  0  0  0  0  0  0
    4.3276   -1.6030    0.5880 H   0  0  0  0  0  0  0  0  0  0  0  0
    4.4703   -0.6630   -0.9993 H   0  0  0  0  0  0  0  0  0  0  0  0
    4.6037    0.1716    0.5642 H   0  0  0  0  0  0  0  0  0  0  0  0
   -0.7388   -2.1441    0.1143 H   0  0  0  0  0  0  0  0  0  0  0  0
   -3.0440   -0.9567    0.9029 H   0  0  0  0  0  0  0  0  0  0  0  0
   -2.0624    0.2802   -1.8612 H   0  0  0  0  0  0  0  0  0  0  0  0
   -3.7716    0.4605   -1.1185 H   0  0  0  0  0  0  0  0  0  0  0  0
   -2.7173    1.6344    0.9272 H   0  0  0  0  0  0  0  0  0  0  0  0
   -0.2547    1.7659    1.1338 H   0  0  0  0  0  0  0  0  0  0  0  0
   -0.3173    1.7553   -0.6405 H   0  0  0  0  0  0  0  0  0  0  0  0
  1  2  1  0
  2  3  3  0
  3  4  1  0
  4  5  2  0
  5  6  1  0
  6  7  1  0
  7  8  1  0
  8  9  1  0
  9  4  1  0
  8  6  1  0
  1 10  1  0
  1 11  1  0
  1 12  1  0
  5 13  1  0
  6 14  1  0
  7 15  1  0
  7 16  1  0
  8 17  1  0
  9 18  1  0
  9 19  1  0
M  END
