
     RDKit          3D

 21 20  0  0  0  0  0  0  0  0999 V2000
    3.8475    0.7866   -1.8744 C   0  0  0  0  0  0  0  0  0  0  0  0
    2.7811    0.1968   -0.9960 C   0  0  0  0  0  0  0  0  0  0  0  0
    1.8794   -0.3192   -0.2450 C   0  0  0  0  0  0  0  0  0  0  0  0
    0.9176   -0.8697    0.5818 C   0  0  0  0  0  0  0  0  0  0  0  0
    1.2408   -0.2943    2.0729 C   0  0  0  0  0  0  0  0  0  0  0  0
   -0.4124   -0.3436    0.3852 C   0  0  0  0  0  0  0  0  0  0  0  0
   -1.6251    0.1248    0.2272 C   0  0  0  0  0  0  0  0  0  0  0  0
   -2.9404    0.6106    0.0703 C   0  0  0  0  0  0  0  0  0  0  0  0
   -3.8706   -0.3990   -0.5706 C   0  0  0  0  0  0  0  0  0  0  0  0
    3.4688    1.7704   -2.2506 H   0  0  0  0  0  0  0  0  0  0  0  0
    3.9916    0.1418   -2.7580 H   0  0  0  0  0  0  0  0  0  0  0  0
    4.7469    0.8471   -1.2560 H   0  0  0  0  0  0  0  0  0  0  0  0
    0.9486   -1.9410    0.8016 H   0  0  0  0  0  0  0  0  0  0  0  0
    2.1341   -0.8670    2.3239 H   0  0  0  0  0  0  0  0  0  0  0  0
    0.3057   -0.5737    2.5778 H   0  0  0  0  0  0  0  0  0  0  0  0
    1.4137    0.7556    1.8781 H   0  0  0  0  0  0  0  0  0  0  0  0
   -3.3681    0.7738    1.1434 H   0  0  0  0  0  0  0  0  0  0  0  0
   -3.0513    1.5656   -0.4366 H   0  0  0  0  0  0  0  0  0  0  0  0
   -3.7444   -1.3910   -0.0772 H   0  0  0  0  0  0  0  0  0  0  0  0
   -4.9197   -0.0294   -0.4315 H   0  0  0  0  0  0  0  0  0  0  0  0
   -3.7440   -0.5450   -1.6374 H   0  0  0  0  0  0  0  0  0  0  0  0
  1  2  1  0
  2  3  3  0
  3  4  1  0
  4  5  1  0
  4  6  1  0
  6  7  3  0
  7  8  1  0
  8  9  1  0
  1 10  1  0
  1 11  1  0
  1 12  1  0
  4 13  1  0
  5 14  1  0
  5 15  1  0
  5 16  1  0
  8 17  1  0
  8 18  1  0
  9 19  1  0
  9 20  1  0
  9 21  1  0
M  END
