
     RDKit          3D

 17 17  0  0  0  0  0  0  0  0999 V2000
    0.7950    0.3043    2.8389 C   0  0  0  0  0  0  0  0  0  0  0  0
    0.6165    0.0723    1.3724 C   0  0  0  0  0  0  0  0  0  0  0  0
    0.4534   -0.1116    0.2048 C   0  0  0  0  0  0  0  0  0  0  0  0
    0.2433   -0.3641   -1.2394 C   0  0  0  0  0  0  0  0  0  0  0  0
   -1.1967   -0.2790   -1.6511 C   0  0  0  0  0  0  0  0  0  0  0  0
   -1.7913    1.0481   -1.3849 C   0  0  0  0  0  0  0  0  0  0  0  0
   -1.1845    1.9793   -0.8817 O   0  0  0  0  0  0  0  0  0  0  0  0
    1.2482   -1.0452   -2.0055 C   0  0  0  0  0  0  0  0  0  0  0  0
    1.0889    0.4274   -2.1032 O   0  0  0  0  0  0  0  0  0  0  0  0
   -0.1096   -0.1219    3.3006 H   0  0  0  0  0  0  0  0  0  0  0  0
    0.7987    1.3830    3.0700 H   0  0  0  0  0  0  0  0  0  0  0  0
    1.7420   -0.1586    3.1904 H   0  0  0  0  0  0  0  0  0  0  0  0
   -1.7642   -1.0218   -1.0503 H   0  0  0  0  0  0  0  0  0  0  0  0
   -1.3341   -0.5215   -2.7175 H   0  0  0  0  0  0  0  0  0  0  0  0
   -2.8272    1.2113   -1.6496 H   0  0  0  0  0  0  0  0  0  0  0  0
    2.2349   -1.2302   -1.5688 H   0  0  0  0  0  0  0  0  0  0  0  0
    0.9867   -1.5718   -2.9426 H   0  0  0  0  0  0  0  0  0  0  0  0
  1  2  1  0
  2  3  3  0
  3  4  1  0
  4  5  1  0
  5  6  1  0
  6  7  2  0
  4  8  1  0
  8  9  1  0
  9  4  1  0
  1 10  1  0
  1 11  1  0
  1 12  1  0
  5 13  1  0
  5 14  1  0
  6 15  1  0
  8 16  1  0
  8 17  1  0
M  END
