
     RDKit          3D

 23 22  0  0  0  0  0  0  0  0999 V2000
    2.1625   -0.9034   -3.2237 C   0  0  0  0  0  0  0  0  0  0  0  0
    1.6053   -0.3326   -2.0148 C   0  0  0  0  0  0  0  0  0  0  0  0
    1.1058    0.1600   -0.9178 C   0  0  0  0  0  0  0  0  0  0  0  0
    0.5742    0.6562    0.2434 C   0  0  0  0  0  0  0  0  0  0  0  0
   -0.5529    1.6846    0.0012 C   0  0  0  0  0  0  0  0  0  0  0  0
   -0.9848    2.1820    1.3460 C   0  0  0  0  0  0  0  0  0  0  0  0
    0.0140   -0.4587    1.1300 C   0  0  0  0  0  0  0  0  0  0  0  0
   -0.9898   -1.1486    0.4451 O   0  0  0  0  0  0  0  0  0  0  0  0
   -1.5366   -2.1232    1.2302 C   0  0  0  0  0  0  0  0  0  0  0  0
    1.4822   -0.6015   -4.0539 H   0  0  0  0  0  0  0  0  0  0  0  0
    3.1821   -0.5595   -3.4243 H   0  0  0  0  0  0  0  0  0  0  0  0
    2.1757   -2.0303   -3.1579 H   0  0  0  0  0  0  0  0  0  0  0  0
    1.3130    1.2255    0.8948 H   0  0  0  0  0  0  0  0  0  0  0  0
   -1.3885    1.2377   -0.5631 H   0  0  0  0  0  0  0  0  0  0  0  0
   -0.1130    2.4635   -0.6349 H   0  0  0  0  0  0  0  0  0  0  0  0
   -0.0674    2.2433    1.9687 H   0  0  0  0  0  0  0  0  0  0  0  0
   -1.7393    1.5170    1.8098 H   0  0  0  0  0  0  0  0  0  0  0  0
   -1.4826    3.1661    1.1745 H   0  0  0  0  0  0  0  0  0  0  0  0
   -0.3964    0.0088    2.0252 H   0  0  0  0  0  0  0  0  0  0  0  0
    0.8375   -1.1337    1.3697 H   0  0  0  0  0  0  0  0  0  0  0  0
   -2.3515   -2.6687    0.6700 H   0  0  0  0  0  0  0  0  0  0  0  0
   -0.8194   -2.8957    1.5457 H   0  0  0  0  0  0  0  0  0  0  0  0
   -2.0300   -1.6886    2.1363 H   0  0  0  0  0  0  0  0  0  0  0  0
  1  2  1  0
  2  3  3  0
  3  4  1  0
  4  5  1  0
  5  6  1  0
  4  7  1  0
  7  8  1  0
  8  9  1  0
  1 10  1  0
  1 11  1  0
  1 12  1  0
  4 13  1  0
  5 14  1  0
  5 15  1  0
  6 16  1  0
  6 17  1  0
  6 18  1  0
  7 19  1  0
  7 20  1  0
  9 21  1  0
  9 22  1  0
  9 23  1  0
M  END
