
     RDKit          3D

 17 17  0  0  0  0  0  0  0  0999 V2000
   -3.4693   -0.1806   -0.8488 C   0  0  0  0  0  0  0  0  0  0  0  0
   -2.0195   -0.1764   -0.6830 C   0  0  0  0  0  0  0  0  0  0  0  0
   -0.8027   -0.1936   -0.5483 C   0  0  0  0  0  0  0  0  0  0  0  0
    0.6509   -0.2343   -0.3835 C   0  0  0  0  0  0  0  0  0  0  0  0
    0.9965   -1.4671    0.3497 C   0  0  0  0  0  0  0  0  0  0  0  0
    1.5393   -1.4059    1.4361 O   0  0  0  0  0  0  0  0  0  0  0  0
    1.1664    1.0058    0.3085 C   0  0  0  0  0  0  0  0  0  0  0  0
    2.6701    1.0047    0.4997 C   0  0  0  0  0  0  0  0  0  0  0  0
    1.7464    0.9212    1.5500 O   0  0  0  0  0  0  0  0  0  0  0  0
   -3.9761    0.2251    0.0489 H   0  0  0  0  0  0  0  0  0  0  0  0
   -3.7667   -1.2592   -0.9872 H   0  0  0  0  0  0  0  0  0  0  0  0
   -3.7916    0.4343   -1.7203 H   0  0  0  0  0  0  0  0  0  0  0  0
    1.1185   -0.2411   -1.4069 H   0  0  0  0  0  0  0  0  0  0  0  0
    0.7592   -2.4137   -0.0953 H   0  0  0  0  0  0  0  0  0  0  0  0
    0.7409    1.9372   -0.0768 H   0  0  0  0  0  0  0  0  0  0  0  0
    3.2021    1.9668    0.3382 H   0  0  0  0  0  0  0  0  0  0  0  0
    3.2356    0.0769    0.3536 H   0  0  0  0  0  0  0  0  0  0  0  0
  1  2  1  0
  2  3  3  0
  3  4  1  0
  4  5  1  0
  5  6  2  0
  4  7  1  0
  7  8  1  0
  8  9  1  0
  9  7  1  0
  1 10  1  0
  1 11  1  0
  1 12  1  0
  4 13  1  0
  5 14  1  0
  7 15  1  0
  8 16  1  0
  8 17  1  0
M  END
