
     RDKit          3D

 17 17  0  0  0  0  0  0  0  0999 V2000
    3.2157    0.5905    0.1190 C   0  0  0  0  0  0  0  0  0  0  0  0
    1.8150    0.3890    0.4931 C   0  0  0  0  0  0  0  0  0  0  0  0
    0.6654    0.2202    0.8194 C   0  0  0  0  0  0  0  0  0  0  0  0
   -0.7310   -0.0052    1.2328 C   0  0  0  0  0  0  0  0  0  0  0  0
   -1.1637   -1.3163    0.6229 C   0  0  0  0  0  0  0  0  0  0  0  0
   -1.6653   -0.8936   -0.7098 C   0  0  0  0  0  0  0  0  0  0  0  0
   -1.9449    0.4036   -0.7162 C   0  0  0  0  0  0  0  0  0  0  0  0
   -1.6565    0.9637    0.6064 C   0  0  0  0  0  0  0  0  0  0  0  0
   -2.1236    2.0398    1.0580 O   0  0  0  0  0  0  0  0  0  0  0  0
    3.8984    0.5248    0.9761 H   0  0  0  0  0  0  0  0  0  0  0  0
    3.5349   -0.1648   -0.6358 H   0  0  0  0  0  0  0  0  0  0  0  0
    3.3534    1.5823   -0.3985 H   0  0  0  0  0  0  0  0  0  0  0  0
   -0.8092   -0.0107    2.3392 H   0  0  0  0  0  0  0  0  0  0  0  0
   -0.2681   -1.9708    0.5451 H   0  0  0  0  0  0  0  0  0  0  0  0
   -1.9849   -1.8060    1.1924 H   0  0  0  0  0  0  0  0  0  0  0  0
   -1.8047   -1.5128   -1.5908 H   0  0  0  0  0  0  0  0  0  0  0  0
   -2.3312    0.9664   -1.5777 H   0  0  0  0  0  0  0  0  0  0  0  0
  1  2  1  0
  2  3  3  0
  3  4  1  0
  4  5  1  0
  5  6  1  0
  6  7  2  0
  7  8  1  0
  8  9  2  0
  8  4  1  0
  1 10  1  0
  1 11  1  0
  1 12  1  0
  4 13  1  0
  5 14  1  0
  5 15  1  0
  6 16  1  0
  7 17  1  0
M  END
