
     RDKit          3D

 21 21  0  0  0  0  0  0  0  0999 V2000
    2.8016    1.6350   -0.5696 C   0  0  0  0  0  0  0  0  0  0  0  0
    1.7675    0.7046   -0.0602 C   0  0  0  0  0  0  0  0  0  0  0  0
    0.9176   -0.0395    0.3652 C   0  0  0  0  0  0  0  0  0  0  0  0
   -0.1282   -0.9373    0.8610 C   0  0  0  0  0  0  0  0  0  0  0  0
    0.1174   -2.3889    0.4868 C   0  0  0  0  0  0  0  0  0  0  0  0
   -0.5795   -2.1833   -0.7027 O   0  0  0  0  0  0  0  0  0  0  0  0
   -1.2164   -1.0726   -0.1450 C   0  0  0  0  0  0  0  0  0  0  0  0
   -1.3752    0.0642   -1.1098 C   0  0  0  0  0  0  0  0  0  0  0  0
   -1.6721    1.3613   -0.4054 C   0  0  0  0  0  0  0  0  0  0  0  0
    3.7068    1.0492   -0.9076 H   0  0  0  0  0  0  0  0  0  0  0  0
    2.3630    2.2334   -1.3663 H   0  0  0  0  0  0  0  0  0  0  0  0
    3.1589    2.2411    0.2910 H   0  0  0  0  0  0  0  0  0  0  0  0
   -0.4167   -0.7677    1.9097 H   0  0  0  0  0  0  0  0  0  0  0  0
    1.1990   -2.5352    0.2537 H   0  0  0  0  0  0  0  0  0  0  0  0
   -0.2971   -3.1238    1.1752 H   0  0  0  0  0  0  0  0  0  0  0  0
   -2.1950   -1.3103    0.3257 H   0  0  0  0  0  0  0  0  0  0  0  0
   -0.4553    0.2032   -1.7190 H   0  0  0  0  0  0  0  0  0  0  0  0
   -2.2601   -0.1609   -1.7555 H   0  0  0  0  0  0  0  0  0  0  0  0
   -1.8339    2.1526   -1.1587 H   0  0  0  0  0  0  0  0  0  0  0  0
   -0.9462    1.6386    0.3576 H   0  0  0  0  0  0  0  0  0  0  0  0
   -2.6562    1.2366    0.1216 H   0  0  0  0  0  0  0  0  0  0  0  0
  1  2  1  0
  2  3  3  0
  3  4  1  0
  4  5  1  0
  5  6  1  0
  6  7  1  0
  7  8  1  0
  8  9  1  0
  7  4  1  0
  1 10  1  0
  1 11  1  0
  1 12  1  0
  4 13  1  0
  5 14  1  0
  5 15  1  0
  7 16  1  0
  8 17  1  0
  8 18  1  0
  9 19  1  0
  9 20  1  0
  9 21  1  0
M  END
