
     RDKit          3D

 19 20  0  0  0  0  0  0  0  0999 V2000
   -2.5192   -2.0923    1.7590 C   0  0  0  0  0  0  0  0  0  0  0  0
   -1.4495   -1.4318    1.0074 C   0  0  0  0  0  0  0  0  0  0  0  0
   -0.5698   -0.8719    0.3720 C   0  0  0  0  0  0  0  0  0  0  0  0
    0.4834   -0.2117   -0.4079 C   0  0  0  0  0  0  0  0  0  0  0  0
    1.8208   -0.0460    0.2287 C   0  0  0  0  0  0  0  0  0  0  0  0
    1.8304    1.4335   -0.1074 C   0  0  0  0  0  0  0  0  0  0  0  0
    0.3795    1.2729   -0.5143 C   0  0  0  0  0  0  0  0  0  0  0  0
   -0.5900    1.9771    0.1693 O   0  0  0  0  0  0  0  0  0  0  0  0
    0.1247    0.4497   -1.6861 C   0  0  0  0  0  0  0  0  0  0  0  0
   -2.0410   -2.9493    2.2972 H   0  0  0  0  0  0  0  0  0  0  0  0
   -2.9699   -1.3653    2.4537 H   0  0  0  0  0  0  0  0  0  0  0  0
   -3.2636   -2.5506    1.0757 H   0  0  0  0  0  0  0  0  0  0  0  0
    1.8133   -0.1727    1.3459 H   0  0  0  0  0  0  0  0  0  0  0  0
    2.6312   -0.6346   -0.2029 H   0  0  0  0  0  0  0  0  0  0  0  0
    2.4711    1.7085   -0.9716 H   0  0  0  0  0  0  0  0  0  0  0  0
    1.9267    2.1036    0.7735 H   0  0  0  0  0  0  0  0  0  0  0  0
   -0.1155    2.7448    0.6189 H   0  0  0  0  0  0  0  0  0  0  0  0
    0.9203    0.4093   -2.4704 H   0  0  0  0  0  0  0  0  0  0  0  0
   -0.8829    0.2267   -2.0681 H   0  0  0  0  0  0  0  0  0  0  0  0
  1  2  1  0
  2  3  3  0
  3  4  1  0
  4  5  1  0
  5  6  1  0
  6  7  1  0
  7  8  1  0
  7  9  1  0
  7  4  1  0
  9  4  1  0
  1 10  1  0
  1 11  1  0
  1 12  1  0
  5 13  1  0
  5 14  1  0
  6 15  1  0
  6 16  1  0
  8 17  1  0
  9 18  1  0
  9 19  1  0
M  END
