
     RDKit          3D

 19 21  0  0  0  0  0  0  0  0999 V2000
    3.6048    0.7206    0.6496 C   0  0  0  0  0  0  0  0  0  0  0  0
    2.2585    0.3489    0.2371 C   0  0  0  0  0  0  0  0  0  0  0  0
    1.1283    0.0476   -0.1280 C   0  0  0  0  0  0  0  0  0  0  0  0
   -0.2573   -0.3009   -0.5567 C   0  0  0  0  0  0  0  0  0  0  0  0
   -0.3816   -1.7763   -0.4908 C   0  0  0  0  0  0  0  0  0  0  0  0
   -1.1880   -1.0232    0.4444 C   0  0  0  0  0  0  0  0  0  0  0  0
   -2.3510   -0.2591   -0.2101 C   0  0  0  0  0  0  0  0  0  0  0  0
   -2.4553    1.1549   -0.5685 C   0  0  0  0  0  0  0  0  0  0  0  0
   -1.2117    0.7431   -0.1226 C   0  0  0  0  0  0  0  0  0  0  0  0
    3.5897    0.8401    1.7527 H   0  0  0  0  0  0  0  0  0  0  0  0
    3.9400    1.6861    0.2182 H   0  0  0  0  0  0  0  0  0  0  0  0
    4.3565   -0.0615    0.3606 H   0  0  0  0  0  0  0  0  0  0  0  0
    0.3510   -2.4708   -0.0923 H   0  0  0  0  0  0  0  0  0  0  0  0
   -0.9300   -2.2172   -1.3776 H   0  0  0  0  0  0  0  0  0  0  0  0
   -0.9985   -0.8820    1.5081 H   0  0  0  0  0  0  0  0  0  0  0  0
   -2.7164   -0.8199   -1.0580 H   0  0  0  0  0  0  0  0  0  0  0  0
   -3.1740    1.7345    0.0718 H   0  0  0  0  0  0  0  0  0  0  0  0
   -2.5395    1.5532   -1.6255 H   0  0  0  0  0  0  0  0  0  0  0  0
   -1.0258    0.9820    0.9876 H   0  0  0  0  0  0  0  0  0  0  0  0
  1  2  1  0
  2  3  3  0
  3  4  1  0
  4  5  1  0
  5  6  1  0
  6  7  1  0
  7  8  1  0
  8  9  1  0
  6  4  1  0
  9  7  1  0
  9  4  1  0
  1 10  1  0
  1 11  1  0
  1 12  1  0
  5 13  1  0
  5 14  1  0
  6 15  1  0
  7 16  1  0
  8 17  1  0
  8 18  1  0
  9 19  1  0
M  END
