
     RDKit          3D

 19 19  0  0  0  0  0  0  0  0999 V2000
    3.2974   -0.0568   -1.0740 C   0  0  0  0  0  0  0  0  0  0  0  0
    1.9261    0.0235   -0.5369 C   0  0  0  0  0  0  0  0  0  0  0  0
    0.7933    0.1020   -0.1114 C   0  0  0  0  0  0  0  0  0  0  0  0
   -0.5680    0.2043    0.4259 C   0  0  0  0  0  0  0  0  0  0  0  0
   -0.9160    1.5361    1.0156 C   0  0  0  0  0  0  0  0  0  0  0  0
   -0.9087   -0.9532    1.3642 C   0  0  0  0  0  0  0  0  0  0  0  0
   -2.1919   -1.0818    0.6479 C   0  0  0  0  0  0  0  0  0  0  0  0
   -3.2698   -1.5601    0.9465 O   0  0  0  0  0  0  0  0  0  0  0  0
   -1.5577   -0.3909   -0.5236 C   0  0  0  0  0  0  0  0  0  0  0  0
    3.7530    0.9537   -1.1330 H   0  0  0  0  0  0  0  0  0  0  0  0
    3.9142   -0.6147   -0.3099 H   0  0  0  0  0  0  0  0  0  0  0  0
    3.2704   -0.5949   -2.0262 H   0  0  0  0  0  0  0  0  0  0  0  0
   -1.5202    1.3821    1.9567 H   0  0  0  0  0  0  0  0  0  0  0  0
    0.0423    2.0032    1.3880 H   0  0  0  0  0  0  0  0  0  0  0  0
   -1.4764    2.2012    0.3508 H   0  0  0  0  0  0  0  0  0  0  0  0
   -0.9490   -0.5849    2.3928 H   0  0  0  0  0  0  0  0  0  0  0  0
   -0.2157   -1.8170    1.2166 H   0  0  0  0  0  0  0  0  0  0  0  0
   -2.2700    0.3607   -0.9141 H   0  0  0  0  0  0  0  0  0  0  0  0
   -1.1532   -1.1125   -1.2322 H   0  0  0  0  0  0  0  0  0  0  0  0
  1  2  1  0
  2  3  3  0
  3  4  1  0
  4  5  1  0
  4  6  1  0
  6  7  1  0
  7  8  2  0
  7  9  1  0
  9  4  1  0
  1 10  1  0
  1 11  1  0
  1 12  1  0
  5 13  1  0
  5 14  1  0
  5 15  1  0
  6 16  1  0
  6 17  1  0
  9 18  1  0
  9 19  1  0
M  END
