
     RDKit          3D

 19 19  0  0  0  0  0  0  0  0999 V2000
    3.2568   -1.1096    0.8063 C   0  0  0  0  0  0  0  0  0  0  0  0
    1.9485   -0.5642    0.3815 C   0  0  0  0  0  0  0  0  0  0  0  0
    0.8851   -0.1061    0.0401 C   0  0  0  0  0  0  0  0  0  0  0  0
   -0.3969    0.4529   -0.3468 C   0  0  0  0  0  0  0  0  0  0  0  0
   -0.2501    1.5597   -1.3266 C   0  0  0  0  0  0  0  0  0  0  0  0
    0.8496    1.8577   -1.7608 O   0  0  0  0  0  0  0  0  0  0  0  0
   -1.2658    0.7265    0.8351 C   0  0  0  0  0  0  0  0  0  0  0  0
   -2.3570   -0.0998    0.2090 C   0  0  0  0  0  0  0  0  0  0  0  0
   -1.3464   -0.6373   -0.7969 C   0  0  0  0  0  0  0  0  0  0  0  0
    3.4451   -2.0695    0.2637 H   0  0  0  0  0  0  0  0  0  0  0  0
    4.0058   -0.3406    0.5162 H   0  0  0  0  0  0  0  0  0  0  0  0
    3.3010   -1.2673    1.8983 H   0  0  0  0  0  0  0  0  0  0  0  0
   -1.0875    2.1364   -1.6904 H   0  0  0  0  0  0  0  0  0  0  0  0
   -1.5077    1.7978    0.9555 H   0  0  0  0  0  0  0  0  0  0  0  0
   -0.8726    0.2773    1.7914 H   0  0  0  0  0  0  0  0  0  0  0  0
   -3.1774    0.4754   -0.2605 H   0  0  0  0  0  0  0  0  0  0  0  0
   -2.7791   -0.8685    0.8841 H   0  0  0  0  0  0  0  0  0  0  0  0
   -0.9780   -1.6647   -0.5515 H   0  0  0  0  0  0  0  0  0  0  0  0
   -1.6734   -0.5561   -1.8476 H   0  0  0  0  0  0  0  0  0  0  0  0
  1  2  1  0
  2  3  3  0
  3  4  1  0
  4  5  1  0
  5  6  2  0
  4  7  1  0
  7  8  1  0
  8  9  1  0
  9  4  1  0
  1 10  1  0
  1 11  1  0
  1 12  1  0
  5 13  1  0
  7 14  1  0
  7 15  1  0
  8 16  1  0
  8 17  1  0
  9 18  1  0
  9 19  1  0
M  END
