
     RDKit          3D

 21 20  0  0  0  0  0  0  0  0999 V2000
    4.0057   -0.2828    0.0980 C   0  0  0  0  0  0  0  0  0  0  0  0
    2.5384   -0.1074   -0.0193 C   0  0  0  0  0  0  0  0  0  0  0  0
    1.3546    0.0432   -0.1246 C   0  0  0  0  0  0  0  0  0  0  0  0
   -0.1105    0.2047   -0.2472 C   0  0  0  0  0  0  0  0  0  0  0  0
   -0.6919   -1.1708   -0.3994 C   0  0  0  0  0  0  0  0  0  0  0  0
   -2.1923   -1.0831   -0.5188 C   0  0  0  0  0  0  0  0  0  0  0  0
   -2.6748   -0.5082    0.6529 O   0  0  0  0  0  0  0  0  0  0  0  0
   -0.6057    0.8060    0.8714 O   0  0  0  0  0  0  0  0  0  0  0  0
   -1.1846    2.0472    0.6341 C   0  0  0  0  0  0  0  0  0  0  0  0
    4.4993   -0.1379   -0.8798 H   0  0  0  0  0  0  0  0  0  0  0  0
    4.2156   -1.3167    0.4934 H   0  0  0  0  0  0  0  0  0  0  0  0
    4.3352    0.5017    0.8106 H   0  0  0  0  0  0  0  0  0  0  0  0
   -0.3133    0.8158   -1.1754 H   0  0  0  0  0  0  0  0  0  0  0  0
   -0.2533   -1.6806   -1.3087 H   0  0  0  0  0  0  0  0  0  0  0  0
   -0.4645   -1.8074    0.5031 H   0  0  0  0  0  0  0  0  0  0  0  0
   -2.3932   -0.3555   -1.3537 H   0  0  0  0  0  0  0  0  0  0  0  0
   -2.6528   -2.0666   -0.7259 H   0  0  0  0  0  0  0  0  0  0  0  0
   -3.3446   -1.1305    1.0226 H   0  0  0  0  0  0  0  0  0  0  0  0
   -0.4523    2.7723    0.2108 H   0  0  0  0  0  0  0  0  0  0  0  0
   -1.6121    2.4686    1.5630 H   0  0  0  0  0  0  0  0  0  0  0  0
   -2.0030    1.9881   -0.1068 H   0  0  0  0  0  0  0  0  0  0  0  0
  1  2  1  0
  2  3  3  0
  3  4  1  0
  4  5  1  0
  5  6  1  0
  6  7  1  0
  4  8  1  0
  8  9  1  0
  1 10  1  0
  1 11  1  0
  1 12  1  0
  4 13  1  0
  5 14  1  0
  5 15  1  0
  6 16  1  0
  6 17  1  0
  7 18  1  0
  9 19  1  0
  9 20  1  0
  9 21  1  0
M  END
