
     RDKit          3D

 17 16  0  0  0  0  0  0  0  0999 V2000
    2.6025    2.0989   -0.5366 C   0  0  0  0  0  0  0  0  0  0  0  0
    1.4876    1.3039    0.0768 C   0  0  0  0  0  0  0  0  0  0  0  0
    0.4382    0.5604    0.6797 C   0  0  0  0  0  0  0  0  0  0  0  0
   -0.5974   -0.1491    1.2779 C   0  0  0  0  0  0  0  0  0  0  0  0
   -1.3725   -0.1622    2.1657 O   0  0  0  0  0  0  0  0  0  0  0  0
   -0.6586   -1.4655    0.2858 C   0  0  0  0  0  0  0  0  0  0  0  0
   -1.4324   -2.3704    0.8094 O   0  0  0  0  0  0  0  0  0  0  0  0
   -1.1929   -0.6543   -0.9531 C   0  0  0  0  0  0  0  0  0  0  0  0
   -2.4889   -0.0726   -0.5339 O   0  0  0  0  0  0  0  0  0  0  0  0
    2.8712    2.8778    0.1731 H   0  0  0  0  0  0  0  0  0  0  0  0
    1.9597    2.6737   -1.3507 H   0  0  0  0  0  0  0  0  0  0  0  0
    3.3239    1.4436   -0.9176 H   0  0  0  0  0  0  0  0  0  0  0  0
    0.4380   -1.6440    0.0181 H   0  0  0  0  0  0  0  0  0  0  0  0
   -1.0535   -2.9073    1.5277 H   0  0  0  0  0  0  0  0  0  0  0  0
   -1.2514   -1.1137   -1.8730 H   0  0  0  0  0  0  0  0  0  0  0  0
   -0.4638    0.2395   -0.9512 H   0  0  0  0  0  0  0  0  0  0  0  0
   -2.6099   -0.6587    0.3197 H   0  0  0  0  0  0  0  0  0  0  0  0
  1  2  1  0
  2  3  3  0
  3  4  1  0
  4  5  2  0
  4  6  1  0
  6  7  1  0
  6  8  1  0
  8  9  1  0
  1 10  1  0
  1 11  1  0
  1 12  1  0
  6 13  1  0
  7 14  1  0
  8 15  1  0
  8 16  1  0
  9 17  1  0
M  END
