
     RDKit          3D

 18 18  0  0  0  0  0  0  0  0999 V2000
    3.1220   -1.5003    0.3619 C   0  0  0  0  0  0  0  0  0  0  0  0
    2.2303   -0.4113    0.2996 C   0  0  0  0  0  0  0  0  0  0  0  0
    1.4247    0.6045    0.2315 C   0  0  0  0  0  0  0  0  0  0  0  0
    0.5115    1.7175    0.1650 C   0  0  0  0  0  0  0  0  0  0  0  0
   -0.6702    1.3613   -0.4036 O   0  0  0  0  0  0  0  0  0  0  0  0
   -1.4331    0.4257    0.2554 C   0  0  0  0  0  0  0  0  0  0  0  0
   -1.9963   -0.6464   -0.6808 C   0  0  0  0  0  0  0  0  0  0  0  0
   -2.9045    0.3696    0.0433 C   0  0  0  0  0  0  0  0  0  0  0  0
    3.3290   -1.7677    1.4323 H   0  0  0  0  0  0  0  0  0  0  0  0
    4.1325   -1.2918   -0.0927 H   0  0  0  0  0  0  0  0  0  0  0  0
    2.7538   -2.4090   -0.1784 H   0  0  0  0  0  0  0  0  0  0  0  0
    0.9520    2.5316   -0.4973 H   0  0  0  0  0  0  0  0  0  0  0  0
    0.4138    2.1552    1.1937 H   0  0  0  0  0  0  0  0  0  0  0  0
   -1.0375    0.0639    1.2258 H   0  0  0  0  0  0  0  0  0  0  0  0
   -2.0464   -1.6825   -0.2627 H   0  0  0  0  0  0  0  0  0  0  0  0
   -1.8176   -0.5591   -1.7519 H   0  0  0  0  0  0  0  0  0  0  0  0
   -3.5420   -0.0091    0.8538 H   0  0  0  0  0  0  0  0  0  0  0  0
   -3.4219    1.0477   -0.6388 H   0  0  0  0  0  0  0  0  0  0  0  0
  1  2  1  0
  2  3  3  0
  3  4  1  0
  4  5  1  0
  5  6  1  0
  6  7  1  0
  7  8  1  0
  8  6  1  0
  1  9  1  0
  1 10  1  0
  1 11  1  0
  4 12  1  0
  4 13  1  0
  6 14  1  0
  7 15  1  0
  7 16  1  0
  8 17  1  0
  8 18  1  0
M  END
