
     RDKit          3D

 23 22  0  0  0  0  0  0  0  0999 V2000
    2.5973    0.9107   -1.8748 C   0  0  0  0  0  0  0  0  0  0  0  0
    1.8267    0.0316   -0.9935 C   0  0  0  0  0  0  0  0  0  0  0  0
    1.1934   -0.7166   -0.2549 C   0  0  0  0  0  0  0  0  0  0  0  0
    0.4637   -1.6092    0.6339 C   0  0  0  0  0  0  0  0  0  0  0  0
    0.0760   -2.7098   -0.1405 O   0  0  0  0  0  0  0  0  0  0  0  0
   -0.6721   -0.9985    1.3689 C   0  0  0  0  0  0  0  0  0  0  0  0
   -1.8031   -0.4450    0.6068 C   0  0  0  0  0  0  0  0  0  0  0  0
   -1.5175    0.6508   -0.3603 C   0  0  0  0  0  0  0  0  0  0  0  0
   -0.8902    1.8753    0.2157 C   0  0  0  0  0  0  0  0  0  0  0  0
    1.9522    1.6917   -2.3387 H   0  0  0  0  0  0  0  0  0  0  0  0
    3.0176    0.2977   -2.6698 H   0  0  0  0  0  0  0  0  0  0  0  0
    3.3813    1.4781   -1.3039 H   0  0  0  0  0  0  0  0  0  0  0  0
    1.1979   -2.0308    1.3802 H   0  0  0  0  0  0  0  0  0  0  0  0
    0.8828   -3.1021   -0.5563 H   0  0  0  0  0  0  0  0  0  0  0  0
   -0.9939   -1.7232    2.1682 H   0  0  0  0  0  0  0  0  0  0  0  0
   -0.2194   -0.1541    1.9786 H   0  0  0  0  0  0  0  0  0  0  0  0
   -2.3057   -1.2645    0.0022 H   0  0  0  0  0  0  0  0  0  0  0  0
   -2.5776   -0.0837    1.3431 H   0  0  0  0  0  0  0  0  0  0  0  0
   -2.5503    0.9850   -0.7406 H   0  0  0  0  0  0  0  0  0  0  0  0
   -0.9335    0.2678   -1.2031 H   0  0  0  0  0  0  0  0  0  0  0  0
   -0.5248    1.7162    1.2651 H   0  0  0  0  0  0  0  0  0  0  0  0
    0.0015    2.2211   -0.3693 H   0  0  0  0  0  0  0  0  0  0  0  0
   -1.6023    2.7112    0.2770 H   0  0  0  0  0  0  0  0  0  0  0  0
  1  2  1  0
  2  3  3  0
  3  4  1  0
  4  5  1  0
  4  6  1  0
  6  7  1  0
  7  8  1  0
  8  9  1  0
  1 10  1  0
  1 11  1  0
  1 12  1  0
  4 13  1  0
  5 14  1  0
  6 15  1  0
  6 16  1  0
  7 17  1  0
  7 18  1  0
  8 19  1  0
  8 20  1  0
  9 21  1  0
  9 22  1  0
  9 23  1  0
M  END
