
     RDKit          3D

 21 20  0  0  0  0  0  0  0  0999 V2000
    3.3203   -1.3552   -1.0282 C   0  0  0  0  0  0  0  0  0  0  0  0
    1.9868   -0.8953   -0.6334 C   0  0  0  0  0  0  0  0  0  0  0  0
    0.8888   -0.5219   -0.2887 C   0  0  0  0  0  0  0  0  0  0  0  0
   -0.4445   -0.0435    0.1428 C   0  0  0  0  0  0  0  0  0  0  0  0
   -1.4310   -1.1053   -0.2612 C   0  0  0  0  0  0  0  0  0  0  0  0
   -0.7415    1.2255   -0.6302 C   0  0  0  0  0  0  0  0  0  0  0  0
    0.2510    2.1873   -0.4197 O   0  0  0  0  0  0  0  0  0  0  0  0
   -0.3815    0.2181    1.4666 O   0  0  0  0  0  0  0  0  0  0  0  0
   -1.4916    0.6717    2.0949 C   0  0  0  0  0  0  0  0  0  0  0  0
    3.3533   -2.4574   -1.1630 H   0  0  0  0  0  0  0  0  0  0  0  0
    4.0381   -1.0188   -0.2487 H   0  0  0  0  0  0  0  0  0  0  0  0
    3.6596   -0.9088   -1.9773 H   0  0  0  0  0  0  0  0  0  0  0  0
   -1.1311   -1.4280   -1.2923 H   0  0  0  0  0  0  0  0  0  0  0  0
   -1.2427   -2.0079    0.3784 H   0  0  0  0  0  0  0  0  0  0  0  0
   -2.4668   -0.7838   -0.2717 H   0  0  0  0  0  0  0  0  0  0  0  0
   -0.8076    1.0130   -1.7353 H   0  0  0  0  0  0  0  0  0  0  0  0
   -1.7216    1.6625   -0.3691 H   0  0  0  0  0  0  0  0  0  0  0  0
   -0.1811    3.0650   -0.6682 H   0  0  0  0  0  0  0  0  0  0  0  0
   -1.8356    1.6271    1.6604 H   0  0  0  0  0  0  0  0  0  0  0  0
   -2.3623   -0.0098    2.0832 H   0  0  0  0  0  0  0  0  0  0  0  0
   -1.2591    0.8654    3.1606 H   0  0  0  0  0  0  0  0  0  0  0  0
  1  2  1  0
  2  3  3  0
  3  4  1  0
  4  5  1  0
  4  6  1  0
  6  7  1  0
  4  8  1  0
  8  9  1  0
  1 10  1  0
  1 11  1  0
  1 12  1  0
  5 13  1  0
  5 14  1  0
  5 15  1  0
  6 16  1  0
  6 17  1  0
  7 18  1  0
  9 19  1  0
  9 20  1  0
  9 21  1  0
M  END
