
     RDKit          3D

 19 20  0  0  0  0  0  0  0  0999 V2000
    3.3664   -1.0798   -0.4149 C   0  0  0  0  0  0  0  0  0  0  0  0
    2.1190   -0.3212   -0.1795 C   0  0  0  0  0  0  0  0  0  0  0  0
    1.1020    0.2937    0.0231 C   0  0  0  0  0  0  0  0  0  0  0  0
   -0.1154    1.0212    0.2886 C   0  0  0  0  0  0  0  0  0  0  0  0
   -0.8672    0.7816    1.5551 C   0  0  0  0  0  0  0  0  0  0  0  0
   -1.4220    0.3751    0.2431 C   0  0  0  0  0  0  0  0  0  0  0  0
   -1.6408   -1.0579   -0.1065 C   0  0  0  0  0  0  0  0  0  0  0  0
   -1.7050    1.4356   -0.8084 C   0  0  0  0  0  0  0  0  0  0  0  0
   -0.4941    2.0753   -0.5169 O   0  0  0  0  0  0  0  0  0  0  0  0
    3.6962   -0.9994   -1.4566 H   0  0  0  0  0  0  0  0  0  0  0  0
    3.1160   -2.1361   -0.2218 H   0  0  0  0  0  0  0  0  0  0  0  0
    4.1433   -0.7824    0.3238 H   0  0  0  0  0  0  0  0  0  0  0  0
   -1.1995    1.6848    2.0797 H   0  0  0  0  0  0  0  0  0  0  0  0
   -0.5024   -0.0517    2.1912 H   0  0  0  0  0  0  0  0  0  0  0  0
   -2.2844   -1.5309    0.6894 H   0  0  0  0  0  0  0  0  0  0  0  0
   -2.2828   -1.0833   -1.0247 H   0  0  0  0  0  0  0  0  0  0  0  0
   -0.7339   -1.6439   -0.2668 H   0  0  0  0  0  0  0  0  0  0  0  0
   -1.7209    0.9441   -1.8078 H   0  0  0  0  0  0  0  0  0  0  0  0
   -2.5745    2.0754   -0.5900 H   0  0  0  0  0  0  0  0  0  0  0  0
  1  2  1  0
  2  3  3  0
  3  4  1  0
  4  5  1  0
  5  6  1  0
  6  7  1  0
  6  8  1  0
  8  9  1  0
  6  4  1  0
  9  4  1  0
  1 10  1  0
  1 11  1  0
  1 12  1  0
  5 13  1  0
  5 14  1  0
  7 15  1  0
  7 16  1  0
  7 17  1  0
  8 18  1  0
  8 19  1  0
M  END
