
     RDKit          3D

 20 19  0  0  0  0  0  0  0  0999 V2000
    3.6015   -0.6297   -0.5744 C   0  0  0  0  0  0  0  0  0  0  0  0
    2.2715   -0.2248   -0.0994 C   0  0  0  0  0  0  0  0  0  0  0  0
    1.1748    0.1054    0.2959 C   0  0  0  0  0  0  0  0  0  0  0  0
   -0.1490    0.4923    0.7939 C   0  0  0  0  0  0  0  0  0  0  0  0
   -0.2020    1.8780    1.0645 O   0  0  0  0  0  0  0  0  0  0  0  0
   -1.1845    0.2225   -0.2570 C   0  0  0  0  0  0  0  0  0  0  0  0
   -1.2654   -1.2176   -0.6612 C   0  0  0  0  0  0  0  0  0  0  0  0
   -2.5224    0.7028    0.3120 C   0  0  0  0  0  0  0  0  0  0  0  0
    4.3157    0.2178   -0.5866 H   0  0  0  0  0  0  0  0  0  0  0  0
    3.4433   -1.0328   -1.6140 H   0  0  0  0  0  0  0  0  0  0  0  0
    3.9888   -1.4086    0.1145 H   0  0  0  0  0  0  0  0  0  0  0  0
   -0.3208   -0.0750    1.7290 H   0  0  0  0  0  0  0  0  0  0  0  0
    0.3080    2.2946    0.3043 H   0  0  0  0  0  0  0  0  0  0  0  0
   -0.9697    0.9012   -1.1130 H   0  0  0  0  0  0  0  0  0  0  0  0
   -1.9452   -1.7295    0.0804 H   0  0  0  0  0  0  0  0  0  0  0  0
   -1.7432   -1.2649   -1.6630 H   0  0  0  0  0  0  0  0  0  0  0  0
   -0.2738   -1.6879   -0.7092 H   0  0  0  0  0  0  0  0  0  0  0  0
   -3.1423    1.1894   -0.4773 H   0  0  0  0  0  0  0  0  0  0  0  0
   -3.0335   -0.1794    0.7509 H   0  0  0  0  0  0  0  0  0  0  0  0
   -2.3518    1.4461    1.1330 H   0  0  0  0  0  0  0  0  0  0  0  0
  1  2  1  0
  2  3  3  0
  3  4  1  0
  4  5  1  0
  4  6  1  0
  6  7  1  0
  6  8  1  0
  1  9  1  0
  1 10  1  0
  1 11  1  0
  4 12  1  0
  5 13  1  0
  6 14  1  0
  7 15  1  0
  7 16  1  0
  7 17  1  0
  8 18  1  0
  8 19  1  0
  8 20  1  0
M  END
