
     RDKit          3D

 17 16  0  0  0  0  0  0  0  0999 V2000
   -3.0108    0.2098   -0.2054 C   0  0  0  0  0  0  0  0  0  0  0  0
   -1.5347   -0.0716   -0.1252 C   0  0  0  0  0  0  0  0  0  0  0  0
   -0.0926   -0.3303   -0.0681 C   0  0  0  0  0  0  0  0  0  0  0  0
    1.1900   -0.5387   -0.0163 C   0  0  0  0  0  0  0  0  0  0  0  0
    1.7652   -1.3296   -1.1286 C   0  0  0  0  0  0  0  0  0  0  0  0
    1.6360    0.4948    0.7785 C   0  0  0  0  0  0  0  0  0  0  0  0
    2.2388    1.1808    1.5682 O   0  0  0  0  0  0  0  0  0  0  0  0
    0.5602    1.7806    0.3502 C   0  0  0  0  0  0  0  0  0  0  0  0
    0.0944    1.6371   -0.7154 O   0  0  0  0  0  0  0  0  0  0  0  0
   -3.4950   -0.7045   -0.4524 H   0  0  0  0  0  0  0  0  0  0  0  0
   -3.0686    0.9830   -0.9748 H   0  0  0  0  0  0  0  0  0  0  0  0
   -3.2403    0.6066    0.8375 H   0  0  0  0  0  0  0  0  0  0  0  0
    1.1574   -1.5432    0.8501 H   0  0  0  0  0  0  0  0  0  0  0  0
    0.8230   -1.6587   -1.7550 H   0  0  0  0  0  0  0  0  0  0  0  0
    2.0903   -2.4010   -0.8702 H   0  0  0  0  0  0  0  0  0  0  0  0
    2.3995   -0.8102   -1.8414 H   0  0  0  0  0  0  0  0  0  0  0  0
    0.4873    2.4949    1.0833 H   0  0  0  0  0  0  0  0  0  0  0  0
  1  2  1  0
  2  3  3  0
  3  4  1  0
  4  5  1  0
  4  6  1  0
  6  7  2  0
  6  8  1  0
  8  9  2  0
  1 10  1  0
  1 11  1  0
  1 12  1  0
  4 13  1  0
  5 14  1  0
  5 15  1  0
  5 16  1  0
  8 17  1  0
M  END
