
     RDKit          3D

 21 21  0  0  0  0  0  0  0  0999 V2000
    3.9097    1.3261    0.8109 C   0  0  0  0  0  0  0  0  0  0  0  0
    2.7010    0.6054    0.4080 C   0  0  0  0  0  0  0  0  0  0  0  0
    1.7012    0.0017    0.0526 C   0  0  0  0  0  0  0  0  0  0  0  0
    0.5088   -0.7457   -0.3652 C   0  0  0  0  0  0  0  0  0  0  0  0
    0.5419   -1.3502   -1.6344 O   0  0  0  0  0  0  0  0  0  0  0  0
   -0.2761   -1.3584    0.7079 C   0  0  0  0  0  0  0  0  0  0  0  0
   -0.8240   -0.1542    0.0761 C   0  0  0  0  0  0  0  0  0  0  0  0
   -1.9133   -0.2068   -0.9570 C   0  0  0  0  0  0  0  0  0  0  0  0
   -3.1783    0.4210   -0.3655 C   0  0  0  0  0  0  0  0  0  0  0  0
    3.7177    1.8042    1.8053 H   0  0  0  0  0  0  0  0  0  0  0  0
    4.1514    2.1508    0.1038 H   0  0  0  0  0  0  0  0  0  0  0  0
    4.7664    0.5984    0.8693 H   0  0  0  0  0  0  0  0  0  0  0  0
   -0.2388   -1.0630   -2.1504 H   0  0  0  0  0  0  0  0  0  0  0  0
   -0.7785   -2.3376    0.4673 H   0  0  0  0  0  0  0  0  0  0  0  0
    0.0547   -1.3377    1.7763 H   0  0  0  0  0  0  0  0  0  0  0  0
   -0.7988    0.7733    0.6889 H   0  0  0  0  0  0  0  0  0  0  0  0
   -2.1058   -1.2140   -1.3430 H   0  0  0  0  0  0  0  0  0  0  0  0
   -1.6280    0.4343   -1.8164 H   0  0  0  0  0  0  0  0  0  0  0  0
   -2.8920    1.3952    0.0420 H   0  0  0  0  0  0  0  0  0  0  0  0
   -3.5408   -0.2730    0.4087 H   0  0  0  0  0  0  0  0  0  0  0  0
   -3.8785    0.5304   -1.2209 H   0  0  0  0  0  0  0  0  0  0  0  0
  1  2  1  0
  2  3  3  0
  3  4  1  0
  4  5  1  0
  4  6  1  0
  6  7  1  0
  7  8  1  0
  8  9  1  0
  7  4  1  0
  1 10  1  0
  1 11  1  0
  1 12  1  0
  5 13  1  0
  6 14  1  0
  6 15  1  0
  7 16  1  0
  8 17  1  0
  8 18  1  0
  9 19  1  0
  9 20  1  0
  9 21  1  0
M  END
