
     RDKit          3D

 21 20  0  0  0  0  0  0  0  0999 V2000
    3.9165    0.3104    0.2274 C   0  0  0  0  0  0  0  0  0  0  0  0
    2.5012   -0.0805   -0.0025 C   0  0  0  0  0  0  0  0  0  0  0  0
    1.3791   -0.4108   -0.1906 C   0  0  0  0  0  0  0  0  0  0  0  0
   -0.0282   -0.8412   -0.4071 C   0  0  0  0  0  0  0  0  0  0  0  0
   -0.8883    0.2134    0.2130 C   0  0  0  0  0  0  0  0  0  0  0  0
   -0.5825    1.5352   -0.4866 C   0  0  0  0  0  0  0  0  0  0  0  0
   -2.3399   -0.1287   -0.0293 C   0  0  0  0  0  0  0  0  0  0  0  0
   -2.7673   -1.4128    0.5518 C   0  0  0  0  0  0  0  0  0  0  0  0
   -2.0931   -2.1673    1.2237 O   0  0  0  0  0  0  0  0  0  0  0  0
    4.5895   -0.3700   -0.3734 H   0  0  0  0  0  0  0  0  0  0  0  0
    4.1968    0.0742    1.2925 H   0  0  0  0  0  0  0  0  0  0  0  0
    4.0681    1.3662    0.0064 H   0  0  0  0  0  0  0  0  0  0  0  0
   -0.2518   -0.8339   -1.5094 H   0  0  0  0  0  0  0  0  0  0  0  0
   -0.2080   -1.8308   -0.0091 H   0  0  0  0  0  0  0  0  0  0  0  0
   -0.6825    0.3390    1.3067 H   0  0  0  0  0  0  0  0  0  0  0  0
    0.3952    1.4178   -0.9908 H   0  0  0  0  0  0  0  0  0  0  0  0
   -1.3412    1.7288   -1.2749 H   0  0  0  0  0  0  0  0  0  0  0  0
   -0.5821    2.3162    0.2856 H   0  0  0  0  0  0  0  0  0  0  0  0
   -2.9299    0.6873    0.4723 H   0  0  0  0  0  0  0  0  0  0  0  0
   -2.5481   -0.1302   -1.1219 H   0  0  0  0  0  0  0  0  0  0  0  0
   -3.8035   -1.7824    0.3925 H   0  0  0  0  0  0  0  0  0  0  0  0
  1  2  1  0
  2  3  3  0
  3  4  1  0
  4  5  1  0
  5  6  1  0
  5  7  1  0
  7  8  1  0
  8  9  2  0
  1 10  1  0
  1 11  1  0
  1 12  1  0
  4 13  1  0
  4 14  1  0
  5 15  1  0
  6 16  1  0
  6 17  1  0
  6 18  1  0
  7 19  1  0
  7 20  1  0
  8 21  1  0
M  END
