
     RDKit          3D

 19 18  0  0  0  0  0  0  0  0999 V2000
   -3.5075   -2.2524   -0.6985 C   0  0  0  0  0  0  0  0  0  0  0  0
   -2.7736   -1.1035   -0.7134 C   0  0  0  0  0  0  0  0  0  0  0  0
   -1.9684    0.1450   -0.7468 C   0  0  0  0  0  0  0  0  0  0  0  0
   -1.2131    1.3372   -0.7853 C   0  0  0  0  0  0  0  0  0  0  0  0
   -1.5034    2.2559    0.1655 O   0  0  0  0  0  0  0  0  0  0  0  0
    0.0224    0.8584   -0.2973 C   0  0  0  0  0  0  0  0  0  0  0  0
    1.2718    0.3653    0.2157 C   0  0  0  0  0  0  0  0  0  0  0  0
    2.5111   -0.1047    0.7418 C   0  0  0  0  0  0  0  0  0  0  0  0
    3.5570    0.9199    0.6323 C   0  0  0  0  0  0  0  0  0  0  0  0
   -4.5633   -2.1428   -0.3733 H   0  0  0  0  0  0  0  0  0  0  0  0
   -3.0511   -2.9470    0.1118 H   0  0  0  0  0  0  0  0  0  0  0  0
   -3.2473   -2.6786   -1.7249 H   0  0  0  0  0  0  0  0  0  0  0  0
   -0.9837    1.6364   -1.8833 H   0  0  0  0  0  0  0  0  0  0  0  0
   -1.2375    1.8218    1.1174 H   0  0  0  0  0  0  0  0  0  0  0  0
    2.2316   -0.2896    1.8664 H   0  0  0  0  0  0  0  0  0  0  0  0
    2.7551   -1.1119    0.3268 H   0  0  0  0  0  0  0  0  0  0  0  0
    3.7880    1.0918   -0.4084 H   0  0  0  0  0  0  0  0  0  0  0  0
    3.3979    1.7683    1.2750 H   0  0  0  0  0  0  0  0  0  0  0  0
    4.5142    0.4304    1.1785 H   0  0  0  0  0  0  0  0  0  0  0  0
  1  2  1  0
  2  3  3  0
  3  4  1  0
  4  5  1  0
  4  6  1  0
  6  7  3  0
  7  8  1  0
  8  9  1  0
  1 10  1  0
  1 11  1  0
  1 12  1  0
  4 13  1  0
  5 14  1  0
  8 15  1  0
  8 16  1  0
  9 17  1  0
  9 18  1  0
  9 19  1  0
M  END
