
     RDKit          3D

 21 20  0  0  0  0  0  0  0  0999 V2000
   -3.7405    0.3327   -1.8831 C   0  0  0  0  0  0  0  0  0  0  0  0
   -2.3854    0.2832   -1.6366 C   0  0  0  0  0  0  0  0  0  0  0  0
   -1.1503    0.2453   -1.3907 C   0  0  0  0  0  0  0  0  0  0  0  0
    0.3307    0.1987   -1.0701 C   0  0  0  0  0  0  0  0  0  0  0  0
    0.5677   -0.4628    0.2672 C   0  0  0  0  0  0  0  0  0  0  0  0
    0.2353   -1.9002    0.2426 C   0  0  0  0  0  0  0  0  0  0  0  0
    1.4396    0.0978    1.1254 C   0  0  0  0  0  0  0  0  0  0  0  0
    2.3316    0.6463    1.9908 C   0  0  0  0  0  0  0  0  0  0  0  0
    3.2129    1.1943    2.8783 C   0  0  0  0  0  0  0  0  0  0  0  0
   -4.3316   -0.3705   -1.1956 H   0  0  0  0  0  0  0  0  0  0  0  0
   -4.2060    1.3683   -1.6539 H   0  0  0  0  0  0  0  0  0  0  0  0
   -4.0439    0.1712   -2.9477 H   0  0  0  0  0  0  0  0  0  0  0  0
    0.6930    1.2562   -0.9946 H   0  0  0  0  0  0  0  0  0  0  0  0
    0.8459   -0.2898   -1.8886 H   0  0  0  0  0  0  0  0  0  0  0  0
   -0.5386   -0.0513    0.8180 H   0  0  0  0  0  0  0  0  0  0  0  0
   -0.6310   -2.0754   -0.4571 H   0  0  0  0  0  0  0  0  0  0  0  0
   -0.0205   -2.1984    1.2878 H   0  0  0  0  0  0  0  0  0  0  0  0
    1.0619   -2.5640   -0.1339 H   0  0  0  0  0  0  0  0  0  0  0  0
    4.1266    0.5696    2.9928 H   0  0  0  0  0  0  0  0  0  0  0  0
    3.4669    2.2818    2.6776 H   0  0  0  0  0  0  0  0  0  0  0  0
    2.7359    1.2670    3.9294 H   0  0  0  0  0  0  0  0  0  0  0  0
  1  2  1  0
  2  3  3  0
  3  4  1  0
  4  5  1  0
  5  6  1  0
  5  7  1  0
  7  8  3  0
  8  9  1  0
  1 10  1  0
  1 11  1  0
  1 12  1  0
  4 13  1  0
  4 14  1  0
  5 15  1  0
  6 16  1  0
  6 17  1  0
  6 18  1  0
  9 19  1  0
  9 20  1  0
  9 21  1  0
M  END
