
     RDKit          3D

 19 20  0  0  0  0  0  0  0  0999 V2000
    2.6709    0.6196    2.1534 C   0  0  0  0  0  0  0  0  0  0  0  0
    1.6910    0.1761    1.1300 C   0  0  0  0  0  0  0  0  0  0  0  0
    0.8993   -0.1876    0.3287 C   0  0  0  0  0  0  0  0  0  0  0  0
   -0.0847   -0.6394   -0.6350 C   0  0  0  0  0  0  0  0  0  0  0  0
    0.1429   -1.8445   -1.2480 O   0  0  0  0  0  0  0  0  0  0  0  0
   -0.6236    0.4737   -1.4742 C   0  0  0  0  0  0  0  0  0  0  0  0
   -1.3051    0.9590   -0.2117 C   0  0  0  0  0  0  0  0  0  0  0  0
   -1.5160   -0.5248   -0.1924 C   0  0  0  0  0  0  0  0  0  0  0  0
   -1.8358   -0.3932   -1.6619 C   0  0  0  0  0  0  0  0  0  0  0  0
    2.8422    1.6950    2.1027 H   0  0  0  0  0  0  0  0  0  0  0  0
    3.6101    0.0093    2.0803 H   0  0  0  0  0  0  0  0  0  0  0  0
    2.2707    0.3997    3.1729 H   0  0  0  0  0  0  0  0  0  0  0  0
    0.6402   -2.4220   -0.6179 H   0  0  0  0  0  0  0  0  0  0  0  0
   -0.1547    1.0330   -2.1522 H   0  0  0  0  0  0  0  0  0  0  0  0
   -0.6059    1.3702    0.5446 H   0  0  0  0  0  0  0  0  0  0  0  0
   -2.1929    1.5771   -0.3436 H   0  0  0  0  0  0  0  0  0  0  0  0
   -1.9975   -1.0758    0.4841 H   0  0  0  0  0  0  0  0  0  0  0  0
   -2.7830    0.1290   -1.8949 H   0  0  0  0  0  0  0  0  0  0  0  0
   -1.6679   -1.3543   -2.1777 H   0  0  0  0  0  0  0  0  0  0  0  0
  1  2  1  0
  2  3  3  0
  3  4  1  0
  4  5  1  0
  4  6  1  0
  6  7  1  0
  7  8  1  0
  8  9  1  0
  8  4  1  0
  9  6  1  0
  1 10  1  0
  1 11  1  0
  1 12  1  0
  5 13  1  0
  6 14  1  0
  7 15  1  0
  7 16  1  0
  8 17  1  0
  9 18  1  0
  9 19  1  0
M  END
