
     RDKit          3D

 19 19  0  0  0  0  0  0  0  0999 V2000
    3.2600   -2.1141    1.9079 C   0  0  0  0  0  0  0  0  0  0  0  0
    2.0988   -1.2568    1.6455 C   0  0  0  0  0  0  0  0  0  0  0  0
    1.1439   -0.5260    1.4295 C   0  0  0  0  0  0  0  0  0  0  0  0
    0.0141    0.3694    1.1730 C   0  0  0  0  0  0  0  0  0  0  0  0
    0.3516    1.4378    0.1985 O   0  0  0  0  0  0  0  0  0  0  0  0
   -0.5161    0.4166   -0.1827 C   0  0  0  0  0  0  0  0  0  0  0  0
   -1.9436    0.8690   -0.3682 C   0  0  0  0  0  0  0  0  0  0  0  0
   -2.2931    0.8442   -1.8568 C   0  0  0  0  0  0  0  0  0  0  0  0
   -1.4572    1.6875   -2.5614 O   0  0  0  0  0  0  0  0  0  0  0  0
    3.7800   -2.3863    0.9445 H   0  0  0  0  0  0  0  0  0  0  0  0
    4.0033   -1.5803    2.5334 H   0  0  0  0  0  0  0  0  0  0  0  0
    2.9281   -3.0745    2.3401 H   0  0  0  0  0  0  0  0  0  0  0  0
   -0.4692    0.8533    2.0398 H   0  0  0  0  0  0  0  0  0  0  0  0
   -0.1492   -0.3609   -0.8902 H   0  0  0  0  0  0  0  0  0  0  0  0
   -2.6073    0.1829    0.1940 H   0  0  0  0  0  0  0  0  0  0  0  0
   -2.0891    1.9336   -0.0550 H   0  0  0  0  0  0  0  0  0  0  0  0
   -3.3267    1.1796   -2.0212 H   0  0  0  0  0  0  0  0  0  0  0  0
   -2.1821   -0.2219   -2.1660 H   0  0  0  0  0  0  0  0  0  0  0  0
   -0.5462    1.7469   -2.1667 H   0  0  0  0  0  0  0  0  0  0  0  0
  1  2  1  0
  2  3  3  0
  3  4  1  0
  4  5  1  0
  5  6  1  0
  6  7  1  0
  7  8  1  0
  8  9  1  0
  6  4  1  0
  1 10  1  0
  1 11  1  0
  1 12  1  0
  4 13  1  0
  6 14  1  0
  7 15  1  0
  7 16  1  0
  8 17  1  0
  8 18  1  0
  9 19  1  0
M  END
