
     RDKit          3D

 19 19  0  0  0  0  0  0  0  0999 V2000
    3.2874   -1.3504   -0.8721 C   0  0  0  0  0  0  0  0  0  0  0  0
    1.9247   -0.9217   -1.1891 C   0  0  0  0  0  0  0  0  0  0  0  0
    0.7970   -0.5638   -1.4347 C   0  0  0  0  0  0  0  0  0  0  0  0
   -0.5516   -0.1301   -1.7427 C   0  0  0  0  0  0  0  0  0  0  0  0
   -1.1980    0.3879   -0.4816 C   0  0  0  0  0  0  0  0  0  0  0  0
   -1.2630   -0.5903    0.5113 O   0  0  0  0  0  0  0  0  0  0  0  0
   -1.7257    0.1490    1.6011 C   0  0  0  0  0  0  0  0  0  0  0  0
   -1.1452    1.5319    1.3438 C   0  0  0  0  0  0  0  0  0  0  0  0
   -0.4081    1.3539    0.1489 O   0  0  0  0  0  0  0  0  0  0  0  0
    3.7717   -0.5064   -0.3196 H   0  0  0  0  0  0  0  0  0  0  0  0
    3.1999   -2.2387   -0.1920 H   0  0  0  0  0  0  0  0  0  0  0  0
    3.8744   -1.5888   -1.7717 H   0  0  0  0  0  0  0  0  0  0  0  0
   -0.5847    0.6792   -2.4937 H   0  0  0  0  0  0  0  0  0  0  0  0
   -1.1954   -0.9455   -2.1297 H   0  0  0  0  0  0  0  0  0  0  0  0
   -2.2130    0.7717   -0.6265 H   0  0  0  0  0  0  0  0  0  0  0  0
   -2.8257    0.1443    1.5624 H   0  0  0  0  0  0  0  0  0  0  0  0
   -1.3176   -0.2911    2.5366 H   0  0  0  0  0  0  0  0  0  0  0  0
   -0.4898    1.8476    2.1648 H   0  0  0  0  0  0  0  0  0  0  0  0
   -1.9373    2.2613    1.0879 H   0  0  0  0  0  0  0  0  0  0  0  0
  1  2  1  0
  2  3  3  0
  3  4  1  0
  4  5  1  0
  5  6  1  0
  6  7  1  0
  7  8  1  0
  8  9  1  0
  9  5  1  0
  1 10  1  0
  1 11  1  0
  1 12  1  0
  4 13  1  0
  4 14  1  0
  5 15  1  0
  7 16  1  0
  7 17  1  0
  8 18  1  0
  8 19  1  0
M  END
