
     RDKit          3D

 15 15  0  0  0  0  0  0  0  0999 V2000
    3.1326    0.0452    0.9634 C   0  0  0  0  0  0  0  0  0  0  0  0
    1.7983   -0.1419    0.3888 C   0  0  0  0  0  0  0  0  0  0  0  0
    0.6860   -0.2765   -0.0906 C   0  0  0  0  0  0  0  0  0  0  0  0
   -0.6389   -0.4520   -0.6407 C   0  0  0  0  0  0  0  0  0  0  0  0
   -1.4934    0.7969   -0.3825 C   0  0  0  0  0  0  0  0  0  0  0  0
   -2.5404   -0.3227   -0.3668 C   0  0  0  0  0  0  0  0  0  0  0  0
   -1.5275   -1.1320    0.2000 O   0  0  0  0  0  0  0  0  0  0  0  0
    3.6463    0.9395    0.5364 H   0  0  0  0  0  0  0  0  0  0  0  0
    2.9809    0.1689    2.0747 H   0  0  0  0  0  0  0  0  0  0  0  0
    3.7750   -0.8369    0.7663 H   0  0  0  0  0  0  0  0  0  0  0  0
   -0.6984   -0.7323   -1.7051 H   0  0  0  0  0  0  0  0  0  0  0  0
   -1.5340    1.4565   -1.2442 H   0  0  0  0  0  0  0  0  0  0  0  0
   -1.3606    1.2429    0.6102 H   0  0  0  0  0  0  0  0  0  0  0  0
   -3.3952   -0.1291    0.2861 H   0  0  0  0  0  0  0  0  0  0  0  0
   -2.8308   -0.6265   -1.3960 H   0  0  0  0  0  0  0  0  0  0  0  0
  1  2  1  0
  2  3  3  0
  3  4  1  0
  4  5  1  0
  5  6  1  0
  6  7  1  0
  7  4  1  0
  1  8  1  0
  1  9  1  0
  1 10  1  0
  4 11  1  0
  5 12  1  0
  5 13  1  0
  6 14  1  0
  6 15  1  0
M  END
