
     RDKit          3D

 22 21  0  0  0  0  0  0  0  0999 V2000
    3.0597    1.1533    1.8591 C   0  0  0  0  0  0  0  0  0  0  0  0
    1.8067    0.8335    1.1225 C   0  0  0  0  0  0  0  0  0  0  0  0
    0.7614    0.5873    0.5199 C   0  0  0  0  0  0  0  0  0  0  0  0
   -0.4843    0.3173   -0.1824 C   0  0  0  0  0  0  0  0  0  0  0  0
   -1.5963    0.0896    0.8601 C   0  0  0  0  0  0  0  0  0  0  0  0
   -2.9161   -0.1949    0.2354 C   0  0  0  0  0  0  0  0  0  0  0  0
   -0.3107   -1.0055   -0.9407 C   0  0  0  0  0  0  0  0  0  0  0  0
    0.8291   -0.8468   -1.8971 C   0  0  0  0  0  0  0  0  0  0  0  0
    3.5250    2.0188    1.3665 H   0  0  0  0  0  0  0  0  0  0  0  0
    3.6507    0.2377    1.8997 H   0  0  0  0  0  0  0  0  0  0  0  0
    2.8194    1.4493    2.9176 H   0  0  0  0  0  0  0  0  0  0  0  0
   -0.6990    1.1455   -0.8418 H   0  0  0  0  0  0  0  0  0  0  0  0
   -1.5920    0.9724    1.5298 H   0  0  0  0  0  0  0  0  0  0  0  0
   -1.2006   -0.7378    1.4854 H   0  0  0  0  0  0  0  0  0  0  0  0
   -3.6932    0.0532    1.0139 H   0  0  0  0  0  0  0  0  0  0  0  0
   -3.0151   -1.2179   -0.1620 H   0  0  0  0  0  0  0  0  0  0  0  0
   -3.0818    0.5253   -0.5886 H   0  0  0  0  0  0  0  0  0  0  0  0
   -1.2509   -1.2957   -1.4198 H   0  0  0  0  0  0  0  0  0  0  0  0
    0.0162   -1.7368   -0.1390 H   0  0  0  0  0  0  0  0  0  0  0  0
    1.7646   -0.6262   -1.3482 H   0  0  0  0  0  0  0  0  0  0  0  0
    0.6611    0.0229   -2.5886 H   0  0  0  0  0  0  0  0  0  0  0  0
    0.9460   -1.7445   -2.5561 H   0  0  0  0  0  0  0  0  0  0  0  0
  1  2  1  0
  2  3  3  0
  3  4  1  0
  4  5  1  0
  5  6  1  0
  4  7  1  0
  7  8  1  0
  1  9  1  0
  1 10  1  0
  1 11  1  0
  4 12  1  0
  5 13  1  0
  5 14  1  0
  6 15  1  0
  6 16  1  0
  6 17  1  0
  7 18  1  0
  7 19  1  0
  8 20  1  0
  8 21  1  0
  8 22  1  0
M  END
