
     RDKit          3D

 17 16  0  0  0  0  0  0  0  0999 V2000
    3.2420    0.1569   -0.2086 C   0  0  0  0  0  0  0  0  0  0  0  0
    1.8565   -0.0430    0.2295 C   0  0  0  0  0  0  0  0  0  0  0  0
    0.7049   -0.1925    0.6068 C   0  0  0  0  0  0  0  0  0  0  0  0
   -0.6782   -0.3710    1.0600 C   0  0  0  0  0  0  0  0  0  0  0  0
   -1.5369   -0.4408   -0.1804 C   0  0  0  0  0  0  0  0  0  0  0  0
   -1.4410    0.8042   -1.0138 C   0  0  0  0  0  0  0  0  0  0  0  0
   -2.8629   -0.6071    0.2089 O   0  0  0  0  0  0  0  0  0  0  0  0
    3.2182    0.3729   -1.3009 H   0  0  0  0  0  0  0  0  0  0  0  0
    3.8649   -0.7279    0.0267 H   0  0  0  0  0  0  0  0  0  0  0  0
    3.7163    1.0340    0.2827 H   0  0  0  0  0  0  0  0  0  0  0  0
   -0.9669    0.4585    1.7314 H   0  0  0  0  0  0  0  0  0  0  0  0
   -0.8021   -1.3266    1.6107 H   0  0  0  0  0  0  0  0  0  0  0  0
   -1.1862   -1.3536   -0.7419 H   0  0  0  0  0  0  0  0  0  0  0  0
   -2.3956    1.3319   -1.0580 H   0  0  0  0  0  0  0  0  0  0  0  0
   -0.6577    1.4973   -0.6500 H   0  0  0  0  0  0  0  0  0  0  0  0
   -1.2196    0.4689   -2.0684 H   0  0  0  0  0  0  0  0  0  0  0  0
   -2.8557   -1.0620    1.0829 H   0  0  0  0  0  0  0  0  0  0  0  0
  1  2  1  0
  2  3  3  0
  3  4  1  0
  4  5  1  0
  5  6  1  0
  5  7  1  0
  1  8  1  0
  1  9  1  0
  1 10  1  0
  4 11  1  0
  4 12  1  0
  5 13  1  0
  6 14  1  0
  6 15  1  0
  6 16  1  0
  7 17  1  0
M  END
