
     RDKit          3D

 23 23  0  0  0  0  0  0  0  0999 V2000
    3.3510   -1.6487    0.5930 C   0  0  0  0  0  0  0  0  0  0  0  0
    2.2526   -0.7414    0.2488 C   0  0  0  0  0  0  0  0  0  0  0  0
    1.3483    0.0320   -0.0322 C   0  0  0  0  0  0  0  0  0  0  0  0
    0.2571    0.9493   -0.3691 C   0  0  0  0  0  0  0  0  0  0  0  0
   -0.2083    0.8580   -1.8113 C   0  0  0  0  0  0  0  0  0  0  0  0
   -1.6213    0.7595   -1.2904 C   0  0  0  0  0  0  0  0  0  0  0  0
   -1.0619    0.3563    0.0560 C   0  0  0  0  0  0  0  0  0  0  0  0
   -1.0549   -1.1196    0.3315 C   0  0  0  0  0  0  0  0  0  0  0  0
   -1.7281    1.1558    1.1503 C   0  0  0  0  0  0  0  0  0  0  0  0
    4.0767   -1.7159   -0.2496 H   0  0  0  0  0  0  0  0  0  0  0  0
    3.9248   -1.2578    1.4693 H   0  0  0  0  0  0  0  0  0  0  0  0
    2.8762   -2.6347    0.8177 H   0  0  0  0  0  0  0  0  0  0  0  0
    0.4439    1.9930   -0.0195 H   0  0  0  0  0  0  0  0  0  0  0  0
    0.1840   -0.0475   -2.3096 H   0  0  0  0  0  0  0  0  0  0  0  0
    0.0167    1.7522   -2.4238 H   0  0  0  0  0  0  0  0  0  0  0  0
   -2.1694   -0.0196   -1.8329 H   0  0  0  0  0  0  0  0  0  0  0  0
   -2.1079    1.7480   -1.3088 H   0  0  0  0  0  0  0  0  0  0  0  0
   -1.2362   -1.2686    1.4250 H   0  0  0  0  0  0  0  0  0  0  0  0
   -1.8546   -1.5893   -0.2685 H   0  0  0  0  0  0  0  0  0  0  0  0
   -0.1001   -1.6097    0.0997 H   0  0  0  0  0  0  0  0  0  0  0  0
   -1.3047    2.1737    1.2176 H   0  0  0  0  0  0  0  0  0  0  0  0
   -1.4832    0.6316    2.1116 H   0  0  0  0  0  0  0  0  0  0  0  0
   -2.8007    1.2435    0.9670 H   0  0  0  0  0  0  0  0  0  0  0  0
  1  2  1  0
  2  3  3  0
  3  4  1  0
  4  5  1  0
  5  6  1  0
  6  7  1  0
  7  8  1  0
  7  9  1  0
  7  4  1  0
  1 10  1  0
  1 11  1  0
  1 12  1  0
  4 13  1  0
  5 14  1  0
  5 15  1  0
  6 16  1  0
  6 17  1  0
  8 18  1  0
  8 19  1  0
  8 20  1  0
  9 21  1  0
  9 22  1  0
  9 23  1  0
M  END
