
     RDKit          3D

 19 18  0  0  0  0  0  0  0  0999 V2000
    2.4521   -2.3940    0.9401 C   0  0  0  0  0  0  0  0  0  0  0  0
    1.4020   -1.3761    0.6778 C   0  0  0  0  0  0  0  0  0  0  0  0
    0.5007   -0.5188    0.4357 C   0  0  0  0  0  0  0  0  0  0  0  0
   -0.5134    0.4126    0.1728 C   0  0  0  0  0  0  0  0  0  0  0  0
   -1.2450    0.6970    1.3234 O   0  0  0  0  0  0  0  0  0  0  0  0
    0.1445    1.6992   -0.3650 C   0  0  0  0  0  0  0  0  0  0  0  0
   -0.7862    2.6650   -0.6941 O   0  0  0  0  0  0  0  0  0  0  0  0
   -1.4605   -0.0953   -0.9248 C   0  0  0  0  0  0  0  0  0  0  0  0
   -2.4104    0.8178   -1.2893 O   0  0  0  0  0  0  0  0  0  0  0  0
    2.2158   -3.3407    0.4229 H   0  0  0  0  0  0  0  0  0  0  0  0
    3.4312   -2.0052    0.6506 H   0  0  0  0  0  0  0  0  0  0  0  0
    2.3944   -2.6141    2.0252 H   0  0  0  0  0  0  0  0  0  0  0  0
   -1.2444   -0.0662    1.9518 H   0  0  0  0  0  0  0  0  0  0  0  0
    0.8019    2.1599    0.4235 H   0  0  0  0  0  0  0  0  0  0  0  0
    0.7504    1.4429   -1.2293 H   0  0  0  0  0  0  0  0  0  0  0  0
   -1.4342    2.8963   -0.0047 H   0  0  0  0  0  0  0  0  0  0  0  0
   -0.8632   -0.4373   -1.7778 H   0  0  0  0  0  0  0  0  0  0  0  0
   -1.9486   -1.0269   -0.5000 H   0  0  0  0  0  0  0  0  0  0  0  0
   -2.1871    1.0837   -2.2390 H   0  0  0  0  0  0  0  0  0  0  0  0
  1  2  1  0
  2  3  3  0
  3  4  1  0
  4  5  1  0
  4  6  1  0
  6  7  1  0
  4  8  1  0
  8  9  1  0
  1 10  1  0
  1 11  1  0
  1 12  1  0
  5 13  1  0
  6 14  1  0
  6 15  1  0
  7 16  1  0
  8 17  1  0
  8 18  1  0
  9 19  1  0
M  END
