
     RDKit          3D

 25 24  0  0  0  0  0  0  0  0999 V2000
    2.4900    2.7541    0.6993 C   0  0  0  0  0  0  0  0  0  0  0  0
    1.9935    1.6693    0.6943 C   0  0  0  0  0  0  0  0  0  0  0  0
    1.4049    0.4197    0.6709 C   0  0  0  0  0  0  0  0  0  0  0  0
    0.7223   -0.9990    0.6355 C   0  0  0  0  0  0  0  0  0  0  0  0
    1.8706   -1.7305   -0.2442 C   0  0  0  0  0  0  0  0  0  0  0  0
   -0.3453   -1.0522   -0.3138 C   0  0  0  0  0  0  0  0  0  0  0  0
   -1.4320   -0.0062   -0.1045 C   0  0  0  0  0  0  0  0  0  0  0  0
   -2.3450   -0.0849   -1.3865 C   0  0  0  0  0  0  0  0  0  0  0  0
   -2.3763   -0.2723    0.9862 C   0  0  0  0  0  0  0  0  0  0  0  0
    2.5519    3.2221   -0.4356 H   0  0  0  0  0  0  0  0  0  0  0  0
    2.1069    3.6510    1.2750 H   0  0  0  0  0  0  0  0  0  0  0  0
    3.6798    2.8897    0.8427 H   0  0  0  0  0  0  0  0  0  0  0  0
    0.7113   -1.4458    1.5660 H   0  0  0  0  0  0  0  0  0  0  0  0
    1.4078   -2.6259   -0.7422 H   0  0  0  0  0  0  0  0  0  0  0  0
    2.8084   -1.7409    0.1335 H   0  0  0  0  0  0  0  0  0  0  0  0
    1.8568   -0.9583   -1.1512 H   0  0  0  0  0  0  0  0  0  0  0  0
   -0.7844   -2.1081   -0.2520 H   0  0  0  0  0  0  0  0  0  0  0  0
   -0.0029   -0.9600   -1.3910 H   0  0  0  0  0  0  0  0  0  0  0  0
   -0.9453    0.9464   -0.0925 H   0  0  0  0  0  0  0  0  0  0  0  0
   -3.3720   -0.0487   -1.1007 H   0  0  0  0  0  0  0  0  0  0  0  0
   -2.0768    0.8428   -1.9757 H   0  0  0  0  0  0  0  0  0  0  0  0
   -1.9712   -0.9125   -2.0505 H   0  0  0  0  0  0  0  0  0  0  0  0
   -2.4219    0.3653    1.8444 H   0  0  0  0  0  0  0  0  0  0  0  0
   -2.0978   -1.3169    1.3833 H   0  0  0  0  0  0  0  0  0  0  0  0
   -3.4333   -0.4981    0.5093 H   0  0  0  0  0  0  0  0  0  0  0  0
  1  2  1  0
  2  3  3  0
  3  4  1  0
  4  5  1  0
  4  6  1  0
  6  7  1  0
  7  8  1  0
  7  9  1  0
  1 10  1  0
  1 11  1  0
  1 12  1  0
  4 13  1  0
  5 14  1  0
  5 15  1  0
  5 16  1  0
  6 17  1  0
  6 18  1  0
  7 19  1  0
  8 20  1  0
  8 21  1  0
  8 22  1  0
  9 23  1  0
  9 24  1  0
  9 25  1  0
M  END
