
     RDKit          3D

 15 15  0  0  0  0  0  0  0  0999 V2000
    3.2689   -0.0265    0.1527 C   0  0  0  0  0  0  0  0  0  0  0  0
    1.7979   -0.0296    0.2601 C   0  0  0  0  0  0  0  0  0  0  0  0
    0.5973   -0.0281    0.3682 C   0  0  0  0  0  0  0  0  0  0  0  0
   -0.8407   -0.0163    0.5065 C   0  0  0  0  0  0  0  0  0  0  0  0
   -1.4653   -0.8046   -0.6326 C   0  0  0  0  0  0  0  0  0  0  0  0
   -2.8070   -0.2951   -0.5924 O   0  0  0  0  0  0  0  0  0  0  0  0
   -2.7319    1.0066   -0.0890 C   0  0  0  0  0  0  0  0  0  0  0  0
   -3.7299    1.7670    0.0171 O   0  0  0  0  0  0  0  0  0  0  0  0
   -1.3975    1.2834    0.2558 O   0  0  0  0  0  0  0  0  0  0  0  0
    3.5128   -0.5381   -0.7981 H   0  0  0  0  0  0  0  0  0  0  0  0
    3.7341   -0.5538    1.0313 H   0  0  0  0  0  0  0  0  0  0  0  0
    3.6638    1.0196    0.0867 H   0  0  0  0  0  0  0  0  0  0  0  0
   -1.1951   -0.4257    1.4632 H   0  0  0  0  0  0  0  0  0  0  0  0
   -0.9877   -0.4798   -1.5768 H   0  0  0  0  0  0  0  0  0  0  0  0
   -1.4198   -1.8790   -0.4526 H   0  0  0  0  0  0  0  0  0  0  0  0
  1  2  1  0
  2  3  3  0
  3  4  1  0
  4  5  1  0
  5  6  1  0
  6  7  1  0
  7  8  2  0
  7  9  1  0
  9  4  1  0
  1 10  1  0
  1 11  1  0
  1 12  1  0
  4 13  1  0
  5 14  1  0
  5 15  1  0
M  END
