
     RDKit          3D

 17 16  0  0  0  0  0  0  0  0999 V2000
    3.0834   -0.4647   -0.3099 C   0  0  0  0  0  0  0  0  0  0  0  0
    1.6383   -0.3262   -0.2280 C   0  0  0  0  0  0  0  0  0  0  0  0
    0.4274   -0.2243   -0.1435 C   0  0  0  0  0  0  0  0  0  0  0  0
   -1.0190   -0.1132   -0.0653 C   0  0  0  0  0  0  0  0  0  0  0  0
   -1.4118   -0.2473    1.3941 C   0  0  0  0  0  0  0  0  0  0  0  0
   -1.4371    1.2778   -0.5136 C   0  0  0  0  0  0  0  0  0  0  0  0
   -1.6395   -1.1006   -0.8115 O   0  0  0  0  0  0  0  0  0  0  0  0
    3.5069   -0.3954    0.7055 H   0  0  0  0  0  0  0  0  0  0  0  0
    3.3405   -1.4519   -0.7891 H   0  0  0  0  0  0  0  0  0  0  0  0
    3.5531    0.3341   -0.9225 H   0  0  0  0  0  0  0  0  0  0  0  0
   -0.7813    0.4738    1.9544 H   0  0  0  0  0  0  0  0  0  0  0  0
   -1.2589   -1.2969    1.7287 H   0  0  0  0  0  0  0  0  0  0  0  0
   -2.4903    0.0023    1.4534 H   0  0  0  0  0  0  0  0  0  0  0  0
   -0.9012    1.4743   -1.4710 H   0  0  0  0  0  0  0  0  0  0  0  0
   -2.5339    1.3581   -0.6288 H   0  0  0  0  0  0  0  0  0  0  0  0
   -1.0455    2.0057    0.2182 H   0  0  0  0  0  0  0  0  0  0  0  0
   -1.0311   -1.3053   -1.5710 H   0  0  0  0  0  0  0  0  0  0  0  0
  1  2  1  0
  2  3  3  0
  3  4  1  0
  4  5  1  0
  4  6  1  0
  4  7  1  0
  1  8  1  0
  1  9  1  0
  1 10  1  0
  5 11  1  0
  5 12  1  0
  5 13  1  0
  6 14  1  0
  6 15  1  0
  6 16  1  0
  7 17  1  0
M  END
