
     RDKit          3D

 16 16  0  0  0  0  0  0  0  0999 V2000
    2.8222   -1.7041   -0.7215 C   0  0  0  0  0  0  0  0  0  0  0  0
    1.7663   -0.7074   -0.4977 C   0  0  0  0  0  0  0  0  0  0  0  0
    0.8877    0.1281   -0.3310 C   0  0  0  0  0  0  0  0  0  0  0  0
   -0.1566    1.1419   -0.1148 C   0  0  0  0  0  0  0  0  0  0  0  0
   -1.2233    0.7894   -0.8979 O   0  0  0  0  0  0  0  0  0  0  0  0
   -2.2703    0.3804   -0.0935 C   0  0  0  0  0  0  0  0  0  0  0  0
   -1.5956    0.1337    1.2316 C   0  0  0  0  0  0  0  0  0  0  0  0
   -0.6017    1.1381    1.2108 O   0  0  0  0  0  0  0  0  0  0  0  0
    3.6213   -1.5124    0.0424 H   0  0  0  0  0  0  0  0  0  0  0  0
    3.2019   -1.6062   -1.7410 H   0  0  0  0  0  0  0  0  0  0  0  0
    2.4511   -2.7392   -0.5020 H   0  0  0  0  0  0  0  0  0  0  0  0
    0.1929    2.1456   -0.4373 H   0  0  0  0  0  0  0  0  0  0  0  0
   -2.7667   -0.5397   -0.4790 H   0  0  0  0  0  0  0  0  0  0  0  0
   -3.0258    1.1958    0.0564 H   0  0  0  0  0  0  0  0  0  0  0  0
   -1.0285   -0.8268    1.1813 H   0  0  0  0  0  0  0  0  0  0  0  0
   -2.2748    0.2153    2.0933 H   0  0  0  0  0  0  0  0  0  0  0  0
  1  2  1  0
  2  3  3  0
  3  4  1  0
  4  5  1  0
  5  6  1  0
  6  7  1  0
  7  8  1  0
  8  4  1  0
  1  9  1  0
  1 10  1  0
  1 11  1  0
  4 12  1  0
  6 13  1  0
  6 14  1  0
  7 15  1  0
  7 16  1  0
M  END
