
     RDKit          3D

 17 17  0  0  0  0  0  0  0  0999 V2000
    3.6337   -0.4937    0.4673 C   0  0  0  0  0  0  0  0  0  0  0  0
    2.2641   -0.4626    0.0531 C   0  0  0  0  0  0  0  0  0  0  0  0
    0.8630   -0.4051   -0.3680 C   0  0  0  0  0  0  0  0  0  0  0  0
   -0.2390   -0.3608   -0.7139 C   0  0  0  0  0  0  0  0  0  0  0  0
   -0.4708   -0.9134   -2.0291 O   0  0  0  0  0  0  0  0  0  0  0  0
   -1.4496    0.1893   -0.1562 C   0  0  0  0  0  0  0  0  0  0  0  0
   -1.7674    1.6248   -0.4922 C   0  0  0  0  0  0  0  0  0  0  0  0
   -2.0788   -0.4631    0.9867 C   0  0  0  0  0  0  0  0  0  0  0  0
   -2.5808   -0.6964   -0.3239 O   0  0  0  0  0  0  0  0  0  0  0  0
    3.9725    0.6612    0.3468 H   0  0  0  0  0  0  0  0  0  0  0  0
    4.1056   -0.9464   -0.4833 H   0  0  0  0  0  0  0  0  0  0  0  0
    3.7798   -0.9445    1.3052 H   0  0  0  0  0  0  0  0  0  0  0  0
   -1.8577    1.8377   -1.5815 H   0  0  0  0  0  0  0  0  0  0  0  0
   -1.0442    2.2859   -0.0445 H   0  0  0  0  0  0  0  0  0  0  0  0
   -2.7832    1.8904   -0.0748 H   0  0  0  0  0  0  0  0  0  0  0  0
   -1.5811   -1.2911    1.5323 H   0  0  0  0  0  0  0  0  0  0  0  0
   -2.7659    0.2378    1.5760 H   0  0  0  0  0  0  0  0  0  0  0  0
  1  2  1  0
  2  3  3  0
  3  4  1  0
  4  5  2  0
  4  6  1  0
  6  7  1  0
  6  8  1  0
  8  9  1  0
  9  6  1  0
  1 10  1  0
  1 11  1  0
  1 12  1  0
  7 13  1  0
  7 14  1  0
  7 15  1  0
  8 16  1  0
  8 17  1  0
M  END
