
     RDKit          3D

 15 14  0  0  0  0  0  0  0  0999 V2000
   -4.7461    0.2342    0.8857 C   0  0  0  0  0  0  0  0  0  0  0  0
   -3.2517    0.1723    0.6503 C   0  0  0  0  0  0  0  0  0  0  0  0
   -2.5611    0.1454    0.5293 C   0  0  0  0  0  0  0  0  0  0  0  0
   -0.7715    0.0987    0.2313 C   0  0  0  0  0  0  0  0  0  0  0  0
    0.3467    0.0801    0.0290 C   0  0  0  0  0  0  0  0  0  0  0  0
    1.4403    0.0732   -0.1808 C   0  0  0  0  0  0  0  0  0  0  0  0
    2.7594    0.0806   -0.4166 C   0  0  0  0  0  0  0  0  0  0  0  0
    4.1367    0.1127   -0.6663 C   0  0  0  0  0  0  0  0  0  0  0  0
    4.7589   -1.2552   -0.5580 O   0  0  0  0  0  0  0  0  0  0  0  0
   -5.3299    0.0732   -0.0813 H   0  0  0  0  0  0  0  0  0  0  0  0
   -5.0991    1.2911    1.2081 H   0  0  0  0  0  0  0  0  0  0  0  0
   -5.0489   -0.4595    1.7098 H   0  0  0  0  0  0  0  0  0  0  0  0
    4.3556    0.3069   -1.8340 H   0  0  0  0  0  0  0  0  0  0  0  0
    4.7527    0.7900   -0.1029 H   0  0  0  0  0  0  0  0  0  0  0  0
    4.2582   -1.7436    0.1061 H   0  0  0  0  0  0  0  0  0  0  0  0
  1  2  1  0
  2  3  3  0
  3  4  1  0
  4  5  3  0
  5  6  1  0
  6  7  3  0
  7  8  1  0
  8  9  1  0
  1 10  1  0
  1 11  1  0
  1 12  1  0
  8 13  1  0
  8 14  1  0
  9 15  1  0
M  END
