
     RDKit          3D

 17 18  0  0  0  0  0  0  0  0999 V2000
    3.5607   -0.5483    0.2265 C   0  0  0  0  0  0  0  0  0  0  0  0
    2.2223   -0.0661   -0.1464 C   0  0  0  0  0  0  0  0  0  0  0  0
    1.1273    0.3309   -0.4657 C   0  0  0  0  0  0  0  0  0  0  0  0
   -0.2114    0.7928   -0.8534 C   0  0  0  0  0  0  0  0  0  0  0  0
   -0.8923    1.5139    0.1032 O   0  0  0  0  0  0  0  0  0  0  0  0
   -2.0663    0.8713   -0.3438 C   0  0  0  0  0  0  0  0  0  0  0  0
   -2.2513   -0.4986    0.1337 C   0  0  0  0  0  0  0  0  0  0  0  0
   -1.9136   -0.7681    1.4750 O   0  0  0  0  0  0  0  0  0  0  0  0
   -1.1975   -0.3190   -0.8692 C   0  0  0  0  0  0  0  0  0  0  0  0
    4.2361   -0.6116   -0.6408 H   0  0  0  0  0  0  0  0  0  0  0  0
    4.0089    0.0550    1.0381 H   0  0  0  0  0  0  0  0  0  0  0  0
    3.4132   -1.6019    0.5872 H   0  0  0  0  0  0  0  0  0  0  0  0
   -0.1973    1.3894   -1.8124 H   0  0  0  0  0  0  0  0  0  0  0  0
   -2.6782    1.3555   -1.1140 H   0  0  0  0  0  0  0  0  0  0  0  0
   -3.2174   -0.9855   -0.1744 H   0  0  0  0  0  0  0  0  0  0  0  0
   -2.4771   -0.2444    2.0974 H   0  0  0  0  0  0  0  0  0  0  0  0
   -1.4661   -0.6652   -1.9101 H   0  0  0  0  0  0  0  0  0  0  0  0
  1  2  1  0
  2  3  3  0
  3  4  1  0
  4  5  1  0
  5  6  1  0
  6  7  1  0
  7  8  1  0
  7  9  1  0
  9  4  1  0
  9  6  1  0
  1 10  1  0
  1 11  1  0
  1 12  1  0
  4 13  1  0
  6 14  1  0
  7 15  1  0
  8 16  1  0
  9 17  1  0
M  END
