
     RDKit          3D

 19 18  0  0  0  0  0  0  0  0999 V2000
    3.6681   -0.1042   -0.2672 C   0  0  0  0  0  0  0  0  0  0  0  0
    2.2045   -0.1037   -0.2451 C   0  0  0  0  0  0  0  0  0  0  0  0
    1.0005   -0.0854   -0.2371 C   0  0  0  0  0  0  0  0  0  0  0  0
   -0.5079   -0.0374   -0.2343 C   0  0  0  0  0  0  0  0  0  0  0  0
   -0.9837   -1.3050    0.3738 C   0  0  0  0  0  0  0  0  0  0  0  0
   -2.4363   -1.4296    0.4590 C   0  0  0  0  0  0  0  0  0  0  0  0
   -3.2509   -0.6225    0.0953 O   0  0  0  0  0  0  0  0  0  0  0  0
   -0.8619    1.1256    0.4001 O   0  0  0  0  0  0  0  0  0  0  0  0
   -1.4504    1.9871   -0.5141 C   0  0  0  0  0  0  0  0  0  0  0  0
    4.0817    0.6316   -0.9864 H   0  0  0  0  0  0  0  0  0  0  0  0
    4.0751   -1.1079   -0.5642 H   0  0  0  0  0  0  0  0  0  0  0  0
    4.0021    0.0917    0.7655 H   0  0  0  0  0  0  0  0  0  0  0  0
   -0.8448   -0.0101   -1.3033 H   0  0  0  0  0  0  0  0  0  0  0  0
   -0.5920   -1.3267    1.4168 H   0  0  0  0  0  0  0  0  0  0  0  0
   -0.5861   -2.1501   -0.2327 H   0  0  0  0  0  0  0  0  0  0  0  0
   -2.8322   -2.3584    0.9022 H   0  0  0  0  0  0  0  0  0  0  0  0
   -1.7235    2.9021    0.0517 H   0  0  0  0  0  0  0  0  0  0  0  0
   -2.2690    1.5736   -1.0953 H   0  0  0  0  0  0  0  0  0  0  0  0
   -0.6934    2.3292   -1.2889 H   0  0  0  0  0  0  0  0  0  0  0  0
  1  2  1  0
  2  3  3  0
  3  4  1  0
  4  5  1  0
  5  6  1  0
  6  7  2  0
  4  8  1  0
  8  9  1  0
  1 10  1  0
  1 11  1  0
  1 12  1  0
  4 13  1  0
  5 14  1  0
  5 15  1  0
  6 16  1  0
  9 17  1  0
  9 18  1  0
  9 19  1  0
M  END
