
     RDKit          3D

 21 20  0  0  0  0  0  0  0  0999 V2000
    3.5867    1.1067    0.7512 C   0  0  0  0  0  0  0  0  0  0  0  0
    2.2375    0.8295    0.0490 C   0  0  0  0  0  0  0  0  0  0  0  0
    1.2822    0.6292   -0.4581 C   0  0  0  0  0  0  0  0  0  0  0  0
    0.0384    0.3598   -1.1309 C   0  0  0  0  0  0  0  0  0  0  0  0
   -0.9008   -0.5601   -0.3569 C   0  0  0  0  0  0  0  0  0  0  0  0
   -2.1716   -0.7776   -1.2020 C   0  0  0  0  0  0  0  0  0  0  0  0
   -0.2820   -1.7881   -0.1333 O   0  0  0  0  0  0  0  0  0  0  0  0
   -1.4192    0.0932    0.9042 C   0  0  0  0  0  0  0  0  0  0  0  0
   -0.4809    0.3397    1.8632 O   0  0  0  0  0  0  0  0  0  0  0  0
    3.4165    1.6069    1.7199 H   0  0  0  0  0  0  0  0  0  0  0  0
    4.2327    1.6683    0.0888 H   0  0  0  0  0  0  0  0  0  0  0  0
    4.0117    0.0850    0.9529 H   0  0  0  0  0  0  0  0  0  0  0  0
   -0.4903    1.3243   -1.3569 H   0  0  0  0  0  0  0  0  0  0  0  0
    0.2587   -0.1007   -2.1391 H   0  0  0  0  0  0  0  0  0  0  0  0
   -2.0377   -0.4773   -2.2580 H   0  0  0  0  0  0  0  0  0  0  0  0
   -2.3710   -1.8782   -1.1351 H   0  0  0  0  0  0  0  0  0  0  0  0
   -2.9994   -0.2825   -0.6826 H   0  0  0  0  0  0  0  0  0  0  0  0
   -1.0133   -2.4352    0.0979 H   0  0  0  0  0  0  0  0  0  0  0  0
   -1.9071    1.0587    0.5385 H   0  0  0  0  0  0  0  0  0  0  0  0
   -2.2853   -0.5360    1.2526 H   0  0  0  0  0  0  0  0  0  0  0  0
   -0.7059   -0.2654    2.6348 H   0  0  0  0  0  0  0  0  0  0  0  0
  1  2  1  0
  2  3  3  0
  3  4  1  0
  4  5  1  0
  5  6  1  0
  5  7  1  0
  5  8  1  0
  8  9  1  0
  1 10  1  0
  1 11  1  0
  1 12  1  0
  4 13  1  0
  4 14  1  0
  6 15  1  0
  6 16  1  0
  6 17  1  0
  7 18  1  0
  8 19  1  0
  8 20  1  0
  9 21  1  0
M  END
