
     RDKit          3D

 17 16  0  0  0  0  0  0  0  0999 V2000
    2.6709   -1.6783   -0.3429 C   0  0  0  0  0  0  0  0  0  0  0  0
    1.5699   -0.7771    0.0004 C   0  0  0  0  0  0  0  0  0  0  0  0
    0.6553   -0.0360    0.3043 C   0  0  0  0  0  0  0  0  0  0  0  0
   -0.4420    0.8663    0.6950 C   0  0  0  0  0  0  0  0  0  0  0  0
    0.0731    2.2446    0.5991 C   0  0  0  0  0  0  0  0  0  0  0  0
    0.9168    2.5960   -0.2088 O   0  0  0  0  0  0  0  0  0  0  0  0
   -1.5824    0.6906   -0.2123 C   0  0  0  0  0  0  0  0  0  0  0  0
   -2.2992   -0.6078   -0.3853 C   0  0  0  0  0  0  0  0  0  0  0  0
   -1.9913    1.6260   -0.8714 O   0  0  0  0  0  0  0  0  0  0  0  0
    2.4219   -2.2353   -1.2926 H   0  0  0  0  0  0  0  0  0  0  0  0
    3.5721   -1.0586   -0.5617 H   0  0  0  0  0  0  0  0  0  0  0  0
    2.8758   -2.4192    0.4697 H   0  0  0  0  0  0  0  0  0  0  0  0
   -0.7489    0.6171    1.7478 H   0  0  0  0  0  0  0  0  0  0  0  0
   -0.2905    3.0305    1.2674 H   0  0  0  0  0  0  0  0  0  0  0  0
   -1.8281   -1.1853   -1.1960 H   0  0  0  0  0  0  0  0  0  0  0  0
   -3.3823   -0.4757   -0.5616 H   0  0  0  0  0  0  0  0  0  0  0  0
   -2.1912   -1.1976    0.5488 H   0  0  0  0  0  0  0  0  0  0  0  0
  1  2  1  0
  2  3  3  0
  3  4  1  0
  4  5  1  0
  5  6  2  0
  4  7  1  0
  7  8  1  0
  7  9  2  0
  1 10  1  0
  1 11  1  0
  1 12  1  0
  4 13  1  0
  5 14  1  0
  8 15  1  0
  8 16  1  0
  8 17  1  0
M  END
