
     RDKit          3D

 17 18  0  0  0  0  0  0  0  0999 V2000
    1.7802    1.8878   -2.2612 C   0  0  0  0  0  0  0  0  0  0  0  0
    0.9447    1.1109   -1.3006 C   0  0  0  0  0  0  0  0  0  0  0  0
    0.2670    0.4756   -0.5454 C   0  0  0  0  0  0  0  0  0  0  0  0
   -0.5107   -0.2390    0.2868 C   0  0  0  0  0  0  0  0  0  0  0  0
   -1.2238   -1.5092   -0.0507 C   0  0  0  0  0  0  0  0  0  0  0  0
   -1.5397   -1.1521    1.3680 C   0  0  0  0  0  0  0  0  0  0  0  0
   -1.6483    0.1760    0.9121 O   0  0  0  0  0  0  0  0  0  0  0  0
   -0.0832   -0.8632    1.5599 C   0  0  0  0  0  0  0  0  0  0  0  0
    0.1246   -0.0093    2.6306 O   0  0  0  0  0  0  0  0  0  0  0  0
    2.5992    2.3533   -1.6854 H   0  0  0  0  0  0  0  0  0  0  0  0
    2.1817    1.2011   -3.0492 H   0  0  0  0  0  0  0  0  0  0  0  0
    1.1754    2.7064   -2.7126 H   0  0  0  0  0  0  0  0  0  0  0  0
   -2.0802   -1.4220   -0.7524 H   0  0  0  0  0  0  0  0  0  0  0  0
   -0.5589   -2.3588   -0.2243 H   0  0  0  0  0  0  0  0  0  0  0  0
   -2.1727   -1.6059    1.9989 H   0  0  0  0  0  0  0  0  0  0  0  0
    0.6063   -1.6968    1.4503 H   0  0  0  0  0  0  0  0  0  0  0  0
    0.1385    0.9454    2.3752 H   0  0  0  0  0  0  0  0  0  0  0  0
  1  2  1  0
  2  3  3  0
  3  4  1  0
  4  5  1  0
  5  6  1  0
  6  7  1  0
  6  8  1  0
  8  9  1  0
  7  4  1  0
  8  4  1  0
  1 10  1  0
  1 11  1  0
  1 12  1  0
  5 13  1  0
  5 14  1  0
  6 15  1  0
  8 16  1  0
  9 17  1  0
M  END
