
     RDKit          3D

 19 18  0  0  0  0  0  0  0  0999 V2000
    3.1178   -0.0617   -1.1425 C   0  0  0  0  0  0  0  0  0  0  0  0
    1.5207   -0.0536   -0.3942 C   0  0  0  0  0  0  0  0  0  0  0  0
    0.4022   -0.0340    0.1335 C   0  0  0  0  0  0  0  0  0  0  0  0
   -0.7877    0.0074    0.6952 C   0  0  0  0  0  0  0  0  0  0  0  0
   -1.1181    1.2129    1.3589 O   0  0  0  0  0  0  0  0  0  0  0  0
    0.1531    1.9535    1.2313 C   0  0  0  0  0  0  0  0  0  0  0  0
   -1.9654   -0.6889    0.0543 C   0  0  0  0  0  0  0  0  0  0  0  0
   -2.0708   -1.6861   -0.7943 C   0  0  0  0  0  0  0  0  0  0  0  0
   -3.0850   -0.0294    0.5919 O   0  0  0  0  0  0  0  0  0  0  0  0
    2.7777    0.3545   -2.0687 H   0  0  0  0  0  0  0  0  0  0  0  0
    3.4427    0.8657   -0.4530 H   0  0  0  0  0  0  0  0  0  0  0  0
    3.4871   -0.9524   -0.8565 H   0  0  0  0  0  0  0  0  0  0  0  0
   -0.5123   -0.7772    1.7400 H   0  0  0  0  0  0  0  0  0  0  0  0
    0.1461    1.9351   -0.0137 H   0  0  0  0  0  0  0  0  0  0  0  0
    1.0350    1.5054    1.4145 H   0  0  0  0  0  0  0  0  0  0  0  0
   -0.2020    2.9772    1.5191 H   0  0  0  0  0  0  0  0  0  0  0  0
   -2.8294   -1.7247   -1.6448 H   0  0  0  0  0  0  0  0  0  0  0  0
   -1.1288   -2.0830   -1.2686 H   0  0  0  0  0  0  0  0  0  0  0  0
   -2.3827   -2.7209   -0.1024 H   0  0  0  0  0  0  0  0  0  0  0  0
  1  2  1  0
  2  3  3  0
  3  4  1  0
  4  5  1  0
  5  6  1  0
  4  7  1  0
  7  8  1  0
  7  9  2  0
  1 10  1  0
  1 11  1  0
  1 12  1  0
  4 13  1  0
  6 14  1  0
  6 15  1  0
  6 16  1  0
  8 17  1  0
  8 18  1  0
  8 19  1  0
M  END
