
     RDKit          3D

 18 17  0  0  0  0  0  0  0  0999 V2000
    2.7676   -1.6969    0.0613 C   0  0  0  0  0  0  0  0  0  0  0  0
    1.4952   -0.9879    0.2203 C   0  0  0  0  0  0  0  0  0  0  0  0
    0.4405   -0.4179    0.3638 C   0  0  0  0  0  0  0  0  0  0  0  0
   -0.8559    0.2899    0.5157 C   0  0  0  0  0  0  0  0  0  0  0  0
   -0.6964    1.4021    1.5268 C   0  0  0  0  0  0  0  0  0  0  0  0
   -1.2718    0.8635   -0.7838 C   0  0  0  0  0  0  0  0  0  0  0  0
   -1.5090    0.0299   -1.9931 C   0  0  0  0  0  0  0  0  0  0  0  0
   -1.4248    2.0648   -0.8632 O   0  0  0  0  0  0  0  0  0  0  0  0
    3.1274   -1.9613    1.0579 H   0  0  0  0  0  0  0  0  0  0  0  0
    3.5464   -1.0292   -0.4084 H   0  0  0  0  0  0  0  0  0  0  0  0
    2.6838   -2.5631   -0.6352 H   0  0  0  0  0  0  0  0  0  0  0  0
   -1.5610   -0.4823    0.8826 H   0  0  0  0  0  0  0  0  0  0  0  0
   -1.6784    1.7657    1.8758 H   0  0  0  0  0  0  0  0  0  0  0  0
   -0.1302    0.9442    2.3905 H   0  0  0  0  0  0  0  0  0  0  0  0
   -0.1382    2.2443    1.1252 H   0  0  0  0  0  0  0  0  0  0  0  0
   -1.3044   -1.0489   -1.7687 H   0  0  0  0  0  0  0  0  0  0  0  0
   -0.9072    0.3973   -2.8435 H   0  0  0  0  0  0  0  0  0  0  0  0
   -2.5835    0.1858   -2.2879 H   0  0  0  0  0  0  0  0  0  0  0  0
  1  2  1  0
  2  3  3  0
  3  4  1  0
  4  5  1  0
  4  6  1  0
  6  7  1  0
  6  8  2  0
  1  9  1  0
  1 10  1  0
  1 11  1  0
  4 12  1  0
  5 13  1  0
  5 14  1  0
  5 15  1  0
  7 16  1  0
  7 17  1  0
  7 18  1  0
M  END
