
     RDKit          3D

 19 18  0  0  0  0  0  0  0  0999 V2000
    2.9316    0.9170   -1.4645 C   0  0  0  0  0  0  0  0  0  0  0  0
    1.6191    0.9346   -0.7888 C   0  0  0  0  0  0  0  0  0  0  0  0
    0.5463    0.9692   -0.2414 C   0  0  0  0  0  0  0  0  0  0  0  0
   -0.7617    0.9884    0.4133 C   0  0  0  0  0  0  0  0  0  0  0  0
   -1.3092   -0.4235    0.5672 C   0  0  0  0  0  0  0  0  0  0  0  0
   -0.4055   -1.2832    1.3894 C   0  0  0  0  0  0  0  0  0  0  0  0
   -2.5630   -0.3539    1.1484 O   0  0  0  0  0  0  0  0  0  0  0  0
   -1.3764   -0.9987   -0.8122 C   0  0  0  0  0  0  0  0  0  0  0  0
   -2.4262   -1.3389   -1.2962 O   0  0  0  0  0  0  0  0  0  0  0  0
    2.9538    1.7455   -2.2019 H   0  0  0  0  0  0  0  0  0  0  0  0
    3.7678    1.0125   -0.7434 H   0  0  0  0  0  0  0  0  0  0  0  0
    3.0638   -0.0744   -1.9535 H   0  0  0  0  0  0  0  0  0  0  0  0
   -1.4363    1.5936   -0.2173 H   0  0  0  0  0  0  0  0  0  0  0  0
   -0.7217    1.4498    1.4256 H   0  0  0  0  0  0  0  0  0  0  0  0
   -0.5655   -2.3420    1.0741 H   0  0  0  0  0  0  0  0  0  0  0  0
   -0.6684   -1.2383    2.4795 H   0  0  0  0  0  0  0  0  0  0  0  0
    0.6656   -1.0512    1.2629 H   0  0  0  0  0  0  0  0  0  0  0  0
   -2.8685    0.5850    1.1956 H   0  0  0  0  0  0  0  0  0  0  0  0
   -0.4456   -1.0918   -1.3449 H   0  0  0  0  0  0  0  0  0  0  0  0
  1  2  1  0
  2  3  3  0
  3  4  1  0
  4  5  1  0
  5  6  1  0
  5  7  1  0
  5  8  1  0
  8  9  2  0
  1 10  1  0
  1 11  1  0
  1 12  1  0
  4 13  1  0
  4 14  1  0
  6 15  1  0
  6 16  1  0
  6 17  1  0
  7 18  1  0
  8 19  1  0
M  END
