
     RDKit          3D

 21 21  0  0  0  0  0  0  0  0999 V2000
    4.0114   -0.7028    0.1526 C   0  0  0  0  0  0  0  0  0  0  0  0
    2.5674   -0.5098   -0.1155 C   0  0  0  0  0  0  0  0  0  0  0  0
    1.3934   -0.3705   -0.3214 C   0  0  0  0  0  0  0  0  0  0  0  0
   -0.0129   -0.2283   -0.5728 C   0  0  0  0  0  0  0  0  0  0  0  0
   -0.8351   -1.1311    0.2946 C   0  0  0  0  0  0  0  0  0  0  0  0
   -2.1315   -0.4002    0.4968 C   0  0  0  0  0  0  0  0  0  0  0  0
   -2.0423    0.8911   -0.2885 C   0  0  0  0  0  0  0  0  0  0  0  0
   -2.7819    1.9069    0.2840 O   0  0  0  0  0  0  0  0  0  0  0  0
   -0.5465    1.1579   -0.2350 C   0  0  0  0  0  0  0  0  0  0  0  0
    4.6160   -0.4136   -0.7526 H   0  0  0  0  0  0  0  0  0  0  0  0
    4.2439   -1.7640    0.3401 H   0  0  0  0  0  0  0  0  0  0  0  0
    4.2808   -0.0441    0.9962 H   0  0  0  0  0  0  0  0  0  0  0  0
   -0.3065   -0.4126   -1.6374 H   0  0  0  0  0  0  0  0  0  0  0  0
   -0.3558   -1.3242    1.2771 H   0  0  0  0  0  0  0  0  0  0  0  0
   -1.0588   -2.1145   -0.1975 H   0  0  0  0  0  0  0  0  0  0  0  0
   -3.0095   -0.9714    0.1436 H   0  0  0  0  0  0  0  0  0  0  0  0
   -2.3203   -0.1789    1.5721 H   0  0  0  0  0  0  0  0  0  0  0  0
   -2.3218    0.6822   -1.3445 H   0  0  0  0  0  0  0  0  0  0  0  0
   -2.8803    2.6231   -0.3869 H   0  0  0  0  0  0  0  0  0  0  0  0
   -0.2029    1.8529   -1.0011 H   0  0  0  0  0  0  0  0  0  0  0  0
   -0.3065    1.4519    0.8027 H   0  0  0  0  0  0  0  0  0  0  0  0
  1  2  1  0
  2  3  3  0
  3  4  1  0
  4  5  1  0
  5  6  1  0
  6  7  1  0
  7  8  1  0
  7  9  1  0
  9  4  1  0
  1 10  1  0
  1 11  1  0
  1 12  1  0
  4 13  1  0
  5 14  1  0
  5 15  1  0
  6 16  1  0
  6 17  1  0
  7 18  1  0
  8 19  1  0
  9 20  1  0
  9 21  1  0
M  END
