
     RDKit          3D

 22 21  0  0  0  0  0  0  0  0999 V2000
    4.7569   -0.1710    0.3910 C   0  0  0  0  0  0  0  0  0  0  0  0
    3.2984   -0.0976    0.6354 C   0  0  0  0  0  0  0  0  0  0  0  0
    2.1086   -0.0242    0.8208 C   0  0  0  0  0  0  0  0  0  0  0  0
    0.6676    0.0822    1.0542 C   0  0  0  0  0  0  0  0  0  0  0  0
   -0.0094   -0.0279   -0.3055 C   0  0  0  0  0  0  0  0  0  0  0  0
   -1.4966    0.0835   -0.0532 C   0  0  0  0  0  0  0  0  0  0  0  0
   -2.2968   -0.0107   -1.3293 C   0  0  0  0  0  0  0  0  0  0  0  0
   -3.7577    0.1094   -0.9840 C   0  0  0  0  0  0  0  0  0  0  0  0
    5.3244    0.1047    1.2972 H   0  0  0  0  0  0  0  0  0  0  0  0
    4.9581   -1.2057    0.0547 H   0  0  0  0  0  0  0  0  0  0  0  0
    5.0602    0.5081   -0.4147 H   0  0  0  0  0  0  0  0  0  0  0  0
    0.4187    1.0427    1.5479 H   0  0  0  0  0  0  0  0  0  0  0  0
    0.2998   -0.7840    1.6710 H   0  0  0  0  0  0  0  0  0  0  0  0
    0.1732   -1.0417   -0.7160 H   0  0  0  0  0  0  0  0  0  0  0  0
    0.3640    0.7042   -1.0196 H   0  0  0  0  0  0  0  0  0  0  0  0
   -1.6587    1.0462    0.4674 H   0  0  0  0  0  0  0  0  0  0  0  0
   -1.7764   -0.7463    0.6163 H   0  0  0  0  0  0  0  0  0  0  0  0
   -2.0533   -0.9171   -1.8765 H   0  0  0  0  0  0  0  0  0  0  0  0
   -2.0392    0.8994   -1.9364 H   0  0  0  0  0  0  0  0  0  0  0  0
   -3.9806    1.1881   -0.8274 H   0  0  0  0  0  0  0  0  0  0  0  0
   -3.9914   -0.4425   -0.0350 H   0  0  0  0  0  0  0  0  0  0  0  0
   -4.3699   -0.2999   -1.8352 H   0  0  0  0  0  0  0  0  0  0  0  0
  1  2  1  0
  2  3  3  0
  3  4  1  0
  4  5  1  0
  5  6  1  0
  6  7  1  0
  7  8  1  0
  1  9  1  0
  1 10  1  0
  1 11  1  0
  4 12  1  0
  4 13  1  0
  5 14  1  0
  5 15  1  0
  6 16  1  0
  6 17  1  0
  7 18  1  0
  7 19  1  0
  8 20  1  0
  8 21  1  0
  8 22  1  0
M  END
