
     RDKit          3D

 19 19  0  0  0  0  0  0  0  0999 V2000
    3.1447    0.6401    1.1455 C   0  0  0  0  0  0  0  0  0  0  0  0
    1.6950    0.4881    0.9640 C   0  0  0  0  0  0  0  0  0  0  0  0
    0.5073    0.3604    0.8085 C   0  0  0  0  0  0  0  0  0  0  0  0
   -0.9571    0.2188    0.5965 C   0  0  0  0  0  0  0  0  0  0  0  0
   -1.4156    0.6630   -0.7613 C   0  0  0  0  0  0  0  0  0  0  0  0
   -0.4165    1.2879   -1.5107 O   0  0  0  0  0  0  0  0  0  0  0  0
   -1.6554   -0.7658   -1.1390 C   0  0  0  0  0  0  0  0  0  0  0  0
   -1.2848   -1.1832    0.2493 C   0  0  0  0  0  0  0  0  0  0  0  0
   -0.2094   -2.0592    0.2750 O   0  0  0  0  0  0  0  0  0  0  0  0
    3.6466   -0.3621    1.1656 H   0  0  0  0  0  0  0  0  0  0  0  0
    3.3909    1.1119    2.1146 H   0  0  0  0  0  0  0  0  0  0  0  0
    3.5213    1.2712    0.3350 H   0  0  0  0  0  0  0  0  0  0  0  0
   -1.5438    0.6475    1.4421 H   0  0  0  0  0  0  0  0  0  0  0  0
   -2.3577    1.2427   -0.6831 H   0  0  0  0  0  0  0  0  0  0  0  0
   -0.5042    2.2573   -1.3576 H   0  0  0  0  0  0  0  0  0  0  0  0
   -2.7010   -0.9788   -1.4433 H   0  0  0  0  0  0  0  0  0  0  0  0
   -0.8859   -1.0992   -1.8823 H   0  0  0  0  0  0  0  0  0  0  0  0
   -2.1474   -1.6077    0.8383 H   0  0  0  0  0  0  0  0  0  0  0  0
    0.1733   -2.1329   -0.6338 H   0  0  0  0  0  0  0  0  0  0  0  0
  1  2  1  0
  2  3  3  0
  3  4  1  0
  4  5  1  0
  5  6  1  0
  5  7  1  0
  7  8  1  0
  8  9  1  0
  8  4  1  0
  1 10  1  0
  1 11  1  0
  1 12  1  0
  4 13  1  0
  5 14  1  0
  6 15  1  0
  7 16  1  0
  7 17  1  0
  8 18  1  0
  9 19  1  0
M  END
