
     RDKit          3D

 19 18  0  0  0  0  0  0  0  0999 V2000
    3.9311    0.0802    0.2882 C   0  0  0  0  0  0  0  0  0  0  0  0
    2.4924    0.2364    0.5118 C   0  0  0  0  0  0  0  0  0  0  0  0
    1.3070    0.3830    0.7078 C   0  0  0  0  0  0  0  0  0  0  0  0
   -0.1044    0.5614    0.9591 C   0  0  0  0  0  0  0  0  0  0  0  0
   -0.4278    1.2860    1.9309 O   0  0  0  0  0  0  0  0  0  0  0  0
   -1.0889   -0.1106    0.0693 C   0  0  0  0  0  0  0  0  0  0  0  0
   -0.8319   -1.5922   -0.0532 C   0  0  0  0  0  0  0  0  0  0  0  0
   -2.3538    0.2010    0.4974 O   0  0  0  0  0  0  0  0  0  0  0  0
   -3.0080    0.9548   -0.4747 C   0  0  0  0  0  0  0  0  0  0  0  0
    4.2648    0.9404   -0.3146 H   0  0  0  0  0  0  0  0  0  0  0  0
    4.4729    0.0041    1.2567 H   0  0  0  0  0  0  0  0  0  0  0  0
    4.1155   -0.8456   -0.3115 H   0  0  0  0  0  0  0  0  0  0  0  0
   -0.9063    0.3230   -0.9567 H   0  0  0  0  0  0  0  0  0  0  0  0
   -1.2264   -2.1780    0.7934 H   0  0  0  0  0  0  0  0  0  0  0  0
   -1.3940   -1.9288   -0.9695 H   0  0  0  0  0  0  0  0  0  0  0  0
    0.2439   -1.7552   -0.1777 H   0  0  0  0  0  0  0  0  0  0  0  0
   -3.0650    0.3474   -1.4218 H   0  0  0  0  0  0  0  0  0  0  0  0
   -2.3909    1.8443   -0.7356 H   0  0  0  0  0  0  0  0  0  0  0  0
   -4.0303    1.2484   -0.1270 H   0  0  0  0  0  0  0  0  0  0  0  0
  1  2  1  0
  2  3  3  0
  3  4  1  0
  4  5  2  0
  4  6  1  0
  6  7  1  0
  6  8  1  0
  8  9  1  0
  1 10  1  0
  1 11  1  0
  1 12  1  0
  6 13  1  0
  7 14  1  0
  7 15  1  0
  7 16  1  0
  9 17  1  0
  9 18  1  0
  9 19  1  0
M  END
