
     RDKit          3D

 19 21  0  0  0  0  0  0  0  0999 V2000
    3.7995   -0.5959   -0.9208 C   0  0  0  0  0  0  0  0  0  0  0  0
    2.4356   -0.7755   -0.4238 C   0  0  0  0  0  0  0  0  0  0  0  0
    1.3183   -0.9362   -0.0076 C   0  0  0  0  0  0  0  0  0  0  0  0
   -0.0686   -1.1291    0.4893 C   0  0  0  0  0  0  0  0  0  0  0  0
   -0.6073   -0.0570    1.2749 C   0  0  0  0  0  0  0  0  0  0  0  0
   -1.2380    1.2214    0.8050 C   0  0  0  0  0  0  0  0  0  0  0  0
   -2.6329    1.5646    0.7502 C   0  0  0  0  0  0  0  0  0  0  0  0
   -2.3859    0.1666    0.5312 C   0  0  0  0  0  0  0  0  0  0  0  0
   -1.2003   -0.4784   -0.1304 C   0  0  0  0  0  0  0  0  0  0  0  0
    4.5558   -0.9647   -0.2306 H   0  0  0  0  0  0  0  0  0  0  0  0
    3.8611   -1.1970   -1.8661 H   0  0  0  0  0  0  0  0  0  0  0  0
    3.9755    0.4660   -1.2464 H   0  0  0  0  0  0  0  0  0  0  0  0
   -0.2255   -2.2150    0.7555 H   0  0  0  0  0  0  0  0  0  0  0  0
   -1.1932   -0.4310    2.1679 H   0  0  0  0  0  0  0  0  0  0  0  0
   -0.6794    1.5635   -0.1180 H   0  0  0  0  0  0  0  0  0  0  0  0
   -3.0862    2.1259   -0.1202 H   0  0  0  0  0  0  0  0  0  0  0  0
   -3.0823    1.9578    1.7072 H   0  0  0  0  0  0  0  0  0  0  0  0
   -2.6698   -0.4633    1.4278 H   0  0  0  0  0  0  0  0  0  0  0  0
   -0.8765    0.1773   -0.9935 H   0  0  0  0  0  0  0  0  0  0  0  0
  1  2  1  0
  2  3  3  0
  3  4  1  0
  4  5  1  0
  5  6  1  0
  6  7  1  0
  7  8  1  0
  8  9  1  0
  9  4  1  0
  9  5  1  0
  8  6  1  0
  1 10  1  0
  1 11  1  0
  1 12  1  0
  4 13  1  0
  5 14  1  0
  6 15  1  0
  7 16  1  0
  7 17  1  0
  8 18  1  0
  9 19  1  0
M  END
