
     RDKit          3D

 16 15  0  0  0  0  0  0  0  0999 V2000
    3.0360   -0.5622   -1.1457 C   0  0  0  0  0  0  0  0  0  0  0  0
    1.6588   -0.6345   -0.6508 C   0  0  0  0  0  0  0  0  0  0  0  0
    0.5113   -0.6756   -0.2294 C   0  0  0  0  0  0  0  0  0  0  0  0
   -0.8707   -0.7374    0.2545 C   0  0  0  0  0  0  0  0  0  0  0  0
   -0.9199   -0.8288    1.6368 O   0  0  0  0  0  0  0  0  0  0  0  0
   -1.5468    0.4958   -0.2445 C   0  0  0  0  0  0  0  0  0  0  0  0
   -2.1461    1.4028    0.7735 C   0  0  0  0  0  0  0  0  0  0  0  0
   -1.5982    0.7363   -1.4341 O   0  0  0  0  0  0  0  0  0  0  0  0
    3.0690   -0.1459   -2.1803 H   0  0  0  0  0  0  0  0  0  0  0  0
    3.6123    0.0504   -0.4325 H   0  0  0  0  0  0  0  0  0  0  0  0
    3.4612   -1.6014   -1.1166 H   0  0  0  0  0  0  0  0  0  0  0  0
   -1.4088   -1.6299   -0.1520 H   0  0  0  0  0  0  0  0  0  0  0  0
   -0.0509   -0.6978    2.0788 H   0  0  0  0  0  0  0  0  0  0  0  0
   -2.5163    2.3173    0.2707 H   0  0  0  0  0  0  0  0  0  0  0  0
   -2.9494    0.8375    1.2864 H   0  0  0  0  0  0  0  0  0  0  0  0
   -1.3416    1.6733    1.5067 H   0  0  0  0  0  0  0  0  0  0  0  0
  1  2  1  0
  2  3  3  0
  3  4  1  0
  4  5  1  0
  4  6  1  0
  6  7  1  0
  6  8  2  0
  1  9  1  0
  1 10  1  0
  1 11  1  0
  4 12  1  0
  5 13  1  0
  7 14  1  0
  7 15  1  0
  7 16  1  0
M  END
