
     RDKit          3D

 15 14  0  0  0  0  0  0  0  0999 V2000
    3.5634    0.6772    0.5060 C   0  0  0  0  0  0  0  0  0  0  0  0
    2.2257    0.1058    0.5584 C   0  0  0  0  0  0  0  0  0  0  0  0
    1.1098   -0.3932    0.6083 C   0  0  0  0  0  0  0  0  0  0  0  0
   -0.1690   -0.9916    0.6593 C   0  0  0  0  0  0  0  0  0  0  0  0
   -0.6366   -1.9908    1.0911 O   0  0  0  0  0  0  0  0  0  0  0  0
   -1.1839   -0.0681   -0.0554 C   0  0  0  0  0  0  0  0  0  0  0  0
   -0.7501    0.9668   -0.6103 O   0  0  0  0  0  0  0  0  0  0  0  0
   -2.6028   -0.3905   -0.0748 C   0  0  0  0  0  0  0  0  0  0  0  0
   -3.2863    0.6476   -0.7386 O   0  0  0  0  0  0  0  0  0  0  0  0
    4.2890   -0.0567    0.0547 H   0  0  0  0  0  0  0  0  0  0  0  0
    3.9339    0.9380    1.5291 H   0  0  0  0  0  0  0  0  0  0  0  0
    3.5502    1.6062   -0.1040 H   0  0  0  0  0  0  0  0  0  0  0  0
   -3.0236   -0.3912    0.9697 H   0  0  0  0  0  0  0  0  0  0  0  0
   -2.7923   -1.3596   -0.5983 H   0  0  0  0  0  0  0  0  0  0  0  0
   -4.2275    0.7004   -0.4140 H   0  0  0  0  0  0  0  0  0  0  0  0
  1  2  1  0
  2  3  3  0
  3  4  1  0
  4  5  2  0
  4  6  1  0
  6  7  2  0
  6  8  1  0
  8  9  1  0
  1 10  1  0
  1 11  1  0
  1 12  1  0
  8 13  1  0
  8 14  1  0
  9 15  1  0
M  END
