
     RDKit          3D

 18 18  0  0  0  0  0  0  0  0999 V2000
    3.3917    0.6208    0.3180 C   0  0  0  0  0  0  0  0  0  0  0  0
    1.9780    0.4310   -0.0124 C   0  0  0  0  0  0  0  0  0  0  0  0
    0.8178    0.2546   -0.2791 C   0  0  0  0  0  0  0  0  0  0  0  0
   -0.5734    0.0603   -0.6176 C   0  0  0  0  0  0  0  0  0  0  0  0
   -0.9641    0.5461   -1.8613 O   0  0  0  0  0  0  0  0  0  0  0  0
   -1.1405   -1.3121   -0.3290 C   0  0  0  0  0  0  0  0  0  0  0  0
   -2.3398   -0.6602    0.3487 C   0  0  0  0  0  0  0  0  0  0  0  0
   -1.4803    0.6044    0.4616 C   0  0  0  0  0  0  0  0  0  0  0  0
    3.4909    1.3092    1.1942 H   0  0  0  0  0  0  0  0  0  0  0  0
    3.9063   -0.3327    0.5281 H   0  0  0  0  0  0  0  0  0  0  0  0
    3.9505    1.0749   -0.5472 H   0  0  0  0  0  0  0  0  0  0  0  0
   -0.1668    0.6179   -2.4408 H   0  0  0  0  0  0  0  0  0  0  0  0
   -1.4726   -1.8922   -1.1961 H   0  0  0  0  0  0  0  0  0  0  0  0
   -0.5039   -1.9104    0.3239 H   0  0  0  0  0  0  0  0  0  0  0  0
   -3.1927   -0.5159   -0.3479 H   0  0  0  0  0  0  0  0  0  0  0  0
   -2.6173   -1.1058    1.3226 H   0  0  0  0  0  0  0  0  0  0  0  0
   -2.0556    1.5117    0.1822 H   0  0  0  0  0  0  0  0  0  0  0  0
   -1.0282    0.6984    1.4583 H   0  0  0  0  0  0  0  0  0  0  0  0
  1  2  1  0
  2  3  3  0
  3  4  1  0
  4  5  1  0
  4  6  1  0
  6  7  1  0
  7  8  1  0
  8  4  1  0
  1  9  1  0
  1 10  1  0
  1 11  1  0
  5 12  1  0
  6 13  1  0
  6 14  1  0
  7 15  1  0
  7 16  1  0
  8 17  1  0
  8 18  1  0
M  END
