
     RDKit          3D

 17 17  0  0  0  0  0  0  0  0999 V2000
    4.4220    1.7987    1.0060 C   0  0  0  0  0  0  0  0  0  0  0  0
    2.9490    1.2032    0.8954 C   0  0  0  0  0  0  0  0  0  0  0  0
    1.7952    0.7534    0.8256 C   0  0  0  0  0  0  0  0  0  0  0  0
    0.0393    0.0347    0.7131 C   0  0  0  0  0  0  0  0  0  0  0  0
   -0.6829   -0.2603    0.6703 C   0  0  0  0  0  0  0  0  0  0  0  0
   -1.7625   -0.7073    0.6069 C   0  0  0  0  0  0  0  0  0  0  0  0
   -1.1042   -2.0892   -0.5222 O   0  0  0  0  0  0  0  0  0  0  0  0
   -3.1013   -1.3169    0.3841 C   0  0  0  0  0  0  0  0  0  0  0  0
   -2.6347   -0.3535   -0.6862 C   0  0  0  0  0  0  0  0  0  0  0  0
    4.4116    2.3919    0.1322 H   0  0  0  0  0  0  0  0  0  0  0  0
    4.3779    2.1746    2.0023 H   0  0  0  0  0  0  0  0  0  0  0  0
    4.9430    0.7083    0.9838 H   0  0  0  0  0  0  0  0  0  0  0  0
   -0.8899   -1.3779   -1.3223 H   0  0  0  0  0  0  0  0  0  0  0  0
   -4.0581   -0.7870    0.8669 H   0  0  0  0  0  0  0  0  0  0  0  0
   -3.3817   -2.3432    0.2868 H   0  0  0  0  0  0  0  0  0  0  0  0
   -2.5869    0.8125   -0.6206 H   0  0  0  0  0  0  0  0  0  0  0  0
   -2.7357   -0.6418   -1.6369 H   0  0  0  0  0  0  0  0  0  0  0  0
  1  2  1  0
  2  3  3  0
  3  4  1  0
  4  5  3  0
  5  6  1  0
  6  7  1  0
  6  8  1  0
  8  9  1  0
  9  6  1  0
  1 10  1  0
  1 11  1  0
  1 12  1  0
  7 13  1  0
  8 14  1  0
  8 15  1  0
  9 16  1  0
  9 17  1  0
M  END
