
     RDKit          3D

 18 18  0  0  0  0  0  0  0  0999 V2000
    2.9342   -1.3431    0.2290 C   0  0  0  0  0  0  0  0  0  0  0  0
    1.7781   -0.4764   -0.0211 C   0  0  0  0  0  0  0  0  0  0  0  0
    0.8188    0.2327   -0.2106 C   0  0  0  0  0  0  0  0  0  0  0  0
   -0.3560    1.0964   -0.4672 C   0  0  0  0  0  0  0  0  0  0  0  0
   -0.2224    2.1235   -1.3920 O   0  0  0  0  0  0  0  0  0  0  0  0
   -1.2768    1.3551    0.7455 C   0  0  0  0  0  0  0  0  0  0  0  0
   -1.6698    0.4492   -0.3675 C   0  0  0  0  0  0  0  0  0  0  0  0
   -1.8248   -1.0121   -0.0470 C   0  0  0  0  0  0  0  0  0  0  0  0
    3.7445   -1.1556   -0.4955 H   0  0  0  0  0  0  0  0  0  0  0  0
    2.5981   -2.3955    0.1343 H   0  0  0  0  0  0  0  0  0  0  0  0
    3.3732   -1.1431    1.2488 H   0  0  0  0  0  0  0  0  0  0  0  0
    0.7453    2.2289   -1.5647 H   0  0  0  0  0  0  0  0  0  0  0  0
   -0.9838    0.8563    1.7061 H   0  0  0  0  0  0  0  0  0  0  0  0
   -1.6908    2.3943    0.8076 H   0  0  0  0  0  0  0  0  0  0  0  0
   -2.4870    0.8440   -1.0123 H   0  0  0  0  0  0  0  0  0  0  0  0
   -0.9538   -1.2939    0.6015 H   0  0  0  0  0  0  0  0  0  0  0  0
   -2.7444   -1.1565    0.5475 H   0  0  0  0  0  0  0  0  0  0  0  0
   -1.7828   -1.6043   -0.9707 H   0  0  0  0  0  0  0  0  0  0  0  0
  1  2  1  0
  2  3  3  0
  3  4  1  0
  4  5  1  0
  4  6  1  0
  6  7  1  0
  7  8  1  0
  7  4  1  0
  1  9  1  0
  1 10  1  0
  1 11  1  0
  5 12  1  0
  6 13  1  0
  6 14  1  0
  7 15  1  0
  8 16  1  0
  8 17  1  0
  8 18  1  0
M  END
