
     RDKit          3D

 18 18  0  0  0  0  0  0  0  0999 V2000
    3.6516   -0.2767   -0.1203 C   0  0  0  0  0  0  0  0  0  0  0  0
    2.2306    0.0657   -0.2003 C   0  0  0  0  0  0  0  0  0  0  0  0
    1.0410    0.3529   -0.2460 C   0  0  0  0  0  0  0  0  0  0  0  0
   -0.3752    0.7179   -0.2947 C   0  0  0  0  0  0  0  0  0  0  0  0
   -0.5280    1.9406    0.3225 O   0  0  0  0  0  0  0  0  0  0  0  0
   -1.1407   -0.3354    0.4711 C   0  0  0  0  0  0  0  0  0  0  0  0
   -2.6685   -0.1313    0.5385 C   0  0  0  0  0  0  0  0  0  0  0  0
   -2.0912   -1.2353   -0.2302 C   0  0  0  0  0  0  0  0  0  0  0  0
    4.1406   -0.1959   -1.1322 H   0  0  0  0  0  0  0  0  0  0  0  0
    4.1838    0.4791    0.5176 H   0  0  0  0  0  0  0  0  0  0  0  0
    3.7938   -1.2936    0.2626 H   0  0  0  0  0  0  0  0  0  0  0  0
   -0.7395    0.8069   -1.3475 H   0  0  0  0  0  0  0  0  0  0  0  0
   -0.3832    2.7145   -0.2962 H   0  0  0  0  0  0  0  0  0  0  0  0
   -0.6283   -0.6984    1.3636 H   0  0  0  0  0  0  0  0  0  0  0  0
   -3.0462    0.8039    0.0366 H   0  0  0  0  0  0  0  0  0  0  0  0
   -3.1534   -0.2786    1.5247 H   0  0  0  0  0  0  0  0  0  0  0  0
   -2.1878   -2.2602    0.1705 H   0  0  0  0  0  0  0  0  0  0  0  0
   -2.0995   -1.1761   -1.3402 H   0  0  0  0  0  0  0  0  0  0  0  0
  1  2  1  0
  2  3  3  0
  3  4  1  0
  4  5  1  0
  4  6  1  0
  6  7  1  0
  7  8  1  0
  8  6  1  0
  1  9  1  0
  1 10  1  0
  1 11  1  0
  4 12  1  0
  5 13  1  0
  6 14  1  0
  7 15  1  0
  7 16  1  0
  8 17  1  0
  8 18  1  0
M  END
