
     RDKit          3D

 21 22  0  0  0  0  0  0  0  0999 V2000
    2.8396   -2.7378    0.3311 C   0  0  0  0  0  0  0  0  0  0  0  0
    1.8990   -1.6305    0.1616 C   0  0  0  0  0  0  0  0  0  0  0  0
    1.1184   -0.6886    0.0076 C   0  0  0  0  0  0  0  0  0  0  0  0
    0.1803    0.4107   -0.1891 C   0  0  0  0  0  0  0  0  0  0  0  0
   -0.6553    0.4521   -1.4391 C   0  0  0  0  0  0  0  0  0  0  0  0
   -2.0889    0.5698   -0.9919 C   0  0  0  0  0  0  0  0  0  0  0  0
   -2.0344    1.2047    0.3849 C   0  0  0  0  0  0  0  0  0  0  0  0
   -0.6969    0.7428    0.9377 C   0  0  0  0  0  0  0  0  0  0  0  0
    0.4517    1.6627    0.5763 C   0  0  0  0  0  0  0  0  0  0  0  0
    2.8612   -2.9802    1.4115 H   0  0  0  0  0  0  0  0  0  0  0  0
    2.4896   -3.6580   -0.1936 H   0  0  0  0  0  0  0  0  0  0  0  0
    3.8445   -2.4916   -0.0088 H   0  0  0  0  0  0  0  0  0  0  0  0
   -0.5322   -0.5307   -1.9420 H   0  0  0  0  0  0  0  0  0  0  0  0
   -0.3473    1.2286   -2.1406 H   0  0  0  0  0  0  0  0  0  0  0  0
   -2.6026   -0.4090   -0.9307 H   0  0  0  0  0  0  0  0  0  0  0  0
   -2.6476    1.2068   -1.7014 H   0  0  0  0  0  0  0  0  0  0  0  0
   -2.8882    0.8553    0.9998 H   0  0  0  0  0  0  0  0  0  0  0  0
   -2.0220    2.3275    0.3104 H   0  0  0  0  0  0  0  0  0  0  0  0
   -0.6800    0.1868    1.8873 H   0  0  0  0  0  0  0  0  0  0  0  0
    1.2916    1.6400    1.2829 H   0  0  0  0  0  0  0  0  0  0  0  0
    0.2195    2.6388    0.0876 H   0  0  0  0  0  0  0  0  0  0  0  0
  1  2  1  0
  2  3  3  0
  3  4  1  0
  4  5  1  0
  5  6  1  0
  6  7  1  0
  7  8  1  0
  8  9  1  0
  8  4  1  0
  9  4  1  0
  1 10  1  0
  1 11  1  0
  1 12  1  0
  5 13  1  0
  5 14  1  0
  6 15  1  0
  6 16  1  0
  7 17  1  0
  7 18  1  0
  8 19  1  0
  9 20  1  0
  9 21  1  0
M  END
