
     RDKit          3D

 19 19  0  0  0  0  0  0  0  0999 V2000
    3.2116   -0.8954   -1.5279 C   0  0  0  0  0  0  0  0  0  0  0  0
    1.8918   -0.7430   -0.8714 C   0  0  0  0  0  0  0  0  0  0  0  0
    0.8208   -0.5997   -0.3344 C   0  0  0  0  0  0  0  0  0  0  0  0
   -0.4868   -0.4034    0.3122 C   0  0  0  0  0  0  0  0  0  0  0  0
   -0.9953   -1.6016    0.8019 O   0  0  0  0  0  0  0  0  0  0  0  0
   -1.4213    0.2220   -0.6931 C   0  0  0  0  0  0  0  0  0  0  0  0
   -2.2555    1.1119    0.1473 C   0  0  0  0  0  0  0  0  0  0  0  0
   -1.6445    1.3522    1.3029 C   0  0  0  0  0  0  0  0  0  0  0  0
   -0.3385    0.6475    1.3541 C   0  0  0  0  0  0  0  0  0  0  0  0
    3.7477    0.0560   -1.3896 H   0  0  0  0  0  0  0  0  0  0  0  0
    3.1135   -1.1471   -2.5947 H   0  0  0  0  0  0  0  0  0  0  0  0
    3.7427   -1.7439   -1.0442 H   0  0  0  0  0  0  0  0  0  0  0  0
   -1.4839   -1.4040    1.6511 H   0  0  0  0  0  0  0  0  0  0  0  0
   -2.0509   -0.5494   -1.1917 H   0  0  0  0  0  0  0  0  0  0  0  0
   -0.8609    0.8040   -1.4825 H   0  0  0  0  0  0  0  0  0  0  0  0
   -3.2283    1.4846   -0.1930 H   0  0  0  0  0  0  0  0  0  0  0  0
   -2.0071    1.9668    2.1203 H   0  0  0  0  0  0  0  0  0  0  0  0
    0.5276    1.2936    1.2659 H   0  0  0  0  0  0  0  0  0  0  0  0
   -0.2828    0.1488    2.3665 H   0  0  0  0  0  0  0  0  0  0  0  0
  1  2  1  0
  2  3  3  0
  3  4  1  0
  4  5  1  0
  4  6  1  0
  6  7  1  0
  7  8  2  0
  8  9  1  0
  9  4  1  0
  1 10  1  0
  1 11  1  0
  1 12  1  0
  5 13  1  0
  6 14  1  0
  6 15  1  0
  7 16  1  0
  8 17  1  0
  9 18  1  0
  9 19  1  0
M  END
