
     RDKit          3D

 17 17  0  0  0  0  0  0  0  0999 V2000
    4.2581   -0.5666   -0.2085 C   0  0  0  0  0  0  0  0  0  0  0  0
    2.8546   -0.1595   -0.3476 C   0  0  0  0  0  0  0  0  0  0  0  0
    1.6967    0.1726   -0.4808 C   0  0  0  0  0  0  0  0  0  0  0  0
    0.3205    0.5926   -0.6379 C   0  0  0  0  0  0  0  0  0  0  0  0
    0.0003    1.5028   -1.4736 O   0  0  0  0  0  0  0  0  0  0  0  0
   -0.6324   -0.0278    0.1496 O   0  0  0  0  0  0  0  0  0  0  0  0
   -1.9710    0.3356    0.0412 C   0  0  0  0  0  0  0  0  0  0  0  0
   -2.6899    0.4124    1.3946 C   0  0  0  0  0  0  0  0  0  0  0  0
   -3.0770   -0.5865    0.3856 C   0  0  0  0  0  0  0  0  0  0  0  0
    4.8345    0.1641    0.4265 H   0  0  0  0  0  0  0  0  0  0  0  0
    4.7339   -0.6756   -1.1868 H   0  0  0  0  0  0  0  0  0  0  0  0
    4.2462   -1.5146    0.3718 H   0  0  0  0  0  0  0  0  0  0  0  0
   -2.1967    1.1281   -0.6964 H   0  0  0  0  0  0  0  0  0  0  0  0
   -3.2928    1.3230    1.5195 H   0  0  0  0  0  0  0  0  0  0  0  0
   -2.1620    0.0053    2.2891 H   0  0  0  0  0  0  0  0  0  0  0  0
   -2.8730   -1.6803    0.5843 H   0  0  0  0  0  0  0  0  0  0  0  0
   -4.0501   -0.4256   -0.1211 H   0  0  0  0  0  0  0  0  0  0  0  0
  1  2  1  0
  2  3  3  0
  3  4  1  0
  4  5  2  0
  4  6  1  0
  6  7  1  0
  7  8  1  0
  8  9  1  0
  9  7  1  0
  1 10  1  0
  1 11  1  0
  1 12  1  0
  7 13  1  0
  8 14  1  0
  8 15  1  0
  9 16  1  0
  9 17  1  0
M  END
