
     RDKit          3D

 21 21  0  0  0  0  0  0  0  0999 V2000
    3.9580    1.5824    0.2825 C   0  0  0  0  0  0  0  0  0  0  0  0
    2.6954    0.8290    0.1650 C   0  0  0  0  0  0  0  0  0  0  0  0
    1.6538    0.2234    0.0827 C   0  0  0  0  0  0  0  0  0  0  0  0
    0.3929   -0.5359   -0.0060 C   0  0  0  0  0  0  0  0  0  0  0  0
   -0.8399    0.3226    0.1098 C   0  0  0  0  0  0  0  0  0  0  0  0
   -2.0812   -0.5612    0.0052 C   0  0  0  0  0  0  0  0  0  0  0  0
   -3.3382    0.2494    0.1146 C   0  0  0  0  0  0  0  0  0  0  0  0
    0.4044   -1.9440    0.0370 C   0  0  0  0  0  0  0  0  0  0  0  0
    0.3278   -1.3778   -1.2312 O   0  0  0  0  0  0  0  0  0  0  0  0
    4.2874    1.5264    1.3361 H   0  0  0  0  0  0  0  0  0  0  0  0
    3.7545    2.6497    0.0683 H   0  0  0  0  0  0  0  0  0  0  0  0
    4.7137    1.2302   -0.4396 H   0  0  0  0  0  0  0  0  0  0  0  0
   -0.9178    1.0362   -0.7488 H   0  0  0  0  0  0  0  0  0  0  0  0
   -0.8236    0.8959    1.0370 H   0  0  0  0  0  0  0  0  0  0  0  0
   -2.0849   -1.3509    0.7941 H   0  0  0  0  0  0  0  0  0  0  0  0
   -2.0131   -1.0609   -0.9822 H   0  0  0  0  0  0  0  0  0  0  0  0
   -3.7368    0.1432    1.1559 H   0  0  0  0  0  0  0  0  0  0  0  0
   -3.1136    1.3290   -0.1076 H   0  0  0  0  0  0  0  0  0  0  0  0
   -4.0793   -0.1562   -0.5940 H   0  0  0  0  0  0  0  0  0  0  0  0
    1.3420   -2.4920    0.2473 H   0  0  0  0  0  0  0  0  0  0  0  0
   -0.5015   -2.5386    0.3067 H   0  0  0  0  0  0  0  0  0  0  0  0
  1  2  1  0
  2  3  3  0
  3  4  1  0
  4  5  1  0
  5  6  1  0
  6  7  1  0
  4  8  1  0
  8  9  1  0
  9  4  1  0
  1 10  1  0
  1 11  1  0
  1 12  1  0
  5 13  1  0
  5 14  1  0
  6 15  1  0
  6 16  1  0
  7 17  1  0
  7 18  1  0
  7 19  1  0
  8 20  1  0
  8 21  1  0
M  END
