
     RDKit          3D

 23 22  0  0  0  0  0  0  0  0999 V2000
    3.9806   -0.4650   -1.5315 C   0  0  0  0  0  0  0  0  0  0  0  0
    2.4728   -0.2135   -1.5937 C   0  0  0  0  0  0  0  0  0  0  0  0
    1.0929    0.0056   -1.6334 C   0  0  0  0  0  0  0  0  0  0  0  0
   -0.1446    0.2243   -1.6712 C   0  0  0  0  0  0  0  0  0  0  0  0
   -0.5313   -0.3088    0.0082 C   0  0  0  0  0  0  0  0  0  0  0  0
    0.2886    1.1305    0.5838 C   0  0  0  0  0  0  0  0  0  0  0  0
   -1.7078    0.2582   -0.0236 O   0  0  0  0  0  0  0  0  0  0  0  0
   -2.4501    0.2904    1.1380 C   0  0  0  0  0  0  0  0  0  0  0  0
   -2.4989   -1.0285    1.8794 C   0  0  0  0  0  0  0  0  0  0  0  0
    4.2080   -0.8429   -0.5389 H   0  0  0  0  0  0  0  0  0  0  0  0
    4.1085   -1.2369   -2.3284 H   0  0  0  0  0  0  0  0  0  0  0  0
    4.4493    0.4916   -1.7183 H   0  0  0  0  0  0  0  0  0  0  0  0
   -0.9120   -0.3719   -2.1263 H   0  0  0  0  0  0  0  0  0  0  0  0
   -0.5650    1.2485   -1.4572 H   0  0  0  0  0  0  0  0  0  0  0  0
    0.3657   -0.7428    0.0381 H   0  0  0  0  0  0  0  0  0  0  0  0
    0.2376    0.9312    1.6298 H   0  0  0  0  0  0  0  0  0  0  0  0
   -0.4006    1.9049    0.2479 H   0  0  0  0  0  0  0  0  0  0  0  0
    1.1944    1.0778    0.0521 H   0  0  0  0  0  0  0  0  0  0  0  0
   -3.5540    0.4936    0.8210 H   0  0  0  0  0  0  0  0  0  0  0  0
   -2.1728    1.1002    1.7958 H   0  0  0  0  0  0  0  0  0  0  0  0
   -3.0412   -1.7987    1.3513 H   0  0  0  0  0  0  0  0  0  0  0  0
   -1.4388   -1.3337    2.1622 H   0  0  0  0  0  0  0  0  0  0  0  0
   -2.9814   -0.8140    2.9148 H   0  0  0  0  0  0  0  0  0  0  0  0
  1  2  1  0
  2  3  3  0
  3  4  1  0
  4  5  1  0
  5  6  1  0
  5  7  1  0
  7  8  1  0
  8  9  1  0
  1 10  1  0
  1 11  1  0
  1 12  1  0
  4 13  1  0
  4 14  1  0
  5 15  1  0
  6 16  1  0
  6 17  1  0
  6 18  1  0
  8 19  1  0
  8 20  1  0
  9 21  1  0
  9 22  1  0
  9 23  1  0
M  END
