
     RDKit          3D

 21 22  0  0  0  0  0  0  0  0999 V2000
    2.8231    0.1260    1.9919 C   0  0  0  0  0  0  0  0  0  0  0  0
    1.7204    0.2685    1.0382 C   0  0  0  0  0  0  0  0  0  0  0  0
    0.8166    0.3686    0.2409 C   0  0  0  0  0  0  0  0  0  0  0  0
   -0.2988    0.5068   -0.7215 C   0  0  0  0  0  0  0  0  0  0  0  0
   -1.5947   -0.0646   -0.2344 C   0  0  0  0  0  0  0  0  0  0  0  0
   -1.5375   -1.5552    0.0773 C   0  0  0  0  0  0  0  0  0  0  0  0
   -1.7499   -0.5431    1.1585 C   0  0  0  0  0  0  0  0  0  0  0  0
    0.0220    0.1358   -2.1672 C   0  0  0  0  0  0  0  0  0  0  0  0
   -0.2375    1.5469   -1.7712 C   0  0  0  0  0  0  0  0  0  0  0  0
    2.9181    1.0464    2.6398 H   0  0  0  0  0  0  0  0  0  0  0  0
    3.7983    0.0117    1.4881 H   0  0  0  0  0  0  0  0  0  0  0  0
    2.5739   -0.6943    2.6750 H   0  0  0  0  0  0  0  0  0  0  0  0
   -2.5171    0.2525   -0.7608 H   0  0  0  0  0  0  0  0  0  0  0  0
   -2.3589   -2.1970   -0.2684 H   0  0  0  0  0  0  0  0  0  0  0  0
   -0.5432   -2.0648    0.0260 H   0  0  0  0  0  0  0  0  0  0  0  0
   -0.9197   -0.4648    1.9004 H   0  0  0  0  0  0  0  0  0  0  0  0
   -2.7473   -0.4201    1.6226 H   0  0  0  0  0  0  0  0  0  0  0  0
   -0.7555   -0.3376   -2.7760 H   0  0  0  0  0  0  0  0  0  0  0  0
    1.0517   -0.2005   -2.3472 H   0  0  0  0  0  0  0  0  0  0  0  0
   -1.1461    2.0844   -2.0445 H   0  0  0  0  0  0  0  0  0  0  0  0
    0.6822    2.1945   -1.7677 H   0  0  0  0  0  0  0  0  0  0  0  0
  1  2  1  0
  2  3  3  0
  3  4  1  0
  4  5  1  0
  5  6  1  0
  6  7  1  0
  4  8  1  0
  8  9  1  0
  9  4  1  0
  7  5  1  0
  1 10  1  0
  1 11  1  0
  1 12  1  0
  5 13  1  0
  6 14  1  0
  6 15  1  0
  7 16  1  0
  7 17  1  0
  8 18  1  0
  8 19  1  0
  9 20  1  0
  9 21  1  0
M  END
