
     RDKit          3D

 21 21  0  0  0  0  0  0  0  0999 V2000
    3.7168    0.7563   -0.9368 C   0  0  0  0  0  0  0  0  0  0  0  0
    2.3925    0.4899   -0.3525 C   0  0  0  0  0  0  0  0  0  0  0  0
    1.2897    0.2643    0.1121 C   0  0  0  0  0  0  0  0  0  0  0  0
   -0.0286    0.0200    0.6654 C   0  0  0  0  0  0  0  0  0  0  0  0
   -0.3229   -1.4255    1.0011 C   0  0  0  0  0  0  0  0  0  0  0  0
   -1.6250   -1.2602    0.2143 C   0  0  0  0  0  0  0  0  0  0  0  0
   -2.7469   -1.1041    0.9796 O   0  0  0  0  0  0  0  0  0  0  0  0
   -1.0653   -0.0373   -0.4481 C   0  0  0  0  0  0  0  0  0  0  0  0
   -1.9040    1.1935   -0.4235 C   0  0  0  0  0  0  0  0  0  0  0  0
    4.1451    1.7074   -0.5116 H   0  0  0  0  0  0  0  0  0  0  0  0
    3.6536    0.9241   -2.0294 H   0  0  0  0  0  0  0  0  0  0  0  0
    4.3716   -0.0578   -0.6327 H   0  0  0  0  0  0  0  0  0  0  0  0
   -0.3131    0.6569    1.5206 H   0  0  0  0  0  0  0  0  0  0  0  0
   -0.5191   -1.6118    2.0770 H   0  0  0  0  0  0  0  0  0  0  0  0
    0.3713   -2.1532    0.5764 H   0  0  0  0  0  0  0  0  0  0  0  0
   -1.7330   -2.1403   -0.4584 H   0  0  0  0  0  0  0  0  0  0  0  0
   -2.6660   -0.5183    1.7518 H   0  0  0  0  0  0  0  0  0  0  0  0
   -0.6715   -0.2704   -1.4351 H   0  0  0  0  0  0  0  0  0  0  0  0
   -1.6918    1.8638    0.4328 H   0  0  0  0  0  0  0  0  0  0  0  0
   -2.9740    0.9178   -0.4807 H   0  0  0  0  0  0  0  0  0  0  0  0
   -1.6795    1.7849   -1.3362 H   0  0  0  0  0  0  0  0  0  0  0  0
  1  2  1  0
  2  3  3  0
  3  4  1  0
  4  5  1  0
  5  6  1  0
  6  7  1  0
  6  8  1  0
  8  9  1  0
  8  4  1  0
  1 10  1  0
  1 11  1  0
  1 12  1  0
  4 13  1  0
  5 14  1  0
  5 15  1  0
  6 16  1  0
  7 17  1  0
  8 18  1  0
  9 19  1  0
  9 20  1  0
  9 21  1  0
M  END
