
     RDKit          3D

 18 19  0  0  0  0  0  0  0  0999 V2000
    3.3120    0.7687    0.6210 C   0  0  0  0  0  0  0  0  0  0  0  0
    2.0361    0.4981   -0.0572 C   0  0  0  0  0  0  0  0  0  0  0  0
    0.9840    0.2904   -0.6084 C   0  0  0  0  0  0  0  0  0  0  0  0
   -0.3045    0.0534   -1.3031 C   0  0  0  0  0  0  0  0  0  0  0  0
   -1.4194    0.9399   -0.7835 C   0  0  0  0  0  0  0  0  0  0  0  0
   -2.1741   -0.2840   -0.4001 C   0  0  0  0  0  0  0  0  0  0  0  0
   -1.5827   -1.1862    0.5891 C   0  0  0  0  0  0  0  0  0  0  0  0
   -0.9626   -1.1741   -0.7545 C   0  0  0  0  0  0  0  0  0  0  0  0
    4.1178    0.1299    0.1789 H   0  0  0  0  0  0  0  0  0  0  0  0
    3.5994    1.8256    0.5672 H   0  0  0  0  0  0  0  0  0  0  0  0
    3.1946    0.4446    1.6579 H   0  0  0  0  0  0  0  0  0  0  0  0
   -0.2558    0.0690   -2.3905 H   0  0  0  0  0  0  0  0  0  0  0  0
   -1.1326    1.6192    0.0337 H   0  0  0  0  0  0  0  0  0  0  0  0
   -1.9611    1.4822   -1.6090 H   0  0  0  0  0  0  0  0  0  0  0  0
   -3.1312   -0.5455   -0.8902 H   0  0  0  0  0  0  0  0  0  0  0  0
   -0.9715   -0.8417    1.4328 H   0  0  0  0  0  0  0  0  0  0  0  0
   -2.1678   -2.1051    0.8251 H   0  0  0  0  0  0  0  0  0  0  0  0
   -1.1807   -1.9843   -1.4823 H   0  0  0  0  0  0  0  0  0  0  0  0
  1  2  1  0
  2  3  3  0
  3  4  1  0
  4  5  1  0
  5  6  1  0
  6  7  1  0
  7  8  1  0
  8  4  1  0
  8  6  1  0
  1  9  1  0
  1 10  1  0
  1 11  1  0
  4 12  1  0
  5 13  1  0
  5 14  1  0
  6 15  1  0
  7 16  1  0
  7 17  1  0
  8 18  1  0
M  END
