
     RDKit          3D

 23 22  0  0  0  0  0  0  0  0999 V2000
    4.1942    0.0676    1.7350 C   0  0  0  0  0  0  0  0  0  0  0  0
    3.0594    0.1761    1.0560 C   0  0  0  0  0  0  0  0  0  0  0  0
    1.8218    0.3093    0.3354 C   0  0  0  0  0  0  0  0  0  0  0  0
    0.7109    0.4152   -0.2901 C   0  0  0  0  0  0  0  0  0  0  0  0
    0.7068   -0.1242   -1.6691 O   0  0  0  0  0  0  0  0  0  0  0  0
   -0.5341   -0.3311    0.2919 C   0  0  0  0  0  0  0  0  0  0  0  0
   -1.7647    0.1722   -0.3156 C   0  0  0  0  0  0  0  0  0  0  0  0
   -2.0554    0.1701   -1.7576 C   0  0  0  0  0  0  0  0  0  0  0  0
   -2.9684   -0.4848    0.3686 C   0  0  0  0  0  0  0  0  0  0  0  0
    4.7585    1.1175    1.9055 H   0  0  0  0  0  0  0  0  0  0  0  0
    4.1265   -0.3082    2.7904 H   0  0  0  0  0  0  0  0  0  0  0  0
    5.0536   -0.5632    1.3296 H   0  0  0  0  0  0  0  0  0  0  0  0
    0.3528    1.4656   -0.5435 H   0  0  0  0  0  0  0  0  0  0  0  0
    1.5358   -0.7292   -1.6245 H   0  0  0  0  0  0  0  0  0  0  0  0
   -0.4282   -1.4203    0.0873 H   0  0  0  0  0  0  0  0  0  0  0  0
   -0.4328   -0.0500    1.4007 H   0  0  0  0  0  0  0  0  0  0  0  0
   -1.8753    1.3162    0.0110 H   0  0  0  0  0  0  0  0  0  0  0  0
   -1.8004    1.2577   -2.2135 H   0  0  0  0  0  0  0  0  0  0  0  0
   -3.1957    0.2016   -1.9921 H   0  0  0  0  0  0  0  0  0  0  0  0
   -1.5790   -0.4966   -2.4091 H   0  0  0  0  0  0  0  0  0  0  0  0
   -3.5875   -1.0886   -0.3922 H   0  0  0  0  0  0  0  0  0  0  0  0
   -3.5855    0.2288    0.9241 H   0  0  0  0  0  0  0  0  0  0  0  0
   -2.5133   -1.3019    0.9719 H   0  0  0  0  0  0  0  0  0  0  0  0
  1  2  1  0
  2  3  3  0
  3  4  1  0
  4  5  1  0
  4  6  1  0
  6  7  1  0
  7  8  1  0
  7  9  1  0
  1 10  1  0
  1 11  1  0
  1 12  1  0
  4 13  1  0
  5 14  1  0
  6 15  1  0
  6 16  1  0
  7 17  1  0
  8 18  1  0
  8 19  1  0
  8 20  1  0
  9 21  1  0
  9 22  1  0
  9 23  1  0
M  END
