
     RDKit          3D

 19 18  0  0  0  0  0  0  0  0999 V2000
    4.0077    0.3579    0.3357 C   0  0  0  0  0  0  0  0  0  0  0  0
    2.6205   -0.1260    0.1665 C   0  0  0  0  0  0  0  0  0  0  0  0
    1.4111   -0.5249    0.0257 C   0  0  0  0  0  0  0  0  0  0  0  0
    0.0367   -0.9842   -0.1094 C   0  0  0  0  0  0  0  0  0  0  0  0
   -0.9028    0.1089   -0.3129 C   0  0  0  0  0  0  0  0  0  0  0  0
   -0.6559    0.7276   -1.5176 O   0  0  0  0  0  0  0  0  0  0  0  0
   -2.3547   -0.2593   -0.1008 C   0  0  0  0  0  0  0  0  0  0  0  0
   -3.1861    0.8774   -0.3218 C   0  0  0  0  0  0  0  0  0  0  0  0
   -3.0596    1.6629   -1.2168 O   0  0  0  0  0  0  0  0  0  0  0  0
    4.3515    0.6536   -0.6690 H   0  0  0  0  0  0  0  0  0  0  0  0
    4.0201    1.1530    1.1008 H   0  0  0  0  0  0  0  0  0  0  0  0
    4.6374   -0.4667    0.6892 H   0  0  0  0  0  0  0  0  0  0  0  0
   -0.0008   -1.7619   -0.9033 H   0  0  0  0  0  0  0  0  0  0  0  0
   -0.2516   -1.5680    0.8318 H   0  0  0  0  0  0  0  0  0  0  0  0
   -0.7005    0.8663    0.5244 H   0  0  0  0  0  0  0  0  0  0  0  0
   -0.8402    0.0353   -2.2397 H   0  0  0  0  0  0  0  0  0  0  0  0
   -2.6609   -1.0964   -0.7853 H   0  0  0  0  0  0  0  0  0  0  0  0
   -2.4497   -0.7142    0.9183 H   0  0  0  0  0  0  0  0  0  0  0  0
   -4.0221    1.0588    0.4008 H   0  0  0  0  0  0  0  0  0  0  0  0
  1  2  1  0
  2  3  3  0
  3  4  1  0
  4  5  1  0
  5  6  1  0
  5  7  1  0
  7  8  1  0
  8  9  2  0
  1 10  1  0
  1 11  1  0
  1 12  1  0
  4 13  1  0
  4 14  1  0
  5 15  1  0
  6 16  1  0
  7 17  1  0
  7 18  1  0
  8 19  1  0
M  END
