
     RDKit          3D

 19 20  0  0  0  0  0  0  0  0999 V2000
    2.8702    2.0756   -0.6484 C   0  0  0  0  0  0  0  0  0  0  0  0
    1.9106    0.9437   -0.7301 C   0  0  0  0  0  0  0  0  0  0  0  0
    1.0977    0.0129   -0.8090 C   0  0  0  0  0  0  0  0  0  0  0  0
    0.1364   -1.0612   -0.9194 C   0  0  0  0  0  0  0  0  0  0  0  0
   -0.5658   -1.5009    0.3086 C   0  0  0  0  0  0  0  0  0  0  0  0
   -0.7926   -0.5714    1.4793 C   0  0  0  0  0  0  0  0  0  0  0  0
   -2.1340    0.0343    1.0604 C   0  0  0  0  0  0  0  0  0  0  0  0
   -1.7807    0.4260   -0.2527 O   0  0  0  0  0  0  0  0  0  0  0  0
   -1.2852   -0.7310   -0.8468 C   0  0  0  0  0  0  0  0  0  0  0  0
    2.7866    2.6304   -1.6317 H   0  0  0  0  0  0  0  0  0  0  0  0
    2.6183    2.7383    0.2005 H   0  0  0  0  0  0  0  0  0  0  0  0
    3.8989    1.6708   -0.5638 H   0  0  0  0  0  0  0  0  0  0  0  0
    0.3774   -1.9307   -1.6005 H   0  0  0  0  0  0  0  0  0  0  0  0
   -0.9174   -2.5501    0.4542 H   0  0  0  0  0  0  0  0  0  0  0  0
   -0.0157    0.1973    1.5423 H   0  0  0  0  0  0  0  0  0  0  0  0
   -0.8683   -1.1569    2.4042 H   0  0  0  0  0  0  0  0  0  0  0  0
   -2.8806   -0.7760    1.0078 H   0  0  0  0  0  0  0  0  0  0  0  0
   -2.4267    0.9027    1.6477 H   0  0  0  0  0  0  0  0  0  0  0  0
   -2.0288   -1.3538   -1.4181 H   0  0  0  0  0  0  0  0  0  0  0  0
  1  2  1  0
  2  3  3  0
  3  4  1  0
  4  5  1  0
  5  6  1  0
  6  7  1  0
  7  8  1  0
  8  9  1  0
  9  4  1  0
  9  5  1  0
  1 10  1  0
  1 11  1  0
  1 12  1  0
  4 13  1  0
  5 14  1  0
  6 15  1  0
  6 16  1  0
  7 17  1  0
  7 18  1  0
  9 19  1  0
M  END
