
     RDKit          3D

 17 16  0  0  0  0  0  0  0  0999 V2000
    3.6590    1.0451   -0.5917 C   0  0  0  0  0  0  0  0  0  0  0  0
    2.5059    0.2303   -0.3326 C   0  0  0  0  0  0  0  0  0  0  0  0
    1.4563   -0.4947   -0.0799 C   0  0  0  0  0  0  0  0  0  0  0  0
    0.2308   -1.3283    0.1910 C   0  0  0  0  0  0  0  0  0  0  0  0
   -0.8912   -0.3366    0.2894 C   0  0  0  0  0  0  0  0  0  0  0  0
   -0.5110    0.8638    0.5279 O   0  0  0  0  0  0  0  0  0  0  0  0
   -2.2363   -0.6093    0.1426 C   0  0  0  0  0  0  0  0  0  0  0  0
   -3.3179    0.4007    0.3258 C   0  0  0  0  0  0  0  0  0  0  0  0
   -2.6593   -1.8273   -0.1657 O   0  0  0  0  0  0  0  0  0  0  0  0
    4.5101    0.3820   -0.9508 H   0  0  0  0  0  0  0  0  0  0  0  0
    3.9993    1.6430    0.2686 H   0  0  0  0  0  0  0  0  0  0  0  0
    3.3745    1.7429   -1.4121 H   0  0  0  0  0  0  0  0  0  0  0  0
    0.3676   -1.7491    1.2574 H   0  0  0  0  0  0  0  0  0  0  0  0
    0.0905   -2.0685   -0.5753 H   0  0  0  0  0  0  0  0  0  0  0  0
   -4.1219    0.0848    1.0071 H   0  0  0  0  0  0  0  0  0  0  0  0
   -3.7026    0.7343   -0.6405 H   0  0  0  0  0  0  0  0  0  0  0  0
   -2.7538    1.2868    0.7939 H   0  0  0  0  0  0  0  0  0  0  0  0
  1  2  1  0
  2  3  3  0
  3  4  1  0
  4  5  1  0
  5  6  2  0
  5  7  1  0
  7  8  1  0
  7  9  2  0
  1 10  1  0
  1 11  1  0
  1 12  1  0
  4 13  1  0
  4 14  1  0
  8 15  1  0
  8 16  1  0
  8 17  1  0
M  END
