
     RDKit          3D

 14 14  0  0  0  0  0  0  0  0999 V2000
    3.2628    0.2948    0.0951 C   0  0  0  0  0  0  0  0  0  0  0  0
    1.8080    0.2574    0.3009 C   0  0  0  0  0  0  0  0  0  0  0  0
    0.6185    0.2288    0.4901 C   0  0  0  0  0  0  0  0  0  0  0  0
   -0.8291    0.1697    0.7150 C   0  0  0  0  0  0  0  0  0  0  0  0
   -1.3239   -1.0659    1.0892 O   0  0  0  0  0  0  0  0  0  0  0  0
   -1.6153   -0.5319   -0.2887 C   0  0  0  0  0  0  0  0  0  0  0  0
   -3.0531   -0.1941   -0.4567 C   0  0  0  0  0  0  0  0  0  0  0  0
   -3.5638    0.5326    0.3799 O   0  0  0  0  0  0  0  0  0  0  0  0
    3.7573   -0.5512    0.6091 H   0  0  0  0  0  0  0  0  0  0  0  0
    3.4182    0.2798   -1.0073 H   0  0  0  0  0  0  0  0  0  0  0  0
    3.6942    1.2819    0.4278 H   0  0  0  0  0  0  0  0  0  0  0  0
   -1.3171    1.0473    1.2058 H   0  0  0  0  0  0  0  0  0  0  0  0
   -1.1947   -1.1887   -1.0638 H   0  0  0  0  0  0  0  0  0  0  0  0
   -3.6621   -0.5603   -1.2805 H   0  0  0  0  0  0  0  0  0  0  0  0
  1  2  1  0
  2  3  3  0
  3  4  1  0
  4  5  1  0
  5  6  1  0
  6  7  1  0
  7  8  2  0
  6  4  1  0
  1  9  1  0
  1 10  1  0
  1 11  1  0
  4 12  1  0
  6 13  1  0
  7 14  1  0
M  END
