
     RDKit          3D

 14 13  0  0  0  0  0  0  0  0999 V2000
   -3.3326   -1.0855    0.0777 C   0  0  0  0  0  0  0  0  0  0  0  0
   -2.3701   -0.7881    0.0176 C   0  0  0  0  0  0  0  0  0  0  0  0
   -1.6692   -0.5582   -0.0284 C   0  0  0  0  0  0  0  0  0  0  0  0
    0.2387    0.0474   -0.1286 C   0  0  0  0  0  0  0  0  0  0  0  0
    1.2439    0.3564   -0.1791 C   0  0  0  0  0  0  0  0  0  0  0  0
    1.9339    0.5803   -0.2080 C   0  0  0  0  0  0  0  0  0  0  0  0
    3.5041    0.3281   -0.6747 C   0  0  0  0  0  0  0  0  0  0  0  0
    4.2407   -0.0058    0.2081 O   0  0  0  0  0  0  0  0  0  0  0  0
   -4.1577   -0.0062    0.3665 H   0  0  0  0  0  0  0  0  0  0  0  0
   -4.3676   -1.7171    0.0485 H   0  0  0  0  0  0  0  0  0  0  0  0
   -3.5705   -1.1247    1.5464 H   0  0  0  0  0  0  0  0  0  0  0  0
    2.4252    1.5916    0.6674 H   0  0  0  0  0  0  0  0  0  0  0  0
    2.1396    1.8978   -0.9877 H   0  0  0  0  0  0  0  0  0  0  0  0
    3.7418    0.4840   -1.7151 H   0  0  0  0  0  0  0  0  0  0  0  0
  1  2  1  0
  2  3  3  0
  3  4  1  0
  4  5  3  0
  5  6  1  0
  6  7  1  0
  7  8  2  0
  1  9  1  0
  1 10  1  0
  1 11  1  0
  6 12  1  0
  6 13  1  0
  7 14  1  0
M  END
