
     RDKit          3D

 21 20  0  0  0  0  0  0  0  0999 V2000
    3.1066    0.7207   -1.4249 C   0  0  0  0  0  0  0  0  0  0  0  0
    1.7782    0.4263   -0.8549 C   0  0  0  0  0  0  0  0  0  0  0  0
    0.7106    0.1790   -0.3764 C   0  0  0  0  0  0  0  0  0  0  0  0
   -0.5833   -0.1407    0.2233 C   0  0  0  0  0  0  0  0  0  0  0  0
   -1.1966   -1.2453   -0.6079 C   0  0  0  0  0  0  0  0  0  0  0  0
   -1.4830    1.0878    0.2838 C   0  0  0  0  0  0  0  0  0  0  0  0
   -1.7298    1.6064   -0.9659 O   0  0  0  0  0  0  0  0  0  0  0  0
   -0.3642   -0.5883    1.6582 C   0  0  0  0  0  0  0  0  0  0  0  0
    0.4575   -1.7266    1.7067 O   0  0  0  0  0  0  0  0  0  0  0  0
    3.3405    1.8187   -1.3507 H   0  0  0  0  0  0  0  0  0  0  0  0
    3.1584    0.4185   -2.4896 H   0  0  0  0  0  0  0  0  0  0  0  0
    3.8280    0.1141   -0.8388 H   0  0  0  0  0  0  0  0  0  0  0  0
   -2.3020   -1.2509   -0.5443 H   0  0  0  0  0  0  0  0  0  0  0  0
   -0.8473   -1.1289   -1.6545 H   0  0  0  0  0  0  0  0  0  0  0  0
   -0.8462   -2.2446   -0.2753 H   0  0  0  0  0  0  0  0  0  0  0  0
   -0.9510    1.8067    0.9598 H   0  0  0  0  0  0  0  0  0  0  0  0
   -2.4355    0.8541    0.7941 H   0  0  0  0  0  0  0  0  0  0  0  0
   -2.4563    2.2769   -0.8686 H   0  0  0  0  0  0  0  0  0  0  0  0
   -1.3365   -0.7622    2.1622 H   0  0  0  0  0  0  0  0  0  0  0  0
    0.1690    0.1883    2.2424 H   0  0  0  0  0  0  0  0  0  0  0  0
   -0.0172   -2.4101    2.2214 H   0  0  0  0  0  0  0  0  0  0  0  0
  1  2  1  0
  2  3  3  0
  3  4  1  0
  4  5  1  0
  4  6  1  0
  6  7  1  0
  4  8  1  0
  8  9  1  0
  1 10  1  0
  1 11  1  0
  1 12  1  0
  5 13  1  0
  5 14  1  0
  5 15  1  0
  6 16  1  0
  6 17  1  0
  7 18  1  0
  8 19  1  0
  8 20  1  0
  9 21  1  0
M  END
