
     RDKit          3D

 21 22  0  0  0  0  0  0  0  0999 V2000
    4.2213   -0.3351    0.2032 C   0  0  0  0  0  0  0  0  0  0  0  0
    2.8236   -0.0512   -0.1239 C   0  0  0  0  0  0  0  0  0  0  0  0
    1.6623    0.1877   -0.3743 C   0  0  0  0  0  0  0  0  0  0  0  0
    0.2786    0.4857   -0.6564 C   0  0  0  0  0  0  0  0  0  0  0  0
   -0.6348   -0.7398   -0.7675 C   0  0  0  0  0  0  0  0  0  0  0  0
   -1.6061    0.0057    0.0625 C   0  0  0  0  0  0  0  0  0  0  0  0
   -2.7320   -0.5167    0.7701 C   0  0  0  0  0  0  0  0  0  0  0  0
   -2.8732    0.5435   -0.3704 C   0  0  0  0  0  0  0  0  0  0  0  0
   -0.4849    0.8113    0.6327 C   0  0  0  0  0  0  0  0  0  0  0  0
    4.2873   -1.1910    0.9071 H   0  0  0  0  0  0  0  0  0  0  0  0
    4.7386    0.5777    0.5934 H   0  0  0  0  0  0  0  0  0  0  0  0
    4.7920   -0.6491   -0.7154 H   0  0  0  0  0  0  0  0  0  0  0  0
    0.0670    1.2362   -1.4165 H   0  0  0  0  0  0  0  0  0  0  0  0
   -0.9403   -0.9666   -1.7988 H   0  0  0  0  0  0  0  0  0  0  0  0
   -0.1339   -1.6062   -0.2716 H   0  0  0  0  0  0  0  0  0  0  0  0
   -3.0656   -0.1655    1.7637 H   0  0  0  0  0  0  0  0  0  0  0  0
   -3.1015   -1.5333    0.5309 H   0  0  0  0  0  0  0  0  0  0  0  0
   -3.1883    1.5677   -0.0151 H   0  0  0  0  0  0  0  0  0  0  0  0
   -3.4416    0.2130   -1.2422 H   0  0  0  0  0  0  0  0  0  0  0  0
   -0.6562    1.8765    0.8085 H   0  0  0  0  0  0  0  0  0  0  0  0
   -0.0121    0.2496    1.4799 H   0  0  0  0  0  0  0  0  0  0  0  0
  1  2  1  0
  2  3  3  0
  3  4  1  0
  4  5  1  0
  5  6  1  0
  6  7  1  0
  7  8  1  0
  6  9  1  0
  9  4  1  0
  8  6  1  0
  1 10  1  0
  1 11  1  0
  1 12  1  0
  4 13  1  0
  5 14  1  0
  5 15  1  0
  7 16  1  0
  7 17  1  0
  8 18  1  0
  8 19  1  0
  9 20  1  0
  9 21  1  0
M  END
