
     RDKit          3D

 23 22  0  0  0  0  0  0  0  0999 V2000
    3.3333    0.1019   -0.7597 C   0  0  0  0  0  0  0  0  0  0  0  0
    1.9007    0.0471   -0.4188 C   0  0  0  0  0  0  0  0  0  0  0  0
    0.7366   -0.0024   -0.1229 C   0  0  0  0  0  0  0  0  0  0  0  0
   -0.6694   -0.0541    0.2099 C   0  0  0  0  0  0  0  0  0  0  0  0
   -0.8990   -0.1028    1.5846 O   0  0  0  0  0  0  0  0  0  0  0  0
   -1.3279    1.2407   -0.2825 C   0  0  0  0  0  0  0  0  0  0  0  0
   -0.6866    2.4522    0.3887 C   0  0  0  0  0  0  0  0  0  0  0  0
   -1.3867   -1.1853   -0.4843 C   0  0  0  0  0  0  0  0  0  0  0  0
   -0.8320   -2.5280   -0.1371 C   0  0  0  0  0  0  0  0  0  0  0  0
    3.7023    1.1597   -0.7912 H   0  0  0  0  0  0  0  0  0  0  0  0
    3.4247   -0.3168   -1.7832 H   0  0  0  0  0  0  0  0  0  0  0  0
    3.9482   -0.4487   -0.0181 H   0  0  0  0  0  0  0  0  0  0  0  0
   -0.0048   -0.1233    2.0228 H   0  0  0  0  0  0  0  0  0  0  0  0
   -2.3798    1.1931    0.0679 H   0  0  0  0  0  0  0  0  0  0  0  0
   -1.3249    1.3161   -1.3748 H   0  0  0  0  0  0  0  0  0  0  0  0
   -0.8373    2.3165    1.4754 H   0  0  0  0  0  0  0  0  0  0  0  0
    0.3909    2.5183    0.1378 H   0  0  0  0  0  0  0  0  0  0  0  0
   -1.2409    3.3314    0.0372 H   0  0  0  0  0  0  0  0  0  0  0  0
   -1.3520   -1.0576   -1.5744 H   0  0  0  0  0  0  0  0  0  0  0  0
   -2.4514   -1.1574   -0.1607 H   0  0  0  0  0  0  0  0  0  0  0  0
   -1.6579   -3.2674   -0.1534 H   0  0  0  0  0  0  0  0  0  0  0  0
   -0.1071   -2.8788   -0.9213 H   0  0  0  0  0  0  0  0  0  0  0  0
   -0.2790   -2.5545    0.8248 H   0  0  0  0  0  0  0  0  0  0  0  0
  1  2  1  0
  2  3  3  0
  3  4  1  0
  4  5  1  0
  4  6  1  0
  6  7  1  0
  4  8  1  0
  8  9  1  0
  1 10  1  0
  1 11  1  0
  1 12  1  0
  5 13  1  0
  6 14  1  0
  6 15  1  0
  7 16  1  0
  7 17  1  0
  7 18  1  0
  8 19  1  0
  8 20  1  0
  9 21  1  0
  9 22  1  0
  9 23  1  0
M  END
