
     RDKit          3D

 23 22  0  0  0  0  0  0  0  0999 V2000
   -2.3764    2.2235   -3.2611 C   0  0  0  0  0  0  0  0  0  0  0  0
   -1.7222    0.9820   -2.5073 C   0  0  0  0  0  0  0  0  0  0  0  0
   -1.1890   -0.0688   -1.8909 C   0  0  0  0  0  0  0  0  0  0  0  0
   -0.6539   -1.0953   -1.2633 C   0  0  0  0  0  0  0  0  0  0  0  0
    0.2089   -0.4291   -0.1084 C   0  0  0  0  0  0  0  0  0  0  0  0
    0.7450   -1.4549    0.8036 C   0  0  0  0  0  0  0  0  0  0  0  0
    1.8470   -0.7770    1.6600 C   0  0  0  0  0  0  0  0  0  0  0  0
    1.4080    0.4665    2.3112 C   0  0  0  0  0  0  0  0  0  0  0  0
    0.4826    0.3151    3.3065 O   0  0  0  0  0  0  0  0  0  0  0  0
   -3.4074    2.0699   -3.2322 H   0  0  0  0  0  0  0  0  0  0  0  0
   -1.7088    2.4868   -4.0505 H   0  0  0  0  0  0  0  0  0  0  0  0
   -2.0964    3.0440   -2.4598 H   0  0  0  0  0  0  0  0  0  0  0  0
   -0.0849   -1.8459   -1.7391 H   0  0  0  0  0  0  0  0  0  0  0  0
   -1.5392   -1.5970   -0.6228 H   0  0  0  0  0  0  0  0  0  0  0  0
   -0.6022    0.2544    0.3496 H   0  0  0  0  0  0  0  0  0  0  0  0
    0.9067    0.2566   -0.5559 H   0  0  0  0  0  0  0  0  0  0  0  0
   -0.0642   -1.7620    1.5551 H   0  0  0  0  0  0  0  0  0  0  0  0
    1.1579   -2.3173    0.3077 H   0  0  0  0  0  0  0  0  0  0  0  0
    2.7145   -0.7776    0.9991 H   0  0  0  0  0  0  0  0  0  0  0  0
    2.0709   -1.5894    2.4496 H   0  0  0  0  0  0  0  0  0  0  0  0
    2.3394    1.0062    2.6120 H   0  0  0  0  0  0  0  0  0  0  0  0
    0.8773    1.1098    1.4940 H   0  0  0  0  0  0  0  0  0  0  0  0
    0.6865   -0.5006    3.8428 H   0  0  0  0  0  0  0  0  0  0  0  0
  1  2  1  0
  2  3  3  0
  3  4  1  0
  4  5  1  0
  5  6  1  0
  6  7  1  0
  7  8  1  0
  8  9  1  0
  1 10  1  0
  1 11  1  0
  1 12  1  0
  4 13  1  0
  4 14  1  0
  5 15  1  0
  5 16  1  0
  6 17  1  0
  6 18  1  0
  7 19  1  0
  7 20  1  0
  8 21  1  0
  8 22  1  0
  9 23  1  0
M  END
