
     RDKit          3D

 21 21  0  0  0  0  0  0  0  0999 V2000
    3.7677    1.1422    0.5883 C   0  0  0  0  0  0  0  0  0  0  0  0
    2.6259    0.4062    0.0445 C   0  0  0  0  0  0  0  0  0  0  0  0
    1.6708   -0.2128   -0.3884 C   0  0  0  0  0  0  0  0  0  0  0  0
    0.5160   -0.9357   -0.9203 C   0  0  0  0  0  0  0  0  0  0  0  0
   -0.5598   -0.8995    0.1329 C   0  0  0  0  0  0  0  0  0  0  0  0
   -1.0018    0.5002    0.5087 C   0  0  0  0  0  0  0  0  0  0  0  0
   -2.4036   -0.0758    0.6330 C   0  0  0  0  0  0  0  0  0  0  0  0
   -3.4063    0.7796    0.2023 O   0  0  0  0  0  0  0  0  0  0  0  0
   -1.9750   -1.0919   -0.4106 C   0  0  0  0  0  0  0  0  0  0  0  0
    3.4081    1.7401    1.4260 H   0  0  0  0  0  0  0  0  0  0  0  0
    4.5758    0.4413    0.9114 H   0  0  0  0  0  0  0  0  0  0  0  0
    4.1347    1.8299   -0.2086 H   0  0  0  0  0  0  0  0  0  0  0  0
    0.1904   -0.5032   -1.8716 H   0  0  0  0  0  0  0  0  0  0  0  0
    0.7583   -2.0223   -1.0879 H   0  0  0  0  0  0  0  0  0  0  0  0
   -0.3874   -1.4963    1.0251 H   0  0  0  0  0  0  0  0  0  0  0  0
   -0.9169    1.1955   -0.3561 H   0  0  0  0  0  0  0  0  0  0  0  0
   -0.5708    0.8868    1.4498 H   0  0  0  0  0  0  0  0  0  0  0  0
   -2.5783   -0.5881    1.5910 H   0  0  0  0  0  0  0  0  0  0  0  0
   -3.3748    1.6657    0.6362 H   0  0  0  0  0  0  0  0  0  0  0  0
   -2.1079   -0.6499   -1.4121 H   0  0  0  0  0  0  0  0  0  0  0  0
   -2.3650   -2.1120   -0.2659 H   0  0  0  0  0  0  0  0  0  0  0  0
  1  2  1  0
  2  3  3  0
  3  4  1  0
  4  5  1  0
  5  6  1  0
  6  7  1  0
  7  8  1  0
  7  9  1  0
  9  5  1  0
  1 10  1  0
  1 11  1  0
  1 12  1  0
  4 13  1  0
  4 14  1  0
  5 15  1  0
  6 16  1  0
  6 17  1  0
  7 18  1  0
  8 19  1  0
  9 20  1  0
  9 21  1  0
M  END
