
     RDKit          3D

 15 14  0  0  0  0  0  0  0  0999 V2000
    3.0749   -1.8639   -2.1761 C   0  0  0  0  0  0  0  0  0  0  0  0
    2.0694   -1.2988   -1.6073 C   0  0  0  0  0  0  0  0  0  0  0  0
    0.9789   -0.6633   -0.9684 C   0  0  0  0  0  0  0  0  0  0  0  0
    0.0032   -0.0689   -0.3896 C   0  0  0  0  0  0  0  0  0  0  0  0
   -0.9582    0.5422    0.1931 C   0  0  0  0  0  0  0  0  0  0  0  0
   -2.0483    1.2161    0.8272 C   0  0  0  0  0  0  0  0  0  0  0  0
   -2.1356    0.9718    2.3205 C   0  0  0  0  0  0  0  0  0  0  0  0
    3.5285   -1.3496   -3.1207 H   0  0  0  0  0  0  0  0  0  0  0  0
    4.0079   -1.9697   -1.5152 H   0  0  0  0  0  0  0  0  0  0  0  0
    2.9223   -2.9317   -2.6106 H   0  0  0  0  0  0  0  0  0  0  0  0
   -2.0093    2.3229    0.6746 H   0  0  0  0  0  0  0  0  0  0  0  0
   -3.0026    0.8065    0.3952 H   0  0  0  0  0  0  0  0  0  0  0  0
   -3.2027    1.1003    2.6333 H   0  0  0  0  0  0  0  0  0  0  0  0
   -1.7383   -0.0427    2.5346 H   0  0  0  0  0  0  0  0  0  0  0  0
   -1.4900    1.7194    2.8095 H   0  0  0  0  0  0  0  0  0  0  0  0
  1  2  1  0
  2  3  3  0
  3  4  1  0
  4  5  3  0
  5  6  1  0
  6  7  1  0
  1  8  1  0
  1  9  1  0
  1 10  1  0
  6 11  1  0
  6 12  1  0
  7 13  1  0
  7 14  1  0
  7 15  1  0
M  END
