
     RDKit          3D

 19 18  0  0  0  0  0  0  0  0999 V2000
    2.0843    1.6817   -3.5164 C   0  0  0  0  0  0  0  0  0  0  0  0
    1.6175    1.0017   -2.3037 C   0  0  0  0  0  0  0  0  0  0  0  0
    1.2453    0.4309   -1.2772 C   0  0  0  0  0  0  0  0  0  0  0  0
    0.7867   -0.2268   -0.0645 C   0  0  0  0  0  0  0  0  0  0  0  0
   -0.7254   -0.4456   -0.1214 C   0  0  0  0  0  0  0  0  0  0  0  0
   -1.0594   -1.1300    1.1778 C   0  0  0  0  0  0  0  0  0  0  0  0
   -0.8167   -2.3129    1.2339 O   0  0  0  0  0  0  0  0  0  0  0  0
   -1.6438   -0.4423    2.3306 C   0  0  0  0  0  0  0  0  0  0  0  0
   -1.8199   -1.3559    3.3766 O   0  0  0  0  0  0  0  0  0  0  0  0
    1.1764    2.1415   -3.9668 H   0  0  0  0  0  0  0  0  0  0  0  0
    2.4920    0.9711   -4.2589 H   0  0  0  0  0  0  0  0  0  0  0  0
    2.8462    2.4077   -3.2368 H   0  0  0  0  0  0  0  0  0  0  0  0
    1.3145   -1.1601    0.1551 H   0  0  0  0  0  0  0  0  0  0  0  0
    1.0118    0.4983    0.7685 H   0  0  0  0  0  0  0  0  0  0  0  0
   -1.2484    0.5074   -0.2245 H   0  0  0  0  0  0  0  0  0  0  0  0
   -1.0003   -1.1025   -0.9620 H   0  0  0  0  0  0  0  0  0  0  0  0
   -0.9876    0.3885    2.7250 H   0  0  0  0  0  0  0  0  0  0  0  0
   -2.6277    0.0324    2.0611 H   0  0  0  0  0  0  0  0  0  0  0  0
   -2.6456   -1.8848    3.2293 H   0  0  0  0  0  0  0  0  0  0  0  0
  1  2  1  0
  2  3  3  0
  3  4  1  0
  4  5  1  0
  5  6  1  0
  6  7  2  0
  6  8  1  0
  8  9  1  0
  1 10  1  0
  1 11  1  0
  1 12  1  0
  4 13  1  0
  4 14  1  0
  5 15  1  0
  5 16  1  0
  8 17  1  0
  8 18  1  0
  9 19  1  0
M  END
