
     RDKit          3D

 21 21  0  0  0  0  0  0  0  0999 V2000
    4.3960    0.0682    0.9509 C   0  0  0  0  0  0  0  0  0  0  0  0
    2.9363   -0.0098    1.0370 C   0  0  0  0  0  0  0  0  0  0  0  0
    1.7169   -0.0679    1.1290 C   0  0  0  0  0  0  0  0  0  0  0  0
    0.2605   -0.1431    1.2571 C   0  0  0  0  0  0  0  0  0  0  0  0
   -0.3403    0.3931   -0.0170 C   0  0  0  0  0  0  0  0  0  0  0  0
   -1.8463    0.3136    0.1193 C   0  0  0  0  0  0  0  0  0  0  0  0
   -2.6948    0.7804   -1.0007 C   0  0  0  0  0  0  0  0  0  0  0  0
   -2.6138   -0.7123   -0.6574 C   0  0  0  0  0  0  0  0  0  0  0  0
   -1.8770   -1.5347   -1.4842 O   0  0  0  0  0  0  0  0  0  0  0  0
    4.6870    0.8166    0.2122 H   0  0  0  0  0  0  0  0  0  0  0  0
    4.8333   -0.9129    0.6007 H   0  0  0  0  0  0  0  0  0  0  0  0
    4.8670    0.2323    1.9530 H   0  0  0  0  0  0  0  0  0  0  0  0
   -0.1063    0.5340    2.0807 H   0  0  0  0  0  0  0  0  0  0  0  0
   -0.0962   -1.1646    1.4361 H   0  0  0  0  0  0  0  0  0  0  0  0
   -0.0310   -0.1813   -0.9092 H   0  0  0  0  0  0  0  0  0  0  0  0
   -0.0796    1.4695   -0.0721 H   0  0  0  0  0  0  0  0  0  0  0  0
   -2.2806    0.5082    1.1432 H   0  0  0  0  0  0  0  0  0  0  0  0
   -2.2715    1.0073   -2.0049 H   0  0  0  0  0  0  0  0  0  0  0  0
   -3.6655    1.2751   -0.8007 H   0  0  0  0  0  0  0  0  0  0  0  0
   -3.5194   -1.1840   -0.2289 H   0  0  0  0  0  0  0  0  0  0  0  0
   -2.2746   -1.4878   -2.3874 H   0  0  0  0  0  0  0  0  0  0  0  0
  1  2  1  0
  2  3  3  0
  3  4  1  0
  4  5  1  0
  5  6  1  0
  6  7  1  0
  7  8  1  0
  8  9  1  0
  8  6  1  0
  1 10  1  0
  1 11  1  0
  1 12  1  0
  4 13  1  0
  4 14  1  0
  5 15  1  0
  5 16  1  0
  6 17  1  0
  7 18  1  0
  7 19  1  0
  8 20  1  0
  9 21  1  0
M  END
