
     RDKit          3D

 19 19  0  0  0  0  0  0  0  0999 V2000
    2.5178    0.1157    2.1596 C   0  0  0  0  0  0  0  0  0  0  0  0
    1.3896    0.0970    1.2323 C   0  0  0  0  0  0  0  0  0  0  0  0
    0.4694    0.0841    0.4489 C   0  0  0  0  0  0  0  0  0  0  0  0
   -0.6594    0.0784   -0.4814 C   0  0  0  0  0  0  0  0  0  0  0  0
   -0.6623    1.2553   -1.4333 C   0  0  0  0  0  0  0  0  0  0  0  0
   -0.9129    2.3917   -0.6527 O   0  0  0  0  0  0  0  0  0  0  0  0
   -0.8587   -1.2597   -1.1086 C   0  0  0  0  0  0  0  0  0  0  0  0
   -1.6216   -1.4514    0.1830 C   0  0  0  0  0  0  0  0  0  0  0  0
   -1.8690   -0.0820    0.1887 O   0  0  0  0  0  0  0  0  0  0  0  0
    3.4808   -0.0927    1.6595 H   0  0  0  0  0  0  0  0  0  0  0  0
    2.6475    1.0862    2.6799 H   0  0  0  0  0  0  0  0  0  0  0  0
    2.2784   -0.6791    2.9176 H   0  0  0  0  0  0  0  0  0  0  0  0
   -1.4609    1.0942   -2.1682 H   0  0  0  0  0  0  0  0  0  0  0  0
    0.3268    1.3149   -1.9140 H   0  0  0  0  0  0  0  0  0  0  0  0
   -0.2329    3.0556   -0.8828 H   0  0  0  0  0  0  0  0  0  0  0  0
    0.0610   -1.8810   -1.1778 H   0  0  0  0  0  0  0  0  0  0  0  0
   -1.5054   -1.2928   -2.0035 H   0  0  0  0  0  0  0  0  0  0  0  0
   -2.5197   -2.0909    0.1374 H   0  0  0  0  0  0  0  0  0  0  0  0
   -0.8684   -1.7435    0.9737 H   0  0  0  0  0  0  0  0  0  0  0  0
  1  2  1  0
  2  3  3  0
  3  4  1  0
  4  5  1  0
  5  6  1  0
  4  7  1  0
  7  8  1  0
  8  9  1  0
  9  4  1  0
  1 10  1  0
  1 11  1  0
  1 12  1  0
  5 13  1  0
  5 14  1  0
  6 15  1  0
  7 16  1  0
  7 17  1  0
  8 18  1  0
  8 19  1  0
M  END
