
     RDKit          3D

 19 19  0  0  0  0  0  0  0  0999 V2000
    3.2600    0.7300   -2.0371 C   0  0  0  0  0  0  0  0  0  0  0  0
    2.0123    0.8394   -1.2745 C   0  0  0  0  0  0  0  0  0  0  0  0
    0.9807    0.9118   -0.6316 C   0  0  0  0  0  0  0  0  0  0  0  0
   -0.2783    1.0065    0.1239 C   0  0  0  0  0  0  0  0  0  0  0  0
   -0.0754    0.8235    1.4848 O   0  0  0  0  0  0  0  0  0  0  0  0
   -1.3089    0.0298   -0.4114 C   0  0  0  0  0  0  0  0  0  0  0  0
   -0.8963   -1.3817   -0.2144 O   0  0  0  0  0  0  0  0  0  0  0  0
   -2.0523   -0.8476    0.4482 C   0  0  0  0  0  0  0  0  0  0  0  0
   -2.0041   -0.8078    1.9378 C   0  0  0  0  0  0  0  0  0  0  0  0
    3.9737    0.0104   -1.5505 H   0  0  0  0  0  0  0  0  0  0  0  0
    3.7910    1.7167   -2.0105 H   0  0  0  0  0  0  0  0  0  0  0  0
    3.0209    0.3985   -3.0592 H   0  0  0  0  0  0  0  0  0  0  0  0
   -0.6701    2.0188   -0.0260 H   0  0  0  0  0  0  0  0  0  0  0  0
    0.8218    0.3985    1.5765 H   0  0  0  0  0  0  0  0  0  0  0  0
   -1.6400    0.2511   -1.4310 H   0  0  0  0  0  0  0  0  0  0  0  0
   -2.9789   -1.3141    0.0161 H   0  0  0  0  0  0  0  0  0  0  0  0
   -2.1962    0.2160    2.3569 H   0  0  0  0  0  0  0  0  0  0  0  0
   -2.7510   -1.5085    2.3585 H   0  0  0  0  0  0  0  0  0  0  0  0
   -1.0091   -1.1386    2.3434 H   0  0  0  0  0  0  0  0  0  0  0  0
  1  2  1  0
  2  3  3  0
  3  4  1  0
  4  5  1  0
  4  6  1  0
  6  7  1  0
  7  8  1  0
  8  9  1  0
  8  6  1  0
  1 10  1  0
  1 11  1  0
  1 12  1  0
  4 13  1  0
  5 14  1  0
  6 15  1  0
  8 16  1  0
  9 17  1  0
  9 18  1  0
  9 19  1  0
M  END
