
     RDKit          3D

 21 21  0  0  0  0  0  0  0  0999 V2000
    3.5398    0.0138    0.9742 C   0  0  0  0  0  0  0  0  0  0  0  0
    2.4356   -0.0789    0.0123 C   0  0  0  0  0  0  0  0  0  0  0  0
    1.5056   -0.1447   -0.7744 C   0  0  0  0  0  0  0  0  0  0  0  0
    0.4040   -0.2462   -1.6963 C   0  0  0  0  0  0  0  0  0  0  0  0
   -0.8883    0.1561   -1.0713 C   0  0  0  0  0  0  0  0  0  0  0  0
   -1.4410   -0.5443    0.1151 C   0  0  0  0  0  0  0  0  0  0  0  0
   -2.9295   -0.7121    0.2792 C   0  0  0  0  0  0  0  0  0  0  0  0
   -0.9385    0.9108    0.1841 C   0  0  0  0  0  0  0  0  0  0  0  0
    0.1641    1.1625    0.9700 O   0  0  0  0  0  0  0  0  0  0  0  0
    4.5140    0.1872    0.4660 H   0  0  0  0  0  0  0  0  0  0  0  0
    3.5976   -0.9625    1.4949 H   0  0  0  0  0  0  0  0  0  0  0  0
    3.3759    0.8479    1.6648 H   0  0  0  0  0  0  0  0  0  0  0  0
    0.3043   -1.2520   -2.1605 H   0  0  0  0  0  0  0  0  0  0  0  0
    0.5857    0.4556   -2.5617 H   0  0  0  0  0  0  0  0  0  0  0  0
   -1.6791    0.4281   -1.8323 H   0  0  0  0  0  0  0  0  0  0  0  0
   -0.8331   -1.2603    0.6987 H   0  0  0  0  0  0  0  0  0  0  0  0
   -3.5077    0.1859   -0.0046 H   0  0  0  0  0  0  0  0  0  0  0  0
   -3.3293   -1.5624   -0.3254 H   0  0  0  0  0  0  0  0  0  0  0  0
   -3.1465   -0.8787    1.3742 H   0  0  0  0  0  0  0  0  0  0  0  0
   -1.7383    1.6973    0.3036 H   0  0  0  0  0  0  0  0  0  0  0  0
    0.0049    0.8177    1.8893 H   0  0  0  0  0  0  0  0  0  0  0  0
  1  2  1  0
  2  3  3  0
  3  4  1  0
  4  5  1  0
  5  6  1  0
  6  7  1  0
  6  8  1  0
  8  9  1  0
  8  5  1  0
  1 10  1  0
  1 11  1  0
  1 12  1  0
  4 13  1  0
  4 14  1  0
  5 15  1  0
  6 16  1  0
  7 17  1  0
  7 18  1  0
  7 19  1  0
  8 20  1  0
  9 21  1  0
M  END
