
     RDKit          3D

 21 21  0  0  0  0  0  0  0  0999 V2000
    2.1992   -3.5585   -0.7560 C   0  0  0  0  0  0  0  0  0  0  0  0
    1.5730   -2.2439   -0.4924 C   0  0  0  0  0  0  0  0  0  0  0  0
    1.0601   -1.1529   -0.2658 C   0  0  0  0  0  0  0  0  0  0  0  0
    0.4480    0.1070    0.0151 C   0  0  0  0  0  0  0  0  0  0  0  0
   -0.0711    0.9373   -0.8902 C   0  0  0  0  0  0  0  0  0  0  0  0
   -0.6213    2.1530   -0.2505 C   0  0  0  0  0  0  0  0  0  0  0  0
   -0.9090    1.6338    1.1687 C   0  0  0  0  0  0  0  0  0  0  0  0
   -2.2122    0.8921    1.0679 C   0  0  0  0  0  0  0  0  0  0  0  0
    0.2808    0.6991    1.3688 C   0  0  0  0  0  0  0  0  0  0  0  0
    3.1037   -3.6174   -0.1383 H   0  0  0  0  0  0  0  0  0  0  0  0
    1.5230   -4.4036   -0.5545 H   0  0  0  0  0  0  0  0  0  0  0  0
    2.4732   -3.6287   -1.8515 H   0  0  0  0  0  0  0  0  0  0  0  0
   -0.0729    0.7064   -1.9667 H   0  0  0  0  0  0  0  0  0  0  0  0
    0.1574    2.9534   -0.1349 H   0  0  0  0  0  0  0  0  0  0  0  0
   -1.5209    2.5271   -0.7489 H   0  0  0  0  0  0  0  0  0  0  0  0
   -0.9594    2.4147    1.9132 H   0  0  0  0  0  0  0  0  0  0  0  0
   -2.4239    0.2206    1.9025 H   0  0  0  0  0  0  0  0  0  0  0  0
   -2.3202    0.3552    0.0995 H   0  0  0  0  0  0  0  0  0  0  0  0
   -3.0177    1.6771    1.0648 H   0  0  0  0  0  0  0  0  0  0  0  0
    0.1481   -0.0156    2.1728 H   0  0  0  0  0  0  0  0  0  0  0  0
    1.1619    1.3438    1.5602 H   0  0  0  0  0  0  0  0  0  0  0  0
  1  2  1  0
  2  3  3  0
  3  4  1  0
  4  5  2  0
  5  6  1  0
  6  7  1  0
  7  8  1  0
  7  9  1  0
  9  4  1  0
  1 10  1  0
  1 11  1  0
  1 12  1  0
  5 13  1  0
  6 14  1  0
  6 15  1  0
  7 16  1  0
  8 17  1  0
  8 18  1  0
  8 19  1  0
  9 20  1  0
  9 21  1  0
M  END
