
     RDKit          3D

 21 21  0  0  0  0  0  0  0  0999 V2000
    2.8571   -0.3454    1.8386 C   0  0  0  0  0  0  0  0  0  0  0  0
    1.3820   -0.5985    1.3502 C   0  0  0  0  0  0  0  0  0  0  0  0
    0.1200   -0.8355    0.9205 C   0  0  0  0  0  0  0  0  0  0  0  0
   -1.3412   -1.0876    0.4414 C   0  0  0  0  0  0  0  0  0  0  0  0
   -2.2323   -0.0522    0.8651 C   0  0  0  0  0  0  0  0  0  0  0  0
   -1.5569    0.2467   -0.4205 C   0  0  0  0  0  0  0  0  0  0  0  0
   -2.1905   -0.1114   -1.6569 O   0  0  0  0  0  0  0  0  0  0  0  0
   -0.3612    1.0512   -0.6823 C   0  0  0  0  0  0  0  0  0  0  0  0
    0.6478    0.3066   -1.5787 C   0  0  0  0  0  0  0  0  0  0  0  0
    3.0697    0.6732    1.5747 H   0  0  0  0  0  0  0  0  0  0  0  0
    2.7924   -0.5601    2.8872 H   0  0  0  0  0  0  0  0  0  0  0  0
    3.4056   -1.1010    1.2694 H   0  0  0  0  0  0  0  0  0  0  0  0
   -1.3312   -1.8987   -0.2475 H   0  0  0  0  0  0  0  0  0  0  0  0
   -3.3709   -0.3213    0.7487 H   0  0  0  0  0  0  0  0  0  0  0  0
   -2.0648    0.4883    1.7946 H   0  0  0  0  0  0  0  0  0  0  0  0
   -1.8427    0.4355   -2.4130 H   0  0  0  0  0  0  0  0  0  0  0  0
   -0.6596    1.9387   -1.3119 H   0  0  0  0  0  0  0  0  0  0  0  0
    0.1972    1.4075    0.2044 H   0  0  0  0  0  0  0  0  0  0  0  0
    1.6010    0.8158   -1.6200 H   0  0  0  0  0  0  0  0  0  0  0  0
    0.1484    0.3148   -2.6194 H   0  0  0  0  0  0  0  0  0  0  0  0
    0.7302   -0.7667   -1.3445 H   0  0  0  0  0  0  0  0  0  0  0  0
  1  2  1  0
  2  3  3  0
  3  4  1  0
  4  5  1  0
  5  6  1  0
  6  7  1  0
  6  8  1  0
  8  9  1  0
  6  4  1  0
  1 10  1  0
  1 11  1  0
  1 12  1  0
  4 13  1  0
  5 14  1  0
  5 15  1  0
  7 16  1  0
  8 17  1  0
  8 18  1  0
  9 19  1  0
  9 20  1  0
  9 21  1  0
M  END
