
     RDKit          3D

 22 21  0  0  0  0  0  0  0  0999 V2000
    3.4425    1.4668   -0.4199 C   0  0  0  0  0  0  0  0  0  0  0  0
    2.0071    1.1955   -0.2170 C   0  0  0  0  0  0  0  0  0  0  0  0
    0.8315    0.9577   -0.0359 C   0  0  0  0  0  0  0  0  0  0  0  0
   -0.5907    0.6783    0.1733 C   0  0  0  0  0  0  0  0  0  0  0  0
   -0.9196    0.7828    1.6335 C   0  0  0  0  0  0  0  0  0  0  0  0
   -0.9572   -0.6724   -0.3957 C   0  0  0  0  0  0  0  0  0  0  0  0
   -2.3943   -1.0198   -0.2156 C   0  0  0  0  0  0  0  0  0  0  0  0
   -0.0502   -1.7647    0.1266 C   0  0  0  0  0  0  0  0  0  0  0  0
    3.4955    2.2263   -1.2307 H   0  0  0  0  0  0  0  0  0  0  0  0
    3.9911    0.5529   -0.7403 H   0  0  0  0  0  0  0  0  0  0  0  0
    3.9236    1.8601    0.4841 H   0  0  0  0  0  0  0  0  0  0  0  0
   -1.2227    1.4399   -0.3572 H   0  0  0  0  0  0  0  0  0  0  0  0
   -0.1571    1.3764    2.1877 H   0  0  0  0  0  0  0  0  0  0  0  0
   -1.9087    1.2663    1.7775 H   0  0  0  0  0  0  0  0  0  0  0  0
   -0.9383   -0.2132    2.1475 H   0  0  0  0  0  0  0  0  0  0  0  0
   -0.7659   -0.6238   -1.5043 H   0  0  0  0  0  0  0  0  0  0  0  0
   -2.4991   -2.1278   -0.3551 H   0  0  0  0  0  0  0  0  0  0  0  0
   -2.8122   -0.7601    0.7795 H   0  0  0  0  0  0  0  0  0  0  0  0
   -3.0163   -0.4872   -0.9591 H   0  0  0  0  0  0  0  0  0  0  0  0
    0.8619   -1.8425   -0.5192 H   0  0  0  0  0  0  0  0  0  0  0  0
   -0.5717   -2.7496    0.0311 H   0  0  0  0  0  0  0  0  0  0  0  0
    0.2505   -1.5420    1.1606 H   0  0  0  0  0  0  0  0  0  0  0  0
  1  2  1  0
  2  3  3  0
  3  4  1  0
  4  5  1  0
  4  6  1  0
  6  7  1  0
  6  8  1  0
  1  9  1  0
  1 10  1  0
  1 11  1  0
  4 12  1  0
  5 13  1  0
  5 14  1  0
  5 15  1  0
  6 16  1  0
  7 17  1  0
  7 18  1  0
  7 19  1  0
  8 20  1  0
  8 21  1  0
  8 22  1  0
M  END
