
     RDKit          3D

 21 20  0  0  0  0  0  0  0  0999 V2000
    2.6964    2.1007   -1.0809 C   0  0  0  0  0  0  0  0  0  0  0  0
    1.6460    1.0960   -0.9025 C   0  0  0  0  0  0  0  0  0  0  0  0
    0.7819    0.2401   -0.7554 C   0  0  0  0  0  0  0  0  0  0  0  0
   -0.2533   -0.7547   -0.5946 C   0  0  0  0  0  0  0  0  0  0  0  0
   -1.1506   -0.8158   -1.8029 C   0  0  0  0  0  0  0  0  0  0  0  0
   -1.0673   -0.5009    0.6543 C   0  0  0  0  0  0  0  0  0  0  0  0
   -2.0381   -1.4921    0.7415 O   0  0  0  0  0  0  0  0  0  0  0  0
   -0.1858   -0.6375    1.8793 C   0  0  0  0  0  0  0  0  0  0  0  0
   -0.9135   -0.4803    3.0517 O   0  0  0  0  0  0  0  0  0  0  0  0
    3.5489    1.7045   -1.6668 H   0  0  0  0  0  0  0  0  0  0  0  0
    3.0250    2.4548   -0.1005 H   0  0  0  0  0  0  0  0  0  0  0  0
    2.3139    2.9752   -1.6842 H   0  0  0  0  0  0  0  0  0  0  0  0
    0.1862   -1.7757   -0.4685 H   0  0  0  0  0  0  0  0  0  0  0  0
   -0.8830    0.0286   -2.4704 H   0  0  0  0  0  0  0  0  0  0  0  0
   -2.2213   -0.7422   -1.5458 H   0  0  0  0  0  0  0  0  0  0  0  0
   -1.0095   -1.7600   -2.3944 H   0  0  0  0  0  0  0  0  0  0  0  0
   -1.4890    0.5253    0.6798 H   0  0  0  0  0  0  0  0  0  0  0  0
   -2.9579   -1.1593    0.6511 H   0  0  0  0  0  0  0  0  0  0  0  0
    0.6068    0.1551    1.9010 H   0  0  0  0  0  0  0  0  0  0  0  0
    0.3161   -1.6251    1.9281 H   0  0  0  0  0  0  0  0  0  0  0  0
   -0.9521    0.4633    3.3606 H   0  0  0  0  0  0  0  0  0  0  0  0
  1  2  1  0
  2  3  3  0
  3  4  1  0
  4  5  1  0
  4  6  1  0
  6  7  1  0
  6  8  1  0
  8  9  1  0
  1 10  1  0
  1 11  1  0
  1 12  1  0
  4 13  1  0
  5 14  1  0
  5 15  1  0
  5 16  1  0
  6 17  1  0
  7 18  1  0
  8 19  1  0
  8 20  1  0
  9 21  1  0
M  END
