
     RDKit          3D

 21 21  0  0  0  0  0  0  0  0999 V2000
    3.1863    0.1678    0.9425 C   0  0  0  0  0  0  0  0  0  0  0  0
    1.9165    0.0534    0.2247 C   0  0  0  0  0  0  0  0  0  0  0  0
    0.8561   -0.0213   -0.3687 C   0  0  0  0  0  0  0  0  0  0  0  0
   -0.4174   -0.1135   -1.0533 C   0  0  0  0  0  0  0  0  0  0  0  0
   -1.4276    0.9030   -0.5300 C   0  0  0  0  0  0  0  0  0  0  0  0
   -0.8879    2.2549   -0.2413 C   0  0  0  0  0  0  0  0  0  0  0  0
   -1.5449    0.0471    0.5927 O   0  0  0  0  0  0  0  0  0  0  0  0
   -1.3992   -0.9837   -0.3382 C   0  0  0  0  0  0  0  0  0  0  0  0
   -0.8792   -2.2751    0.2126 C   0  0  0  0  0  0  0  0  0  0  0  0
    3.8294   -0.7241    0.7632 H   0  0  0  0  0  0  0  0  0  0  0  0
    3.7521    1.0650    0.6200 H   0  0  0  0  0  0  0  0  0  0  0  0
    2.9149    0.2137    2.0339 H   0  0  0  0  0  0  0  0  0  0  0  0
   -0.3831   -0.2225   -2.1419 H   0  0  0  0  0  0  0  0  0  0  0  0
   -2.3498    0.8302   -1.1067 H   0  0  0  0  0  0  0  0  0  0  0  0
    0.1998    2.3221   -0.3557 H   0  0  0  0  0  0  0  0  0  0  0  0
   -1.4466    2.9960   -0.8654 H   0  0  0  0  0  0  0  0  0  0  0  0
   -1.1146    2.4854    0.8398 H   0  0  0  0  0  0  0  0  0  0  0  0
   -2.3625   -1.1245   -0.8621 H   0  0  0  0  0  0  0  0  0  0  0  0
   -0.0342   -2.1729    0.8899 H   0  0  0  0  0  0  0  0  0  0  0  0
   -0.6781   -2.9477   -0.6479 H   0  0  0  0  0  0  0  0  0  0  0  0
   -1.7299   -2.7534    0.7699 H   0  0  0  0  0  0  0  0  0  0  0  0
  1  2  1  0
  2  3  3  0
  3  4  1  0
  4  5  1  0
  5  6  1  0
  5  7  1  0
  7  8  1  0
  8  9  1  0
  8  4  1  0
  1 10  1  0
  1 11  1  0
  1 12  1  0
  4 13  1  0
  5 14  1  0
  6 15  1  0
  6 16  1  0
  6 17  1  0
  8 18  1  0
  9 19  1  0
  9 20  1  0
  9 21  1  0
M  END
