
     RDKit          3D

 12 12  0  0  0  0  0  0  0  0999 V2000
   -2.5769    0.6313    0.0502 C   0  0  0  0  0  0  0  0  0  0  0  0
   -1.2108    0.1367    0.2324 C   0  0  0  0  0  0  0  0  0  0  0  0
   -0.0764   -0.2966    0.3872 C   0  0  0  0  0  0  0  0  0  0  0  0
    1.2779   -0.8291    0.5513 C   0  0  0  0  0  0  0  0  0  0  0  0
    2.3339   -0.1851   -0.2102 C   0  0  0  0  0  0  0  0  0  0  0  0
    2.1773   -0.0083    1.2784 O   0  0  0  0  0  0  0  0  0  0  0  0
   -3.3347   -0.0892    0.4767 H   0  0  0  0  0  0  0  0  0  0  0  0
   -2.7475    0.7988   -1.0275 H   0  0  0  0  0  0  0  0  0  0  0  0
   -2.6281    1.5967    0.6329 H   0  0  0  0  0  0  0  0  0  0  0  0
    1.3507   -1.8944    0.8745 H   0  0  0  0  0  0  0  0  0  0  0  0
    3.3376   -0.6208   -0.3628 H   0  0  0  0  0  0  0  0  0  0  0  0
    2.0971    0.7599   -0.7256 H   0  0  0  0  0  0  0  0  0  0  0  0
  1  2  1  0
  2  3  3  0
  3  4  1  0
  4  5  1  0
  5  6  1  0
  6  4  1  0
  1  7  1  0
  1  8  1  0
  1  9  1  0
  4 10  1  0
  5 11  1  0
  5 12  1  0
M  END
