
     RDKit          3D

 17 18  0  0  0  0  0  0  0  0999 V2000
    3.6924    0.0184   -0.3250 C   0  0  0  0  0  0  0  0  0  0  0  0
    2.2310   -0.2141   -0.3353 C   0  0  0  0  0  0  0  0  0  0  0  0
    1.0376   -0.3965   -0.3311 C   0  0  0  0  0  0  0  0  0  0  0  0
   -0.3858   -0.5981   -0.3312 C   0  0  0  0  0  0  0  0  0  0  0  0
   -1.1832    0.5696   -0.8094 C   0  0  0  0  0  0  0  0  0  0  0  0
   -0.8327    1.2242    0.3520 O   0  0  0  0  0  0  0  0  0  0  0  0
   -1.1404   -0.0305    0.8413 C   0  0  0  0  0  0  0  0  0  0  0  0
   -2.3311   -0.0279   -0.0492 C   0  0  0  0  0  0  0  0  0  0  0  0
   -3.3711    0.8075    0.2654 O   0  0  0  0  0  0  0  0  0  0  0  0
    4.2023   -0.4994   -1.1468 H   0  0  0  0  0  0  0  0  0  0  0  0
    3.8142    1.1218   -0.3788 H   0  0  0  0  0  0  0  0  0  0  0  0
    4.1414   -0.3385    0.6248 H   0  0  0  0  0  0  0  0  0  0  0  0
   -0.7623   -1.5840   -0.6455 H   0  0  0  0  0  0  0  0  0  0  0  0
   -1.2157    0.9472   -1.7445 H   0  0  0  0  0  0  0  0  0  0  0  0
   -1.0783   -0.3475    1.7956 H   0  0  0  0  0  0  0  0  0  0  0  0
   -2.5762   -1.0302   -0.4352 H   0  0  0  0  0  0  0  0  0  0  0  0
   -4.2420    0.3777    0.3401 H   0  0  0  0  0  0  0  0  0  0  0  0
  1  2  1  0
  2  3  3  0
  3  4  1  0
  4  5  1  0
  5  6  1  0
  6  7  1  0
  7  8  1  0
  8  9  1  0
  7  4  1  0
  8  5  1  0
  1 10  1  0
  1 11  1  0
  1 12  1  0
  4 13  1  0
  5 14  1  0
  7 15  1  0
  8 16  1  0
  9 17  1  0
M  END
