
     RDKit          3D

 21 21  0  0  0  0  0  0  0  0999 V2000
    3.4924    1.5407   -0.5248 C   0  0  0  0  0  0  0  0  0  0  0  0
    2.2967    0.6958   -0.2790 C   0  0  0  0  0  0  0  0  0  0  0  0
    1.3445   -0.0013   -0.0830 C   0  0  0  0  0  0  0  0  0  0  0  0
    0.1990   -0.8449    0.1777 C   0  0  0  0  0  0  0  0  0  0  0  0
   -0.2084   -1.5835   -0.9223 O   0  0  0  0  0  0  0  0  0  0  0  0
   -1.4522   -2.0559   -0.4873 C   0  0  0  0  0  0  0  0  0  0  0  0
   -2.1464   -0.8650    0.1306 C   0  0  0  0  0  0  0  0  0  0  0  0
   -0.9776    0.0292    0.4931 C   0  0  0  0  0  0  0  0  0  0  0  0
   -1.0636    1.2475   -0.4051 C   0  0  0  0  0  0  0  0  0  0  0  0
    3.7015    2.1335    0.3751 H   0  0  0  0  0  0  0  0  0  0  0  0
    4.3676    0.8766   -0.7894 H   0  0  0  0  0  0  0  0  0  0  0  0
    3.3170    2.1561   -1.4356 H   0  0  0  0  0  0  0  0  0  0  0  0
    0.3322   -1.5499    1.0143 H   0  0  0  0  0  0  0  0  0  0  0  0
   -1.3056   -2.8550    0.2373 H   0  0  0  0  0  0  0  0  0  0  0  0
   -1.9796   -2.4573   -1.3643 H   0  0  0  0  0  0  0  0  0  0  0  0
   -2.8262   -0.4014   -0.6095 H   0  0  0  0  0  0  0  0  0  0  0  0
   -2.6849   -1.1658    1.0627 H   0  0  0  0  0  0  0  0  0  0  0  0
   -1.0078    0.3671    1.5372 H   0  0  0  0  0  0  0  0  0  0  0  0
   -0.2490    1.9816   -0.1922 H   0  0  0  0  0  0  0  0  0  0  0  0
   -2.0066    1.7655   -0.1243 H   0  0  0  0  0  0  0  0  0  0  0  0
   -1.1431    0.9865   -1.4708 H   0  0  0  0  0  0  0  0  0  0  0  0
  1  2  1  0
  2  3  3  0
  3  4  1  0
  4  5  1  0
  5  6  1  0
  6  7  1  0
  7  8  1  0
  8  9  1  0
  8  4  1  0
  1 10  1  0
  1 11  1  0
  1 12  1  0
  4 13  1  0
  6 14  1  0
  6 15  1  0
  7 16  1  0
  7 17  1  0
  8 18  1  0
  9 19  1  0
  9 20  1  0
  9 21  1  0
M  END
