
     RDKit          3D

 19 18  0  0  0  0  0  0  0  0999 V2000
    3.3651    0.5845   -1.0782 C   0  0  0  0  0  0  0  0  0  0  0  0
    2.0375    0.4367   -0.4796 C   0  0  0  0  0  0  0  0  0  0  0  0
    0.9284    0.3231    0.0123 C   0  0  0  0  0  0  0  0  0  0  0  0
   -0.4163    0.2109    0.6110 C   0  0  0  0  0  0  0  0  0  0  0  0
   -0.4169   -0.8868    1.6643 C   0  0  0  0  0  0  0  0  0  0  0  0
   -1.3456   -0.1704   -0.5200 C   0  0  0  0  0  0  0  0  0  0  0  0
   -1.3482    0.7891   -1.5294 O   0  0  0  0  0  0  0  0  0  0  0  0
   -2.7087   -0.3957    0.0242 C   0  0  0  0  0  0  0  0  0  0  0  0
   -2.9783   -1.1813    0.9012 O   0  0  0  0  0  0  0  0  0  0  0  0
    3.3058    0.9835   -2.1244 H   0  0  0  0  0  0  0  0  0  0  0  0
    3.8941   -0.4035   -1.1641 H   0  0  0  0  0  0  0  0  0  0  0  0
    3.9152    1.3148   -0.4841 H   0  0  0  0  0  0  0  0  0  0  0  0
   -0.7171    1.1685    1.0671 H   0  0  0  0  0  0  0  0  0  0  0  0
    0.5890   -0.8885    2.1347 H   0  0  0  0  0  0  0  0  0  0  0  0
   -0.6096   -1.8441    1.1226 H   0  0  0  0  0  0  0  0  0  0  0  0
   -1.2313   -0.7423    2.3784 H   0  0  0  0  0  0  0  0  0  0  0  0
   -0.9819   -1.1255   -0.9466 H   0  0  0  0  0  0  0  0  0  0  0  0
   -1.7546    1.6407   -1.2273 H   0  0  0  0  0  0  0  0  0  0  0  0
   -3.5267    0.1863   -0.3934 H   0  0  0  0  0  0  0  0  0  0  0  0
  1  2  1  0
  2  3  3  0
  3  4  1  0
  4  5  1  0
  4  6  1  0
  6  7  1  0
  6  8  1  0
  8  9  2  0
  1 10  1  0
  1 11  1  0
  1 12  1  0
  4 13  1  0
  5 14  1  0
  5 15  1  0
  5 16  1  0
  6 17  1  0
  7 18  1  0
  8 19  1  0
M  END
