
     RDKit          3D

 20 20  0  0  0  0  0  0  0  0999 V2000
    3.0329    2.0130   -0.9406 C   0  0  0  0  0  0  0  0  0  0  0  0
    1.9351    1.2075   -0.4010 C   0  0  0  0  0  0  0  0  0  0  0  0
    1.0366    0.5219    0.0460 C   0  0  0  0  0  0  0  0  0  0  0  0
   -0.0363   -0.3291    0.5891 C   0  0  0  0  0  0  0  0  0  0  0  0
    0.4518   -1.7843    0.5496 C   0  0  0  0  0  0  0  0  0  0  0  0
   -1.2043   -0.1960   -0.3426 C   0  0  0  0  0  0  0  0  0  0  0  0
   -2.4163   -1.0150    0.0664 C   0  0  0  0  0  0  0  0  0  0  0  0
   -2.4489    0.4932    0.0705 C   0  0  0  0  0  0  0  0  0  0  0  0
    2.6594    2.9523   -1.4110 H   0  0  0  0  0  0  0  0  0  0  0  0
    3.5977    1.4816   -1.7350 H   0  0  0  0  0  0  0  0  0  0  0  0
    3.7475    2.2124   -0.1237 H   0  0  0  0  0  0  0  0  0  0  0  0
   -0.2702   -0.0622    1.6222 H   0  0  0  0  0  0  0  0  0  0  0  0
   -0.1551   -2.4018    1.2112 H   0  0  0  0  0  0  0  0  0  0  0  0
    1.5271   -1.7400    0.8420 H   0  0  0  0  0  0  0  0  0  0  0  0
    0.4225   -2.1074   -0.5209 H   0  0  0  0  0  0  0  0  0  0  0  0
   -0.9607   -0.2773   -1.4208 H   0  0  0  0  0  0  0  0  0  0  0  0
   -3.0247   -1.5071   -0.7173 H   0  0  0  0  0  0  0  0  0  0  0  0
   -2.4357   -1.4918    1.0528 H   0  0  0  0  0  0  0  0  0  0  0  0
   -2.4308    1.0215    1.0439 H   0  0  0  0  0  0  0  0  0  0  0  0
   -3.0276    1.0087   -0.7096 H   0  0  0  0  0  0  0  0  0  0  0  0
  1  2  1  0
  2  3  3  0
  3  4  1  0
  4  5  1  0
  4  6  1  0
  6  7  1  0
  7  8  1  0
  8  6  1  0
  1  9  1  0
  1 10  1  0
  1 11  1  0
  4 12  1  0
  5 13  1  0
  5 14  1  0
  5 15  1  0
  6 16  1  0
  7 17  1  0
  7 18  1  0
  8 19  1  0
  8 20  1  0
M  END
