
     RDKit          3D

 19 18  0  0  0  0  0  0  0  0999 V2000
    3.3269   -1.2037    0.5106 C   0  0  0  0  0  0  0  0  0  0  0  0
    2.1033   -0.3975    0.5271 C   0  0  0  0  0  0  0  0  0  0  0  0
    1.0933    0.2861    0.5536 C   0  0  0  0  0  0  0  0  0  0  0  0
   -0.1158    1.1101    0.6106 C   0  0  0  0  0  0  0  0  0  0  0  0
    0.1890    2.3727   -0.1146 C   0  0  0  0  0  0  0  0  0  0  0  0
   -0.6967    3.1978   -0.3052 O   0  0  0  0  0  0  0  0  0  0  0  0
   -1.2958    0.3871   -0.0311 C   0  0  0  0  0  0  0  0  0  0  0  0
   -1.5767   -0.8011    0.5996 O   0  0  0  0  0  0  0  0  0  0  0  0
   -2.6617   -1.3806   -0.0561 C   0  0  0  0  0  0  0  0  0  0  0  0
    3.9487   -0.8024   -0.3301 H   0  0  0  0  0  0  0  0  0  0  0  0
    3.9277   -1.0408    1.4524 H   0  0  0  0  0  0  0  0  0  0  0  0
    3.1133   -2.2789    0.3955 H   0  0  0  0  0  0  0  0  0  0  0  0
   -0.3582    1.3958    1.6551 H   0  0  0  0  0  0  0  0  0  0  0  0
    1.1844    2.6155   -0.4987 H   0  0  0  0  0  0  0  0  0  0  0  0
   -1.0327    0.1570   -1.0820 H   0  0  0  0  0  0  0  0  0  0  0  0
   -2.1956    1.0333    0.0205 H   0  0  0  0  0  0  0  0  0  0  0  0
   -2.4333   -1.5788   -1.1413 H   0  0  0  0  0  0  0  0  0  0  0  0
   -3.5565   -0.7230   -0.0420 H   0  0  0  0  0  0  0  0  0  0  0  0
   -2.9637   -2.3486    0.3707 H   0  0  0  0  0  0  0  0  0  0  0  0
  1  2  1  0
  2  3  3  0
  3  4  1  0
  4  5  1  0
  5  6  2  0
  4  7  1  0
  7  8  1  0
  8  9  1  0
  1 10  1  0
  1 11  1  0
  1 12  1  0
  4 13  1  0
  5 14  1  0
  7 15  1  0
  7 16  1  0
  9 17  1  0
  9 18  1  0
  9 19  1  0
M  END
