
     RDKit          3D

 17 16  0  0  0  0  0  0  0  0999 V2000
    3.1064    0.0547    0.4799 C   0  0  0  0  0  0  0  0  0  0  0  0
    1.7073   -0.3279    0.2754 C   0  0  0  0  0  0  0  0  0  0  0  0
    0.5323   -0.6334    0.1167 C   0  0  0  0  0  0  0  0  0  0  0  0
   -0.8739   -1.0048   -0.0483 C   0  0  0  0  0  0  0  0  0  0  0  0
   -1.1844   -1.8923    0.9687 O   0  0  0  0  0  0  0  0  0  0  0  0
   -1.7444    0.2424    0.0215 C   0  0  0  0  0  0  0  0  0  0  0  0
   -1.3394    1.1742   -1.0697 C   0  0  0  0  0  0  0  0  0  0  0  0
    3.7170   -0.8868    0.4333 H   0  0  0  0  0  0  0  0  0  0  0  0
    3.4626    0.7483   -0.3190 H   0  0  0  0  0  0  0  0  0  0  0  0
    3.1708    0.5502    1.4685 H   0  0  0  0  0  0  0  0  0  0  0  0
   -1.0411   -1.5259   -1.0126 H   0  0  0  0  0  0  0  0  0  0  0  0
   -1.3695   -1.4602    1.8245 H   0  0  0  0  0  0  0  0  0  0  0  0
   -2.7807   -0.0770   -0.1585 H   0  0  0  0  0  0  0  0  0  0  0  0
   -1.7063    0.7064    1.0247 H   0  0  0  0  0  0  0  0  0  0  0  0
   -2.1310    1.9423   -1.2569 H   0  0  0  0  0  0  0  0  0  0  0  0
   -1.0984    0.6492   -1.9897 H   0  0  0  0  0  0  0  0  0  0  0  0
   -0.4273    1.7406   -0.7586 H   0  0  0  0  0  0  0  0  0  0  0  0
  1  2  1  0
  2  3  3  0
  3  4  1  0
  4  5  1  0
  4  6  1  0
  6  7  1  0
  1  8  1  0
  1  9  1  0
  1 10  1  0
  4 11  1  0
  5 12  1  0
  6 13  1  0
  6 14  1  0
  7 15  1  0
  7 16  1  0
  7 17  1  0
M  END
