
     RDKit          3D

 19 20  0  0  0  0  0  0  0  0999 V2000
    3.6447   -0.2855   -0.8444 C   0  0  0  0  0  0  0  0  0  0  0  0
    2.3418    0.0679   -0.2625 C   0  0  0  0  0  0  0  0  0  0  0  0
    1.2544    0.3552    0.2044 C   0  0  0  0  0  0  0  0  0  0  0  0
   -0.0571    0.6822    0.7707 C   0  0  0  0  0  0  0  0  0  0  0  0
   -0.7565   -0.5098    1.5050 C   0  0  0  0  0  0  0  0  0  0  0  0
   -1.2722    0.0822    0.3021 C   0  0  0  0  0  0  0  0  0  0  0  0
   -2.5926    0.7598    0.1689 C   0  0  0  0  0  0  0  0  0  0  0  0
   -2.5373    0.4772   -1.2048 O   0  0  0  0  0  0  0  0  0  0  0  0
   -1.5644   -0.5258   -0.9832 C   0  0  0  0  0  0  0  0  0  0  0  0
    3.4685   -0.9878   -1.6740 H   0  0  0  0  0  0  0  0  0  0  0  0
    4.1750    0.6333   -1.2191 H   0  0  0  0  0  0  0  0  0  0  0  0
    4.3252   -0.7372   -0.1030 H   0  0  0  0  0  0  0  0  0  0  0  0
   -0.1438    1.6672    1.3158 H   0  0  0  0  0  0  0  0  0  0  0  0
   -1.2482   -0.2358    2.4756 H   0  0  0  0  0  0  0  0  0  0  0  0
   -0.2218   -1.4718    1.4543 H   0  0  0  0  0  0  0  0  0  0  0  0
   -3.4037    0.2299    0.7158 H   0  0  0  0  0  0  0  0  0  0  0  0
   -2.5148    1.8281    0.4306 H   0  0  0  0  0  0  0  0  0  0  0  0
   -2.0971   -1.5107   -1.0004 H   0  0  0  0  0  0  0  0  0  0  0  0
   -0.8000   -0.5185   -1.7852 H   0  0  0  0  0  0  0  0  0  0  0  0
  1  2  1  0
  2  3  3  0
  3  4  1  0
  4  5  1  0
  5  6  1  0
  6  7  1  0
  7  8  1  0
  8  9  1  0
  6  4  1  0
  9  6  1  0
  1 10  1  0
  1 11  1  0
  1 12  1  0
  4 13  1  0
  5 14  1  0
  5 15  1  0
  7 16  1  0
  7 17  1  0
  9 18  1  0
  9 19  1  0
M  END
