
     RDKit          3D

 19 19  0  0  0  0  0  0  0  0999 V2000
    3.0143   -1.0296    1.7872 C   0  0  0  0  0  0  0  0  0  0  0  0
    1.7926   -0.7115    1.0473 C   0  0  0  0  0  0  0  0  0  0  0  0
    0.7811   -0.4294    0.4190 C   0  0  0  0  0  0  0  0  0  0  0  0
   -0.4435   -0.0984   -0.3133 C   0  0  0  0  0  0  0  0  0  0  0  0
   -0.7365   -0.8858   -1.5716 C   0  0  0  0  0  0  0  0  0  0  0  0
   -1.3969   -2.0689   -1.3321 O   0  0  0  0  0  0  0  0  0  0  0  0
   -1.5755    0.2884    0.4480 O   0  0  0  0  0  0  0  0  0  0  0  0
   -0.9038    1.2969   -0.1937 C   0  0  0  0  0  0  0  0  0  0  0  0
   -1.6521    1.9642   -1.3280 C   0  0  0  0  0  0  0  0  0  0  0  0
    3.3481   -0.1568    2.3952 H   0  0  0  0  0  0  0  0  0  0  0  0
    3.7777   -1.3418    1.0795 H   0  0  0  0  0  0  0  0  0  0  0  0
    2.8460   -1.8872    2.4990 H   0  0  0  0  0  0  0  0  0  0  0  0
    0.2310   -1.1002   -2.0690 H   0  0  0  0  0  0  0  0  0  0  0  0
   -1.3333   -0.2214   -2.2306 H   0  0  0  0  0  0  0  0  0  0  0  0
   -2.0241   -1.9726   -0.5719 H   0  0  0  0  0  0  0  0  0  0  0  0
   -0.2807    2.0216    0.3994 H   0  0  0  0  0  0  0  0  0  0  0  0
   -2.5513    1.3439   -1.6049 H   0  0  0  0  0  0  0  0  0  0  0  0
   -1.9517    2.9717   -0.9906 H   0  0  0  0  0  0  0  0  0  0  0  0
   -0.9415    2.0168   -2.1844 H   0  0  0  0  0  0  0  0  0  0  0  0
  1  2  1  0
  2  3  3  0
  3  4  1  0
  4  5  1  0
  5  6  1  0
  4  7  1  0
  7  8  1  0
  8  9  1  0
  8  4  1  0
  1 10  1  0
  1 11  1  0
  1 12  1  0
  5 13  1  0
  5 14  1  0
  6 15  1  0
  8 16  1  0
  9 17  1  0
  9 18  1  0
  9 19  1  0
M  END
