
     RDKit          3D

 17 16  0  0  0  0  0  0  0  0999 V2000
    2.5401    2.5272    2.2950 C   0  0  0  0  0  0  0  0  0  0  0  0
    1.6957    1.4114    1.8174 C   0  0  0  0  0  0  0  0  0  0  0  0
    1.0014    0.5100    1.4292 C   0  0  0  0  0  0  0  0  0  0  0  0
    0.1614   -0.5979    0.9421 C   0  0  0  0  0  0  0  0  0  0  0  0
   -0.3906   -0.3192   -0.3150 O   0  0  0  0  0  0  0  0  0  0  0  0
   -1.1501   -1.2268   -1.0445 C   0  0  0  0  0  0  0  0  0  0  0  0
   -1.2948   -2.3466   -0.4436 O   0  0  0  0  0  0  0  0  0  0  0  0
   -1.7421   -0.9738   -2.3641 C   0  0  0  0  0  0  0  0  0  0  0  0
   -2.3464   -2.1548   -2.7957 O   0  0  0  0  0  0  0  0  0  0  0  0
    2.3766    2.7794    3.3504 H   0  0  0  0  0  0  0  0  0  0  0  0
    2.3072    3.3987    1.6743 H   0  0  0  0  0  0  0  0  0  0  0  0
    3.6147    2.2650    2.1904 H   0  0  0  0  0  0  0  0  0  0  0  0
   -0.7400   -0.6944    1.6347 H   0  0  0  0  0  0  0  0  0  0  0  0
    0.7621   -1.4990    1.0167 H   0  0  0  0  0  0  0  0  0  0  0  0
   -0.9927   -0.6784   -3.1408 H   0  0  0  0  0  0  0  0  0  0  0  0
   -2.5043   -0.1623   -2.3539 H   0  0  0  0  0  0  0  0  0  0  0  0
   -3.2982   -2.2385   -2.4857 H   0  0  0  0  0  0  0  0  0  0  0  0
  1  2  1  0
  2  3  3  0
  3  4  1  0
  4  5  1  0
  5  6  1  0
  6  7  2  0
  6  8  1  0
  8  9  1  0
  1 10  1  0
  1 11  1  0
  1 12  1  0
  4 13  1  0
  4 14  1  0
  8 15  1  0
  8 16  1  0
  9 17  1  0
M  END
