
     RDKit          3D

 21 21  0  0  0  0  0  0  0  0999 V2000
    3.1527    0.9208   -2.0250 C   0  0  0  0  0  0  0  0  0  0  0  0
    2.2051    0.5745   -0.9550 C   0  0  0  0  0  0  0  0  0  0  0  0
    1.3958    0.2832   -0.0211 C   0  0  0  0  0  0  0  0  0  0  0  0
    0.4961   -0.0184    1.0077 C   0  0  0  0  0  0  0  0  0  0  0  0
   -0.8574   -0.3229    0.5100 C   0  0  0  0  0  0  0  0  0  0  0  0
   -1.0294   -1.4799   -0.4234 C   0  0  0  0  0  0  0  0  0  0  0  0
   -1.7557    0.8348    0.1297 C   0  0  0  0  0  0  0  0  0  0  0  0
   -2.7931    0.0887    0.7511 O   0  0  0  0  0  0  0  0  0  0  0  0
   -1.8466   -0.3519    1.6851 C   0  0  0  0  0  0  0  0  0  0  0  0
    3.4295   -0.0175   -2.5935 H   0  0  0  0  0  0  0  0  0  0  0  0
    4.0700    1.3556   -1.5898 H   0  0  0  0  0  0  0  0  0  0  0  0
    2.7233    1.6131   -2.7459 H   0  0  0  0  0  0  0  0  0  0  0  0
    0.4703    0.8293    1.7736 H   0  0  0  0  0  0  0  0  0  0  0  0
    0.8084   -0.8929    1.6603 H   0  0  0  0  0  0  0  0  0  0  0  0
   -0.5601   -2.4101   -0.1234 H   0  0  0  0  0  0  0  0  0  0  0  0
   -2.1383   -1.6267   -0.5304 H   0  0  0  0  0  0  0  0  0  0  0  0
   -0.6757   -1.1075   -1.4290 H   0  0  0  0  0  0  0  0  0  0  0  0
   -1.9150    0.8243   -0.9580 H   0  0  0  0  0  0  0  0  0  0  0  0
   -1.5738    1.7908    0.6113 H   0  0  0  0  0  0  0  0  0  0  0  0
   -1.6749    0.4553    2.4369 H   0  0  0  0  0  0  0  0  0  0  0  0
   -1.9311   -1.3426    2.0896 H   0  0  0  0  0  0  0  0  0  0  0  0
  1  2  1  0
  2  3  3  0
  3  4  1  0
  4  5  1  0
  5  6  1  0
  5  7  1  0
  7  8  1  0
  8  9  1  0
  9  5  1  0
  1 10  1  0
  1 11  1  0
  1 12  1  0
  4 13  1  0
  4 14  1  0
  6 15  1  0
  6 16  1  0
  6 17  1  0
  7 18  1  0
  7 19  1  0
  9 20  1  0
  9 21  1  0
M  END
