
     RDKit          3D

 21 21  0  0  0  0  0  0  0  0999 V2000
    3.3452   -0.1399    1.6227 C   0  0  0  0  0  0  0  0  0  0  0  0
    2.0948    0.1773    0.9146 C   0  0  0  0  0  0  0  0  0  0  0  0
    1.0775    0.4376    0.3222 C   0  0  0  0  0  0  0  0  0  0  0  0
   -0.1734    0.7461   -0.3926 C   0  0  0  0  0  0  0  0  0  0  0  0
   -1.3068    1.1537    0.4981 C   0  0  0  0  0  0  0  0  0  0  0  0
   -2.0333   -0.1216    0.1249 C   0  0  0  0  0  0  0  0  0  0  0  0
   -0.8859   -0.5117   -0.7645 C   0  0  0  0  0  0  0  0  0  0  0  0
   -1.2062   -0.5217   -2.2454 C   0  0  0  0  0  0  0  0  0  0  0  0
   -0.3095   -1.6939   -0.3026 O   0  0  0  0  0  0  0  0  0  0  0  0
    3.2592    0.0879    2.7100 H   0  0  0  0  0  0  0  0  0  0  0  0
    3.5339   -1.2352    1.4964 H   0  0  0  0  0  0  0  0  0  0  0  0
    4.1551    0.4784    1.1944 H   0  0  0  0  0  0  0  0  0  0  0  0
   -0.0150    1.4750   -1.2265 H   0  0  0  0  0  0  0  0  0  0  0  0
   -1.0083    1.2401    1.5497 H   0  0  0  0  0  0  0  0  0  0  0  0
   -1.8267    2.0866    0.1628 H   0  0  0  0  0  0  0  0  0  0  0  0
   -2.9875    0.1145   -0.3951 H   0  0  0  0  0  0  0  0  0  0  0  0
   -2.2230   -0.8061    0.9742 H   0  0  0  0  0  0  0  0  0  0  0  0
   -2.1446   -1.0750   -2.4590 H   0  0  0  0  0  0  0  0  0  0  0  0
   -0.3198   -0.9833   -2.7613 H   0  0  0  0  0  0  0  0  0  0  0  0
   -1.3056    0.5220   -2.5846 H   0  0  0  0  0  0  0  0  0  0  0  0
    0.2800   -1.4306    0.4674 H   0  0  0  0  0  0  0  0  0  0  0  0
  1  2  1  0
  2  3  3  0
  3  4  1  0
  4  5  1  0
  5  6  1  0
  6  7  1  0
  7  8  1  0
  7  9  1  0
  7  4  1  0
  1 10  1  0
  1 11  1  0
  1 12  1  0
  4 13  1  0
  5 14  1  0
  5 15  1  0
  6 16  1  0
  6 17  1  0
  8 18  1  0
  8 19  1  0
  8 20  1  0
  9 21  1  0
M  END
