
     RDKit          3D

 14 13  0  0  0  0  0  0  0  0999 V2000
    2.6388    0.7964    0.9672 C   0  0  0  0  0  0  0  0  0  0  0  0
    1.2643    0.5115    0.5037 C   0  0  0  0  0  0  0  0  0  0  0  0
    0.1426    0.2827    0.1113 C   0  0  0  0  0  0  0  0  0  0  0  0
   -1.2153    0.0285   -0.3748 C   0  0  0  0  0  0  0  0  0  0  0  0
   -1.2033   -0.4458   -1.7657 C   0  0  0  0  0  0  0  0  0  0  0  0
   -1.8419    0.0832   -2.6660 O   0  0  0  0  0  0  0  0  0  0  0  0
   -1.8850   -0.9319    0.5483 C   0  0  0  0  0  0  0  0  0  0  0  0
   -2.6309   -0.5687    1.4377 O   0  0  0  0  0  0  0  0  0  0  0  0
    3.1214   -0.1746    1.2121 H   0  0  0  0  0  0  0  0  0  0  0  0
    3.2293    1.3021    0.1520 H   0  0  0  0  0  0  0  0  0  0  0  0
    2.5562    1.4683    1.8402 H   0  0  0  0  0  0  0  0  0  0  0  0
   -1.8433    0.9610   -0.3441 H   0  0  0  0  0  0  0  0  0  0  0  0
   -0.6084   -1.3170   -2.0743 H   0  0  0  0  0  0  0  0  0  0  0  0
   -1.7246   -1.9958    0.4525 H   0  0  0  0  0  0  0  0  0  0  0  0
  1  2  1  0
  2  3  3  0
  3  4  1  0
  4  5  1  0
  5  6  2  0
  4  7  1  0
  7  8  2  0
  1  9  1  0
  1 10  1  0
  1 11  1  0
  4 12  1  0
  5 13  1  0
  7 14  1  0
M  END
