
     RDKit          3D

 17 17  0  0  0  0  0  0  0  0999 V2000
    1.5372    2.5856    1.6917 C   0  0  0  0  0  0  0  0  0  0  0  0
    1.3294    1.6203    1.0592 C   0  0  0  0  0  0  0  0  0  0  0  0
    1.0368    0.3625    0.2511 C   0  0  0  0  0  0  0  0  0  0  0  0
    0.8131   -0.6945   -0.4312 C   0  0  0  0  0  0  0  0  0  0  0  0
   -0.4810   -1.4283    0.0929 C   0  0  0  0  0  0  0  0  0  0  0  0
   -1.7612   -0.7409   -0.0442 C   0  0  0  0  0  0  0  0  0  0  0  0
   -1.4004   -1.9734   -0.9016 C   0  0  0  0  0  0  0  0  0  0  0  0
    2.6648    3.0454    1.7414 H   0  0  0  0  0  0  0  0  0  0  0  0
    1.2454    2.7706    2.7966 H   0  0  0  0  0  0  0  0  0  0  0  0
    1.0834    3.6561    1.2564 H   0  0  0  0  0  0  0  0  0  0  0  0
    1.5565   -1.5223   -0.6448 H   0  0  0  0  0  0  0  0  0  0  0  0
    0.4259   -0.4151   -1.5522 H   0  0  0  0  0  0  0  0  0  0  0  0
   -0.3326   -1.9770    1.0585 H   0  0  0  0  0  0  0  0  0  0  0  0
   -2.5514   -0.8693    0.7251 H   0  0  0  0  0  0  0  0  0  0  0  0
   -1.8198    0.1900   -0.6660 H   0  0  0  0  0  0  0  0  0  0  0  0
   -2.1054   -2.8266   -0.7564 H   0  0  0  0  0  0  0  0  0  0  0  0
   -1.2407   -1.7832   -2.0099 H   0  0  0  0  0  0  0  0  0  0  0  0
  1  2  1  0
  2  3  3  0
  3  4  1  0
  4  5  1  0
  5  6  1  0
  6  7  1  0
  7  5  1  0
  1  8  1  0
  1  9  1  0
  1 10  1  0
  4 11  1  0
  4 12  1  0
  5 13  1  0
  6 14  1  0
  6 15  1  0
  7 16  1  0
  7 17  1  0
M  END
