
     RDKit          3D

 23 22  0  0  0  0  0  0  0  0999 V2000
    3.5884    0.3420    0.9177 C   0  0  0  0  0  0  0  0  0  0  0  0
    2.2624   -0.2350    0.6896 C   0  0  0  0  0  0  0  0  0  0  0  0
    1.1439   -0.7027    0.4858 C   0  0  0  0  0  0  0  0  0  0  0  0
   -0.1633   -1.2683    0.2279 C   0  0  0  0  0  0  0  0  0  0  0  0
   -1.1220   -0.2552   -0.2578 C   0  0  0  0  0  0  0  0  0  0  0  0
   -2.4339   -1.0786   -0.5148 C   0  0  0  0  0  0  0  0  0  0  0  0
   -0.7353    0.2621   -1.6339 C   0  0  0  0  0  0  0  0  0  0  0  0
   -1.5263    0.7274    0.5843 O   0  0  0  0  0  0  0  0  0  0  0  0
   -0.6550    1.5744    1.1541 C   0  0  0  0  0  0  0  0  0  0  0  0
    4.1198   -0.1774    1.7494 H   0  0  0  0  0  0  0  0  0  0  0  0
    3.5335    1.4073    1.2079 H   0  0  0  0  0  0  0  0  0  0  0  0
    4.1510    0.2518   -0.0294 H   0  0  0  0  0  0  0  0  0  0  0  0
   -0.0716   -2.0493   -0.5780 H   0  0  0  0  0  0  0  0  0  0  0  0
   -0.5849   -1.7815    1.1257 H   0  0  0  0  0  0  0  0  0  0  0  0
   -3.1623   -0.4483   -1.0530 H   0  0  0  0  0  0  0  0  0  0  0  0
   -2.8685   -1.3979    0.4330 H   0  0  0  0  0  0  0  0  0  0  0  0
   -2.2149   -1.9556   -1.1227 H   0  0  0  0  0  0  0  0  0  0  0  0
    0.2764    0.7401   -1.6004 H   0  0  0  0  0  0  0  0  0  0  0  0
   -0.7674   -0.5638   -2.3742 H   0  0  0  0  0  0  0  0  0  0  0  0
   -1.4387    1.0296   -1.9833 H   0  0  0  0  0  0  0  0  0  0  0  0
    0.0509    1.0454    1.8117 H   0  0  0  0  0  0  0  0  0  0  0  0
   -0.1474    2.2802    0.4625 H   0  0  0  0  0  0  0  0  0  0  0  0
   -1.2349    2.2533    1.8512 H   0  0  0  0  0  0  0  0  0  0  0  0
  1  2  1  0
  2  3  3  0
  3  4  1  0
  4  5  1  0
  5  6  1  0
  5  7  1  0
  5  8  1  0
  8  9  1  0
  1 10  1  0
  1 11  1  0
  1 12  1  0
  4 13  1  0
  4 14  1  0
  6 15  1  0
  6 16  1  0
  6 17  1  0
  7 18  1  0
  7 19  1  0
  7 20  1  0
  9 21  1  0
  9 22  1  0
  9 23  1  0
M  END
