
     RDKit          3D

 19 20  0  0  0  0  0  0  0  0999 V2000
    2.8353   -2.1510    0.0768 C   0  0  0  0  0  0  0  0  0  0  0  0
    2.0751   -0.8876   -0.0537 C   0  0  0  0  0  0  0  0  0  0  0  0
    1.4504    0.1490   -0.1396 C   0  0  0  0  0  0  0  0  0  0  0  0
    0.6796    1.3849   -0.2524 C   0  0  0  0  0  0  0  0  0  0  0  0
   -0.4431    1.4201    0.7805 C   0  0  0  0  0  0  0  0  0  0  0  0
   -1.1520    0.8001   -0.3834 C   0  0  0  0  0  0  0  0  0  0  0  0
   -1.7519   -0.5173   -0.3685 C   0  0  0  0  0  0  0  0  0  0  0  0
   -2.5999    0.7794   -0.5202 C   0  0  0  0  0  0  0  0  0  0  0  0
   -0.2627    1.2665   -1.2981 O   0  0  0  0  0  0  0  0  0  0  0  0
    3.3162   -2.2106    1.0640 H   0  0  0  0  0  0  0  0  0  0  0  0
    2.0607   -2.9631    0.0474 H   0  0  0  0  0  0  0  0  0  0  0  0
    3.5378   -2.2676   -0.7688 H   0  0  0  0  0  0  0  0  0  0  0  0
    1.2775    2.2942   -0.2671 H   0  0  0  0  0  0  0  0  0  0  0  0
   -0.8152    2.4481    1.0126 H   0  0  0  0  0  0  0  0  0  0  0  0
   -0.2587    0.7830    1.6522 H   0  0  0  0  0  0  0  0  0  0  0  0
   -1.9027   -1.1045    0.5381 H   0  0  0  0  0  0  0  0  0  0  0  0
   -1.6977   -1.1571   -1.2968 H   0  0  0  0  0  0  0  0  0  0  0  0
   -3.1501    0.8949   -1.4616 H   0  0  0  0  0  0  0  0  0  0  0  0
   -3.1987    1.0385    0.3845 H   0  0  0  0  0  0  0  0  0  0  0  0
  1  2  1  0
  2  3  3  0
  3  4  1  0
  4  5  1  0
  5  6  1  0
  6  7  1  0
  7  8  1  0
  6  9  1  0
  9  4  1  0
  8  6  1  0
  1 10  1  0
  1 11  1  0
  1 12  1  0
  4 13  1  0
  5 14  1  0
  5 15  1  0
  7 16  1  0
  7 17  1  0
  8 18  1  0
  8 19  1  0
M  END
