
     RDKit          3D

 20 19  0  0  0  0  0  0  0  0999 V2000
    3.4677   -0.6710   -0.2099 C   0  0  0  0  0  0  0  0  0  0  0  0
    2.0114   -0.3846   -0.3935 C   0  0  0  0  0  0  0  0  0  0  0  0
    0.8669   -0.1660   -0.5215 C   0  0  0  0  0  0  0  0  0  0  0  0
   -0.5533    0.0913   -0.7021 C   0  0  0  0  0  0  0  0  0  0  0  0
   -0.8078    1.5114   -1.0149 C   0  0  0  0  0  0  0  0  0  0  0  0
   -1.3931   -0.5124    0.3685 C   0  0  0  0  0  0  0  0  0  0  0  0
   -1.1456   -0.0480    1.7609 C   0  0  0  0  0  0  0  0  0  0  0  0
   -2.7334   -0.3738   -0.0121 O   0  0  0  0  0  0  0  0  0  0  0  0
    3.8790   -1.1096   -1.1345 H   0  0  0  0  0  0  0  0  0  0  0  0
    3.9427    0.3264   -0.0809 H   0  0  0  0  0  0  0  0  0  0  0  0
    3.6205   -1.3582    0.6263 H   0  0  0  0  0  0  0  0  0  0  0  0
   -0.8688   -0.4906   -1.6637 H   0  0  0  0  0  0  0  0  0  0  0  0
   -1.9137    1.7199   -1.2161 H   0  0  0  0  0  0  0  0  0  0  0  0
   -0.5269    2.2559   -0.2632 H   0  0  0  0  0  0  0  0  0  0  0  0
   -0.3593    1.7035   -2.0414 H   0  0  0  0  0  0  0  0  0  0  0  0
   -1.1694   -1.6285    0.3437 H   0  0  0  0  0  0  0  0  0  0  0  0
   -0.2427   -0.4359    2.2486 H   0  0  0  0  0  0  0  0  0  0  0  0
   -0.9623    1.0849    1.7581 H   0  0  0  0  0  0  0  0  0  0  0  0
   -2.0206   -0.2583    2.4334 H   0  0  0  0  0  0  0  0  0  0  0  0
   -3.0913   -1.2565   -0.2859 H   0  0  0  0  0  0  0  0  0  0  0  0
  1  2  1  0
  2  3  3  0
  3  4  1  0
  4  5  1  0
  4  6  1  0
  6  7  1  0
  6  8  1  0
  1  9  1  0
  1 10  1  0
  1 11  1  0
  4 12  1  0
  5 13  1  0
  5 14  1  0
  5 15  1  0
  6 16  1  0
  7 17  1  0
  7 18  1  0
  7 19  1  0
  8 20  1  0
M  END
