
     RDKit          3D

 14 13  0  0  0  0  0  0  0  0999 V2000
   -4.0872    0.2792    0.3118 C   0  0  0  0  0  0  0  0  0  0  0  0
   -2.6432    0.0436    0.2119 C   0  0  0  0  0  0  0  0  0  0  0  0
   -1.4449   -0.1344    0.1176 C   0  0  0  0  0  0  0  0  0  0  0  0
   -0.0524   -0.3492   -0.0040 C   0  0  0  0  0  0  0  0  0  0  0  0
    1.1479   -0.5473   -0.1261 C   0  0  0  0  0  0  0  0  0  0  0  0
    2.5576   -0.7608   -0.2823 C   0  0  0  0  0  0  0  0  0  0  0  0
    3.5029    0.3827   -0.2944 C   0  0  0  0  0  0  0  0  0  0  0  0
    3.0247   -1.9215   -0.4125 O   0  0  0  0  0  0  0  0  0  0  0  0
   -4.6225   -0.6953    0.1619 H   0  0  0  0  0  0  0  0  0  0  0  0
   -4.3449    0.7544    1.2781 H   0  0  0  0  0  0  0  0  0  0  0  0
   -4.3914    0.9802   -0.4938 H   0  0  0  0  0  0  0  0  0  0  0  0
    3.0200    1.3344   -0.0104 H   0  0  0  0  0  0  0  0  0  0  0  0
    3.9977    0.4627   -1.2916 H   0  0  0  0  0  0  0  0  0  0  0  0
    4.3356    0.1712    0.4313 H   0  0  0  0  0  0  0  0  0  0  0  0
  1  2  1  0
  2  3  3  0
  3  4  1  0
  4  5  3  0
  5  6  1  0
  6  7  1  0
  6  8  2  0
  1  9  1  0
  1 10  1  0
  1 11  1  0
  7 12  1  0
  7 13  1  0
  7 14  1  0
M  END
