
     RDKit          3D

 19 19  0  0  0  0  0  0  0  0999 V2000
    3.5737   -0.0044    1.2652 C   0  0  0  0  0  0  0  0  0  0  0  0
    2.1444    0.1441    0.9292 C   0  0  0  0  0  0  0  0  0  0  0  0
    0.9579    0.2684    0.6721 C   0  0  0  0  0  0  0  0  0  0  0  0
   -0.4461    0.4379    0.3796 C   0  0  0  0  0  0  0  0  0  0  0  0
   -1.1151   -0.9291    0.2170 C   0  0  0  0  0  0  0  0  0  0  0  0
   -2.3059   -0.5704   -0.6454 C   0  0  0  0  0  0  0  0  0  0  0  0
   -1.6902    0.3307   -1.6873 C   0  0  0  0  0  0  0  0  0  0  0  0
   -0.6727    1.0872   -0.9123 C   0  0  0  0  0  0  0  0  0  0  0  0
   -0.1117    2.0961   -1.2948 O   0  0  0  0  0  0  0  0  0  0  0  0
    3.8918    0.6965    2.0599 H   0  0  0  0  0  0  0  0  0  0  0  0
    3.8072   -1.0383    1.5889 H   0  0  0  0  0  0  0  0  0  0  0  0
    4.1492    0.1988    0.3582 H   0  0  0  0  0  0  0  0  0  0  0  0
   -0.9892    0.9312    1.2128 H   0  0  0  0  0  0  0  0  0  0  0  0
   -1.4164   -1.3399    1.1996 H   0  0  0  0  0  0  0  0  0  0  0  0
   -0.4266   -1.5872   -0.3429 H   0  0  0  0  0  0  0  0  0  0  0  0
   -3.0211    0.0409   -0.0672 H   0  0  0  0  0  0  0  0  0  0  0  0
   -2.7583   -1.4791   -1.0982 H   0  0  0  0  0  0  0  0  0  0  0  0
   -1.1313   -0.2791   -2.4525 H   0  0  0  0  0  0  0  0  0  0  0  0
   -2.4395    0.9959   -2.1676 H   0  0  0  0  0  0  0  0  0  0  0  0
  1  2  1  0
  2  3  3  0
  3  4  1  0
  4  5  1  0
  5  6  1  0
  6  7  1  0
  7  8  1  0
  8  9  2  0
  8  4  1  0
  1 10  1  0
  1 11  1  0
  1 12  1  0
  4 13  1  0
  5 14  1  0
  5 15  1  0
  6 16  1  0
  6 17  1  0
  7 18  1  0
  7 19  1  0
M  END
