
     RDKit          3D

 23 22  0  0  0  0  0  0  0  0999 V2000
    3.2610   -0.6101    3.1665 C   0  0  0  0  0  0  0  0  0  0  0  0
    2.0639   -0.5954    2.3066 C   0  0  0  0  0  0  0  0  0  0  0  0
    0.9611   -0.5713    1.5395 C   0  0  0  0  0  0  0  0  0  0  0  0
   -0.1068   -0.5472    0.8225 C   0  0  0  0  0  0  0  0  0  0  0  0
   -0.0272    0.1317   -0.5433 C   0  0  0  0  0  0  0  0  0  0  0  0
    0.9183   -0.4946   -1.3362 O   0  0  0  0  0  0  0  0  0  0  0  0
   -1.2881    0.1552   -1.3229 C   0  0  0  0  0  0  0  0  0  0  0  0
   -1.0296    0.8421   -2.6406 C   0  0  0  0  0  0  0  0  0  0  0  0
   -2.4837    0.7581   -0.6697 C   0  0  0  0  0  0  0  0  0  0  0  0
    3.5401    0.4208    3.3755 H   0  0  0  0  0  0  0  0  0  0  0  0
    4.0460   -1.1726    2.5907 H   0  0  0  0  0  0  0  0  0  0  0  0
    3.0679   -1.1418    4.1081 H   0  0  0  0  0  0  0  0  0  0  0  0
   -0.5832   -1.5839    0.5374 H   0  0  0  0  0  0  0  0  0  0  0  0
   -1.0154   -0.1270    1.3936 H   0  0  0  0  0  0  0  0  0  0  0  0
    0.3416    1.1884   -0.3392 H   0  0  0  0  0  0  0  0  0  0  0  0
    1.3056   -1.2776   -0.8883 H   0  0  0  0  0  0  0  0  0  0  0  0
   -1.5958   -0.9385   -1.5337 H   0  0  0  0  0  0  0  0  0  0  0  0
   -1.6262    1.7517   -2.7910 H   0  0  0  0  0  0  0  0  0  0  0  0
    0.0321    1.1914   -2.6325 H   0  0  0  0  0  0  0  0  0  0  0  0
   -1.1939    0.1174   -3.4753 H   0  0  0  0  0  0  0  0  0  0  0  0
   -3.3770    0.4116   -1.2881 H   0  0  0  0  0  0  0  0  0  0  0  0
   -2.5034    1.8369   -0.6943 H   0  0  0  0  0  0  0  0  0  0  0  0
   -2.7076    0.2547    0.3149 H   0  0  0  0  0  0  0  0  0  0  0  0
  1  2  1  0
  2  3  3  0
  3  4  1  0
  4  5  1  0
  5  6  1  0
  5  7  1  0
  7  8  1  0
  7  9  1  0
  1 10  1  0
  1 11  1  0
  1 12  1  0
  4 13  1  0
  4 14  1  0
  5 15  1  0
  6 16  1  0
  7 17  1  0
  8 18  1  0
  8 19  1  0
  8 20  1  0
  9 21  1  0
  9 22  1  0
  9 23  1  0
M  END
