
     RDKit          3D

 20 20  0  0  0  0  0  0  0  0999 V2000
   -3.9974   -0.1641    0.4990 C   0  0  0  0  0  0  0  0  0  0  0  0
   -2.5956   -0.0246    0.0591 C   0  0  0  0  0  0  0  0  0  0  0  0
   -1.4453    0.1099   -0.2950 C   0  0  0  0  0  0  0  0  0  0  0  0
   -0.0789    0.2882   -0.6985 C   0  0  0  0  0  0  0  0  0  0  0  0
    0.8025   -0.9027   -0.4029 C   0  0  0  0  0  0  0  0  0  0  0  0
    1.9189    0.1263   -0.1673 C   0  0  0  0  0  0  0  0  0  0  0  0
    2.8542   -0.2313    0.9557 C   0  0  0  0  0  0  0  0  0  0  0  0
    0.7934    1.0642    0.2976 C   0  0  0  0  0  0  0  0  0  0  0  0
   -4.5208   -0.9523   -0.0674 H   0  0  0  0  0  0  0  0  0  0  0  0
   -4.0672   -0.4059    1.5663 H   0  0  0  0  0  0  0  0  0  0  0  0
   -4.5098    0.8107    0.3008 H   0  0  0  0  0  0  0  0  0  0  0  0
    0.1148    0.6753   -1.7075 H   0  0  0  0  0  0  0  0  0  0  0  0
    0.6029   -1.4048    0.5616 H   0  0  0  0  0  0  0  0  0  0  0  0
    1.0034   -1.5352   -1.2686 H   0  0  0  0  0  0  0  0  0  0  0  0
    2.3917    0.4513   -1.1036 H   0  0  0  0  0  0  0  0  0  0  0  0
    2.3644   -1.0179    1.5936 H   0  0  0  0  0  0  0  0  0  0  0  0
    3.8448   -0.5514    0.5997 H   0  0  0  0  0  0  0  0  0  0  0  0
    3.0483    0.6724    1.6028 H   0  0  0  0  0  0  0  0  0  0  0  0
    0.5152    0.8773    1.3518 H   0  0  0  0  0  0  0  0  0  0  0  0
    0.9605    2.1145    0.0127 H   0  0  0  0  0  0  0  0  0  0  0  0
  1  2  1  0
  2  3  3  0
  3  4  1  0
  4  5  1  0
  5  6  1  0
  6  7  1  0
  6  8  1  0
  8  4  1  0
  1  9  1  0
  1 10  1  0
  1 11  1  0
  4 12  1  0
  5 13  1  0
  5 14  1  0
  6 15  1  0
  7 16  1  0
  7 17  1  0
  7 18  1  0
  8 19  1  0
  8 20  1  0
M  END
