
     RDKit          3D

 23 23  0  0  0  0  0  0  0  0999 V2000
    3.9489    0.6448    0.5797 C   0  0  0  0  0  0  0  0  0  0  0  0
    2.6439    0.0955    0.2199 C   0  0  0  0  0  0  0  0  0  0  0  0
    1.5585   -0.3752   -0.0632 C   0  0  0  0  0  0  0  0  0  0  0  0
    0.2543   -0.9523   -0.4285 C   0  0  0  0  0  0  0  0  0  0  0  0
   -0.7826    0.1666   -0.3221 C   0  0  0  0  0  0  0  0  0  0  0  0
   -0.5163    1.3455   -1.2262 C   0  0  0  0  0  0  0  0  0  0  0  0
   -1.2088    0.4327    1.1022 C   0  0  0  0  0  0  0  0  0  0  0  0
   -2.1575   -0.1132    0.1018 C   0  0  0  0  0  0  0  0  0  0  0  0
   -2.5607   -1.5709    0.1308 C   0  0  0  0  0  0  0  0  0  0  0  0
    3.9655    1.7601    0.4649 H   0  0  0  0  0  0  0  0  0  0  0  0
    4.7364    0.2289   -0.0935 H   0  0  0  0  0  0  0  0  0  0  0  0
    4.1242    0.3801    1.6480 H   0  0  0  0  0  0  0  0  0  0  0  0
    0.0479   -1.7366    0.3437 H   0  0  0  0  0  0  0  0  0  0  0  0
    0.2819   -1.3748   -1.4498 H   0  0  0  0  0  0  0  0  0  0  0  0
   -1.4578    1.6357   -1.7218 H   0  0  0  0  0  0  0  0  0  0  0  0
    0.2301    1.0736   -2.0071 H   0  0  0  0  0  0  0  0  0  0  0  0
   -0.1485    2.2177   -0.6450 H   0  0  0  0  0  0  0  0  0  0  0  0
   -0.8052   -0.1915    1.9245 H   0  0  0  0  0  0  0  0  0  0  0  0
   -1.3153    1.5175    1.3623 H   0  0  0  0  0  0  0  0  0  0  0  0
   -2.9512    0.5749   -0.2611 H   0  0  0  0  0  0  0  0  0  0  0  0
   -2.3424   -1.9888   -0.8857 H   0  0  0  0  0  0  0  0  0  0  0  0
   -3.6314   -1.7142    0.3849 H   0  0  0  0  0  0  0  0  0  0  0  0
   -1.9139   -2.1315    0.8415 H   0  0  0  0  0  0  0  0  0  0  0  0
  1  2  1  0
  2  3  3  0
  3  4  1  0
  4  5  1  0
  5  6  1  0
  5  7  1  0
  7  8  1  0
  8  9  1  0
  8  5  1  0
  1 10  1  0
  1 11  1  0
  1 12  1  0
  4 13  1  0
  4 14  1  0
  6 15  1  0
  6 16  1  0
  6 17  1  0
  7 18  1  0
  7 19  1  0
  8 20  1  0
  9 21  1  0
  9 22  1  0
  9 23  1  0
M  END
