
     RDKit          3D

 23 23  0  0  0  0  0  0  0  0999 V2000
    3.8788    1.9234    0.5727 C   0  0  0  0  0  0  0  0  0  0  0  0
    2.5793    1.4187    0.1187 C   0  0  0  0  0  0  0  0  0  0  0  0
    1.5079    1.0061   -0.2476 C   0  0  0  0  0  0  0  0  0  0  0  0
    0.1809    0.5184   -0.6856 C   0  0  0  0  0  0  0  0  0  0  0  0
   -0.8894    0.6694    0.3768 C   0  0  0  0  0  0  0  0  0  0  0  0
   -1.3392   -0.7249   -0.0195 C   0  0  0  0  0  0  0  0  0  0  0  0
   -2.2577   -0.7306   -1.2260 C   0  0  0  0  0  0  0  0  0  0  0  0
   -1.8138   -1.5841    1.1049 C   0  0  0  0  0  0  0  0  0  0  0  0
    0.1023   -0.9608   -0.4288 C   0  0  0  0  0  0  0  0  0  0  0  0
    4.2577    2.7309   -0.1190 H   0  0  0  0  0  0  0  0  0  0  0  0
    3.8308    2.3707    1.5821 H   0  0  0  0  0  0  0  0  0  0  0  0
    4.5865    1.0740    0.5105 H   0  0  0  0  0  0  0  0  0  0  0  0
   -0.1061    0.8008   -1.6956 H   0  0  0  0  0  0  0  0  0  0  0  0
   -0.4420    0.6465    1.3822 H   0  0  0  0  0  0  0  0  0  0  0  0
   -1.6181    1.4673    0.1716 H   0  0  0  0  0  0  0  0  0  0  0  0
   -2.1591   -1.7545   -1.6852 H   0  0  0  0  0  0  0  0  0  0  0  0
   -3.3076   -0.5776   -0.9209 H   0  0  0  0  0  0  0  0  0  0  0  0
   -1.9615   -0.0123   -1.9895 H   0  0  0  0  0  0  0  0  0  0  0  0
   -2.6263   -1.0220    1.6370 H   0  0  0  0  0  0  0  0  0  0  0  0
   -1.0381   -1.8017    1.8371 H   0  0  0  0  0  0  0  0  0  0  0  0
   -2.2427   -2.5105    0.6604 H   0  0  0  0  0  0  0  0  0  0  0  0
    0.7375   -1.3387    0.3826 H   0  0  0  0  0  0  0  0  0  0  0  0
    0.1398   -1.6087   -1.3188 H   0  0  0  0  0  0  0  0  0  0  0  0
  1  2  1  0
  2  3  3  0
  3  4  1  0
  4  5  1  0
  5  6  1  0
  6  7  1  0
  6  8  1  0
  6  9  1  0
  9  4  1  0
  1 10  1  0
  1 11  1  0
  1 12  1  0
  4 13  1  0
  5 14  1  0
  5 15  1  0
  7 16  1  0
  7 17  1  0
  7 18  1  0
  8 19  1  0
  8 20  1  0
  8 21  1  0
  9 22  1  0
  9 23  1  0
M  END
