
     RDKit          3D

 17 18  0  0  0  0  0  0  0  0999 V2000
    3.5423   -0.8205   -0.1048 C   0  0  0  0  0  0  0  0  0  0  0  0
    2.0752   -0.6476   -0.0257 C   0  0  0  0  0  0  0  0  0  0  0  0
    0.8784   -0.5016    0.0586 C   0  0  0  0  0  0  0  0  0  0  0  0
   -0.5774   -0.3106    0.1816 C   0  0  0  0  0  0  0  0  0  0  0  0
   -1.0039    0.9606    0.8707 C   0  0  0  0  0  0  0  0  0  0  0  0
   -2.3001    1.2773    0.2105 C   0  0  0  0  0  0  0  0  0  0  0  0
   -2.5378    0.4420   -0.7883 C   0  0  0  0  0  0  0  0  0  0  0  0
   -1.4158   -0.5257   -0.8982 C   0  0  0  0  0  0  0  0  0  0  0  0
   -1.3853   -1.4210    0.2198 O   0  0  0  0  0  0  0  0  0  0  0  0
    3.7147   -1.8584   -0.4432 H   0  0  0  0  0  0  0  0  0  0  0  0
    3.9964   -0.1464   -0.8463 H   0  0  0  0  0  0  0  0  0  0  0  0
    4.0003   -0.6744    0.9147 H   0  0  0  0  0  0  0  0  0  0  0  0
   -0.3097    1.7790    0.6153 H   0  0  0  0  0  0  0  0  0  0  0  0
   -1.1144    0.8309    1.9666 H   0  0  0  0  0  0  0  0  0  0  0  0
   -2.9298    2.1031    0.5498 H   0  0  0  0  0  0  0  0  0  0  0  0
   -3.4066    0.4601   -1.4218 H   0  0  0  0  0  0  0  0  0  0  0  0
   -1.2265   -0.9469   -1.8885 H   0  0  0  0  0  0  0  0  0  0  0  0
  1  2  1  0
  2  3  3  0
  3  4  1  0
  4  5  1  0
  5  6  1  0
  6  7  2  0
  7  8  1  0
  8  9  1  0
  8  4  1  0
  9  4  1  0
  1 10  1  0
  1 11  1  0
  1 12  1  0
  5 13  1  0
  5 14  1  0
  6 15  1  0
  7 16  1  0
  8 17  1  0
M  END
