
     RDKit          3D

 23 22  0  0  0  0  0  0  0  0999 V2000
    3.3617   -0.8334    0.3568 C   0  0  0  0  0  0  0  0  0  0  0  0
    1.9318   -0.5933    0.1451 C   0  0  0  0  0  0  0  0  0  0  0  0
    0.7552   -0.4043   -0.0095 C   0  0  0  0  0  0  0  0  0  0  0  0
   -0.6593   -0.1971   -0.1793 C   0  0  0  0  0  0  0  0  0  0  0  0
   -1.1102   -0.3303   -1.6131 C   0  0  0  0  0  0  0  0  0  0  0  0
   -1.1324    1.1002    0.4023 C   0  0  0  0  0  0  0  0  0  0  0  0
   -0.4728    2.3046   -0.2077 C   0  0  0  0  0  0  0  0  0  0  0  0
   -1.3815   -1.3078    0.5968 C   0  0  0  0  0  0  0  0  0  0  0  0
   -0.9996   -1.1895    1.9490 O   0  0  0  0  0  0  0  0  0  0  0  0
    3.9287   -0.2828   -0.4408 H   0  0  0  0  0  0  0  0  0  0  0  0
    3.6936   -0.5560    1.3579 H   0  0  0  0  0  0  0  0  0  0  0  0
    3.6200   -1.9080    0.1977 H   0  0  0  0  0  0  0  0  0  0  0  0
   -2.1809   -0.6175   -1.6870 H   0  0  0  0  0  0  0  0  0  0  0  0
   -0.8631    0.5672   -2.2219 H   0  0  0  0  0  0  0  0  0  0  0  0
   -0.5397   -1.2052   -2.0411 H   0  0  0  0  0  0  0  0  0  0  0  0
   -1.0564    1.1227    1.5089 H   0  0  0  0  0  0  0  0  0  0  0  0
   -2.2386    1.1551    0.1761 H   0  0  0  0  0  0  0  0  0  0  0  0
   -0.7094    3.1905    0.4308 H   0  0  0  0  0  0  0  0  0  0  0  0
   -0.9221    2.5258   -1.1986 H   0  0  0  0  0  0  0  0  0  0  0  0
    0.6068    2.1028   -0.2627 H   0  0  0  0  0  0  0  0  0  0  0  0
   -2.4572   -1.0548    0.5273 H   0  0  0  0  0  0  0  0  0  0  0  0
   -1.1552   -2.2969    0.1912 H   0  0  0  0  0  0  0  0  0  0  0  0
   -0.0195   -1.2919    2.0218 H   0  0  0  0  0  0  0  0  0  0  0  0
  1  2  1  0
  2  3  3  0
  3  4  1  0
  4  5  1  0
  4  6  1  0
  6  7  1  0
  4  8  1  0
  8  9  1  0
  1 10  1  0
  1 11  1  0
  1 12  1  0
  5 13  1  0
  5 14  1  0
  5 15  1  0
  6 16  1  0
  6 17  1  0
  7 18  1  0
  7 19  1  0
  7 20  1  0
  8 21  1  0
  8 22  1  0
  9 23  1  0
M  END
