
     RDKit          3D

 19 19  0  0  0  0  0  0  0  0999 V2000
    3.3129    0.3382   -0.2422 C   0  0  0  0  0  0  0  0  0  0  0  0
    1.8724    0.0555   -0.1780 C   0  0  0  0  0  0  0  0  0  0  0  0
    0.6851   -0.1602   -0.1375 C   0  0  0  0  0  0  0  0  0  0  0  0
   -0.7687   -0.4236   -0.1024 C   0  0  0  0  0  0  0  0  0  0  0  0
   -1.0557   -1.8765   -0.3670 C   0  0  0  0  0  0  0  0  0  0  0  0
   -1.2696    0.0510    1.2255 C   0  0  0  0  0  0  0  0  0  0  0  0
   -1.2760    1.4490    1.0013 O   0  0  0  0  0  0  0  0  0  0  0  0
   -1.5536    1.6174   -0.3328 C   0  0  0  0  0  0  0  0  0  0  0  0
   -1.3840    0.4275   -0.9866 O   0  0  0  0  0  0  0  0  0  0  0  0
    3.7782   -0.1036   -1.1521 H   0  0  0  0  0  0  0  0  0  0  0  0
    3.4466    1.4192   -0.2899 H   0  0  0  0  0  0  0  0  0  0  0  0
    3.8605   -0.0377    0.6351 H   0  0  0  0  0  0  0  0  0  0  0  0
   -0.8945   -2.0281   -1.4645 H   0  0  0  0  0  0  0  0  0  0  0  0
   -2.0786   -2.0993   -0.0556 H   0  0  0  0  0  0  0  0  0  0  0  0
   -0.2814   -2.4791    0.1370 H   0  0  0  0  0  0  0  0  0  0  0  0
   -2.2876   -0.3157    1.4788 H   0  0  0  0  0  0  0  0  0  0  0  0
   -0.5918   -0.2127    2.0628 H   0  0  0  0  0  0  0  0  0  0  0  0
   -2.6061    1.9984   -0.4063 H   0  0  0  0  0  0  0  0  0  0  0  0
   -0.9080    2.3804   -0.8257 H   0  0  0  0  0  0  0  0  0  0  0  0
  1  2  1  0
  2  3  3  0
  3  4  1  0
  4  5  1  0
  4  6  1  0
  6  7  1  0
  7  8  1  0
  8  9  1  0
  9  4  1  0
  1 10  1  0
  1 11  1  0
  1 12  1  0
  5 13  1  0
  5 14  1  0
  5 15  1  0
  6 16  1  0
  6 17  1  0
  8 18  1  0
  8 19  1  0
M  END
