
     RDKit          3D

 21 21  0  0  0  0  0  0  0  0999 V2000
    3.3540   -0.7949   -0.0941 C   0  0  0  0  0  0  0  0  0  0  0  0
    1.9044   -0.6039    0.0019 C   0  0  0  0  0  0  0  0  0  0  0  0
    0.6980   -0.4395    0.1025 C   0  0  0  0  0  0  0  0  0  0  0  0
   -0.7526   -0.2667    0.2277 C   0  0  0  0  0  0  0  0  0  0  0  0
   -1.1223    0.3006    1.5928 C   0  0  0  0  0  0  0  0  0  0  0  0
   -1.4988   -1.5484    0.0084 C   0  0  0  0  0  0  0  0  0  0  0  0
   -1.1607    0.7684   -0.7938 C   0  0  0  0  0  0  0  0  0  0  0  0
   -0.5547    2.1279   -0.6861 C   0  0  0  0  0  0  0  0  0  0  0  0
   -0.2401    1.2261   -1.7070 O   0  0  0  0  0  0  0  0  0  0  0  0
    3.6019   -1.6909   -0.7106 H   0  0  0  0  0  0  0  0  0  0  0  0
    3.7732    0.1345   -0.5287 H   0  0  0  0  0  0  0  0  0  0  0  0
    3.8196   -0.9286    0.9035 H   0  0  0  0  0  0  0  0  0  0  0  0
   -2.1146    0.7770    1.5566 H   0  0  0  0  0  0  0  0  0  0  0  0
   -1.0750   -0.4420    2.3899 H   0  0  0  0  0  0  0  0  0  0  0  0
   -0.3855    1.1127    1.8372 H   0  0  0  0  0  0  0  0  0  0  0  0
   -1.8740   -1.9159    0.9794 H   0  0  0  0  0  0  0  0  0  0  0  0
   -2.3511   -1.3982   -0.7050 H   0  0  0  0  0  0  0  0  0  0  0  0
   -0.8102   -2.3206   -0.4243 H   0  0  0  0  0  0  0  0  0  0  0  0
   -2.2152    0.6965   -1.1117 H   0  0  0  0  0  0  0  0  0  0  0  0
    0.2284    2.2360    0.0777 H   0  0  0  0  0  0  0  0  0  0  0  0
   -1.2246    2.9700   -0.8997 H   0  0  0  0  0  0  0  0  0  0  0  0
  1  2  1  0
  2  3  3  0
  3  4  1  0
  4  5  1  0
  4  6  1  0
  4  7  1  0
  7  8  1  0
  8  9  1  0
  9  7  1  0
  1 10  1  0
  1 11  1  0
  1 12  1  0
  5 13  1  0
  5 14  1  0
  5 15  1  0
  6 16  1  0
  6 17  1  0
  6 18  1  0
  7 19  1  0
  8 20  1  0
  8 21  1  0
M  END
