
     RDKit          3D

 19 20  0  0  0  0  0  0  0  0999 V2000
    3.7598   -0.1819   -0.9395 C   0  0  0  0  0  0  0  0  0  0  0  0
    2.3016   -0.1913   -0.6883 C   0  0  0  0  0  0  0  0  0  0  0  0
    1.1108   -0.2178   -0.4897 C   0  0  0  0  0  0  0  0  0  0  0  0
   -0.2666   -0.2373   -0.2447 C   0  0  0  0  0  0  0  0  0  0  0  0
   -1.1807    0.4598   -1.2666 C   0  0  0  0  0  0  0  0  0  0  0  0
   -2.1187    0.4816   -0.0497 C   0  0  0  0  0  0  0  0  0  0  0  0
   -2.2640   -0.9725    0.2277 C   0  0  0  0  0  0  0  0  0  0  0  0
   -0.9344   -1.4046   -0.0208 O   0  0  0  0  0  0  0  0  0  0  0  0
   -0.8420    0.8067    0.7230 C   0  0  0  0  0  0  0  0  0  0  0  0
    4.2898   -0.7797   -0.1681 H   0  0  0  0  0  0  0  0  0  0  0  0
    4.1750    0.8223   -0.9622 H   0  0  0  0  0  0  0  0  0  0  0  0
    3.9389   -0.6325   -1.9486 H   0  0  0  0  0  0  0  0  0  0  0  0
   -1.4998   -0.1837   -2.0825 H   0  0  0  0  0  0  0  0  0  0  0  0
   -0.8153    1.4658   -1.5168 H   0  0  0  0  0  0  0  0  0  0  0  0
   -2.9181    1.1566   -0.0392 H   0  0  0  0  0  0  0  0  0  0  0  0
   -2.9811   -1.4836   -0.4184 H   0  0  0  0  0  0  0  0  0  0  0  0
   -2.4292   -1.2116    1.3120 H   0  0  0  0  0  0  0  0  0  0  0  0
   -0.8373    0.5037    1.7637 H   0  0  0  0  0  0  0  0  0  0  0  0
   -0.4886    1.7997    0.4481 H   0  0  0  0  0  0  0  0  0  0  0  0
  1  2  1  0
  2  3  3  0
  3  4  1  0
  4  5  1  0
  5  6  1  0
  6  7  1  0
  7  8  1  0
  6  9  1  0
  8  4  1  0
  9  4  1  0
  1 10  1  0
  1 11  1  0
  1 12  1  0
  5 13  1  0
  5 14  1  0
  6 15  1  0
  7 16  1  0
  7 17  1  0
  9 18  1  0
  9 19  1  0
M  END
