
     RDKit          3D

 20 19  0  0  0  0  0  0  0  0999 V2000
    3.6442   -0.7901   -0.3042 C   0  0  0  0  0  0  0  0  0  0  0  0
    2.2040   -0.4971   -0.1801 C   0  0  0  0  0  0  0  0  0  0  0  0
    1.0255   -0.2376   -0.0725 C   0  0  0  0  0  0  0  0  0  0  0  0
   -0.4124    0.0615    0.0391 C   0  0  0  0  0  0  0  0  0  0  0  0
   -0.7299    1.0415   -1.0724 C   0  0  0  0  0  0  0  0  0  0  0  0
   -1.2311   -1.2068   -0.0969 C   0  0  0  0  0  0  0  0  0  0  0  0
   -0.6518    0.6813    1.2475 O   0  0  0  0  0  0  0  0  0  0  0  0
   -1.9794    0.9930    1.4248 C   0  0  0  0  0  0  0  0  0  0  0  0
    4.1063   -0.5336    0.6577 H   0  0  0  0  0  0  0  0  0  0  0  0
    4.0972   -0.3006   -1.1777 H   0  0  0  0  0  0  0  0  0  0  0  0
    3.8163   -1.8895   -0.4450 H   0  0  0  0  0  0  0  0  0  0  0  0
   -0.2580    0.7427   -2.0319 H   0  0  0  0  0  0  0  0  0  0  0  0
   -1.8243    1.1033   -1.2768 H   0  0  0  0  0  0  0  0  0  0  0  0
   -0.3697    2.0468   -0.8216 H   0  0  0  0  0  0  0  0  0  0  0  0
   -1.2744   -1.6659    0.9100 H   0  0  0  0  0  0  0  0  0  0  0  0
   -0.8111   -1.8877   -0.8615 H   0  0  0  0  0  0  0  0  0  0  0  0
   -2.2734   -0.8931   -0.3477 H   0  0  0  0  0  0  0  0  0  0  0  0
   -2.1484    1.4838    2.3885 H   0  0  0  0  0  0  0  0  0  0  0  0
   -2.2936    1.6899    0.6198 H   0  0  0  0  0  0  0  0  0  0  0  0
   -2.6357    0.0932    1.4006 H   0  0  0  0  0  0  0  0  0  0  0  0
  1  2  1  0
  2  3  3  0
  3  4  1  0
  4  5  1  0
  4  6  1  0
  4  7  1  0
  7  8  1  0
  1  9  1  0
  1 10  1  0
  1 11  1  0
  5 12  1  0
  5 13  1  0
  5 14  1  0
  6 15  1  0
  6 16  1  0
  6 17  1  0
  8 18  1  0
  8 19  1  0
  8 20  1  0
M  END
