
     RDKit          3D

 16 15  0  0  0  0  0  0  0  0999 V2000
    3.3893   -0.2970   -0.8025 C   0  0  0  0  0  0  0  0  0  0  0  0
    2.0146    0.1922   -0.5576 C   0  0  0  0  0  0  0  0  0  0  0  0
    0.8907    0.5907   -0.3641 C   0  0  0  0  0  0  0  0  0  0  0  0
   -0.4434    1.0595   -0.1264 C   0  0  0  0  0  0  0  0  0  0  0  0
   -0.7281    2.2367    0.2106 O   0  0  0  0  0  0  0  0  0  0  0  0
   -1.5591    0.0927   -0.2887 C   0  0  0  0  0  0  0  0  0  0  0  0
   -2.3371   -0.0872    1.0078 C   0  0  0  0  0  0  0  0  0  0  0  0
   -1.0978   -1.1679   -0.6626 O   0  0  0  0  0  0  0  0  0  0  0  0
    3.7491   -0.8951    0.0633 H   0  0  0  0  0  0  0  0  0  0  0  0
    3.4352   -0.8817   -1.7571 H   0  0  0  0  0  0  0  0  0  0  0  0
    4.0960    0.5643   -0.9192 H   0  0  0  0  0  0  0  0  0  0  0  0
   -2.2942    0.4773   -1.0517 H   0  0  0  0  0  0  0  0  0  0  0  0
   -3.3679   -0.4308    0.7977 H   0  0  0  0  0  0  0  0  0  0  0  0
   -2.3627    0.8774    1.5749 H   0  0  0  0  0  0  0  0  0  0  0  0
   -1.8289   -0.8117    1.6934 H   0  0  0  0  0  0  0  0  0  0  0  0
   -1.5556   -1.5195   -1.4559 H   0  0  0  0  0  0  0  0  0  0  0  0
  1  2  1  0
  2  3  3  0
  3  4  1  0
  4  5  2  0
  4  6  1  0
  6  7  1  0
  6  8  1  0
  1  9  1  0
  1 10  1  0
  1 11  1  0
  6 12  1  0
  7 13  1  0
  7 14  1  0
  7 15  1  0
  8 16  1  0
M  END
