
     RDKit          3D

 20 20  0  0  0  0  0  0  0  0999 V2000
    4.2526    0.2738    0.2669 C   0  0  0  0  0  0  0  0  0  0  0  0
    2.8731   -0.1934    0.4070 C   0  0  0  0  0  0  0  0  0  0  0  0
    1.7305   -0.5583    0.5250 C   0  0  0  0  0  0  0  0  0  0  0  0
    0.3226   -1.0075    0.6457 C   0  0  0  0  0  0  0  0  0  0  0  0
   -0.5312    0.0886    0.0859 C   0  0  0  0  0  0  0  0  0  0  0  0
   -1.9967   -0.2111    0.1340 C   0  0  0  0  0  0  0  0  0  0  0  0
   -2.8683    0.8979   -0.4329 C   0  0  0  0  0  0  0  0  0  0  0  0
   -2.8103   -0.4700   -1.0530 C   0  0  0  0  0  0  0  0  0  0  0  0
    4.3269    0.7277   -0.7529 H   0  0  0  0  0  0  0  0  0  0  0  0
    4.9576   -0.5836    0.3510 H   0  0  0  0  0  0  0  0  0  0  0  0
    4.5128    1.0146    1.0669 H   0  0  0  0  0  0  0  0  0  0  0  0
    0.2583   -1.9491    0.0897 H   0  0  0  0  0  0  0  0  0  0  0  0
    0.0510   -1.1796    1.6905 H   0  0  0  0  0  0  0  0  0  0  0  0
   -0.3589    0.9978    0.7155 H   0  0  0  0  0  0  0  0  0  0  0  0
   -0.1838    0.3368   -0.9306 H   0  0  0  0  0  0  0  0  0  0  0  0
   -2.3530   -0.6248    1.0957 H   0  0  0  0  0  0  0  0  0  0  0  0
   -3.7542    1.2336    0.1199 H   0  0  0  0  0  0  0  0  0  0  0  0
   -2.3735    1.7036   -1.0313 H   0  0  0  0  0  0  0  0  0  0  0  0
   -2.3476   -0.5658   -2.0588 H   0  0  0  0  0  0  0  0  0  0  0  0
   -3.7078   -1.1174   -0.9342 H   0  0  0  0  0  0  0  0  0  0  0  0
  1  2  1  0
  2  3  3  0
  3  4  1  0
  4  5  1  0
  5  6  1  0
  6  7  1  0
  7  8  1  0
  8  6  1  0
  1  9  1  0
  1 10  1  0
  1 11  1  0
  4 12  1  0
  4 13  1  0
  5 14  1  0
  5 15  1  0
  6 16  1  0
  7 17  1  0
  7 18  1  0
  8 19  1  0
  8 20  1  0
M  END
