
     RDKit          3D

 17 18  0  0  0  0  0  0  0  0999 V2000
    3.8138    0.1735    0.1940 C   0  0  0  0  0  0  0  0  0  0  0  0
    2.3415    0.0379    0.1527 C   0  0  0  0  0  0  0  0  0  0  0  0
    1.1432   -0.0839    0.1361 C   0  0  0  0  0  0  0  0  0  0  0  0
   -0.2832   -0.2478    0.1277 C   0  0  0  0  0  0  0  0  0  0  0  0
   -1.0558   -0.9611    0.9512 C   0  0  0  0  0  0  0  0  0  0  0  0
   -2.4009   -0.6871    0.3826 C   0  0  0  0  0  0  0  0  0  0  0  0
   -2.3612    0.8036    0.2037 C   0  0  0  0  0  0  0  0  0  0  0  0
   -1.3031    0.3221   -0.7895 C   0  0  0  0  0  0  0  0  0  0  0  0
   -2.1359   -0.7679   -1.0007 O   0  0  0  0  0  0  0  0  0  0  0  0
    4.1543    0.2458   -0.8597 H   0  0  0  0  0  0  0  0  0  0  0  0
    4.2929   -0.6850    0.6938 H   0  0  0  0  0  0  0  0  0  0  0  0
    4.0823    1.0769    0.7818 H   0  0  0  0  0  0  0  0  0  0  0  0
   -0.7937   -1.5722    1.7987 H   0  0  0  0  0  0  0  0  0  0  0  0
   -3.2516   -1.1680    0.7695 H   0  0  0  0  0  0  0  0  0  0  0  0
   -1.9618    1.3870    1.0447 H   0  0  0  0  0  0  0  0  0  0  0  0
   -3.2604    1.1707   -0.2859 H   0  0  0  0  0  0  0  0  0  0  0  0
   -1.0203    0.9555   -1.5804 H   0  0  0  0  0  0  0  0  0  0  0  0
  1  2  1  0
  2  3  3  0
  3  4  1  0
  4  5  2  0
  5  6  1  0
  6  7  1  0
  7  8  1  0
  8  9  1  0
  8  4  1  0
  9  6  1  0
  1 10  1  0
  1 11  1  0
  1 12  1  0
  5 13  1  0
  6 14  1  0
  7 15  1  0
  7 16  1  0
  8 17  1  0
M  END
