
     RDKit          3D

 21 20  0  0  0  0  0  0  0  0999 V2000
    4.3263    0.0856    2.3587 C   0  0  0  0  0  0  0  0  0  0  0  0
    3.0350   -0.1413    1.4025 C   0  0  0  0  0  0  0  0  0  0  0  0
    2.1141   -0.3217    0.7289 C   0  0  0  0  0  0  0  0  0  0  0  0
    1.1309   -0.5243   -0.0149 C   0  0  0  0  0  0  0  0  0  0  0  0
   -0.1451   -0.8042    0.4169 O   0  0  0  0  0  0  0  0  0  0  0  0
   -1.0720   -1.0782   -0.6392 C   0  0  0  0  0  0  0  0  0  0  0  0
   -1.8973    0.0151   -1.1054 C   0  0  0  0  0  0  0  0  0  0  0  0
   -2.7325    0.6890   -0.2764 O   0  0  0  0  0  0  0  0  0  0  0  0
   -3.6659    1.5975   -0.6042 C   0  0  0  0  0  0  0  0  0  0  0  0
    5.0639    0.5780    1.3756 H   0  0  0  0  0  0  0  0  0  0  0  0
    4.1618    1.2729    2.6869 H   0  0  0  0  0  0  0  0  0  0  0  0
    4.9370   -0.4533    2.7669 H   0  0  0  0  0  0  0  0  0  0  0  0
    1.0068    0.2879   -0.9191 H   0  0  0  0  0  0  0  0  0  0  0  0
    1.3685   -1.4452   -0.8176 H   0  0  0  0  0  0  0  0  0  0  0  0
   -0.3008   -1.2960   -1.5122 H   0  0  0  0  0  0  0  0  0  0  0  0
   -1.5770   -2.0150   -0.5633 H   0  0  0  0  0  0  0  0  0  0  0  0
   -1.3176    0.8063   -1.7151 H   0  0  0  0  0  0  0  0  0  0  0  0
   -2.5741   -0.4224   -1.9484 H   0  0  0  0  0  0  0  0  0  0  0  0
   -4.2449    1.7487    0.4381 H   0  0  0  0  0  0  0  0  0  0  0  0
   -4.4064    1.3853   -1.3247 H   0  0  0  0  0  0  0  0  0  0  0  0
   -3.2106    2.6468   -0.7339 H   0  0  0  0  0  0  0  0  0  0  0  0
  1  2  1  0
  2  3  3  0
  3  4  1  0
  4  5  1  0
  5  6  1  0
  6  7  1  0
  7  8  1  0
  8  9  1  0
  1 10  1  0
  1 11  1  0
  1 12  1  0
  4 13  1  0
  4 14  1  0
  6 15  1  0
  6 16  1  0
  7 17  1  0
  7 18  1  0
  9 19  1  0
  9 20  1  0
  9 21  1  0
M  END
