
     RDKit          3D

 19 19  0  0  0  0  0  0  0  0999 V2000
    4.1718   -0.9177    1.0070 C   0  0  0  0  0  0  0  0  0  0  0  0
    2.8880   -0.4700    0.4230 C   0  0  0  0  0  0  0  0  0  0  0  0
    1.8563   -0.1050   -0.0465 C   0  0  0  0  0  0  0  0  0  0  0  0
    0.5968    0.3405   -0.5923 C   0  0  0  0  0  0  0  0  0  0  0  0
    0.0277   -0.2775   -1.8286 C   0  0  0  0  0  0  0  0  0  0  0  0
   -0.5467   -0.7153   -0.5592 C   0  0  0  0  0  0  0  0  0  0  0  0
   -1.8415   -0.2231   -0.0787 C   0  0  0  0  0  0  0  0  0  0  0  0
   -2.9154    0.1789    0.2976 C   0  0  0  0  0  0  0  0  0  0  0  0
   -4.2380    0.6828    0.7366 C   0  0  0  0  0  0  0  0  0  0  0  0
    5.0137   -0.3020    0.6441 H   0  0  0  0  0  0  0  0  0  0  0  0
    4.3632   -1.9914    0.7397 H   0  0  0  0  0  0  0  0  0  0  0  0
    4.0782   -0.8024    2.1039 H   0  0  0  0  0  0  0  0  0  0  0  0
    0.2638    1.3839   -0.3316 H   0  0  0  0  0  0  0  0  0  0  0  0
    0.7166   -0.9758   -2.3577 H   0  0  0  0  0  0  0  0  0  0  0  0
   -0.5233    0.4440   -2.4953 H   0  0  0  0  0  0  0  0  0  0  0  0
   -0.2464   -1.7287   -0.1921 H   0  0  0  0  0  0  0  0  0  0  0  0
   -4.9575   -0.1548    0.7692 H   0  0  0  0  0  0  0  0  0  0  0  0
   -4.5195    1.4629    0.0025 H   0  0  0  0  0  0  0  0  0  0  0  0
   -4.1879    1.1096    1.7584 H   0  0  0  0  0  0  0  0  0  0  0  0
  1  2  1  0
  2  3  3  0
  3  4  1  0
  4  5  1  0
  5  6  1  0
  6  7  1  0
  7  8  3  0
  8  9  1  0
  6  4  1  0
  1 10  1  0
  1 11  1  0
  1 12  1  0
  4 13  1  0
  5 14  1  0
  5 15  1  0
  6 16  1  0
  9 17  1  0
  9 18  1  0
  9 19  1  0
M  END
