
     RDKit          3D

 25 24  0  0  0  0  0  0  0  0999 V2000
    4.1306   -2.3792    0.6981 C   0  0  0  0  0  0  0  0  0  0  0  0
    2.7723   -1.4094   -0.2132 C   0  0  0  0  0  0  0  0  0  0  0  0
    2.0162   -0.8826   -0.7270 C   0  0  0  0  0  0  0  0  0  0  0  0
    0.9504   -0.1128   -1.4592 C   0  0  0  0  0  0  0  0  0  0  0  0
   -0.0409    0.0499   -0.2434 C   0  0  0  0  0  0  0  0  0  0  0  0
   -1.3632    0.5147   -0.5151 C   0  0  0  0  0  0  0  0  0  0  0  0
   -1.2864    1.8523   -1.2819 C   0  0  0  0  0  0  0  0  0  0  0  0
   -2.0818    0.9256    0.7765 C   0  0  0  0  0  0  0  0  0  0  0  0
   -2.2730   -0.1781    1.7590 C   0  0  0  0  0  0  0  0  0  0  0  0
    4.8813   -1.6663    0.1319 H   0  0  0  0  0  0  0  0  0  0  0  0
    3.7979   -1.8671    1.5974 H   0  0  0  0  0  0  0  0  0  0  0  0
    3.8175   -3.2044    0.2526 H   0  0  0  0  0  0  0  0  0  0  0  0
    1.2934    0.6779   -1.8976 H   0  0  0  0  0  0  0  0  0  0  0  0
    0.4736   -0.9755   -2.1083 H   0  0  0  0  0  0  0  0  0  0  0  0
    0.6244    0.6754    0.4323 H   0  0  0  0  0  0  0  0  0  0  0  0
   -0.0914   -0.9873    0.3148 H   0  0  0  0  0  0  0  0  0  0  0  0
   -2.0406   -0.2034   -1.0450 H   0  0  0  0  0  0  0  0  0  0  0  0
   -2.3241    2.2169   -1.3711 H   0  0  0  0  0  0  0  0  0  0  0  0
   -0.8463    1.6477   -2.3081 H   0  0  0  0  0  0  0  0  0  0  0  0
   -0.7088    2.5597   -0.6745 H   0  0  0  0  0  0  0  0  0  0  0  0
   -3.0755    1.2937    0.4785 H   0  0  0  0  0  0  0  0  0  0  0  0
   -1.4670    1.7455    1.2384 H   0  0  0  0  0  0  0  0  0  0  0  0
   -1.8289    0.1101    2.7724 H   0  0  0  0  0  0  0  0  0  0  0  0
   -3.3835   -0.2943    1.9488 H   0  0  0  0  0  0  0  0  0  0  0  0
   -1.9461   -1.2052    1.4437 H   0  0  0  0  0  0  0  0  0  0  0  0
  1  2  1  0
  2  3  3  0
  3  4  1  0
  4  5  1  0
  5  6  1  0
  6  7  1  0
  6  8  1  0
  8  9  1  0
  1 10  1  0
  1 11  1  0
  1 12  1  0
  4 13  1  0
  4 14  1  0
  5 15  1  0
  5 16  1  0
  6 17  1  0
  7 18  1  0
  7 19  1  0
  7 20  1  0
  8 21  1  0
  8 22  1  0
  9 23  1  0
  9 24  1  0
  9 25  1  0
M  END
