
     RDKit          3D

 23 22  0  0  0  0  0  0  0  0999 V2000
   -3.4502    0.6460    1.7284 C   0  0  0  0  0  0  0  0  0  0  0  0
   -2.4026    0.1858    0.8378 C   0  0  0  0  0  0  0  0  0  0  0  0
   -1.5223   -0.2211    0.0959 C   0  0  0  0  0  0  0  0  0  0  0  0
   -0.4524   -0.6978   -0.7789 C   0  0  0  0  0  0  0  0  0  0  0  0
   -1.0469   -1.7081   -1.7333 C   0  0  0  0  0  0  0  0  0  0  0  0
    0.5982   -1.1732   -0.0550 O   0  0  0  0  0  0  0  0  0  0  0  0
    1.7960   -0.5402   -0.1584 C   0  0  0  0  0  0  0  0  0  0  0  0
    1.6616    0.8877    0.3029 C   0  0  0  0  0  0  0  0  0  0  0  0
    2.9843    1.6333    0.2055 C   0  0  0  0  0  0  0  0  0  0  0  0
   -4.2693    1.1825    1.1901 H   0  0  0  0  0  0  0  0  0  0  0  0
   -3.8668   -0.1670    2.3617 H   0  0  0  0  0  0  0  0  0  0  0  0
   -2.9940    1.4344    2.3953 H   0  0  0  0  0  0  0  0  0  0  0  0
   -0.1197    0.1734   -1.3738 H   0  0  0  0  0  0  0  0  0  0  0  0
   -1.0303   -2.7255   -1.3106 H   0  0  0  0  0  0  0  0  0  0  0  0
   -2.1112   -1.4360   -1.8827 H   0  0  0  0  0  0  0  0  0  0  0  0
   -0.5715   -1.6471   -2.7351 H   0  0  0  0  0  0  0  0  0  0  0  0
    2.2311   -0.5931   -1.1669 H   0  0  0  0  0  0  0  0  0  0  0  0
    2.5067   -1.0544    0.5505 H   0  0  0  0  0  0  0  0  0  0  0  0
    0.9496    1.4783   -0.2885 H   0  0  0  0  0  0  0  0  0  0  0  0
    1.3384    0.9595    1.3595 H   0  0  0  0  0  0  0  0  0  0  0  0
    3.7850    1.1336    0.7671 H   0  0  0  0  0  0  0  0  0  0  0  0
    3.2110    1.7393   -0.8779 H   0  0  0  0  0  0  0  0  0  0  0  0
    2.7753    2.6683    0.5666 H   0  0  0  0  0  0  0  0  0  0  0  0
  1  2  1  0
  2  3  3  0
  3  4  1  0
  4  5  1  0
  4  6  1  0
  6  7  1  0
  7  8  1  0
  8  9  1  0
  1 10  1  0
  1 11  1  0
  1 12  1  0
  4 13  1  0
  5 14  1  0
  5 15  1  0
  5 16  1  0
  7 17  1  0
  7 18  1  0
  8 19  1  0
  8 20  1  0
  9 21  1  0
  9 22  1  0
  9 23  1  0
M  END
