
     RDKit          3D

 23 22  0  0  0  0  0  0  0  0999 V2000
    4.8288    0.7637    0.7293 C   0  0  0  0  0  0  0  0  0  0  0  0
    3.4582    0.2452    0.7966 C   0  0  0  0  0  0  0  0  0  0  0  0
    2.3214   -0.1856    0.8566 C   0  0  0  0  0  0  0  0  0  0  0  0
    0.9564   -0.6888    0.9501 C   0  0  0  0  0  0  0  0  0  0  0  0
    0.1174    0.0369   -0.0672 C   0  0  0  0  0  0  0  0  0  0  0  0
   -1.1698   -0.4551    0.0392 O   0  0  0  0  0  0  0  0  0  0  0  0
   -2.0714    0.1028   -0.8236 C   0  0  0  0  0  0  0  0  0  0  0  0
   -3.2543    0.6111    0.0046 C   0  0  0  0  0  0  0  0  0  0  0  0
   -2.5930   -1.0315   -1.7167 C   0  0  0  0  0  0  0  0  0  0  0  0
    5.0686    1.4098    1.6177 H   0  0  0  0  0  0  0  0  0  0  0  0
    4.9408    1.3275   -0.2264 H   0  0  0  0  0  0  0  0  0  0  0  0
    5.5863   -0.0594    0.7575 H   0  0  0  0  0  0  0  0  0  0  0  0
    0.8810   -1.7719    0.7402 H   0  0  0  0  0  0  0  0  0  0  0  0
    0.5199   -0.4908    1.9481 H   0  0  0  0  0  0  0  0  0  0  0  0
    0.0680    1.1133    0.2724 H   0  0  0  0  0  0  0  0  0  0  0  0
    0.5278    0.0416   -1.0755 H   0  0  0  0  0  0  0  0  0  0  0  0
   -1.6847    0.8671   -1.4960 H   0  0  0  0  0  0  0  0  0  0  0  0
   -3.7414    1.4611   -0.4878 H   0  0  0  0  0  0  0  0  0  0  0  0
   -3.9303   -0.2576    0.1489 H   0  0  0  0  0  0  0  0  0  0  0  0
   -2.8239    0.9692    0.9651 H   0  0  0  0  0  0  0  0  0  0  0  0
   -3.0958   -0.6632   -2.6075 H   0  0  0  0  0  0  0  0  0  0  0  0
   -3.2244   -1.7124   -1.0950 H   0  0  0  0  0  0  0  0  0  0  0  0
   -1.6856   -1.6333   -1.9847 H   0  0  0  0  0  0  0  0  0  0  0  0
  1  2  1  0
  2  3  3  0
  3  4  1  0
  4  5  1  0
  5  6  1  0
  6  7  1  0
  7  8  1  0
  7  9  1  0
  1 10  1  0
  1 11  1  0
  1 12  1  0
  4 13  1  0
  4 14  1  0
  5 15  1  0
  5 16  1  0
  7 17  1  0
  8 18  1  0
  8 19  1  0
  8 20  1  0
  9 21  1  0
  9 22  1  0
  9 23  1  0
M  END
