
     RDKit          3D

 21 21  0  0  0  0  0  0  0  0999 V2000
    2.9135    1.3196   -1.0975 C   0  0  0  0  0  0  0  0  0  0  0  0
    1.7252    0.5247   -0.7729 C   0  0  0  0  0  0  0  0  0  0  0  0
    0.7588   -0.1406   -0.4922 C   0  0  0  0  0  0  0  0  0  0  0  0
   -0.4177   -0.9580   -0.1245 C   0  0  0  0  0  0  0  0  0  0  0  0
   -1.2776   -1.0776   -1.3443 C   0  0  0  0  0  0  0  0  0  0  0  0
   -1.1155   -0.3618    1.0509 C   0  0  0  0  0  0  0  0  0  0  0  0
   -2.2442   -1.0544    1.4847 O   0  0  0  0  0  0  0  0  0  0  0  0
   -0.9736    1.0586    1.4281 C   0  0  0  0  0  0  0  0  0  0  0  0
   -0.1565    0.0528    2.1822 C   0  0  0  0  0  0  0  0  0  0  0  0
    2.6574    2.3810   -0.8514 H   0  0  0  0  0  0  0  0  0  0  0  0
    3.7787    1.0607   -0.4283 H   0  0  0  0  0  0  0  0  0  0  0  0
    3.1457    1.1783   -2.1637 H   0  0  0  0  0  0  0  0  0  0  0  0
   -0.1029   -1.9923    0.1617 H   0  0  0  0  0  0  0  0  0  0  0  0
   -2.1524   -1.7140   -1.1940 H   0  0  0  0  0  0  0  0  0  0  0  0
   -0.6520   -1.5885   -2.1289 H   0  0  0  0  0  0  0  0  0  0  0  0
   -1.5707   -0.1061   -1.7741 H   0  0  0  0  0  0  0  0  0  0  0  0
   -2.5211   -1.7211    0.8120 H   0  0  0  0  0  0  0  0  0  0  0  0
   -1.8129    1.4873    2.0354 H   0  0  0  0  0  0  0  0  0  0  0  0
   -0.4750    1.7923    0.7658 H   0  0  0  0  0  0  0  0  0  0  0  0
    0.9229    0.0878    1.9581 H   0  0  0  0  0  0  0  0  0  0  0  0
   -0.4299   -0.2287    3.2161 H   0  0  0  0  0  0  0  0  0  0  0  0
  1  2  1  0
  2  3  3  0
  3  4  1  0
  4  5  1  0
  4  6  1  0
  6  7  1  0
  6  8  1  0
  8  9  1  0
  9  6  1  0
  1 10  1  0
  1 11  1  0
  1 12  1  0
  4 13  1  0
  5 14  1  0
  5 15  1  0
  5 16  1  0
  7 17  1  0
  8 18  1  0
  8 19  1  0
  9 20  1  0
  9 21  1  0
M  END
