
     RDKit          3D

 21 21  0  0  0  0  0  0  0  0999 V2000
    2.9322   -0.9743    2.3563 C   0  0  0  0  0  0  0  0  0  0  0  0
    2.0543   -1.1775    1.1857 C   0  0  0  0  0  0  0  0  0  0  0  0
    1.3212   -1.3510    0.2410 C   0  0  0  0  0  0  0  0  0  0  0  0
    0.4091   -1.5575   -0.8988 C   0  0  0  0  0  0  0  0  0  0  0  0
   -1.0090   -1.8459   -0.5973 C   0  0  0  0  0  0  0  0  0  0  0  0
   -0.5659   -0.4790   -1.1494 C   0  0  0  0  0  0  0  0  0  0  0  0
   -0.7968    0.5426   -0.2688 O   0  0  0  0  0  0  0  0  0  0  0  0
   -1.3195    1.6215   -0.9733 C   0  0  0  0  0  0  0  0  0  0  0  0
   -1.6150    2.8104   -0.1069 C   0  0  0  0  0  0  0  0  0  0  0  0
    3.0590    0.1010    2.5914 H   0  0  0  0  0  0  0  0  0  0  0  0
    3.9095   -1.4864    2.2265 H   0  0  0  0  0  0  0  0  0  0  0  0
    2.4376   -1.4586    3.2216 H   0  0  0  0  0  0  0  0  0  0  0  0
    0.8188   -2.0689   -1.7934 H   0  0  0  0  0  0  0  0  0  0  0  0
   -1.6557   -2.4085   -1.2684 H   0  0  0  0  0  0  0  0  0  0  0  0
   -1.2695   -1.9258    0.4694 H   0  0  0  0  0  0  0  0  0  0  0  0
   -0.8256   -0.2674   -2.2087 H   0  0  0  0  0  0  0  0  0  0  0  0
   -0.5636    1.8679   -1.7627 H   0  0  0  0  0  0  0  0  0  0  0  0
   -2.2415    1.3484   -1.5302 H   0  0  0  0  0  0  0  0  0  0  0  0
   -2.6118    2.7556    0.3534 H   0  0  0  0  0  0  0  0  0  0  0  0
   -1.6152    3.7072   -0.7827 H   0  0  0  0  0  0  0  0  0  0  0  0
   -0.8525    2.8996    0.6952 H   0  0  0  0  0  0  0  0  0  0  0  0
  1  2  1  0
  2  3  3  0
  3  4  1  0
  4  5  1  0
  5  6  1  0
  6  7  1  0
  7  8  1  0
  8  9  1  0
  6  4  1  0
  1 10  1  0
  1 11  1  0
  1 12  1  0
  4 13  1  0
  5 14  1  0
  5 15  1  0
  6 16  1  0
  8 17  1  0
  8 18  1  0
  9 19  1  0
  9 20  1  0
  9 21  1  0
M  END
