
     RDKit          3D

 21 21  0  0  0  0  0  0  0  0999 V2000
    3.9628   -0.3512   -0.6693 C   0  0  0  0  0  0  0  0  0  0  0  0
    2.6308    0.0497   -0.2127 C   0  0  0  0  0  0  0  0  0  0  0  0
    1.5159    0.3650    0.1771 C   0  0  0  0  0  0  0  0  0  0  0  0
    0.1778    0.7612    0.6263 C   0  0  0  0  0  0  0  0  0  0  0  0
   -0.7208   -0.4444    0.6852 C   0  0  0  0  0  0  0  0  0  0  0  0
   -0.8231   -1.0717   -0.6931 C   0  0  0  0  0  0  0  0  0  0  0  0
   -1.8605   -0.1752   -0.9556 O   0  0  0  0  0  0  0  0  0  0  0  0
   -2.1645   -0.2175    0.4001 C   0  0  0  0  0  0  0  0  0  0  0  0
   -2.7358    1.0529    0.9731 C   0  0  0  0  0  0  0  0  0  0  0  0
    3.8664   -0.7430   -1.7154 H   0  0  0  0  0  0  0  0  0  0  0  0
    4.6852    0.4642   -0.5766 H   0  0  0  0  0  0  0  0  0  0  0  0
    4.3587   -1.2226   -0.0762 H   0  0  0  0  0  0  0  0  0  0  0  0
    0.2294    1.2840    1.6214 H   0  0  0  0  0  0  0  0  0  0  0  0
   -0.2356    1.5172   -0.0738 H   0  0  0  0  0  0  0  0  0  0  0  0
   -0.4781   -1.1379    1.5005 H   0  0  0  0  0  0  0  0  0  0  0  0
   -1.1535   -2.1404   -0.6297 H   0  0  0  0  0  0  0  0  0  0  0  0
    0.0747   -0.9418   -1.3302 H   0  0  0  0  0  0  0  0  0  0  0  0
   -2.7666   -1.0989    0.6435 H   0  0  0  0  0  0  0  0  0  0  0  0
   -2.1906    1.9400    0.5501 H   0  0  0  0  0  0  0  0  0  0  0  0
   -2.5619    1.0194    2.0687 H   0  0  0  0  0  0  0  0  0  0  0  0
   -3.8110    1.0909    0.7849 H   0  0  0  0  0  0  0  0  0  0  0  0
  1  2  1  0
  2  3  3  0
  3  4  1  0
  4  5  1  0
  5  6  1  0
  6  7  1  0
  7  8  1  0
  8  9  1  0
  8  5  1  0
  1 10  1  0
  1 11  1  0
  1 12  1  0
  4 13  1  0
  4 14  1  0
  5 15  1  0
  6 16  1  0
  6 17  1  0
  8 18  1  0
  9 19  1  0
  9 20  1  0
  9 21  1  0
M  END
