
     RDKit          3D

 15 15  0  0  0  0  0  0  0  0999 V2000
    3.2271   -0.6320    0.5917 C   0  0  0  0  0  0  0  0  0  0  0  0
    1.8186   -0.4834    0.1988 C   0  0  0  0  0  0  0  0  0  0  0  0
    0.6622   -0.3674   -0.1380 C   0  0  0  0  0  0  0  0  0  0  0  0
   -0.7478   -0.2516   -0.5511 C   0  0  0  0  0  0  0  0  0  0  0  0
   -1.6709   -0.4709    0.5710 C   0  0  0  0  0  0  0  0  0  0  0  0
   -2.4369    0.5806    0.7507 C   0  0  0  0  0  0  0  0  0  0  0  0
   -2.0751    1.5721   -0.2408 C   0  0  0  0  0  0  0  0  0  0  0  0
   -2.5669    2.7155   -0.4105 O   0  0  0  0  0  0  0  0  0  0  0  0
   -1.0652    1.0378   -0.9966 O   0  0  0  0  0  0  0  0  0  0  0  0
    3.8832    0.0728    0.0341 H   0  0  0  0  0  0  0  0  0  0  0  0
    3.2847   -0.4358    1.6854 H   0  0  0  0  0  0  0  0  0  0  0  0
    3.5604   -1.6513    0.3474 H   0  0  0  0  0  0  0  0  0  0  0  0
   -0.8963   -1.0180   -1.3568 H   0  0  0  0  0  0  0  0  0  0  0  0
   -1.7500   -1.3706    1.2037 H   0  0  0  0  0  0  0  0  0  0  0  0
   -3.2271    0.7022    1.5228 H   0  0  0  0  0  0  0  0  0  0  0  0
  1  2  1  0
  2  3  3  0
  3  4  1  0
  4  5  1  0
  5  6  2  0
  6  7  1  0
  7  8  2  0
  7  9  1  0
  9  4  1  0
  1 10  1  0
  1 11  1  0
  1 12  1  0
  4 13  1  0
  5 14  1  0
  6 15  1  0
M  END
