
     RDKit          3D

 19 19  0  0  0  0  0  0  0  0999 V2000
    3.7488   -0.6412   -0.7050 C   0  0  0  0  0  0  0  0  0  0  0  0
    2.3086   -0.4937   -0.5981 C   0  0  0  0  0  0  0  0  0  0  0  0
    1.1161   -0.3523   -0.5029 C   0  0  0  0  0  0  0  0  0  0  0  0
   -0.3308   -0.1788   -0.3888 C   0  0  0  0  0  0  0  0  0  0  0  0
   -1.0088    0.1137   -1.5777 O   0  0  0  0  0  0  0  0  0  0  0  0
   -0.7761    0.5161    0.8529 C   0  0  0  0  0  0  0  0  0  0  0  0
   -1.8651    1.5439    0.6605 C   0  0  0  0  0  0  0  0  0  0  0  0
   -1.0946   -0.9462    0.6120 C   0  0  0  0  0  0  0  0  0  0  0  0
   -2.4430   -1.1896    0.3701 O   0  0  0  0  0  0  0  0  0  0  0  0
    4.2845    0.3035   -0.5800 H   0  0  0  0  0  0  0  0  0  0  0  0
    4.0566   -1.0514   -1.7008 H   0  0  0  0  0  0  0  0  0  0  0  0
    4.0790   -1.4056    0.0358 H   0  0  0  0  0  0  0  0  0  0  0  0
   -1.9457    0.3447   -1.2868 H   0  0  0  0  0  0  0  0  0  0  0  0
   -0.0617    0.7046    1.6800 H   0  0  0  0  0  0  0  0  0  0  0  0
   -2.8413    1.0162    0.6928 H   0  0  0  0  0  0  0  0  0  0  0  0
   -1.8447    2.2583    1.5200 H   0  0  0  0  0  0  0  0  0  0  0  0
   -1.7386    2.1105   -0.2871 H   0  0  0  0  0  0  0  0  0  0  0  0
   -0.6249   -1.6874    1.2873 H   0  0  0  0  0  0  0  0  0  0  0  0
   -3.0182   -0.9654    1.1444 H   0  0  0  0  0  0  0  0  0  0  0  0
  1  2  1  0
  2  3  3  0
  3  4  1  0
  4  5  1  0
  4  6  1  0
  6  7  1  0
  6  8  1  0
  8  9  1  0
  8  4  1  0
  1 10  1  0
  1 11  1  0
  1 12  1  0
  5 13  1  0
  6 14  1  0
  7 15  1  0
  7 16  1  0
  7 17  1  0
  8 18  1  0
  9 19  1  0
M  END
