
     RDKit          3D

 23 22  0  0  0  0  0  0  0  0999 V2000
    3.4170    0.8745    1.2624 C   0  0  0  0  0  0  0  0  0  0  0  0
    2.1265    0.9111    0.5313 C   0  0  0  0  0  0  0  0  0  0  0  0
    1.0902    0.9561   -0.0721 C   0  0  0  0  0  0  0  0  0  0  0  0
   -0.1702    1.0357   -0.8128 C   0  0  0  0  0  0  0  0  0  0  0  0
   -0.8170   -0.3089   -0.7801 C   0  0  0  0  0  0  0  0  0  0  0  0
    0.0339   -1.3922   -1.4055 C   0  0  0  0  0  0  0  0  0  0  0  0
   -1.9877   -0.2300   -1.5670 O   0  0  0  0  0  0  0  0  0  0  0  0
   -1.2322   -0.7627    0.5795 C   0  0  0  0  0  0  0  0  0  0  0  0
   -2.2311    0.1612    1.2364 C   0  0  0  0  0  0  0  0  0  0  0  0
    4.0155    1.7884    1.0678 H   0  0  0  0  0  0  0  0  0  0  0  0
    3.1858    0.8663    2.3452 H   0  0  0  0  0  0  0  0  0  0  0  0
    4.0288    0.0046    0.9399 H   0  0  0  0  0  0  0  0  0  0  0  0
    0.0030    1.2974   -1.8831 H   0  0  0  0  0  0  0  0  0  0  0  0
   -0.8489    1.7637   -0.3604 H   0  0  0  0  0  0  0  0  0  0  0  0
    0.3156   -1.1752   -2.4464 H   0  0  0  0  0  0  0  0  0  0  0  0
   -0.6045   -2.3211   -1.3765 H   0  0  0  0  0  0  0  0  0  0  0  0
    0.8987   -1.5718   -0.7356 H   0  0  0  0  0  0  0  0  0  0  0  0
   -1.6946   -0.3360   -2.5269 H   0  0  0  0  0  0  0  0  0  0  0  0
   -0.3455   -0.9631    1.2348 H   0  0  0  0  0  0  0  0  0  0  0  0
   -1.7390   -1.7456    0.4671 H   0  0  0  0  0  0  0  0  0  0  0  0
   -1.7752    0.4882    2.2002 H   0  0  0  0  0  0  0  0  0  0  0  0
   -3.1739   -0.3584    1.5167 H   0  0  0  0  0  0  0  0  0  0  0  0
   -2.4953    1.0177    0.5852 H   0  0  0  0  0  0  0  0  0  0  0  0
  1  2  1  0
  2  3  3  0
  3  4  1  0
  4  5  1  0
  5  6  1  0
  5  7  1  0
  5  8  1  0
  8  9  1  0
  1 10  1  0
  1 11  1  0
  1 12  1  0
  4 13  1  0
  4 14  1  0
  6 15  1  0
  6 16  1  0
  6 17  1  0
  7 18  1  0
  8 19  1  0
  8 20  1  0
  9 21  1  0
  9 22  1  0
  9 23  1  0
M  END
