
     RDKit          3D

 19 19  0  0  0  0  0  0  0  0999 V2000
    3.5906    0.9097    0.2371 C   0  0  0  0  0  0  0  0  0  0  0  0
    2.2466    0.3466    0.1804 C   0  0  0  0  0  0  0  0  0  0  0  0
    1.1270   -0.1126    0.1327 C   0  0  0  0  0  0  0  0  0  0  0  0
   -0.2123   -0.6523    0.0907 C   0  0  0  0  0  0  0  0  0  0  0  0
   -1.2587    0.1020   -0.0780 C   0  0  0  0  0  0  0  0  0  0  0  0
   -1.3645    1.5767   -0.2573 C   0  0  0  0  0  0  0  0  0  0  0  0
   -2.4512   -0.7825   -0.0614 C   0  0  0  0  0  0  0  0  0  0  0  0
   -1.9828   -1.9605    0.5419 O   0  0  0  0  0  0  0  0  0  0  0  0
   -0.6508   -2.0514    0.2128 C   0  0  0  0  0  0  0  0  0  0  0  0
    3.6224    1.8983    0.7199 H   0  0  0  0  0  0  0  0  0  0  0  0
    4.2732    0.2115    0.7480 H   0  0  0  0  0  0  0  0  0  0  0  0
    3.9596    0.9971   -0.8246 H   0  0  0  0  0  0  0  0  0  0  0  0
   -0.3547    2.0489   -0.3257 H   0  0  0  0  0  0  0  0  0  0  0  0
   -1.9691    1.7530   -1.1709 H   0  0  0  0  0  0  0  0  0  0  0  0
   -1.9443    2.0429    0.5812 H   0  0  0  0  0  0  0  0  0  0  0  0
   -2.7987   -0.9269   -1.0817 H   0  0  0  0  0  0  0  0  0  0  0  0
   -3.2186   -0.2751    0.5673 H   0  0  0  0  0  0  0  0  0  0  0  0
   -0.0349   -2.5585    0.9805 H   0  0  0  0  0  0  0  0  0  0  0  0
   -0.5789   -2.5668   -0.7771 H   0  0  0  0  0  0  0  0  0  0  0  0
  1  2  1  0
  2  3  3  0
  3  4  1  0
  4  5  2  0
  5  6  1  0
  5  7  1  0
  7  8  1  0
  8  9  1  0
  9  4  1  0
  1 10  1  0
  1 11  1  0
  1 12  1  0
  6 13  1  0
  6 14  1  0
  6 15  1  0
  7 16  1  0
  7 17  1  0
  9 18  1  0
  9 19  1  0
M  END
