
     RDKit          3D

 19 19  0  0  0  0  0  0  0  0999 V2000
    2.5587   -0.1728   -2.2960 C   0  0  0  0  0  0  0  0  0  0  0  0
    1.4588    0.2107   -1.3846 C   0  0  0  0  0  0  0  0  0  0  0  0
    0.5790    0.5332   -0.6356 C   0  0  0  0  0  0  0  0  0  0  0  0
   -0.5054    0.9066    0.2960 C   0  0  0  0  0  0  0  0  0  0  0  0
   -0.0785    0.5523    1.6807 C   0  0  0  0  0  0  0  0  0  0  0  0
   -0.7825   -0.7243    1.9557 C   0  0  0  0  0  0  0  0  0  0  0  0
   -1.7074   -0.9587    1.0396 C   0  0  0  0  0  0  0  0  0  0  0  0
   -1.7381    0.1297    0.0411 C   0  0  0  0  0  0  0  0  0  0  0  0
   -1.7647   -0.3827   -1.2545 O   0  0  0  0  0  0  0  0  0  0  0  0
    3.2427   -0.9108   -1.8760 H   0  0  0  0  0  0  0  0  0  0  0  0
    3.1285    0.7293   -2.5816 H   0  0  0  0  0  0  0  0  0  0  0  0
    2.0592   -0.6353   -3.1784 H   0  0  0  0  0  0  0  0  0  0  0  0
   -0.6901    1.9995    0.2767 H   0  0  0  0  0  0  0  0  0  0  0  0
    1.0418    0.4135    1.7534 H   0  0  0  0  0  0  0  0  0  0  0  0
   -0.3400    1.3300    2.4461 H   0  0  0  0  0  0  0  0  0  0  0  0
   -0.5957   -1.4116    2.7936 H   0  0  0  0  0  0  0  0  0  0  0  0
   -2.3573   -1.8358    1.0196 H   0  0  0  0  0  0  0  0  0  0  0  0
   -2.6301    0.7838    0.1457 H   0  0  0  0  0  0  0  0  0  0  0  0
   -0.8791   -0.5567   -1.6124 H   0  0  0  0  0  0  0  0  0  0  0  0
  1  2  1  0
  2  3  3  0
  3  4  1  0
  4  5  1  0
  5  6  1  0
  6  7  2  0
  7  8  1  0
  8  9  1  0
  8  4  1  0
  1 10  1  0
  1 11  1  0
  1 12  1  0
  4 13  1  0
  5 14  1  0
  5 15  1  0
  6 16  1  0
  7 17  1  0
  8 18  1  0
  9 19  1  0
M  END
