
     RDKit          3D

 19 20  0  0  0  0  0  0  0  0999 V2000
    3.3467   -0.1063    0.4762 C   0  0  0  0  0  0  0  0  0  0  0  0
    2.0562    0.2773   -0.1168 C   0  0  0  0  0  0  0  0  0  0  0  0
    0.9974    0.5725   -0.6105 C   0  0  0  0  0  0  0  0  0  0  0  0
   -0.2862    0.9214   -1.1820 C   0  0  0  0  0  0  0  0  0  0  0  0
   -1.5183    1.0133   -0.3790 C   0  0  0  0  0  0  0  0  0  0  0  0
   -1.6815    0.3023    0.9228 C   0  0  0  0  0  0  0  0  0  0  0  0
   -0.9490   -0.8747    0.8594 O   0  0  0  0  0  0  0  0  0  0  0  0
   -1.0832   -1.3647   -0.4387 C   0  0  0  0  0  0  0  0  0  0  0  0
   -1.2976   -0.1849   -1.3411 C   0  0  0  0  0  0  0  0  0  0  0  0
    3.9812   -0.6741   -0.2399 H   0  0  0  0  0  0  0  0  0  0  0  0
    3.8513    0.8284    0.8107 H   0  0  0  0  0  0  0  0  0  0  0  0
    3.1415   -0.7949    1.3327 H   0  0  0  0  0  0  0  0  0  0  0  0
   -0.2171    1.6418   -2.0302 H   0  0  0  0  0  0  0  0  0  0  0  0
   -2.3198    1.7126   -0.6719 H   0  0  0  0  0  0  0  0  0  0  0  0
   -1.3566    0.8777    1.8048 H   0  0  0  0  0  0  0  0  0  0  0  0
   -2.7746    0.0344    1.0174 H   0  0  0  0  0  0  0  0  0  0  0  0
   -0.0775   -1.8087   -0.6937 H   0  0  0  0  0  0  0  0  0  0  0  0
   -1.8659   -2.1346   -0.5223 H   0  0  0  0  0  0  0  0  0  0  0  0
   -1.9470   -0.2389   -2.2150 H   0  0  0  0  0  0  0  0  0  0  0  0
  1  2  1  0
  2  3  3  0
  3  4  1  0
  4  5  1  0
  5  6  1  0
  6  7  1  0
  7  8  1  0
  8  9  1  0
  9  4  1  0
  9  5  1  0
  1 10  1  0
  1 11  1  0
  1 12  1  0
  4 13  1  0
  5 14  1  0
  6 15  1  0
  6 16  1  0
  8 17  1  0
  8 18  1  0
  9 19  1  0
M  END
