
     RDKit          3D

 19 19  0  0  0  0  0  0  0  0999 V2000
   -4.2261    0.8887    0.7009 C   0  0  0  0  0  0  0  0  0  0  0  0
   -2.8791    0.4991    0.2738 C   0  0  0  0  0  0  0  0  0  0  0  0
   -1.7619    0.1831   -0.1008 C   0  0  0  0  0  0  0  0  0  0  0  0
   -0.4090   -0.1743   -0.5440 C   0  0  0  0  0  0  0  0  0  0  0  0
    0.6291    0.7731   -0.0553 O   0  0  0  0  0  0  0  0  0  0  0  0
    0.5561   -0.6417    0.3767 C   0  0  0  0  0  0  0  0  0  0  0  0
    1.7652   -1.3825   -0.1159 C   0  0  0  0  0  0  0  0  0  0  0  0
    2.9241   -0.8924    0.4114 O   0  0  0  0  0  0  0  0  0  0  0  0
    3.2604    0.4019    0.1847 C   0  0  0  0  0  0  0  0  0  0  0  0
   -4.2133    1.7160    1.4315 H   0  0  0  0  0  0  0  0  0  0  0  0
   -4.7021    0.0230    1.2282 H   0  0  0  0  0  0  0  0  0  0  0  0
   -4.8029    1.2255   -0.1765 H   0  0  0  0  0  0  0  0  0  0  0  0
   -0.2978   -0.3868   -1.6317 H   0  0  0  0  0  0  0  0  0  0  0  0
    0.2992   -0.7403    1.4500 H   0  0  0  0  0  0  0  0  0  0  0  0
    1.8123   -1.3029   -1.2466 H   0  0  0  0  0  0  0  0  0  0  0  0
    1.7191   -2.4676    0.1617 H   0  0  0  0  0  0  0  0  0  0  0  0
    3.3241    0.6141   -0.9074 H   0  0  0  0  0  0  0  0  0  0  0  0
    4.3273    0.5196    0.5885 H   0  0  0  0  0  0  0  0  0  0  0  0
    2.6753    1.1442    0.7282 H   0  0  0  0  0  0  0  0  0  0  0  0
  1  2  1  0
  2  3  3  0
  3  4  1  0
  4  5  1  0
  5  6  1  0
  6  7  1  0
  7  8  1  0
  8  9  1  0
  6  4  1  0
  1 10  1  0
  1 11  1  0
  1 12  1  0
  4 13  1  0
  6 14  1  0
  7 15  1  0
  7 16  1  0
  9 17  1  0
  9 18  1  0
  9 19  1  0
M  END
