
     RDKit          3D

 21 21  0  0  0  0  0  0  0  0999 V2000
   -3.4117    0.2238    1.4951 C   0  0  0  0  0  0  0  0  0  0  0  0
   -1.9978    0.0371    1.1912 C   0  0  0  0  0  0  0  0  0  0  0  0
   -0.8018   -0.1040    0.9470 C   0  0  0  0  0  0  0  0  0  0  0  0
    0.6336   -0.2727    0.6633 C   0  0  0  0  0  0  0  0  0  0  0  0
    1.3913    0.2484    1.8426 C   0  0  0  0  0  0  0  0  0  0  0  0
    0.9384    0.4162   -0.6182 C   0  0  0  0  0  0  0  0  0  0  0  0
    2.2288    0.4233   -1.1332 O   0  0  0  0  0  0  0  0  0  0  0  0
    1.3873   -0.4860   -1.7465 C   0  0  0  0  0  0  0  0  0  0  0  0
    0.9093   -0.2226   -3.1541 C   0  0  0  0  0  0  0  0  0  0  0  0
   -3.9812    0.5943    0.6169 H   0  0  0  0  0  0  0  0  0  0  0  0
   -3.4624    0.9266    2.3501 H   0  0  0  0  0  0  0  0  0  0  0  0
   -3.9140   -0.7247    1.7893 H   0  0  0  0  0  0  0  0  0  0  0  0
    0.8850   -1.3603    0.5538 H   0  0  0  0  0  0  0  0  0  0  0  0
    0.8140    0.9865    2.4307 H   0  0  0  0  0  0  0  0  0  0  0  0
    2.4003    0.6377    1.5355 H   0  0  0  0  0  0  0  0  0  0  0  0
    1.6145   -0.6041    2.5170 H   0  0  0  0  0  0  0  0  0  0  0  0
    0.2140    1.1942   -0.9535 H   0  0  0  0  0  0  0  0  0  0  0  0
    1.6503   -1.5547   -1.4906 H   0  0  0  0  0  0  0  0  0  0  0  0
    1.3744    0.7497   -3.4608 H   0  0  0  0  0  0  0  0  0  0  0  0
   -0.1771   -0.1366   -3.2532 H   0  0  0  0  0  0  0  0  0  0  0  0
    1.3048   -0.9722   -3.8624 H   0  0  0  0  0  0  0  0  0  0  0  0
  1  2  1  0
  2  3  3  0
  3  4  1  0
  4  5  1  0
  4  6  1  0
  6  7  1  0
  7  8  1  0
  8  9  1  0
  8  6  1  0
  1 10  1  0
  1 11  1  0
  1 12  1  0
  4 13  1  0
  5 14  1  0
  5 15  1  0
  5 16  1  0
  6 17  1  0
  8 18  1  0
  9 19  1  0
  9 20  1  0
  9 21  1  0
M  END
