
     RDKit          3D

 23 22  0  0  0  0  0  0  0  0999 V2000
    4.6729   -0.2734   -0.7853 C   0  0  0  0  0  0  0  0  0  0  0  0
    3.2847   -0.4720   -0.3678 C   0  0  0  0  0  0  0  0  0  0  0  0
    2.1260   -0.6518   -0.0355 C   0  0  0  0  0  0  0  0  0  0  0  0
    0.7419   -0.8923    0.3613 C   0  0  0  0  0  0  0  0  0  0  0  0
   -0.0979    0.3067   -0.0241 C   0  0  0  0  0  0  0  0  0  0  0  0
   -1.5477    0.1134    0.3643 C   0  0  0  0  0  0  0  0  0  0  0  0
   -2.1077   -1.1160   -0.3452 C   0  0  0  0  0  0  0  0  0  0  0  0
   -2.2731    1.2047   -0.0653 O   0  0  0  0  0  0  0  0  0  0  0  0
   -2.9989    1.8242    0.9376 C   0  0  0  0  0  0  0  0  0  0  0  0
    4.8957    0.8306   -0.7424 H   0  0  0  0  0  0  0  0  0  0  0  0
    4.7900   -0.6399   -1.8156 H   0  0  0  0  0  0  0  0  0  0  0  0
    5.3874   -0.7583   -0.0826 H   0  0  0  0  0  0  0  0  0  0  0  0
    0.3436   -1.7777   -0.1538 H   0  0  0  0  0  0  0  0  0  0  0  0
    0.6312   -1.0415    1.4546 H   0  0  0  0  0  0  0  0  0  0  0  0
   -0.0841    0.4668   -1.1252 H   0  0  0  0  0  0  0  0  0  0  0  0
    0.2664    1.2136    0.5257 H   0  0  0  0  0  0  0  0  0  0  0  0
   -1.6691   -0.0852    1.4488 H   0  0  0  0  0  0  0  0  0  0  0  0
   -3.2142   -0.9886   -0.4957 H   0  0  0  0  0  0  0  0  0  0  0  0
   -1.9829   -2.0343    0.2603 H   0  0  0  0  0  0  0  0  0  0  0  0
   -1.6470   -1.2061   -1.3437 H   0  0  0  0  0  0  0  0  0  0  0  0
   -3.5338    2.6792    0.4684 H   0  0  0  0  0  0  0  0  0  0  0  0
   -3.6752    1.0848    1.3764 H   0  0  0  0  0  0  0  0  0  0  0  0
   -2.3082    2.2133    1.7138 H   0  0  0  0  0  0  0  0  0  0  0  0
  1  2  1  0
  2  3  3  0
  3  4  1  0
  4  5  1  0
  5  6  1  0
  6  7  1  0
  6  8  1  0
  8  9  1  0
  1 10  1  0
  1 11  1  0
  1 12  1  0
  4 13  1  0
  4 14  1  0
  5 15  1  0
  5 16  1  0
  6 17  1  0
  7 18  1  0
  7 19  1  0
  7 20  1  0
  9 21  1  0
  9 22  1  0
  9 23  1  0
M  END
