
     RDKit          3D

 19 18  0  0  0  0  0  0  0  0999 V2000
   -4.5594    0.3152   -0.1532 C   0  0  0  0  0  0  0  0  0  0  0  0
   -3.1603    0.1230   -0.4610 C   0  0  0  0  0  0  0  0  0  0  0  0
   -1.9632   -0.0546   -0.7425 C   0  0  0  0  0  0  0  0  0  0  0  0
   -0.5982   -0.2508   -1.0433 C   0  0  0  0  0  0  0  0  0  0  0  0
    0.5917   -0.4325   -1.2868 C   0  0  0  0  0  0  0  0  0  0  0  0
    2.0056   -0.6607   -1.5537 C   0  0  0  0  0  0  0  0  0  0  0  0
    2.7260   -1.0201   -0.4714 O   0  0  0  0  0  0  0  0  0  0  0  0
    2.8477   -0.0926    0.5108 C   0  0  0  0  0  0  0  0  0  0  0  0
    1.5639    0.3318    1.1710 C   0  0  0  0  0  0  0  0  0  0  0  0
   -4.8511   -0.3564    0.6610 H   0  0  0  0  0  0  0  0  0  0  0  0
   -4.7726    1.3898    0.1206 H   0  0  0  0  0  0  0  0  0  0  0  0
   -5.1460    0.1139   -1.0789 H   0  0  0  0  0  0  0  0  0  0  0  0
    2.1245   -1.4004   -2.4106 H   0  0  0  0  0  0  0  0  0  0  0  0
    2.4832    0.2965   -1.9596 H   0  0  0  0  0  0  0  0  0  0  0  0
    3.3719    0.8407    0.1548 H   0  0  0  0  0  0  0  0  0  0  0  0
    3.5161   -0.4803    1.3345 H   0  0  0  0  0  0  0  0  0  0  0  0
    0.8671   -0.5110    1.3384 H   0  0  0  0  0  0  0  0  0  0  0  0
    1.8161    0.6632    2.2293 H   0  0  0  0  0  0  0  0  0  0  0  0
    1.1370    1.1854    0.6258 H   0  0  0  0  0  0  0  0  0  0  0  0
  1  2  1  0
  2  3  3  0
  3  4  1  0
  4  5  3  0
  5  6  1  0
  6  7  1  0
  7  8  1  0
  8  9  1  0
  1 10  1  0
  1 11  1  0
  1 12  1  0
  6 13  1  0
  6 14  1  0
  8 15  1  0
  8 16  1  0
  9 17  1  0
  9 18  1  0
  9 19  1  0
M  END
