
     RDKit          3D

 19 20  0  0  0  0  0  0  0  0999 V2000
    3.7793    0.7586   -0.3774 C   0  0  0  0  0  0  0  0  0  0  0  0
    2.3710    0.3207   -0.4776 C   0  0  0  0  0  0  0  0  0  0  0  0
    1.2140   -0.0171   -0.5569 C   0  0  0  0  0  0  0  0  0  0  0  0
   -0.2067   -0.4054   -0.6503 C   0  0  0  0  0  0  0  0  0  0  0  0
   -0.9957    0.6773   -1.0306 O   0  0  0  0  0  0  0  0  0  0  0  0
   -2.2806    0.1840   -0.8170 C   0  0  0  0  0  0  0  0  0  0  0  0
   -2.2112   -0.4790    0.5402 C   0  0  0  0  0  0  0  0  0  0  0  0
   -1.4056    0.1230    1.6016 C   0  0  0  0  0  0  0  0  0  0  0  0
   -0.6973   -0.8065    0.6968 C   0  0  0  0  0  0  0  0  0  0  0  0
    4.3710    0.0898    0.2790 H   0  0  0  0  0  0  0  0  0  0  0  0
    3.8059    1.7672    0.0706 H   0  0  0  0  0  0  0  0  0  0  0  0
    4.2535    0.7487   -1.3999 H   0  0  0  0  0  0  0  0  0  0  0  0
   -0.3320   -1.2704   -1.3387 H   0  0  0  0  0  0  0  0  0  0  0  0
   -3.0101    1.0332   -0.8337 H   0  0  0  0  0  0  0  0  0  0  0  0
   -2.5827   -0.5439   -1.6144 H   0  0  0  0  0  0  0  0  0  0  0  0
   -2.9129   -1.3145    0.7038 H   0  0  0  0  0  0  0  0  0  0  0  0
   -1.5748   -0.2545    2.6308 H   0  0  0  0  0  0  0  0  0  0  0  0
   -1.1426    1.1965    1.5208 H   0  0  0  0  0  0  0  0  0  0  0  0
   -0.4425   -1.8076    1.0528 H   0  0  0  0  0  0  0  0  0  0  0  0
  1  2  1  0
  2  3  3  0
  3  4  1  0
  4  5  1  0
  5  6  1  0
  6  7  1  0
  7  8  1  0
  8  9  1  0
  9  4  1  0
  9  7  1  0
  1 10  1  0
  1 11  1  0
  1 12  1  0
  4 13  1  0
  6 14  1  0
  6 15  1  0
  7 16  1  0
  8 17  1  0
  8 18  1  0
  9 19  1  0
M  END
