
     RDKit          3D

 23 23  0  0  0  0  0  0  0  0999 V2000
    3.0876    2.2827   -0.6691 C   0  0  0  0  0  0  0  0  0  0  0  0
    1.9224    1.6544   -0.5517 C   0  0  0  0  0  0  0  0  0  0  0  0
    0.7306    0.9949   -0.4256 C   0  0  0  0  0  0  0  0  0  0  0  0
   -0.4578    0.3236   -0.2782 C   0  0  0  0  0  0  0  0  0  0  0  0
   -0.7867   -0.5520   -1.4970 C   0  0  0  0  0  0  0  0  0  0  0  0
   -2.0358   -1.2828   -0.9542 C   0  0  0  0  0  0  0  0  0  0  0  0
   -1.8185   -1.2686    0.5665 C   0  0  0  0  0  0  0  0  0  0  0  0
   -0.2984   -0.9172    0.6976 C   0  0  0  0  0  0  0  0  0  0  0  0
    0.0341   -0.3843    2.0416 C   0  0  0  0  0  0  0  0  0  0  0  0
    3.4209    2.8154    0.3105 H   0  0  0  0  0  0  0  0  0  0  0  0
    3.1493    3.0389   -1.4985 H   0  0  0  0  0  0  0  0  0  0  0  0
    4.0076    1.5974   -0.8463 H   0  0  0  0  0  0  0  0  0  0  0  0
   -1.3118    0.8547    0.0612 H   0  0  0  0  0  0  0  0  0  0  0  0
    0.0737   -1.3170   -1.4969 H   0  0  0  0  0  0  0  0  0  0  0  0
   -0.9007   -0.0890   -2.4384 H   0  0  0  0  0  0  0  0  0  0  0  0
   -2.1312   -2.2904   -1.3286 H   0  0  0  0  0  0  0  0  0  0  0  0
   -2.9120   -0.6301   -1.1956 H   0  0  0  0  0  0  0  0  0  0  0  0
   -2.3065   -0.2790    0.9022 H   0  0  0  0  0  0  0  0  0  0  0  0
   -2.1395   -2.1009    1.1257 H   0  0  0  0  0  0  0  0  0  0  0  0
    0.2702   -1.6908    0.2824 H   0  0  0  0  0  0  0  0  0  0  0  0
   -0.3518    0.6585    2.2117 H   0  0  0  0  0  0  0  0  0  0  0  0
    1.1443   -0.3859    2.1578 H   0  0  0  0  0  0  0  0  0  0  0  0
   -0.3899   -1.0325    2.8228 H   0  0  0  0  0  0  0  0  0  0  0  0
  1  2  1  0
  2  3  3  0
  3  4  1  0
  4  5  1  0
  5  6  1  0
  6  7  1  0
  7  8  1  0
  8  9  1  0
  8  4  1  0
  1 10  1  0
  1 11  1  0
  1 12  1  0
  4 13  1  0
  5 14  1  0
  5 15  1  0
  6 16  1  0
  6 17  1  0
  7 18  1  0
  7 19  1  0
  8 20  1  0
  9 21  1  0
  9 22  1  0
  9 23  1  0
M  END
