
     RDKit          3D

 19 19  0  0  0  0  0  0  0  0999 V2000
    3.4886    0.6106   -2.0220 C   0  0  0  0  0  0  0  0  0  0  0  0
    2.2207    0.3900   -1.3271 C   0  0  0  0  0  0  0  0  0  0  0  0
    1.1677    0.2090   -0.7264 C   0  0  0  0  0  0  0  0  0  0  0  0
   -0.0735    0.0190   -0.0314 C   0  0  0  0  0  0  0  0  0  0  0  0
   -0.7308    1.0805    0.4181 C   0  0  0  0  0  0  0  0  0  0  0  0
   -2.0248    0.9319    1.1462 C   0  0  0  0  0  0  0  0  0  0  0  0
   -2.0168   -0.3396    1.7426 O   0  0  0  0  0  0  0  0  0  0  0  0
   -2.0136   -1.2863    0.7194 C   0  0  0  0  0  0  0  0  0  0  0  0
   -0.6118   -1.3657    0.1787 C   0  0  0  0  0  0  0  0  0  0  0  0
    4.0470    1.4382   -1.5262 H   0  0  0  0  0  0  0  0  0  0  0  0
    4.0839   -0.3268   -2.0500 H   0  0  0  0  0  0  0  0  0  0  0  0
    3.3159    0.8771   -3.1042 H   0  0  0  0  0  0  0  0  0  0  0  0
   -0.2963    2.0694    0.2395 H   0  0  0  0  0  0  0  0  0  0  0  0
   -2.0895    1.6801    1.9801 H   0  0  0  0  0  0  0  0  0  0  0  0
   -2.8956    1.0071    0.4849 H   0  0  0  0  0  0  0  0  0  0  0  0
   -2.7053   -0.9993   -0.0961 H   0  0  0  0  0  0  0  0  0  0  0  0
   -2.3043   -2.2889    1.0535 H   0  0  0  0  0  0  0  0  0  0  0  0
   -0.6440   -1.8290   -0.8262 H   0  0  0  0  0  0  0  0  0  0  0  0
    0.0824   -1.8773    0.8486 H   0  0  0  0  0  0  0  0  0  0  0  0
  1  2  1  0
  2  3  3  0
  3  4  1  0
  4  5  2  0
  5  6  1  0
  6  7  1  0
  7  8  1  0
  8  9  1  0
  9  4  1  0
  1 10  1  0
  1 11  1  0
  1 12  1  0
  5 13  1  0
  6 14  1  0
  6 15  1  0
  8 16  1  0
  8 17  1  0
  9 18  1  0
  9 19  1  0
M  END
