
     RDKit          3D

 25 24  0  0  0  0  0  0  0  0999 V2000
    3.2407   -1.8668   -1.4723 C   0  0  0  0  0  0  0  0  0  0  0  0
    2.2931   -1.0267   -0.7383 C   0  0  0  0  0  0  0  0  0  0  0  0
    1.5096   -0.3308   -0.1062 C   0  0  0  0  0  0  0  0  0  0  0  0
    0.5855    0.5215    0.6461 C   0  0  0  0  0  0  0  0  0  0  0  0
    0.3711    1.8484   -0.0050 C   0  0  0  0  0  0  0  0  0  0  0  0
   -0.5949    2.6380    0.8557 C   0  0  0  0  0  0  0  0  0  0  0  0
   -0.6910   -0.2415    0.8922 C   0  0  0  0  0  0  0  0  0  0  0  0
   -1.3796   -0.6651   -0.3746 C   0  0  0  0  0  0  0  0  0  0  0  0
   -2.6370   -1.4150    0.0386 C   0  0  0  0  0  0  0  0  0  0  0  0
    3.9725   -1.2323   -2.0450 H   0  0  0  0  0  0  0  0  0  0  0  0
    2.6742   -2.4790   -2.1730 H   0  0  0  0  0  0  0  0  0  0  0  0
    3.8825   -2.4633   -0.7725 H   0  0  0  0  0  0  0  0  0  0  0  0
    1.0196    0.7243    1.6572 H   0  0  0  0  0  0  0  0  0  0  0  0
   -0.0007    1.7872   -1.0432 H   0  0  0  0  0  0  0  0  0  0  0  0
    1.3313    2.3943    0.0063 H   0  0  0  0  0  0  0  0  0  0  0  0
   -0.3020    3.7145    0.8260 H   0  0  0  0  0  0  0  0  0  0  0  0
   -1.6244    2.5126    0.4531 H   0  0  0  0  0  0  0  0  0  0  0  0
   -0.5544    2.3212    1.8982 H   0  0  0  0  0  0  0  0  0  0  0  0
   -1.4089    0.3662    1.4742 H   0  0  0  0  0  0  0  0  0  0  0  0
   -0.4388   -1.1532    1.4712 H   0  0  0  0  0  0  0  0  0  0  0  0
   -1.6981    0.2246   -0.9675 H   0  0  0  0  0  0  0  0  0  0  0  0
   -0.7771   -1.3048   -1.0228 H   0  0  0  0  0  0  0  0  0  0  0  0
   -2.3254   -2.4659    0.2763 H   0  0  0  0  0  0  0  0  0  0  0  0
   -3.4010   -1.3964   -0.7659 H   0  0  0  0  0  0  0  0  0  0  0  0
   -3.0468   -1.0120    0.9912 H   0  0  0  0  0  0  0  0  0  0  0  0
  1  2  1  0
  2  3  3  0
  3  4  1  0
  4  5  1  0
  5  6  1  0
  4  7  1  0
  7  8  1  0
  8  9  1  0
  1 10  1  0
  1 11  1  0
  1 12  1  0
  4 13  1  0
  5 14  1  0
  5 15  1  0
  6 16  1  0
  6 17  1  0
  6 18  1  0
  7 19  1  0
  7 20  1  0
  8 21  1  0
  8 22  1  0
  9 23  1  0
  9 24  1  0
  9 25  1  0
M  END
