
     RDKit          3D

 23 22  0  0  0  0  0  0  0  0999 V2000
    3.1477    0.0354   -2.6167 C   0  0  0  0  0  0  0  0  0  0  0  0
    2.3447   -0.1543   -1.3728 C   0  0  0  0  0  0  0  0  0  0  0  0
    1.5685   -0.3239   -0.2019 C   0  0  0  0  0  0  0  0  0  0  0  0
    0.8847   -0.4758    0.7929 C   0  0  0  0  0  0  0  0  0  0  0  0
    0.6673   -1.8574    1.2456 O   0  0  0  0  0  0  0  0  0  0  0  0
   -0.5445    0.0614    0.4648 C   0  0  0  0  0  0  0  0  0  0  0  0
   -1.3151   -0.8787   -0.3811 C   0  0  0  0  0  0  0  0  0  0  0  0
   -1.2188    0.7297    1.5637 C   0  0  0  0  0  0  0  0  0  0  0  0
   -2.5503    1.3459    1.0861 C   0  0  0  0  0  0  0  0  0  0  0  0
    4.1496   -0.5351   -2.2922 H   0  0  0  0  0  0  0  0  0  0  0  0
    3.4446    1.0772   -2.6847 H   0  0  0  0  0  0  0  0  0  0  0  0
    2.6501   -0.4437   -3.3806 H   0  0  0  0  0  0  0  0  0  0  0  0
    1.2215   -0.0036    1.8088 H   0  0  0  0  0  0  0  0  0  0  0  0
    1.6277   -2.1155    1.5491 H   0  0  0  0  0  0  0  0  0  0  0  0
   -0.3536    0.9196   -0.3916 H   0  0  0  0  0  0  0  0  0  0  0  0
   -1.8222   -0.3209   -1.1805 H   0  0  0  0  0  0  0  0  0  0  0  0
   -2.2835   -1.0799    0.3468 H   0  0  0  0  0  0  0  0  0  0  0  0
   -0.8720   -1.8134   -0.6453 H   0  0  0  0  0  0  0  0  0  0  0  0
   -0.6073    1.4092    2.1388 H   0  0  0  0  0  0  0  0  0  0  0  0
   -1.5696   -0.0655    2.3371 H   0  0  0  0  0  0  0  0  0  0  0  0
   -2.9811    0.8265    0.2299 H   0  0  0  0  0  0  0  0  0  0  0  0
   -2.3237    2.3715    0.8270 H   0  0  0  0  0  0  0  0  0  0  0  0
   -3.2648    1.2913    1.9680 H   0  0  0  0  0  0  0  0  0  0  0  0
  1  2  1  0
  2  3  3  0
  3  4  1  0
  4  5  1  0
  4  6  1  0
  6  7  1  0
  6  8  1  0
  8  9  1  0
  1 10  1  0
  1 11  1  0
  1 12  1  0
  4 13  1  0
  5 14  1  0
  6 15  1  0
  7 16  1  0
  7 17  1  0
  7 18  1  0
  8 19  1  0
  8 20  1  0
  9 21  1  0
  9 22  1  0
  9 23  1  0
M  END
