
     RDKit          3D

 19 18  0  0  0  0  0  0  0  0999 V2000
    2.8230    1.7809   -1.4899 C   0  0  0  0  0  0  0  0  0  0  0  0
    1.8678    0.6782   -1.1657 C   0  0  0  0  0  0  0  0  0  0  0  0
    0.9793   -0.3297   -0.8760 C   0  0  0  0  0  0  0  0  0  0  0  0
    0.0562   -1.3579   -0.5554 C   0  0  0  0  0  0  0  0  0  0  0  0
   -1.3805   -0.7645   -0.5517 C   0  0  0  0  0  0  0  0  0  0  0  0
   -1.6963   -0.1439   -1.5825 O   0  0  0  0  0  0  0  0  0  0  0  0
   -2.2855   -0.9119    0.5654 C   0  0  0  0  0  0  0  0  0  0  0  0
   -1.4498   -0.8812    1.7077 O   0  0  0  0  0  0  0  0  0  0  0  0
   -0.8575    0.2911    1.9983 C   0  0  0  0  0  0  0  0  0  0  0  0
    2.4761    2.2976   -2.3709 H   0  0  0  0  0  0  0  0  0  0  0  0
    3.8066    1.3194   -1.4958 H   0  0  0  0  0  0  0  0  0  0  0  0
    2.7292    2.5018   -0.5906 H   0  0  0  0  0  0  0  0  0  0  0  0
    0.3144   -1.9663    0.2666 H   0  0  0  0  0  0  0  0  0  0  0  0
    0.0633   -2.0740   -1.4727 H   0  0  0  0  0  0  0  0  0  0  0  0
   -3.0837   -0.2017    0.5925 H   0  0  0  0  0  0  0  0  0  0  0  0
   -2.7140   -2.0370    0.6289 H   0  0  0  0  0  0  0  0  0  0  0  0
   -0.3330    0.8689    1.2248 H   0  0  0  0  0  0  0  0  0  0  0  0
    0.0999   -0.0477    2.6421 H   0  0  0  0  0  0  0  0  0  0  0  0
   -1.4155    0.9780    2.6625 H   0  0  0  0  0  0  0  0  0  0  0  0
  1  2  1  0
  2  3  3  0
  3  4  1  0
  4  5  1  0
  5  6  2  0
  5  7  1  0
  7  8  1  0
  8  9  1  0
  1 10  1  0
  1 11  1  0
  1 12  1  0
  4 13  1  0
  4 14  1  0
  7 15  1  0
  7 16  1  0
  9 17  1  0
  9 18  1  0
  9 19  1  0
M  END
