
     RDKit          3D

 19 18  0  0  0  0  0  0  0  0999 V2000
    4.2204   -0.5653   -0.0172 C   0  0  0  0  0  0  0  0  0  0  0  0
    2.8849    0.0334   -0.0251 C   0  0  0  0  0  0  0  0  0  0  0  0
    1.7819    0.5292   -0.0114 C   0  0  0  0  0  0  0  0  0  0  0  0
    0.4609    1.1102    0.0219 C   0  0  0  0  0  0  0  0  0  0  0  0
   -0.5587    0.1496   -0.0538 O   0  0  0  0  0  0  0  0  0  0  0  0
   -1.7607    0.8550   -0.0107 C   0  0  0  0  0  0  0  0  0  0  0  0
   -2.9323   -0.0189   -0.0811 C   0  0  0  0  0  0  0  0  0  0  0  0
   -2.7571   -1.4878   -0.1856 C   0  0  0  0  0  0  0  0  0  0  0  0
   -4.0521    0.4463   -0.0548 O   0  0  0  0  0  0  0  0  0  0  0  0
    4.8324    0.0107    0.7053 H   0  0  0  0  0  0  0  0  0  0  0  0
    4.6449   -0.4097   -1.0453 H   0  0  0  0  0  0  0  0  0  0  0  0
    4.2103   -1.6350    0.2674 H   0  0  0  0  0  0  0  0  0  0  0  0
    0.2554    1.7209    0.9146 H   0  0  0  0  0  0  0  0  0  0  0  0
    0.3338    1.7906   -0.8542 H   0  0  0  0  0  0  0  0  0  0  0  0
   -1.7205    1.4522    0.9440 H   0  0  0  0  0  0  0  0  0  0  0  0
   -1.7233    1.6251   -0.8193 H   0  0  0  0  0  0  0  0  0  0  0  0
   -2.7946   -1.8889    0.8498 H   0  0  0  0  0  0  0  0  0  0  0  0
   -3.5694   -1.9599   -0.7762 H   0  0  0  0  0  0  0  0  0  0  0  0
   -1.7563   -1.7579   -0.6120 H   0  0  0  0  0  0  0  0  0  0  0  0
  1  2  1  0
  2  3  3  0
  3  4  1  0
  4  5  1  0
  5  6  1  0
  6  7  1  0
  7  8  1  0
  7  9  2  0
  1 10  1  0
  1 11  1  0
  1 12  1  0
  4 13  1  0
  4 14  1  0
  6 15  1  0
  6 16  1  0
  8 17  1  0
  8 18  1  0
  8 19  1  0
M  END
