
     RDKit          3D

 23 22  0  0  0  0  0  0  0  0999 V2000
    3.3476   -1.7672    0.6856 C   0  0  0  0  0  0  0  0  0  0  0  0
    2.1628   -1.0023    0.2314 C   0  0  0  0  0  0  0  0  0  0  0  0
    1.2120   -0.3640   -0.1373 C   0  0  0  0  0  0  0  0  0  0  0  0
    0.0309    0.4243   -0.5682 C   0  0  0  0  0  0  0  0  0  0  0  0
    0.3020    1.8957   -0.4080 C   0  0  0  0  0  0  0  0  0  0  0  0
   -0.7783    2.6587   -0.8015 O   0  0  0  0  0  0  0  0  0  0  0  0
   -1.1007   -0.0029    0.3369 C   0  0  0  0  0  0  0  0  0  0  0  0
   -2.3326    0.7795   -0.0809 C   0  0  0  0  0  0  0  0  0  0  0  0
   -1.3265   -1.4907    0.2967 C   0  0  0  0  0  0  0  0  0  0  0  0
    4.2584   -1.1660    0.6338 H   0  0  0  0  0  0  0  0  0  0  0  0
    3.1045   -2.1361    1.7110 H   0  0  0  0  0  0  0  0  0  0  0  0
    3.4837   -2.6802    0.0655 H   0  0  0  0  0  0  0  0  0  0  0  0
   -0.2279    0.2362   -1.6264 H   0  0  0  0  0  0  0  0  0  0  0  0
    1.2595    2.1974   -0.8671 H   0  0  0  0  0  0  0  0  0  0  0  0
    0.4388    2.0855    0.6982 H   0  0  0  0  0  0  0  0  0  0  0  0
   -0.7181    2.9594   -1.7299 H   0  0  0  0  0  0  0  0  0  0  0  0
   -0.8653    0.2695    1.3989 H   0  0  0  0  0  0  0  0  0  0  0  0
   -2.5158    1.6805    0.5008 H   0  0  0  0  0  0  0  0  0  0  0  0
   -2.3395    0.9750   -1.1913 H   0  0  0  0  0  0  0  0  0  0  0  0
   -3.1881    0.0523    0.0523 H   0  0  0  0  0  0  0  0  0  0  0  0
   -2.2636   -1.6972   -0.2571 H   0  0  0  0  0  0  0  0  0  0  0  0
   -0.4992   -2.0227   -0.2475 H   0  0  0  0  0  0  0  0  0  0  0  0
   -1.4447   -1.8846    1.3039 H   0  0  0  0  0  0  0  0  0  0  0  0
  1  2  1  0
  2  3  3  0
  3  4  1  0
  4  5  1  0
  5  6  1  0
  4  7  1  0
  7  8  1  0
  7  9  1  0
  1 10  1  0
  1 11  1  0
  1 12  1  0
  4 13  1  0
  5 14  1  0
  5 15  1  0
  6 16  1  0
  7 17  1  0
  8 18  1  0
  8 19  1  0
  8 20  1  0
  9 21  1  0
  9 22  1  0
  9 23  1  0
M  END
