
     RDKit          3D

 20 19  0  0  0  0  0  0  0  0999 V2000
    2.8304    0.6443   -0.1269 C   0  0  0  0  0  0  0  0  0  0  0  0
    1.4782    0.2648    0.2323 C   0  0  0  0  0  0  0  0  0  0  0  0
    0.3873   -0.0367    0.5424 C   0  0  0  0  0  0  0  0  0  0  0  0
   -1.1975   -0.4531    1.0134 C   0  0  0  0  0  0  0  0  0  0  0  0
   -1.8494    0.3247   -0.4339 C   0  0  0  0  0  0  0  0  0  0  0  0
   -1.4252    1.7189   -0.3176 C   0  0  0  0  0  0  0  0  0  0  0  0
   -1.1364   -1.5540    0.4434 O   0  0  0  0  0  0  0  0  0  0  0  0
   -0.0288   -2.2806    0.1377 C   0  0  0  0  0  0  0  0  0  0  0  0
    3.5202    0.3509    0.7006 H   0  0  0  0  0  0  0  0  0  0  0  0
    3.0765    0.1329   -1.0766 H   0  0  0  0  0  0  0  0  0  0  0  0
    2.9027    1.7672   -0.2565 H   0  0  0  0  0  0  0  0  0  0  0  0
   -1.2498    0.4884    1.5009 H   0  0  0  0  0  0  0  0  0  0  0  0
   -1.3240   -0.2415   -1.1654 H   0  0  0  0  0  0  0  0  0  0  0  0
   -2.8643    0.1048   -0.1870 H   0  0  0  0  0  0  0  0  0  0  0  0
   -0.5619    1.8963    0.3669 H   0  0  0  0  0  0  0  0  0  0  0  0
   -2.2809    2.4138   -0.0596 H   0  0  0  0  0  0  0  0  0  0  0  0
   -1.1123    2.0711   -1.3476 H   0  0  0  0  0  0  0  0  0  0  0  0
   -0.3972   -3.2172   -0.3637 H   0  0  0  0  0  0  0  0  0  0  0  0
    0.6566   -1.8278   -0.6161 H   0  0  0  0  0  0  0  0  0  0  0  0
    0.5757   -2.5672    1.0134 H   0  0  0  0  0  0  0  0  0  0  0  0
  1  2  1  0
  2  3  3  0
  3  4  1  0
  4  5  1  0
  5  6  1  0
  4  7  1  0
  7  8  1  0
  1  9  1  0
  1 10  1  0
  1 11  1  0
  4 12  1  0
  5 13  1  0
  5 14  1  0
  6 15  1  0
  6 16  1  0
  6 17  1  0
  8 18  1  0
  8 19  1  0
  8 20  1  0
M  END
