
     RDKit          3D

 17 17  0  0  0  0  0  0  0  0999 V2000
    2.7366   -1.5355   -0.3594 C   0  0  0  0  0  0  0  0  0  0  0  0
    1.3661   -1.0691   -0.5104 C   0  0  0  0  0  0  0  0  0  0  0  0
    0.2577   -0.6710   -0.6279 C   0  0  0  0  0  0  0  0  0  0  0  0
   -1.1311   -0.1464   -0.7660 C   0  0  0  0  0  0  0  0  0  0  0  0
   -1.1559    1.3786   -0.5431 C   0  0  0  0  0  0  0  0  0  0  0  0
   -1.3093    0.9993    0.9184 C   0  0  0  0  0  0  0  0  0  0  0  0
   -0.1406    0.8096    1.6097 O   0  0  0  0  0  0  0  0  0  0  0  0
   -1.9153   -0.2995    0.5170 C   0  0  0  0  0  0  0  0  0  0  0  0
   -2.6745   -1.0887    0.9991 O   0  0  0  0  0  0  0  0  0  0  0  0
    3.4722   -0.8689   -0.9168 H   0  0  0  0  0  0  0  0  0  0  0  0
    2.8209   -2.5503   -0.7488 H   0  0  0  0  0  0  0  0  0  0  0  0
    3.0870   -1.4294    0.7130 H   0  0  0  0  0  0  0  0  0  0  0  0
   -1.6612   -0.4525   -1.6448 H   0  0  0  0  0  0  0  0  0  0  0  0
   -1.9868    1.8982   -1.0001 H   0  0  0  0  0  0  0  0  0  0  0  0
   -0.1693    1.7932   -0.8045 H   0  0  0  0  0  0  0  0  0  0  0  0
   -2.0315    1.6178    1.4719 H   0  0  0  0  0  0  0  0  0  0  0  0
    0.4351    1.6147    1.6928 H   0  0  0  0  0  0  0  0  0  0  0  0
  1  2  1  0
  2  3  3  0
  3  4  1  0
  4  5  1  0
  5  6  1  0
  6  7  1  0
  6  8  1  0
  8  9  2  0
  8  4  1  0
  1 10  1  0
  1 11  1  0
  1 12  1  0
  4 13  1  0
  5 14  1  0
  5 15  1  0
  6 16  1  0
  7 17  1  0
M  END
