
     RDKit          3D

 18 17  0  0  0  0  0  0  0  0999 V2000
    2.0526   -3.4098   -0.1533 C   0  0  0  0  0  0  0  0  0  0  0  0
    1.3726   -2.0590   -0.2918 C   0  0  0  0  0  0  0  0  0  0  0  0
    0.8006   -0.9646   -0.4143 C   0  0  0  0  0  0  0  0  0  0  0  0
    0.1580    0.2703   -0.5725 C   0  0  0  0  0  0  0  0  0  0  0  0
   -0.8660    0.4223    0.5630 C   0  0  0  0  0  0  0  0  0  0  0  0
   -1.5680    1.6781    0.4482 C   0  0  0  0  0  0  0  0  0  0  0  0
   -1.2387    2.6853   -0.5628 C   0  0  0  0  0  0  0  0  0  0  0  0
   -2.4880    1.9282    1.2319 O   0  0  0  0  0  0  0  0  0  0  0  0
    3.1030   -3.2533    0.1485 H   0  0  0  0  0  0  0  0  0  0  0  0
    1.4960   -4.0107    0.5866 H   0  0  0  0  0  0  0  0  0  0  0  0
    1.9932   -3.8368   -1.1808 H   0  0  0  0  0  0  0  0  0  0  0  0
    0.9091    1.1255   -0.5437 H   0  0  0  0  0  0  0  0  0  0  0  0
   -0.3826    0.3832   -1.5569 H   0  0  0  0  0  0  0  0  0  0  0  0
   -0.2771    0.4966    1.5347 H   0  0  0  0  0  0  0  0  0  0  0  0
   -1.5154   -0.4704    0.5936 H   0  0  0  0  0  0  0  0  0  0  0  0
   -1.0155    3.6832   -0.0798 H   0  0  0  0  0  0  0  0  0  0  0  0
   -0.4208    2.4201   -1.2264 H   0  0  0  0  0  0  0  0  0  0  0  0
   -2.1131    2.9118   -1.2186 H   0  0  0  0  0  0  0  0  0  0  0  0
  1  2  1  0
  2  3  3  0
  3  4  1  0
  4  5  1  0
  5  6  1  0
  6  7  1  0
  6  8  2  0
  1  9  1  0
  1 10  1  0
  1 11  1  0
  4 12  1  0
  4 13  1  0
  5 14  1  0
  5 15  1  0
  7 16  1  0
  7 17  1  0
  7 18  1  0
M  END
