
     RDKit          3D

 19 20  0  0  0  0  0  0  0  0999 V2000
    2.7160   -2.3522    0.6221 C   0  0  0  0  0  0  0  0  0  0  0  0
    1.3365   -1.5593    0.5477 C   0  0  0  0  0  0  0  0  0  0  0  0
    0.3554   -1.0036    0.4765 C   0  0  0  0  0  0  0  0  0  0  0  0
   -0.8640   -0.3058    0.3675 C   0  0  0  0  0  0  0  0  0  0  0  0
   -0.8450    1.1227    0.8605 C   0  0  0  0  0  0  0  0  0  0  0  0
   -0.0005    1.4390   -0.2956 C   0  0  0  0  0  0  0  0  0  0  0  0
   -1.0606    0.4510   -0.8612 C   0  0  0  0  0  0  0  0  0  0  0  0
   -1.0923    0.2111   -2.1033 O   0  0  0  0  0  0  0  0  0  0  0  0
   -2.0125    1.3167   -0.0775 C   0  0  0  0  0  0  0  0  0  0  0  0
    2.4422   -3.4108    0.5425 H   0  0  0  0  0  0  0  0  0  0  0  0
    3.1780   -2.0691    1.5723 H   0  0  0  0  0  0  0  0  0  0  0  0
    3.1923   -2.0082   -0.2941 H   0  0  0  0  0  0  0  0  0  0  0  0
   -1.7813   -0.8747    0.7474 H   0  0  0  0  0  0  0  0  0  0  0  0
   -0.8108    1.4060    1.8282 H   0  0  0  0  0  0  0  0  0  0  0  0
   -0.2287    2.4335   -0.7562 H   0  0  0  0  0  0  0  0  0  0  0  0
    1.0247    1.0832   -0.3559 H   0  0  0  0  0  0  0  0  0  0  0  0
   -0.5695    0.8895   -2.6173 H   0  0  0  0  0  0  0  0  0  0  0  0
   -2.0302    2.4015   -0.3607 H   0  0  0  0  0  0  0  0  0  0  0  0
   -2.9498    0.8292    0.1572 H   0  0  0  0  0  0  0  0  0  0  0  0
  1  2  1  0
  2  3  3  0
  3  4  1  0
  4  5  1  0
  5  6  1  0
  6  7  1  0
  7  8  1  0
  7  9  1  0
  7  4  1  0
  9  5  1  0
  1 10  1  0
  1 11  1  0
  1 12  1  0
  4 13  1  0
  5 14  1  0
  6 15  1  0
  6 16  1  0
  8 17  1  0
  9 18  1  0
  9 19  1  0
M  END
