
     RDKit          3D

 16 16  0  0  0  0  0  0  0  0999 V2000
    3.0547   -1.2120    0.7506 C   0  0  0  0  0  0  0  0  0  0  0  0
    1.6925   -0.7924    0.8507 C   0  0  0  0  0  0  0  0  0  0  0  0
    0.3692   -0.3985    0.9271 C   0  0  0  0  0  0  0  0  0  0  0  0
   -0.9336    0.0140    1.0061 C   0  0  0  0  0  0  0  0  0  0  0  0
   -1.5602   -0.0944    2.2046 O   0  0  0  0  0  0  0  0  0  0  0  0
   -1.7502    0.5582   -0.0545 C   0  0  0  0  0  0  0  0  0  0  0  0
   -1.2604    1.5855   -0.9598 C   0  0  0  0  0  0  0  0  0  0  0  0
   -1.5047    0.1548   -1.4809 C   0  0  0  0  0  0  0  0  0  0  0  0
    3.6852   -0.5720    0.1186 H   0  0  0  0  0  0  0  0  0  0  0  0
    3.3626   -1.8346    1.5421 H   0  0  0  0  0  0  0  0  0  0  0  0
    2.9997   -2.0947   -0.1215 H   0  0  0  0  0  0  0  0  0  0  0  0
   -2.8365    0.7127    0.2193 H   0  0  0  0  0  0  0  0  0  0  0  0
   -2.1019    2.3527   -1.3417 H   0  0  0  0  0  0  0  0  0  0  0  0
   -0.2508    1.9661   -1.2295 H   0  0  0  0  0  0  0  0  0  0  0  0
   -0.6121   -0.3974   -1.7464 H   0  0  0  0  0  0  0  0  0  0  0  0
   -2.3536    0.0519   -2.1872 H   0  0  0  0  0  0  0  0  0  0  0  0
  1  2  1  0
  2  3  3  0
  3  4  1  0
  4  5  2  0
  4  6  1  0
  6  7  1  0
  7  8  1  0
  8  6  1  0
  1  9  1  0
  1 10  1  0
  1 11  1  0
  6 12  1  0
  7 13  1  0
  7 14  1  0
  8 15  1  0
  8 16  1  0
M  END
