
     RDKit          3D

 17 19  0  0  0  0  0  0  0  0999 V2000
    3.5797    0.3289   -0.5069 C   0  0  0  0  0  0  0  0  0  0  0  0
    2.2121   -0.0453   -0.1223 C   0  0  0  0  0  0  0  0  0  0  0  0
    1.0906   -0.3496    0.1989 C   0  0  0  0  0  0  0  0  0  0  0  0
   -0.2970   -0.6992    0.5964 C   0  0  0  0  0  0  0  0  0  0  0  0
   -1.2600   -0.7593   -0.4663 C   0  0  0  0  0  0  0  0  0  0  0  0
   -2.0263    0.3776   -1.0866 C   0  0  0  0  0  0  0  0  0  0  0  0
   -3.2957    0.7102   -0.8438 O   0  0  0  0  0  0  0  0  0  0  0  0
   -2.7666    0.2100    0.2750 C   0  0  0  0  0  0  0  0  0  0  0  0
   -1.3249    0.2980    0.7106 C   0  0  0  0  0  0  0  0  0  0  0  0
    3.5317    0.7953   -1.5139 H   0  0  0  0  0  0  0  0  0  0  0  0
    4.2515   -0.5630   -0.5626 H   0  0  0  0  0  0  0  0  0  0  0  0
    4.0193    1.0012    0.2590 H   0  0  0  0  0  0  0  0  0  0  0  0
   -0.2660   -1.4605    1.4310 H   0  0  0  0  0  0  0  0  0  0  0  0
   -1.9752   -1.6315   -0.3524 H   0  0  0  0  0  0  0  0  0  0  0  0
   -1.3654    1.2842   -1.1773 H   0  0  0  0  0  0  0  0  0  0  0  0
   -3.1567   -0.8276    0.4942 H   0  0  0  0  0  0  0  0  0  0  0  0
   -0.9512    1.3306    0.4293 H   0  0  0  0  0  0  0  0  0  0  0  0
  1  2  1  0
  2  3  3  0
  3  4  1  0
  4  5  1  0
  5  6  1  0
  6  7  1  0
  7  8  1  0
  8  9  1  0
  9  4  1  0
  9  5  1  0
  8  6  1  0
  1 10  1  0
  1 11  1  0
  1 12  1  0
  4 13  1  0
  5 14  1  0
  6 15  1  0
  8 16  1  0
  9 17  1  0
M  END
