
     RDKit          3D

 17 17  0  0  0  0  0  0  0  0999 V2000
    3.5652   -0.2297    0.1941 C   0  0  0  0  0  0  0  0  0  0  0  0
    2.1100   -0.0417    0.2360 C   0  0  0  0  0  0  0  0  0  0  0  0
    0.9120    0.0940    0.2796 C   0  0  0  0  0  0  0  0  0  0  0  0
   -0.5513    0.2503    0.3096 C   0  0  0  0  0  0  0  0  0  0  0  0
   -1.1645    0.5955    1.6248 C   0  0  0  0  0  0  0  0  0  0  0  0
   -1.0122    1.0666   -0.7898 O   0  0  0  0  0  0  0  0  0  0  0  0
   -1.3692   -0.3088   -0.7934 C   0  0  0  0  0  0  0  0  0  0  0  0
   -2.7956   -0.5258   -0.5309 C   0  0  0  0  0  0  0  0  0  0  0  0
   -3.4503    0.1646    0.2196 O   0  0  0  0  0  0  0  0  0  0  0  0
    3.9176   -0.4298   -0.8470 H   0  0  0  0  0  0  0  0  0  0  0  0
    3.8915   -1.0743    0.8383 H   0  0  0  0  0  0  0  0  0  0  0  0
    4.0194    0.6965    0.5824 H   0  0  0  0  0  0  0  0  0  0  0  0
   -0.4082    0.6421    2.4413 H   0  0  0  0  0  0  0  0  0  0  0  0
   -1.9015   -0.1763    1.9368 H   0  0  0  0  0  0  0  0  0  0  0  0
   -1.6451    1.5938    1.5742 H   0  0  0  0  0  0  0  0  0  0  0  0
   -0.8232   -0.9744   -1.4910 H   0  0  0  0  0  0  0  0  0  0  0  0
   -3.2946   -1.3426   -1.0298 H   0  0  0  0  0  0  0  0  0  0  0  0
  1  2  1  0
  2  3  3  0
  3  4  1  0
  4  5  1  0
  4  6  1  0
  6  7  1  0
  7  8  1  0
  8  9  2  0
  7  4  1  0
  1 10  1  0
  1 11  1  0
  1 12  1  0
  5 13  1  0
  5 14  1  0
  5 15  1  0
  7 16  1  0
  8 17  1  0
M  END
