
     RDKit          3D

 21 21  0  0  0  0  0  0  0  0999 V2000
    3.6730    0.6932   -0.1323 C   0  0  0  0  0  0  0  0  0  0  0  0
    2.4160   -0.0536   -0.0456 C   0  0  0  0  0  0  0  0  0  0  0  0
    1.3686   -0.6640    0.0450 C   0  0  0  0  0  0  0  0  0  0  0  0
    0.1215   -1.4097    0.1341 C   0  0  0  0  0  0  0  0  0  0  0  0
   -1.0103   -0.4501   -0.0631 C   0  0  0  0  0  0  0  0  0  0  0  0
   -2.3736   -1.1072    0.0071 C   0  0  0  0  0  0  0  0  0  0  0  0
   -0.9681    0.9031    0.6086 C   0  0  0  0  0  0  0  0  0  0  0  0
   -0.8913    0.7493   -0.9234 C   0  0  0  0  0  0  0  0  0  0  0  0
   -2.0383    1.1353   -1.6225 O   0  0  0  0  0  0  0  0  0  0  0  0
    3.9787    0.8360   -1.2052 H   0  0  0  0  0  0  0  0  0  0  0  0
    4.5216    0.1102    0.3315 H   0  0  0  0  0  0  0  0  0  0  0  0
    3.6140    1.6577    0.4125 H   0  0  0  0  0  0  0  0  0  0  0  0
    0.0476   -2.1801   -0.6757 H   0  0  0  0  0  0  0  0  0  0  0  0
   -0.0135   -1.8723    1.1503 H   0  0  0  0  0  0  0  0  0  0  0  0
   -3.0538   -0.6428   -0.7350 H   0  0  0  0  0  0  0  0  0  0  0  0
   -2.8133   -1.0814    1.0195 H   0  0  0  0  0  0  0  0  0  0  0  0
   -2.2859   -2.1726   -0.2846 H   0  0  0  0  0  0  0  0  0  0  0  0
   -0.0522    1.2007    1.1364 H   0  0  0  0  0  0  0  0  0  0  0  0
   -1.8907    1.3402    1.0168 H   0  0  0  0  0  0  0  0  0  0  0  0
    0.0545    1.0892   -1.3561 H   0  0  0  0  0  0  0  0  0  0  0  0
   -2.4047    1.9189   -1.1464 H   0  0  0  0  0  0  0  0  0  0  0  0
  1  2  1  0
  2  3  3  0
  3  4  1  0
  4  5  1  0
  5  6  1  0
  5  7  1  0
  7  8  1  0
  8  9  1  0
  8  5  1  0
  1 10  1  0
  1 11  1  0
  1 12  1  0
  4 13  1  0
  4 14  1  0
  6 15  1  0
  6 16  1  0
  6 17  1  0
  7 18  1  0
  7 19  1  0
  8 20  1  0
  9 21  1  0
M  END
