
     RDKit          3D

 18 18  0  0  0  0  0  0  0  0999 V2000
   -1.6047   -1.4734   -3.0570 C   0  0  0  0  0  0  0  0  0  0  0  0
   -0.7673   -0.8917   -2.0569 C   0  0  0  0  0  0  0  0  0  0  0  0
   -0.0526   -0.3832   -1.1696 C   0  0  0  0  0  0  0  0  0  0  0  0
    0.8078    0.2077   -0.1394 C   0  0  0  0  0  0  0  0  0  0  0  0
    1.2298   -0.6313    0.9815 C   0  0  0  0  0  0  0  0  0  0  0  0
    0.1166    0.3768    1.1695 C   0  0  0  0  0  0  0  0  0  0  0  0
    0.4619    1.6002    1.9884 C   0  0  0  0  0  0  0  0  0  0  0  0
   -0.2688    1.5629    3.1566 O   0  0  0  0  0  0  0  0  0  0  0  0
   -1.9946   -0.7175   -3.8026 H   0  0  0  0  0  0  0  0  0  0  0  0
   -1.0752   -2.2187   -3.6895 H   0  0  0  0  0  0  0  0  0  0  0  0
   -2.5413   -1.9076   -2.5986 H   0  0  0  0  0  0  0  0  0  0  0  0
    1.4522    1.0719   -0.4365 H   0  0  0  0  0  0  0  0  0  0  0  0
    2.2404   -0.4470    1.4037 H   0  0  0  0  0  0  0  0  0  0  0  0
    0.9223   -1.7188    0.9653 H   0  0  0  0  0  0  0  0  0  0  0  0
   -0.9151    0.0071    1.3132 H   0  0  0  0  0  0  0  0  0  0  0  0
    1.5308    1.5762    2.2237 H   0  0  0  0  0  0  0  0  0  0  0  0
    0.2113    2.5396    1.4310 H   0  0  0  0  0  0  0  0  0  0  0  0
    0.2465    1.4467    3.9693 H   0  0  0  0  0  0  0  0  0  0  0  0
  1  2  1  0
  2  3  3  0
  3  4  1  0
  4  5  1  0
  5  6  1  0
  6  7  1  0
  7  8  1  0
  6  4  1  0
  1  9  1  0
  1 10  1  0
  1 11  1  0
  4 12  1  0
  5 13  1  0
  5 14  1  0
  6 15  1  0
  7 16  1  0
  7 17  1  0
  8 18  1  0
M  END
