
     RDKit          3D

 23 22  0  0  0  0  0  0  0  0999 V2000
    5.1666    0.0644   -0.2774 C   0  0  0  0  0  0  0  0  0  0  0  0
    3.7246    0.3180   -0.2421 C   0  0  0  0  0  0  0  0  0  0  0  0
    2.5390    0.5308   -0.1968 C   0  0  0  0  0  0  0  0  0  0  0  0
    1.0750    0.8199   -0.1441 C   0  0  0  0  0  0  0  0  0  0  0  0
    0.5459   -0.2018    0.5959 O   0  0  0  0  0  0  0  0  0  0  0  0
   -0.7939   -0.0617    0.7585 C   0  0  0  0  0  0  0  0  0  0  0  0
   -1.5816   -0.0581   -0.5288 C   0  0  0  0  0  0  0  0  0  0  0  0
   -3.0761    0.0836   -0.2254 C   0  0  0  0  0  0  0  0  0  0  0  0
   -3.4769   -1.0735    0.6173 C   0  0  0  0  0  0  0  0  0  0  0  0
    5.4847   -0.4454    0.6533 H   0  0  0  0  0  0  0  0  0  0  0  0
    5.4508   -0.5531   -1.1769 H   0  0  0  0  0  0  0  0  0  0  0  0
    5.7518    1.0042   -0.3695 H   0  0  0  0  0  0  0  0  0  0  0  0
    0.8904    1.8119    0.3179 H   0  0  0  0  0  0  0  0  0  0  0  0
    0.6876    0.9050   -1.1895 H   0  0  0  0  0  0  0  0  0  0  0  0
   -1.0250    0.8452    1.3638 H   0  0  0  0  0  0  0  0  0  0  0  0
   -1.1799   -0.9488    1.3330 H   0  0  0  0  0  0  0  0  0  0  0  0
   -1.2760    0.8134   -1.1422 H   0  0  0  0  0  0  0  0  0  0  0  0
   -1.3687   -0.9828   -1.0947 H   0  0  0  0  0  0  0  0  0  0  0  0
   -3.6520    0.2354   -1.1369 H   0  0  0  0  0  0  0  0  0  0  0  0
   -3.1542    1.0270    0.3773 H   0  0  0  0  0  0  0  0  0  0  0  0
   -4.5737   -1.3027    0.5839 H   0  0  0  0  0  0  0  0  0  0  0  0
   -3.2287   -0.8363    1.6796 H   0  0  0  0  0  0  0  0  0  0  0  0
   -2.9295   -1.9947    0.2871 H   0  0  0  0  0  0  0  0  0  0  0  0
  1  2  1  0
  2  3  3  0
  3  4  1  0
  4  5  1  0
  5  6  1  0
  6  7  1  0
  7  8  1  0
  8  9  1  0
  1 10  1  0
  1 11  1  0
  1 12  1  0
  4 13  1  0
  4 14  1  0
  6 15  1  0
  6 16  1  0
  7 17  1  0
  7 18  1  0
  8 19  1  0
  8 20  1  0
  9 21  1  0
  9 22  1  0
  9 23  1  0
M  END
