
     RDKit          3D

 21 21  0  0  0  0  0  0  0  0999 V2000
    3.7680   -0.5290    0.9955 C   0  0  0  0  0  0  0  0  0  0  0  0
    2.4224   -0.3662    0.4425 C   0  0  0  0  0  0  0  0  0  0  0  0
    1.3243   -0.2261   -0.0138 C   0  0  0  0  0  0  0  0  0  0  0  0
    0.0064   -0.0471   -0.5455 C   0  0  0  0  0  0  0  0  0  0  0  0
   -0.9084   -1.2491   -0.2916 C   0  0  0  0  0  0  0  0  0  0  0  0
   -2.2471   -0.6850   -0.7232 C   0  0  0  0  0  0  0  0  0  0  0  0
   -2.1490    0.8237   -0.5227 C   0  0  0  0  0  0  0  0  0  0  0  0
   -0.7974    1.0281    0.1681 C   0  0  0  0  0  0  0  0  0  0  0  0
   -0.2965    2.2848   -0.0093 O   0  0  0  0  0  0  0  0  0  0  0  0
    3.8017   -1.3935    1.7076 H   0  0  0  0  0  0  0  0  0  0  0  0
    4.0842    0.3526    1.5979 H   0  0  0  0  0  0  0  0  0  0  0  0
    4.5173   -0.7195    0.1728 H   0  0  0  0  0  0  0  0  0  0  0  0
   -0.0434    0.1401   -1.6314 H   0  0  0  0  0  0  0  0  0  0  0  0
   -0.6033   -2.1315   -0.8494 H   0  0  0  0  0  0  0  0  0  0  0  0
   -0.9541   -1.4411    0.8164 H   0  0  0  0  0  0  0  0  0  0  0  0
   -2.4127   -0.9286   -1.7918 H   0  0  0  0  0  0  0  0  0  0  0  0
   -3.0786   -1.0953   -0.1060 H   0  0  0  0  0  0  0  0  0  0  0  0
   -2.0476    1.3165   -1.5206 H   0  0  0  0  0  0  0  0  0  0  0  0
   -2.9772    1.2069    0.0729 H   0  0  0  0  0  0  0  0  0  0  0  0
   -0.9458    0.8000    1.2311 H   0  0  0  0  0  0  0  0  0  0  0  0
   -0.4629    2.8594    0.8005 H   0  0  0  0  0  0  0  0  0  0  0  0
  1  2  1  0
  2  3  3  0
  3  4  1  0
  4  5  1  0
  5  6  1  0
  6  7  1  0
  7  8  1  0
  8  9  1  0
  8  4  1  0
  1 10  1  0
  1 11  1  0
  1 12  1  0
  4 13  1  0
  5 14  1  0
  5 15  1  0
  6 16  1  0
  6 17  1  0
  7 18  1  0
  7 19  1  0
  8 20  1  0
  9 21  1  0
M  END
