
     RDKit          3D

 15 14  0  0  0  0  0  0  0  0999 V2000
    2.8149    1.0649    0.2761 C   0  0  0  0  0  0  0  0  0  0  0  0
    1.6057    0.2409    0.0952 C   0  0  0  0  0  0  0  0  0  0  0  0
    0.6237   -0.4481   -0.0502 C   0  0  0  0  0  0  0  0  0  0  0  0
   -0.5633   -1.2901   -0.2039 C   0  0  0  0  0  0  0  0  0  0  0  0
   -1.8112   -0.6172    0.2807 C   0  0  0  0  0  0  0  0  0  0  0  0
   -2.0424    0.6276   -0.4822 C   0  0  0  0  0  0  0  0  0  0  0  0
   -3.0195    1.2942   -0.2092 O   0  0  0  0  0  0  0  0  0  0  0  0
    2.6894    2.0720   -0.1813 H   0  0  0  0  0  0  0  0  0  0  0  0
    3.7232    0.5404   -0.1145 H   0  0  0  0  0  0  0  0  0  0  0  0
    2.9488    1.1937    1.3713 H   0  0  0  0  0  0  0  0  0  0  0  0
   -0.4499   -2.2484    0.3600 H   0  0  0  0  0  0  0  0  0  0  0  0
   -0.6589   -1.5606   -1.2740 H   0  0  0  0  0  0  0  0  0  0  0  0
   -2.6707   -1.3017    0.0187 H   0  0  0  0  0  0  0  0  0  0  0  0
   -1.8441   -0.4764    1.3663 H   0  0  0  0  0  0  0  0  0  0  0  0
   -1.3457    0.9089   -1.2529 H   0  0  0  0  0  0  0  0  0  0  0  0
  1  2  1  0
  2  3  3  0
  3  4  1  0
  4  5  1  0
  5  6  1  0
  6  7  2  0
  1  8  1  0
  1  9  1  0
  1 10  1  0
  4 11  1  0
  4 12  1  0
  5 13  1  0
  5 14  1  0
  6 15  1  0
M  END
