
     RDKit          3D

 19 19  0  0  0  0  0  0  0  0999 V2000
    3.6657   -0.1305   -0.2963 C   0  0  0  0  0  0  0  0  0  0  0  0
    2.2171   -0.3526   -0.1145 C   0  0  0  0  0  0  0  0  0  0  0  0
    1.0521   -0.5105    0.0337 C   0  0  0  0  0  0  0  0  0  0  0  0
   -0.3864   -0.6852    0.2007 C   0  0  0  0  0  0  0  0  0  0  0  0
   -0.8935   -0.0991    1.4721 C   0  0  0  0  0  0  0  0  0  0  0  0
   -2.0716    0.7934    1.1286 C   0  0  0  0  0  0  0  0  0  0  0  0
   -2.4303    0.3261   -0.2219 C   0  0  0  0  0  0  0  0  0  0  0  0
   -3.5353    0.2334   -0.6781 O   0  0  0  0  0  0  0  0  0  0  0  0
   -1.1679   -0.0063   -0.9057 C   0  0  0  0  0  0  0  0  0  0  0  0
    3.8733    0.2555   -1.3208 H   0  0  0  0  0  0  0  0  0  0  0  0
    4.2561   -1.0320   -0.0730 H   0  0  0  0  0  0  0  0  0  0  0  0
    3.9607    0.6779    0.4124 H   0  0  0  0  0  0  0  0  0  0  0  0
   -0.6097   -1.7839    0.0989 H   0  0  0  0  0  0  0  0  0  0  0  0
   -1.3067   -0.9514    2.0871 H   0  0  0  0  0  0  0  0  0  0  0  0
   -0.0910    0.4293    1.9956 H   0  0  0  0  0  0  0  0  0  0  0  0
   -2.8901    0.7188    1.8575 H   0  0  0  0  0  0  0  0  0  0  0  0
   -1.6722    1.8407    1.0500 H   0  0  0  0  0  0  0  0  0  0  0  0
   -1.3093   -0.6740   -1.7806 H   0  0  0  0  0  0  0  0  0  0  0  0
   -0.6611    0.9504   -1.2245 H   0  0  0  0  0  0  0  0  0  0  0  0
  1  2  1  0
  2  3  3  0
  3  4  1  0
  4  5  1  0
  5  6  1  0
  6  7  1  0
  7  8  2  0
  7  9  1  0
  9  4  1  0
  1 10  1  0
  1 11  1  0
  1 12  1  0
  4 13  1  0
  5 14  1  0
  5 15  1  0
  6 16  1  0
  6 17  1  0
  9 18  1  0
  9 19  1  0
M  END
