
     RDKit          3D

 19 19  0  0  0  0  0  0  0  0999 V2000
    1.5935    3.3692   -0.8579 C   0  0  0  0  0  0  0  0  0  0  0  0
    1.3653    1.9927   -0.3528 C   0  0  0  0  0  0  0  0  0  0  0  0
    1.1788    0.8992    0.0701 C   0  0  0  0  0  0  0  0  0  0  0  0
    0.9645   -0.4628    0.6044 C   0  0  0  0  0  0  0  0  0  0  0  0
    0.5404   -1.3505   -0.4114 O   0  0  0  0  0  0  0  0  0  0  0  0
   -0.8205   -1.0253   -0.2061 C   0  0  0  0  0  0  0  0  0  0  0  0
   -1.6397   -2.2776   -0.2441 C   0  0  0  0  0  0  0  0  0  0  0  0
   -0.4011   -0.5735    1.1933 C   0  0  0  0  0  0  0  0  0  0  0  0
   -0.5362   -1.6722    2.0657 O   0  0  0  0  0  0  0  0  0  0  0  0
    2.3872    3.8084   -0.2428 H   0  0  0  0  0  0  0  0  0  0  0  0
    0.6594    3.9674   -0.8041 H   0  0  0  0  0  0  0  0  0  0  0  0
    1.9014    3.3650   -1.9191 H   0  0  0  0  0  0  0  0  0  0  0  0
    1.8075   -0.8558    1.1911 H   0  0  0  0  0  0  0  0  0  0  0  0
   -1.1649   -0.1873   -0.8153 H   0  0  0  0  0  0  0  0  0  0  0  0
   -2.6619   -1.9799   -0.6199 H   0  0  0  0  0  0  0  0  0  0  0  0
   -1.1610   -2.9874   -0.9569 H   0  0  0  0  0  0  0  0  0  0  0  0
   -1.7619   -2.7665    0.7420 H   0  0  0  0  0  0  0  0  0  0  0  0
   -0.8773    0.3447    1.5330 H   0  0  0  0  0  0  0  0  0  0  0  0
   -1.3735   -1.6079    2.5892 H   0  0  0  0  0  0  0  0  0  0  0  0
  1  2  1  0
  2  3  3  0
  3  4  1  0
  4  5  1  0
  5  6  1  0
  6  7  1  0
  6  8  1  0
  8  9  1  0
  8  4  1  0
  1 10  1  0
  1 11  1  0
  1 12  1  0
  4 13  1  0
  6 14  1  0
  7 15  1  0
  7 16  1  0
  7 17  1  0
  8 18  1  0
  9 19  1  0
M  END
