
     RDKit          3D

 21 22  0  0  0  0  0  0  0  0999 V2000
    2.5571    1.9805    2.5153 C   0  0  0  0  0  0  0  0  0  0  0  0
    1.8216    1.1075    1.5987 C   0  0  0  0  0  0  0  0  0  0  0  0
    1.1983    0.3909    0.8226 C   0  0  0  0  0  0  0  0  0  0  0  0
    0.4322   -0.4553   -0.0950 C   0  0  0  0  0  0  0  0  0  0  0  0
   -0.8371   -0.8447    0.5919 C   0  0  0  0  0  0  0  0  0  0  0  0
   -1.8659   -1.0669   -0.4711 C   0  0  0  0  0  0  0  0  0  0  0  0
   -1.5591   -1.6374   -1.7852 C   0  0  0  0  0  0  0  0  0  0  0  0
   -1.4455   -0.1843   -1.5900 C   0  0  0  0  0  0  0  0  0  0  0  0
   -0.0711    0.3441   -1.2934 C   0  0  0  0  0  0  0  0  0  0  0  0
    3.6215    1.7083    2.5936 H   0  0  0  0  0  0  0  0  0  0  0  0
    2.5055    3.0533    2.2074 H   0  0  0  0  0  0  0  0  0  0  0  0
    2.1148    1.8223    3.5186 H   0  0  0  0  0  0  0  0  0  0  0  0
    1.0288   -1.3247   -0.4429 H   0  0  0  0  0  0  0  0  0  0  0  0
   -0.7142   -1.7053    1.2819 H   0  0  0  0  0  0  0  0  0  0  0  0
   -1.1495    0.0373    1.2191 H   0  0  0  0  0  0  0  0  0  0  0  0
   -2.9147   -1.0606   -0.1125 H   0  0  0  0  0  0  0  0  0  0  0  0
   -0.6197   -2.1961   -1.9796 H   0  0  0  0  0  0  0  0  0  0  0  0
   -2.4349   -1.9959   -2.3744 H   0  0  0  0  0  0  0  0  0  0  0  0
   -2.1965    0.5414   -1.9280 H   0  0  0  0  0  0  0  0  0  0  0  0
    0.5807    0.0584   -2.1665 H   0  0  0  0  0  0  0  0  0  0  0  0
   -0.0522    1.4271   -1.1102 H   0  0  0  0  0  0  0  0  0  0  0  0
  1  2  1  0
  2  3  3  0
  3  4  1  0
  4  5  1  0
  5  6  1  0
  6  7  1  0
  7  8  1  0
  8  9  1  0
  9  4  1  0
  8  6  1  0
  1 10  1  0
  1 11  1  0
  1 12  1  0
  4 13  1  0
  5 14  1  0
  5 15  1  0
  6 16  1  0
  7 17  1  0
  7 18  1  0
  8 19  1  0
  9 20  1  0
  9 21  1  0
M  END
