
     RDKit          3D

 19 18  0  0  0  0  0  0  0  0999 V2000
    4.5520    1.4274    1.8223 C   0  0  0  0  0  0  0  0  0  0  0  0
    3.2475    0.9120    1.3893 C   0  0  0  0  0  0  0  0  0  0  0  0
    2.1705    0.4637    1.0279 C   0  0  0  0  0  0  0  0  0  0  0  0
    0.8737   -0.0766    0.6002 C   0  0  0  0  0  0  0  0  0  0  0  0
   -0.2745   -0.5614    0.2192 C   0  0  0  0  0  0  0  0  0  0  0  0
   -1.3899   -1.0417   -0.1470 C   0  0  0  0  0  0  0  0  0  0  0  0
   -1.4939   -1.9036   -1.3996 C   0  0  0  0  0  0  0  0  0  0  0  0
   -1.9492    0.2623   -0.9211 O   0  0  0  0  0  0  0  0  0  0  0  0
   -3.0705    0.7062   -0.4034 C   0  0  0  0  0  0  0  0  0  0  0  0
    5.1834    1.5847    0.9983 H   0  0  0  0  0  0  0  0  0  0  0  0
    4.3464    2.3616    2.4640 H   0  0  0  0  0  0  0  0  0  0  0  0
    4.9504    0.6024    2.5065 H   0  0  0  0  0  0  0  0  0  0  0  0
   -2.2650   -1.0805    0.5694 H   0  0  0  0  0  0  0  0  0  0  0  0
   -1.4015   -2.9727   -1.1788 H   0  0  0  0  0  0  0  0  0  0  0  0
   -2.5117   -1.7799   -1.8855 H   0  0  0  0  0  0  0  0  0  0  0  0
   -0.6746   -1.5841   -2.0974 H   0  0  0  0  0  0  0  0  0  0  0  0
   -3.0829    0.9399    0.6766 H   0  0  0  0  0  0  0  0  0  0  0  0
   -3.8958    0.0234   -0.6424 H   0  0  0  0  0  0  0  0  0  0  0  0
   -3.3145    1.7170   -0.9207 H   0  0  0  0  0  0  0  0  0  0  0  0
  1  2  1  0
  2  3  3  0
  3  4  1  0
  4  5  3  0
  5  6  1  0
  6  7  1  0
  6  8  1  0
  8  9  1  0
  1 10  1  0
  1 11  1  0
  1 12  1  0
  6 13  1  0
  7 14  1  0
  7 15  1  0
  7 16  1  0
  9 17  1  0
  9 18  1  0
  9 19  1  0
M  END
