
     RDKit          3D

 18 18  0  0  0  0  0  0  0  0999 V2000
   -4.0426   -0.4642   -0.4362 C   0  0  0  0  0  0  0  0  0  0  0  0
   -2.4759   -0.3235   -0.4528 C   0  0  0  0  0  0  0  0  0  0  0  0
   -1.2283   -0.2252   -0.4560 C   0  0  0  0  0  0  0  0  0  0  0  0
    0.1252   -0.0998   -0.4444 C   0  0  0  0  0  0  0  0  0  0  0  0
    1.0829   -0.7625    0.4090 C   0  0  0  0  0  0  0  0  0  0  0  0
    2.4752   -0.2239   -0.0840 C   0  0  0  0  0  0  0  0  0  0  0  0
    2.6282    1.2211    0.0975 C   0  0  0  0  0  0  0  0  0  0  0  0
    3.3777    0.2019    0.8424 O   0  0  0  0  0  0  0  0  0  0  0  0
   -4.1870   -1.4978   -0.8793 H   0  0  0  0  0  0  0  0  0  0  0  0
   -4.3559    0.3200   -1.1180 H   0  0  0  0  0  0  0  0  0  0  0  0
   -4.3788   -0.4191    0.5742 H   0  0  0  0  0  0  0  0  0  0  0  0
    0.5415    0.5356   -1.2756 H   0  0  0  0  0  0  0  0  0  0  0  0
    0.1316    1.0539    0.3095 H   0  0  0  0  0  0  0  0  0  0  0  0
    1.1684   -1.8407    0.4076 H   0  0  0  0  0  0  0  0  0  0  0  0
    1.0633   -0.3446    1.5180 H   0  0  0  0  0  0  0  0  0  0  0  0
    2.7994   -0.6668   -1.0256 H   0  0  0  0  0  0  0  0  0  0  0  0
    3.3065    1.7270   -0.6038 H   0  0  0  0  0  0  0  0  0  0  0  0
    1.9686    1.8085    0.7541 H   0  0  0  0  0  0  0  0  0  0  0  0
  1  2  1  0
  2  3  3  0
  3  4  1  0
  4  5  1  0
  5  6  1  0
  6  7  1  0
  7  8  1  0
  8  6  1  0
  1  9  1  0
  1 10  1  0
  1 11  1  0
  4 12  1  0
  4 13  1  0
  5 14  1  0
  5 15  1  0
  6 16  1  0
  7 17  1  0
  7 18  1  0
M  END
