
     RDKit          3D

 20 19  0  0  0  0  0  0  0  0999 V2000
    3.1044   -1.0634   -1.9713 C   0  0  0  0  0  0  0  0  0  0  0  0
    2.1049   -0.2663   -1.2613 C   0  0  0  0  0  0  0  0  0  0  0  0
    1.2662    0.3975   -0.6547 C   0  0  0  0  0  0  0  0  0  0  0  0
    0.2531    1.1711    0.0537 C   0  0  0  0  0  0  0  0  0  0  0  0
   -0.7850    0.1482    0.5313 C   0  0  0  0  0  0  0  0  0  0  0  0
   -1.3617   -0.5602   -0.6811 C   0  0  0  0  0  0  0  0  0  0  0  0
   -1.7987    0.8660    1.1114 O   0  0  0  0  0  0  0  0  0  0  0  0
   -2.0288    0.5726    2.4381 C   0  0  0  0  0  0  0  0  0  0  0  0
    3.6235   -1.7779   -1.3091 H   0  0  0  0  0  0  0  0  0  0  0  0
    2.6302   -1.6010   -2.8201 H   0  0  0  0  0  0  0  0  0  0  0  0
    3.8454   -0.3277   -2.3846 H   0  0  0  0  0  0  0  0  0  0  0  0
   -0.2269    1.8704   -0.6391 H   0  0  0  0  0  0  0  0  0  0  0  0
    0.6750    1.7041    0.9291 H   0  0  0  0  0  0  0  0  0  0  0  0
   -0.2793   -0.5669    1.1720 H   0  0  0  0  0  0  0  0  0  0  0  0
   -2.4502   -0.3777   -0.7957 H   0  0  0  0  0  0  0  0  0  0  0  0
   -1.2476   -1.6746   -0.5984 H   0  0  0  0  0  0  0  0  0  0  0  0
   -0.8862   -0.1701   -1.6096 H   0  0  0  0  0  0  0  0  0  0  0  0
   -2.3012   -0.4649    2.6457 H   0  0  0  0  0  0  0  0  0  0  0  0
   -1.2090    0.9343    3.1014 H   0  0  0  0  0  0  0  0  0  0  0  0
   -2.9281    1.1866    2.7422 H   0  0  0  0  0  0  0  0  0  0  0  0
  1  2  1  0
  2  3  3  0
  3  4  1  0
  4  5  1  0
  5  6  1  0
  5  7  1  0
  7  8  1  0
  1  9  1  0
  1 10  1  0
  1 11  1  0
  4 12  1  0
  4 13  1  0
  5 14  1  0
  6 15  1  0
  6 16  1  0
  6 17  1  0
  8 18  1  0
  8 19  1  0
  8 20  1  0
M  END
