
     RDKit          3D

 21 21  0  0  0  0  0  0  0  0999 V2000
    2.0950    1.4695    3.2813 C   0  0  0  0  0  0  0  0  0  0  0  0
    1.3300    0.6617    2.1234 C   0  0  0  0  0  0  0  0  0  0  0  0
    0.6224   -0.1076    1.0028 C   0  0  0  0  0  0  0  0  0  0  0  0
    0.0792   -0.6759    0.1636 C   0  0  0  0  0  0  0  0  0  0  0  0
   -0.8966   -0.5526   -0.9122 C   0  0  0  0  0  0  0  0  0  0  0  0
   -0.6768    0.5523   -1.7489 O   0  0  0  0  0  0  0  0  0  0  0  0
   -0.8484    1.8231   -1.0971 C   0  0  0  0  0  0  0  0  0  0  0  0
   -0.5985   -1.7727   -2.0142 C   0  0  0  0  0  0  0  0  0  0  0  0
   -1.7186   -1.7669   -1.1619 C   0  0  0  0  0  0  0  0  0  0  0  0
    3.1005    1.4693    2.8247 H   0  0  0  0  0  0  0  0  0  0  0  0
    1.5696    2.3929    3.1648 H   0  0  0  0  0  0  0  0  0  0  0  0
    2.0010    0.6778    4.0416 H   0  0  0  0  0  0  0  0  0  0  0  0
    1.0787   -0.7889   -0.7610 H   0  0  0  0  0  0  0  0  0  0  0  0
    0.1169   -1.9069    0.5085 H   0  0  0  0  0  0  0  0  0  0  0  0
   -1.9186    1.7909   -0.7963 H   0  0  0  0  0  0  0  0  0  0  0  0
   -0.5250    2.4686   -1.8969 H   0  0  0  0  0  0  0  0  0  0  0  0
   -0.1041    1.7944   -0.2332 H   0  0  0  0  0  0  0  0  0  0  0  0
    0.4032   -2.0975   -2.0804 H   0  0  0  0  0  0  0  0  0  0  0  0
   -0.8693   -1.1755   -3.1090 H   0  0  0  0  0  0  0  0  0  0  0  0
   -1.4168   -2.5932   -0.2957 H   0  0  0  0  0  0  0  0  0  0  0  0
   -2.8239   -1.6628   -1.0036 H   0  0  0  0  0  0  0  0  0  0  0  0
  1  2  1  0
  2  3  3  0
  3  4  1  0
  4  5  1  0
  5  6  1  0
  6  7  1  0
  5  8  1  0
  8  9  1  0
  9  5  1  0
  1 10  1  0
  1 11  1  0
  1 12  1  0
  4 13  1  0
  4 14  1  0
  7 15  1  0
  7 16  1  0
  7 17  1  0
  8 18  1  0
  8 19  1  0
  9 20  1  0
  9 21  1  0
M  END
