
     RDKit          3D

 21 20  0  0  0  0  0  0  0  0999 V2000
    3.9042   -3.4974   -1.1505 C   0  0  0  0  0  0  0  0  0  0  0  0
    2.8647   -2.5752   -0.7255 C   0  0  0  0  0  0  0  0  0  0  0  0
    1.8004   -1.6292   -0.3169 C   0  0  0  0  0  0  0  0  0  0  0  0
    1.0932   -0.9912   -0.0517 C   0  0  0  0  0  0  0  0  0  0  0  0
    0.0775   -0.0452    0.3225 C   0  0  0  0  0  0  0  0  0  0  0  0
   -0.7643    0.7329    0.6454 C   0  0  0  0  0  0  0  0  0  0  0  0
   -2.0946    0.1640    1.2654 C   0  0  0  0  0  0  0  0  0  0  0  0
   -1.0603    1.9317   -0.2505 C   0  0  0  0  0  0  0  0  0  0  0  0
   -2.1465    2.7119    0.4458 C   0  0  0  0  0  0  0  0  0  0  0  0
    3.5862   -4.0452   -2.0402 H   0  0  0  0  0  0  0  0  0  0  0  0
    4.8074   -2.8788   -1.3561 H   0  0  0  0  0  0  0  0  0  0  0  0
    4.1586   -4.2104   -0.3195 H   0  0  0  0  0  0  0  0  0  0  0  0
   -0.4424    1.3850    1.6849 H   0  0  0  0  0  0  0  0  0  0  0  0
   -2.8640    0.8931    1.2837 H   0  0  0  0  0  0  0  0  0  0  0  0
   -1.7939   -0.1740    2.3036 H   0  0  0  0  0  0  0  0  0  0  0  0
   -2.3255   -0.7224    0.6492 H   0  0  0  0  0  0  0  0  0  0  0  0
   -0.1457    2.4559   -0.5070 H   0  0  0  0  0  0  0  0  0  0  0  0
   -1.5098    1.5490   -1.1837 H   0  0  0  0  0  0  0  0  0  0  0  0
   -3.1547    2.4296    0.1528 H   0  0  0  0  0  0  0  0  0  0  0  0
   -1.9704    3.8141    0.1483 H   0  0  0  0  0  0  0  0  0  0  0  0
   -2.0203    2.7018    1.5307 H   0  0  0  0  0  0  0  0  0  0  0  0
  1  2  1  0
  2  3  3  0
  3  4  1  0
  4  5  3  0
  5  6  1  0
  6  7  1  0
  6  8  1  0
  8  9  1  0
  1 10  1  0
  1 11  1  0
  1 12  1  0
  6 13  1  0
  7 14  1  0
  7 15  1  0
  7 16  1  0
  8 17  1  0
  8 18  1  0
  9 19  1  0
  9 20  1  0
  9 21  1  0
M  END
