
     RDKit          3D

 21 21  0  0  0  0  0  0  0  0999 V2000
    3.4324   -0.1982    1.7159 C   0  0  0  0  0  0  0  0  0  0  0  0
    2.0702   -0.3014    1.1514 C   0  0  0  0  0  0  0  0  0  0  0  0
    0.9587   -0.3693    0.6770 C   0  0  0  0  0  0  0  0  0  0  0  0
   -0.3921   -0.4775    0.0989 C   0  0  0  0  0  0  0  0  0  0  0  0
   -0.5120   -1.7590   -0.6930 C   0  0  0  0  0  0  0  0  0  0  0  0
   -0.7182    0.7256   -0.7282 C   0  0  0  0  0  0  0  0  0  0  0  0
   -2.1212    0.5825   -1.3115 C   0  0  0  0  0  0  0  0  0  0  0  0
   -2.4403    1.8900   -0.9578 O   0  0  0  0  0  0  0  0  0  0  0  0
   -1.4205    1.8453   -0.0274 C   0  0  0  0  0  0  0  0  0  0  0  0
    3.5654   -0.8689    2.5864 H   0  0  0  0  0  0  0  0  0  0  0  0
    4.1140   -0.5205    0.8820 H   0  0  0  0  0  0  0  0  0  0  0  0
    3.6636    0.8205    2.0412 H   0  0  0  0  0  0  0  0  0  0  0  0
   -1.1603   -0.5323    0.9119 H   0  0  0  0  0  0  0  0  0  0  0  0
   -0.0185   -2.5939   -0.1542 H   0  0  0  0  0  0  0  0  0  0  0  0
   -1.5877   -2.0245   -0.7680 H   0  0  0  0  0  0  0  0  0  0  0  0
   -0.0112   -1.6906   -1.6806 H   0  0  0  0  0  0  0  0  0  0  0  0
    0.0086    1.0023   -1.5093 H   0  0  0  0  0  0  0  0  0  0  0  0
   -2.1087    0.4005   -2.4071 H   0  0  0  0  0  0  0  0  0  0  0  0
   -2.7286   -0.2001   -0.8164 H   0  0  0  0  0  0  0  0  0  0  0  0
   -1.8098    1.5093    0.9535 H   0  0  0  0  0  0  0  0  0  0  0  0
   -0.7837    2.7601    0.0352 H   0  0  0  0  0  0  0  0  0  0  0  0
  1  2  1  0
  2  3  3  0
  3  4  1  0
  4  5  1  0
  4  6  1  0
  6  7  1  0
  7  8  1  0
  8  9  1  0
  9  6  1  0
  1 10  1  0
  1 11  1  0
  1 12  1  0
  4 13  1  0
  5 14  1  0
  5 15  1  0
  5 16  1  0
  6 17  1  0
  7 18  1  0
  7 19  1  0
  9 20  1  0
  9 21  1  0
M  END
