
     RDKit          3D

 17 17  0  0  0  0  0  0  0  0999 V2000
    3.5697   -0.1600   -0.0637 C   0  0  0  0  0  0  0  0  0  0  0  0
    2.1446    0.1918   -0.0649 C   0  0  0  0  0  0  0  0  0  0  0  0
    0.9700    0.4931   -0.0510 C   0  0  0  0  0  0  0  0  0  0  0  0
   -0.4590    0.8341   -0.0354 C   0  0  0  0  0  0  0  0  0  0  0  0
   -1.2291    0.4044    1.2473 C   0  0  0  0  0  0  0  0  0  0  0  0
   -1.4199   -0.2640   -0.1321 C   0  0  0  0  0  0  0  0  0  0  0  0
   -1.0158   -1.6001   -0.1571 O   0  0  0  0  0  0  0  0  0  0  0  0
   -2.7196   -0.0037   -0.8161 C   0  0  0  0  0  0  0  0  0  0  0  0
   -3.1500    1.1313   -0.8440 O   0  0  0  0  0  0  0  0  0  0  0  0
    4.1442    0.4259   -0.7973 H   0  0  0  0  0  0  0  0  0  0  0  0
    4.0020    0.0297    0.9469 H   0  0  0  0  0  0  0  0  0  0  0  0
    3.6405   -1.2431   -0.2500 H   0  0  0  0  0  0  0  0  0  0  0  0
   -0.7804    1.8172   -0.4369 H   0  0  0  0  0  0  0  0  0  0  0  0
   -2.0178    1.0805    1.5907 H   0  0  0  0  0  0  0  0  0  0  0  0
   -0.6380   -0.1589    2.0021 H   0  0  0  0  0  0  0  0  0  0  0  0
   -1.7459   -2.1838   -0.4752 H   0  0  0  0  0  0  0  0  0  0  0  0
   -3.2955   -0.7942   -1.2906 H   0  0  0  0  0  0  0  0  0  0  0  0
  1  2  1  0
  2  3  3  0
  3  4  1  0
  4  5  1  0
  5  6  1  0
  6  7  1  0
  6  8  1  0
  8  9  2  0
  6  4  1  0
  1 10  1  0
  1 11  1  0
  1 12  1  0
  4 13  1  0
  5 14  1  0
  5 15  1  0
  7 16  1  0
  8 17  1  0
M  END
