
     RDKit          3D

 19 19  0  0  0  0  0  0  0  0999 V2000
    3.7292    0.5793    0.8201 C   0  0  0  0  0  0  0  0  0  0  0  0
    2.4322    0.1863    0.2138 C   0  0  0  0  0  0  0  0  0  0  0  0
    1.3854   -0.1510   -0.2778 C   0  0  0  0  0  0  0  0  0  0  0  0
    0.1242   -0.5751   -0.8935 C   0  0  0  0  0  0  0  0  0  0  0  0
   -0.5100   -1.3928   -0.0158 O   0  0  0  0  0  0  0  0  0  0  0  0
   -1.8284   -1.2535    0.1910 C   0  0  0  0  0  0  0  0  0  0  0  0
   -2.4712    0.0510   -0.0802 C   0  0  0  0  0  0  0  0  0  0  0  0
   -1.3783    1.0755   -0.3014 C   0  0  0  0  0  0  0  0  0  0  0  0
   -0.5694    0.5436   -1.2945 O   0  0  0  0  0  0  0  0  0  0  0  0
    4.4130   -0.2504    0.6414 H   0  0  0  0  0  0  0  0  0  0  0  0
    4.0943    1.5312    0.3981 H   0  0  0  0  0  0  0  0  0  0  0  0
    3.5602    0.7438    1.9138 H   0  0  0  0  0  0  0  0  0  0  0  0
    0.3603   -1.1537   -1.8095 H   0  0  0  0  0  0  0  0  0  0  0  0
   -2.1213   -1.5537    1.2452 H   0  0  0  0  0  0  0  0  0  0  0  0
   -2.3521   -2.0431   -0.4294 H   0  0  0  0  0  0  0  0  0  0  0  0
   -3.0646    0.4305    0.7772 H   0  0  0  0  0  0  0  0  0  0  0  0
   -3.0876   -0.0290   -1.0050 H   0  0  0  0  0  0  0  0  0  0  0  0
   -1.8682    1.9717   -0.7231 H   0  0  0  0  0  0  0  0  0  0  0  0
   -0.8476    1.2895    0.6295 H   0  0  0  0  0  0  0  0  0  0  0  0
  1  2  1  0
  2  3  3  0
  3  4  1  0
  4  5  1  0
  5  6  1  0
  6  7  1  0
  7  8  1  0
  8  9  1  0
  9  4  1  0
  1 10  1  0
  1 11  1  0
  1 12  1  0
  4 13  1  0
  6 14  1  0
  6 15  1  0
  7 16  1  0
  7 17  1  0
  8 18  1  0
  8 19  1  0
M  END
