
     RDKit          3D

 20 20  0  0  0  0  0  0  0  0999 V2000
    2.2536    0.5806   -3.0481 C   0  0  0  0  0  0  0  0  0  0  0  0
    1.6274    0.4384   -1.7631 C   0  0  0  0  0  0  0  0  0  0  0  0
    1.0988    0.3082   -0.6303 C   0  0  0  0  0  0  0  0  0  0  0  0
    0.4771    0.1799    0.6806 C   0  0  0  0  0  0  0  0  0  0  0  0
   -0.9548    0.5083    0.7249 C   0  0  0  0  0  0  0  0  0  0  0  0
   -1.5911    1.1960    1.9175 C   0  0  0  0  0  0  0  0  0  0  0  0
   -0.4601   -0.9364    0.9528 C   0  0  0  0  0  0  0  0  0  0  0  0
   -0.8563   -1.8850   -0.1614 C   0  0  0  0  0  0  0  0  0  0  0  0
    2.2301   -0.3864   -3.6033 H   0  0  0  0  0  0  0  0  0  0  0  0
    3.3376    0.8914   -2.9643 H   0  0  0  0  0  0  0  0  0  0  0  0
    1.6863    1.3266   -3.6479 H   0  0  0  0  0  0  0  0  0  0  0  0
    1.1393    0.4658    1.5601 H   0  0  0  0  0  0  0  0  0  0  0  0
   -1.4687    0.7476   -0.2196 H   0  0  0  0  0  0  0  0  0  0  0  0
   -1.0602    2.1482    2.1593 H   0  0  0  0  0  0  0  0  0  0  0  0
   -1.5570    0.5703    2.8473 H   0  0  0  0  0  0  0  0  0  0  0  0
   -2.6309    1.4402    1.7215 H   0  0  0  0  0  0  0  0  0  0  0  0
   -0.5725   -1.3466    1.9615 H   0  0  0  0  0  0  0  0  0  0  0  0
   -0.6205   -2.9356    0.1194 H   0  0  0  0  0  0  0  0  0  0  0  0
   -1.8885   -1.7116   -0.4918 H   0  0  0  0  0  0  0  0  0  0  0  0
   -0.1899   -1.5999   -1.0404 H   0  0  0  0  0  0  0  0  0  0  0  0
  1  2  1  0
  2  3  3  0
  3  4  1  0
  4  5  1  0
  5  6  1  0
  5  7  1  0
  7  8  1  0
  7  4  1  0
  1  9  1  0
  1 10  1  0
  1 11  1  0
  4 12  1  0
  5 13  1  0
  6 14  1  0
  6 15  1  0
  6 16  1  0
  7 17  1  0
  8 18  1  0
  8 19  1  0
  8 20  1  0
M  END
