
     RDKit          3D

 21 21  0  0  0  0  0  0  0  0999 V2000
    3.9586    1.1682    0.0821 C   0  0  0  0  0  0  0  0  0  0  0  0
    2.6423    0.5727    0.3889 C   0  0  0  0  0  0  0  0  0  0  0  0
    1.5697    0.0807    0.6387 C   0  0  0  0  0  0  0  0  0  0  0  0
    0.2665   -0.5381    0.9614 C   0  0  0  0  0  0  0  0  0  0  0  0
   -0.3803   -0.9058   -0.3326 C   0  0  0  0  0  0  0  0  0  0  0  0
   -1.7543   -1.5683   -0.2341 C   0  0  0  0  0  0  0  0  0  0  0  0
   -1.5812   -0.2046   -0.8201 C   0  0  0  0  0  0  0  0  0  0  0  0
   -2.1721    0.9463   -0.0536 C   0  0  0  0  0  0  0  0  0  0  0  0
   -1.8054   -0.1355   -2.1998 O   0  0  0  0  0  0  0  0  0  0  0  0
    4.7369    0.7761    0.8005 H   0  0  0  0  0  0  0  0  0  0  0  0
    3.9282    2.2641    0.2586 H   0  0  0  0  0  0  0  0  0  0  0  0
    4.2076    0.9206   -0.9575 H   0  0  0  0  0  0  0  0  0  0  0  0
   -0.3319    0.1181    1.6051 H   0  0  0  0  0  0  0  0  0  0  0  0
    0.4371   -1.4920    1.5355 H   0  0  0  0  0  0  0  0  0  0  0  0
    0.2978   -1.3895   -1.0615 H   0  0  0  0  0  0  0  0  0  0  0  0
   -2.1781   -1.6950    0.7921 H   0  0  0  0  0  0  0  0  0  0  0  0
   -1.9645   -2.4296   -0.9016 H   0  0  0  0  0  0  0  0  0  0  0  0
   -1.6515    1.8985   -0.3396 H   0  0  0  0  0  0  0  0  0  0  0  0
   -2.1937    0.7949    1.0325 H   0  0  0  0  0  0  0  0  0  0  0  0
   -3.2318    1.0860   -0.3760 H   0  0  0  0  0  0  0  0  0  0  0  0
   -2.7998   -0.2677   -2.3070 H   0  0  0  0  0  0  0  0  0  0  0  0
  1  2  1  0
  2  3  3  0
  3  4  1  0
  4  5  1  0
  5  6  1  0
  6  7  1  0
  7  8  1  0
  7  9  1  0
  7  5  1  0
  1 10  1  0
  1 11  1  0
  1 12  1  0
  4 13  1  0
  4 14  1  0
  5 15  1  0
  6 16  1  0
  6 17  1  0
  8 18  1  0
  8 19  1  0
  8 20  1  0
  9 21  1  0
M  END
