
     RDKit          3D

 12 11  0  0  0  0  0  0  0  0999 V2000
    2.5254   -0.7181    0.5960 C   0  0  0  0  0  0  0  0  0  0  0  0
    1.2576   -0.2196    0.1150 C   0  0  0  0  0  0  0  0  0  0  0  0
    0.1913    0.2216   -0.2943 C   0  0  0  0  0  0  0  0  0  0  0  0
   -1.0642    0.7403   -0.7499 C   0  0  0  0  0  0  0  0  0  0  0  0
   -2.3761    0.3122   -0.2107 C   0  0  0  0  0  0  0  0  0  0  0  0
   -1.0578    1.6065   -1.6566 O   0  0  0  0  0  0  0  0  0  0  0  0
    2.4921   -0.9591    1.6979 H   0  0  0  0  0  0  0  0  0  0  0  0
    2.7810   -1.6835    0.1140 H   0  0  0  0  0  0  0  0  0  0  0  0
    3.3428    0.0239    0.5047 H   0  0  0  0  0  0  0  0  0  0  0  0
   -2.3819    0.5696    0.8892 H   0  0  0  0  0  0  0  0  0  0  0  0
   -3.2008    0.8886   -0.6630 H   0  0  0  0  0  0  0  0  0  0  0  0
   -2.5094   -0.7824   -0.3423 H   0  0  0  0  0  0  0  0  0  0  0  0
  1  2  1  0
  2  3  3  0
  3  4  1  0
  4  5  1  0
  4  6  2  0
  1  7  1  0
  1  8  1  0
  1  9  1  0
  5 10  1  0
  5 11  1  0
  5 12  1  0
M  END
