
     RDKit          3D

 17 17  0  0  0  0  0  0  0  0999 V2000
    3.4695    0.9909    0.5813 C   0  0  0  0  0  0  0  0  0  0  0  0
    2.0587    0.7715    0.4666 C   0  0  0  0  0  0  0  0  0  0  0  0
    0.8139    0.5556    0.3641 C   0  0  0  0  0  0  0  0  0  0  0  0
   -0.5900    0.3046    0.2349 C   0  0  0  0  0  0  0  0  0  0  0  0
   -0.8677   -1.2455    0.4135 C   0  0  0  0  0  0  0  0  0  0  0  0
   -2.1394   -1.7649    0.0438 C   0  0  0  0  0  0  0  0  0  0  0  0
    0.0822   -1.7884    0.8526 O   0  0  0  0  0  0  0  0  0  0  0  0
   -1.6149    1.1870   -0.0969 C   0  0  0  0  0  0  0  0  0  0  0  0
   -1.0844    0.4956   -1.1919 O   0  0  0  0  0  0  0  0  0  0  0  0
    3.7993    0.6044    1.5880 H   0  0  0  0  0  0  0  0  0  0  0  0
    3.6987    2.0906    0.5817 H   0  0  0  0  0  0  0  0  0  0  0  0
    4.0801    0.4730   -0.1745 H   0  0  0  0  0  0  0  0  0  0  0  0
   -2.1140   -2.5436   -0.7777 H   0  0  0  0  0  0  0  0  0  0  0  0
   -2.9051   -0.9993   -0.2371 H   0  0  0  0  0  0  0  0  0  0  0  0
   -2.5929   -2.2840    0.9376 H   0  0  0  0  0  0  0  0  0  0  0  0
   -1.4295    2.2776   -0.0797 H   0  0  0  0  0  0  0  0  0  0  0  0
   -2.6644    0.8747    0.2207 H   0  0  0  0  0  0  0  0  0  0  0  0
  1  2  1  0
  2  3  3  0
  3  4  1  0
  4  5  1  0
  5  6  1  0
  5  7  2  0
  4  8  1  0
  8  9  1  0
  9  4  1  0
  1 10  1  0
  1 11  1  0
  1 12  1  0
  6 13  1  0
  6 14  1  0
  6 15  1  0
  8 16  1  0
  8 17  1  0
M  END
