
     RDKit          3D

 17 17  0  0  0  0  0  0  0  0999 V2000
    3.9800    0.5374    0.4325 C   0  0  0  0  0  0  0  0  0  0  0  0
    2.6583    0.0226    0.0740 C   0  0  0  0  0  0  0  0  0  0  0  0
    1.5630   -0.4109   -0.2032 C   0  0  0  0  0  0  0  0  0  0  0  0
    0.2560   -0.9060   -0.5177 C   0  0  0  0  0  0  0  0  0  0  0  0
    0.0261   -1.7240   -1.4449 O   0  0  0  0  0  0  0  0  0  0  0  0
   -0.9105   -0.4476    0.2753 C   0  0  0  0  0  0  0  0  0  0  0  0
   -1.8663   -1.4278    0.6127 O   0  0  0  0  0  0  0  0  0  0  0  0
   -2.2081   -0.4136   -0.3903 C   0  0  0  0  0  0  0  0  0  0  0  0
   -3.2023    0.6181    0.1106 C   0  0  0  0  0  0  0  0  0  0  0  0
    4.6552    0.3449   -0.4166 H   0  0  0  0  0  0  0  0  0  0  0  0
    4.3468    0.1554    1.3966 H   0  0  0  0  0  0  0  0  0  0  0  0
    3.9565    1.6598    0.5437 H   0  0  0  0  0  0  0  0  0  0  0  0
   -0.6539    0.2717    1.0793 H   0  0  0  0  0  0  0  0  0  0  0  0
   -2.2881   -0.8152   -1.4008 H   0  0  0  0  0  0  0  0  0  0  0  0
   -4.2315    0.2216    0.0020 H   0  0  0  0  0  0  0  0  0  0  0  0
   -3.0503    1.6025   -0.3513 H   0  0  0  0  0  0  0  0  0  0  0  0
   -3.0310    0.7109    1.2166 H   0  0  0  0  0  0  0  0  0  0  0  0
  1  2  1  0
  2  3  3  0
  3  4  1  0
  4  5  2  0
  4  6  1  0
  6  7  1  0
  7  8  1  0
  8  9  1  0
  8  6  1  0
  1 10  1  0
  1 11  1  0
  1 12  1  0
  6 13  1  0
  8 14  1  0
  9 15  1  0
  9 16  1  0
  9 17  1  0
M  END
