
     RDKit          3D

 19 20  0  0  0  0  0  0  0  0999 V2000
    3.8749    0.4579    0.0075 C   0  0  0  0  0  0  0  0  0  0  0  0
    2.5259   -0.0876   -0.1072 C   0  0  0  0  0  0  0  0  0  0  0  0
    1.4091   -0.5266   -0.2166 C   0  0  0  0  0  0  0  0  0  0  0  0
    0.0214   -1.0535   -0.3324 C   0  0  0  0  0  0  0  0  0  0  0  0
   -0.8401   -0.8027    0.7585 C   0  0  0  0  0  0  0  0  0  0  0  0
   -1.6602    0.4676    1.0341 C   0  0  0  0  0  0  0  0  0  0  0  0
   -2.4755   -0.1705   -0.1177 C   0  0  0  0  0  0  0  0  0  0  0  0
   -3.2909    0.7477   -0.7197 O   0  0  0  0  0  0  0  0  0  0  0  0
   -1.0695   -0.2219   -0.7041 C   0  0  0  0  0  0  0  0  0  0  0  0
    4.6546   -0.3377   -0.1085 H   0  0  0  0  0  0  0  0  0  0  0  0
    4.0133    1.2501   -0.7616 H   0  0  0  0  0  0  0  0  0  0  0  0
    4.0037    0.8732    1.0236 H   0  0  0  0  0  0  0  0  0  0  0  0
    0.0619   -2.0748   -0.8180 H   0  0  0  0  0  0  0  0  0  0  0  0
   -1.5378   -1.6645    1.0136 H   0  0  0  0  0  0  0  0  0  0  0  0
   -1.1580    1.4011    0.7343 H   0  0  0  0  0  0  0  0  0  0  0  0
   -2.1583    0.4505    1.9981 H   0  0  0  0  0  0  0  0  0  0  0  0
   -2.8987   -1.1122    0.2049 H   0  0  0  0  0  0  0  0  0  0  0  0
   -2.7157    1.5338   -0.9750 H   0  0  0  0  0  0  0  0  0  0  0  0
   -0.7602    0.8701   -0.8095 H   0  0  0  0  0  0  0  0  0  0  0  0
  1  2  1  0
  2  3  3  0
  3  4  1  0
  4  5  1  0
  5  6  1  0
  6  7  1  0
  7  8  1  0
  7  9  1  0
  9  4  1  0
  9  5  1  0
  1 10  1  0
  1 11  1  0
  1 12  1  0
  4 13  1  0
  5 14  1  0
  6 15  1  0
  6 16  1  0
  7 17  1  0
  8 18  1  0
  9 19  1  0
M  END
