
     RDKit          3D

 18 18  0  0  0  0  0  0  0  0999 V2000
   -3.8914    0.4493    0.0599 C   0  0  0  0  0  0  0  0  0  0  0  0
   -2.4225    0.3602    0.0554 C   0  0  0  0  0  0  0  0  0  0  0  0
   -1.2095    0.2976    0.0352 C   0  0  0  0  0  0  0  0  0  0  0  0
    0.2291    0.2446    0.0067 C   0  0  0  0  0  0  0  0  0  0  0  0
    0.8356   -1.0257    0.5580 C   0  0  0  0  0  0  0  0  0  0  0  0
    1.8372   -0.6864   -0.5193 C   0  0  0  0  0  0  0  0  0  0  0  0
    2.8325    0.3720   -0.1813 C   0  0  0  0  0  0  0  0  0  0  0  0
    0.7615   -0.1280   -1.2474 O   0  0  0  0  0  0  0  0  0  0  0  0
   -4.2424    1.4619   -0.1831 H   0  0  0  0  0  0  0  0  0  0  0  0
   -4.2966   -0.3309   -0.6068 H   0  0  0  0  0  0  0  0  0  0  0  0
   -4.2489    0.2154    1.1014 H   0  0  0  0  0  0  0  0  0  0  0  0
    0.7702    1.1411    0.3632 H   0  0  0  0  0  0  0  0  0  0  0  0
    0.2771   -1.9249    0.2812 H   0  0  0  0  0  0  0  0  0  0  0  0
    1.1840   -0.9471    1.5924 H   0  0  0  0  0  0  0  0  0  0  0  0
    2.2327   -1.5422   -1.0733 H   0  0  0  0  0  0  0  0  0  0  0  0
    2.5503    1.3688   -0.6074 H   0  0  0  0  0  0  0  0  0  0  0  0
    2.9632    0.5361    0.9084 H   0  0  0  0  0  0  0  0  0  0  0  0
    3.8379    0.1383   -0.6390 H   0  0  0  0  0  0  0  0  0  0  0  0
  1  2  1  0
  2  3  3  0
  3  4  1  0
  4  5  1  0
  5  6  1  0
  6  7  1  0
  6  8  1  0
  8  4  1  0
  1  9  1  0
  1 10  1  0
  1 11  1  0
  4 12  1  0
  5 13  1  0
  5 14  1  0
  6 15  1  0
  7 16  1  0
  7 17  1  0
  7 18  1  0
M  END
