
     RDKit          3D

 21 21  0  0  0  0  0  0  0  0999 V2000
    3.6932    0.3348    0.1675 C   0  0  0  0  0  0  0  0  0  0  0  0
    2.3076   -0.0514   -0.0492 C   0  0  0  0  0  0  0  0  0  0  0  0
    1.1530   -0.3588   -0.2452 C   0  0  0  0  0  0  0  0  0  0  0  0
   -0.2401   -0.7050   -0.4720 C   0  0  0  0  0  0  0  0  0  0  0  0
   -0.6996   -2.0245    0.0438 C   0  0  0  0  0  0  0  0  0  0  0  0
   -0.8506   -0.1212   -1.5728 O   0  0  0  0  0  0  0  0  0  0  0  0
   -1.2289    0.4213   -0.2993 C   0  0  0  0  0  0  0  0  0  0  0  0
   -2.6674    0.0952    0.0185 C   0  0  0  0  0  0  0  0  0  0  0  0
   -0.6773    1.7667    0.0513 C   0  0  0  0  0  0  0  0  0  0  0  0
    4.4214   -0.3953   -0.2248 H   0  0  0  0  0  0  0  0  0  0  0  0
    3.9072    1.3001   -0.3644 H   0  0  0  0  0  0  0  0  0  0  0  0
    3.8222    0.5509    1.2435 H   0  0  0  0  0  0  0  0  0  0  0  0
   -1.3233   -2.5935   -0.6722 H   0  0  0  0  0  0  0  0  0  0  0  0
   -1.2535   -1.8381    1.0057 H   0  0  0  0  0  0  0  0  0  0  0  0
    0.1876   -2.6504    0.2727 H   0  0  0  0  0  0  0  0  0  0  0  0
   -2.8996    0.1538    1.0871 H   0  0  0  0  0  0  0  0  0  0  0  0
   -2.8678   -0.9363   -0.3277 H   0  0  0  0  0  0  0  0  0  0  0  0
   -3.2995    0.7862   -0.5631 H   0  0  0  0  0  0  0  0  0  0  0  0
   -0.6969    2.4888   -0.7865 H   0  0  0  0  0  0  0  0  0  0  0  0
    0.4078    1.6553    0.3242 H   0  0  0  0  0  0  0  0  0  0  0  0
   -1.1955    2.1212    0.9500 H   0  0  0  0  0  0  0  0  0  0  0  0
  1  2  1  0
  2  3  3  0
  3  4  1  0
  4  5  1  0
  4  6  1  0
  6  7  1  0
  7  8  1  0
  7  9  1  0
  7  4  1  0
  1 10  1  0
  1 11  1  0
  1 12  1  0
  5 13  1  0
  5 14  1  0
  5 15  1  0
  8 16  1  0
  8 17  1  0
  8 18  1  0
  9 19  1  0
  9 20  1  0
  9 21  1  0
M  END
