
     RDKit          3D

 19 20  0  0  0  0  0  0  0  0999 V2000
    3.4396   -0.2863    1.0402 C   0  0  0  0  0  0  0  0  0  0  0  0
    2.3032    0.1315    0.1842 C   0  0  0  0  0  0  0  0  0  0  0  0
    1.3810    0.4909   -0.5047 C   0  0  0  0  0  0  0  0  0  0  0  0
    0.2412    0.9308   -1.3257 C   0  0  0  0  0  0  0  0  0  0  0  0
   -0.9786    0.2972   -0.8470 C   0  0  0  0  0  0  0  0  0  0  0  0
   -1.5509    0.4347    0.5173 C   0  0  0  0  0  0  0  0  0  0  0  0
   -2.4119   -0.7996    0.1945 C   0  0  0  0  0  0  0  0  0  0  0  0
   -1.7497   -0.7563   -1.1906 C   0  0  0  0  0  0  0  0  0  0  0  0
   -2.0667    0.4589   -1.8502 O   0  0  0  0  0  0  0  0  0  0  0  0
    3.7891    0.5421    1.6745 H   0  0  0  0  0  0  0  0  0  0  0  0
    4.2949   -0.6424    0.4289 H   0  0  0  0  0  0  0  0  0  0  0  0
    3.0950   -1.0963    1.7010 H   0  0  0  0  0  0  0  0  0  0  0  0
    0.4459    0.6105   -2.3689 H   0  0  0  0  0  0  0  0  0  0  0  0
    0.1556    2.0409   -1.3113 H   0  0  0  0  0  0  0  0  0  0  0  0
   -0.9005    0.1974    1.3544 H   0  0  0  0  0  0  0  0  0  0  0  0
   -2.1709    1.3690    0.6260 H   0  0  0  0  0  0  0  0  0  0  0  0
   -3.5084   -0.5572    0.1389 H   0  0  0  0  0  0  0  0  0  0  0  0
   -2.1490   -1.6965    0.7602 H   0  0  0  0  0  0  0  0  0  0  0  0
   -1.6590   -1.6692   -1.7691 H   0  0  0  0  0  0  0  0  0  0  0  0
  1  2  1  0
  2  3  3  0
  3  4  1  0
  4  5  1  0
  5  6  1  0
  6  7  1  0
  7  8  1  0
  8  9  1  0
  8  5  1  0
  9  5  1  0
  1 10  1  0
  1 11  1  0
  1 12  1  0
  4 13  1  0
  4 14  1  0
  6 15  1  0
  6 16  1  0
  7 17  1  0
  7 18  1  0
  8 19  1  0
M  END
