
     RDKit          3D

 19 20  0  0  0  0  0  0  0  0999 V2000
    3.6926    0.0206   -0.1381 C   0  0  0  0  0  0  0  0  0  0  0  0
    2.3475   -0.1432    0.4607 C   0  0  0  0  0  0  0  0  0  0  0  0
    1.2582   -0.2555    0.9495 C   0  0  0  0  0  0  0  0  0  0  0  0
   -0.0551   -0.3657    1.5360 C   0  0  0  0  0  0  0  0  0  0  0  0
   -1.0145   -0.8832    0.4573 C   0  0  0  0  0  0  0  0  0  0  0  0
   -1.1274   -0.0365   -0.7086 C   0  0  0  0  0  0  0  0  0  0  0  0
   -2.1785    1.0678   -0.9017 C   0  0  0  0  0  0  0  0  0  0  0  0
   -3.0408   -0.0623   -0.8564 O   0  0  0  0  0  0  0  0  0  0  0  0
   -2.3060   -0.3138    0.3110 C   0  0  0  0  0  0  0  0  0  0  0  0
    4.4367    0.0177    0.6785 H   0  0  0  0  0  0  0  0  0  0  0  0
    3.8669   -0.8149   -0.8655 H   0  0  0  0  0  0  0  0  0  0  0  0
    3.7240    0.9496   -0.7374 H   0  0  0  0  0  0  0  0  0  0  0  0
   -0.1411   -1.0381    2.3902 H   0  0  0  0  0  0  0  0  0  0  0  0
   -0.4485    0.6642    1.7858 H   0  0  0  0  0  0  0  0  0  0  0  0
   -0.9349   -2.0121    0.4005 H   0  0  0  0  0  0  0  0  0  0  0  0
   -1.1822   -0.6657   -1.6538 H   0  0  0  0  0  0  0  0  0  0  0  0
   -2.2776    1.7763   -0.0892 H   0  0  0  0  0  0  0  0  0  0  0  0
   -2.1029    1.5436   -1.8787 H   0  0  0  0  0  0  0  0  0  0  0  0
   -2.5164    0.5511    1.0151 H   0  0  0  0  0  0  0  0  0  0  0  0
  1  2  1  0
  2  3  3  0
  3  4  1  0
  4  5  1  0
  5  6  1  0
  6  7  1  0
  7  8  1  0
  8  9  1  0
  9  5  1  0
  9  6  1  0
  1 10  1  0
  1 11  1  0
  1 12  1  0
  4 13  1  0
  4 14  1  0
  5 15  1  0
  6 16  1  0
  7 17  1  0
  7 18  1  0
  9 19  1  0
M  END
