
     RDKit          3D

 19 20  0  0  0  0  0  0  0  0999 V2000
    3.6712    0.6435    0.2753 C   0  0  0  0  0  0  0  0  0  0  0  0
    2.2536    0.4871   -0.0624 C   0  0  0  0  0  0  0  0  0  0  0  0
    1.0674    0.3566   -0.3230 C   0  0  0  0  0  0  0  0  0  0  0  0
   -0.3414    0.2216   -0.6464 C   0  0  0  0  0  0  0  0  0  0  0  0
   -1.2194    0.9584    0.3884 C   0  0  0  0  0  0  0  0  0  0  0  0
   -1.9819   -0.2675    0.8637 C   0  0  0  0  0  0  0  0  0  0  0  0
   -2.2978   -1.0687   -0.3524 C   0  0  0  0  0  0  0  0  0  0  0  0
   -0.7784   -1.1780   -0.3054 C   0  0  0  0  0  0  0  0  0  0  0  0
   -0.9103   -1.1660    1.0780 O   0  0  0  0  0  0  0  0  0  0  0  0
    4.2478    1.0458   -0.5828 H   0  0  0  0  0  0  0  0  0  0  0  0
    4.0408   -0.3389    0.6280 H   0  0  0  0  0  0  0  0  0  0  0  0
    3.8259    1.3566    1.1182 H   0  0  0  0  0  0  0  0  0  0  0  0
   -0.5950    0.5219   -1.6693 H   0  0  0  0  0  0  0  0  0  0  0  0
   -0.5938    1.3876    1.1961 H   0  0  0  0  0  0  0  0  0  0  0  0
   -1.8624    1.6992   -0.0903 H   0  0  0  0  0  0  0  0  0  0  0  0
   -2.6927   -0.1537    1.6471 H   0  0  0  0  0  0  0  0  0  0  0  0
   -2.8398   -1.9848   -0.0936 H   0  0  0  0  0  0  0  0  0  0  0  0
   -2.6746   -0.5126   -1.2331 H   0  0  0  0  0  0  0  0  0  0  0  0
   -0.3193   -2.0081   -0.7843 H   0  0  0  0  0  0  0  0  0  0  0  0
  1  2  1  0
  2  3  3  0
  3  4  1  0
  4  5  1  0
  5  6  1  0
  6  7  1  0
  7  8  1  0
  8  9  1  0
  8  4  1  0
  9  6  1  0
  1 10  1  0
  1 11  1  0
  1 12  1  0
  4 13  1  0
  5 14  1  0
  5 15  1  0
  6 16  1  0
  7 17  1  0
  7 18  1  0
  8 19  1  0
M  END
