
     RDKit          3D

 19 18  0  0  0  0  0  0  0  0999 V2000
    3.2796    0.6619    0.8869 C   0  0  0  0  0  0  0  0  0  0  0  0
    2.1033   -0.0006    0.3123 C   0  0  0  0  0  0  0  0  0  0  0  0
    1.1333   -0.5682   -0.1651 C   0  0  0  0  0  0  0  0  0  0  0  0
   -0.0283   -1.2412   -0.7562 C   0  0  0  0  0  0  0  0  0  0  0  0
   -1.1661   -1.1056    0.2102 C   0  0  0  0  0  0  0  0  0  0  0  0
   -1.5434    0.3170    0.5070 C   0  0  0  0  0  0  0  0  0  0  0  0
   -1.9643    1.0356   -0.7578 C   0  0  0  0  0  0  0  0  0  0  0  0
    4.2014    0.4148    0.2958 H   0  0  0  0  0  0  0  0  0  0  0  0
    3.3758    0.3329    1.9256 H   0  0  0  0  0  0  0  0  0  0  0  0
    3.1845    1.7779    0.7954 H   0  0  0  0  0  0  0  0  0  0  0  0
   -0.2575   -0.8235   -1.7580 H   0  0  0  0  0  0  0  0  0  0  0  0
    0.1611   -2.3296   -0.8811 H   0  0  0  0  0  0  0  0  0  0  0  0
   -2.0681   -1.5590   -0.2895 H   0  0  0  0  0  0  0  0  0  0  0  0
   -0.9681   -1.6805    1.1078 H   0  0  0  0  0  0  0  0  0  0  0  0
   -0.7890    0.8629    1.0792 H   0  0  0  0  0  0  0  0  0  0  0  0
   -2.4751    0.2642    1.1318 H   0  0  0  0  0  0  0  0  0  0  0  0
   -1.0571    1.5240   -1.1932 H   0  0  0  0  0  0  0  0  0  0  0  0
   -2.7806    1.7689   -0.5642 H   0  0  0  0  0  0  0  0  0  0  0  0
   -2.3414    0.3480   -1.5271 H   0  0  0  0  0  0  0  0  0  0  0  0
  1  2  1  0
  2  3  3  0
  3  4  1  0
  4  5  1  0
  5  6  1  0
  6  7  1  0
  1  8  1  0
  1  9  1  0
  1 10  1  0
  4 11  1  0
  4 12  1  0
  5 13  1  0
  5 14  1  0
  6 15  1  0
  6 16  1  0
  7 17  1  0
  7 18  1  0
  7 19  1  0
M  END
