
     RDKit          3D

 11 10  0  0  0  0  0  0  0  0999 V2000
   -3.0497    0.0919    0.2584 C   0  0  0  0  0  0  0  0  0  0  0  0
   -1.5967    0.1554    0.1066 C   0  0  0  0  0  0  0  0  0  0  0  0
   -0.3813    0.2223   -0.0054 C   0  0  0  0  0  0  0  0  0  0  0  0
    1.0260    0.3158   -0.1217 C   0  0  0  0  0  0  0  0  0  0  0  0
    2.2277    0.3919   -0.2121 C   0  0  0  0  0  0  0  0  0  0  0  0
    3.6455    0.4960   -0.3124 C   0  0  0  0  0  0  0  0  0  0  0  0
    4.3593    0.2793    0.6877 O   0  0  0  0  0  0  0  0  0  0  0  0
   -3.3652   -0.3604    1.2019 H   0  0  0  0  0  0  0  0  0  0  0  0
   -3.5042    1.1030    0.2131 H   0  0  0  0  0  0  0  0  0  0  0  0
   -3.4398   -0.5402   -0.5604 H   0  0  0  0  0  0  0  0  0  0  0  0
    4.0785    0.7617   -1.2557 H   0  0  0  0  0  0  0  0  0  0  0  0
  1  2  1  0
  2  3  3  0
  3  4  1  0
  4  5  3  0
  5  6  1  0
  6  7  2  0
  1  8  1  0
  1  9  1  0
  1 10  1  0
  6 11  1  0
M  END
