
     RDKit          3D

  9  8  0  0  0  0  0  0  0  0999 V2000
   -1.7641   -0.2461   -0.4394 C   0  0  0  0  0  0  0  0  0  0  0  0
   -0.3641   -0.0397   -0.1092 C   0  0  0  0  0  0  0  0  0  0  0  0
    0.8037    0.1118    0.1602 C   0  0  0  0  0  0  0  0  0  0  0  0
    2.1827    0.2945    0.5036 C   0  0  0  0  0  0  0  0  0  0  0  0
    2.5355    0.2912    1.7084 O   0  0  0  0  0  0  0  0  0  0  0  0
   -1.9933   -1.3298   -0.3934 H   0  0  0  0  0  0  0  0  0  0  0  0
   -1.9416    0.1621   -1.4480 H   0  0  0  0  0  0  0  0  0  0  0  0
   -2.4175    0.3173    0.2491 H   0  0  0  0  0  0  0  0  0  0  0  0
    2.9586    0.4389   -0.2315 H   0  0  0  0  0  0  0  0  0  0  0  0
  1  2  1  0
  2  3  3  0
  3  4  1  0
  4  5  2  0
  1  6  1  0
  1  7  1  0
  1  8  1  0
  4  9  1  0
M  END
