
     RDKit          3D

 21 20  0  0  0  0  0  0  0  0999 V2000
    3.7749    1.0173   -0.6327 C   0  0  0  0  0  0  0  0  0  0  0  0
    2.3475    0.6673   -0.7374 C   0  0  0  0  0  0  0  0  0  0  0  0
    1.1811    0.3683   -0.8077 C   0  0  0  0  0  0  0  0  0  0  0  0
   -0.2554    0.0212   -0.8932 C   0  0  0  0  0  0  0  0  0  0  0  0
   -0.7217   -0.1641    0.5452 C   0  0  0  0  0  0  0  0  0  0  0  0
    0.1171   -1.2937    1.1427 C   0  0  0  0  0  0  0  0  0  0  0  0
   -2.1466   -0.5515    0.5091 C   0  0  0  0  0  0  0  0  0  0  0  0
   -3.1562    0.3379   -0.0996 C   0  0  0  0  0  0  0  0  0  0  0  0
   -2.4848   -1.6084    0.9840 O   0  0  0  0  0  0  0  0  0  0  0  0
    3.8048    2.0610   -0.2504 H   0  0  0  0  0  0  0  0  0  0  0  0
    4.3139    0.8927   -1.5730 H   0  0  0  0  0  0  0  0  0  0  0  0
    4.2926    0.3942    0.1355 H   0  0  0  0  0  0  0  0  0  0  0  0
   -0.8329    0.8728   -1.3070 H   0  0  0  0  0  0  0  0  0  0  0  0
   -0.4138   -0.9272   -1.4444 H   0  0  0  0  0  0  0  0  0  0  0  0
   -0.5232    0.7219    1.1598 H   0  0  0  0  0  0  0  0  0  0  0  0
   -0.0809   -1.3950    2.2307 H   0  0  0  0  0  0  0  0  0  0  0  0
   -0.0515   -2.2135    0.5737 H   0  0  0  0  0  0  0  0  0  0  0  0
    1.1884   -0.9495    1.0662 H   0  0  0  0  0  0  0  0  0  0  0  0
   -3.8430   -0.2065   -0.7806 H   0  0  0  0  0  0  0  0  0  0  0  0
   -3.8170    0.7267    0.7295 H   0  0  0  0  0  0  0  0  0  0  0  0
   -2.6931    1.2282   -0.5501 H   0  0  0  0  0  0  0  0  0  0  0  0
  1  2  1  0
  2  3  3  0
  3  4  1  0
  4  5  1  0
  5  6  1  0
  5  7  1  0
  7  8  1  0
  7  9  2  0
  1 10  1  0
  1 11  1  0
  1 12  1  0
  4 13  1  0
  4 14  1  0
  5 15  1  0
  6 16  1  0
  6 17  1  0
  6 18  1  0
  8 19  1  0
  8 20  1  0
  8 21  1  0
M  END
