
     RDKit          3D

 16 16  0  0  0  0  0  0  0  0999 V2000
    2.6069    1.6462   -0.6706 C   0  0  0  0  0  0  0  0  0  0  0  0
    1.4815    1.0496    0.0778 C   0  0  0  0  0  0  0  0  0  0  0  0
    0.5476    0.5781    0.6883 C   0  0  0  0  0  0  0  0  0  0  0  0
   -0.5968    0.0253    1.4156 C   0  0  0  0  0  0  0  0  0  0  0  0
   -0.4009   -1.2685    1.8932 O   0  0  0  0  0  0  0  0  0  0  0  0
   -1.1348   -1.8621    0.8609 C   0  0  0  0  0  0  0  0  0  0  0  0
   -1.6128   -0.5040    0.4612 C   0  0  0  0  0  0  0  0  0  0  0  0
   -1.3557   -0.2292   -0.8757 O   0  0  0  0  0  0  0  0  0  0  0  0
    2.6239    2.7630   -0.5104 H   0  0  0  0  0  0  0  0  0  0  0  0
    3.5376    1.2087   -0.2792 H   0  0  0  0  0  0  0  0  0  0  0  0
    2.4519    1.4387   -1.7621 H   0  0  0  0  0  0  0  0  0  0  0  0
   -1.0097    0.7328    2.1681 H   0  0  0  0  0  0  0  0  0  0  0  0
   -1.9481   -2.5347    1.1991 H   0  0  0  0  0  0  0  0  0  0  0  0
   -0.4288   -2.2925    0.1203 H   0  0  0  0  0  0  0  0  0  0  0  0
   -2.6464   -0.2366    0.7963 H   0  0  0  0  0  0  0  0  0  0  0  0
   -2.1153   -0.5148   -1.4375 H   0  0  0  0  0  0  0  0  0  0  0  0
  1  2  1  0
  2  3  3  0
  3  4  1  0
  4  5  1  0
  5  6  1  0
  6  7  1  0
  7  8  1  0
  7  4  1  0
  1  9  1  0
  1 10  1  0
  1 11  1  0
  4 12  1  0
  6 13  1  0
  6 14  1  0
  7 15  1  0
  8 16  1  0
M  END
