
     RDKit          3D

 23 23  0  0  0  0  0  0  0  0999 V2000
    3.4715    0.3930    1.2673 C   0  0  0  0  0  0  0  0  0  0  0  0
    2.1764    0.1497    0.6269 C   0  0  0  0  0  0  0  0  0  0  0  0
    1.1147   -0.0703    0.0930 C   0  0  0  0  0  0  0  0  0  0  0  0
   -0.1847   -0.3172   -0.5724 C   0  0  0  0  0  0  0  0  0  0  0  0
    0.0059   -0.2931   -2.0933 C   0  0  0  0  0  0  0  0  0  0  0  0
   -0.7511   -1.6499   -0.2170 C   0  0  0  0  0  0  0  0  0  0  0  0
   -1.1140    0.7916   -0.2111 C   0  0  0  0  0  0  0  0  0  0  0  0
   -1.4635    1.0403    1.2242 C   0  0  0  0  0  0  0  0  0  0  0  0
   -2.4957    0.5222    0.2947 C   0  0  0  0  0  0  0  0  0  0  0  0
    3.8389    1.4201    1.0461 H   0  0  0  0  0  0  0  0  0  0  0  0
    4.2566   -0.3038    0.8911 H   0  0  0  0  0  0  0  0  0  0  0  0
    3.3526    0.2007    2.3400 H   0  0  0  0  0  0  0  0  0  0  0  0
    0.4092   -1.2583   -2.4612 H   0  0  0  0  0  0  0  0  0  0  0  0
   -0.9076    0.0336   -2.6047 H   0  0  0  0  0  0  0  0  0  0  0  0
    0.7906    0.4718   -2.2957 H   0  0  0  0  0  0  0  0  0  0  0  0
   -1.2535   -1.7022    0.7540 H   0  0  0  0  0  0  0  0  0  0  0  0
   -1.5329   -1.8970   -0.9847 H   0  0  0  0  0  0  0  0  0  0  0  0
    0.0052   -2.4595   -0.2619 H   0  0  0  0  0  0  0  0  0  0  0  0
   -1.0461    1.6795   -0.8815 H   0  0  0  0  0  0  0  0  0  0  0  0
   -1.5466    2.0997    1.5670 H   0  0  0  0  0  0  0  0  0  0  0  0
   -0.9352    0.3987    1.9428 H   0  0  0  0  0  0  0  0  0  0  0  0
   -2.8689   -0.4923    0.4578 H   0  0  0  0  0  0  0  0  0  0  0  0
   -3.3219    1.2427    0.0302 H   0  0  0  0  0  0  0  0  0  0  0  0
  1  2  1  0
  2  3  3  0
  3  4  1  0
  4  5  1  0
  4  6  1  0
  4  7  1  0
  7  8  1  0
  8  9  1  0
  9  7  1  0
  1 10  1  0
  1 11  1  0
  1 12  1  0
  5 13  1  0
  5 14  1  0
  5 15  1  0
  6 16  1  0
  6 17  1  0
  6 18  1  0
  7 19  1  0
  8 20  1  0
  8 21  1  0
  9 22  1  0
  9 23  1  0
M  END
