
     RDKit          3D

 21 20  0  0  0  0  0  0  0  0999 V2000
    3.9468   -0.5852   -0.6055 C   0  0  0  0  0  0  0  0  0  0  0  0
    2.2051   -0.0401   -0.2015 C   0  0  0  0  0  0  0  0  0  0  0  0
    0.8521    0.3780    0.0865 C   0  0  0  0  0  0  0  0  0  0  0  0
   -0.1312    0.6814    0.2990 C   0  0  0  0  0  0  0  0  0  0  0  0
   -0.5421    0.1805    1.7146 C   0  0  0  0  0  0  0  0  0  0  0  0
   -1.3370    0.1586   -0.6428 C   0  0  0  0  0  0  0  0  0  0  0  0
   -1.5474   -1.3260   -0.4742 C   0  0  0  0  0  0  0  0  0  0  0  0
   -2.4237    1.0307   -0.5510 C   0  0  0  0  0  0  0  0  0  0  0  0
   -1.9968    2.2338   -1.2797 O   0  0  0  0  0  0  0  0  0  0  0  0
    4.0526   -0.5999    0.4750 H   0  0  0  0  0  0  0  0  0  0  0  0
    3.6953   -0.7083   -1.5261 H   0  0  0  0  0  0  0  0  0  0  0  0
    4.1772    0.6832   -0.6434 H   0  0  0  0  0  0  0  0  0  0  0  0
   -0.3165    1.8201    0.1468 H   0  0  0  0  0  0  0  0  0  0  0  0
   -1.5634   -0.1629    1.8505 H   0  0  0  0  0  0  0  0  0  0  0  0
    0.0424   -0.9063    1.8009 H   0  0  0  0  0  0  0  0  0  0  0  0
   -0.0908    0.6589    2.5663 H   0  0  0  0  0  0  0  0  0  0  0  0
   -0.8052    0.2665   -1.6526 H   0  0  0  0  0  0  0  0  0  0  0  0
   -2.6616   -1.5466   -0.3992 H   0  0  0  0  0  0  0  0  0  0  0  0
   -1.1414   -1.6318    0.5429 H   0  0  0  0  0  0  0  0  0  0  0  0
   -1.0752   -1.9235   -1.2272 H   0  0  0  0  0  0  0  0  0  0  0  0
   -3.3393    1.3390   -0.2792 H   0  0  0  0  0  0  0  0  0  0  0  0
  1  2  1  0
  2  3  3  0
  3  4  1  0
  4  5  1  0
  4  6  1  0
  6  7  1  0
  6  8  1  0
  8  9  2  0
  1 10  1  0
  1 11  1  0
  1 12  1  0
  4 13  1  0
  5 14  1  0
  5 15  1  0
  5 16  1  0
  6 17  1  0
  7 18  1  0
  7 19  1  0
  7 20  1  0
  8 21  1  0
M  END
