
     RDKit          3D

 15 16  0  0  0  0  0  0  0  0999 V2000
   -2.9274    0.5395    0.2510 C   0  0  0  0  0  0  0  0  0  0  0  0
   -1.5597    0.1252   -0.0476 C   0  0  0  0  0  0  0  0  0  0  0  0
   -0.4216   -0.2027   -0.3090 C   0  0  0  0  0  0  0  0  0  0  0  0
    0.9761   -0.6307   -0.6219 C   0  0  0  0  0  0  0  0  0  0  0  0
    1.5704   -1.4496    0.3721 C   0  0  0  0  0  0  0  0  0  0  0  0
    2.0488   -0.0745    0.4017 C   0  0  0  0  0  0  0  0  0  0  0  0
    1.3649    1.1132   -0.1698 C   0  0  0  0  0  0  0  0  0  0  0  0
    0.8728    2.1565    0.2824 O   0  0  0  0  0  0  0  0  0  0  0  0
    1.5817    0.4356   -1.3648 O   0  0  0  0  0  0  0  0  0  0  0  0
   -2.9229    0.9384    1.2937 H   0  0  0  0  0  0  0  0  0  0  0  0
   -3.6589   -0.2838    0.1489 H   0  0  0  0  0  0  0  0  0  0  0  0
   -3.2359    1.4201   -0.3846 H   0  0  0  0  0  0  0  0  0  0  0  0
    2.2107   -2.3103    0.0429 H   0  0  0  0  0  0  0  0  0  0  0  0
    0.9929   -1.7587    1.2933 H   0  0  0  0  0  0  0  0  0  0  0  0
    3.1079   -0.0181   -0.0134 H   0  0  0  0  0  0  0  0  0  0  0  0
  1  2  1  0
  2  3  3  0
  3  4  1  0
  4  5  1  0
  5  6  1  0
  6  7  1  0
  7  8  2  0
  7  9  1  0
  6  4  1  0
  9  4  1  0
  1 10  1  0
  1 11  1  0
  1 12  1  0
  5 13  1  0
  5 14  1  0
  6 15  1  0
M  END
