
     RDKit          3D

 23 22  0  0  0  0  0  0  0  0999 V2000
    2.7909   -0.1217   -3.1353 C   0  0  0  0  0  0  0  0  0  0  0  0
    1.7309    0.0203   -1.7495 C   0  0  0  0  0  0  0  0  0  0  0  0
    0.9845    0.1068   -0.7830 C   0  0  0  0  0  0  0  0  0  0  0  0
    0.0927    0.1927    0.3728 C   0  0  0  0  0  0  0  0  0  0  0  0
   -0.6122    1.6547   -0.0078 C   0  0  0  0  0  0  0  0  0  0  0  0
    1.1443    0.8562    1.3850 C   0  0  0  0  0  0  0  0  0  0  0  0
   -0.7874   -0.5200    0.5992 O   0  0  0  0  0  0  0  0  0  0  0  0
   -1.4571   -1.6130    0.8051 C   0  0  0  0  0  0  0  0  0  0  0  0
   -2.8885   -1.2226    1.3131 C   0  0  0  0  0  0  0  0  0  0  0  0
    3.5096    0.6358   -2.5601 H   0  0  0  0  0  0  0  0  0  0  0  0
    3.2461   -1.1203   -2.7871 H   0  0  0  0  0  0  0  0  0  0  0  0
    2.2329    0.0664   -3.8467 H   0  0  0  0  0  0  0  0  0  0  0  0
   -0.2571    1.7696   -1.0627 H   0  0  0  0  0  0  0  0  0  0  0  0
   -1.6291    1.6322    0.1725 H   0  0  0  0  0  0  0  0  0  0  0  0
    0.0551    2.4343    0.4912 H   0  0  0  0  0  0  0  0  0  0  0  0
    1.2677    0.1010    2.1235 H   0  0  0  0  0  0  0  0  0  0  0  0
    2.0866    1.0348    0.8339 H   0  0  0  0  0  0  0  0  0  0  0  0
    0.6454    1.7991    1.7456 H   0  0  0  0  0  0  0  0  0  0  0  0
   -1.0376   -2.2243    1.6937 H   0  0  0  0  0  0  0  0  0  0  0  0
   -1.5782   -2.2925   -0.0325 H   0  0  0  0  0  0  0  0  0  0  0  0
   -3.6297   -1.9689    1.2278 H   0  0  0  0  0  0  0  0  0  0  0  0
   -2.7569   -0.9621    2.3953 H   0  0  0  0  0  0  0  0  0  0  0  0
   -3.1529   -0.2586    0.8060 H   0  0  0  0  0  0  0  0  0  0  0  0
  1  2  1  0
  2  3  3  0
  3  4  1  0
  4  5  1  0
  4  6  1  0
  4  7  1  0
  7  8  1  0
  8  9  1  0
  1 10  1  0
  1 11  1  0
  1 12  1  0
  5 13  1  0
  5 14  1  0
  5 15  1  0
  6 16  1  0
  6 17  1  0
  6 18  1  0
  8 19  1  0
  8 20  1  0
  9 21  1  0
  9 22  1  0
  9 23  1  0
M  END
