
     RDKit          3D

 17 17  0  0  0  0  0  0  0  0999 V2000
    2.9395   -1.8367   -1.2774 C   0  0  0  0  0  0  0  0  0  0  0  0
    1.9988   -0.7701   -0.8226 C   0  0  0  0  0  0  0  0  0  0  0  0
    1.2201    0.1295   -0.4617 C   0  0  0  0  0  0  0  0  0  0  0  0
    0.3178    1.1647   -0.0706 C   0  0  0  0  0  0  0  0  0  0  0  0
   -1.1082    0.6957   -0.2697 C   0  0  0  0  0  0  0  0  0  0  0  0
   -1.9929    1.7278    0.1201 O   0  0  0  0  0  0  0  0  0  0  0  0
   -2.7813    0.8697    0.8870 C   0  0  0  0  0  0  0  0  0  0  0  0
   -1.6418   -0.1010    0.8338 C   0  0  0  0  0  0  0  0  0  0  0  0
   -1.3445   -1.0953    1.4598 O   0  0  0  0  0  0  0  0  0  0  0  0
    2.8358   -2.7273   -0.6192 H   0  0  0  0  0  0  0  0  0  0  0  0
    2.6491   -2.0890   -2.2946 H   0  0  0  0  0  0  0  0  0  0  0  0
    3.9813   -1.5032   -1.2020 H   0  0  0  0  0  0  0  0  0  0  0  0
    0.4330    2.1080   -0.6594 H   0  0  0  0  0  0  0  0  0  0  0  0
    0.4555    1.4599    0.9955 H   0  0  0  0  0  0  0  0  0  0  0  0
   -1.3145    0.2464   -1.2439 H   0  0  0  0  0  0  0  0  0  0  0  0
   -2.9857    1.1901    1.9202 H   0  0  0  0  0  0  0  0  0  0  0  0
   -3.6621    0.5310    0.3175 H   0  0  0  0  0  0  0  0  0  0  0  0
  1  2  1  0
  2  3  3  0
  3  4  1  0
  4  5  1  0
  5  6  1  0
  6  7  1  0
  7  8  1  0
  8  9  2  0
  8  5  1  0
  1 10  1  0
  1 11  1  0
  1 12  1  0
  4 13  1  0
  4 14  1  0
  5 15  1  0
  7 16  1  0
  7 17  1  0
M  END
