
     RDKit          3D

 21 21  0  0  0  0  0  0  0  0999 V2000
   -2.0790   -2.5436    1.0753 C   0  0  0  0  0  0  0  0  0  0  0  0
   -1.5237   -1.6867    0.8419 C   0  0  0  0  0  0  0  0  0  0  0  0
   -0.7096   -0.3833    0.5013 C   0  0  0  0  0  0  0  0  0  0  0  0
   -0.0213    0.6874    0.2027 C   0  0  0  0  0  0  0  0  0  0  0  0
   -0.1375    2.0178    0.7250 C   0  0  0  0  0  0  0  0  0  0  0  0
    0.1756    0.7677   -1.3844 C   0  0  0  0  0  0  0  0  0  0  0  0
    1.6466    0.6980   -1.5484 C   0  0  0  0  0  0  0  0  0  0  0  0
    2.1912    1.0047   -0.2638 O   0  0  0  0  0  0  0  0  0  0  0  0
    1.4519    0.1219    0.4271 C   0  0  0  0  0  0  0  0  0  0  0  0
   -3.2829   -2.6163    0.8748 H   0  0  0  0  0  0  0  0  0  0  0  0
   -1.9443   -3.5755    0.3538 H   0  0  0  0  0  0  0  0  0  0  0  0
   -2.0364   -3.2222    2.0722 H   0  0  0  0  0  0  0  0  0  0  0  0
    0.9528    2.4652    0.7789 H   0  0  0  0  0  0  0  0  0  0  0  0
   -0.4671    2.0987    1.7378 H   0  0  0  0  0  0  0  0  0  0  0  0
   -0.6263    2.7848    0.0500 H   0  0  0  0  0  0  0  0  0  0  0  0
   -0.3528    1.6122   -1.8467 H   0  0  0  0  0  0  0  0  0  0  0  0
   -0.3088   -0.2110   -1.7092 H   0  0  0  0  0  0  0  0  0  0  0  0
    2.0673    1.3312   -2.3504 H   0  0  0  0  0  0  0  0  0  0  0  0
    1.9806   -0.3751   -1.7220 H   0  0  0  0  0  0  0  0  0  0  0  0
    1.4297   -0.8385   -0.2552 H   0  0  0  0  0  0  0  0  0  0  0  0
    1.5941   -0.1375    1.4393 H   0  0  0  0  0  0  0  0  0  0  0  0
  1  2  1  0
  2  3  3  0
  3  4  1  0
  4  5  1  0
  4  6  1  0
  6  7  1  0
  7  8  1  0
  8  9  1  0
  9  4  1  0
  1 10  1  0
  1 11  1  0
  1 12  1  0
  5 13  1  0
  5 14  1  0
  5 15  1  0
  6 16  1  0
  6 17  1  0
  7 18  1  0
  7 19  1  0
  9 20  1  0
  9 21  1  0
M  END
