
     RDKit          3D

 17 16  0  0  0  0  0  0  0  0999 V2000
    3.3645   -0.2714    2.2826 C   0  0  0  0  0  0  0  0  0  0  0  0
    2.1180   -0.4502    1.5515 C   0  0  0  0  0  0  0  0  0  0  0  0
    1.0606   -0.6231    0.9339 C   0  0  0  0  0  0  0  0  0  0  0  0
   -0.1349   -0.8298    0.2092 C   0  0  0  0  0  0  0  0  0  0  0  0
   -0.6997   -1.9701    0.3029 O   0  0  0  0  0  0  0  0  0  0  0  0
   -0.7000    0.2367   -0.6203 C   0  0  0  0  0  0  0  0  0  0  0  0
   -1.9542   -0.1472   -1.2913 C   0  0  0  0  0  0  0  0  0  0  0  0
   -2.5864    0.8869   -2.1915 C   0  0  0  0  0  0  0  0  0  0  0  0
   -2.5401   -1.1952   -1.2088 O   0  0  0  0  0  0  0  0  0  0  0  0
    3.4284    0.7371    2.7285 H   0  0  0  0  0  0  0  0  0  0  0  0
    3.5189   -1.0491    3.0742 H   0  0  0  0  0  0  0  0  0  0  0  0
    4.2308   -0.4201    1.5701 H   0  0  0  0  0  0  0  0  0  0  0  0
   -0.8977    1.1768   -0.0478 H   0  0  0  0  0  0  0  0  0  0  0  0
    0.0380    0.5145   -1.4187 H   0  0  0  0  0  0  0  0  0  0  0  0
   -3.1342    1.5566   -1.4634 H   0  0  0  0  0  0  0  0  0  0  0  0
   -3.3387    0.4402   -2.8737 H   0  0  0  0  0  0  0  0  0  0  0  0
   -1.7735    1.4074   -2.7286 H   0  0  0  0  0  0  0  0  0  0  0  0
  1  2  1  0
  2  3  3  0
  3  4  1  0
  4  5  2  0
  4  6  1  0
  6  7  1  0
  7  8  1  0
  7  9  2  0
  1 10  1  0
  1 11  1  0
  1 12  1  0
  6 13  1  0
  6 14  1  0
  8 15  1  0
  8 16  1  0
  8 17  1  0
M  END
