
     RDKit          3D

 17 16  0  0  0  0  0  0  0  0999 V2000
    2.9086   -0.8107   -0.8295 C   0  0  0  0  0  0  0  0  0  0  0  0
    1.7404   -0.1501   -0.2418 C   0  0  0  0  0  0  0  0  0  0  0  0
    0.7711    0.3937    0.2678 C   0  0  0  0  0  0  0  0  0  0  0  0
   -0.3806    1.0680    0.8721 C   0  0  0  0  0  0  0  0  0  0  0  0
   -0.2059    2.4539    0.8228 O   0  0  0  0  0  0  0  0  0  0  0  0
   -1.5819    0.6306    0.1460 C   0  0  0  0  0  0  0  0  0  0  0  0
   -2.2680    1.4822   -0.3975 O   0  0  0  0  0  0  0  0  0  0  0  0
   -1.9028   -0.8139    0.1072 C   0  0  0  0  0  0  0  0  0  0  0  0
   -3.0756   -0.9637   -0.6339 O   0  0  0  0  0  0  0  0  0  0  0  0
    3.5425   -0.0594   -1.3793 H   0  0  0  0  0  0  0  0  0  0  0  0
    3.5822   -1.2215   -0.0424 H   0  0  0  0  0  0  0  0  0  0  0  0
    2.5430   -1.5753   -1.5282 H   0  0  0  0  0  0  0  0  0  0  0  0
   -0.5106    0.7348    1.9417 H   0  0  0  0  0  0  0  0  0  0  0  0
    0.7258    2.6469    0.5481 H   0  0  0  0  0  0  0  0  0  0  0  0
   -1.0469   -1.3393   -0.3697 H   0  0  0  0  0  0  0  0  0  0  0  0
   -2.0423   -1.2531    1.1237 H   0  0  0  0  0  0  0  0  0  0  0  0
   -2.7991   -1.2232   -1.5470 H   0  0  0  0  0  0  0  0  0  0  0  0
  1  2  1  0
  2  3  3  0
  3  4  1  0
  4  5  1  0
  4  6  1  0
  6  7  2  0
  6  8  1  0
  8  9  1  0
  1 10  1  0
  1 11  1  0
  1 12  1  0
  4 13  1  0
  5 14  1  0
  8 15  1  0
  8 16  1  0
  9 17  1  0
M  END
