
     RDKit          3D

 25 24  0  0  0  0  0  0  0  0999 V2000
    3.6279   -0.6960    0.8116 C   0  0  0  0  0  0  0  0  0  0  0  0
    2.2403   -0.3940    0.4464 C   0  0  0  0  0  0  0  0  0  0  0  0
    1.0985   -0.1257    0.1451 C   0  0  0  0  0  0  0  0  0  0  0  0
   -0.2987    0.2118   -0.2041 C   0  0  0  0  0  0  0  0  0  0  0  0
   -0.4388    0.0364   -1.6845 C   0  0  0  0  0  0  0  0  0  0  0  0
   -1.1971   -0.7144    0.5729 C   0  0  0  0  0  0  0  0  0  0  0  0
   -0.8937   -2.1570    0.1997 C   0  0  0  0  0  0  0  0  0  0  0  0
   -0.5356    1.6372    0.2415 C   0  0  0  0  0  0  0  0  0  0  0  0
   -1.8997    2.1427   -0.0346 C   0  0  0  0  0  0  0  0  0  0  0  0
    4.3284    0.1042    0.4706 H   0  0  0  0  0  0  0  0  0  0  0  0
    3.7721   -0.7892    1.8958 H   0  0  0  0  0  0  0  0  0  0  0  0
    3.9097   -1.6052    0.2465 H   0  0  0  0  0  0  0  0  0  0  0  0
   -0.0740    0.9734   -2.1659 H   0  0  0  0  0  0  0  0  0  0  0  0
   -1.5112   -0.0842   -1.9290 H   0  0  0  0  0  0  0  0  0  0  0  0
    0.1980   -0.7763   -2.0885 H   0  0  0  0  0  0  0  0  0  0  0  0
   -2.2458   -0.5347    0.3059 H   0  0  0  0  0  0  0  0  0  0  0  0
   -0.9956   -0.6078    1.6485 H   0  0  0  0  0  0  0  0  0  0  0  0
   -1.0575   -2.3311   -0.8854 H   0  0  0  0  0  0  0  0  0  0  0  0
    0.1628   -2.3337    0.4150 H   0  0  0  0  0  0  0  0  0  0  0  0
   -1.4972   -2.8587    0.8002 H   0  0  0  0  0  0  0  0  0  0  0  0
    0.2669    2.2487   -0.2637 H   0  0  0  0  0  0  0  0  0  0  0  0
   -0.2592    1.6745    1.3293 H   0  0  0  0  0  0  0  0  0  0  0  0
   -1.8230    2.9019   -0.8617 H   0  0  0  0  0  0  0  0  0  0  0  0
   -2.2509    2.7002    0.8819 H   0  0  0  0  0  0  0  0  0  0  0  0
   -2.6264    1.3772   -0.2934 H   0  0  0  0  0  0  0  0  0  0  0  0
  1  2  1  0
  2  3  3  0
  3  4  1  0
  4  5  1  0
  4  6  1  0
  6  7  1  0
  4  8  1  0
  8  9  1  0
  1 10  1  0
  1 11  1  0
  1 12  1  0
  5 13  1  0
  5 14  1  0
  5 15  1  0
  6 16  1  0
  6 17  1  0
  7 18  1  0
  7 19  1  0
  7 20  1  0
  8 21  1  0
  8 22  1  0
  9 23  1  0
  9 24  1  0
  9 25  1  0
M  END
