
     RDKit          3D

 20 19  0  0  0  0  0  0  0  0999 V2000
    2.8036    1.3940    1.2235 C   0  0  0  0  0  0  0  0  0  0  0  0
    1.6113    0.9233    0.5033 C   0  0  0  0  0  0  0  0  0  0  0  0
    0.6388    0.5465   -0.1051 C   0  0  0  0  0  0  0  0  0  0  0  0
   -0.5552    0.0928   -0.8547 C   0  0  0  0  0  0  0  0  0  0  0  0
   -0.2271   -1.0979   -1.6910 C   0  0  0  0  0  0  0  0  0  0  0  0
   -0.9805    1.1073   -1.7277 O   0  0  0  0  0  0  0  0  0  0  0  0
   -1.6924   -0.1480    0.0974 C   0  0  0  0  0  0  0  0  0  0  0  0
   -1.3866   -1.1952    1.1327 C   0  0  0  0  0  0  0  0  0  0  0  0
    3.7273    1.2678    0.5928 H   0  0  0  0  0  0  0  0  0  0  0  0
    2.6590    2.4698    1.4065 H   0  0  0  0  0  0  0  0  0  0  0  0
    2.9572    0.8301    2.1749 H   0  0  0  0  0  0  0  0  0  0  0  0
   -0.2687   -2.0595   -1.1469 H   0  0  0  0  0  0  0  0  0  0  0  0
    0.8137   -1.0033   -2.0702 H   0  0  0  0  0  0  0  0  0  0  0  0
   -0.8861   -1.0951   -2.5853 H   0  0  0  0  0  0  0  0  0  0  0  0
   -0.6343    1.9582   -1.3440 H   0  0  0  0  0  0  0  0  0  0  0  0
   -1.9398    0.7903    0.5973 H   0  0  0  0  0  0  0  0  0  0  0  0
   -2.5575   -0.4946   -0.4916 H   0  0  0  0  0  0  0  0  0  0  0  0
   -1.0605   -2.1527    0.7308 H   0  0  0  0  0  0  0  0  0  0  0  0
   -0.6850   -0.7506    1.8688 H   0  0  0  0  0  0  0  0  0  0  0  0
   -2.3373   -1.3833    1.6886 H   0  0  0  0  0  0  0  0  0  0  0  0
  1  2  1  0
  2  3  3  0
  3  4  1  0
  4  5  1  0
  4  6  1  0
  4  7  1  0
  7  8  1  0
  1  9  1  0
  1 10  1  0
  1 11  1  0
  5 12  1  0
  5 13  1  0
  5 14  1  0
  6 15  1  0
  7 16  1  0
  7 17  1  0
  8 18  1  0
  8 19  1  0
  8 20  1  0
M  END
