
     RDKit          3D

 15 14  0  0  0  0  0  0  0  0999 V2000
   -3.4226   -0.8166    1.3103 C   0  0  0  0  0  0  0  0  0  0  0  0
   -2.0201   -0.2844    0.4288 C   0  0  0  0  0  0  0  0  0  0  0  0
   -1.0541    0.1012   -0.1696 C   0  0  0  0  0  0  0  0  0  0  0  0
    0.0985    0.5506   -0.8544 C   0  0  0  0  0  0  0  0  0  0  0  0
   -0.1329   -0.2697   -2.2171 O   0  0  0  0  0  0  0  0  0  0  0  0
    1.3448    0.4956   -0.6601 C   0  0  0  0  0  0  0  0  0  0  0  0
    2.4221    0.4331   -0.4813 C   0  0  0  0  0  0  0  0  0  0  0  0
    4.0407    0.3170   -0.2223 C   0  0  0  0  0  0  0  0  0  0  0  0
    4.5973    1.5059   -0.1808 O   0  0  0  0  0  0  0  0  0  0  0  0
   -3.6310   -1.5604    0.7012 H   0  0  0  0  0  0  0  0  0  0  0  0
   -3.9890    0.1956    0.9826 H   0  0  0  0  0  0  0  0  0  0  0  0
   -3.0580   -0.6568    2.2736 H   0  0  0  0  0  0  0  0  0  0  0  0
   -0.2343    1.5971   -1.2787 H   0  0  0  0  0  0  0  0  0  0  0  0
    0.4610   -1.0649   -2.0218 H   0  0  0  0  0  0  0  0  0  0  0  0
    4.5777   -0.5433   -0.0760 H   0  0  0  0  0  0  0  0  0  0  0  0
  1  2  1  0
  2  3  3  0
  3  4  1  0
  4  5  1  0
  4  6  1  0
  6  7  3  0
  7  8  1  0
  8  9  2  0
  1 10  1  0
  1 11  1  0
  1 12  1  0
  4 13  1  0
  5 14  1  0
  8 15  1  0
M  END
