
     RDKit          3D

 17 18  0  0  0  0  0  0  0  0999 V2000
    3.2583    0.3225   -0.0398 C   0  0  0  0  0  0  0  0  0  0  0  0
    1.8097    0.1265   -0.1317 C   0  0  0  0  0  0  0  0  0  0  0  0
    0.6165   -0.0247   -0.2149 C   0  0  0  0  0  0  0  0  0  0  0  0
   -0.8071   -0.1909   -0.3204 C   0  0  0  0  0  0  0  0  0  0  0  0
   -1.4040   -1.5186   -0.7161 C   0  0  0  0  0  0  0  0  0  0  0  0
   -1.7727   -1.6787    0.6269 O   0  0  0  0  0  0  0  0  0  0  0  0
   -1.5437   -0.3932    1.0393 C   0  0  0  0  0  0  0  0  0  0  0  0
   -1.7727    0.7928    0.2041 C   0  0  0  0  0  0  0  0  0  0  0  0
   -1.2641    1.9938    0.6381 O   0  0  0  0  0  0  0  0  0  0  0  0
    3.6588    0.1578   -1.0624 H   0  0  0  0  0  0  0  0  0  0  0  0
    3.4385    1.3380    0.3465 H   0  0  0  0  0  0  0  0  0  0  0  0
    3.6944   -0.4712    0.6058 H   0  0  0  0  0  0  0  0  0  0  0  0
   -0.7290   -2.2659   -1.1236 H   0  0  0  0  0  0  0  0  0  0  0  0
   -2.3466   -1.3268   -1.3077 H   0  0  0  0  0  0  0  0  0  0  0  0
   -0.9126   -0.2509    1.9509 H   0  0  0  0  0  0  0  0  0  0  0  0
   -2.7608    0.8106   -0.3366 H   0  0  0  0  0  0  0  0  0  0  0  0
   -1.1632    2.5788   -0.1585 H   0  0  0  0  0  0  0  0  0  0  0  0
  1  2  1  0
  2  3  3  0
  3  4  1  0
  4  5  1  0
  5  6  1  0
  6  7  1  0
  7  8  1  0
  8  9  1  0
  7  4  1  0
  8  4  1  0
  1 10  1  0
  1 11  1  0
  1 12  1  0
  5 13  1  0
  5 14  1  0
  7 15  1  0
  8 16  1  0
  9 17  1  0
M  END
