
     RDKit          3D

 21 21  0  0  0  0  0  0  0  0999 V2000
    3.0758   -0.1026    2.2804 C   0  0  0  0  0  0  0  0  0  0  0  0
    2.0511   -0.5591    1.4031 C   0  0  0  0  0  0  0  0  0  0  0  0
    1.1609   -0.9496    0.6158 C   0  0  0  0  0  0  0  0  0  0  0  0
    0.0885   -1.4118   -0.2993 C   0  0  0  0  0  0  0  0  0  0  0  0
   -1.0045   -0.3748   -0.2502 C   0  0  0  0  0  0  0  0  0  0  0  0
   -0.4654    0.9805   -0.6466 C   0  0  0  0  0  0  0  0  0  0  0  0
   -1.6676    1.6121   -1.2832 C   0  0  0  0  0  0  0  0  0  0  0  0
   -2.6602    0.6416   -1.3814 O   0  0  0  0  0  0  0  0  0  0  0  0
   -2.0386   -0.5839   -1.3306 C   0  0  0  0  0  0  0  0  0  0  0  0
    3.9156    0.2980    1.6397 H   0  0  0  0  0  0  0  0  0  0  0  0
    2.7583    0.7276    2.9545 H   0  0  0  0  0  0  0  0  0  0  0  0
    3.5607   -0.9019    2.8924 H   0  0  0  0  0  0  0  0  0  0  0  0
    0.5294   -1.4238   -1.3102 H   0  0  0  0  0  0  0  0  0  0  0  0
   -0.3093   -2.3859    0.0183 H   0  0  0  0  0  0  0  0  0  0  0  0
   -1.4943   -0.3768    0.7115 H   0  0  0  0  0  0  0  0  0  0  0  0
   -0.1129    1.5410    0.2492 H   0  0  0  0  0  0  0  0  0  0  0  0
    0.3242    0.8691   -1.4190 H   0  0  0  0  0  0  0  0  0  0  0  0
   -1.4158    2.0332   -2.2948 H   0  0  0  0  0  0  0  0  0  0  0  0
   -1.9758    2.4738   -0.6194 H   0  0  0  0  0  0  0  0  0  0  0  0
   -2.7744   -1.3616   -1.1216 H   0  0  0  0  0  0  0  0  0  0  0  0
   -1.5459   -0.7451   -2.3299 H   0  0  0  0  0  0  0  0  0  0  0  0
  1  2  1  0
  2  3  3  0
  3  4  1  0
  4  5  1  0
  5  6  1  0
  6  7  1  0
  7  8  1  0
  8  9  1  0
  9  5  1  0
  1 10  1  0
  1 11  1  0
  1 12  1  0
  4 13  1  0
  4 14  1  0
  5 15  1  0
  6 16  1  0
  6 17  1  0
  7 18  1  0
  7 19  1  0
  9 20  1  0
  9 21  1  0
M  END
