
     RDKit          3D

 20 20  0  0  0  0  0  0  0  0999 V2000
    2.3511   -1.7012   -1.9106 C   0  0  0  0  0  0  0  0  0  0  0  0
    1.3426   -1.1618   -1.2513 C   0  0  0  0  0  0  0  0  0  0  0  0
    0.3011   -0.5895   -0.5434 C   0  0  0  0  0  0  0  0  0  0  0  0
   -0.7655    0.0010    0.2114 C   0  0  0  0  0  0  0  0  0  0  0  0
   -0.7893    1.4958    0.2681 C   0  0  0  0  0  0  0  0  0  0  0  0
    0.4043    2.1355    0.8937 C   0  0  0  0  0  0  0  0  0  0  0  0
   -1.2151   -0.7562    1.4671 C   0  0  0  0  0  0  0  0  0  0  0  0
   -2.0587   -0.7128    0.2737 C   0  0  0  0  0  0  0  0  0  0  0  0
    3.3908   -1.2837   -1.6576 H   0  0  0  0  0  0  0  0  0  0  0  0
    2.2345   -1.6184   -3.0414 H   0  0  0  0  0  0  0  0  0  0  0  0
    2.5411   -2.8230   -1.7124 H   0  0  0  0  0  0  0  0  0  0  0  0
   -1.7421    1.8240    0.7097 H   0  0  0  0  0  0  0  0  0  0  0  0
   -0.8144    1.9090   -0.7948 H   0  0  0  0  0  0  0  0  0  0  0  0
    1.2190    2.1887    0.1657 H   0  0  0  0  0  0  0  0  0  0  0  0
    0.7385    1.5156    1.7464 H   0  0  0  0  0  0  0  0  0  0  0  0
    0.1320    3.1715    1.2479 H   0  0  0  0  0  0  0  0  0  0  0  0
   -0.6805   -1.7132    1.6512 H   0  0  0  0  0  0  0  0  0  0  0  0
   -1.4835   -0.1876    2.3585 H   0  0  0  0  0  0  0  0  0  0  0  0
   -2.9712   -0.0925    0.2970 H   0  0  0  0  0  0  0  0  0  0  0  0
   -2.1346   -1.6015   -0.3789 H   0  0  0  0  0  0  0  0  0  0  0  0
  1  2  1  0
  2  3  3  0
  3  4  1  0
  4  5  1  0
  5  6  1  0
  4  7  1  0
  7  8  1  0
  8  4  1  0
  1  9  1  0
  1 10  1  0
  1 11  1  0
  5 12  1  0
  5 13  1  0
  6 14  1  0
  6 15  1  0
  6 16  1  0
  7 17  1  0
  7 18  1  0
  8 19  1  0
  8 20  1  0
M  END
