
     RDKit          3D

 17 18  0  0  0  0  0  0  0  0999 V2000
    3.4244   -0.1207   -0.2006 C   0  0  0  0  0  0  0  0  0  0  0  0
    1.9654   -0.2838   -0.0066 C   0  0  0  0  0  0  0  0  0  0  0  0
    0.7895   -0.4321    0.1376 C   0  0  0  0  0  0  0  0  0  0  0  0
   -0.6298   -0.6086    0.3144 C   0  0  0  0  0  0  0  0  0  0  0  0
   -1.3888    0.5464    0.9014 C   0  0  0  0  0  0  0  0  0  0  0  0
   -0.8280    1.7824    0.6420 O   0  0  0  0  0  0  0  0  0  0  0  0
   -2.4592    0.2408   -0.1253 C   0  0  0  0  0  0  0  0  0  0  0  0
   -2.0741    0.5225   -1.4072 O   0  0  0  0  0  0  0  0  0  0  0  0
   -1.4399   -0.5832   -0.9257 C   0  0  0  0  0  0  0  0  0  0  0  0
    3.6213    0.7072   -0.9023 H   0  0  0  0  0  0  0  0  0  0  0  0
    3.8299   -1.0898   -0.5704 H   0  0  0  0  0  0  0  0  0  0  0  0
    3.9315    0.1386    0.7539 H   0  0  0  0  0  0  0  0  0  0  0  0
   -0.8357   -1.5439    0.8965 H   0  0  0  0  0  0  0  0  0  0  0  0
   -1.6842    0.4681    1.9487 H   0  0  0  0  0  0  0  0  0  0  0  0
   -1.0916    2.1349   -0.2625 H   0  0  0  0  0  0  0  0  0  0  0  0
   -3.3509   -0.3118    0.1345 H   0  0  0  0  0  0  0  0  0  0  0  0
   -1.7798   -1.5671   -1.3283 H   0  0  0  0  0  0  0  0  0  0  0  0
  1  2  1  0
  2  3  3  0
  3  4  1  0
  4  5  1  0
  5  6  1  0
  5  7  1  0
  7  8  1  0
  8  9  1  0
  9  4  1  0
  9  7  1  0
  1 10  1  0
  1 11  1  0
  1 12  1  0
  4 13  1  0
  5 14  1  0
  6 15  1  0
  7 16  1  0
  9 17  1  0
M  END
