
     RDKit          3D

 13 12  0  0  0  0  0  0  0  0999 V2000
    2.3537   -2.2406   -0.7747 C   0  0  0  0  0  0  0  0  0  0  0  0
    1.2503   -1.2692   -0.5715 C   0  0  0  0  0  0  0  0  0  0  0  0
    0.3433   -0.4887   -0.4224 C   0  0  0  0  0  0  0  0  0  0  0  0
   -0.7262    0.4647   -0.2412 C   0  0  0  0  0  0  0  0  0  0  0  0
   -1.5245    0.6847   -1.1912 O   0  0  0  0  0  0  0  0  0  0  0  0
   -0.9056    1.1497    0.9486 O   0  0  0  0  0  0  0  0  0  0  0  0
   -1.9521    2.0899    1.1423 C   0  0  0  0  0  0  0  0  0  0  0  0
    3.1915   -1.8783   -0.1491 H   0  0  0  0  0  0  0  0  0  0  0  0
    2.0608   -3.2476   -0.4090 H   0  0  0  0  0  0  0  0  0  0  0  0
    2.5997   -2.2378   -1.8643 H   0  0  0  0  0  0  0  0  0  0  0  0
   -1.6016    3.0109    1.6326 H   0  0  0  0  0  0  0  0  0  0  0  0
   -2.3607    2.3938    0.1452 H   0  0  0  0  0  0  0  0  0  0  0  0
   -2.7286    1.5683    1.7546 H   0  0  0  0  0  0  0  0  0  0  0  0
  1  2  1  0
  2  3  3  0
  3  4  1  0
  4  5  2  0
  4  6  1  0
  6  7  1  0
  1  8  1  0
  1  9  1  0
  1 10  1  0
  7 11  1  0
  7 12  1  0
  7 13  1  0
M  END
