
     RDKit          3D

 17 17  0  0  0  0  0  0  0  0999 V2000
    2.8532   -0.7609   -2.4048 C   0  0  0  0  0  0  0  0  0  0  0  0
    1.7532   -0.4762   -1.4634 C   0  0  0  0  0  0  0  0  0  0  0  0
    0.8432   -0.2589   -0.7033 C   0  0  0  0  0  0  0  0  0  0  0  0
   -0.2735   -0.0065    0.1994 C   0  0  0  0  0  0  0  0  0  0  0  0
   -0.6243   -0.7760    1.2136 C   0  0  0  0  0  0  0  0  0  0  0  0
   -1.8107   -0.2159    1.9225 C   0  0  0  0  0  0  0  0  0  0  0  0
   -1.6458    1.2428    1.5489 C   0  0  0  0  0  0  0  0  0  0  0  0
   -1.8330    2.2094    2.2449 O   0  0  0  0  0  0  0  0  0  0  0  0
   -1.2031    1.1451    0.1308 C   0  0  0  0  0  0  0  0  0  0  0  0
    2.4383   -0.7597   -3.4333 H   0  0  0  0  0  0  0  0  0  0  0  0
    3.3052   -1.7602   -2.1850 H   0  0  0  0  0  0  0  0  0  0  0  0
    3.6271    0.0200   -2.3035 H   0  0  0  0  0  0  0  0  0  0  0  0
   -0.0783   -1.6886    1.4509 H   0  0  0  0  0  0  0  0  0  0  0  0
   -1.7603   -0.3408    3.0003 H   0  0  0  0  0  0  0  0  0  0  0  0
   -2.7674   -0.5337    1.4676 H   0  0  0  0  0  0  0  0  0  0  0  0
   -2.1112    0.8912   -0.4630 H   0  0  0  0  0  0  0  0  0  0  0  0
   -0.7126    2.0689   -0.2225 H   0  0  0  0  0  0  0  0  0  0  0  0
  1  2  1  0
  2  3  3  0
  3  4  1  0
  4  5  2  0
  5  6  1  0
  6  7  1  0
  7  8  2  0
  7  9  1  0
  9  4  1  0
  1 10  1  0
  1 11  1  0
  1 12  1  0
  5 13  1  0
  6 14  1  0
  6 15  1  0
  9 16  1  0
  9 17  1  0
M  END
