
     RDKit          3D

 15 14  0  0  0  0  0  0  0  0999 V2000
   -3.4101    1.2872    1.0784 C   0  0  0  0  0  0  0  0  0  0  0  0
   -2.0327    0.9141    0.7882 C   0  0  0  0  0  0  0  0  0  0  0  0
   -0.9007    0.5913    0.5623 C   0  0  0  0  0  0  0  0  0  0  0  0
    0.4669    0.1945    0.2641 C   0  0  0  0  0  0  0  0  0  0  0  0
    1.3880    1.0570    0.2596 O   0  0  0  0  0  0  0  0  0  0  0  0
    0.7500   -1.1361   -0.0145 O   0  0  0  0  0  0  0  0  0  0  0  0
    2.0827   -1.5140   -0.3037 C   0  0  0  0  0  0  0  0  0  0  0  0
    2.5965   -0.8011   -1.4972 C   0  0  0  0  0  0  0  0  0  0  0  0
    1.8940   -0.0068   -2.0962 O   0  0  0  0  0  0  0  0  0  0  0  0
   -3.8159    1.9940    0.2990 H   0  0  0  0  0  0  0  0  0  0  0  0
   -3.4057    1.8411    2.0538 H   0  0  0  0  0  0  0  0  0  0  0  0
   -4.0414    0.3930    1.1568 H   0  0  0  0  0  0  0  0  0  0  0  0
    2.7229   -1.2441    0.5845 H   0  0  0  0  0  0  0  0  0  0  0  0
    2.1069   -2.6090   -0.4086 H   0  0  0  0  0  0  0  0  0  0  0  0
    3.5986   -0.9611   -1.8699 H   0  0  0  0  0  0  0  0  0  0  0  0
  1  2  1  0
  2  3  3  0
  3  4  1  0
  4  5  2  0
  4  6  1  0
  6  7  1  0
  7  8  1  0
  8  9  2  0
  1 10  1  0
  1 11  1  0
  1 12  1  0
  7 13  1  0
  7 14  1  0
  8 15  1  0
M  END
