
     RDKit          3D

 15 17  0  0  0  0  0  0  0  0999 V2000
    2.8324    0.6490   -1.3537 C   0  0  0  0  0  0  0  0  0  0  0  0
    1.6135    0.5275   -0.5472 C   0  0  0  0  0  0  0  0  0  0  0  0
    0.6082    0.4174    0.1413 C   0  0  0  0  0  0  0  0  0  0  0  0
   -0.6055    0.2912    0.9423 C   0  0  0  0  0  0  0  0  0  0  0  0
   -1.4450    1.3622    1.0966 O   0  0  0  0  0  0  0  0  0  0  0  0
   -1.8690    0.2648    0.3749 C   0  0  0  0  0  0  0  0  0  0  0  0
   -2.2458   -1.0084    1.1240 C   0  0  0  0  0  0  0  0  0  0  0  0
   -1.3927   -2.0854    1.1084 O   0  0  0  0  0  0  0  0  0  0  0  0
   -0.8372   -0.9815    1.7151 C   0  0  0  0  0  0  0  0  0  0  0  0
    3.6351    1.1421   -0.7478 H   0  0  0  0  0  0  0  0  0  0  0  0
    3.1429   -0.3366   -1.7533 H   0  0  0  0  0  0  0  0  0  0  0  0
    2.5934    1.3487   -2.1778 H   0  0  0  0  0  0  0  0  0  0  0  0
   -2.1727    0.3312   -0.6689 H   0  0  0  0  0  0  0  0  0  0  0  0
   -3.1030   -0.9840    1.8179 H   0  0  0  0  0  0  0  0  0  0  0  0
   -0.7547   -0.9381    2.8202 H   0  0  0  0  0  0  0  0  0  0  0  0
  1  2  1  0
  2  3  3  0
  3  4  1  0
  4  5  1  0
  5  6  1  0
  6  7  1  0
  7  8  1  0
  8  9  1  0
  6  4  1  0
  9  7  1  0
  9  4  1  0
  1 10  1  0
  1 11  1  0
  1 12  1  0
  6 13  1  0
  7 14  1  0
  9 15  1  0
M  END
