
     RDKit          3D

 20 19  0  0  0  0  0  0  0  0999 V2000
    3.1114   -0.4627    1.2891 C   0  0  0  0  0  0  0  0  0  0  0  0
    1.8318    0.0371    0.7475 C   0  0  0  0  0  0  0  0  0  0  0  0
    0.7773    0.4325    0.3188 C   0  0  0  0  0  0  0  0  0  0  0  0
   -0.5237    0.9285   -0.1848 C   0  0  0  0  0  0  0  0  0  0  0  0
   -0.9516   -0.0505   -1.2606 C   0  0  0  0  0  0  0  0  0  0  0  0
   -1.1000   -1.4483   -0.7044 C   0  0  0  0  0  0  0  0  0  0  0  0
   -1.4629    0.9418    0.9775 C   0  0  0  0  0  0  0  0  0  0  0  0
   -0.9402    1.7888    1.9483 O   0  0  0  0  0  0  0  0  0  0  0  0
    3.2211   -1.5505    1.1225 H   0  0  0  0  0  0  0  0  0  0  0  0
    3.1451   -0.1627    2.3450 H   0  0  0  0  0  0  0  0  0  0  0  0
    3.9689    0.0731    0.7899 H   0  0  0  0  0  0  0  0  0  0  0  0
   -0.4330    1.9450   -0.6160 H   0  0  0  0  0  0  0  0  0  0  0  0
   -0.1917   -0.1107   -2.0663 H   0  0  0  0  0  0  0  0  0  0  0  0
   -1.8888    0.3178   -1.7251 H   0  0  0  0  0  0  0  0  0  0  0  0
   -2.0528   -1.5713   -0.1434 H   0  0  0  0  0  0  0  0  0  0  0  0
   -1.0371   -2.1411   -1.5700 H   0  0  0  0  0  0  0  0  0  0  0  0
   -0.2211   -1.6320   -0.0339 H   0  0  0  0  0  0  0  0  0  0  0  0
   -2.5025    1.1845    0.7110 H   0  0  0  0  0  0  0  0  0  0  0  0
   -1.4412   -0.0891    1.4334 H   0  0  0  0  0  0  0  0  0  0  0  0
   -1.3090    1.5698    2.8551 H   0  0  0  0  0  0  0  0  0  0  0  0
  1  2  1  0
  2  3  3  0
  3  4  1  0
  4  5  1  0
  5  6  1  0
  4  7  1  0
  7  8  1  0
  1  9  1  0
  1 10  1  0
  1 11  1  0
  4 12  1  0
  5 13  1  0
  5 14  1  0
  6 15  1  0
  6 16  1  0
  6 17  1  0
  7 18  1  0
  7 19  1  0
  8 20  1  0
M  END
