
     RDKit          3D

 17 16  0  0  0  0  0  0  0  0999 V2000
    2.9342    1.1393    0.9510 C   0  0  0  0  0  0  0  0  0  0  0  0
    1.8591    0.2824    0.4296 C   0  0  0  0  0  0  0  0  0  0  0  0
    0.9780   -0.4148   -0.0181 C   0  0  0  0  0  0  0  0  0  0  0  0
   -0.0828   -1.2762   -0.5426 C   0  0  0  0  0  0  0  0  0  0  0  0
    0.0503   -2.5907   -0.1252 O   0  0  0  0  0  0  0  0  0  0  0  0
   -1.4202   -0.6852   -0.1363 C   0  0  0  0  0  0  0  0  0  0  0  0
   -1.4083    0.6618   -0.6328 O   0  0  0  0  0  0  0  0  0  0  0  0
   -2.4555    1.5208   -0.4591 C   0  0  0  0  0  0  0  0  0  0  0  0
   -3.4798    1.1770    0.1424 O   0  0  0  0  0  0  0  0  0  0  0  0
    2.5779    2.1671    1.1611 H   0  0  0  0  0  0  0  0  0  0  0  0
    3.7293    1.1479    0.1818 H   0  0  0  0  0  0  0  0  0  0  0  0
    3.3529    0.7448    1.8946 H   0  0  0  0  0  0  0  0  0  0  0  0
   -0.0333   -1.2567   -1.6617 H   0  0  0  0  0  0  0  0  0  0  0  0
   -0.4758   -3.1631   -0.7510 H   0  0  0  0  0  0  0  0  0  0  0  0
   -2.2661   -1.2604   -0.5368 H   0  0  0  0  0  0  0  0  0  0  0  0
   -1.4741   -0.7138    0.9590 H   0  0  0  0  0  0  0  0  0  0  0  0
   -2.3857    2.5201   -0.8558 H   0  0  0  0  0  0  0  0  0  0  0  0
  1  2  1  0
  2  3  3  0
  3  4  1  0
  4  5  1  0
  4  6  1  0
  6  7  1  0
  7  8  1  0
  8  9  2  0
  1 10  1  0
  1 11  1  0
  1 12  1  0
  4 13  1  0
  5 14  1  0
  6 15  1  0
  6 16  1  0
  8 17  1  0
M  END
