
     RDKit          3D

 16 16  0  0  0  0  0  0  0  0999 V2000
    3.2201   -0.4651    0.4249 C   0  0  0  0  0  0  0  0  0  0  0  0
    1.8115   -0.0929    0.5873 C   0  0  0  0  0  0  0  0  0  0  0  0
    0.6418    0.2310    0.7380 C   0  0  0  0  0  0  0  0  0  0  0  0
   -0.7487    0.6347    0.9360 C   0  0  0  0  0  0  0  0  0  0  0  0
   -1.4495    0.9440   -0.3396 C   0  0  0  0  0  0  0  0  0  0  0  0
   -2.1017   -0.4161   -0.3249 C   0  0  0  0  0  0  0  0  0  0  0  0
   -2.7008   -1.0652   -1.1758 O   0  0  0  0  0  0  0  0  0  0  0  0
   -1.6816   -0.5313    1.0929 C   0  0  0  0  0  0  0  0  0  0  0  0
    3.8084   -0.3160    1.3447 H   0  0  0  0  0  0  0  0  0  0  0  0
    3.2587   -1.5480    0.1784 H   0  0  0  0  0  0  0  0  0  0  0  0
    3.6113    0.1229   -0.4350 H   0  0  0  0  0  0  0  0  0  0  0  0
   -0.8957    1.4272    1.7043 H   0  0  0  0  0  0  0  0  0  0  0  0
   -2.2608    1.7006   -0.1827 H   0  0  0  0  0  0  0  0  0  0  0  0
   -0.8590    1.1610   -1.2226 H   0  0  0  0  0  0  0  0  0  0  0  0
   -2.4819   -0.2962    1.8211 H   0  0  0  0  0  0  0  0  0  0  0  0
   -1.1718   -1.4906    1.2906 H   0  0  0  0  0  0  0  0  0  0  0  0
  1  2  1  0
  2  3  3  0
  3  4  1  0
  4  5  1  0
  5  6  1  0
  6  7  2  0
  6  8  1  0
  8  4  1  0
  1  9  1  0
  1 10  1  0
  1 11  1  0
  4 12  1  0
  5 13  1  0
  5 14  1  0
  8 15  1  0
  8 16  1  0
M  END
