
     RDKit          3D

 23 23  0  0  0  0  0  0  0  0999 V2000
    4.1167    0.1888   -0.4153 C   0  0  0  0  0  0  0  0  0  0  0  0
    2.6743    0.1240   -0.2293 C   0  0  0  0  0  0  0  0  0  0  0  0
    1.4834    0.0587   -0.0621 C   0  0  0  0  0  0  0  0  0  0  0  0
    0.0051   -0.0156    0.1705 C   0  0  0  0  0  0  0  0  0  0  0  0
   -0.6005    1.3235    0.4025 C   0  0  0  0  0  0  0  0  0  0  0  0
   -2.0617    1.3738    0.6544 C   0  0  0  0  0  0  0  0  0  0  0  0
   -0.4958   -1.1285    1.0465 C   0  0  0  0  0  0  0  0  0  0  0  0
   -0.6441   -1.1684   -0.4437 C   0  0  0  0  0  0  0  0  0  0  0  0
   -1.9794   -1.1838   -1.0984 C   0  0  0  0  0  0  0  0  0  0  0  0
    4.6394   -0.6740    0.0383 H   0  0  0  0  0  0  0  0  0  0  0  0
    4.5007    1.1523   -0.0290 H   0  0  0  0  0  0  0  0  0  0  0  0
    4.3377    0.1343   -1.5103 H   0  0  0  0  0  0  0  0  0  0  0  0
   -0.0893    1.7656    1.3170 H   0  0  0  0  0  0  0  0  0  0  0  0
   -0.3519    2.0593   -0.4057 H   0  0  0  0  0  0  0  0  0  0  0  0
   -2.2735    2.1404    1.4544 H   0  0  0  0  0  0  0  0  0  0  0  0
   -2.5624    1.8301   -0.2518 H   0  0  0  0  0  0  0  0  0  0  0  0
   -2.5734    0.4356    0.8476 H   0  0  0  0  0  0  0  0  0  0  0  0
   -1.4269   -1.0344    1.6131 H   0  0  0  0  0  0  0  0  0  0  0  0
    0.3313   -1.7070    1.5462 H   0  0  0  0  0  0  0  0  0  0  0  0
    0.0506   -1.9467   -0.9004 H   0  0  0  0  0  0  0  0  0  0  0  0
   -2.0376   -1.9240   -1.9532 H   0  0  0  0  0  0  0  0  0  0  0  0
   -2.3264   -0.2057   -1.4355 H   0  0  0  0  0  0  0  0  0  0  0  0
   -2.7162   -1.5984   -0.3557 H   0  0  0  0  0  0  0  0  0  0  0  0
  1  2  1  0
  2  3  3  0
  3  4  1  0
  4  5  1  0
  5  6  1  0
  4  7  1  0
  7  8  1  0
  8  9  1  0
  8  4  1  0
  1 10  1  0
  1 11  1  0
  1 12  1  0
  5 13  1  0
  5 14  1  0
  6 15  1  0
  6 16  1  0
  6 17  1  0
  7 18  1  0
  7 19  1  0
  8 20  1  0
  9 21  1  0
  9 22  1  0
  9 23  1  0
M  END
