
     RDKit          3D

 21 22  0  0  0  0  0  0  0  0999 V2000
    3.7373   -0.0556   -0.2556 C   0  0  0  0  0  0  0  0  0  0  0  0
    2.2846    0.0698   -0.1171 C   0  0  0  0  0  0  0  0  0  0  0  0
    1.0899    0.1746    0.0179 C   0  0  0  0  0  0  0  0  0  0  0  0
   -0.3756    0.3243    0.1686 C   0  0  0  0  0  0  0  0  0  0  0  0
   -0.6532    1.4963    1.0863 C   0  0  0  0  0  0  0  0  0  0  0  0
   -1.0214    0.3991   -1.1750 C   0  0  0  0  0  0  0  0  0  0  0  0
   -1.5673   -0.9935   -0.9531 C   0  0  0  0  0  0  0  0  0  0  0  0
   -2.5159   -1.1510    0.1549 C   0  0  0  0  0  0  0  0  0  0  0  0
   -1.0879   -0.9450    0.4982 C   0  0  0  0  0  0  0  0  0  0  0  0
    4.1643    0.8604   -0.7545 H   0  0  0  0  0  0  0  0  0  0  0  0
    3.9116   -0.9108   -0.9403 H   0  0  0  0  0  0  0  0  0  0  0  0
    4.2517   -0.2017    0.7027 H   0  0  0  0  0  0  0  0  0  0  0  0
   -0.3853    2.4181    0.4913 H   0  0  0  0  0  0  0  0  0  0  0  0
   -0.0184    1.4764    1.9717 H   0  0  0  0  0  0  0  0  0  0  0  0
   -1.7415    1.5447    1.2954 H   0  0  0  0  0  0  0  0  0  0  0  0
   -0.3517    0.3966   -2.0492 H   0  0  0  0  0  0  0  0  0  0  0  0
   -1.8796    1.1161   -1.2250 H   0  0  0  0  0  0  0  0  0  0  0  0
   -1.1628   -1.8367   -1.5407 H   0  0  0  0  0  0  0  0  0  0  0  0
   -3.2356   -0.2899    0.2805 H   0  0  0  0  0  0  0  0  0  0  0  0
   -2.9501   -2.1067    0.4560 H   0  0  0  0  0  0  0  0  0  0  0  0
   -0.4931   -1.7855    0.8743 H   0  0  0  0  0  0  0  0  0  0  0  0
  1  2  1  0
  2  3  3  0
  3  4  1  0
  4  5  1  0
  4  6  1  0
  6  7  1  0
  7  8  1  0
  8  9  1  0
  9  4  1  0
  9  7  1  0
  1 10  1  0
  1 11  1  0
  1 12  1  0
  5 13  1  0
  5 14  1  0
  5 15  1  0
  6 16  1  0
  6 17  1  0
  7 18  1  0
  8 19  1  0
  8 20  1  0
  9 21  1  0
M  END
