
     RDKit          3D

 21 20  0  0  0  0  0  0  0  0999 V2000
    3.7092   -1.5008   -0.4132 C   0  0  0  0  0  0  0  0  0  0  0  0
    2.4333   -0.8113   -0.2147 C   0  0  0  0  0  0  0  0  0  0  0  0
    1.3778   -0.2168   -0.0490 C   0  0  0  0  0  0  0  0  0  0  0  0
    0.1065    0.4923    0.1251 C   0  0  0  0  0  0  0  0  0  0  0  0
   -0.9959   -0.5311    0.0119 C   0  0  0  0  0  0  0  0  0  0  0  0
   -2.2371    0.0849    0.2041 O   0  0  0  0  0  0  0  0  0  0  0  0
   -3.2365   -0.9005    0.0911 C   0  0  0  0  0  0  0  0  0  0  0  0
   -0.0310    1.4960   -0.8221 O   0  0  0  0  0  0  0  0  0  0  0  0
   -0.1942    2.7197   -0.1860 C   0  0  0  0  0  0  0  0  0  0  0  0
    4.4511   -0.8423   -0.9430 H   0  0  0  0  0  0  0  0  0  0  0  0
    3.5199   -2.3521   -1.0920 H   0  0  0  0  0  0  0  0  0  0  0  0
    4.1373   -1.7937    0.5557 H   0  0  0  0  0  0  0  0  0  0  0  0
    0.0530    0.9082    1.1577 H   0  0  0  0  0  0  0  0  0  0  0  0
   -0.8850   -1.2706    0.8289 H   0  0  0  0  0  0  0  0  0  0  0  0
   -0.9871   -1.0791   -0.9320 H   0  0  0  0  0  0  0  0  0  0  0  0
   -4.2368   -0.4926    0.2300 H   0  0  0  0  0  0  0  0  0  0  0  0
   -3.0195   -1.7229    0.8295 H   0  0  0  0  0  0  0  0  0  0  0  0
   -3.1953   -1.3608   -0.9241 H   0  0  0  0  0  0  0  0  0  0  0  0
   -0.3025    3.5104   -0.9312 H   0  0  0  0  0  0  0  0  0  0  0  0
    0.6449    2.9855    0.4788 H   0  0  0  0  0  0  0  0  0  0  0  0
   -1.1122    2.6779    0.4225 H   0  0  0  0  0  0  0  0  0  0  0  0
  1  2  1  0
  2  3  3  0
  3  4  1  0
  4  5  1  0
  5  6  1  0
  6  7  1  0
  4  8  1  0
  8  9  1  0
  1 10  1  0
  1 11  1  0
  1 12  1  0
  4 13  1  0
  5 14  1  0
  5 15  1  0
  7 16  1  0
  7 17  1  0
  7 18  1  0
  9 19  1  0
  9 20  1  0
  9 21  1  0
M  END
