
     RDKit          3D

 14 14  0  0  0  0  0  0  0  0999 V2000
    3.0841   -0.2482   -0.2898 C   0  0  0  0  0  0  0  0  0  0  0  0
    1.6657   -0.0251    0.0619 C   0  0  0  0  0  0  0  0  0  0  0  0
    0.4990    0.1533    0.3302 C   0  0  0  0  0  0  0  0  0  0  0  0
   -0.8963    0.3839    0.6326 C   0  0  0  0  0  0  0  0  0  0  0  0
   -1.8081   -0.5759   -0.0788 C   0  0  0  0  0  0  0  0  0  0  0  0
   -2.6820    0.6491   -0.0674 C   0  0  0  0  0  0  0  0  0  0  0  0
   -3.9176    0.8836    0.0202 O   0  0  0  0  0  0  0  0  0  0  0  0
   -1.5078    1.3870   -0.1965 O   0  0  0  0  0  0  0  0  0  0  0  0
    3.1799   -0.8765   -1.1806 H   0  0  0  0  0  0  0  0  0  0  0  0
    3.5921   -0.7145    0.5956 H   0  0  0  0  0  0  0  0  0  0  0  0
    3.6056    0.7259   -0.4505 H   0  0  0  0  0  0  0  0  0  0  0  0
   -1.1474    0.5186    1.7007 H   0  0  0  0  0  0  0  0  0  0  0  0
   -2.2080   -1.4090    0.5324 H   0  0  0  0  0  0  0  0  0  0  0  0
   -1.4590   -0.8524   -1.0770 H   0  0  0  0  0  0  0  0  0  0  0  0
  1  2  1  0
  2  3  3  0
  3  4  1  0
  4  5  1  0
  5  6  1  0
  6  7  2  0
  6  8  1  0
  8  4  1  0
  1  9  1  0
  1 10  1  0
  1 11  1  0
  4 12  1  0
  5 13  1  0
  5 14  1  0
M  END
