
     RDKit          3D

 19 18  0  0  0  0  0  0  0  0999 V2000
   -3.1654    1.2287   -1.4394 C   0  0  0  0  0  0  0  0  0  0  0  0
   -2.0836    0.5345   -0.7292 C   0  0  0  0  0  0  0  0  0  0  0  0
   -1.1711   -0.0301   -0.1496 C   0  0  0  0  0  0  0  0  0  0  0  0
   -0.0760   -0.6846    0.5578 C   0  0  0  0  0  0  0  0  0  0  0  0
   -0.0583   -2.1387    0.1109 C   0  0  0  0  0  0  0  0  0  0  0  0
   -0.2725   -0.6800    1.9463 O   0  0  0  0  0  0  0  0  0  0  0  0
    1.1982   -0.0265    0.2641 C   0  0  0  0  0  0  0  0  0  0  0  0
    2.2492    0.5244    0.0345 C   0  0  0  0  0  0  0  0  0  0  0  0
    3.5368    1.1799   -0.2420 C   0  0  0  0  0  0  0  0  0  0  0  0
   -2.9639    1.1047   -2.5186 H   0  0  0  0  0  0  0  0  0  0  0  0
   -4.1585    0.7836   -1.1985 H   0  0  0  0  0  0  0  0  0  0  0  0
   -3.2436    2.2997   -1.1329 H   0  0  0  0  0  0  0  0  0  0  0  0
    1.0105   -2.4553    0.1131 H   0  0  0  0  0  0  0  0  0  0  0  0
   -0.4271   -2.1855   -0.9493 H   0  0  0  0  0  0  0  0  0  0  0  0
   -0.6915   -2.7334    0.7878 H   0  0  0  0  0  0  0  0  0  0  0  0
   -1.2520   -0.8140    2.1002 H   0  0  0  0  0  0  0  0  0  0  0  0
    3.4498    1.8007   -1.1470 H   0  0  0  0  0  0  0  0  0  0  0  0
    3.8121    1.8822    0.5856 H   0  0  0  0  0  0  0  0  0  0  0  0
    4.3067    0.4097   -0.3082 H   0  0  0  0  0  0  0  0  0  0  0  0
  1  2  1  0
  2  3  3  0
  3  4  1  0
  4  5  1  0
  4  6  1  0
  4  7  1  0
  7  8  3  0
  8  9  1  0
  1 10  1  0
  1 11  1  0
  1 12  1  0
  5 13  1  0
  5 14  1  0
  5 15  1  0
  6 16  1  0
  9 17  1  0
  9 18  1  0
  9 19  1  0
M  END
