
     RDKit          3D

 23 22  0  0  0  0  0  0  0  0999 V2000
    3.6192    0.9842    0.2933 C   0  0  0  0  0  0  0  0  0  0  0  0
    2.2352    0.5219    0.1019 C   0  0  0  0  0  0  0  0  0  0  0  0
    1.0975    0.1348   -0.0369 C   0  0  0  0  0  0  0  0  0  0  0  0
   -0.2857   -0.3482   -0.1939 C   0  0  0  0  0  0  0  0  0  0  0  0
   -0.4359   -0.7349   -1.6528 C   0  0  0  0  0  0  0  0  0  0  0  0
   -0.4648   -1.5648    0.6576 C   0  0  0  0  0  0  0  0  0  0  0  0
   -1.2117    0.7627    0.1752 C   0  0  0  0  0  0  0  0  0  0  0  0
   -2.6539    0.4186    0.0641 C   0  0  0  0  0  0  0  0  0  0  0  0
   -0.8961    1.1855    1.4649 O   0  0  0  0  0  0  0  0  0  0  0  0
    4.2311    0.1169    0.5369 H   0  0  0  0  0  0  0  0  0  0  0  0
    3.9875    1.5636   -0.5810 H   0  0  0  0  0  0  0  0  0  0  0  0
    3.6945    1.6906    1.1651 H   0  0  0  0  0  0  0  0  0  0  0  0
    0.2296   -1.6142   -1.8497 H   0  0  0  0  0  0  0  0  0  0  0  0
   -1.4522   -1.0560   -1.8976 H   0  0  0  0  0  0  0  0  0  0  0  0
   -0.0976    0.0647   -2.3390 H   0  0  0  0  0  0  0  0  0  0  0  0
   -1.1801   -1.3772    1.4882 H   0  0  0  0  0  0  0  0  0  0  0  0
   -0.7586   -2.4673    0.0595 H   0  0  0  0  0  0  0  0  0  0  0  0
    0.4952   -1.8665    1.1607 H   0  0  0  0  0  0  0  0  0  0  0  0
   -1.0100    1.6262   -0.4954 H   0  0  0  0  0  0  0  0  0  0  0  0
   -3.2331    1.3845    0.1534 H   0  0  0  0  0  0  0  0  0  0  0  0
   -2.9815   -0.2906    0.8756 H   0  0  0  0  0  0  0  0  0  0  0  0
   -2.8869    0.0375   -0.9447 H   0  0  0  0  0  0  0  0  0  0  0  0
   -0.0416    0.8281    1.7945 H   0  0  0  0  0  0  0  0  0  0  0  0
  1  2  1  0
  2  3  3  0
  3  4  1  0
  4  5  1  0
  4  6  1  0
  4  7  1  0
  7  8  1  0
  7  9  1  0
  1 10  1  0
  1 11  1  0
  1 12  1  0
  5 13  1  0
  5 14  1  0
  5 15  1  0
  6 16  1  0
  6 17  1  0
  6 18  1  0
  7 19  1  0
  8 20  1  0
  8 21  1  0
  8 22  1  0
  9 23  1  0
M  END
