
     RDKit          3D

 19 18  0  0  0  0  0  0  0  0999 V2000
    4.0121   -2.3588   -0.5891 C   0  0  0  0  0  0  0  0  0  0  0  0
    2.9095   -1.5232   -0.1157 C   0  0  0  0  0  0  0  0  0  0  0  0
    1.9991   -0.8095    0.2906 C   0  0  0  0  0  0  0  0  0  0  0  0
    0.9317    0.0160    0.7889 C   0  0  0  0  0  0  0  0  0  0  0  0
    1.0623    0.6719    1.8542 O   0  0  0  0  0  0  0  0  0  0  0  0
   -0.3197    0.0849    0.0355 C   0  0  0  0  0  0  0  0  0  0  0  0
   -1.2044    0.9287    0.6831 O   0  0  0  0  0  0  0  0  0  0  0  0
   -2.4142    1.0478    0.0325 C   0  0  0  0  0  0  0  0  0  0  0  0
   -3.2999    1.9898    0.8215 C   0  0  0  0  0  0  0  0  0  0  0  0
    4.4431   -2.9672    0.2503 H   0  0  0  0  0  0  0  0  0  0  0  0
    3.5957   -3.0986   -1.3090 H   0  0  0  0  0  0  0  0  0  0  0  0
    4.8352   -1.7551   -1.0219 H   0  0  0  0  0  0  0  0  0  0  0  0
   -0.1840    0.3473   -1.0331 H   0  0  0  0  0  0  0  0  0  0  0  0
   -0.7780   -0.9446    0.0690 H   0  0  0  0  0  0  0  0  0  0  0  0
   -2.9112    0.0626   -0.1293 H   0  0  0  0  0  0  0  0  0  0  0  0
   -2.2168    1.5344   -0.9465 H   0  0  0  0  0  0  0  0  0  0  0  0
   -3.2628    1.7436    1.8883 H   0  0  0  0  0  0  0  0  0  0  0  0
   -2.8747    3.0141    0.6602 H   0  0  0  0  0  0  0  0  0  0  0  0
   -4.3230    2.0159    0.3925 H   0  0  0  0  0  0  0  0  0  0  0  0
  1  2  1  0
  2  3  3  0
  3  4  1  0
  4  5  2  0
  4  6  1  0
  6  7  1  0
  7  8  1  0
  8  9  1  0
  1 10  1  0
  1 11  1  0
  1 12  1  0
  6 13  1  0
  6 14  1  0
  8 15  1  0
  8 16  1  0
  9 17  1  0
  9 18  1  0
  9 19  1  0
M  END
