
     RDKit          3D

 21 21  0  0  0  0  0  0  0  0999 V2000
    3.6920   -0.1440   -0.9295 C   0  0  0  0  0  0  0  0  0  0  0  0
    2.1787   -0.1507   -0.2837 C   0  0  0  0  0  0  0  0  0  0  0  0
    0.5885   -0.1831    0.3776 C   0  0  0  0  0  0  0  0  0  0  0  0
   -0.2826   -0.2052    0.7540 C   0  0  0  0  0  0  0  0  0  0  0  0
   -1.5887   -0.2438    1.3148 C   0  0  0  0  0  0  0  0  0  0  0  0
   -1.6190   -1.5452    2.1495 C   0  0  0  0  0  0  0  0  0  0  0  0
   -1.0939    0.3833   -0.8668 C   0  0  0  0  0  0  0  0  0  0  0  0
   -0.7987    1.7325   -1.1200 C   0  0  0  0  0  0  0  0  0  0  0  0
    0.1939    0.8775   -1.5013 O   0  0  0  0  0  0  0  0  0  0  0  0
    3.2879   -0.1242   -1.9996 H   0  0  0  0  0  0  0  0  0  0  0  0
    3.8552   -1.2301   -0.5889 H   0  0  0  0  0  0  0  0  0  0  0  0
    4.0225    0.6646   -0.2598 H   0  0  0  0  0  0  0  0  0  0  0  0
   -0.3856    1.2744    0.8145 H   0  0  0  0  0  0  0  0  0  0  0  0
   -1.7602    0.5355    2.1850 H   0  0  0  0  0  0  0  0  0  0  0  0
   -2.4426   -0.1016    0.5872 H   0  0  0  0  0  0  0  0  0  0  0  0
   -2.5974   -1.9145    2.3380 H   0  0  0  0  0  0  0  0  0  0  0  0
   -1.1092   -1.3919    3.1415 H   0  0  0  0  0  0  0  0  0  0  0  0
   -0.9459   -2.2970    1.5983 H   0  0  0  0  0  0  0  0  0  0  0  0
   -1.1780   -0.5542   -1.3278 H   0  0  0  0  0  0  0  0  0  0  0  0
   -1.3859    2.2167   -1.9682 H   0  0  0  0  0  0  0  0  0  0  0  0
   -0.6309    2.4011   -0.2438 H   0  0  0  0  0  0  0  0  0  0  0  0
  1  2  1  0
  2  3  3  0
  3  4  1  0
  4  5  1  0
  5  6  1  0
  4  7  1  0
  7  8  1  0
  8  9  1  0
  9  7  1  0
  1 10  1  0
  1 11  1  0
  1 12  1  0
  4 13  1  0
  5 14  1  0
  5 15  1  0
  6 16  1  0
  6 17  1  0
  6 18  1  0
  7 19  1  0
  8 20  1  0
  8 21  1  0
M  END
