
     RDKit          3D

 11 10  0  0  0  0  0  0  0  0999 V2000
    2.4315   -0.3744   -0.6504 C   0  0  0  0  0  0  0  0  0  0  0  0
    0.9963   -0.3121   -0.3604 C   0  0  0  0  0  0  0  0  0  0  0  0
   -0.2044   -0.2538   -0.1385 C   0  0  0  0  0  0  0  0  0  0  0  0
   -1.6112   -0.1744    0.1399 C   0  0  0  0  0  0  0  0  0  0  0  0
   -2.1383   -0.9543    0.9828 O   0  0  0  0  0  0  0  0  0  0  0  0
   -2.4620    0.7892   -0.5272 C   0  0  0  0  0  0  0  0  0  0  0  0
   -1.9425    1.5587   -1.3587 O   0  0  0  0  0  0  0  0  0  0  0  0
    2.7443    0.4028   -1.3851 H   0  0  0  0  0  0  0  0  0  0  0  0
    3.0329   -0.1827    0.2738 H   0  0  0  0  0  0  0  0  0  0  0  0
    2.6737   -1.3791   -1.0138 H   0  0  0  0  0  0  0  0  0  0  0  0
   -3.5203    0.8801   -0.3462 H   0  0  0  0  0  0  0  0  0  0  0  0
  1  2  1  0
  2  3  3  0
  3  4  1  0
  4  5  2  0
  4  6  1  0
  6  7  2  0
  1  8  1  0
  1  9  1  0
  1 10  1  0
  6 11  1  0
M  END
