
     RDKit          3D

 19 19  0  0  0  0  0  0  0  0999 V2000
    3.0371    0.3840   -1.5852 C   0  0  0  0  0  0  0  0  0  0  0  0
    1.8836   -0.1993   -0.8967 C   0  0  0  0  0  0  0  0  0  0  0  0
    0.9179   -0.7021   -0.3361 C   0  0  0  0  0  0  0  0  0  0  0  0
   -0.2404   -1.3104    0.3097 C   0  0  0  0  0  0  0  0  0  0  0  0
   -1.3626   -0.3347    0.3186 C   0  0  0  0  0  0  0  0  0  0  0  0
   -2.5180   -0.7805    0.8994 O   0  0  0  0  0  0  0  0  0  0  0  0
   -1.4869    0.5885   -0.8463 C   0  0  0  0  0  0  0  0  0  0  0  0
   -1.8267    1.6136    0.0667 O   0  0  0  0  0  0  0  0  0  0  0  0
   -0.9263    0.9880    0.9578 C   0  0  0  0  0  0  0  0  0  0  0  0
    3.7583    0.8278   -0.8703 H   0  0  0  0  0  0  0  0  0  0  0  0
    3.5911   -0.4230   -2.1423 H   0  0  0  0  0  0  0  0  0  0  0  0
    2.6760    1.1351   -2.2864 H   0  0  0  0  0  0  0  0  0  0  0  0
   -0.5390   -2.2648   -0.1740 H   0  0  0  0  0  0  0  0  0  0  0  0
   -0.0190   -1.5844    1.3785 H   0  0  0  0  0  0  0  0  0  0  0  0
   -3.0179   -1.4410    0.3537 H   0  0  0  0  0  0  0  0  0  0  0  0
   -0.4953    0.7948   -1.2966 H   0  0  0  0  0  0  0  0  0  0  0  0
   -2.3185    0.4041   -1.5336 H   0  0  0  0  0  0  0  0  0  0  0  0
   -1.2231    1.0384    2.0160 H   0  0  0  0  0  0  0  0  0  0  0  0
    0.1095    1.2659    0.7114 H   0  0  0  0  0  0  0  0  0  0  0  0
  1  2  1  0
  2  3  3  0
  3  4  1  0
  4  5  1  0
  5  6  1  0
  5  7  1  0
  7  8  1  0
  8  9  1  0
  9  5  1  0
  1 10  1  0
  1 11  1  0
  1 12  1  0
  4 13  1  0
  4 14  1  0
  6 15  1  0
  7 16  1  0
  7 17  1  0
  9 18  1  0
  9 19  1  0
M  END
