
     RDKit          3D

 23 23  0  0  0  0  0  0  0  0999 V2000
    5.0789    0.0580   -0.3740 C   0  0  0  0  0  0  0  0  0  0  0  0
    3.7362    0.1637    0.0138 C   0  0  0  0  0  0  0  0  0  0  0  0
    2.4396    0.2732    0.4005 C   0  0  0  0  0  0  0  0  0  0  0  0
    1.1691    0.3814    0.7708 C   0  0  0  0  0  0  0  0  0  0  0  0
    0.1281   -0.0483   -0.2993 C   0  0  0  0  0  0  0  0  0  0  0  0
   -1.2027   -0.0085    0.3910 C   0  0  0  0  0  0  0  0  0  0  0  0
   -2.3764   -0.4496   -0.3728 C   0  0  0  0  0  0  0  0  0  0  0  0
   -3.6771   -0.2703    0.5012 C   0  0  0  0  0  0  0  0  0  0  0  0
   -3.5078    0.3181   -0.8435 C   0  0  0  0  0  0  0  0  0  0  0  0
    5.7070   -0.2519    0.4565 H   0  0  0  0  0  0  0  0  0  0  0  0
    5.1830   -0.7693   -1.1767 H   0  0  0  0  0  0  0  0  0  0  0  0
    5.3843    1.0142   -0.8803 H   0  0  0  0  0  0  0  0  0  0  0  0
    0.8870   -0.4429    1.5959 H   0  0  0  0  0  0  0  0  0  0  0  0
    0.8559    1.3314    1.2789 H   0  0  0  0  0  0  0  0  0  0  0  0
    0.1761    0.7103   -1.1264 H   0  0  0  0  0  0  0  0  0  0  0  0
    0.4133   -1.0450   -0.6408 H   0  0  0  0  0  0  0  0  0  0  0  0
   -1.0904   -0.7965    1.2235 H   0  0  0  0  0  0  0  0  0  0  0  0
   -1.3227    0.9180    0.9976 H   0  0  0  0  0  0  0  0  0  0  0  0
   -2.2927   -1.5322   -0.7200 H   0  0  0  0  0  0  0  0  0  0  0  0
   -3.6190    0.3899    1.3532 H   0  0  0  0  0  0  0  0  0  0  0  0
   -4.3396   -1.1630    0.5810 H   0  0  0  0  0  0  0  0  0  0  0  0
   -4.1714   -0.1864   -1.6298 H   0  0  0  0  0  0  0  0  0  0  0  0
   -3.5589    1.4058   -1.0003 H   0  0  0  0  0  0  0  0  0  0  0  0
  1  2  1  0
  2  3  3  0
  3  4  1  0
  4  5  1  0
  5  6  1  0
  6  7  1  0
  7  8  1  0
  8  9  1  0
  9  7  1  0
  1 10  1  0
  1 11  1  0
  1 12  1  0
  4 13  1  0
  4 14  1  0
  5 15  1  0
  5 16  1  0
  6 17  1  0
  6 18  1  0
  7 19  1  0
  8 20  1  0
  8 21  1  0
  9 22  1  0
  9 23  1  0
M  END
