
     RDKit          3D

 17 17  0  0  0  0  0  0  0  0999 V2000
    2.0767    2.4392    1.5358 C   0  0  0  0  0  0  0  0  0  0  0  0
    1.3742    1.1753    1.3550 C   0  0  0  0  0  0  0  0  0  0  0  0
    0.7727    0.0913    1.2212 C   0  0  0  0  0  0  0  0  0  0  0  0
    0.0913   -1.1466    1.0444 C   0  0  0  0  0  0  0  0  0  0  0  0
   -0.1842   -1.9031    2.0367 O   0  0  0  0  0  0  0  0  0  0  0  0
   -0.3415   -1.6370   -0.2826 C   0  0  0  0  0  0  0  0  0  0  0  0
   -1.7983   -1.3765   -0.6198 C   0  0  0  0  0  0  0  0  0  0  0  0
   -1.1621   -0.1159   -1.1402 C   0  0  0  0  0  0  0  0  0  0  0  0
   -0.0004   -0.8420   -1.3610 O   0  0  0  0  0  0  0  0  0  0  0  0
    2.2180    2.8950    0.5357 H   0  0  0  0  0  0  0  0  0  0  0  0
    3.0319    2.3331    2.0572 H   0  0  0  0  0  0  0  0  0  0  0  0
    1.4663    3.1462    2.1707 H   0  0  0  0  0  0  0  0  0  0  0  0
   -0.1028   -2.7197   -0.4634 H   0  0  0  0  0  0  0  0  0  0  0  0
   -2.2492   -2.0578   -1.3593 H   0  0  0  0  0  0  0  0  0  0  0  0
   -2.4062   -1.1915    0.2858 H   0  0  0  0  0  0  0  0  0  0  0  0
   -1.6805    0.2121   -2.0658 H   0  0  0  0  0  0  0  0  0  0  0  0
   -1.1058    0.6977   -0.3907 H   0  0  0  0  0  0  0  0  0  0  0  0
  1  2  1  0
  2  3  3  0
  3  4  1  0
  4  5  2  0
  4  6  1  0
  6  7  1  0
  7  8  1  0
  8  9  1  0
  9  6  1  0
  1 10  1  0
  1 11  1  0
  1 12  1  0
  6 13  1  0
  7 14  1  0
  7 15  1  0
  8 16  1  0
  8 17  1  0
M  END
