
     RDKit          3D

 19 20  0  0  0  0  0  0  0  0999 V2000
    3.5136    0.3308    0.1832 C   0  0  0  0  0  0  0  0  0  0  0  0
    2.0583    0.1281    0.0588 C   0  0  0  0  0  0  0  0  0  0  0  0
    0.8654   -0.0434   -0.0499 C   0  0  0  0  0  0  0  0  0  0  0  0
   -0.5694   -0.2493   -0.1555 C   0  0  0  0  0  0  0  0  0  0  0  0
   -0.9908   -1.3500   -1.1023 C   0  0  0  0  0  0  0  0  0  0  0  0
   -1.2605    1.0654   -0.4327 C   0  0  0  0  0  0  0  0  0  0  0  0
   -2.0471    0.8383    0.8640 C   0  0  0  0  0  0  0  0  0  0  0  0
   -1.3218    0.7287    2.0268 O   0  0  0  0  0  0  0  0  0  0  0  0
   -1.3221   -0.3228    1.1438 C   0  0  0  0  0  0  0  0  0  0  0  0
    3.8476    1.2223   -0.3495 H   0  0  0  0  0  0  0  0  0  0  0  0
    4.0754   -0.5408   -0.2293 H   0  0  0  0  0  0  0  0  0  0  0  0
    3.7883    0.3810    1.2637 H   0  0  0  0  0  0  0  0  0  0  0  0
   -0.8006   -0.9833   -2.1368 H   0  0  0  0  0  0  0  0  0  0  0  0
   -2.0820   -1.5010   -0.9441 H   0  0  0  0  0  0  0  0  0  0  0  0
   -0.4009   -2.2507   -0.8598 H   0  0  0  0  0  0  0  0  0  0  0  0
   -1.9174    0.9927   -1.3125 H   0  0  0  0  0  0  0  0  0  0  0  0
   -0.6500    1.9656   -0.3349 H   0  0  0  0  0  0  0  0  0  0  0  0
   -3.1325    0.8867    0.8449 H   0  0  0  0  0  0  0  0  0  0  0  0
   -1.6536   -1.2983    1.5221 H   0  0  0  0  0  0  0  0  0  0  0  0
  1  2  1  0
  2  3  3  0
  3  4  1  0
  4  5  1  0
  4  6  1  0
  6  7  1  0
  7  8  1  0
  8  9  1  0
  9  4  1  0
  9  7  1  0
  1 10  1  0
  1 11  1  0
  1 12  1  0
  5 13  1  0
  5 14  1  0
  5 15  1  0
  6 16  1  0
  6 17  1  0
  7 18  1  0
  9 19  1  0
M  END
