
     RDKit          3D

 21 21  0  0  0  0  0  0  0  0999 V2000
   -3.9637    0.7065    0.1307 C   0  0  0  0  0  0  0  0  0  0  0  0
   -2.5367    0.4124   -0.1132 C   0  0  0  0  0  0  0  0  0  0  0  0
   -1.3729    0.1890   -0.3251 C   0  0  0  0  0  0  0  0  0  0  0  0
    0.0410   -0.0962   -0.5976 C   0  0  0  0  0  0  0  0  0  0  0  0
    0.4165   -1.3242    0.1968 C   0  0  0  0  0  0  0  0  0  0  0  0
    1.8228   -1.6430   -0.1435 C   0  0  0  0  0  0  0  0  0  0  0  0
    2.7125   -0.6758   -0.0024 C   0  0  0  0  0  0  0  0  0  0  0  0
    2.1882    0.6452    0.4911 C   0  0  0  0  0  0  0  0  0  0  0  0
    0.9259    1.0541   -0.2311 C   0  0  0  0  0  0  0  0  0  0  0  0
   -4.5584    0.5568   -0.8051 H   0  0  0  0  0  0  0  0  0  0  0  0
   -4.0235    1.7601    0.4798 H   0  0  0  0  0  0  0  0  0  0  0  0
   -4.3902    0.0290    0.9057 H   0  0  0  0  0  0  0  0  0  0  0  0
    0.2081   -0.3314   -1.6737 H   0  0  0  0  0  0  0  0  0  0  0  0
   -0.2695   -2.1641    0.0240 H   0  0  0  0  0  0  0  0  0  0  0  0
    0.3414   -1.0475    1.2892 H   0  0  0  0  0  0  0  0  0  0  0  0
    2.0835   -2.6255   -0.4881 H   0  0  0  0  0  0  0  0  0  0  0  0
    3.7596   -0.8150   -0.2259 H   0  0  0  0  0  0  0  0  0  0  0  0
    2.0085    0.5138    1.5865 H   0  0  0  0  0  0  0  0  0  0  0  0
    2.9497    1.4410    0.3702 H   0  0  0  0  0  0  0  0  0  0  0  0
    0.4132    1.8115    0.3945 H   0  0  0  0  0  0  0  0  0  0  0  0
    1.2440    1.6034   -1.1575 H   0  0  0  0  0  0  0  0  0  0  0  0
  1  2  1  0
  2  3  3  0
  3  4  1  0
  4  5  1  0
  5  6  1  0
  6  7  2  0
  7  8  1  0
  8  9  1  0
  9  4  1  0
  1 10  1  0
  1 11  1  0
  1 12  1  0
  4 13  1  0
  5 14  1  0
  5 15  1  0
  6 16  1  0
  7 17  1  0
  8 18  1  0
  8 19  1  0
  9 20  1  0
  9 21  1  0
M  END
