
     RDKit          3D

 25 24  0  0  0  0  0  0  0  0999 V2000
    3.2774   -2.2722   -1.2184 C   0  0  0  0  0  0  0  0  0  0  0  0
    2.2372   -1.6284   -0.4686 C   0  0  0  0  0  0  0  0  0  0  0  0
    1.3349   -1.0471    0.1778 C   0  0  0  0  0  0  0  0  0  0  0  0
    0.2638   -0.3840    0.9229 C   0  0  0  0  0  0  0  0  0  0  0  0
   -0.8138    0.0144   -0.0366 C   0  0  0  0  0  0  0  0  0  0  0  0
   -1.9715    0.7083    0.6222 C   0  0  0  0  0  0  0  0  0  0  0  0
   -2.6745   -0.1278    1.6653 C   0  0  0  0  0  0  0  0  0  0  0  0
   -0.2466    0.8759   -1.1209 C   0  0  0  0  0  0  0  0  0  0  0  0
    0.3834    2.1432   -0.6174 C   0  0  0  0  0  0  0  0  0  0  0  0
    2.8961   -2.6976   -2.1860 H   0  0  0  0  0  0  0  0  0  0  0  0
    4.0981   -1.5644   -1.5272 H   0  0  0  0  0  0  0  0  0  0  0  0
    3.7490   -3.0540   -0.5888 H   0  0  0  0  0  0  0  0  0  0  0  0
    0.6674    0.4608    1.5032 H   0  0  0  0  0  0  0  0  0  0  0  0
   -0.1223   -1.1045    1.7032 H   0  0  0  0  0  0  0  0  0  0  0  0
   -1.2427   -0.8910   -0.5398 H   0  0  0  0  0  0  0  0  0  0  0  0
   -1.6436    1.6373    1.1565 H   0  0  0  0  0  0  0  0  0  0  0  0
   -2.7039    1.0672   -0.1275 H   0  0  0  0  0  0  0  0  0  0  0  0
   -2.9066    0.4503    2.5971 H   0  0  0  0  0  0  0  0  0  0  0  0
   -2.1489   -1.0742    1.8783 H   0  0  0  0  0  0  0  0  0  0  0  0
   -3.6739   -0.4053    1.2544 H   0  0  0  0  0  0  0  0  0  0  0  0
    0.5421    0.2757   -1.6384 H   0  0  0  0  0  0  0  0  0  0  0  0
   -0.9903    1.1426   -1.8953 H   0  0  0  0  0  0  0  0  0  0  0  0
   -0.2769    2.7712   -0.0100 H   0  0  0  0  0  0  0  0  0  0  0  0
    1.2860    1.9616   -0.0029 H   0  0  0  0  0  0  0  0  0  0  0  0
    0.6803    2.7418   -1.5032 H   0  0  0  0  0  0  0  0  0  0  0  0
  1  2  1  0
  2  3  3  0
  3  4  1  0
  4  5  1  0
  5  6  1  0
  6  7  1  0
  5  8  1  0
  8  9  1  0
  1 10  1  0
  1 11  1  0
  1 12  1  0
  4 13  1  0
  4 14  1  0
  5 15  1  0
  6 16  1  0
  6 17  1  0
  7 18  1  0
  7 19  1  0
  7 20  1  0
  8 21  1  0
  8 22  1  0
  9 23  1  0
  9 24  1  0
  9 25  1  0
M  END
