
     RDKit          3D

 19 20  0  0  0  0  0  0  0  0999 V2000
    3.6104   -0.6808    1.3122 C   0  0  0  0  0  0  0  0  0  0  0  0
    2.1925   -0.4652    0.9548 C   0  0  0  0  0  0  0  0  0  0  0  0
    1.0339   -0.2854    0.6493 C   0  0  0  0  0  0  0  0  0  0  0  0
   -0.3744   -0.0685    0.2870 C   0  0  0  0  0  0  0  0  0  0  0  0
   -0.9961    1.2195    0.6578 C   0  0  0  0  0  0  0  0  0  0  0  0
   -0.6996    0.9661   -0.7705 C   0  0  0  0  0  0  0  0  0  0  0  0
   -1.7029    0.2573   -1.6422 C   0  0  0  0  0  0  0  0  0  0  0  0
   -2.2306   -0.8075   -0.7014 C   0  0  0  0  0  0  0  0  0  0  0  0
   -1.1354   -1.1737    0.0336 O   0  0  0  0  0  0  0  0  0  0  0  0
    4.0214    0.1715    1.8913 H   0  0  0  0  0  0  0  0  0  0  0  0
    3.7002   -1.5805    1.9893 H   0  0  0  0  0  0  0  0  0  0  0  0
    4.1688   -0.9042    0.3937 H   0  0  0  0  0  0  0  0  0  0  0  0
   -0.4518    2.0082    1.1717 H   0  0  0  0  0  0  0  0  0  0  0  0
   -2.0733    1.1682    0.9344 H   0  0  0  0  0  0  0  0  0  0  0  0
    0.1781    1.3979   -1.2839 H   0  0  0  0  0  0  0  0  0  0  0  0
   -2.4714    0.9871   -1.9282 H   0  0  0  0  0  0  0  0  0  0  0  0
   -1.1631   -0.1714   -2.5110 H   0  0  0  0  0  0  0  0  0  0  0  0
   -3.0431   -0.3842   -0.0983 H   0  0  0  0  0  0  0  0  0  0  0  0
   -2.5635   -1.6544   -1.3396 H   0  0  0  0  0  0  0  0  0  0  0  0
  1  2  1  0
  2  3  3  0
  3  4  1  0
  4  5  1  0
  5  6  1  0
  6  7  1  0
  7  8  1  0
  8  9  1  0
  6  4  1  0
  9  4  1  0
  1 10  1  0
  1 11  1  0
  1 12  1  0
  5 13  1  0
  5 14  1  0
  6 15  1  0
  7 16  1  0
  7 17  1  0
  8 18  1  0
  8 19  1  0
M  END
