
     RDKit          3D

 16 17  0  0  0  0  0  0  0  0999 V2000
    3.4627    0.1774   -0.0106 C   0  0  0  0  0  0  0  0  0  0  0  0
    2.0036    0.3682    0.1292 C   0  0  0  0  0  0  0  0  0  0  0  0
    0.8061    0.5175    0.2243 C   0  0  0  0  0  0  0  0  0  0  0  0
   -0.6476    0.6862    0.3177 C   0  0  0  0  0  0  0  0  0  0  0  0
   -1.1849    1.1725   -0.8588 O   0  0  0  0  0  0  0  0  0  0  0  0
   -1.7163   -0.0605   -1.1537 C   0  0  0  0  0  0  0  0  0  0  0  0
   -2.8293   -0.5336   -0.3139 C   0  0  0  0  0  0  0  0  0  0  0  0
   -1.4032   -0.5974    0.2310 C   0  0  0  0  0  0  0  0  0  0  0  0
    3.9394    1.1965    0.0404 H   0  0  0  0  0  0  0  0  0  0  0  0
    3.8741   -0.3905    0.8583 H   0  0  0  0  0  0  0  0  0  0  0  0
    3.6773   -0.3131   -0.9798 H   0  0  0  0  0  0  0  0  0  0  0  0
   -0.9744    1.2566    1.2285 H   0  0  0  0  0  0  0  0  0  0  0  0
   -1.2887   -0.6834   -1.9676 H   0  0  0  0  0  0  0  0  0  0  0  0
   -3.4853    0.2824    0.1092 H   0  0  0  0  0  0  0  0  0  0  0  0
   -3.3232   -1.5053   -0.5152 H   0  0  0  0  0  0  0  0  0  0  0  0
   -0.9103   -1.5737    0.3263 H   0  0  0  0  0  0  0  0  0  0  0  0
  1  2  1  0
  2  3  3  0
  3  4  1  0
  4  5  1  0
  5  6  1  0
  6  7  1  0
  7  8  1  0
  8  4  1  0
  8  6  1  0
  1  9  1  0
  1 10  1  0
  1 11  1  0
  4 12  1  0
  6 13  1  0
  7 14  1  0
  7 15  1  0
  8 16  1  0
M  END
