
     RDKit          3D

 19 20  0  0  0  0  0  0  0  0999 V2000
    3.2133    1.5192   -1.5816 C   0  0  0  0  0  0  0  0  0  0  0  0
    2.0169    0.7030   -1.3571 C   0  0  0  0  0  0  0  0  0  0  0  0
    1.0206    0.0402   -1.1637 C   0  0  0  0  0  0  0  0  0  0  0  0
   -0.1807   -0.7804   -0.9099 C   0  0  0  0  0  0  0  0  0  0  0  0
   -1.3949    0.0066   -1.0267 O   0  0  0  0  0  0  0  0  0  0  0  0
   -0.9925   -0.5131    0.1689 C   0  0  0  0  0  0  0  0  0  0  0  0
   -1.8689   -1.4342    0.9679 C   0  0  0  0  0  0  0  0  0  0  0  0
   -1.9234   -0.3415    2.0443 C   0  0  0  0  0  0  0  0  0  0  0  0
   -0.7166    0.3182    1.3671 C   0  0  0  0  0  0  0  0  0  0  0  0
    3.5265    1.5197   -2.6435 H   0  0  0  0  0  0  0  0  0  0  0  0
    4.0138    1.0757   -0.9452 H   0  0  0  0  0  0  0  0  0  0  0  0
    2.9965    2.5719   -1.3153 H   0  0  0  0  0  0  0  0  0  0  0  0
   -0.2880   -1.7154   -1.5214 H   0  0  0  0  0  0  0  0  0  0  0  0
   -1.3046   -2.3355    1.2744 H   0  0  0  0  0  0  0  0  0  0  0  0
   -2.8184   -1.6281    0.4675 H   0  0  0  0  0  0  0  0  0  0  0  0
   -1.7045   -0.7805    3.0204 H   0  0  0  0  0  0  0  0  0  0  0  0
   -2.8646    0.2196    1.9313 H   0  0  0  0  0  0  0  0  0  0  0  0
   -0.9671    1.3946    1.1961 H   0  0  0  0  0  0  0  0  0  0  0  0
    0.2365    0.1600    1.8988 H   0  0  0  0  0  0  0  0  0  0  0  0
  1  2  1  0
  2  3  3  0
  3  4  1  0
  4  5  1  0
  5  6  1  0
  6  7  1  0
  7  8  1  0
  8  9  1  0
  6  4  1  0
  9  6  1  0
  1 10  1  0
  1 11  1  0
  1 12  1  0
  4 13  1  0
  7 14  1  0
  7 15  1  0
  8 16  1  0
  8 17  1  0
  9 18  1  0
  9 19  1  0
M  END
