
     RDKit          3D

 19 18  0  0  0  0  0  0  0  0999 V2000
   -3.5845    0.1823   -0.9360 C   0  0  0  0  0  0  0  0  0  0  0  0
   -2.1790   -0.0668   -0.6196 C   0  0  0  0  0  0  0  0  0  0  0  0
   -1.0112   -0.2934   -0.3595 C   0  0  0  0  0  0  0  0  0  0  0  0
    0.3975   -0.5417   -0.0519 C   0  0  0  0  0  0  0  0  0  0  0  0
    1.0902   -0.9084   -1.3390 C   0  0  0  0  0  0  0  0  0  0  0  0
    0.9536    0.7133    0.5707 C   0  0  0  0  0  0  0  0  0  0  0  0
    2.4160    0.5738    0.9339 C   0  0  0  0  0  0  0  0  0  0  0  0
   -3.9049   -0.2716   -1.8765 H   0  0  0  0  0  0  0  0  0  0  0  0
   -3.7234    1.2860   -0.9988 H   0  0  0  0  0  0  0  0  0  0  0  0
   -4.1908   -0.2267   -0.0833 H   0  0  0  0  0  0  0  0  0  0  0  0
    0.5278   -1.3673    0.6515 H   0  0  0  0  0  0  0  0  0  0  0  0
    0.4742   -1.7373   -1.7945 H   0  0  0  0  0  0  0  0  0  0  0  0
    1.0959   -0.0681   -2.0669 H   0  0  0  0  0  0  0  0  0  0  0  0
    2.0858   -1.3469   -1.1635 H   0  0  0  0  0  0  0  0  0  0  0  0
    0.7931    1.5836   -0.0979 H   0  0  0  0  0  0  0  0  0  0  0  0
    0.4027    0.8708    1.5222 H   0  0  0  0  0  0  0  0  0  0  0  0
    2.5282    0.0266    1.9077 H   0  0  0  0  0  0  0  0  0  0  0  0
    2.9149    1.5646    0.9770 H   0  0  0  0  0  0  0  0  0  0  0  0
    2.9139    0.0269    0.0968 H   0  0  0  0  0  0  0  0  0  0  0  0
  1  2  1  0
  2  3  3  0
  3  4  1  0
  4  5  1  0
  4  6  1  0
  6  7  1  0
  1  8  1  0
  1  9  1  0
  1 10  1  0
  4 11  1  0
  5 12  1  0
  5 13  1  0
  5 14  1  0
  6 15  1  0
  6 16  1  0
  7 17  1  0
  7 18  1  0
  7 19  1  0
M  END
