
     RDKit          3D

 19 18  0  0  0  0  0  0  0  0999 V2000
    1.9756   -2.2959   -1.4103 C   0  0  0  0  0  0  0  0  0  0  0  0
    1.0928   -1.3456   -0.7505 C   0  0  0  0  0  0  0  0  0  0  0  0
    0.3261   -0.4991   -0.1505 C   0  0  0  0  0  0  0  0  0  0  0  0
   -0.5085    0.4024    0.4831 C   0  0  0  0  0  0  0  0  0  0  0  0
   -0.6820    0.1232    1.9531 C   0  0  0  0  0  0  0  0  0  0  0  0
    0.2865    1.7837    0.5037 C   0  0  0  0  0  0  0  0  0  0  0  0
   -1.8127    0.6931   -0.2253 C   0  0  0  0  0  0  0  0  0  0  0  0
    1.3753   -3.2472   -1.6753 H   0  0  0  0  0  0  0  0  0  0  0  0
    2.4457   -1.8396   -2.2691 H   0  0  0  0  0  0  0  0  0  0  0  0
    2.7076   -2.7080   -0.6580 H   0  0  0  0  0  0  0  0  0  0  0  0
   -1.4939   -0.5606    2.1716 H   0  0  0  0  0  0  0  0  0  0  0  0
    0.3235   -0.1980    2.3416 H   0  0  0  0  0  0  0  0  0  0  0  0
   -0.9361    1.1209    2.4272 H   0  0  0  0  0  0  0  0  0  0  0  0
    0.0055    2.2024   -0.4854 H   0  0  0  0  0  0  0  0  0  0  0  0
   -0.1035    2.3901    1.2883 H   0  0  0  0  0  0  0  0  0  0  0  0
    1.3701    1.5591    0.4744 H   0  0  0  0  0  0  0  0  0  0  0  0
   -2.2093    1.6921    0.1643 H   0  0  0  0  0  0  0  0  0  0  0  0
   -2.5565   -0.0995   -0.0982 H   0  0  0  0  0  0  0  0  0  0  0  0
   -1.6065    0.8264   -1.3274 H   0  0  0  0  0  0  0  0  0  0  0  0
  1  2  1  0
  2  3  3  0
  3  4  1  0
  4  5  1  0
  4  6  1  0
  4  7  1  0
  1  8  1  0
  1  9  1  0
  1 10  1  0
  5 11  1  0
  5 12  1  0
  5 13  1  0
  6 14  1  0
  6 15  1  0
  6 16  1  0
  7 17  1  0
  7 18  1  0
  7 19  1  0
M  END
