
     RDKit          3D

 17 18  0  0  0  0  0  0  0  0999 V2000
    2.9364    0.4077    1.2629 C   0  0  0  0  0  0  0  0  0  0  0  0
    1.7719    0.3958    0.3902 C   0  0  0  0  0  0  0  0  0  0  0  0
    0.7784    0.3860   -0.3295 C   0  0  0  0  0  0  0  0  0  0  0  0
   -0.4237    0.3996   -1.2065 C   0  0  0  0  0  0  0  0  0  0  0  0
   -0.2049   -0.2651   -2.3241 O   0  0  0  0  0  0  0  0  0  0  0  0
   -0.9850   -1.0111   -1.5673 C   0  0  0  0  0  0  0  0  0  0  0  0
   -1.1277   -1.0516   -0.0702 C   0  0  0  0  0  0  0  0  0  0  0  0
   -1.6627    0.3707   -0.3375 C   0  0  0  0  0  0  0  0  0  0  0  0
   -1.6140    1.2148    0.7275 O   0  0  0  0  0  0  0  0  0  0  0  0
    3.2752   -0.6042    1.5342 H   0  0  0  0  0  0  0  0  0  0  0  0
    2.7006    0.9748    2.1935 H   0  0  0  0  0  0  0  0  0  0  0  0
    3.8051    0.9367    0.8002 H   0  0  0  0  0  0  0  0  0  0  0  0
   -2.0374   -1.0056   -2.0074 H   0  0  0  0  0  0  0  0  0  0  0  0
   -0.2393   -1.1185    0.5398 H   0  0  0  0  0  0  0  0  0  0  0  0
   -1.8841   -1.7638    0.2628 H   0  0  0  0  0  0  0  0  0  0  0  0
   -2.5691    0.3231   -0.9435 H   0  0  0  0  0  0  0  0  0  0  0  0
   -2.5198    1.4106    1.0750 H   0  0  0  0  0  0  0  0  0  0  0  0
  1  2  1  0
  2  3  3  0
  3  4  1  0
  4  5  1  0
  5  6  1  0
  6  7  1  0
  7  8  1  0
  8  9  1  0
  6  4  1  0
  8  4  1  0
  1 10  1  0
  1 11  1  0
  1 12  1  0
  6 13  1  0
  7 14  1  0
  7 15  1  0
  8 16  1  0
  9 17  1  0
M  END
