
     RDKit          3D

 17 17  0  0  0  0  0  0  0  0999 V2000
    3.1173    2.2905   -1.0088 C   0  0  0  0  0  0  0  0  0  0  0  0
    2.1056    1.2859   -0.6864 C   0  0  0  0  0  0  0  0  0  0  0  0
    1.2727    0.4294   -0.4206 C   0  0  0  0  0  0  0  0  0  0  0  0
    0.2653   -0.5799   -0.0912 C   0  0  0  0  0  0  0  0  0  0  0  0
    0.1302   -1.5347   -1.2507 O   0  0  0  0  0  0  0  0  0  0  0  0
   -0.9502   -0.6170   -0.8065 C   0  0  0  0  0  0  0  0  0  0  0  0
   -2.1191   -1.4155   -0.3250 C   0  0  0  0  0  0  0  0  0  0  0  0
   -2.5924   -0.9860    1.0149 C   0  0  0  0  0  0  0  0  0  0  0  0
   -3.5527   -1.5986    1.4764 O   0  0  0  0  0  0  0  0  0  0  0  0
    4.0235    2.0538   -0.4451 H   0  0  0  0  0  0  0  0  0  0  0  0
    3.3111    2.3379   -2.1104 H   0  0  0  0  0  0  0  0  0  0  0  0
    2.7702    3.3234   -0.7164 H   0  0  0  0  0  0  0  0  0  0  0  0
    0.4161   -1.1701    0.8334 H   0  0  0  0  0  0  0  0  0  0  0  0
   -1.1449    0.1560   -1.6047 H   0  0  0  0  0  0  0  0  0  0  0  0
   -1.9207   -2.5018   -0.3085 H   0  0  0  0  0  0  0  0  0  0  0  0
   -2.9554   -1.2705   -1.0499 H   0  0  0  0  0  0  0  0  0  0  0  0
   -2.1766   -0.2029    1.6025 H   0  0  0  0  0  0  0  0  0  0  0  0
  1  2  1  0
  2  3  3  0
  3  4  1  0
  4  5  1  0
  5  6  1  0
  6  7  1  0
  7  8  1  0
  8  9  2  0
  6  4  1  0
  1 10  1  0
  1 11  1  0
  1 12  1  0
  4 13  1  0
  6 14  1  0
  7 15  1  0
  7 16  1  0
  8 17  1  0
M  END
