
     RDKit          3D

 18 18  0  0  0  0  0  0  0  0999 V2000
    3.7225   -1.1713   -1.2074 C   0  0  0  0  0  0  0  0  0  0  0  0
    2.0201   -0.6646   -0.6880 C   0  0  0  0  0  0  0  0  0  0  0  0
    0.9446   -0.3360   -0.3739 C   0  0  0  0  0  0  0  0  0  0  0  0
   -0.3388    0.0813    0.0074 C   0  0  0  0  0  0  0  0  0  0  0  0
   -1.5149    0.4637    0.3569 C   0  0  0  0  0  0  0  0  0  0  0  0
   -2.4513   -0.6637    0.6716 C   0  0  0  0  0  0  0  0  0  0  0  0
   -1.5707    1.9468    0.2463 C   0  0  0  0  0  0  0  0  0  0  0  0
   -1.6822    1.3646    1.5829 O   0  0  0  0  0  0  0  0  0  0  0  0
    3.4495   -1.7483   -1.9096 H   0  0  0  0  0  0  0  0  0  0  0  0
    4.2110   -0.5376   -0.5424 H   0  0  0  0  0  0  0  0  0  0  0  0
    3.5773    0.0634   -1.9387 H   0  0  0  0  0  0  0  0  0  0  0  0
    0.3073    0.5969    1.1915 H   0  0  0  0  0  0  0  0  0  0  0  0
   -0.2643   -1.0344    1.0572 H   0  0  0  0  0  0  0  0  0  0  0  0
   -2.5211   -1.2818   -0.1970 H   0  0  0  0  0  0  0  0  0  0  0  0
   -1.6795   -1.4657    1.2431 H   0  0  0  0  0  0  0  0  0  0  0  0
   -3.1547   -0.5710    1.4274 H   0  0  0  0  0  0  0  0  0  0  0  0
   -2.4752    2.4839   -0.0413 H   0  0  0  0  0  0  0  0  0  0  0  0
   -0.5796    2.4737    0.0569 H   0  0  0  0  0  0  0  0  0  0  0  0
  1  2  1  0
  2  3  3  0
  3  4  1  0
  4  5  1  0
  5  6  1  0
  5  7  1  0
  7  8  1  0
  8  5  1  0
  1  9  1  0
  1 10  1  0
  1 11  1  0
  4 12  1  0
  4 13  1  0
  6 14  1  0
  6 15  1  0
  6 16  1  0
  7 17  1  0
  7 18  1  0
M  END
