
     RDKit          3D

 19 18  0  0  0  0  0  0  0  0999 V2000
    3.0794    0.9735    0.2508 C   0  0  0  0  0  0  0  0  0  0  0  0
    1.8451    0.1960    0.0995 C   0  0  0  0  0  0  0  0  0  0  0  0
    0.8314   -0.4659   -0.0331 C   0  0  0  0  0  0  0  0  0  0  0  0
   -0.3811   -1.2777   -0.1733 C   0  0  0  0  0  0  0  0  0  0  0  0
   -0.5547   -1.7153   -1.4709 O   0  0  0  0  0  0  0  0  0  0  0  0
   -1.5535   -0.4083    0.2217 C   0  0  0  0  0  0  0  0  0  0  0  0
   -1.6318    0.8030   -0.6758 C   0  0  0  0  0  0  0  0  0  0  0  0
   -1.4714   -0.0199    1.6596 C   0  0  0  0  0  0  0  0  0  0  0  0
   -1.3442    1.1134    2.0523 O   0  0  0  0  0  0  0  0  0  0  0  0
    3.9855    0.3259    0.1606 H   0  0  0  0  0  0  0  0  0  0  0  0
    3.1446    1.4636    1.2365 H   0  0  0  0  0  0  0  0  0  0  0  0
    3.0638    1.7566   -0.5487 H   0  0  0  0  0  0  0  0  0  0  0  0
   -0.3328   -2.1642    0.4801 H   0  0  0  0  0  0  0  0  0  0  0  0
    0.3175   -2.0927   -1.7749 H   0  0  0  0  0  0  0  0  0  0  0  0
   -2.4914   -0.9869    0.0842 H   0  0  0  0  0  0  0  0  0  0  0  0
   -2.1424    1.6650   -0.1715 H   0  0  0  0  0  0  0  0  0  0  0  0
   -2.2336    0.5921   -1.5849 H   0  0  0  0  0  0  0  0  0  0  0  0
   -0.5997    1.0563   -0.9865 H   0  0  0  0  0  0  0  0  0  0  0  0
   -1.5306   -0.8145    2.3944 H   0  0  0  0  0  0  0  0  0  0  0  0
  1  2  1  0
  2  3  3  0
  3  4  1  0
  4  5  1  0
  4  6  1  0
  6  7  1  0
  6  8  1  0
  8  9  2  0
  1 10  1  0
  1 11  1  0
  1 12  1  0
  4 13  1  0
  5 14  1  0
  6 15  1  0
  7 16  1  0
  7 17  1  0
  7 18  1  0
  8 19  1  0
M  END
