
     RDKit          3D

 19 20  0  0  0  0  0  0  0  0999 V2000
    3.0315   -1.7856    0.5549 C   0  0  0  0  0  0  0  0  0  0  0  0
    1.9715   -0.7754    0.5788 C   0  0  0  0  0  0  0  0  0  0  0  0
    1.0888    0.0719    0.6093 C   0  0  0  0  0  0  0  0  0  0  0  0
    0.0289    1.0810    0.6210 C   0  0  0  0  0  0  0  0  0  0  0  0
   -0.8828    0.7867   -0.5251 C   0  0  0  0  0  0  0  0  0  0  0  0
   -2.0809    1.6722   -0.7659 C   0  0  0  0  0  0  0  0  0  0  0  0
   -2.9479    0.5864   -0.8395 O   0  0  0  0  0  0  0  0  0  0  0  0
   -1.9310   -0.2472   -0.4519 C   0  0  0  0  0  0  0  0  0  0  0  0
   -0.7218   -0.4244   -1.3458 C   0  0  0  0  0  0  0  0  0  0  0  0
    3.2138   -2.1451   -0.5005 H   0  0  0  0  0  0  0  0  0  0  0  0
    2.7143   -2.6695    1.1274 H   0  0  0  0  0  0  0  0  0  0  0  0
    4.0013   -1.3675    0.8897 H   0  0  0  0  0  0  0  0  0  0  0  0
   -0.4900    1.1202    1.6051 H   0  0  0  0  0  0  0  0  0  0  0  0
    0.4443    2.1112    0.4698 H   0  0  0  0  0  0  0  0  0  0  0  0
   -2.3560    2.3096    0.0805 H   0  0  0  0  0  0  0  0  0  0  0  0
   -2.0232    2.1567   -1.7631 H   0  0  0  0  0  0  0  0  0  0  0  0
   -2.0517   -0.9058    0.4255 H   0  0  0  0  0  0  0  0  0  0  0  0
   -0.0559   -1.2344   -1.0627 H   0  0  0  0  0  0  0  0  0  0  0  0
   -0.9532   -0.3410   -2.4415 H   0  0  0  0  0  0  0  0  0  0  0  0
  1  2  1  0
  2  3  3  0
  3  4  1  0
  4  5  1  0
  5  6  1  0
  6  7  1  0
  7  8  1  0
  8  9  1  0
  8  5  1  0
  9  5  1  0
  1 10  1  0
  1 11  1  0
  1 12  1  0
  4 13  1  0
  4 14  1  0
  6 15  1  0
  6 16  1  0
  8 17  1  0
  9 18  1  0
  9 19  1  0
M  END
