
     RDKit          3D

 15 15  0  0  0  0  0  0  0  0999 V2000
    2.8042   -1.0433   -0.8521 C   0  0  0  0  0  0  0  0  0  0  0  0
    1.4265   -0.8536   -0.3875 C   0  0  0  0  0  0  0  0  0  0  0  0
    0.2955   -0.6820    0.0095 C   0  0  0  0  0  0  0  0  0  0  0  0
   -1.0935   -0.4816    0.4721 C   0  0  0  0  0  0  0  0  0  0  0  0
   -1.9923    0.4417   -0.2376 C   0  0  0  0  0  0  0  0  0  0  0  0
   -1.4364    0.8997    1.0464 C   0  0  0  0  0  0  0  0  0  0  0  0
   -0.4380    1.8857    0.9629 O   0  0  0  0  0  0  0  0  0  0  0  0
    2.9850   -0.6134   -1.8422 H   0  0  0  0  0  0  0  0  0  0  0  0
    2.9370   -2.1558   -0.9479 H   0  0  0  0  0  0  0  0  0  0  0  0
    3.5092   -0.6216   -0.1239 H   0  0  0  0  0  0  0  0  0  0  0  0
   -1.5156   -1.3512    0.9770 H   0  0  0  0  0  0  0  0  0  0  0  0
   -3.0775    0.2191   -0.2431 H   0  0  0  0  0  0  0  0  0  0  0  0
   -1.6247    0.9116   -1.1660 H   0  0  0  0  0  0  0  0  0  0  0  0
   -1.9977    0.8796    1.9946 H   0  0  0  0  0  0  0  0  0  0  0  0
   -0.7817    2.5651    0.3378 H   0  0  0  0  0  0  0  0  0  0  0  0
  1  2  1  0
  2  3  3  0
  3  4  1  0
  4  5  1  0
  5  6  1  0
  6  7  1  0
  6  4  1  0
  1  8  1  0
  1  9  1  0
  1 10  1  0
  4 11  1  0
  5 12  1  0
  5 13  1  0
  6 14  1  0
  7 15  1  0
M  END
