
     RDKit          3D

 13 12  0  0  0  0  0  0  0  0999 V2000
   -1.7361    0.9038    2.0824 C   0  0  0  0  0  0  0  0  0  0  0  0
   -1.2435    0.4167    1.0416 C   0  0  0  0  0  0  0  0  0  0  0  0
   -0.6474   -0.1369   -0.1741 C   0  0  0  0  0  0  0  0  0  0  0  0
   -0.0773   -0.6338   -1.3071 C   0  0  0  0  0  0  0  0  0  0  0  0
    1.2461   -0.2672   -1.6429 O   0  0  0  0  0  0  0  0  0  0  0  0
    2.3914   -0.3704   -1.1744 C   0  0  0  0  0  0  0  0  0  0  0  0
    2.7761   -0.8932   -0.0749 O   0  0  0  0  0  0  0  0  0  0  0  0
   -1.0496    1.8337    2.4521 H   0  0  0  0  0  0  0  0  0  0  0  0
   -2.7384    1.3922    2.1390 H   0  0  0  0  0  0  0  0  0  0  0  0
   -1.6634    0.2309    3.0180 H   0  0  0  0  0  0  0  0  0  0  0  0
   -0.6586   -0.6840   -2.2558 H   0  0  0  0  0  0  0  0  0  0  0  0
    0.0486   -1.8155   -1.0381 H   0  0  0  0  0  0  0  0  0  0  0  0
    3.3520    0.0235   -1.7605 H   0  0  0  0  0  0  0  0  0  0  0  0
  1  2  1  0
  2  3  3  0
  3  4  1  0
  4  5  1  0
  5  6  1  0
  6  7  2  0
  1  8  1  0
  1  9  1  0
  1 10  1  0
  4 11  1  0
  4 12  1  0
  6 13  1  0
M  END
