
     RDKit          3D

 15 14  0  0  0  0  0  0  0  0999 V2000
    2.2565    0.4438    1.8310 C   0  0  0  0  0  0  0  0  0  0  0  0
    1.1508    0.2739    0.8973 C   0  0  0  0  0  0  0  0  0  0  0  0
    0.2265    0.1146    0.0977 C   0  0  0  0  0  0  0  0  0  0  0  0
   -0.8678   -0.0700   -0.8408 C   0  0  0  0  0  0  0  0  0  0  0  0
   -0.7551    0.8898   -1.8707 O   0  0  0  0  0  0  0  0  0  0  0  0
   -0.8122   -1.4220   -1.4572 C   0  0  0  0  0  0  0  0  0  0  0  0
   -0.6939   -1.5915   -2.6341 O   0  0  0  0  0  0  0  0  0  0  0  0
   -2.1099    0.1337   -0.0741 C   0  0  0  0  0  0  0  0  0  0  0  0
   -2.8173    1.0680   -0.3492 O   0  0  0  0  0  0  0  0  0  0  0  0
    3.2372    0.5162    1.2834 H   0  0  0  0  0  0  0  0  0  0  0  0
    2.3328   -0.4121    2.5581 H   0  0  0  0  0  0  0  0  0  0  0  0
    2.0916    1.4001    2.3585 H   0  0  0  0  0  0  0  0  0  0  0  0
    0.0054    1.4956   -1.7196 H   0  0  0  0  0  0  0  0  0  0  0  0
   -0.8846   -2.2945   -0.7892 H   0  0  0  0  0  0  0  0  0  0  0  0
   -2.3599   -0.5455    0.7088 H   0  0  0  0  0  0  0  0  0  0  0  0
  1  2  1  0
  2  3  3  0
  3  4  1  0
  4  5  1  0
  4  6  1  0
  6  7  2  0
  4  8  1  0
  8  9  2  0
  1 10  1  0
  1 11  1  0
  1 12  1  0
  5 13  1  0
  6 14  1  0
  8 15  1  0
M  END
