
     RDKit          3D

 21 20  0  0  0  0  0  0  0  0999 V2000
    5.2912   -0.5321   -1.3231 C   0  0  0  0  0  0  0  0  0  0  0  0
    3.8754   -0.6671   -1.0977 C   0  0  0  0  0  0  0  0  0  0  0  0
    2.6476   -0.8053   -0.9034 C   0  0  0  0  0  0  0  0  0  0  0  0
    1.2788   -0.9403   -0.6876 C   0  0  0  0  0  0  0  0  0  0  0  0
   -0.0036   -1.0735   -0.4662 C   0  0  0  0  0  0  0  0  0  0  0  0
   -1.3114   -1.2104   -0.2608 C   0  0  0  0  0  0  0  0  0  0  0  0
   -2.1964   -0.0427   -0.0865 C   0  0  0  0  0  0  0  0  0  0  0  0
   -1.9856    0.7581    1.1412 C   0  0  0  0  0  0  0  0  0  0  0  0
   -2.9714    1.9206    1.1549 C   0  0  0  0  0  0  0  0  0  0  0  0
    5.9130   -1.0208   -0.5353 H   0  0  0  0  0  0  0  0  0  0  0  0
    5.5560   -1.0792   -2.3166 H   0  0  0  0  0  0  0  0  0  0  0  0
    5.5165    0.5362   -1.4887 H   0  0  0  0  0  0  0  0  0  0  0  0
   -1.8381   -1.9252   -1.0437 H   0  0  0  0  0  0  0  0  0  0  0  0
   -1.5328   -1.8700    0.7051 H   0  0  0  0  0  0  0  0  0  0  0  0
   -2.1264    0.6034   -1.0188 H   0  0  0  0  0  0  0  0  0  0  0  0
   -3.2700   -0.4742   -0.0757 H   0  0  0  0  0  0  0  0  0  0  0  0
   -2.3010    0.1510    2.0368 H   0  0  0  0  0  0  0  0  0  0  0  0
   -0.9837    1.1316    1.3507 H   0  0  0  0  0  0  0  0  0  0  0  0
   -2.4959    2.7195    0.5853 H   0  0  0  0  0  0  0  0  0  0  0  0
   -3.1347    2.2471    2.1935 H   0  0  0  0  0  0  0  0  0  0  0  0
   -3.9276    1.5732    0.7213 H   0  0  0  0  0  0  0  0  0  0  0  0
  1  2  1  0
  2  3  3  0
  3  4  1  0
  4  5  3  0
  5  6  1  0
  6  7  1  0
  7  8  1  0
  8  9  1  0
  1 10  1  0
  1 11  1  0
  1 12  1  0
  6 13  1  0
  6 14  1  0
  7 15  1  0
  7 16  1  0
  8 17  1  0
  8 18  1  0
  9 19  1  0
  9 20  1  0
  9 21  1  0
M  END
