
     RDKit          3D

 19 18  0  0  0  0  0  0  0  0999 V2000
    3.9317    1.6311    1.3420 C   0  0  0  0  0  0  0  0  0  0  0  0
    2.9782    1.3100    0.8099 C   0  0  0  0  0  0  0  0  0  0  0  0
    1.9654    0.9902    0.2505 C   0  0  0  0  0  0  0  0  0  0  0  0
    0.5680    0.5275   -0.5305 C   0  0  0  0  0  0  0  0  0  0  0  0
   -0.4220    0.1912   -1.1068 C   0  0  0  0  0  0  0  0  0  0  0  0
   -1.4911   -0.1951   -1.7294 C   0  0  0  0  0  0  0  0  0  0  0  0
   -2.3546   -1.2603   -1.0865 C   0  0  0  0  0  0  0  0  0  0  0  0
   -2.8533   -1.1644    0.1253 O   0  0  0  0  0  0  0  0  0  0  0  0
   -2.0288   -1.0271    1.2217 C   0  0  0  0  0  0  0  0  0  0  0  0
    4.2846    2.7524    1.5699 H   0  0  0  0  0  0  0  0  0  0  0  0
    4.1975    1.2362    2.4753 H   0  0  0  0  0  0  0  0  0  0  0  0
    4.9948    1.2608    0.8109 H   0  0  0  0  0  0  0  0  0  0  0  0
   -2.1033    0.6696   -2.1770 H   0  0  0  0  0  0  0  0  0  0  0  0
   -1.1596   -0.7172   -2.7690 H   0  0  0  0  0  0  0  0  0  0  0  0
   -1.8276   -2.2435   -1.2782 H   0  0  0  0  0  0  0  0  0  0  0  0
   -3.2245   -1.3777   -1.8754 H   0  0  0  0  0  0  0  0  0  0  0  0
   -2.5726   -1.3414    2.1162 H   0  0  0  0  0  0  0  0  0  0  0  0
   -1.0204   -1.3752    1.1243 H   0  0  0  0  0  0  0  0  0  0  0  0
   -1.8626    0.1329    1.4277 H   0  0  0  0  0  0  0  0  0  0  0  0
  1  2  1  0
  2  3  3  0
  3  4  1  0
  4  5  3  0
  5  6  1  0
  6  7  1  0
  7  8  1  0
  8  9  1  0
  1 10  1  0
  1 11  1  0
  1 12  1  0
  6 13  1  0
  6 14  1  0
  7 15  1  0
  7 16  1  0
  9 17  1  0
  9 18  1  0
  9 19  1  0
M  END
