
     RDKit          3D

 19 19  0  0  0  0  0  0  0  0999 V2000
   -3.5404   -1.8987    0.6588 C   0  0  0  0  0  0  0  0  0  0  0  0
   -2.3201   -1.1818    0.2681 C   0  0  0  0  0  0  0  0  0  0  0  0
   -1.3234   -0.5951   -0.0730 C   0  0  0  0  0  0  0  0  0  0  0  0
   -0.1129    0.1132   -0.4772 C   0  0  0  0  0  0  0  0  0  0  0  0
    1.0220   -0.8217   -0.3848 C   0  0  0  0  0  0  0  0  0  0  0  0
    2.0293   -0.2032    0.1903 C   0  0  0  0  0  0  0  0  0  0  0  0
    1.5717    1.1806    0.4950 C   0  0  0  0  0  0  0  0  0  0  0  0
    2.0210    2.0579   -0.6645 C   0  0  0  0  0  0  0  0  0  0  0  0
    0.1723    1.1084    0.4636 O   0  0  0  0  0  0  0  0  0  0  0  0
   -4.2327   -2.0061   -0.2225 H   0  0  0  0  0  0  0  0  0  0  0  0
   -3.2504   -2.9344    0.9661 H   0  0  0  0  0  0  0  0  0  0  0  0
   -4.1079   -1.3565    1.4284 H   0  0  0  0  0  0  0  0  0  0  0  0
   -0.2044    0.5702   -1.4804 H   0  0  0  0  0  0  0  0  0  0  0  0
    1.0328   -1.8480   -0.7305 H   0  0  0  0  0  0  0  0  0  0  0  0
    3.0189   -0.5600    0.4269 H   0  0  0  0  0  0  0  0  0  0  0  0
    1.9193    1.5514    1.4683 H   0  0  0  0  0  0  0  0  0  0  0  0
    1.2934    2.8903   -0.7931 H   0  0  0  0  0  0  0  0  0  0  0  0
    1.9885    1.4672   -1.6091 H   0  0  0  0  0  0  0  0  0  0  0  0
    3.0228    2.4664   -0.4808 H   0  0  0  0  0  0  0  0  0  0  0  0
  1  2  1  0
  2  3  3  0
  3  4  1  0
  4  5  1  0
  5  6  2  0
  6  7  1  0
  7  8  1  0
  7  9  1  0
  9  4  1  0
  1 10  1  0
  1 11  1  0
  1 12  1  0
  4 13  1  0
  5 14  1  0
  6 15  1  0
  7 16  1  0
  8 17  1  0
  8 18  1  0
  8 19  1  0
M  END
