
     RDKit          3D

 21 22  0  0  0  0  0  0  0  0999 V2000
    3.9485   -0.1614    0.5975 C   0  0  0  0  0  0  0  0  0  0  0  0
    2.5508   -0.0599    0.1705 C   0  0  0  0  0  0  0  0  0  0  0  0
    1.3914    0.0326   -0.1907 C   0  0  0  0  0  0  0  0  0  0  0  0
   -0.0076    0.1370   -0.6317 C   0  0  0  0  0  0  0  0  0  0  0  0
   -0.9705   -0.7398    0.1412 C   0  0  0  0  0  0  0  0  0  0  0  0
   -1.9026   -1.5309   -0.7317 C   0  0  0  0  0  0  0  0  0  0  0  0
   -1.5229    0.4821    0.7835 C   0  0  0  0  0  0  0  0  0  0  0  0
   -2.1514    1.5021   -0.0768 C   0  0  0  0  0  0  0  0  0  0  0  0
   -0.6969    1.3829   -0.1827 C   0  0  0  0  0  0  0  0  0  0  0  0
    4.6157   -0.1973   -0.2908 H   0  0  0  0  0  0  0  0  0  0  0  0
    4.2369    0.6566    1.2782 H   0  0  0  0  0  0  0  0  0  0  0  0
    4.1396   -1.1268    1.1520 H   0  0  0  0  0  0  0  0  0  0  0  0
   -0.1090   -0.0592   -1.7276 H   0  0  0  0  0  0  0  0  0  0  0  0
   -0.4431   -1.4081    0.8757 H   0  0  0  0  0  0  0  0  0  0  0  0
   -2.0022   -2.5794   -0.3448 H   0  0  0  0  0  0  0  0  0  0  0  0
   -1.4096   -1.6283   -1.7221 H   0  0  0  0  0  0  0  0  0  0  0  0
   -2.8948   -1.0407   -0.8411 H   0  0  0  0  0  0  0  0  0  0  0  0
   -1.3124    0.6879    1.8703 H   0  0  0  0  0  0  0  0  0  0  0  0
   -2.5453    2.3924    0.4337 H   0  0  0  0  0  0  0  0  0  0  0  0
   -2.8492    1.1075   -0.8504 H   0  0  0  0  0  0  0  0  0  0  0  0
   -0.0653    2.1508    0.2882 H   0  0  0  0  0  0  0  0  0  0  0  0
  1  2  1  0
  2  3  3  0
  3  4  1  0
  4  5  1  0
  5  6  1  0
  5  7  1  0
  7  8  1  0
  8  9  1  0
  9  4  1  0
  9  7  1  0
  1 10  1  0
  1 11  1  0
  1 12  1  0
  4 13  1  0
  5 14  1  0
  6 15  1  0
  6 16  1  0
  6 17  1  0
  7 18  1  0
  8 19  1  0
  8 20  1  0
  9 21  1  0
M  END
