
     RDKit          3D

 21 20  0  0  0  0  0  0  0  0999 V2000
    3.4134    3.0141   -1.1122 C   0  0  0  0  0  0  0  0  0  0  0  0
    2.3029    2.0392   -1.1131 C   0  0  0  0  0  0  0  0  0  0  0  0
    1.3896    1.2386   -1.0928 C   0  0  0  0  0  0  0  0  0  0  0  0
    0.2850    0.2828   -1.0449 C   0  0  0  0  0  0  0  0  0  0  0  0
    0.3376   -0.5665    0.1802 C   0  0  0  0  0  0  0  0  0  0  0  0
    1.2421   -0.3900    0.9709 O   0  0  0  0  0  0  0  0  0  0  0  0
   -0.7131   -1.5994    0.3971 C   0  0  0  0  0  0  0  0  0  0  0  0
   -1.7578   -0.9536    1.3156 C   0  0  0  0  0  0  0  0  0  0  0  0
   -2.8585   -1.9227    1.5873 C   0  0  0  0  0  0  0  0  0  0  0  0
    4.2101    2.7354   -1.8228 H   0  0  0  0  0  0  0  0  0  0  0  0
    3.0401    4.0168   -1.4783 H   0  0  0  0  0  0  0  0  0  0  0  0
    3.7339    3.1796   -0.0847 H   0  0  0  0  0  0  0  0  0  0  0  0
    0.2946   -0.4050   -1.9130 H   0  0  0  0  0  0  0  0  0  0  0  0
   -0.6397    0.9105   -1.0600 H   0  0  0  0  0  0  0  0  0  0  0  0
   -0.2806   -2.4784    0.9168 H   0  0  0  0  0  0  0  0  0  0  0  0
   -1.2057   -1.8874   -0.5458 H   0  0  0  0  0  0  0  0  0  0  0  0
   -2.1119   -0.0084    0.8227 H   0  0  0  0  0  0  0  0  0  0  0  0
   -1.2850   -0.6478    2.2733 H   0  0  0  0  0  0  0  0  0  0  0  0
   -3.7675   -1.6099    1.0281 H   0  0  0  0  0  0  0  0  0  0  0  0
   -2.5407   -2.9501    1.2943 H   0  0  0  0  0  0  0  0  0  0  0  0
   -3.0887   -1.9976    2.6914 H   0  0  0  0  0  0  0  0  0  0  0  0
  1  2  1  0
  2  3  3  0
  3  4  1  0
  4  5  1  0
  5  6  2  0
  5  7  1  0
  7  8  1  0
  8  9  1  0
  1 10  1  0
  1 11  1  0
  1 12  1  0
  4 13  1  0
  4 14  1  0
  7 15  1  0
  7 16  1  0
  8 17  1  0
  8 18  1  0
  9 19  1  0
  9 20  1  0
  9 21  1  0
M  END
