
     RDKit          3D

 16 16  0  0  0  0  0  0  0  0999 V2000
    2.9137   -0.2511    1.6136 C   0  0  0  0  0  0  0  0  0  0  0  0
    1.5561   -0.2727    1.0188 C   0  0  0  0  0  0  0  0  0  0  0  0
    0.4589   -0.2933    0.5210 C   0  0  0  0  0  0  0  0  0  0  0  0
   -0.8917   -0.3338   -0.0692 C   0  0  0  0  0  0  0  0  0  0  0  0
   -1.5474   -1.5423    0.1082 O   0  0  0  0  0  0  0  0  0  0  0  0
   -1.7269    0.8865    0.2426 C   0  0  0  0  0  0  0  0  0  0  0  0
   -2.0731    1.0103   -1.0866 O   0  0  0  0  0  0  0  0  0  0  0  0
   -0.9512    0.2593   -1.4342 C   0  0  0  0  0  0  0  0  0  0  0  0
    3.2777   -1.2766    1.8245 H   0  0  0  0  0  0  0  0  0  0  0  0
    3.5574    0.2363    0.8483 H   0  0  0  0  0  0  0  0  0  0  0  0
    2.9161    0.3275    2.5693 H   0  0  0  0  0  0  0  0  0  0  0  0
   -2.5038   -1.3748    0.0206 H   0  0  0  0  0  0  0  0  0  0  0  0
   -2.5607    0.6059    0.9299 H   0  0  0  0  0  0  0  0  0  0  0  0
   -1.0733    1.6803    0.6534 H   0  0  0  0  0  0  0  0  0  0  0  0
   -0.0764    0.8348   -1.7802 H   0  0  0  0  0  0  0  0  0  0  0  0
   -1.2756   -0.4962   -2.2094 H   0  0  0  0  0  0  0  0  0  0  0  0
  1  2  1  0
  2  3  3  0
  3  4  1  0
  4  5  1  0
  4  6  1  0
  6  7  1  0
  7  8  1  0
  8  4  1  0
  1  9  1  0
  1 10  1  0
  1 11  1  0
  5 12  1  0
  6 13  1  0
  6 14  1  0
  8 15  1  0
  8 16  1  0
M  END
