
     RDKit          3D

 23 22  0  0  0  0  0  0  0  0999 V2000
    3.3244    1.3152   -1.0996 C   0  0  0  0  0  0  0  0  0  0  0  0
    2.1216    0.6746   -0.5638 C   0  0  0  0  0  0  0  0  0  0  0  0
    1.1255    0.1203   -0.1191 C   0  0  0  0  0  0  0  0  0  0  0  0
   -0.0809   -0.5296    0.3967 C   0  0  0  0  0  0  0  0  0  0  0  0
   -0.4284   -1.6482   -0.5579 C   0  0  0  0  0  0  0  0  0  0  0  0
   -1.6836   -2.3496   -0.0509 C   0  0  0  0  0  0  0  0  0  0  0  0
   -1.1596    0.5029    0.4919 C   0  0  0  0  0  0  0  0  0  0  0  0
   -0.6677    1.5864    1.4439 C   0  0  0  0  0  0  0  0  0  0  0  0
   -1.3370    1.1083   -0.7426 O   0  0  0  0  0  0  0  0  0  0  0  0
    3.1843    2.4213   -1.2057 H   0  0  0  0  0  0  0  0  0  0  0  0
    3.5539    0.8302   -2.0574 H   0  0  0  0  0  0  0  0  0  0  0  0
    4.2050    1.1869   -0.4203 H   0  0  0  0  0  0  0  0  0  0  0  0
    0.0844   -0.9350    1.4158 H   0  0  0  0  0  0  0  0  0  0  0  0
   -0.6389   -1.2991   -1.5686 H   0  0  0  0  0  0  0  0  0  0  0  0
    0.3606   -2.4196   -0.6071 H   0  0  0  0  0  0  0  0  0  0  0  0
   -1.7185   -2.3182    1.0572 H   0  0  0  0  0  0  0  0  0  0  0  0
   -2.5978   -1.8758   -0.5108 H   0  0  0  0  0  0  0  0  0  0  0  0
   -1.6857   -3.4019   -0.4131 H   0  0  0  0  0  0  0  0  0  0  0  0
   -2.1117    0.0882    0.8974 H   0  0  0  0  0  0  0  0  0  0  0  0
    0.4379    1.6752    1.3384 H   0  0  0  0  0  0  0  0  0  0  0  0
   -1.1570    2.5669    1.2368 H   0  0  0  0  0  0  0  0  0  0  0  0
   -0.8895    1.2318    2.4747 H   0  0  0  0  0  0  0  0  0  0  0  0
   -2.2411    1.4688   -0.8359 H   0  0  0  0  0  0  0  0  0  0  0  0
  1  2  1  0
  2  3  3  0
  3  4  1  0
  4  5  1  0
  5  6  1  0
  4  7  1  0
  7  8  1  0
  7  9  1  0
  1 10  1  0
  1 11  1  0
  1 12  1  0
  4 13  1  0
  5 14  1  0
  5 15  1  0
  6 16  1  0
  6 17  1  0
  6 18  1  0
  7 19  1  0
  8 20  1  0
  8 21  1  0
  8 22  1  0
  9 23  1  0
M  END
