
     RDKit          3D

 19 19  0  0  0  0  0  0  0  0999 V2000
    4.6165    1.8145   -0.2481 C   0  0  0  0  0  0  0  0  0  0  0  0
    3.5803    1.2412   -0.0137 C   0  0  0  0  0  0  0  0  0  0  0  0
    2.5271    0.6648    0.2433 C   0  0  0  0  0  0  0  0  0  0  0  0
    1.1667   -0.1030    0.5644 C   0  0  0  0  0  0  0  0  0  0  0  0
    0.0937   -0.6979    0.7985 C   0  0  0  0  0  0  0  0  0  0  0  0
   -1.2267   -1.4194    1.0881 C   0  0  0  0  0  0  0  0  0  0  0  0
   -1.7871   -1.4524   -0.4535 C   0  0  0  0  0  0  0  0  0  0  0  0
   -2.1929   -0.3550    0.4709 C   0  0  0  0  0  0  0  0  0  0  0  0
   -3.6313   -0.1227    0.6632 C   0  0  0  0  0  0  0  0  0  0  0  0
    5.2720    2.2642    0.5254 H   0  0  0  0  0  0  0  0  0  0  0  0
    4.5098    2.5997   -1.1479 H   0  0  0  0  0  0  0  0  0  0  0  0
    5.4631    1.0994   -0.8806 H   0  0  0  0  0  0  0  0  0  0  0  0
   -1.1531   -2.4133    1.2843 H   0  0  0  0  0  0  0  0  0  0  0  0
   -2.5227   -2.1989   -0.6636 H   0  0  0  0  0  0  0  0  0  0  0  0
   -0.9175   -1.2902   -1.1434 H   0  0  0  0  0  0  0  0  0  0  0  0
   -1.6335    0.6461    0.1004 H   0  0  0  0  0  0  0  0  0  0  0  0
   -4.1145   -0.3420   -0.3939 H   0  0  0  0  0  0  0  0  0  0  0  0
   -3.9471    0.9017    0.8617 H   0  0  0  0  0  0  0  0  0  0  0  0
   -4.1029   -0.8368    1.3316 H   0  0  0  0  0  0  0  0  0  0  0  0
  1  2  1  0
  2  3  3  0
  3  4  1  0
  4  5  3  0
  5  6  1  0
  6  7  1  0
  7  8  1  0
  8  9  1  0
  8  6  1  0
  1 10  1  0
  1 11  1  0
  1 12  1  0
  6 13  1  0
  7 14  1  0
  7 15  1  0
  8 16  1  0
  9 17  1  0
  9 18  1  0
  9 19  1  0
M  END
