
     RDKit          3D

 21 21  0  0  0  0  0  0  0  0999 V2000
    3.6721    1.0028    1.0906 C   0  0  0  0  0  0  0  0  0  0  0  0
    2.3635    0.4553    0.7044 C   0  0  0  0  0  0  0  0  0  0  0  0
    1.2735   -0.0050    0.4039 C   0  0  0  0  0  0  0  0  0  0  0  0
   -0.0610   -0.5499    0.0579 C   0  0  0  0  0  0  0  0  0  0  0  0
   -0.2906   -0.5092   -1.2901 O   0  0  0  0  0  0  0  0  0  0  0  0
   -0.5669   -1.6991   -1.8950 C   0  0  0  0  0  0  0  0  0  0  0  0
   -1.0494    0.3843    0.7176 C   0  0  0  0  0  0  0  0  0  0  0  0
   -2.5530    0.0918    0.5507 C   0  0  0  0  0  0  0  0  0  0  0  0
   -1.9158    1.2468   -0.1441 C   0  0  0  0  0  0  0  0  0  0  0  0
    4.0027    0.4462    1.9977 H   0  0  0  0  0  0  0  0  0  0  0  0
    4.4189    0.8615    0.2683 H   0  0  0  0  0  0  0  0  0  0  0  0
    3.6098    2.0966    1.2757 H   0  0  0  0  0  0  0  0  0  0  0  0
   -0.1472   -1.5761    0.4905 H   0  0  0  0  0  0  0  0  0  0  0  0
   -0.7268   -1.4909   -2.9834 H   0  0  0  0  0  0  0  0  0  0  0  0
    0.2493   -2.4333   -1.7369 H   0  0  0  0  0  0  0  0  0  0  0  0
   -1.5186   -2.1089   -1.5078 H   0  0  0  0  0  0  0  0  0  0  0  0
   -0.7605    0.8534    1.6805 H   0  0  0  0  0  0  0  0  0  0  0  0
   -3.1793    0.3064    1.4634 H   0  0  0  0  0  0  0  0  0  0  0  0
   -2.8615   -0.7775   -0.0547 H   0  0  0  0  0  0  0  0  0  0  0  0
   -2.1524    2.2722    0.1676 H   0  0  0  0  0  0  0  0  0  0  0  0
   -1.8067    1.1325   -1.2568 H   0  0  0  0  0  0  0  0  0  0  0  0
  1  2  1  0
  2  3  3  0
  3  4  1  0
  4  5  1  0
  5  6  1  0
  4  7  1  0
  7  8  1  0
  8  9  1  0
  9  7  1  0
  1 10  1  0
  1 11  1  0
  1 12  1  0
  4 13  1  0
  6 14  1  0
  6 15  1  0
  6 16  1  0
  7 17  1  0
  8 18  1  0
  8 19  1  0
  9 20  1  0
  9 21  1  0
M  END
