
     RDKit          3D

 19 20  0  0  0  0  0  0  0  0999 V2000
    3.3986   -0.2525    0.9949 C   0  0  0  0  0  0  0  0  0  0  0  0
    2.0973    0.0612    0.3971 C   0  0  0  0  0  0  0  0  0  0  0  0
    1.0247    0.3059   -0.0766 C   0  0  0  0  0  0  0  0  0  0  0  0
   -0.2893    0.5825   -0.6440 C   0  0  0  0  0  0  0  0  0  0  0  0
   -0.3243    1.6571   -1.5304 O   0  0  0  0  0  0  0  0  0  0  0  0
   -0.9526   -0.6204   -1.2289 C   0  0  0  0  0  0  0  0  0  0  0  0
   -2.1460   -0.3409   -0.3314 C   0  0  0  0  0  0  0  0  0  0  0  0
   -1.8956   -0.4636    1.1146 C   0  0  0  0  0  0  0  0  0  0  0  0
   -1.3185    0.7167    0.4384 C   0  0  0  0  0  0  0  0  0  0  0  0
    4.0599   -0.6939    0.2382 H   0  0  0  0  0  0  0  0  0  0  0  0
    3.9227    0.6793    1.3518 H   0  0  0  0  0  0  0  0  0  0  0  0
    3.2647   -0.8746    1.8964 H   0  0  0  0  0  0  0  0  0  0  0  0
   -0.3294    1.2794   -2.4454 H   0  0  0  0  0  0  0  0  0  0  0  0
   -1.2308   -0.5905   -2.2824 H   0  0  0  0  0  0  0  0  0  0  0  0
   -0.4036   -1.5656   -0.9463 H   0  0  0  0  0  0  0  0  0  0  0  0
   -3.0935   -0.0348   -0.7711 H   0  0  0  0  0  0  0  0  0  0  0  0
   -1.2503   -1.2885    1.4870 H   0  0  0  0  0  0  0  0  0  0  0  0
   -2.7637   -0.2558    1.7728 H   0  0  0  0  0  0  0  0  0  0  0  0
   -1.7703    1.6989    0.5652 H   0  0  0  0  0  0  0  0  0  0  0  0
  1  2  1  0
  2  3  3  0
  3  4  1  0
  4  5  1  0
  4  6  1  0
  6  7  1  0
  7  8  1  0
  8  9  1  0
  9  4  1  0
  9  7  1  0
  1 10  1  0
  1 11  1  0
  1 12  1  0
  5 13  1  0
  6 14  1  0
  6 15  1  0
  7 16  1  0
  8 17  1  0
  8 18  1  0
  9 19  1  0
M  END
