
     RDKit          3D

 19 18  0  0  0  0  0  0  0  0999 V2000
    2.4356   -0.7447    2.6628 C   0  0  0  0  0  0  0  0  0  0  0  0
    1.1152   -0.4619    1.3658 C   0  0  0  0  0  0  0  0  0  0  0  0
    0.2804   -0.2973    0.5275 C   0  0  0  0  0  0  0  0  0  0  0  0
   -0.5521   -0.1342   -0.3382 C   0  0  0  0  0  0  0  0  0  0  0  0
   -1.5496   -1.1488   -0.6922 C   0  0  0  0  0  0  0  0  0  0  0  0
    0.4211   -0.0596   -1.7219 C   0  0  0  0  0  0  0  0  0  0  0  0
   -0.9687    1.2428   -0.4669 O   0  0  0  0  0  0  0  0  0  0  0  0
   -1.3640    2.3804   -0.5296 C   0  0  0  0  0  0  0  0  0  0  0  0
   -2.5777    2.5201    0.1539 O   0  0  0  0  0  0  0  0  0  0  0  0
    1.8795   -0.1124    3.2707 H   0  0  0  0  0  0  0  0  0  0  0  0
    3.2148   -0.3708    1.9691 H   0  0  0  0  0  0  0  0  0  0  0  0
    2.2189   -1.7942    2.5978 H   0  0  0  0  0  0  0  0  0  0  0  0
   -2.5251   -0.8065   -0.9958 H   0  0  0  0  0  0  0  0  0  0  0  0
   -1.1077   -1.7679   -1.5131 H   0  0  0  0  0  0  0  0  0  0  0  0
   -1.6946   -1.8069    0.2578 H   0  0  0  0  0  0  0  0  0  0  0  0
    0.2795    0.9602   -2.0762 H   0  0  0  0  0  0  0  0  0  0  0  0
    1.4690   -0.0759   -1.2361 H   0  0  0  0  0  0  0  0  0  0  0  0
    0.1119   -0.8808   -2.2925 H   0  0  0  0  0  0  0  0  0  0  0  0
   -1.0864    3.3584   -0.9429 H   0  0  0  0  0  0  0  0  0  0  0  0
  1  2  1  0
  2  3  3  0
  3  4  1  0
  4  5  1  0
  4  6  1  0
  4  7  1  0
  7  8  1  0
  8  9  2  0
  1 10  1  0
  1 11  1  0
  1 12  1  0
  5 13  1  0
  5 14  1  0
  5 15  1  0
  6 16  1  0
  6 17  1  0
  6 18  1  0
  8 19  1  0
M  END
