
     RDKit          3D

 21 21  0  0  0  0  0  0  0  0999 V2000
    3.6850   -1.4464    0.4400 C   0  0  0  0  0  0  0  0  0  0  0  0
    2.4855   -0.7008    0.0655 C   0  0  0  0  0  0  0  0  0  0  0  0
    1.4917   -0.0612   -0.2569 C   0  0  0  0  0  0  0  0  0  0  0  0
    0.3076    0.7178   -0.6228 C   0  0  0  0  0  0  0  0  0  0  0  0
    0.6137    2.1781   -0.2617 C   0  0  0  0  0  0  0  0  0  0  0  0
   -0.7352    0.3258    0.1655 O   0  0  0  0  0  0  0  0  0  0  0  0
   -1.8328   -0.1596   -0.5007 C   0  0  0  0  0  0  0  0  0  0  0  0
   -2.5836   -1.2496    0.2270 C   0  0  0  0  0  0  0  0  0  0  0  0
   -3.1532    0.1162    0.1704 C   0  0  0  0  0  0  0  0  0  0  0  0
    3.8174   -2.3608   -0.2020 H   0  0  0  0  0  0  0  0  0  0  0  0
    4.5716   -0.8182    0.2367 H   0  0  0  0  0  0  0  0  0  0  0  0
    3.6035   -1.7872    1.4807 H   0  0  0  0  0  0  0  0  0  0  0  0
    0.1518    0.6006   -1.7069 H   0  0  0  0  0  0  0  0  0  0  0  0
    1.1610    2.1679    0.7241 H   0  0  0  0  0  0  0  0  0  0  0  0
    1.1655    2.6764   -1.0548 H   0  0  0  0  0  0  0  0  0  0  0  0
   -0.3651    2.6581   -0.0366 H   0  0  0  0  0  0  0  0  0  0  0  0
   -1.8665   -0.2267   -1.5926 H   0  0  0  0  0  0  0  0  0  0  0  0
   -3.0643   -2.0583   -0.3537 H   0  0  0  0  0  0  0  0  0  0  0  0
   -2.2290   -1.5836    1.2240 H   0  0  0  0  0  0  0  0  0  0  0  0
   -4.0556    0.2185   -0.4984 H   0  0  0  0  0  0  0  0  0  0  0  0
   -3.1690    0.7931    1.0328 H   0  0  0  0  0  0  0  0  0  0  0  0
  1  2  1  0
  2  3  3  0
  3  4  1  0
  4  5  1  0
  4  6  1  0
  6  7  1  0
  7  8  1  0
  8  9  1  0
  9  7  1  0
  1 10  1  0
  1 11  1  0
  1 12  1  0
  4 13  1  0
  5 14  1  0
  5 15  1  0
  5 16  1  0
  7 17  1  0
  8 18  1  0
  8 19  1  0
  9 20  1  0
  9 21  1  0
M  END
