
     RDKit          3D

 23 23  0  0  0  0  0  0  0  0999 V2000
    2.3001    3.3697   -0.1985 C   0  0  0  0  0  0  0  0  0  0  0  0
    1.5718    2.2216    0.3331 C   0  0  0  0  0  0  0  0  0  0  0  0
    0.9777    1.2602    0.7593 C   0  0  0  0  0  0  0  0  0  0  0  0
    0.2682    0.0993    1.2866 C   0  0  0  0  0  0  0  0  0  0  0  0
    0.5667   -1.1009    0.4561 C   0  0  0  0  0  0  0  0  0  0  0  0
   -0.1639   -2.3840    0.9643 C   0  0  0  0  0  0  0  0  0  0  0  0
   -0.3720   -1.7916   -0.4172 C   0  0  0  0  0  0  0  0  0  0  0  0
   -1.7572   -1.3383   -0.7061 C   0  0  0  0  0  0  0  0  0  0  0  0
   -1.8440    0.0260   -1.3533 C   0  0  0  0  0  0  0  0  0  0  0  0
    3.3647    3.3742    0.1782 H   0  0  0  0  0  0  0  0  0  0  0  0
    1.8383    4.3129    0.1175 H   0  0  0  0  0  0  0  0  0  0  0  0
    2.3702    3.3742   -1.3011 H   0  0  0  0  0  0  0  0  0  0  0  0
    0.7386   -0.0958    2.2979 H   0  0  0  0  0  0  0  0  0  0  0  0
   -0.7814    0.2938    1.4927 H   0  0  0  0  0  0  0  0  0  0  0  0
    1.6559   -1.2732    0.2920 H   0  0  0  0  0  0  0  0  0  0  0  0
    0.4446   -3.2961    1.0664 H   0  0  0  0  0  0  0  0  0  0  0  0
   -0.9441   -2.2519    1.7262 H   0  0  0  0  0  0  0  0  0  0  0  0
    0.0837   -2.4177   -1.2384 H   0  0  0  0  0  0  0  0  0  0  0  0
   -2.2270   -2.0510   -1.4154 H   0  0  0  0  0  0  0  0  0  0  0  0
   -2.3981   -1.3892    0.2080 H   0  0  0  0  0  0  0  0  0  0  0  0
   -1.2826    0.0006   -2.3049 H   0  0  0  0  0  0  0  0  0  0  0  0
   -2.9318    0.2093   -1.5725 H   0  0  0  0  0  0  0  0  0  0  0  0
   -1.4786    0.8481   -0.7208 H   0  0  0  0  0  0  0  0  0  0  0  0
  1  2  1  0
  2  3  3  0
  3  4  1  0
  4  5  1  0
  5  6  1  0
  6  7  1  0
  7  8  1  0
  8  9  1  0
  7  5  1  0
  1 10  1  0
  1 11  1  0
  1 12  1  0
  4 13  1  0
  4 14  1  0
  5 15  1  0
  6 16  1  0
  6 17  1  0
  7 18  1  0
  8 19  1  0
  8 20  1  0
  9 21  1  0
  9 22  1  0
  9 23  1  0
M  END
