
     RDKit          3D

 17 17  0  0  0  0  0  0  0  0999 V2000
    4.1132   -1.8130   -1.1648 C   0  0  0  0  0  0  0  0  0  0  0  0
    2.8154   -1.3012   -0.6640 C   0  0  0  0  0  0  0  0  0  0  0  0
    1.6727   -0.8299   -0.2202 C   0  0  0  0  0  0  0  0  0  0  0  0
    0.5761   -0.3997    0.2114 C   0  0  0  0  0  0  0  0  0  0  0  0
   -0.4655    0.0306    0.6308 C   0  0  0  0  0  0  0  0  0  0  0  0
   -1.7695    0.5925    1.1759 C   0  0  0  0  0  0  0  0  0  0  0  0
   -2.9456    0.0221    0.4672 C   0  0  0  0  0  0  0  0  0  0  0  0
   -3.4423    1.2881    0.2047 O   0  0  0  0  0  0  0  0  0  0  0  0
   -2.1113    1.7577    0.2878 C   0  0  0  0  0  0  0  0  0  0  0  0
    4.6673   -2.3085   -0.3363 H   0  0  0  0  0  0  0  0  0  0  0  0
    3.8249   -2.6147   -1.9069 H   0  0  0  0  0  0  0  0  0  0  0  0
    4.6553   -0.9767   -1.6078 H   0  0  0  0  0  0  0  0  0  0  0  0
   -1.7730    0.7872    2.2284 H   0  0  0  0  0  0  0  0  0  0  0  0
   -2.6077   -0.4322   -0.5338 H   0  0  0  0  0  0  0  0  0  0  0  0
   -3.5809   -0.6974    0.9647 H   0  0  0  0  0  0  0  0  0  0  0  0
   -1.5678    1.8398   -0.6579 H   0  0  0  0  0  0  0  0  0  0  0  0
   -2.0613    2.6929    0.9208 H   0  0  0  0  0  0  0  0  0  0  0  0
  1  2  1  0
  2  3  3  0
  3  4  1  0
  4  5  3  0
  5  6  1  0
  6  7  1  0
  7  8  1  0
  8  9  1  0
  9  6  1  0
  1 10  1  0
  1 11  1  0
  1 12  1  0
  6 13  1  0
  7 14  1  0
  7 15  1  0
  9 16  1  0
  9 17  1  0
M  END
