
     RDKit          3D

 19 19  0  0  0  0  0  0  0  0999 V2000
    3.0525    0.6146   -2.0429 C   0  0  0  0  0  0  0  0  0  0  0  0
    1.9059    0.2046   -1.2294 C   0  0  0  0  0  0  0  0  0  0  0  0
    0.9663   -0.1353   -0.5367 C   0  0  0  0  0  0  0  0  0  0  0  0
   -0.1607   -0.5361    0.3224 C   0  0  0  0  0  0  0  0  0  0  0  0
    0.0169   -1.8173    0.8422 O   0  0  0  0  0  0  0  0  0  0  0  0
   -0.3563    0.3841    1.4603 C   0  0  0  0  0  0  0  0  0  0  0  0
   -1.6376    0.7092    1.5895 C   0  0  0  0  0  0  0  0  0  0  0  0
   -2.4532    0.0267    0.5294 C   0  0  0  0  0  0  0  0  0  0  0  0
   -1.4171   -0.4290   -0.5046 C   0  0  0  0  0  0  0  0  0  0  0  0
    3.7628   -0.2398   -2.2093 H   0  0  0  0  0  0  0  0  0  0  0  0
    2.6770    0.9795   -3.0010 H   0  0  0  0  0  0  0  0  0  0  0  0
    3.6176    1.4467   -1.5706 H   0  0  0  0  0  0  0  0  0  0  0  0
    0.7513   -2.2263    0.2936 H   0  0  0  0  0  0  0  0  0  0  0  0
    0.4611    0.7299    2.0883 H   0  0  0  0  0  0  0  0  0  0  0  0
   -2.0314    1.3593    2.3359 H   0  0  0  0  0  0  0  0  0  0  0  0
   -3.1291    0.7991    0.1073 H   0  0  0  0  0  0  0  0  0  0  0  0
   -2.9715   -0.8205    0.9905 H   0  0  0  0  0  0  0  0  0  0  0  0
   -1.3369    0.3516   -1.2885 H   0  0  0  0  0  0  0  0  0  0  0  0
   -1.7175   -1.4011   -0.9611 H   0  0  0  0  0  0  0  0  0  0  0  0
  1  2  1  0
  2  3  3  0
  3  4  1  0
  4  5  1  0
  4  6  1  0
  6  7  2  0
  7  8  1  0
  8  9  1  0
  9  4  1  0
  1 10  1  0
  1 11  1  0
  1 12  1  0
  5 13  1  0
  6 14  1  0
  7 15  1  0
  8 16  1  0
  8 17  1  0
  9 18  1  0
  9 19  1  0
M  END
