
     RDKit          3D

 18 18  0  0  0  0  0  0  0  0999 V2000
    3.7228    0.1230   -0.0465 C   0  0  0  0  0  0  0  0  0  0  0  0
    2.2765   -0.0259    0.1263 C   0  0  0  0  0  0  0  0  0  0  0  0
    1.0649   -0.1325    0.2595 C   0  0  0  0  0  0  0  0  0  0  0  0
   -0.3878   -0.2495    0.3961 C   0  0  0  0  0  0  0  0  0  0  0  0
   -1.0114   -1.5581   -0.0545 C   0  0  0  0  0  0  0  0  0  0  0  0
   -0.9596    0.4156    1.4831 O   0  0  0  0  0  0  0  0  0  0  0  0
   -1.1699    0.9521    0.2114 C   0  0  0  0  0  0  0  0  0  0  0  0
   -2.6312    0.9376   -0.1973 C   0  0  0  0  0  0  0  0  0  0  0  0
    4.1724    0.2811    0.9656 H   0  0  0  0  0  0  0  0  0  0  0  0
    4.1876   -0.8209   -0.4300 H   0  0  0  0  0  0  0  0  0  0  0  0
    3.9806    0.9874   -0.6854 H   0  0  0  0  0  0  0  0  0  0  0  0
   -0.2651   -2.3776   -0.0687 H   0  0  0  0  0  0  0  0  0  0  0  0
   -1.3371   -1.4061   -1.1050 H   0  0  0  0  0  0  0  0  0  0  0  0
   -1.8940   -1.8276    0.5368 H   0  0  0  0  0  0  0  0  0  0  0  0
   -0.6410    1.8910   -0.0632 H   0  0  0  0  0  0  0  0  0  0  0  0
   -3.1340    1.8992    0.0390 H   0  0  0  0  0  0  0  0  0  0  0  0
   -3.2020    0.1414    0.3509 H   0  0  0  0  0  0  0  0  0  0  0  0
   -2.7717    0.7698   -1.2774 H   0  0  0  0  0  0  0  0  0  0  0  0
  1  2  1  0
  2  3  3  0
  3  4  1  0
  4  5  1  0
  4  6  1  0
  6  7  1  0
  7  8  1  0
  7  4  1  0
  1  9  1  0
  1 10  1  0
  1 11  1  0
  5 12  1  0
  5 13  1  0
  5 14  1  0
  7 15  1  0
  8 16  1  0
  8 17  1  0
  8 18  1  0
M  END
