
     RDKit          3D

 21 21  0  0  0  0  0  0  0  0999 V2000
    4.0606    0.0262    0.0747 C   0  0  0  0  0  0  0  0  0  0  0  0
    2.6440    0.1672   -0.1982 C   0  0  0  0  0  0  0  0  0  0  0  0
    1.4649    0.2824   -0.4320 C   0  0  0  0  0  0  0  0  0  0  0  0
    0.0132    0.4135   -0.6956 C   0  0  0  0  0  0  0  0  0  0  0  0
   -0.5274   -0.9276   -1.0088 C   0  0  0  0  0  0  0  0  0  0  0  0
   -1.6879   -1.3702   -0.5806 C   0  0  0  0  0  0  0  0  0  0  0  0
   -2.5723   -0.5392    0.2736 C   0  0  0  0  0  0  0  0  0  0  0  0
   -2.1208    0.8906    0.4031 C   0  0  0  0  0  0  0  0  0  0  0  0
   -0.6137    0.8403    0.6139 C   0  0  0  0  0  0  0  0  0  0  0  0
    4.2647    0.4657    1.0738 H   0  0  0  0  0  0  0  0  0  0  0  0
    4.3351   -1.0483    0.1542 H   0  0  0  0  0  0  0  0  0  0  0  0
    4.6366    0.5577   -0.7051 H   0  0  0  0  0  0  0  0  0  0  0  0
   -0.1674    1.1505   -1.5031 H   0  0  0  0  0  0  0  0  0  0  0  0
    0.0780   -1.5962   -1.6385 H   0  0  0  0  0  0  0  0  0  0  0  0
   -2.0619   -2.3834   -0.8365 H   0  0  0  0  0  0  0  0  0  0  0  0
   -2.6034   -0.9576    1.3115 H   0  0  0  0  0  0  0  0  0  0  0  0
   -3.6161   -0.5980   -0.1052 H   0  0  0  0  0  0  0  0  0  0  0  0
   -2.3444    1.5029   -0.4872 H   0  0  0  0  0  0  0  0  0  0  0  0
   -2.5359    1.3673    1.3143 H   0  0  0  0  0  0  0  0  0  0  0  0
   -0.4429   -0.0173    1.3271 H   0  0  0  0  0  0  0  0  0  0  0  0
   -0.2028    1.7734    0.9940 H   0  0  0  0  0  0  0  0  0  0  0  0
  1  2  1  0
  2  3  3  0
  3  4  1  0
  4  5  1  0
  5  6  2  0
  6  7  1  0
  7  8  1  0
  8  9  1  0
  9  4  1  0
  1 10  1  0
  1 11  1  0
  1 12  1  0
  4 13  1  0
  5 14  1  0
  6 15  1  0
  7 16  1  0
  7 17  1  0
  8 18  1  0
  8 19  1  0
  9 20  1  0
  9 21  1  0
M  END
