
     RDKit          3D

 19 19  0  0  0  0  0  0  0  0999 V2000
    3.4257    1.1925    0.1103 C   0  0  0  0  0  0  0  0  0  0  0  0
    2.2402    0.3474    0.1042 C   0  0  0  0  0  0  0  0  0  0  0  0
    1.2582   -0.3736    0.0865 C   0  0  0  0  0  0  0  0  0  0  0  0
    0.0870   -1.2217    0.0887 C   0  0  0  0  0  0  0  0  0  0  0  0
   -1.1363   -0.3497   -0.1111 C   0  0  0  0  0  0  0  0  0  0  0  0
   -1.2058    0.4394   -1.3535 C   0  0  0  0  0  0  0  0  0  0  0  0
   -2.1234    1.1689   -1.6288 O   0  0  0  0  0  0  0  0  0  0  0  0
   -2.4008   -0.9521    0.4625 C   0  0  0  0  0  0  0  0  0  0  0  0
   -1.8007    0.2414    1.1333 C   0  0  0  0  0  0  0  0  0  0  0  0
    3.1549    2.2829    0.0471 H   0  0  0  0  0  0  0  0  0  0  0  0
    4.0864    1.0046   -0.7604 H   0  0  0  0  0  0  0  0  0  0  0  0
    3.9293    1.0672    1.0819 H   0  0  0  0  0  0  0  0  0  0  0  0
    0.1185   -1.9005   -0.8132 H   0  0  0  0  0  0  0  0  0  0  0  0
    0.0000   -1.8836    0.9544 H   0  0  0  0  0  0  0  0  0  0  0  0
   -0.3918    0.3709   -2.0725 H   0  0  0  0  0  0  0  0  0  0  0  0
   -3.2862   -0.7854   -0.1927 H   0  0  0  0  0  0  0  0  0  0  0  0
   -2.3533   -1.9333    0.9754 H   0  0  0  0  0  0  0  0  0  0  0  0
   -2.3504    1.1972    1.0147 H   0  0  0  0  0  0  0  0  0  0  0  0
   -1.2517    0.0873    2.0998 H   0  0  0  0  0  0  0  0  0  0  0  0
  1  2  1  0
  2  3  3  0
  3  4  1  0
  4  5  1  0
  5  6  1  0
  6  7  2  0
  5  8  1  0
  8  9  1  0
  9  5  1  0
  1 10  1  0
  1 11  1  0
  1 12  1  0
  4 13  1  0
  4 14  1  0
  6 15  1  0
  8 16  1  0
  8 17  1  0
  9 18  1  0
  9 19  1  0
M  END
