
     RDKit          3D

 18 18  0  0  0  0  0  0  0  0999 V2000
    3.4232   -0.7212   -1.1899 C   0  0  0  0  0  0  0  0  0  0  0  0
    2.0426   -0.3171   -0.8994 C   0  0  0  0  0  0  0  0  0  0  0  0
    0.9072   -0.0030   -0.6725 C   0  0  0  0  0  0  0  0  0  0  0  0
   -0.4542    0.3734   -0.3747 C   0  0  0  0  0  0  0  0  0  0  0  0
   -0.5457    1.3015    0.7755 C   0  0  0  0  0  0  0  0  0  0  0  0
   -1.6820    1.0847    1.4244 C   0  0  0  0  0  0  0  0  0  0  0  0
   -2.4529   -0.0251    0.7473 C   0  0  0  0  0  0  0  0  0  0  0  0
   -1.2722   -0.7933    0.1333 C   0  0  0  0  0  0  0  0  0  0  0  0
    4.0549   -0.5763   -0.2808 H   0  0  0  0  0  0  0  0  0  0  0  0
    3.8179    0.0063   -1.9375 H   0  0  0  0  0  0  0  0  0  0  0  0
    3.4789   -1.7665   -1.5609 H   0  0  0  0  0  0  0  0  0  0  0  0
   -0.9967    0.7983   -1.2390 H   0  0  0  0  0  0  0  0  0  0  0  0
    0.1705    2.0570    1.0852 H   0  0  0  0  0  0  0  0  0  0  0  0
   -2.0158    1.6224    2.3131 H   0  0  0  0  0  0  0  0  0  0  0  0
   -2.9963   -0.6333    1.4822 H   0  0  0  0  0  0  0  0  0  0  0  0
   -3.0797    0.3666   -0.0752 H   0  0  0  0  0  0  0  0  0  0  0  0
   -0.7960   -1.3261    0.9606 H   0  0  0  0  0  0  0  0  0  0  0  0
   -1.6035   -1.4482   -0.6918 H   0  0  0  0  0  0  0  0  0  0  0  0
  1  2  1  0
  2  3  3  0
  3  4  1  0
  4  5  1  0
  5  6  2  0
  6  7  1  0
  7  8  1  0
  8  4  1  0
  1  9  1  0
  1 10  1  0
  1 11  1  0
  4 12  1  0
  5 13  1  0
  6 14  1  0
  7 15  1  0
  7 16  1  0
  8 17  1  0
  8 18  1  0
M  END
