
     RDKit          3D

 19 19  0  0  0  0  0  0  0  0999 V2000
    3.1857   -1.0685    0.8760 C   0  0  0  0  0  0  0  0  0  0  0  0
    1.8918   -0.5840    0.3707 C   0  0  0  0  0  0  0  0  0  0  0  0
    0.8314   -0.1663   -0.0370 C   0  0  0  0  0  0  0  0  0  0  0  0
   -0.4562    0.3678   -0.5287 C   0  0  0  0  0  0  0  0  0  0  0  0
   -0.3211    0.5152   -2.0215 C   0  0  0  0  0  0  0  0  0  0  0  0
   -1.5660   -0.5781   -0.2638 C   0  0  0  0  0  0  0  0  0  0  0  0
   -2.2806   -0.1087    0.7325 C   0  0  0  0  0  0  0  0  0  0  0  0
   -1.6670    1.1579    1.1556 C   0  0  0  0  0  0  0  0  0  0  0  0
   -0.7896    1.5321    0.1134 O   0  0  0  0  0  0  0  0  0  0  0  0
    3.6785   -0.2487    1.4288 H   0  0  0  0  0  0  0  0  0  0  0  0
    3.0557   -1.9071    1.5999 H   0  0  0  0  0  0  0  0  0  0  0  0
    3.8214   -1.4798    0.0550 H   0  0  0  0  0  0  0  0  0  0  0  0
    0.4554    1.2353   -2.3175 H   0  0  0  0  0  0  0  0  0  0  0  0
   -0.1771   -0.4743   -2.4616 H   0  0  0  0  0  0  0  0  0  0  0  0
   -1.3107    0.9024   -2.3840 H   0  0  0  0  0  0  0  0  0  0  0  0
   -1.7066   -1.4962   -0.8416 H   0  0  0  0  0  0  0  0  0  0  0  0
   -3.1582   -0.5436    1.1817 H   0  0  0  0  0  0  0  0  0  0  0  0
   -1.0762    0.9845    2.0764 H   0  0  0  0  0  0  0  0  0  0  0  0
   -2.4106    1.9602    1.2657 H   0  0  0  0  0  0  0  0  0  0  0  0
  1  2  1  0
  2  3  3  0
  3  4  1  0
  4  5  1  0
  4  6  1  0
  6  7  2  0
  7  8  1  0
  8  9  1  0
  9  4  1  0
  1 10  1  0
  1 11  1  0
  1 12  1  0
  5 13  1  0
  5 14  1  0
  5 15  1  0
  6 16  1  0
  7 17  1  0
  8 18  1  0
  8 19  1  0
M  END
