
     RDKit          3D

 23 23  0  0  0  0  0  0  0  0999 V2000
    3.1480   -3.3825   -0.4541 C   0  0  0  0  0  0  0  0  0  0  0  0
    2.0484   -2.3976   -0.4180 C   0  0  0  0  0  0  0  0  0  0  0  0
    1.1449   -1.5875   -0.4095 C   0  0  0  0  0  0  0  0  0  0  0  0
    0.0378   -0.6264   -0.4094 C   0  0  0  0  0  0  0  0  0  0  0  0
    0.5050    0.5917    0.3344 C   0  0  0  0  0  0  0  0  0  0  0  0
   -0.4945    1.6802    0.4349 C   0  0  0  0  0  0  0  0  0  0  0  0
   -1.7803    1.2870    1.1473 C   0  0  0  0  0  0  0  0  0  0  0  0
   -2.4775    1.4165   -0.2081 C   0  0  0  0  0  0  0  0  0  0  0  0
   -1.2391    2.0641   -0.8034 C   0  0  0  0  0  0  0  0  0  0  0  0
    3.0603   -4.1166    0.3488 H   0  0  0  0  0  0  0  0  0  0  0  0
    3.1221   -3.9536   -1.4227 H   0  0  0  0  0  0  0  0  0  0  0  0
    4.0813   -2.7930   -0.4427 H   0  0  0  0  0  0  0  0  0  0  0  0
   -0.7990   -1.1222    0.1240 H   0  0  0  0  0  0  0  0  0  0  0  0
   -0.2951   -0.4329   -1.4290 H   0  0  0  0  0  0  0  0  0  0  0  0
    0.7443    0.2519    1.3822 H   0  0  0  0  0  0  0  0  0  0  0  0
    1.4552    0.9940   -0.0630 H   0  0  0  0  0  0  0  0  0  0  0  0
   -0.0680    2.5702    0.9233 H   0  0  0  0  0  0  0  0  0  0  0  0
   -1.6992    0.2490    1.5166 H   0  0  0  0  0  0  0  0  0  0  0  0
   -2.1238    1.9929    1.9135 H   0  0  0  0  0  0  0  0  0  0  0  0
   -2.6813    0.4009   -0.6082 H   0  0  0  0  0  0  0  0  0  0  0  0
   -3.3534    2.0727   -0.1040 H   0  0  0  0  0  0  0  0  0  0  0  0
   -0.8953    1.6703   -1.7557 H   0  0  0  0  0  0  0  0  0  0  0  0
   -1.4408    3.1709   -0.9068 H   0  0  0  0  0  0  0  0  0  0  0  0
  1  2  1  0
  2  3  3  0
  3  4  1  0
  4  5  1  0
  5  6  1  0
  6  7  1  0
  7  8  1  0
  8  9  1  0
  9  6  1  0
  1 10  1  0
  1 11  1  0
  1 12  1  0
  4 13  1  0
  4 14  1  0
  5 15  1  0
  5 16  1  0
  6 17  1  0
  7 18  1  0
  7 19  1  0
  8 20  1  0
  8 21  1  0
  9 22  1  0
  9 23  1  0
M  END
