
     RDKit          3D

 21 21  0  0  0  0  0  0  0  0999 V2000
    3.6080    0.5976   -0.8071 C   0  0  0  0  0  0  0  0  0  0  0  0
    2.1967    0.2219   -0.7041 C   0  0  0  0  0  0  0  0  0  0  0  0
    1.0197   -0.0975   -0.6100 C   0  0  0  0  0  0  0  0  0  0  0  0
   -0.3935   -0.4681   -0.5195 C   0  0  0  0  0  0  0  0  0  0  0  0
   -0.6149   -1.8664    0.0709 C   0  0  0  0  0  0  0  0  0  0  0  0
   -1.7278   -1.2392    0.9084 C   0  0  0  0  0  0  0  0  0  0  0  0
   -0.9933    0.0803    0.7648 C   0  0  0  0  0  0  0  0  0  0  0  0
   -1.9024    1.2261    0.4573 C   0  0  0  0  0  0  0  0  0  0  0  0
   -1.2238    2.2780   -0.1872 O   0  0  0  0  0  0  0  0  0  0  0  0
    3.6491    1.6685   -1.0899 H   0  0  0  0  0  0  0  0  0  0  0  0
    4.1389   -0.0276   -1.5765 H   0  0  0  0  0  0  0  0  0  0  0  0
    4.1318    0.3873    0.1475 H   0  0  0  0  0  0  0  0  0  0  0  0
   -1.0068   -0.2425   -1.3995 H   0  0  0  0  0  0  0  0  0  0  0  0
    0.2445   -2.1281    0.7302 H   0  0  0  0  0  0  0  0  0  0  0  0
   -0.9390   -2.6228   -0.6433 H   0  0  0  0  0  0  0  0  0  0  0  0
   -2.6744   -1.3110    0.3291 H   0  0  0  0  0  0  0  0  0  0  0  0
   -1.7762   -1.6345    1.9465 H   0  0  0  0  0  0  0  0  0  0  0  0
   -0.2765    0.2182    1.5870 H   0  0  0  0  0  0  0  0  0  0  0  0
   -2.6557    0.8489   -0.2928 H   0  0  0  0  0  0  0  0  0  0  0  0
   -2.4045    1.5863    1.3727 H   0  0  0  0  0  0  0  0  0  0  0  0
   -0.3999    2.5247    0.3422 H   0  0  0  0  0  0  0  0  0  0  0  0
  1  2  1  0
  2  3  3  0
  3  4  1  0
  4  5  1  0
  5  6  1  0
  6  7  1  0
  7  8  1  0
  8  9  1  0
  7  4  1  0
  1 10  1  0
  1 11  1  0
  1 12  1  0
  4 13  1  0
  5 14  1  0
  5 15  1  0
  6 16  1  0
  6 17  1  0
  7 18  1  0
  8 19  1  0
  8 20  1  0
  9 21  1  0
M  END
