
     RDKit          3D

 21 21  0  0  0  0  0  0  0  0999 V2000
    3.7790    0.4405   -0.5741 C   0  0  0  0  0  0  0  0  0  0  0  0
    2.3407    0.5177   -0.3109 C   0  0  0  0  0  0  0  0  0  0  0  0
    1.1430    0.5919   -0.0950 C   0  0  0  0  0  0  0  0  0  0  0  0
   -0.2922    0.6593    0.1716 C   0  0  0  0  0  0  0  0  0  0  0  0
   -1.1764    0.2029   -0.9415 C   0  0  0  0  0  0  0  0  0  0  0  0
   -2.5716    0.7859   -0.8664 C   0  0  0  0  0  0  0  0  0  0  0  0
   -1.1760   -1.1798   -0.3314 C   0  0  0  0  0  0  0  0  0  0  0  0
   -0.7266   -0.5560    0.9672 C   0  0  0  0  0  0  0  0  0  0  0  0
    0.3202   -1.2824    1.5316 O   0  0  0  0  0  0  0  0  0  0  0  0
    4.2129    1.4427   -0.7963 H   0  0  0  0  0  0  0  0  0  0  0  0
    4.3394    0.0584    0.3198 H   0  0  0  0  0  0  0  0  0  0  0  0
    3.9236   -0.2710   -1.4123 H   0  0  0  0  0  0  0  0  0  0  0  0
   -0.6172    1.6332    0.6309 H   0  0  0  0  0  0  0  0  0  0  0  0
   -0.7730    0.2707   -1.9600 H   0  0  0  0  0  0  0  0  0  0  0  0
   -3.1011    0.4523   -1.7896 H   0  0  0  0  0  0  0  0  0  0  0  0
   -3.0630    0.3859    0.0582 H   0  0  0  0  0  0  0  0  0  0  0  0
   -2.5578    1.8978   -0.7818 H   0  0  0  0  0  0  0  0  0  0  0  0
   -0.4390   -1.8893   -0.7534 H   0  0  0  0  0  0  0  0  0  0  0  0
   -2.1757   -1.6546   -0.2929 H   0  0  0  0  0  0  0  0  0  0  0  0
   -1.5376   -0.2670    1.6655 H   0  0  0  0  0  0  0  0  0  0  0  0
    0.1485   -2.2392    1.3618 H   0  0  0  0  0  0  0  0  0  0  0  0
  1  2  1  0
  2  3  3  0
  3  4  1  0
  4  5  1  0
  5  6  1  0
  5  7  1  0
  7  8  1  0
  8  9  1  0
  8  4  1  0
  1 10  1  0
  1 11  1  0
  1 12  1  0
  4 13  1  0
  5 14  1  0
  6 15  1  0
  6 16  1  0
  6 17  1  0
  7 18  1  0
  7 19  1  0
  8 20  1  0
  9 21  1  0
M  END
