
     RDKit          3D

 16 16  0  0  0  0  0  0  0  0999 V2000
    3.1742    0.2881    0.0941 C   0  0  0  0  0  0  0  0  0  0  0  0
    1.7647   -0.0702    0.0023 C   0  0  0  0  0  0  0  0  0  0  0  0
    0.5764   -0.3553   -0.0615 C   0  0  0  0  0  0  0  0  0  0  0  0
   -0.8408   -0.7186   -0.1262 C   0  0  0  0  0  0  0  0  0  0  0  0
   -1.1183   -2.0301   -0.4739 O   0  0  0  0  0  0  0  0  0  0  0  0
   -1.7853   -0.1349    0.8867 C   0  0  0  0  0  0  0  0  0  0  0  0
   -1.7694    0.3713   -0.4946 C   0  0  0  0  0  0  0  0  0  0  0  0
   -1.2257    1.6579   -0.6662 O   0  0  0  0  0  0  0  0  0  0  0  0
    3.5313    0.6669   -0.8713 H   0  0  0  0  0  0  0  0  0  0  0  0
    3.7188   -0.6125    0.4529 H   0  0  0  0  0  0  0  0  0  0  0  0
    3.3648    1.0853    0.8548 H   0  0  0  0  0  0  0  0  0  0  0  0
   -1.1885   -2.1708   -1.4321 H   0  0  0  0  0  0  0  0  0  0  0  0
   -2.6836   -0.7076    1.1834 H   0  0  0  0  0  0  0  0  0  0  0  0
   -1.2794    0.3577    1.7210 H   0  0  0  0  0  0  0  0  0  0  0  0
   -2.6277    0.1721   -1.1598 H   0  0  0  0  0  0  0  0  0  0  0  0
   -1.6115    2.2007    0.0904 H   0  0  0  0  0  0  0  0  0  0  0  0
  1  2  1  0
  2  3  3  0
  3  4  1  0
  4  5  1  0
  4  6  1  0
  6  7  1  0
  7  8  1  0
  7  4  1  0
  1  9  1  0
  1 10  1  0
  1 11  1  0
  5 12  1  0
  6 13  1  0
  6 14  1  0
  7 15  1  0
  8 16  1  0
M  END
