
     RDKit          3D

 21 21  0  0  0  0  0  0  0  0999 V2000
    3.5832   -0.6123    0.3027 C   0  0  0  0  0  0  0  0  0  0  0  0
    2.1743   -0.2408    0.1290 C   0  0  0  0  0  0  0  0  0  0  0  0
    1.0121    0.0764    0.0029 C   0  0  0  0  0  0  0  0  0  0  0  0
   -0.3741    0.4506   -0.1391 C   0  0  0  0  0  0  0  0  0  0  0  0
   -0.6401    1.6576   -1.0187 C   0  0  0  0  0  0  0  0  0  0  0  0
   -1.1153    0.6041    1.1692 C   0  0  0  0  0  0  0  0  0  0  0  0
   -2.1211   -0.4218    0.6543 C   0  0  0  0  0  0  0  0  0  0  0  0
   -1.2379   -0.7256   -0.5417 C   0  0  0  0  0  0  0  0  0  0  0  0
   -0.6137   -1.9524   -0.5009 O   0  0  0  0  0  0  0  0  0  0  0  0
    3.6054   -1.7183    0.4156 H   0  0  0  0  0  0  0  0  0  0  0  0
    4.0351   -0.0951    1.1972 H   0  0  0  0  0  0  0  0  0  0  0  0
    4.1964   -0.3001   -0.5780 H   0  0  0  0  0  0  0  0  0  0  0  0
   -0.1157    1.5090   -1.9907 H   0  0  0  0  0  0  0  0  0  0  0  0
   -0.3076    2.5651   -0.4894 H   0  0  0  0  0  0  0  0  0  0  0  0
   -1.7367    1.6902   -1.1931 H   0  0  0  0  0  0  0  0  0  0  0  0
   -1.5959    1.5936    1.3295 H   0  0  0  0  0  0  0  0  0  0  0  0
   -0.5721    0.2958    2.0716 H   0  0  0  0  0  0  0  0  0  0  0  0
   -2.2147   -1.2473    1.3711 H   0  0  0  0  0  0  0  0  0  0  0  0
   -3.0661    0.0461    0.3132 H   0  0  0  0  0  0  0  0  0  0  0  0
   -1.7283   -0.5657   -1.5154 H   0  0  0  0  0  0  0  0  0  0  0  0
   -1.1672   -2.6093   -0.9893 H   0  0  0  0  0  0  0  0  0  0  0  0
  1  2  1  0
  2  3  3  0
  3  4  1  0
  4  5  1  0
  4  6  1  0
  6  7  1  0
  7  8  1  0
  8  9  1  0
  8  4  1  0
  1 10  1  0
  1 11  1  0
  1 12  1  0
  5 13  1  0
  5 14  1  0
  5 15  1  0
  6 16  1  0
  6 17  1  0
  7 18  1  0
  7 19  1  0
  8 20  1  0
  9 21  1  0
M  END
