
     RDKit          3D

 17 17  0  0  0  0  0  0  0  0999 V2000
    3.3514   -1.0073    1.0726 C   0  0  0  0  0  0  0  0  0  0  0  0
    1.9717   -0.7620    0.6051 C   0  0  0  0  0  0  0  0  0  0  0  0
    0.8633   -0.5531    0.2138 C   0  0  0  0  0  0  0  0  0  0  0  0
   -0.4871   -0.3182   -0.2779 C   0  0  0  0  0  0  0  0  0  0  0  0
   -0.6069    1.0559   -0.9143 C   0  0  0  0  0  0  0  0  0  0  0  0
   -2.0784    1.2224   -0.8695 C   0  0  0  0  0  0  0  0  0  0  0  0
   -2.7512    2.0333   -1.4384 O   0  0  0  0  0  0  0  0  0  0  0  0
   -2.5688    0.1613    0.0411 C   0  0  0  0  0  0  0  0  0  0  0  0
   -1.4098   -0.2176    0.7628 O   0  0  0  0  0  0  0  0  0  0  0  0
    3.3479   -1.3669    2.1287 H   0  0  0  0  0  0  0  0  0  0  0  0
    3.8435   -1.7664    0.4235 H   0  0  0  0  0  0  0  0  0  0  0  0
    3.9679   -0.0825    0.9726 H   0  0  0  0  0  0  0  0  0  0  0  0
   -0.8534   -1.0735   -0.9719 H   0  0  0  0  0  0  0  0  0  0  0  0
   -0.1620    1.8114   -0.2450 H   0  0  0  0  0  0  0  0  0  0  0  0
   -0.1894    1.1009   -1.9191 H   0  0  0  0  0  0  0  0  0  0  0  0
   -3.3607    0.5196    0.7262 H   0  0  0  0  0  0  0  0  0  0  0  0
   -2.8780   -0.7569   -0.5065 H   0  0  0  0  0  0  0  0  0  0  0  0
  1  2  1  0
  2  3  3  0
  3  4  1  0
  4  5  1  0
  5  6  1  0
  6  7  2  0
  6  8  1  0
  8  9  1  0
  9  4  1  0
  1 10  1  0
  1 11  1  0
  1 12  1  0
  4 13  1  0
  5 14  1  0
  5 15  1  0
  8 16  1  0
  8 17  1  0
M  END
