
     RDKit          3D

 21 21  0  0  0  0  0  0  0  0999 V2000
    3.1793    2.5765   -0.0778 C   0  0  0  0  0  0  0  0  0  0  0  0
    2.2522    1.4975   -0.1701 C   0  0  0  0  0  0  0  0  0  0  0  0
    1.3250    0.4332   -0.2799 C   0  0  0  0  0  0  0  0  0  0  0  0
    0.4255   -0.6106   -0.3646 C   0  0  0  0  0  0  0  0  0  0  0  0
    1.1503   -1.7321    0.4017 O   0  0  0  0  0  0  0  0  0  0  0  0
   -0.7428   -0.4458    0.6236 C   0  0  0  0  0  0  0  0  0  0  0  0
   -1.6247   -1.7016    0.4806 C   0  0  0  0  0  0  0  0  0  0  0  0
   -2.0892   -1.0372   -0.8679 C   0  0  0  0  0  0  0  0  0  0  0  0
   -1.8825    0.2766   -0.1424 C   0  0  0  0  0  0  0  0  0  0  0  0
    2.7909    3.2946    0.7566 H   0  0  0  0  0  0  0  0  0  0  0  0
    2.9945    3.3394   -0.9540 H   0  0  0  0  0  0  0  0  0  0  0  0
    4.1545    2.2792    0.0851 H   0  0  0  0  0  0  0  0  0  0  0  0
    0.2991   -1.0706   -1.2835 H   0  0  0  0  0  0  0  0  0  0  0  0
    0.7804   -1.7356    1.3070 H   0  0  0  0  0  0  0  0  0  0  0  0
   -0.5729   -0.0517    1.6137 H   0  0  0  0  0  0  0  0  0  0  0  0
   -2.4548   -1.6357    1.1986 H   0  0  0  0  0  0  0  0  0  0  0  0
   -1.0311   -2.5950    0.3915 H   0  0  0  0  0  0  0  0  0  0  0  0
   -3.1229   -1.3580   -1.0812 H   0  0  0  0  0  0  0  0  0  0  0  0
   -1.4357   -1.2620   -1.7095 H   0  0  0  0  0  0  0  0  0  0  0  0
   -1.6264    1.1548   -0.6622 H   0  0  0  0  0  0  0  0  0  0  0  0
   -2.7685    0.3842    0.5691 H   0  0  0  0  0  0  0  0  0  0  0  0
  1  2  1  0
  2  3  3  0
  3  4  1  0
  4  5  1  0
  4  6  1  0
  6  7  1  0
  7  8  1  0
  8  9  1  0
  9  6  1  0
  1 10  1  0
  1 11  1  0
  1 12  1  0
  4 13  1  0
  5 14  1  0
  6 15  1  0
  7 16  1  0
  7 17  1  0
  8 18  1  0
  8 19  1  0
  9 20  1  0
  9 21  1  0
M  END
