
     RDKit          3D

 21 20  0  0  0  0  0  0  0  0999 V2000
    2.5747   -1.9686    0.1327 C   0  0  0  0  0  0  0  0  0  0  0  0
    1.4230   -1.1055    0.2902 C   0  0  0  0  0  0  0  0  0  0  0  0
    0.2241   -0.1774    0.4693 C   0  0  0  0  0  0  0  0  0  0  0  0
   -0.7271    0.5701    0.6326 C   0  0  0  0  0  0  0  0  0  0  0  0
   -1.5406    0.0671   -0.8577 C   0  0  0  0  0  0  0  0  0  0  0  0
   -1.7550   -1.3623   -0.5741 C   0  0  0  0  0  0  0  0  0  0  0  0
   -0.4919    2.0208    0.0829 C   0  0  0  0  0  0  0  0  0  0  0  0
    0.7129    2.5365    0.6306 C   0  0  0  0  0  0  0  0  0  0  0  0
    1.2721    3.0624    1.4493 O   0  0  0  0  0  0  0  0  0  0  0  0
    2.4669   -2.6422   -0.7028 H   0  0  0  0  0  0  0  0  0  0  0  0
    3.4955   -1.4172    0.2169 H   0  0  0  0  0  0  0  0  0  0  0  0
    2.5227   -2.6504    1.0923 H   0  0  0  0  0  0  0  0  0  0  0  0
   -1.5785    0.5304    1.2371 H   0  0  0  0  0  0  0  0  0  0  0  0
   -2.1950    0.7939   -1.0716 H   0  0  0  0  0  0  0  0  0  0  0  0
   -0.5956    0.1393   -1.4869 H   0  0  0  0  0  0  0  0  0  0  0  0
   -0.8745   -1.8357   -0.0537 H   0  0  0  0  0  0  0  0  0  0  0  0
   -2.6222   -1.5608    0.1653 H   0  0  0  0  0  0  0  0  0  0  0  0
   -1.9388   -2.0019   -1.4874 H   0  0  0  0  0  0  0  0  0  0  0  0
   -0.6172    2.0764   -1.0259 H   0  0  0  0  0  0  0  0  0  0  0  0
   -1.3473    2.6285    0.5054 H   0  0  0  0  0  0  0  0  0  0  0  0
    1.5917    2.2966   -0.2568 H   0  0  0  0  0  0  0  0  0  0  0  0
  1  2  1  0
  2  3  3  0
  3  4  1  0
  4  5  1  0
  5  6  1  0
  4  7  1  0
  7  8  1  0
  8  9  2  0
  1 10  1  0
  1 11  1  0
  1 12  1  0
  4 13  1  0
  5 14  1  0
  5 15  1  0
  6 16  1  0
  6 17  1  0
  6 18  1  0
  7 19  1  0
  7 20  1  0
  8 21  1  0
M  END
