
     RDKit          3D

 19 18  0  0  0  0  0  0  0  0999 V2000
    3.6776    0.0546    0.8020 C   0  0  0  0  0  0  0  0  0  0  0  0
    2.2512    0.3085    0.6582 C   0  0  0  0  0  0  0  0  0  0  0  0
    1.0279    0.5365    0.5336 C   0  0  0  0  0  0  0  0  0  0  0  0
   -0.4166    0.7976    0.4110 C   0  0  0  0  0  0  0  0  0  0  0  0
   -0.9704    0.7635    1.8230 C   0  0  0  0  0  0  0  0  0  0  0  0
   -0.9195   -0.3072   -0.3276 O   0  0  0  0  0  0  0  0  0  0  0  0
   -1.6887   -0.2535   -1.4530 C   0  0  0  0  0  0  0  0  0  0  0  0
   -2.1567   -1.4917   -2.1729 C   0  0  0  0  0  0  0  0  0  0  0  0
   -2.0069    0.8802   -1.8974 O   0  0  0  0  0  0  0  0  0  0  0  0
    4.0778    0.4270    1.7677 H   0  0  0  0  0  0  0  0  0  0  0  0
    4.2513    0.5995   -0.0169 H   0  0  0  0  0  0  0  0  0  0  0  0
    3.8158   -1.0331    0.7790 H   0  0  0  0  0  0  0  0  0  0  0  0
   -0.6477    1.7728   -0.0170 H   0  0  0  0  0  0  0  0  0  0  0  0
   -0.3050    0.4056    2.5964 H   0  0  0  0  0  0  0  0  0  0  0  0
   -1.8565    0.0581    1.7495 H   0  0  0  0  0  0  0  0  0  0  0  0
   -1.4111    1.7530    2.0290 H   0  0  0  0  0  0  0  0  0  0  0  0
   -3.1964   -1.7030   -1.9762 H   0  0  0  0  0  0  0  0  0  0  0  0
   -1.4624   -2.3488   -2.0255 H   0  0  0  0  0  0  0  0  0  0  0  0
   -2.0637   -1.2195   -3.2629 H   0  0  0  0  0  0  0  0  0  0  0  0
  1  2  1  0
  2  3  3  0
  3  4  1  0
  4  5  1  0
  4  6  1  0
  6  7  1  0
  7  8  1  0
  7  9  2  0
  1 10  1  0
  1 11  1  0
  1 12  1  0
  4 13  1  0
  5 14  1  0
  5 15  1  0
  5 16  1  0
  8 17  1  0
  8 18  1  0
  8 19  1  0
M  END
