
     RDKit          3D

 23 23  0  0  0  0  0  0  0  0999 V2000
    3.3667    1.2914   -0.1638 C   0  0  0  0  0  0  0  0  0  0  0  0
    2.2538    0.3477   -0.3194 C   0  0  0  0  0  0  0  0  0  0  0  0
    1.3314   -0.4407   -0.4556 C   0  0  0  0  0  0  0  0  0  0  0  0
    0.2337   -1.3948   -0.6125 C   0  0  0  0  0  0  0  0  0  0  0  0
    0.1609   -2.3206    0.5738 C   0  0  0  0  0  0  0  0  0  0  0  0
   -1.0497   -0.6243   -0.8117 C   0  0  0  0  0  0  0  0  0  0  0  0
   -1.3702    0.2756    0.3432 C   0  0  0  0  0  0  0  0  0  0  0  0
   -2.6650    1.0591    0.1528 C   0  0  0  0  0  0  0  0  0  0  0  0
   -1.3354    1.7336    0.2630 C   0  0  0  0  0  0  0  0  0  0  0  0
    4.0447    0.9686    0.6659 H   0  0  0  0  0  0  0  0  0  0  0  0
    2.9206    2.2812    0.0721 H   0  0  0  0  0  0  0  0  0  0  0  0
    3.9677    1.3462   -1.1153 H   0  0  0  0  0  0  0  0  0  0  0  0
    0.4157   -2.0160   -1.5025 H   0  0  0  0  0  0  0  0  0  0  0  0
    0.9563   -3.0930    0.4958 H   0  0  0  0  0  0  0  0  0  0  0  0
   -0.8460   -2.8007    0.6390 H   0  0  0  0  0  0  0  0  0  0  0  0
    0.3742   -1.7599    1.5267 H   0  0  0  0  0  0  0  0  0  0  0  0
   -0.9877   -0.0721   -1.7671 H   0  0  0  0  0  0  0  0  0  0  0  0
   -1.9050   -1.3467   -0.9171 H   0  0  0  0  0  0  0  0  0  0  0  0
   -1.1986   -0.1906    1.3349 H   0  0  0  0  0  0  0  0  0  0  0  0
   -3.3837    1.0712    0.9828 H   0  0  0  0  0  0  0  0  0  0  0  0
   -3.1297    1.0975   -0.8416 H   0  0  0  0  0  0  0  0  0  0  0  0
   -0.9606    2.2926   -0.6105 H   0  0  0  0  0  0  0  0  0  0  0  0
   -1.1939    2.2945    1.2172 H   0  0  0  0  0  0  0  0  0  0  0  0
  1  2  1  0
  2  3  3  0
  3  4  1  0
  4  5  1  0
  4  6  1  0
  6  7  1  0
  7  8  1  0
  8  9  1  0
  9  7  1  0
  1 10  1  0
  1 11  1  0
  1 12  1  0
  4 13  1  0
  5 14  1  0
  5 15  1  0
  5 16  1  0
  6 17  1  0
  6 18  1  0
  7 19  1  0
  8 20  1  0
  8 21  1  0
  9 22  1  0
  9 23  1  0
M  END
