
     RDKit          3D

 17 17  0  0  0  0  0  0  0  0999 V2000
    3.3612    0.2147    0.1719 C   0  0  0  0  0  0  0  0  0  0  0  0
    1.9813   -0.2179   -0.0723 C   0  0  0  0  0  0  0  0  0  0  0  0
    0.8429   -0.5839   -0.2937 C   0  0  0  0  0  0  0  0  0  0  0  0
   -0.5370   -1.0372   -0.5382 C   0  0  0  0  0  0  0  0  0  0  0  0
   -1.2219    0.0107   -1.3431 C   0  0  0  0  0  0  0  0  0  0  0  0
   -2.1827    0.6466   -0.3642 C   0  0  0  0  0  0  0  0  0  0  0  0
   -1.8578    0.0938    0.9555 C   0  0  0  0  0  0  0  0  0  0  0  0
   -2.0962    0.5199    2.1059 O   0  0  0  0  0  0  0  0  0  0  0  0
   -1.1681   -1.1089    0.7156 O   0  0  0  0  0  0  0  0  0  0  0  0
    4.0312   -0.6289    0.4320 H   0  0  0  0  0  0  0  0  0  0  0  0
    3.7338    0.6264   -0.7997 H   0  0  0  0  0  0  0  0  0  0  0  0
    3.4125    0.9790    0.9832 H   0  0  0  0  0  0  0  0  0  0  0  0
   -0.5813   -1.9882   -1.0701 H   0  0  0  0  0  0  0  0  0  0  0  0
   -0.5256    0.7555   -1.7920 H   0  0  0  0  0  0  0  0  0  0  0  0
   -1.8284   -0.4325   -2.1791 H   0  0  0  0  0  0  0  0  0  0  0  0
   -3.2450    0.3988   -0.6071 H   0  0  0  0  0  0  0  0  0  0  0  0
   -2.1190    1.7523   -0.4006 H   0  0  0  0  0  0  0  0  0  0  0  0
  1  2  1  0
  2  3  3  0
  3  4  1  0
  4  5  1  0
  5  6  1  0
  6  7  1  0
  7  8  2  0
  7  9  1  0
  9  4  1  0
  1 10  1  0
  1 11  1  0
  1 12  1  0
  4 13  1  0
  5 14  1  0
  5 15  1  0
  6 16  1  0
  6 17  1  0
M  END
