
     RDKit          3D

 23 22  0  0  0  0  0  0  0  0999 V2000
    4.1106    1.0813    0.2059 C   0  0  0  0  0  0  0  0  0  0  0  0
    2.7167    0.8236    0.2440 C   0  0  0  0  0  0  0  0  0  0  0  0
    1.3975    0.5721    0.2614 C   0  0  0  0  0  0  0  0  0  0  0  0
    0.0515    0.3371    0.2688 C   0  0  0  0  0  0  0  0  0  0  0  0
   -0.6988    1.5229   -0.3083 C   0  0  0  0  0  0  0  0  0  0  0  0
   -0.2410   -0.9044   -0.5955 C   0  0  0  0  0  0  0  0  0  0  0  0
   -1.7129   -1.2299   -0.5778 C   0  0  0  0  0  0  0  0  0  0  0  0
   -2.1542   -1.5771    0.8419 C   0  0  0  0  0  0  0  0  0  0  0  0
   -2.5145   -0.1517   -0.9756 O   0  0  0  0  0  0  0  0  0  0  0  0
    4.4448    1.1432   -0.8343 H   0  0  0  0  0  0  0  0  0  0  0  0
    4.7085    0.2830    0.7494 H   0  0  0  0  0  0  0  0  0  0  0  0
    4.3587    2.0257    0.7795 H   0  0  0  0  0  0  0  0  0  0  0  0
   -0.4229    0.0990    1.2495 H   0  0  0  0  0  0  0  0  0  0  0  0
    0.0039    2.3987   -0.1709 H   0  0  0  0  0  0  0  0  0  0  0  0
   -1.6325    1.6664    0.2441 H   0  0  0  0  0  0  0  0  0  0  0  0
   -0.8144    1.3973   -1.3788 H   0  0  0  0  0  0  0  0  0  0  0  0
    0.0254   -0.6008   -1.6216 H   0  0  0  0  0  0  0  0  0  0  0  0
    0.3808   -1.7542   -0.3010 H   0  0  0  0  0  0  0  0  0  0  0  0
   -1.9178   -2.0942   -1.2076 H   0  0  0  0  0  0  0  0  0  0  0  0
   -2.2489   -0.7030    1.4639 H   0  0  0  0  0  0  0  0  0  0  0  0
   -3.1726   -2.0496    0.7550 H   0  0  0  0  0  0  0  0  0  0  0  0
   -1.4368   -2.3272    1.2540 H   0  0  0  0  0  0  0  0  0  0  0  0
   -3.2310    0.0419   -0.3460 H   0  0  0  0  0  0  0  0  0  0  0  0
  1  2  1  0
  2  3  3  0
  3  4  1  0
  4  5  1  0
  4  6  1  0
  6  7  1  0
  7  8  1  0
  7  9  1  0
  1 10  1  0
  1 11  1  0
  1 12  1  0
  4 13  1  0
  5 14  1  0
  5 15  1  0
  5 16  1  0
  6 17  1  0
  6 18  1  0
  7 19  1  0
  8 20  1  0
  8 21  1  0
  8 22  1  0
  9 23  1  0
M  END
