
     RDKit          3D

 19 19  0  0  0  0  0  0  0  0999 V2000
   -3.1535   -1.7791    0.6577 C   0  0  0  0  0  0  0  0  0  0  0  0
   -1.9238   -1.0304    0.3615 C   0  0  0  0  0  0  0  0  0  0  0  0
   -0.9129   -0.3954    0.1293 C   0  0  0  0  0  0  0  0  0  0  0  0
    0.3143    0.3597   -0.1727 C   0  0  0  0  0  0  0  0  0  0  0  0
    0.2144    1.5740    0.4778 O   0  0  0  0  0  0  0  0  0  0  0  0
    0.3481    2.6137   -0.4388 C   0  0  0  0  0  0  0  0  0  0  0  0
    1.4710   -0.4709    0.3966 C   0  0  0  0  0  0  0  0  0  0  0  0
    2.6820   -0.6269   -0.3287 C   0  0  0  0  0  0  0  0  0  0  0  0
    1.6725   -1.7318   -0.1879 O   0  0  0  0  0  0  0  0  0  0  0  0
   -3.0183   -2.2463    1.6353 H   0  0  0  0  0  0  0  0  0  0  0  0
   -3.9976   -1.0611    0.6184 H   0  0  0  0  0  0  0  0  0  0  0  0
   -3.3614   -2.5480   -0.1294 H   0  0  0  0  0  0  0  0  0  0  0  0
    0.4757    0.4808   -1.2599 H   0  0  0  0  0  0  0  0  0  0  0  0
    0.2673    3.5757    0.0878 H   0  0  0  0  0  0  0  0  0  0  0  0
   -0.3797    2.5546   -1.2697 H   0  0  0  0  0  0  0  0  0  0  0  0
    1.3747    2.6100   -0.9079 H   0  0  0  0  0  0  0  0  0  0  0  0
    1.4967   -0.5079    1.5058 H   0  0  0  0  0  0  0  0  0  0  0  0
    2.8174   -0.4563   -1.3913 H   0  0  0  0  0  0  0  0  0  0  0  0
    3.6132   -0.9145    0.2160 H   0  0  0  0  0  0  0  0  0  0  0  0
  1  2  1  0
  2  3  3  0
  3  4  1  0
  4  5  1  0
  5  6  1  0
  4  7  1  0
  7  8  1  0
  8  9  1  0
  9  7  1  0
  1 10  1  0
  1 11  1  0
  1 12  1  0
  4 13  1  0
  6 14  1  0
  6 15  1  0
  6 16  1  0
  7 17  1  0
  8 18  1  0
  8 19  1  0
M  END
