
     RDKit          3D

 19 19  0  0  0  0  0  0  0  0999 V2000
    3.9758    0.0342    1.2892 C   0  0  0  0  0  0  0  0  0  0  0  0
    2.5743   -0.0332    0.8280 C   0  0  0  0  0  0  0  0  0  0  0  0
    1.4286   -0.1069    0.4596 C   0  0  0  0  0  0  0  0  0  0  0  0
    0.0468   -0.1778    0.0225 C   0  0  0  0  0  0  0  0  0  0  0  0
   -0.3511   -0.8418   -1.0484 C   0  0  0  0  0  0  0  0  0  0  0  0
   -1.8230   -0.7141   -1.2158 C   0  0  0  0  0  0  0  0  0  0  0  0
   -2.1527    0.4920   -0.3843 C   0  0  0  0  0  0  0  0  0  0  0  0
   -3.4535    0.4304    0.1219 O   0  0  0  0  0  0  0  0  0  0  0  0
   -1.1150    0.4669    0.6889 C   0  0  0  0  0  0  0  0  0  0  0  0
    4.0331    0.2584    2.3811 H   0  0  0  0  0  0  0  0  0  0  0  0
    4.4667    0.8179    0.7138 H   0  0  0  0  0  0  0  0  0  0  0  0
    4.4737   -0.9656    1.1650 H   0  0  0  0  0  0  0  0  0  0  0  0
    0.2782   -1.4021   -1.7194 H   0  0  0  0  0  0  0  0  0  0  0  0
   -2.3721   -1.6081   -0.8478 H   0  0  0  0  0  0  0  0  0  0  0  0
   -2.1000   -0.5522   -2.2793 H   0  0  0  0  0  0  0  0  0  0  0  0
   -2.0047    1.4021   -1.0297 H   0  0  0  0  0  0  0  0  0  0  0  0
   -3.6161    1.2512    0.6427 H   0  0  0  0  0  0  0  0  0  0  0  0
   -1.4257   -0.2254    1.5132 H   0  0  0  0  0  0  0  0  0  0  0  0
   -0.8634    1.4741    1.0795 H   0  0  0  0  0  0  0  0  0  0  0  0
  1  2  1  0
  2  3  3  0
  3  4  1  0
  4  5  2  0
  5  6  1  0
  6  7  1  0
  7  8  1  0
  7  9  1  0
  9  4  1  0
  1 10  1  0
  1 11  1  0
  1 12  1  0
  5 13  1  0
  6 14  1  0
  6 15  1  0
  7 16  1  0
  8 17  1  0
  9 18  1  0
  9 19  1  0
M  END
