
     RDKit          3D

 23 22  0  0  0  0  0  0  0  0999 V2000
    3.4469    2.4733   -0.3608 C   0  0  0  0  0  0  0  0  0  0  0  0
    2.5049    1.3890   -0.0717 C   0  0  0  0  0  0  0  0  0  0  0  0
    1.7337    0.4728    0.1792 C   0  0  0  0  0  0  0  0  0  0  0  0
    0.8069   -0.6118    0.5012 C   0  0  0  0  0  0  0  0  0  0  0  0
    1.2944   -1.9261   -0.0436 C   0  0  0  0  0  0  0  0  0  0  0  0
   -0.5697   -0.2633   -0.0209 C   0  0  0  0  0  0  0  0  0  0  0  0
   -1.4805   -1.2743    0.2677 O   0  0  0  0  0  0  0  0  0  0  0  0
   -2.7501   -0.9854   -0.1970 C   0  0  0  0  0  0  0  0  0  0  0  0
   -3.2942    0.2989    0.4298 C   0  0  0  0  0  0  0  0  0  0  0  0
    3.8411    2.4059   -1.4012 H   0  0  0  0  0  0  0  0  0  0  0  0
    4.3585    2.4009    0.2948 H   0  0  0  0  0  0  0  0  0  0  0  0
    2.9102    3.4134   -0.2343 H   0  0  0  0  0  0  0  0  0  0  0  0
    0.6992   -0.7283    1.6069 H   0  0  0  0  0  0  0  0  0  0  0  0
    1.7409   -2.5495    0.7780 H   0  0  0  0  0  0  0  0  0  0  0  0
    0.5092   -2.5005   -0.5575 H   0  0  0  0  0  0  0  0  0  0  0  0
    2.1413   -1.7708   -0.7640 H   0  0  0  0  0  0  0  0  0  0  0  0
   -0.8963    0.7357    0.2694 H   0  0  0  0  0  0  0  0  0  0  0  0
   -0.4710   -0.2445   -1.1445 H   0  0  0  0  0  0  0  0  0  0  0  0
   -2.7818   -0.8655   -1.2901 H   0  0  0  0  0  0  0  0  0  0  0  0
   -3.4656   -1.7788    0.0745 H   0  0  0  0  0  0  0  0  0  0  0  0
   -2.8830    0.4262    1.4492 H   0  0  0  0  0  0  0  0  0  0  0  0
   -4.3897    0.2970    0.4967 H   0  0  0  0  0  0  0  0  0  0  0  0
   -3.0053    1.1858   -0.1794 H   0  0  0  0  0  0  0  0  0  0  0  0
  1  2  1  0
  2  3  3  0
  3  4  1  0
  4  5  1  0
  4  6  1  0
  6  7  1  0
  7  8  1  0
  8  9  1  0
  1 10  1  0
  1 11  1  0
  1 12  1  0
  4 13  1  0
  5 14  1  0
  5 15  1  0
  5 16  1  0
  6 17  1  0
  6 18  1  0
  8 19  1  0
  8 20  1  0
  9 21  1  0
  9 22  1  0
  9 23  1  0
M  END
