
     RDKit          3D

 17 17  0  0  0  0  0  0  0  0999 V2000
    3.2901   -0.0148    0.6494 C   0  0  0  0  0  0  0  0  0  0  0  0
    1.8592    0.0589    0.3423 C   0  0  0  0  0  0  0  0  0  0  0  0
    0.6811    0.1405    0.0898 C   0  0  0  0  0  0  0  0  0  0  0  0
   -0.7439    0.2492   -0.1920 C   0  0  0  0  0  0  0  0  0  0  0  0
   -1.0509    0.5061   -1.6306 C   0  0  0  0  0  0  0  0  0  0  0  0
   -1.4857   -0.9038    0.4388 C   0  0  0  0  0  0  0  0  0  0  0  0
   -2.3920    0.1472    0.9156 C   0  0  0  0  0  0  0  0  0  0  0  0
   -3.5596    0.1438    1.3719 O   0  0  0  0  0  0  0  0  0  0  0  0
   -1.4478    1.1277    0.6603 O   0  0  0  0  0  0  0  0  0  0  0  0
    3.8860    0.5836   -0.0470 H   0  0  0  0  0  0  0  0  0  0  0  0
    3.6517   -1.0785    0.6310 H   0  0  0  0  0  0  0  0  0  0  0  0
    3.4336    0.3272    1.6887 H   0  0  0  0  0  0  0  0  0  0  0  0
   -1.9756    1.0953   -1.7103 H   0  0  0  0  0  0  0  0  0  0  0  0
   -0.1852    1.0645   -2.0763 H   0  0  0  0  0  0  0  0  0  0  0  0
   -1.1404   -0.4512   -2.2051 H   0  0  0  0  0  0  0  0  0  0  0  0
   -1.8936   -1.6578   -0.2296 H   0  0  0  0  0  0  0  0  0  0  0  0
   -0.9271   -1.3378    1.3031 H   0  0  0  0  0  0  0  0  0  0  0  0
  1  2  1  0
  2  3  3  0
  3  4  1  0
  4  5  1  0
  4  6  1  0
  6  7  1  0
  7  8  2  0
  7  9  1  0
  9  4  1  0
  1 10  1  0
  1 11  1  0
  1 12  1  0
  5 13  1  0
  5 14  1  0
  5 15  1  0
  6 16  1  0
  6 17  1  0
M  END
