
     RDKit          3D

 17 17  0  0  0  0  0  0  0  0999 V2000
    2.0850   -1.1418   -2.8374 C   0  0  0  0  0  0  0  0  0  0  0  0
    1.4583   -0.6032   -1.6095 C   0  0  0  0  0  0  0  0  0  0  0  0
    0.9310   -0.1713   -0.6205 C   0  0  0  0  0  0  0  0  0  0  0  0
    0.3005    0.3476    0.6096 C   0  0  0  0  0  0  0  0  0  0  0  0
   -0.5401   -0.6877    1.3245 C   0  0  0  0  0  0  0  0  0  0  0  0
   -1.1563    0.4746    0.5865 C   0  0  0  0  0  0  0  0  0  0  0  0
   -1.8205    1.4736    1.5402 C   0  0  0  0  0  0  0  0  0  0  0  0
    2.2394   -0.3651   -3.5823 H   0  0  0  0  0  0  0  0  0  0  0  0
    1.4124   -1.9266   -3.2443 H   0  0  0  0  0  0  0  0  0  0  0  0
    3.0941   -1.5631   -2.6022 H   0  0  0  0  0  0  0  0  0  0  0  0
    0.8674    1.0705    1.1956 H   0  0  0  0  0  0  0  0  0  0  0  0
   -0.4396   -0.6622    2.4130 H   0  0  0  0  0  0  0  0  0  0  0  0
   -0.7030   -1.6642    0.8585 H   0  0  0  0  0  0  0  0  0  0  0  0
   -1.7871    0.2568   -0.2852 H   0  0  0  0  0  0  0  0  0  0  0  0
   -1.0775    2.1654    1.9926 H   0  0  0  0  0  0  0  0  0  0  0  0
   -2.2947    0.9122    2.3863 H   0  0  0  0  0  0  0  0  0  0  0  0
   -2.5694    2.0846    1.0014 H   0  0  0  0  0  0  0  0  0  0  0  0
  1  2  1  0
  2  3  3  0
  3  4  1  0
  4  5  1  0
  5  6  1  0
  6  7  1  0
  6  4  1  0
  1  8  1  0
  1  9  1  0
  1 10  1  0
  4 11  1  0
  5 12  1  0
  5 13  1  0
  6 14  1  0
  7 15  1  0
  7 16  1  0
  7 17  1  0
M  END
