
     RDKit          3D

 17 16  0  0  0  0  0  0  0  0999 V2000
    3.0401   -0.3006    1.1244 C   0  0  0  0  0  0  0  0  0  0  0  0
    1.7311   -0.2918    0.4318 C   0  0  0  0  0  0  0  0  0  0  0  0
    0.6532   -0.2872   -0.1148 C   0  0  0  0  0  0  0  0  0  0  0  0
   -0.6548   -0.2993   -0.7598 C   0  0  0  0  0  0  0  0  0  0  0  0
   -0.8622    1.0188   -1.4546 C   0  0  0  0  0  0  0  0  0  0  0  0
   -1.7377   -0.5864    0.2537 C   0  0  0  0  0  0  0  0  0  0  0  0
   -1.7838    0.3546    1.2635 O   0  0  0  0  0  0  0  0  0  0  0  0
    3.4472    0.7250    1.2291 H   0  0  0  0  0  0  0  0  0  0  0  0
    3.7004   -0.9506    0.5009 H   0  0  0  0  0  0  0  0  0  0  0  0
    2.9335   -0.7166    2.1378 H   0  0  0  0  0  0  0  0  0  0  0  0
   -0.7188   -1.0881   -1.5491 H   0  0  0  0  0  0  0  0  0  0  0  0
   -1.6734    0.9863   -2.2175 H   0  0  0  0  0  0  0  0  0  0  0  0
   -1.0405    1.8557   -0.7503 H   0  0  0  0  0  0  0  0  0  0  0  0
    0.0970    1.2638   -1.9807 H   0  0  0  0  0  0  0  0  0  0  0  0
   -2.7144   -0.5038   -0.3040 H   0  0  0  0  0  0  0  0  0  0  0  0
   -1.7051   -1.6345    0.6128 H   0  0  0  0  0  0  0  0  0  0  0  0
   -2.7117    0.4548    1.5620 H   0  0  0  0  0  0  0  0  0  0  0  0
  1  2  1  0
  2  3  3  0
  3  4  1  0
  4  5  1  0
  4  6  1  0
  6  7  1  0
  1  8  1  0
  1  9  1  0
  1 10  1  0
  4 11  1  0
  5 12  1  0
  5 13  1  0
  5 14  1  0
  6 15  1  0
  6 16  1  0
  7 17  1  0
M  END
