
     RDKit          3D

 19 18  0  0  0  0  0  0  0  0999 V2000
    3.0587    1.6312    0.0678 C   0  0  0  0  0  0  0  0  0  0  0  0
    1.6930    1.2266   -0.0637 C   0  0  0  0  0  0  0  0  0  0  0  0
    0.4753    0.8468   -0.1795 C   0  0  0  0  0  0  0  0  0  0  0  0
   -0.8787    0.4296   -0.3328 C   0  0  0  0  0  0  0  0  0  0  0  0
   -1.3281    0.6719   -1.7282 C   0  0  0  0  0  0  0  0  0  0  0  0
   -1.1170   -1.0254    0.1136 C   0  0  0  0  0  0  0  0  0  0  0  0
   -0.8071   -1.1458    1.4572 O   0  0  0  0  0  0  0  0  0  0  0  0
   -0.9083   -2.3830    2.1020 C   0  0  0  0  0  0  0  0  0  0  0  0
   -1.2828   -3.3965    1.4710 O   0  0  0  0  0  0  0  0  0  0  0  0
    3.2833    1.9241    1.1408 H   0  0  0  0  0  0  0  0  0  0  0  0
    3.2701    2.4768   -0.6175 H   0  0  0  0  0  0  0  0  0  0  0  0
    3.7840    0.7842   -0.0986 H   0  0  0  0  0  0  0  0  0  0  0  0
   -1.5684    1.0052    0.3789 H   0  0  0  0  0  0  0  0  0  0  0  0
   -0.7198    0.2916   -2.5367 H   0  0  0  0  0  0  0  0  0  0  0  0
   -1.4507    1.7880   -1.8285 H   0  0  0  0  0  0  0  0  0  0  0  0
   -2.3808    0.2961   -1.8298 H   0  0  0  0  0  0  0  0  0  0  0  0
   -0.3572   -1.6249   -0.4635 H   0  0  0  0  0  0  0  0  0  0  0  0
   -2.1099   -1.3734   -0.2000 H   0  0  0  0  0  0  0  0  0  0  0  0
   -0.6557   -2.4232    3.1474 H   0  0  0  0  0  0  0  0  0  0  0  0
  1  2  1  0
  2  3  3  0
  3  4  1  0
  4  5  1  0
  4  6  1  0
  6  7  1  0
  7  8  1  0
  8  9  2  0
  1 10  1  0
  1 11  1  0
  1 12  1  0
  4 13  1  0
  5 14  1  0
  5 15  1  0
  5 16  1  0
  6 17  1  0
  6 18  1  0
  8 19  1  0
M  END
