
     RDKit          3D

 15 15  0  0  0  0  0  0  0  0999 V2000
   -3.3139   -0.1690   -1.0785 C   0  0  0  0  0  0  0  0  0  0  0  0
   -1.9269   -0.3218   -0.6125 C   0  0  0  0  0  0  0  0  0  0  0  0
   -0.7791   -0.4404   -0.2326 C   0  0  0  0  0  0  0  0  0  0  0  0
    0.6010   -0.6065    0.2358 C   0  0  0  0  0  0  0  0  0  0  0  0
    0.6895   -0.3178    1.7037 O   0  0  0  0  0  0  0  0  0  0  0  0
    1.3094    0.5233    0.7051 C   0  0  0  0  0  0  0  0  0  0  0  0
    2.8285    0.4565    0.8209 C   0  0  0  0  0  0  0  0  0  0  0  0
   -3.3422    0.0755   -2.1735 H   0  0  0  0  0  0  0  0  0  0  0  0
   -3.7675    0.6228   -0.4615 H   0  0  0  0  0  0  0  0  0  0  0  0
   -3.8623   -1.1469   -0.9941 H   0  0  0  0  0  0  0  0  0  0  0  0
    1.1051   -1.5748    0.0647 H   0  0  0  0  0  0  0  0  0  0  0  0
    0.8624    1.5339    0.6769 H   0  0  0  0  0  0  0  0  0  0  0  0
    3.1916    1.0991    1.6749 H   0  0  0  0  0  0  0  0  0  0  0  0
    3.0917   -0.6012    1.0018 H   0  0  0  0  0  0  0  0  0  0  0  0
    3.3129    0.8673   -0.0902 H   0  0  0  0  0  0  0  0  0  0  0  0
  1  2  1  0
  2  3  3  0
  3  4  1  0
  4  5  1  0
  5  6  1  0
  6  7  1  0
  6  4  1  0
  1  8  1  0
  1  9  1  0
  1 10  1  0
  4 11  1  0
  6 12  1  0
  7 13  1  0
  7 14  1  0
  7 15  1  0
M  END
