
     RDKit          3D

 19 20  0  0  0  0  0  0  0  0999 V2000
    3.8789    0.2970    0.3920 C   0  0  0  0  0  0  0  0  0  0  0  0
    2.5502    0.0245   -0.1596 C   0  0  0  0  0  0  0  0  0  0  0  0
    1.4475   -0.2192   -0.6324 C   0  0  0  0  0  0  0  0  0  0  0  0
    0.1208   -0.5097   -1.1791 C   0  0  0  0  0  0  0  0  0  0  0  0
   -0.8894    0.2597   -0.4076 C   0  0  0  0  0  0  0  0  0  0  0  0
   -2.2808    0.0183   -0.9050 C   0  0  0  0  0  0  0  0  0  0  0  0
   -2.7721    0.4114    0.4535 C   0  0  0  0  0  0  0  0  0  0  0  0
   -1.6211   -0.5248    0.6336 C   0  0  0  0  0  0  0  0  0  0  0  0
   -2.1551   -1.2697   -0.4073 O   0  0  0  0  0  0  0  0  0  0  0  0
    3.7416    0.5282    1.4639 H   0  0  0  0  0  0  0  0  0  0  0  0
    4.5513   -0.5862    0.3304 H   0  0  0  0  0  0  0  0  0  0  0  0
    4.3121    1.1890   -0.1401 H   0  0  0  0  0  0  0  0  0  0  0  0
   -0.1027   -1.5985   -1.0731 H   0  0  0  0  0  0  0  0  0  0  0  0
    0.0797   -0.1817   -2.2367 H   0  0  0  0  0  0  0  0  0  0  0  0
   -0.6510    1.3021   -0.1398 H   0  0  0  0  0  0  0  0  0  0  0  0
   -2.6652    0.2897   -1.7942 H   0  0  0  0  0  0  0  0  0  0  0  0
   -3.7754    0.0276    0.7163 H   0  0  0  0  0  0  0  0  0  0  0  0
   -2.5167    1.4216    0.7710 H   0  0  0  0  0  0  0  0  0  0  0  0
   -1.2525   -0.8793    1.5020 H   0  0  0  0  0  0  0  0  0  0  0  0
  1  2  1  0
  2  3  3  0
  3  4  1  0
  4  5  1  0
  5  6  1  0
  6  7  1  0
  7  8  1  0
  8  9  1  0
  8  5  1  0
  9  6  1  0
  1 10  1  0
  1 11  1  0
  1 12  1  0
  4 13  1  0
  4 14  1  0
  5 15  1  0
  6 16  1  0
  7 17  1  0
  7 18  1  0
  8 19  1  0
M  END
