
     RDKit          3D

 21 22  0  0  0  0  0  0  0  0999 V2000
    3.7212   -0.1831   -0.1253 C   0  0  0  0  0  0  0  0  0  0  0  0
    2.3174    0.1036    0.1907 C   0  0  0  0  0  0  0  0  0  0  0  0
    1.1715    0.3343    0.4278 C   0  0  0  0  0  0  0  0  0  0  0  0
   -0.2057    0.6351    0.7052 C   0  0  0  0  0  0  0  0  0  0  0  0
   -0.9404    1.4681   -0.3095 C   0  0  0  0  0  0  0  0  0  0  0  0
   -0.8545    0.2785   -1.2176 C   0  0  0  0  0  0  0  0  0  0  0  0
   -1.1984   -0.3171    0.1116 C   0  0  0  0  0  0  0  0  0  0  0  0
   -1.4073   -1.6325    0.4289 C   0  0  0  0  0  0  0  0  0  0  0  0
   -2.1842    0.8198    0.2466 C   0  0  0  0  0  0  0  0  0  0  0  0
    3.8227   -1.2612   -0.2917 H   0  0  0  0  0  0  0  0  0  0  0  0
    4.3884    0.1492    0.6964 H   0  0  0  0  0  0  0  0  0  0  0  0
    4.0420    0.3632   -1.0289 H   0  0  0  0  0  0  0  0  0  0  0  0
   -0.4673    0.9469    1.7216 H   0  0  0  0  0  0  0  0  0  0  0  0
   -0.8047    2.4300   -0.5283 H   0  0  0  0  0  0  0  0  0  0  0  0
    0.1218    0.0382   -1.6423 H   0  0  0  0  0  0  0  0  0  0  0  0
   -1.7227    0.1771   -1.9156 H   0  0  0  0  0  0  0  0  0  0  0  0
   -2.1885   -1.7726    1.2350 H   0  0  0  0  0  0  0  0  0  0  0  0
   -1.6986   -2.2741   -0.4337 H   0  0  0  0  0  0  0  0  0  0  0  0
   -0.5025   -2.1483    0.8618 H   0  0  0  0  0  0  0  0  0  0  0  0
   -2.3733    1.0309    1.3024 H   0  0  0  0  0  0  0  0  0  0  0  0
   -3.0372    0.8140   -0.4351 H   0  0  0  0  0  0  0  0  0  0  0  0
  1  2  1  0
  2  3  3  0
  3  4  1  0
  4  5  1  0
  5  6  1  0
  6  7  1  0
  7  8  1  0
  7  9  1  0
  7  4  1  0
  9  5  1  0
  1 10  1  0
  1 11  1  0
  1 12  1  0
  4 13  1  0
  5 14  1  0
  6 15  1  0
  6 16  1  0
  8 17  1  0
  8 18  1  0
  8 19  1  0
  9 20  1  0
  9 21  1  0
M  END
