
     RDKit          3D

 23 23  0  0  0  0  0  0  0  0999 V2000
    2.1819    3.0327   -1.3476 C   0  0  0  0  0  0  0  0  0  0  0  0
    1.6016    1.7330   -1.0182 C   0  0  0  0  0  0  0  0  0  0  0  0
    1.0545    0.5423   -0.6956 C   0  0  0  0  0  0  0  0  0  0  0  0
    0.4909   -0.7128   -0.3792 C   0  0  0  0  0  0  0  0  0  0  0  0
   -0.3637   -0.8084    0.8665 C   0  0  0  0  0  0  0  0  0  0  0  0
   -1.6173   -0.0012    0.8833 C   0  0  0  0  0  0  0  0  0  0  0  0
   -2.2363   -0.2761    2.2834 C   0  0  0  0  0  0  0  0  0  0  0  0
   -0.1334   -1.4819   -1.5329 C   0  0  0  0  0  0  0  0  0  0  0  0
    1.1579   -1.9301   -1.0155 C   0  0  0  0  0  0  0  0  0  0  0  0
    1.4238    3.8372   -1.1001 H   0  0  0  0  0  0  0  0  0  0  0  0
    2.5678    3.0582   -2.3390 H   0  0  0  0  0  0  0  0  0  0  0  0
    2.9700    3.2618   -0.5227 H   0  0  0  0  0  0  0  0  0  0  0  0
    0.2670   -0.4197    1.7392 H   0  0  0  0  0  0  0  0  0  0  0  0
   -0.5883   -1.8573    1.0823 H   0  0  0  0  0  0  0  0  0  0  0  0
   -2.3798   -0.4279    0.1883 H   0  0  0  0  0  0  0  0  0  0  0  0
   -1.5216    1.0619    0.7619 H   0  0  0  0  0  0  0  0  0  0  0  0
   -3.2811    0.0445    2.1911 H   0  0  0  0  0  0  0  0  0  0  0  0
   -1.6493    0.3407    3.0198 H   0  0  0  0  0  0  0  0  0  0  0  0
   -2.1425   -1.3478    2.5451 H   0  0  0  0  0  0  0  0  0  0  0  0
   -0.9858   -2.2000   -1.3174 H   0  0  0  0  0  0  0  0  0  0  0  0
   -0.2033   -0.9594   -2.4881 H   0  0  0  0  0  0  0  0  0  0  0  0
    2.0726   -1.6292   -1.6563 H   0  0  0  0  0  0  0  0  0  0  0  0
    1.3141   -2.8605   -0.5004 H   0  0  0  0  0  0  0  0  0  0  0  0
  1  2  1  0
  2  3  3  0
  3  4  1  0
  4  5  1  0
  5  6  1  0
  6  7  1  0
  4  8  1  0
  8  9  1  0
  9  4  1  0
  1 10  1  0
  1 11  1  0
  1 12  1  0
  5 13  1  0
  5 14  1  0
  6 15  1  0
  6 16  1  0
  7 17  1  0
  7 18  1  0
  7 19  1  0
  8 20  1  0
  8 21  1  0
  9 22  1  0
  9 23  1  0
M  END
