
     RDKit          3D

 19 19  0  0  0  0  0  0  0  0999 V2000
    3.1992    1.2912    0.1881 C   0  0  0  0  0  0  0  0  0  0  0  0
    1.9273    0.5310    0.1751 C   0  0  0  0  0  0  0  0  0  0  0  0
    0.9029   -0.1028    0.1739 C   0  0  0  0  0  0  0  0  0  0  0  0
   -0.3250   -0.8713    0.1843 C   0  0  0  0  0  0  0  0  0  0  0  0
   -1.5868   -0.0691    0.4220 C   0  0  0  0  0  0  0  0  0  0  0  0
   -1.7636    1.0386   -0.5498 C   0  0  0  0  0  0  0  0  0  0  0  0
   -1.6457    0.3409    1.7603 O   0  0  0  0  0  0  0  0  0  0  0  0
   -0.4517   -2.1876   -0.4212 C   0  0  0  0  0  0  0  0  0  0  0  0
   -0.3321   -2.0451    1.0507 O   0  0  0  0  0  0  0  0  0  0  0  0
    4.0194    0.6642    0.5644 H   0  0  0  0  0  0  0  0  0  0  0  0
    3.4414    1.6351   -0.8272 H   0  0  0  0  0  0  0  0  0  0  0  0
    3.0379    2.1423    0.8549 H   0  0  0  0  0  0  0  0  0  0  0  0
   -2.4664   -0.7675    0.2969 H   0  0  0  0  0  0  0  0  0  0  0  0
   -1.9782    1.9747    0.0395 H   0  0  0  0  0  0  0  0  0  0  0  0
   -2.6342    0.9263   -1.2299 H   0  0  0  0  0  0  0  0  0  0  0  0
   -0.8749    1.2501   -1.1810 H   0  0  0  0  0  0  0  0  0  0  0  0
   -1.4900   -0.4960    2.2944 H   0  0  0  0  0  0  0  0  0  0  0  0
    0.4559   -2.7267   -0.7691 H   0  0  0  0  0  0  0  0  0  0  0  0
   -1.4352   -2.5282   -0.7517 H   0  0  0  0  0  0  0  0  0  0  0  0
  1  2  1  0
  2  3  3  0
  3  4  1  0
  4  5  1  0
  5  6  1  0
  5  7  1  0
  4  8  1  0
  8  9  1  0
  9  4  1  0
  1 10  1  0
  1 11  1  0
  1 12  1  0
  5 13  1  0
  6 14  1  0
  6 15  1  0
  6 16  1  0
  7 17  1  0
  8 18  1  0
  8 19  1  0
M  END
