
     RDKit          3D

 19 20  0  0  0  0  0  0  0  0999 V2000
    4.0205    0.4718    0.1354 C   0  0  0  0  0  0  0  0  0  0  0  0
    2.6153    0.0049    0.0693 C   0  0  0  0  0  0  0  0  0  0  0  0
    1.4729   -0.3577    0.0292 C   0  0  0  0  0  0  0  0  0  0  0  0
    0.0888   -0.8117    0.0012 C   0  0  0  0  0  0  0  0  0  0  0  0
   -0.9313    0.1694    0.4796 C   0  0  0  0  0  0  0  0  0  0  0  0
   -0.5916    0.9476   -0.6207 O   0  0  0  0  0  0  0  0  0  0  0  0
   -0.6671   -0.3154   -1.1886 C   0  0  0  0  0  0  0  0  0  0  0  0
   -1.9260   -0.5037   -0.4052 C   0  0  0  0  0  0  0  0  0  0  0  0
   -3.0937    0.3567   -0.8032 C   0  0  0  0  0  0  0  0  0  0  0  0
    4.6697   -0.2495    0.6485 H   0  0  0  0  0  0  0  0  0  0  0  0
    4.3642    0.6235   -0.8955 H   0  0  0  0  0  0  0  0  0  0  0  0
    4.0752    1.4344    0.7188 H   0  0  0  0  0  0  0  0  0  0  0  0
   -0.0964   -1.8286    0.3418 H   0  0  0  0  0  0  0  0  0  0  0  0
   -1.0697    0.4970    1.4230 H   0  0  0  0  0  0  0  0  0  0  0  0
   -0.5087   -0.5524   -2.1554 H   0  0  0  0  0  0  0  0  0  0  0  0
   -2.2305   -1.5205   -0.1607 H   0  0  0  0  0  0  0  0  0  0  0  0
   -3.5894    0.6805    0.1473 H   0  0  0  0  0  0  0  0  0  0  0  0
   -2.7963    1.2481   -1.3914 H   0  0  0  0  0  0  0  0  0  0  0  0
   -3.8058   -0.2943   -1.3557 H   0  0  0  0  0  0  0  0  0  0  0  0
  1  2  1  0
  2  3  3  0
  3  4  1  0
  4  5  1  0
  5  6  1  0
  6  7  1  0
  7  8  1  0
  8  9  1  0
  7  4  1  0
  8  5  1  0
  1 10  1  0
  1 11  1  0
  1 12  1  0
  4 13  1  0
  5 14  1  0
  7 15  1  0
  8 16  1  0
  9 17  1  0
  9 18  1  0
  9 19  1  0
M  END
