
     RDKit          3D

 19 19  0  0  0  0  0  0  0  0999 V2000
    2.1298   -2.3686    1.0951 C   0  0  0  0  0  0  0  0  0  0  0  0
    1.2699   -1.2193    0.7070 C   0  0  0  0  0  0  0  0  0  0  0  0
    0.5804   -0.2732    0.4040 C   0  0  0  0  0  0  0  0  0  0  0  0
   -0.2706    0.8550    0.0312 C   0  0  0  0  0  0  0  0  0  0  0  0
    0.2021    2.2320    0.4792 C   0  0  0  0  0  0  0  0  0  0  0  0
   -1.7862    0.6471    0.2560 C   0  0  0  0  0  0  0  0  0  0  0  0
   -1.1482    0.6782   -1.1156 C   0  0  0  0  0  0  0  0  0  0  0  0
   -1.0687   -0.5970   -1.8553 C   0  0  0  0  0  0  0  0  0  0  0  0
   -0.6646   -1.5933   -1.2821 O   0  0  0  0  0  0  0  0  0  0  0  0
    2.8516   -2.5210    0.2876 H   0  0  0  0  0  0  0  0  0  0  0  0
    2.6767   -2.1554    2.0300 H   0  0  0  0  0  0  0  0  0  0  0  0
    1.4798   -3.2397    1.3037 H   0  0  0  0  0  0  0  0  0  0  0  0
   -0.3882    3.0379    0.0491 H   0  0  0  0  0  0  0  0  0  0  0  0
    1.2615    2.3161    0.1538 H   0  0  0  0  0  0  0  0  0  0  0  0
    0.2016    2.2018    1.5904 H   0  0  0  0  0  0  0  0  0  0  0  0
   -2.3805    1.4970    0.5964 H   0  0  0  0  0  0  0  0  0  0  0  0
   -2.0598   -0.3292    0.7010 H   0  0  0  0  0  0  0  0  0  0  0  0
   -1.5337    1.5319   -1.7393 H   0  0  0  0  0  0  0  0  0  0  0  0
   -1.3531   -0.7003   -2.8936 H   0  0  0  0  0  0  0  0  0  0  0  0
  1  2  1  0
  2  3  3  0
  3  4  1  0
  4  5  1  0
  4  6  1  0
  6  7  1  0
  7  8  1  0
  8  9  2  0
  7  4  1  0
  1 10  1  0
  1 11  1  0
  1 12  1  0
  5 13  1  0
  5 14  1  0
  5 15  1  0
  6 16  1  0
  6 17  1  0
  7 18  1  0
  8 19  1  0
M  END
