
     RDKit          3D

 19 18  0  0  0  0  0  0  0  0999 V2000
    3.4243   -0.3421    0.0968 C   0  0  0  0  0  0  0  0  0  0  0  0
    1.9499   -0.2326    0.1140 C   0  0  0  0  0  0  0  0  0  0  0  0
    0.7462   -0.1328    0.1400 C   0  0  0  0  0  0  0  0  0  0  0  0
   -0.7176   -0.0182    0.1678 C   0  0  0  0  0  0  0  0  0  0  0  0
   -1.2713   -1.3237   -0.3489 C   0  0  0  0  0  0  0  0  0  0  0  0
   -1.1703    0.1696    1.5700 C   0  0  0  0  0  0  0  0  0  0  0  0
   -1.3491   -0.7451    2.3553 O   0  0  0  0  0  0  0  0  0  0  0  0
   -1.0917    1.1546   -0.6898 C   0  0  0  0  0  0  0  0  0  0  0  0
   -2.4673    1.3612   -0.7384 O   0  0  0  0  0  0  0  0  0  0  0  0
    3.7702   -0.8664    1.0141 H   0  0  0  0  0  0  0  0  0  0  0  0
    3.8138    0.6773    0.1088 H   0  0  0  0  0  0  0  0  0  0  0  0
    3.7927   -0.8418   -0.8036 H   0  0  0  0  0  0  0  0  0  0  0  0
   -2.2440   -1.2242   -0.8460 H   0  0  0  0  0  0  0  0  0  0  0  0
   -1.4176   -1.9878    0.5288 H   0  0  0  0  0  0  0  0  0  0  0  0
   -0.5123   -1.8037   -1.0283 H   0  0  0  0  0  0  0  0  0  0  0  0
   -1.3542    1.1725    1.9231 H   0  0  0  0  0  0  0  0  0  0  0  0
   -0.7482    0.9681   -1.7226 H   0  0  0  0  0  0  0  0  0  0  0  0
   -0.5382    2.0332   -0.3213 H   0  0  0  0  0  0  0  0  0  0  0  0
   -2.6154    1.9821   -1.5196 H   0  0  0  0  0  0  0  0  0  0  0  0
  1  2  1  0
  2  3  3  0
  3  4  1  0
  4  5  1  0
  4  6  1  0
  6  7  2  0
  4  8  1  0
  8  9  1  0
  1 10  1  0
  1 11  1  0
  1 12  1  0
  5 13  1  0
  5 14  1  0
  5 15  1  0
  6 16  1  0
  8 17  1  0
  8 18  1  0
  9 19  1  0
M  END
