
     RDKit          3D

 21 21  0  0  0  0  0  0  0  0999 V2000
    4.2014    0.4719    0.9341 C   0  0  0  0  0  0  0  0  0  0  0  0
    2.8290    0.1174    0.5010 C   0  0  0  0  0  0  0  0  0  0  0  0
    1.7089   -0.1797    0.1673 C   0  0  0  0  0  0  0  0  0  0  0  0
    0.3502   -0.5276   -0.2133 C   0  0  0  0  0  0  0  0  0  0  0  0
   -0.3751    0.6482   -0.7905 C   0  0  0  0  0  0  0  0  0  0  0  0
   -1.5142   -0.0865   -0.0952 C   0  0  0  0  0  0  0  0  0  0  0  0
   -2.6166    0.7854    0.4169 C   0  0  0  0  0  0  0  0  0  0  0  0
   -2.0212   -1.2972   -0.8271 C   0  0  0  0  0  0  0  0  0  0  0  0
   -0.5713   -0.4809    0.8593 O   0  0  0  0  0  0  0  0  0  0  0  0
    4.5390   -0.1837    1.7655 H   0  0  0  0  0  0  0  0  0  0  0  0
    4.9026    0.3919    0.0576 H   0  0  0  0  0  0  0  0  0  0  0  0
    4.2113    1.5168    1.3189 H   0  0  0  0  0  0  0  0  0  0  0  0
    0.2408   -1.4758   -0.7510 H   0  0  0  0  0  0  0  0  0  0  0  0
   -0.4488    0.7127   -1.8740 H   0  0  0  0  0  0  0  0  0  0  0  0
   -0.1554    1.5693   -0.2367 H   0  0  0  0  0  0  0  0  0  0  0  0
   -2.8107    0.4911    1.4890 H   0  0  0  0  0  0  0  0  0  0  0  0
   -3.5467    0.5264   -0.1311 H   0  0  0  0  0  0  0  0  0  0  0  0
   -2.4010    1.8528    0.4133 H   0  0  0  0  0  0  0  0  0  0  0  0
   -3.1358   -1.3656   -0.7204 H   0  0  0  0  0  0  0  0  0  0  0  0
   -1.7423   -1.2275   -1.9033 H   0  0  0  0  0  0  0  0  0  0  0  0
   -1.6441   -2.2594   -0.3802 H   0  0  0  0  0  0  0  0  0  0  0  0
  1  2  1  0
  2  3  3  0
  3  4  1  0
  4  5  1  0
  5  6  1  0
  6  7  1  0
  6  8  1  0
  6  9  1  0
  9  4  1  0
  1 10  1  0
  1 11  1  0
  1 12  1  0
  4 13  1  0
  5 14  1  0
  5 15  1  0
  7 16  1  0
  7 17  1  0
  7 18  1  0
  8 19  1  0
  8 20  1  0
  8 21  1  0
M  END
