
     RDKit          3D

 19 18  0  0  0  0  0  0  0  0999 V2000
    3.1131   -1.1259    0.7970 C   0  0  0  0  0  0  0  0  0  0  0  0
    1.6596   -0.8459    0.4194 C   0  0  0  0  0  0  0  0  0  0  0  0
    0.4395   -0.6334    0.1075 C   0  0  0  0  0  0  0  0  0  0  0  0
   -0.9455   -0.3859   -0.2707 C   0  0  0  0  0  0  0  0  0  0  0  0
   -1.7170   -0.1299    0.9629 C   0  0  0  0  0  0  0  0  0  0  0  0
   -1.4897   -1.3971   -1.0493 O   0  0  0  0  0  0  0  0  0  0  0  0
   -1.0116    0.8619   -1.1845 C   0  0  0  0  0  0  0  0  0  0  0  0
   -0.5308    2.0528   -0.4603 C   0  0  0  0  0  0  0  0  0  0  0  0
    0.6044    2.4721   -0.5384 O   0  0  0  0  0  0  0  0  0  0  0  0
    3.0847   -1.7463    1.7092 H   0  0  0  0  0  0  0  0  0  0  0  0
    3.5876   -1.6741   -0.0198 H   0  0  0  0  0  0  0  0  0  0  0  0
    3.5219   -0.1128    0.9624 H   0  0  0  0  0  0  0  0  0  0  0  0
   -2.2325    0.8693    0.8562 H   0  0  0  0  0  0  0  0  0  0  0  0
   -2.3802   -0.9675    1.2293 H   0  0  0  0  0  0  0  0  0  0  0  0
   -1.0227    0.0124    1.8616 H   0  0  0  0  0  0  0  0  0  0  0  0
   -1.0140   -1.4531   -1.9722 H   0  0  0  0  0  0  0  0  0  0  0  0
   -0.3563    0.7262   -2.0787 H   0  0  0  0  0  0  0  0  0  0  0  0
   -2.0742    0.8852   -1.5293 H   0  0  0  0  0  0  0  0  0  0  0  0
   -1.2363    2.5922    0.1978 H   0  0  0  0  0  0  0  0  0  0  0  0
  1  2  1  0
  2  3  3  0
  3  4  1  0
  4  5  1  0
  4  6  1  0
  4  7  1  0
  7  8  1  0
  8  9  2  0
  1 10  1  0
  1 11  1  0
  1 12  1  0
  5 13  1  0
  5 14  1  0
  5 15  1  0
  6 16  1  0
  7 17  1  0
  7 18  1  0
  8 19  1  0
M  END
