
     RDKit          3D

 17 17  0  0  0  0  0  0  0  0999 V2000
    3.6707    0.5540   -0.8571 C   0  0  0  0  0  0  0  0  0  0  0  0
    2.2502    0.3861   -0.5167 C   0  0  0  0  0  0  0  0  0  0  0  0
    1.0817    0.2680   -0.2366 C   0  0  0  0  0  0  0  0  0  0  0  0
   -0.3221    0.1010    0.0997 C   0  0  0  0  0  0  0  0  0  0  0  0
   -1.2687    0.9455   -0.2677 C   0  0  0  0  0  0  0  0  0  0  0  0
   -2.5702    0.4878    0.2318 C   0  0  0  0  0  0  0  0  0  0  0  0
   -3.6246    1.1435    0.4173 O   0  0  0  0  0  0  0  0  0  0  0  0
   -2.3556   -0.9824    0.4794 C   0  0  0  0  0  0  0  0  0  0  0  0
   -0.9176   -0.9954    0.8823 C   0  0  0  0  0  0  0  0  0  0  0  0
    3.8767    0.1974   -1.8967 H   0  0  0  0  0  0  0  0  0  0  0  0
    3.9794    1.6131   -0.8295 H   0  0  0  0  0  0  0  0  0  0  0  0
    4.2591    0.0163   -0.1039 H   0  0  0  0  0  0  0  0  0  0  0  0
   -1.1930    1.8699   -0.8535 H   0  0  0  0  0  0  0  0  0  0  0  0
   -2.5333   -1.4958   -0.4643 H   0  0  0  0  0  0  0  0  0  0  0  0
   -3.0208   -1.3359    1.3118 H   0  0  0  0  0  0  0  0  0  0  0  0
   -0.5005   -1.9926    0.6412 H   0  0  0  0  0  0  0  0  0  0  0  0
   -0.8114   -0.7805    1.9626 H   0  0  0  0  0  0  0  0  0  0  0  0
  1  2  1  0
  2  3  3  0
  3  4  1  0
  4  5  2  0
  5  6  1  0
  6  7  2  0
  6  8  1  0
  8  9  1  0
  9  4  1  0
  1 10  1  0
  1 11  1  0
  1 12  1  0
  5 13  1  0
  8 14  1  0
  8 15  1  0
  9 16  1  0
  9 17  1  0
M  END
