
     RDKit          3D

 22 21  0  0  0  0  0  0  0  0999 V2000
    2.6114   -0.9692    3.1388 C   0  0  0  0  0  0  0  0  0  0  0  0
    1.6063   -0.3965    2.2396 C   0  0  0  0  0  0  0  0  0  0  0  0
    0.7786    0.0788    1.4710 C   0  0  0  0  0  0  0  0  0  0  0  0
   -0.2267    0.6503    0.5720 C   0  0  0  0  0  0  0  0  0  0  0  0
    0.3968    1.8532   -0.0854 C   0  0  0  0  0  0  0  0  0  0  0  0
   -0.5893   -0.3975   -0.4858 C   0  0  0  0  0  0  0  0  0  0  0  0
   -1.6155    0.1329   -1.4347 C   0  0  0  0  0  0  0  0  0  0  0  0
   -1.9189   -0.9558   -2.4435 C   0  0  0  0  0  0  0  0  0  0  0  0
    2.1191   -1.5664    3.9603 H   0  0  0  0  0  0  0  0  0  0  0  0
    3.1767   -0.1629    3.6813 H   0  0  0  0  0  0  0  0  0  0  0  0
    3.2868   -1.5837    2.5405 H   0  0  0  0  0  0  0  0  0  0  0  0
   -1.1206    0.9613    1.1124 H   0  0  0  0  0  0  0  0  0  0  0  0
   -0.3782    2.4304   -0.6342 H   0  0  0  0  0  0  0  0  0  0  0  0
    1.2845    1.6165   -0.6890 H   0  0  0  0  0  0  0  0  0  0  0  0
    0.7430    2.5208    0.7486 H   0  0  0  0  0  0  0  0  0  0  0  0
    0.3517   -0.7089   -0.9739 H   0  0  0  0  0  0  0  0  0  0  0  0
   -0.9962   -1.2622    0.0884 H   0  0  0  0  0  0  0  0  0  0  0  0
   -1.1878    1.0291   -1.9272 H   0  0  0  0  0  0  0  0  0  0  0  0
   -2.5107    0.4097   -0.8423 H   0  0  0  0  0  0  0  0  0  0  0  0
   -2.8956   -0.8182   -2.9192 H   0  0  0  0  0  0  0  0  0  0  0  0
   -1.0788   -0.9344   -3.1850 H   0  0  0  0  0  0  0  0  0  0  0  0
   -1.8367   -1.9269   -1.9032 H   0  0  0  0  0  0  0  0  0  0  0  0
  1  2  1  0
  2  3  3  0
  3  4  1  0
  4  5  1  0
  4  6  1  0
  6  7  1  0
  7  8  1  0
  1  9  1  0
  1 10  1  0
  1 11  1  0
  4 12  1  0
  5 13  1  0
  5 14  1  0
  5 15  1  0
  6 16  1  0
  6 17  1  0
  7 18  1  0
  7 19  1  0
  8 20  1  0
  8 21  1  0
  8 22  1  0
M  END
