
     RDKit          3D

 19 18  0  0  0  0  0  0  0  0999 V2000
    4.0561    0.9300    1.7245 C   0  0  0  0  0  0  0  0  0  0  0  0
    2.8495    0.1624    1.3607 C   0  0  0  0  0  0  0  0  0  0  0  0
    1.8387   -0.4589    1.0479 C   0  0  0  0  0  0  0  0  0  0  0  0
    0.6390   -1.1985    0.6499 C   0  0  0  0  0  0  0  0  0  0  0  0
   -0.2900   -0.2580   -0.0230 C   0  0  0  0  0  0  0  0  0  0  0  0
    0.0243    0.9523   -0.0700 O   0  0  0  0  0  0  0  0  0  0  0  0
   -1.4787   -0.6951   -0.5894 O   0  0  0  0  0  0  0  0  0  0  0  0
   -2.2945    0.2829   -1.2099 C   0  0  0  0  0  0  0  0  0  0  0  0
   -3.5491   -0.2488   -1.8061 C   0  0  0  0  0  0  0  0  0  0  0  0
    4.2816    1.6467    0.9333 H   0  0  0  0  0  0  0  0  0  0  0  0
    4.9087    0.2474    1.9530 H   0  0  0  0  0  0  0  0  0  0  0  0
    3.8694    1.5016    2.6657 H   0  0  0  0  0  0  0  0  0  0  0  0
    0.0953   -1.5787    1.5557 H   0  0  0  0  0  0  0  0  0  0  0  0
    0.9400   -1.9928   -0.0480 H   0  0  0  0  0  0  0  0  0  0  0  0
   -1.7057    0.7985   -1.9691 H   0  0  0  0  0  0  0  0  0  0  0  0
   -2.5386    1.0218   -0.4015 H   0  0  0  0  0  0  0  0  0  0  0  0
   -4.4490   -0.1356   -1.1688 H   0  0  0  0  0  0  0  0  0  0  0  0
   -3.7616    0.3307   -2.7521 H   0  0  0  0  0  0  0  0  0  0  0  0
   -3.4355   -1.3081   -2.1505 H   0  0  0  0  0  0  0  0  0  0  0  0
  1  2  1  0
  2  3  3  0
  3  4  1  0
  4  5  1  0
  5  6  2  0
  5  7  1  0
  7  8  1  0
  8  9  1  0
  1 10  1  0
  1 11  1  0
  1 12  1  0
  4 13  1  0
  4 14  1  0
  8 15  1  0
  8 16  1  0
  9 17  1  0
  9 18  1  0
  9 19  1  0
M  END
