
     RDKit          3D

 19 19  0  0  0  0  0  0  0  0999 V2000
    3.3520   -0.8288    1.3959 C   0  0  0  0  0  0  0  0  0  0  0  0
    2.0974   -0.1739    0.4156 C   0  0  0  0  0  0  0  0  0  0  0  0
    0.9950    0.4175   -0.4781 C   0  0  0  0  0  0  0  0  0  0  0  0
   -0.0973    1.0085   -1.3871 C   0  0  0  0  0  0  0  0  0  0  0  0
   -0.6380    1.7600   -0.1809 O   0  0  0  0  0  0  0  0  0  0  0  0
   -1.0894    0.7796    0.7559 C   0  0  0  0  0  0  0  0  0  0  0  0
   -1.2366   -0.1111   -0.3228 C   0  0  0  0  0  0  0  0  0  0  0  0
   -2.4424   -0.1242   -1.1909 C   0  0  0  0  0  0  0  0  0  0  0  0
   -0.4377   -1.2733   -0.2933 O   0  0  0  0  0  0  0  0  0  0  0  0
    3.1361   -0.1572    2.0886 H   0  0  0  0  0  0  0  0  0  0  0  0
    3.3213   -1.6886    0.6810 H   0  0  0  0  0  0  0  0  0  0  0  0
    4.1048   -0.0854    0.7267 H   0  0  0  0  0  0  0  0  0  0  0  0
   -0.2080    0.2817   -2.0585 H   0  0  0  0  0  0  0  0  0  0  0  0
   -2.1103    1.2848    1.0994 H   0  0  0  0  0  0  0  0  0  0  0  0
   -0.4668    0.4846    1.6096 H   0  0  0  0  0  0  0  0  0  0  0  0
   -2.8439   -1.1369   -1.2481 H   0  0  0  0  0  0  0  0  0  0  0  0
   -3.1940    0.6393   -0.7752 H   0  0  0  0  0  0  0  0  0  0  0  0
   -2.1946    0.2154   -2.2540 H   0  0  0  0  0  0  0  0  0  0  0  0
   -0.0477   -1.2920    0.6767 H   0  0  0  0  0  0  0  0  0  0  0  0
  1  2  1  0
  2  3  3  0
  3  4  1  0
  4  5  1  0
  5  6  1  0
  6  7  1  0
  7  8  1  0
  7  9  1  0
  7  4  1  0
  1 10  1  0
  1 11  1  0
  1 12  1  0
  4 13  1  0
  6 14  1  0
  6 15  1  0
  8 16  1  0
  8 17  1  0
  8 18  1  0
  9 19  1  0
M  END
