
     RDKit          3D

 15 14  0  0  0  0  0  0  0  0999 V2000
    3.1091    0.6864    0.3268 C   0  0  0  0  0  0  0  0  0  0  0  0
    1.6473    0.7416    0.2593 C   0  0  0  0  0  0  0  0  0  0  0  0
    0.4362    0.7664    0.2004 C   0  0  0  0  0  0  0  0  0  0  0  0
   -0.9977    0.7965    0.1056 C   0  0  0  0  0  0  0  0  0  0  0  0
   -1.7058    1.7113    0.5995 O   0  0  0  0  0  0  0  0  0  0  0  0
   -1.6577   -0.3191   -0.6167 C   0  0  0  0  0  0  0  0  0  0  0  0
   -3.0416   -0.1679   -0.6352 O   0  0  0  0  0  0  0  0  0  0  0  0
   -1.2976   -1.6218    0.0235 C   0  0  0  0  0  0  0  0  0  0  0  0
   -0.1289   -1.9129    0.1217 O   0  0  0  0  0  0  0  0  0  0  0  0
    3.5565    1.6491    0.5848 H   0  0  0  0  0  0  0  0  0  0  0  0
    3.4643    0.4283   -0.7016 H   0  0  0  0  0  0  0  0  0  0  0  0
    3.3932   -0.1453    1.0135 H   0  0  0  0  0  0  0  0  0  0  0  0
   -1.3275   -0.3140   -1.6761 H   0  0  0  0  0  0  0  0  0  0  0  0
   -3.4220    0.0044    0.2632 H   0  0  0  0  0  0  0  0  0  0  0  0
   -2.0279   -2.3029    0.3960 H   0  0  0  0  0  0  0  0  0  0  0  0
  1  2  1  0
  2  3  3  0
  3  4  1  0
  4  5  2  0
  4  6  1  0
  6  7  1  0
  6  8  1  0
  8  9  2  0
  1 10  1  0
  1 11  1  0
  1 12  1  0
  6 13  1  0
  7 14  1  0
  8 15  1  0
M  END
