
     RDKit          3D

 17 18  0  0  0  0  0  0  0  0999 V2000
    3.5884   -0.1702    0.1376 C   0  0  0  0  0  0  0  0  0  0  0  0
    2.1088   -0.1739    0.0917 C   0  0  0  0  0  0  0  0  0  0  0  0
    0.9051   -0.1911    0.0658 C   0  0  0  0  0  0  0  0  0  0  0  0
   -0.4928   -0.1950    0.0398 C   0  0  0  0  0  0  0  0  0  0  0  0
   -1.2508   -0.0106    1.3082 C   0  0  0  0  0  0  0  0  0  0  0  0
   -2.5234   -0.0890    0.8424 C   0  0  0  0  0  0  0  0  0  0  0  0
   -2.2551   -0.3048   -0.6132 C   0  0  0  0  0  0  0  0  0  0  0  0
   -1.2193    0.7518   -0.8942 C   0  0  0  0  0  0  0  0  0  0  0  0
   -1.1715   -1.2150   -0.6079 O   0  0  0  0  0  0  0  0  0  0  0  0
    4.0005    0.8076   -0.2047 H   0  0  0  0  0  0  0  0  0  0  0  0
    4.0090   -0.9263   -0.5687 H   0  0  0  0  0  0  0  0  0  0  0  0
    3.9654   -0.4561    1.1400 H   0  0  0  0  0  0  0  0  0  0  0  0
   -0.9101    0.1440    2.3260 H   0  0  0  0  0  0  0  0  0  0  0  0
   -3.4570   -0.0144    1.3846 H   0  0  0  0  0  0  0  0  0  0  0  0
   -3.0546   -0.4704   -1.2779 H   0  0  0  0  0  0  0  0  0  0  0  0
   -0.8288    0.7703   -1.9276 H   0  0  0  0  0  0  0  0  0  0  0  0
   -1.4137    1.7432   -0.4751 H   0  0  0  0  0  0  0  0  0  0  0  0
  1  2  1  0
  2  3  3  0
  3  4  1  0
  4  5  1  0
  5  6  2  0
  6  7  1  0
  7  8  1  0
  7  9  1  0
  8  4  1  0
  9  4  1  0
  1 10  1  0
  1 11  1  0
  1 12  1  0
  5 13  1  0
  6 14  1  0
  7 15  1  0
  8 16  1  0
  8 17  1  0
M  END
