
     RDKit          3D

 19 18  0  0  0  0  0  0  0  0999 V2000
    3.4041    1.4578    2.4977 C   0  0  0  0  0  0  0  0  0  0  0  0
    2.1579    1.0707    1.9519 C   0  0  0  0  0  0  0  0  0  0  0  0
    0.7989    0.6655    1.3803 C   0  0  0  0  0  0  0  0  0  0  0  0
   -0.3583    0.3054    0.9058 C   0  0  0  0  0  0  0  0  0  0  0  0
    0.3496    1.4626   -0.3056 O   0  0  0  0  0  0  0  0  0  0  0  0
   -1.3942    0.3807   -0.2547 C   0  0  0  0  0  0  0  0  0  0  0  0
   -1.4643   -1.1013   -0.5135 C   0  0  0  0  0  0  0  0  0  0  0  0
   -2.2226   -1.6416   -1.6174 C   0  0  0  0  0  0  0  0  0  0  0  0
   -0.1170   -1.5599   -0.5217 O   0  0  0  0  0  0  0  0  0  0  0  0
    3.3993    2.6547    2.4144 H   0  0  0  0  0  0  0  0  0  0  0  0
    3.5656    1.1481    3.4128 H   0  0  0  0  0  0  0  0  0  0  0  0
    4.0961    1.2217    1.5849 H   0  0  0  0  0  0  0  0  0  0  0  0
   -2.2559    0.7853    0.3798 H   0  0  0  0  0  0  0  0  0  0  0  0
   -1.1709    1.0460   -1.0521 H   0  0  0  0  0  0  0  0  0  0  0  0
   -1.9447   -1.5400    0.4768 H   0  0  0  0  0  0  0  0  0  0  0  0
   -1.5451   -2.0252   -2.4362 H   0  0  0  0  0  0  0  0  0  0  0  0
   -2.9291   -0.8425   -2.0243 H   0  0  0  0  0  0  0  0  0  0  0  0
   -2.8119   -2.5518   -1.3388 H   0  0  0  0  0  0  0  0  0  0  0  0
    0.4426   -0.9361   -1.0601 H   0  0  0  0  0  0  0  0  0  0  0  0
  1  2  1  0
  2  3  3  0
  3  4  1  0
  4  5  2  0
  4  6  1  0
  6  7  1  0
  7  8  1  0
  7  9  1  0
  1 10  1  0
  1 11  1  0
  1 12  1  0
  6 13  1  0
  6 14  1  0
  7 15  1  0
  8 16  1  0
  8 17  1  0
  8 18  1  0
  9 19  1  0
M  END
