
     RDKit          3D

 21 21  0  0  0  0  0  0  0  0999 V2000
    2.7115    1.1772    2.2045 C   0  0  0  0  0  0  0  0  0  0  0  0
    1.7001    1.0026    1.1642 C   0  0  0  0  0  0  0  0  0  0  0  0
    0.8640    0.8370    0.2960 C   0  0  0  0  0  0  0  0  0  0  0  0
   -0.1292    0.6187   -0.7598 C   0  0  0  0  0  0  0  0  0  0  0  0
    0.3932   -0.2061   -1.8894 C   0  0  0  0  0  0  0  0  0  0  0  0
    0.0869   -1.3580   -1.1669 O   0  0  0  0  0  0  0  0  0  0  0  0
   -0.9192   -0.6270   -0.5208 C   0  0  0  0  0  0  0  0  0  0  0  0
   -1.0644   -0.9851    0.9474 C   0  0  0  0  0  0  0  0  0  0  0  0
   -2.2181   -0.7191   -1.2943 C   0  0  0  0  0  0  0  0  0  0  0  0
    2.7093    0.3525    2.9368 H   0  0  0  0  0  0  0  0  0  0  0  0
    3.7007    1.2376    1.6988 H   0  0  0  0  0  0  0  0  0  0  0  0
    2.4620    2.1562    2.7086 H   0  0  0  0  0  0  0  0  0  0  0  0
   -0.6813    1.5249   -1.0174 H   0  0  0  0  0  0  0  0  0  0  0  0
    1.5078   -0.1032   -1.9474 H   0  0  0  0  0  0  0  0  0  0  0  0
   -0.1035   -0.1074   -2.8559 H   0  0  0  0  0  0  0  0  0  0  0  0
   -2.1257   -1.1735    1.2056 H   0  0  0  0  0  0  0  0  0  0  0  0
   -0.7445   -0.0980    1.5297 H   0  0  0  0  0  0  0  0  0  0  0  0
   -0.4367   -1.8651    1.1394 H   0  0  0  0  0  0  0  0  0  0  0  0
   -2.9583   -1.2182   -0.6342 H   0  0  0  0  0  0  0  0  0  0  0  0
   -2.1301   -1.3445   -2.2047 H   0  0  0  0  0  0  0  0  0  0  0  0
   -2.6244    0.2874   -1.5403 H   0  0  0  0  0  0  0  0  0  0  0  0
  1  2  1  0
  2  3  3  0
  3  4  1  0
  4  5  1  0
  5  6  1  0
  6  7  1  0
  7  8  1  0
  7  9  1  0
  7  4  1  0
  1 10  1  0
  1 11  1  0
  1 12  1  0
  4 13  1  0
  5 14  1  0
  5 15  1  0
  8 16  1  0
  8 17  1  0
  8 18  1  0
  9 19  1  0
  9 20  1  0
  9 21  1  0
M  END
