
     RDKit          3D

 19 19  0  0  0  0  0  0  0  0999 V2000
    3.5661   -1.4608    0.4650 C   0  0  0  0  0  0  0  0  0  0  0  0
    2.1649   -1.1523    0.1378 C   0  0  0  0  0  0  0  0  0  0  0  0
    1.0177   -0.8809   -0.1203 C   0  0  0  0  0  0  0  0  0  0  0  0
   -0.3895   -0.5291   -0.4334 C   0  0  0  0  0  0  0  0  0  0  0  0
   -0.9253    0.3745    0.6743 C   0  0  0  0  0  0  0  0  0  0  0  0
   -2.2794    0.8538    0.2712 C   0  0  0  0  0  0  0  0  0  0  0  0
   -2.4202    1.1799   -0.9915 C   0  0  0  0  0  0  0  0  0  0  0  0
   -1.2701    1.0596   -1.9140 C   0  0  0  0  0  0  0  0  0  0  0  0
   -0.3961    0.0495   -1.6631 O   0  0  0  0  0  0  0  0  0  0  0  0
    3.7433   -2.5516    0.2807 H   0  0  0  0  0  0  0  0  0  0  0  0
    4.2198   -0.8425   -0.2144 H   0  0  0  0  0  0  0  0  0  0  0  0
    3.8281   -1.2560    1.4990 H   0  0  0  0  0  0  0  0  0  0  0  0
   -0.9664   -1.4845   -0.3900 H   0  0  0  0  0  0  0  0  0  0  0  0
   -0.9361   -0.1340    1.6383 H   0  0  0  0  0  0  0  0  0  0  0  0
   -0.2487    1.2508    0.7261 H   0  0  0  0  0  0  0  0  0  0  0  0
   -3.0459    0.9029    1.0255 H   0  0  0  0  0  0  0  0  0  0  0  0
   -3.3632    1.5351   -1.3682 H   0  0  0  0  0  0  0  0  0  0  0  0
   -0.6810    2.0236   -1.8154 H   0  0  0  0  0  0  0  0  0  0  0  0
   -1.6181    1.0622   -2.9935 H   0  0  0  0  0  0  0  0  0  0  0  0
  1  2  1  0
  2  3  3  0
  3  4  1  0
  4  5  1  0
  5  6  1  0
  6  7  2  0
  7  8  1  0
  8  9  1  0
  9  4  1  0
  1 10  1  0
  1 11  1  0
  1 12  1  0
  4 13  1  0
  5 14  1  0
  5 15  1  0
  6 16  1  0
  7 17  1  0
  8 18  1  0
  8 19  1  0
M  END
