
     RDKit          3D

 19 19  0  0  0  0  0  0  0  0999 V2000
    3.2222    1.0139   -0.3736 C   0  0  0  0  0  0  0  0  0  0  0  0
    1.8744    0.4806   -0.1055 C   0  0  0  0  0  0  0  0  0  0  0  0
    0.7618    0.0620    0.1076 C   0  0  0  0  0  0  0  0  0  0  0  0
   -0.6099   -0.4271    0.3642 C   0  0  0  0  0  0  0  0  0  0  0  0
   -0.7908   -1.1205    1.6831 C   0  0  0  0  0  0  0  0  0  0  0  0
   -1.5845    0.6865    0.0704 C   0  0  0  0  0  0  0  0  0  0  0  0
   -1.5257    0.1989   -1.3778 C   0  0  0  0  0  0  0  0  0  0  0  0
   -1.2000   -1.1618   -0.8065 C   0  0  0  0  0  0  0  0  0  0  0  0
   -1.3622   -2.3028   -1.1680 O   0  0  0  0  0  0  0  0  0  0  0  0
    3.2762    2.0740   -0.0945 H   0  0  0  0  0  0  0  0  0  0  0  0
    3.9285    0.3615    0.1665 H   0  0  0  0  0  0  0  0  0  0  0  0
    3.4588    0.9612   -1.4689 H   0  0  0  0  0  0  0  0  0  0  0  0
    0.1917   -1.5291    1.9823 H   0  0  0  0  0  0  0  0  0  0  0  0
   -1.5779   -1.8950    1.5962 H   0  0  0  0  0  0  0  0  0  0  0  0
   -1.0877   -0.3373    2.4262 H   0  0  0  0  0  0  0  0  0  0  0  0
   -2.5786    0.4200    0.4882 H   0  0  0  0  0  0  0  0  0  0  0  0
   -1.2366    1.6998    0.2395 H   0  0  0  0  0  0  0  0  0  0  0  0
   -2.4816    0.1556   -1.8969 H   0  0  0  0  0  0  0  0  0  0  0  0
   -0.6781    0.6598   -1.9325 H   0  0  0  0  0  0  0  0  0  0  0  0
  1  2  1  0
  2  3  3  0
  3  4  1  0
  4  5  1  0
  4  6  1  0
  6  7  1  0
  7  8  1  0
  8  9  2  0
  8  4  1  0
  1 10  1  0
  1 11  1  0
  1 12  1  0
  5 13  1  0
  5 14  1  0
  5 15  1  0
  6 16  1  0
  6 17  1  0
  7 18  1  0
  7 19  1  0
M  END
