
     RDKit          3D

 23 23  0  0  0  0  0  0  0  0999 V2000
    3.9785    0.4199    0.6464 C   0  0  0  0  0  0  0  0  0  0  0  0
    2.6796   -0.3086    0.4698 C   0  0  0  0  0  0  0  0  0  0  0  0
    1.6251   -0.8813    0.3405 C   0  0  0  0  0  0  0  0  0  0  0  0
    0.3551   -1.5568    0.1647 C   0  0  0  0  0  0  0  0  0  0  0  0
   -0.6788   -0.9291    1.1007 C   0  0  0  0  0  0  0  0  0  0  0  0
   -0.8838    0.1061    0.0034 C   0  0  0  0  0  0  0  0  0  0  0  0
   -2.2809    0.5321   -0.2587 C   0  0  0  0  0  0  0  0  0  0  0  0
   -2.2553    1.5551   -1.3862 C   0  0  0  0  0  0  0  0  0  0  0  0
   -0.4205   -0.9239   -1.0268 C   0  0  0  0  0  0  0  0  0  0  0  0
    4.7445   -0.3519    0.5610 H   0  0  0  0  0  0  0  0  0  0  0  0
    4.0018    0.9390    1.6214 H   0  0  0  0  0  0  0  0  0  0  0  0
    4.0510    1.2104   -0.1476 H   0  0  0  0  0  0  0  0  0  0  0  0
    0.3469   -2.6441    0.1008 H   0  0  0  0  0  0  0  0  0  0  0  0
   -1.5176   -1.6275    1.2534 H   0  0  0  0  0  0  0  0  0  0  0  0
   -0.2652   -0.5480    2.0413 H   0  0  0  0  0  0  0  0  0  0  0  0
   -0.1591    0.9331    0.1379 H   0  0  0  0  0  0  0  0  0  0  0  0
   -2.9766   -0.2806   -0.5367 H   0  0  0  0  0  0  0  0  0  0  0  0
   -2.6915    0.9901    0.6796 H   0  0  0  0  0  0  0  0  0  0  0  0
   -1.3904    1.3523   -2.0561 H   0  0  0  0  0  0  0  0  0  0  0  0
   -3.1684    1.5109   -1.9894 H   0  0  0  0  0  0  0  0  0  0  0  0
   -2.1768    2.5431   -0.8698 H   0  0  0  0  0  0  0  0  0  0  0  0
    0.2830   -0.4746   -1.7574 H   0  0  0  0  0  0  0  0  0  0  0  0
   -1.2009   -1.5656   -1.4314 H   0  0  0  0  0  0  0  0  0  0  0  0
  1  2  1  0
  2  3  3  0
  3  4  1  0
  4  5  1  0
  5  6  1  0
  6  7  1  0
  7  8  1  0
  6  9  1  0
  9  4  1  0
  1 10  1  0
  1 11  1  0
  1 12  1  0
  4 13  1  0
  5 14  1  0
  5 15  1  0
  6 16  1  0
  7 17  1  0
  7 18  1  0
  8 19  1  0
  8 20  1  0
  8 21  1  0
  9 22  1  0
  9 23  1  0
M  END
