
     RDKit          3D

 15 14  0  0  0  0  0  0  0  0999 V2000
    3.5367   -1.7140   -1.0349 C   0  0  0  0  0  0  0  0  0  0  0  0
    2.1721   -0.8094   -0.5996 C   0  0  0  0  0  0  0  0  0  0  0  0
    1.3747   -0.3002   -0.3487 C   0  0  0  0  0  0  0  0  0  0  0  0
    0.4489    0.3145   -0.0511 C   0  0  0  0  0  0  0  0  0  0  0  0
   -0.8208    1.1890    0.3720 C   0  0  0  0  0  0  0  0  0  0  0  0
   -1.8012    1.8550    0.7105 C   0  0  0  0  0  0  0  0  0  0  0  0
   -3.0991    1.1681    0.6107 O   0  0  0  0  0  0  0  0  0  0  0  0
   -3.0759   -0.1199    1.1079 C   0  0  0  0  0  0  0  0  0  0  0  0
   -2.0090   -0.5975    1.5779 O   0  0  0  0  0  0  0  0  0  0  0  0
    4.2128   -1.3480   -0.2412 H   0  0  0  0  0  0  0  0  0  0  0  0
    3.1545   -2.6805   -0.8711 H   0  0  0  0  0  0  0  0  0  0  0  0
    3.6431   -1.2745   -2.0508 H   0  0  0  0  0  0  0  0  0  0  0  0
   -2.0271    2.7984   -0.0139 H   0  0  0  0  0  0  0  0  0  0  0  0
   -1.7410    2.3044    1.7417 H   0  0  0  0  0  0  0  0  0  0  0  0
   -3.9686   -0.7854    1.1287 H   0  0  0  0  0  0  0  0  0  0  0  0
  1  2  1  0
  2  3  3  0
  3  4  1  0
  4  5  3  0
  5  6  1  0
  6  7  1  0
  7  8  1  0
  8  9  2  0
  1 10  1  0
  1 11  1  0
  1 12  1  0
  6 13  1  0
  6 14  1  0
  8 15  1  0
M  END
