
     RDKit          3D

 19 20  0  0  0  0  0  0  0  0999 V2000
    3.5049    0.2453    0.5784 C   0  0  0  0  0  0  0  0  0  0  0  0
    2.0890    0.1932    0.1714 C   0  0  0  0  0  0  0  0  0  0  0  0
    0.9245    0.1647   -0.1471 C   0  0  0  0  0  0  0  0  0  0  0  0
   -0.4857    0.1092   -0.5355 C   0  0  0  0  0  0  0  0  0  0  0  0
   -1.1953    1.3657   -0.8447 C   0  0  0  0  0  0  0  0  0  0  0  0
   -1.5064    0.7290    0.4468 C   0  0  0  0  0  0  0  0  0  0  0  0
   -2.3670   -0.5235    0.3581 C   0  0  0  0  0  0  0  0  0  0  0  0
   -1.1778   -1.1921   -0.3378 C   0  0  0  0  0  0  0  0  0  0  0  0
   -0.4731   -2.0057    0.5786 O   0  0  0  0  0  0  0  0  0  0  0  0
    3.7145   -0.6998    1.1136 H   0  0  0  0  0  0  0  0  0  0  0  0
    3.7079    1.0985    1.2529 H   0  0  0  0  0  0  0  0  0  0  0  0
    4.1662    0.3570   -0.3295 H   0  0  0  0  0  0  0  0  0  0  0  0
   -0.5923    2.2717   -0.8990 H   0  0  0  0  0  0  0  0  0  0  0  0
   -2.0016    1.3200   -1.6139 H   0  0  0  0  0  0  0  0  0  0  0  0
   -1.0976    1.0475    1.4054 H   0  0  0  0  0  0  0  0  0  0  0  0
   -3.1912   -0.3160   -0.3761 H   0  0  0  0  0  0  0  0  0  0  0  0
   -2.6650   -0.9681    1.3043 H   0  0  0  0  0  0  0  0  0  0  0  0
   -1.4420   -1.7835   -1.2148 H   0  0  0  0  0  0  0  0  0  0  0  0
    0.0877   -1.4131    1.1567 H   0  0  0  0  0  0  0  0  0  0  0  0
  1  2  1  0
  2  3  3  0
  3  4  1  0
  4  5  1  0
  5  6  1  0
  6  7  1  0
  7  8  1  0
  8  9  1  0
  6  4  1  0
  8  4  1  0
  1 10  1  0
  1 11  1  0
  1 12  1  0
  5 13  1  0
  5 14  1  0
  6 15  1  0
  7 16  1  0
  7 17  1  0
  8 18  1  0
  9 19  1  0
M  END
