
     RDKit          3D

 20 20  0  0  0  0  0  0  0  0999 V2000
    3.7345    0.7806    1.1240 C   0  0  0  0  0  0  0  0  0  0  0  0
    2.5727    0.0653    0.5550 C   0  0  0  0  0  0  0  0  0  0  0  0
    1.6299   -0.5104    0.0720 C   0  0  0  0  0  0  0  0  0  0  0  0
    0.4686   -1.1907   -0.5092 C   0  0  0  0  0  0  0  0  0  0  0  0
   -0.8008   -0.6719    0.1720 C   0  0  0  0  0  0  0  0  0  0  0  0
   -2.0908   -1.2198   -0.2570 C   0  0  0  0  0  0  0  0  0  0  0  0
   -1.6945    0.1260   -0.7575 C   0  0  0  0  0  0  0  0  0  0  0  0
   -2.3150    1.3710   -0.1974 C   0  0  0  0  0  0  0  0  0  0  0  0
    4.3875    0.0966    1.6779 H   0  0  0  0  0  0  0  0  0  0  0  0
    3.3977    1.5767    1.8352 H   0  0  0  0  0  0  0  0  0  0  0  0
    4.2531    1.2645    0.2762 H   0  0  0  0  0  0  0  0  0  0  0  0
    0.4720   -0.9705   -1.5912 H   0  0  0  0  0  0  0  0  0  0  0  0
    0.5330   -2.2986   -0.3093 H   0  0  0  0  0  0  0  0  0  0  0  0
   -0.6547   -0.3213    1.2059 H   0  0  0  0  0  0  0  0  0  0  0  0
   -2.1586   -2.0915   -0.9553 H   0  0  0  0  0  0  0  0  0  0  0  0
   -2.8862   -1.2898    0.5356 H   0  0  0  0  0  0  0  0  0  0  0  0
   -1.4438    0.1541   -1.8444 H   0  0  0  0  0  0  0  0  0  0  0  0
   -2.8476    1.8981   -1.0121 H   0  0  0  0  0  0  0  0  0  0  0  0
   -1.5494    2.0846    0.1798 H   0  0  0  0  0  0  0  0  0  0  0  0
   -3.0076    1.1471    0.6193 H   0  0  0  0  0  0  0  0  0  0  0  0
  1  2  1  0
  2  3  3  0
  3  4  1  0
  4  5  1  0
  5  6  1  0
  6  7  1  0
  7  8  1  0
  7  5  1  0
  1  9  1  0
  1 10  1  0
  1 11  1  0
  4 12  1  0
  4 13  1  0
  5 14  1  0
  6 15  1  0
  6 16  1  0
  7 17  1  0
  8 18  1  0
  8 19  1  0
  8 20  1  0
M  END
