
     RDKit          3D

 21 22  0  0  0  0  0  0  0  0999 V2000
    3.6645    0.2425   -1.3934 C   0  0  0  0  0  0  0  0  0  0  0  0
    2.3797    0.2015   -0.9148 C   0  0  0  0  0  0  0  0  0  0  0  0
    1.0357    0.1589   -0.3871 C   0  0  0  0  0  0  0  0  0  0  0  0
   -0.1295    0.1033    0.0759 C   0  0  0  0  0  0  0  0  0  0  0  0
   -0.4480    0.3181    1.5636 C   0  0  0  0  0  0  0  0  0  0  0  0
   -1.9110   -0.0775    1.5571 C   0  0  0  0  0  0  0  0  0  0  0  0
   -2.0856   -0.3840    0.0980 C   0  0  0  0  0  0  0  0  0  0  0  0
   -0.8958   -1.2561   -0.1848 C   0  0  0  0  0  0  0  0  0  0  0  0
   -1.3445    0.7610   -0.5311 C   0  0  0  0  0  0  0  0  0  0  0  0
    3.7961   -0.3336   -2.3439 H   0  0  0  0  0  0  0  0  0  0  0  0
    3.9703    1.3410   -1.6249 H   0  0  0  0  0  0  0  0  0  0  0  0
    4.4136   -0.0572   -0.6368 H   0  0  0  0  0  0  0  0  0  0  0  0
   -0.2909    1.3602    1.8290 H   0  0  0  0  0  0  0  0  0  0  0  0
    0.0913   -0.3937    2.2506 H   0  0  0  0  0  0  0  0  0  0  0  0
   -2.5605    0.7497    1.8424 H   0  0  0  0  0  0  0  0  0  0  0  0
   -2.0822   -0.9856    2.1952 H   0  0  0  0  0  0  0  0  0  0  0  0
   -3.0400   -0.7130   -0.2995 H   0  0  0  0  0  0  0  0  0  0  0  0
   -0.7409   -2.0078    0.6473 H   0  0  0  0  0  0  0  0  0  0  0  0
   -0.7865   -1.6081   -1.1932 H   0  0  0  0  0  0  0  0  0  0  0  0
   -1.6207    1.6876    0.0673 H   0  0  0  0  0  0  0  0  0  0  0  0
   -1.4153    0.8929   -1.5991 H   0  0  0  0  0  0  0  0  0  0  0  0
  1  2  1  0
  2  3  3  0
  3  4  1  0
  4  5  1  0
  5  6  1  0
  6  7  1  0
  7  8  1  0
  7  9  1  0
  8  4  1  0
  9  4  1  0
  1 10  1  0
  1 11  1  0
  1 12  1  0
  5 13  1  0
  5 14  1  0
  6 15  1  0
  6 16  1  0
  7 17  1  0
  8 18  1  0
  8 19  1  0
  9 20  1  0
  9 21  1  0
M  END
