
     RDKit          3D

 21 20  0  0  0  0  0  0  0  0999 V2000
    3.2782    1.1550    0.0466 C   0  0  0  0  0  0  0  0  0  0  0  0
    2.0394    0.3965   -0.1475 C   0  0  0  0  0  0  0  0  0  0  0  0
    1.0256   -0.2412   -0.2922 C   0  0  0  0  0  0  0  0  0  0  0  0
   -0.2198   -1.0391   -0.4478 C   0  0  0  0  0  0  0  0  0  0  0  0
   -0.7839   -0.8718   -1.8422 C   0  0  0  0  0  0  0  0  0  0  0  0
    0.0192   -2.3731   -0.2310 O   0  0  0  0  0  0  0  0  0  0  0  0
   -1.2046   -0.4517    0.5238 C   0  0  0  0  0  0  0  0  0  0  0  0
   -1.5097    0.9831    0.2784 C   0  0  0  0  0  0  0  0  0  0  0  0
   -2.4357    1.3865    1.2596 O   0  0  0  0  0  0  0  0  0  0  0  0
    4.1223    0.4861    0.3319 H   0  0  0  0  0  0  0  0  0  0  0  0
    3.0651    1.9481    0.7582 H   0  0  0  0  0  0  0  0  0  0  0  0
    3.6138    1.6373   -0.9084 H   0  0  0  0  0  0  0  0  0  0  0  0
   -0.4268    0.0972   -2.3005 H   0  0  0  0  0  0  0  0  0  0  0  0
   -0.4220   -1.7375   -2.4638 H   0  0  0  0  0  0  0  0  0  0  0  0
   -1.8865   -0.8830   -1.7768 H   0  0  0  0  0  0  0  0  0  0  0  0
    0.4630   -2.5380    0.6530 H   0  0  0  0  0  0  0  0  0  0  0  0
   -0.6893   -0.5106    1.5284 H   0  0  0  0  0  0  0  0  0  0  0  0
   -2.1333   -1.0255    0.6418 H   0  0  0  0  0  0  0  0  0  0  0  0
   -1.9978    1.0823   -0.7160 H   0  0  0  0  0  0  0  0  0  0  0  0
   -0.6407    1.6378    0.3089 H   0  0  0  0  0  0  0  0  0  0  0  0
   -3.2766    0.8615    1.1878 H   0  0  0  0  0  0  0  0  0  0  0  0
  1  2  1  0
  2  3  3  0
  3  4  1  0
  4  5  1  0
  4  6  1  0
  4  7  1  0
  7  8  1  0
  8  9  1  0
  1 10  1  0
  1 11  1  0
  1 12  1  0
  5 13  1  0
  5 14  1  0
  5 15  1  0
  6 16  1  0
  7 17  1  0
  7 18  1  0
  8 19  1  0
  8 20  1  0
  9 21  1  0
M  END
