
     RDKit          3D

 16 15  0  0  0  0  0  0  0  0999 V2000
    3.2814    0.6120    0.1580 C   0  0  0  0  0  0  0  0  0  0  0  0
    1.9754    0.1277   -0.2962 C   0  0  0  0  0  0  0  0  0  0  0  0
    0.8848   -0.2561   -0.6717 C   0  0  0  0  0  0  0  0  0  0  0  0
   -0.4416   -0.7460   -1.1180 C   0  0  0  0  0  0  0  0  0  0  0  0
   -1.3248   -0.7119    0.0603 C   0  0  0  0  0  0  0  0  0  0  0  0
   -1.2573   -1.6203    0.8710 O   0  0  0  0  0  0  0  0  0  0  0  0
   -2.2964    0.3808    0.3073 C   0  0  0  0  0  0  0  0  0  0  0  0
   -3.0066    0.1919    1.4836 O   0  0  0  0  0  0  0  0  0  0  0  0
    3.2246    0.6538    1.2689 H   0  0  0  0  0  0  0  0  0  0  0  0
    4.1056   -0.0537   -0.1685 H   0  0  0  0  0  0  0  0  0  0  0  0
    3.5183    1.6163   -0.2769 H   0  0  0  0  0  0  0  0  0  0  0  0
   -0.3050   -1.7917   -1.5139 H   0  0  0  0  0  0  0  0  0  0  0  0
   -0.8571   -0.0861   -1.9052 H   0  0  0  0  0  0  0  0  0  0  0  0
   -2.9961    0.4739   -0.5419 H   0  0  0  0  0  0  0  0  0  0  0  0
   -1.7178    1.3180    0.4156 H   0  0  0  0  0  0  0  0  0  0  0  0
   -2.7875   -0.6716    1.9276 H   0  0  0  0  0  0  0  0  0  0  0  0
  1  2  1  0
  2  3  3  0
  3  4  1  0
  4  5  1  0
  5  6  2  0
  5  7  1  0
  7  8  1  0
  1  9  1  0
  1 10  1  0
  1 11  1  0
  4 12  1  0
  4 13  1  0
  7 14  1  0
  7 15  1  0
  8 16  1  0
M  END
