
     RDKit          3D

 16 15  0  0  0  0  0  0  0  0999 V2000
    3.9580    0.3308    0.5483 C   0  0  0  0  0  0  0  0  0  0  0  0
    2.5301    0.1271    0.2973 C   0  0  0  0  0  0  0  0  0  0  0  0
    1.3548   -0.0539    0.0737 C   0  0  0  0  0  0  0  0  0  0  0  0
   -0.0442   -0.2900   -0.1917 C   0  0  0  0  0  0  0  0  0  0  0  0
   -0.5043   -1.4359   -0.4430 O   0  0  0  0  0  0  0  0  0  0  0  0
   -0.9600    0.7545   -0.1813 O   0  0  0  0  0  0  0  0  0  0  0  0
   -2.3519    0.5120   -0.4464 C   0  0  0  0  0  0  0  0  0  0  0  0
   -2.8281   -0.4462    0.6034 C   0  0  0  0  0  0  0  0  0  0  0  0
    4.2746    1.2970    0.1639 H   0  0  0  0  0  0  0  0  0  0  0  0
    4.4964   -0.4979    0.0146 H   0  0  0  0  0  0  0  0  0  0  0  0
    4.1919    0.2552    1.6484 H   0  0  0  0  0  0  0  0  0  0  0  0
   -2.8910    1.4650   -0.4723 H   0  0  0  0  0  0  0  0  0  0  0  0
   -2.3818    0.0325   -1.4513 H   0  0  0  0  0  0  0  0  0  0  0  0
   -2.7655   -1.4730    0.1873 H   0  0  0  0  0  0  0  0  0  0  0  0
   -3.8745   -0.2272    0.9182 H   0  0  0  0  0  0  0  0  0  0  0  0
   -2.2045   -0.3502    1.5122 H   0  0  0  0  0  0  0  0  0  0  0  0
  1  2  1  0
  2  3  3  0
  3  4  1  0
  4  5  2  0
  4  6  1  0
  6  7  1  0
  7  8  1  0
  1  9  1  0
  1 10  1  0
  1 11  1  0
  7 12  1  0
  7 13  1  0
  8 14  1  0
  8 15  1  0
  8 16  1  0
M  END
