
     RDKit          3D

 16 17  0  0  0  0  0  0  0  0999 V2000
    3.2609   -0.7279   -1.0009 C   0  0  0  0  0  0  0  0  0  0  0  0
    1.9458   -0.2760   -0.4944 C   0  0  0  0  0  0  0  0  0  0  0  0
    0.8807    0.0852   -0.1002 C   0  0  0  0  0  0  0  0  0  0  0  0
   -0.4245    0.5037    0.3918 C   0  0  0  0  0  0  0  0  0  0  0  0
   -1.5265    0.8324   -0.5773 C   0  0  0  0  0  0  0  0  0  0  0  0
   -2.5056    0.2289    0.4399 C   0  0  0  0  0  0  0  0  0  0  0  0
   -1.2603   -0.2093    1.2230 C   0  0  0  0  0  0  0  0  0  0  0  0
   -0.5356    0.8383    1.7220 O   0  0  0  0  0  0  0  0  0  0  0  0
    3.1756   -1.0959   -2.0552 H   0  0  0  0  0  0  0  0  0  0  0  0
    3.5928   -1.5683   -0.3515 H   0  0  0  0  0  0  0  0  0  0  0  0
    3.9935    0.0954   -1.0153 H   0  0  0  0  0  0  0  0  0  0  0  0
   -1.5226    0.1817   -1.4742 H   0  0  0  0  0  0  0  0  0  0  0  0
   -1.7198    1.9008   -0.7583 H   0  0  0  0  0  0  0  0  0  0  0  0
   -3.0172    1.0150    1.0265 H   0  0  0  0  0  0  0  0  0  0  0  0
   -3.1185   -0.5870    0.0623 H   0  0  0  0  0  0  0  0  0  0  0  0
   -1.2186   -1.2173    1.6352 H   0  0  0  0  0  0  0  0  0  0  0  0
  1  2  1  0
  2  3  3  0
  3  4  1  0
  4  5  1  0
  5  6  1  0
  6  7  1  0
  7  8  1  0
  7  4  1  0
  8  4  1  0
  1  9  1  0
  1 10  1  0
  1 11  1  0
  5 12  1  0
  5 13  1  0
  6 14  1  0
  6 15  1  0
  7 16  1  0
M  END
