
     RDKit          3D

 19 20  0  0  0  0  0  0  0  0999 V2000
    4.0155    0.4160   -0.3331 C   0  0  0  0  0  0  0  0  0  0  0  0
    2.5747    0.2925   -0.0956 C   0  0  0  0  0  0  0  0  0  0  0  0
    1.3889    0.1901    0.1069 C   0  0  0  0  0  0  0  0  0  0  0  0
   -0.0540    0.0736    0.3285 C   0  0  0  0  0  0  0  0  0  0  0  0
   -0.5908   -0.3869    1.4362 C   0  0  0  0  0  0  0  0  0  0  0  0
   -2.0691   -0.3753    1.3415 C   0  0  0  0  0  0  0  0  0  0  0  0
   -2.3583    0.1755   -0.0055 C   0  0  0  0  0  0  0  0  0  0  0  0
   -1.9466   -0.6056   -1.2131 C   0  0  0  0  0  0  0  0  0  0  0  0
   -1.0705    0.4635   -0.6746 C   0  0  0  0  0  0  0  0  0  0  0  0
    4.2433    1.1401   -1.1431 H   0  0  0  0  0  0  0  0  0  0  0  0
    4.3763   -0.5947   -0.6063 H   0  0  0  0  0  0  0  0  0  0  0  0
    4.5209    0.7975    0.5916 H   0  0  0  0  0  0  0  0  0  0  0  0
    0.0212   -0.7222    2.2878 H   0  0  0  0  0  0  0  0  0  0  0  0
   -2.5320    0.1767    2.1711 H   0  0  0  0  0  0  0  0  0  0  0  0
   -2.4172   -1.4415    1.4618 H   0  0  0  0  0  0  0  0  0  0  0  0
   -3.1299    0.9913   -0.1299 H   0  0  0  0  0  0  0  0  0  0  0  0
   -2.4472   -0.3409   -2.1832 H   0  0  0  0  0  0  0  0  0  0  0  0
   -1.6096   -1.6474   -1.0598 H   0  0  0  0  0  0  0  0  0  0  0  0
   -0.9158    1.3977   -1.2504 H   0  0  0  0  0  0  0  0  0  0  0  0
  1  2  1  0
  2  3  3  0
  3  4  1  0
  4  5  2  0
  5  6  1  0
  6  7  1  0
  7  8  1  0
  8  9  1  0
  9  4  1  0
  9  7  1  0
  1 10  1  0
  1 11  1  0
  1 12  1  0
  5 13  1  0
  6 14  1  0
  6 15  1  0
  7 16  1  0
  8 17  1  0
  8 18  1  0
  9 19  1  0
M  END
