
     RDKit          3D

 19 19  0  0  0  0  0  0  0  0999 V2000
    3.4437   -0.3558    0.4593 C   0  0  0  0  0  0  0  0  0  0  0  0
    2.0542   -0.3930   -0.0298 C   0  0  0  0  0  0  0  0  0  0  0  0
    0.9060   -0.4424   -0.4239 C   0  0  0  0  0  0  0  0  0  0  0  0
   -0.4791   -0.4981   -0.8970 C   0  0  0  0  0  0  0  0  0  0  0  0
   -0.9111   -1.8227   -0.9796 O   0  0  0  0  0  0  0  0  0  0  0  0
   -1.4038    0.2973   -0.0055 C   0  0  0  0  0  0  0  0  0  0  0  0
   -1.0230    1.7417    0.1404 C   0  0  0  0  0  0  0  0  0  0  0  0
   -2.5895   -0.2600    0.5452 C   0  0  0  0  0  0  0  0  0  0  0  0
   -1.3770   -0.3437    1.3579 O   0  0  0  0  0  0  0  0  0  0  0  0
    3.9083    0.5298    0.0084 H   0  0  0  0  0  0  0  0  0  0  0  0
    3.4688   -0.3228    1.5771 H   0  0  0  0  0  0  0  0  0  0  0  0
    3.9981   -1.2688    0.1540 H   0  0  0  0  0  0  0  0  0  0  0  0
   -0.4963   -0.0128   -1.8945 H   0  0  0  0  0  0  0  0  0  0  0  0
   -0.5905   -2.2279   -1.8195 H   0  0  0  0  0  0  0  0  0  0  0  0
   -0.0056    1.7693    0.5914 H   0  0  0  0  0  0  0  0  0  0  0  0
   -0.9430    2.1766   -0.8602 H   0  0  0  0  0  0  0  0  0  0  0  0
   -1.6827    2.3009    0.8225 H   0  0  0  0  0  0  0  0  0  0  0  0
   -2.9312   -1.2593    0.2416 H   0  0  0  0  0  0  0  0  0  0  0  0
   -3.3461    0.3918    1.0122 H   0  0  0  0  0  0  0  0  0  0  0  0
  1  2  1  0
  2  3  3  0
  3  4  1  0
  4  5  1  0
  4  6  1  0
  6  7  1  0
  6  8  1  0
  8  9  1  0
  9  6  1  0
  1 10  1  0
  1 11  1  0
  1 12  1  0
  4 13  1  0
  5 14  1  0
  7 15  1  0
  7 16  1  0
  7 17  1  0
  8 18  1  0
  8 19  1  0
M  END
