
     RDKit          3D

 18 18  0  0  0  0  0  0  0  0999 V2000
    3.6519    0.7494    0.2138 C   0  0  0  0  0  0  0  0  0  0  0  0
    2.3167    0.1142    0.2537 C   0  0  0  0  0  0  0  0  0  0  0  0
    1.2392   -0.4110    0.2954 C   0  0  0  0  0  0  0  0  0  0  0  0
   -0.0779   -1.0580    0.3560 C   0  0  0  0  0  0  0  0  0  0  0  0
   -0.6789   -1.1403   -1.0141 O   0  0  0  0  0  0  0  0  0  0  0  0
   -1.2648   -0.3496    0.0230 C   0  0  0  0  0  0  0  0  0  0  0  0
   -2.6027   -0.9649    0.4545 C   0  0  0  0  0  0  0  0  0  0  0  0
   -1.3575    1.1245   -0.2359 C   0  0  0  0  0  0  0  0  0  0  0  0
    4.3584    0.1749   -0.4178 H   0  0  0  0  0  0  0  0  0  0  0  0
    4.1110    0.7966    1.2230 H   0  0  0  0  0  0  0  0  0  0  0  0
    3.5660    1.7578   -0.1869 H   0  0  0  0  0  0  0  0  0  0  0  0
   -0.1475   -2.0256    0.8932 H   0  0  0  0  0  0  0  0  0  0  0  0
   -3.2480   -0.2043    0.9443 H   0  0  0  0  0  0  0  0  0  0  0  0
   -3.1334   -1.2476   -0.4832 H   0  0  0  0  0  0  0  0  0  0  0  0
   -2.4437   -1.8558    1.0948 H   0  0  0  0  0  0  0  0  0  0  0  0
   -1.9153    1.3360   -1.1873 H   0  0  0  0  0  0  0  0  0  0  0  0
   -1.9852    1.5619    0.5685 H   0  0  0  0  0  0  0  0  0  0  0  0
   -0.3883    1.6419   -0.2020 H   0  0  0  0  0  0  0  0  0  0  0  0
  1  2  1  0
  2  3  3  0
  3  4  1  0
  4  5  1  0
  5  6  1  0
  6  7  1  0
  6  8  1  0
  6  4  1  0
  1  9  1  0
  1 10  1  0
  1 11  1  0
  4 12  1  0
  7 13  1  0
  7 14  1  0
  7 15  1  0
  8 16  1  0
  8 17  1  0
  8 18  1  0
M  END
