
     RDKit          3D

 19 19  0  0  0  0  0  0  0  0999 V2000
   -3.7635    0.2891    0.8325 C   0  0  0  0  0  0  0  0  0  0  0  0
   -2.3750    0.1400    0.3889 C   0  0  0  0  0  0  0  0  0  0  0  0
   -1.2370    0.0027    0.0093 C   0  0  0  0  0  0  0  0  0  0  0  0
    0.1342   -0.1480   -0.4639 C   0  0  0  0  0  0  0  0  0  0  0  0
    0.3978    0.1098   -1.9096 C   0  0  0  0  0  0  0  0  0  0  0  0
    0.7277   -1.4784   -0.1082 O   0  0  0  0  0  0  0  0  0  0  0  0
    1.2017   -0.3304    0.5140 C   0  0  0  0  0  0  0  0  0  0  0  0
    2.6136    0.1093    0.3025 C   0  0  0  0  0  0  0  0  0  0  0  0
    3.4452   -0.9328    0.7572 O   0  0  0  0  0  0  0  0  0  0  0  0
   -4.1181    1.2883    0.5183 H   0  0  0  0  0  0  0  0  0  0  0  0
   -3.7932    0.2167    1.9347 H   0  0  0  0  0  0  0  0  0  0  0  0
   -4.4058   -0.5382    0.4441 H   0  0  0  0  0  0  0  0  0  0  0  0
   -0.1720   -0.6676   -2.4960 H   0  0  0  0  0  0  0  0  0  0  0  0
    1.4576   -0.0538   -2.1503 H   0  0  0  0  0  0  0  0  0  0  0  0
    0.0699    1.1358   -2.1661 H   0  0  0  0  0  0  0  0  0  0  0  0
    0.8823   -0.2785    1.5945 H   0  0  0  0  0  0  0  0  0  0  0  0
    2.8644    0.3721   -0.7359 H   0  0  0  0  0  0  0  0  0  0  0  0
    2.8006    0.9753    0.9843 H   0  0  0  0  0  0  0  0  0  0  0  0
    3.2696   -1.0038    1.7499 H   0  0  0  0  0  0  0  0  0  0  0  0
  1  2  1  0
  2  3  3  0
  3  4  1  0
  4  5  1  0
  4  6  1  0
  6  7  1  0
  7  8  1  0
  8  9  1  0
  7  4  1  0
  1 10  1  0
  1 11  1  0
  1 12  1  0
  5 13  1  0
  5 14  1  0
  5 15  1  0
  7 16  1  0
  8 17  1  0
  8 18  1  0
  9 19  1  0
M  END
