
     RDKit          3D

 21 21  0  0  0  0  0  0  0  0999 V2000
    3.2509    1.4061    0.4956 C   0  0  0  0  0  0  0  0  0  0  0  0
    2.1427    0.5532    0.0396 C   0  0  0  0  0  0  0  0  0  0  0  0
    1.2081   -0.1511   -0.3396 C   0  0  0  0  0  0  0  0  0  0  0  0
    0.0975   -0.9969   -0.7801 C   0  0  0  0  0  0  0  0  0  0  0  0
   -0.2692   -2.0926    0.1916 C   0  0  0  0  0  0  0  0  0  0  0  0
   -1.7369   -1.7247   -0.0550 C   0  0  0  0  0  0  0  0  0  0  0  0
   -1.2035   -0.3175   -0.3724 C   0  0  0  0  0  0  0  0  0  0  0  0
   -1.0393    0.4816    0.7560 O   0  0  0  0  0  0  0  0  0  0  0  0
   -1.5906    1.7651    0.5400 C   0  0  0  0  0  0  0  0  0  0  0  0
    4.1205    1.1841   -0.1624 H   0  0  0  0  0  0  0  0  0  0  0  0
    2.9219    2.4638    0.4630 H   0  0  0  0  0  0  0  0  0  0  0  0
    3.4733    1.1838    1.5746 H   0  0  0  0  0  0  0  0  0  0  0  0
    0.0817   -1.2529   -1.8352 H   0  0  0  0  0  0  0  0  0  0  0  0
    0.0024   -3.1240   -0.0964 H   0  0  0  0  0  0  0  0  0  0  0  0
    0.0018   -1.8214    1.2472 H   0  0  0  0  0  0  0  0  0  0  0  0
   -2.3877   -1.7941    0.8139 H   0  0  0  0  0  0  0  0  0  0  0  0
   -2.1158   -2.1773   -1.0000 H   0  0  0  0  0  0  0  0  0  0  0  0
   -1.7147    0.1662   -1.2319 H   0  0  0  0  0  0  0  0  0  0  0  0
   -1.1324    2.2818   -0.3145 H   0  0  0  0  0  0  0  0  0  0  0  0
   -1.4509    2.3669    1.4849 H   0  0  0  0  0  0  0  0  0  0  0  0
   -2.6597    1.6002    0.3029 H   0  0  0  0  0  0  0  0  0  0  0  0
  1  2  1  0
  2  3  3  0
  3  4  1  0
  4  5  1  0
  5  6  1  0
  6  7  1  0
  7  8  1  0
  8  9  1  0
  7  4  1  0
  1 10  1  0
  1 11  1  0
  1 12  1  0
  4 13  1  0
  5 14  1  0
  5 15  1  0
  6 16  1  0
  6 17  1  0
  7 18  1  0
  9 19  1  0
  9 20  1  0
  9 21  1  0
M  END
