
     RDKit          3D

 19 18  0  0  0  0  0  0  0  0999 V2000
    4.1628    0.1218   -1.1503 C   0  0  0  0  0  0  0  0  0  0  0  0
    2.6629   -0.2020   -0.5621 C   0  0  0  0  0  0  0  0  0  0  0  0
    1.4430   -0.4672   -0.1027 C   0  0  0  0  0  0  0  0  0  0  0  0
    0.4505   -0.6715    0.2533 C   0  0  0  0  0  0  0  0  0  0  0  0
   -0.7602    0.3514   -0.0269 C   0  0  0  0  0  0  0  0  0  0  0  0
   -1.8426   -0.1453    0.9330 C   0  0  0  0  0  0  0  0  0  0  0  0
   -3.0674    0.5721    0.7787 O   0  0  0  0  0  0  0  0  0  0  0  0
   -3.7960    0.5469   -0.3763 C   0  0  0  0  0  0  0  0  0  0  0  0
   -3.3740   -0.2151   -1.3585 O   0  0  0  0  0  0  0  0  0  0  0  0
    4.7879   -0.7969   -0.7830 H   0  0  0  0  0  0  0  0  0  0  0  0
    4.1650    0.0410   -2.2045 H   0  0  0  0  0  0  0  0  0  0  0  0
    4.4271    0.9860   -0.6040 H   0  0  0  0  0  0  0  0  0  0  0  0
    0.4242   -0.3036    1.4617 H   0  0  0  0  0  0  0  0  0  0  0  0
   -0.0748   -1.6780    0.1436 H   0  0  0  0  0  0  0  0  0  0  0  0
   -1.1734    0.3143   -1.0977 H   0  0  0  0  0  0  0  0  0  0  0  0
   -0.3830    1.3690    0.1285 H   0  0  0  0  0  0  0  0  0  0  0  0
   -1.4313    0.3208    1.9477 H   0  0  0  0  0  0  0  0  0  0  0  0
   -1.9384   -1.2187    1.1062 H   0  0  0  0  0  0  0  0  0  0  0  0
   -4.6826    1.0748   -0.5971 H   0  0  0  0  0  0  0  0  0  0  0  0
  1  2  1  0
  2  3  3  0
  3  4  1  0
  4  5  1  0
  5  6  1  0
  6  7  1  0
  7  8  1  0
  8  9  2  0
  1 10  1  0
  1 11  1  0
  1 12  1  0
  4 13  1  0
  4 14  1  0
  5 15  1  0
  5 16  1  0
  6 17  1  0
  6 18  1  0
  8 19  1  0
M  END
