
     RDKit          3D

 19 20  0  0  0  0  0  0  0  0999 V2000
    0.7427   -2.3139   -2.4236 C   0  0  0  0  0  0  0  0  0  0  0  0
    0.5065   -1.5364   -1.3220 C   0  0  0  0  0  0  0  0  0  0  0  0
    0.2864   -0.7775   -0.2142 C   0  0  0  0  0  0  0  0  0  0  0  0
    0.0339    0.0048    0.9408 C   0  0  0  0  0  0  0  0  0  0  0  0
    1.4036    0.4202    1.5376 C   0  0  0  0  0  0  0  0  0  0  0  0
    1.4248    1.1293    0.2933 O   0  0  0  0  0  0  0  0  0  0  0  0
    0.2071    1.5726    0.7642 C   0  0  0  0  0  0  0  0  0  0  0  0
   -1.0821    0.9159    0.7744 C   0  0  0  0  0  0  0  0  0  0  0  0
   -1.8733    1.0867   -0.5255 C   0  0  0  0  0  0  0  0  0  0  0  0
    1.7533   -2.1554   -2.9128 H   0  0  0  0  0  0  0  0  0  0  0  0
    0.7954   -3.4181   -2.1288 H   0  0  0  0  0  0  0  0  0  0  0  0
   -0.0674   -2.2699   -3.2239 H   0  0  0  0  0  0  0  0  0  0  0  0
    1.3669    1.0889    2.3977 H   0  0  0  0  0  0  0  0  0  0  0  0
    2.0938   -0.4044    1.5806 H   0  0  0  0  0  0  0  0  0  0  0  0
    0.3654    2.1595    1.6923 H   0  0  0  0  0  0  0  0  0  0  0  0
   -1.7660    0.9903    1.6556 H   0  0  0  0  0  0  0  0  0  0  0  0
   -2.8405    0.6283   -0.3736 H   0  0  0  0  0  0  0  0  0  0  0  0
   -2.0191    2.1869   -0.6480 H   0  0  0  0  0  0  0  0  0  0  0  0
   -1.3312    0.6923   -1.4157 H   0  0  0  0  0  0  0  0  0  0  0  0
  1  2  1  0
  2  3  3  0
  3  4  1  0
  4  5  1  0
  5  6  1  0
  6  7  1  0
  7  8  1  0
  8  9  1  0
  7  4  1  0
  8  4  1  0
  1 10  1  0
  1 11  1  0
  1 12  1  0
  5 13  1  0
  5 14  1  0
  7 15  1  0
  8 16  1  0
  9 17  1  0
  9 18  1  0
  9 19  1  0
M  END
