
     RDKit          3D

 15 14  0  0  0  0  0  0  0  0999 V2000
    0.9456    2.6814    0.6944 C   0  0  0  0  0  0  0  0  0  0  0  0
    0.6587    1.3019    0.2273 C   0  0  0  0  0  0  0  0  0  0  0  0
    0.4091    0.1874   -0.1390 C   0  0  0  0  0  0  0  0  0  0  0  0
    0.0766   -1.1899   -0.5852 C   0  0  0  0  0  0  0  0  0  0  0  0
    1.1331   -2.0344   -0.3684 O   0  0  0  0  0  0  0  0  0  0  0  0
   -1.1598   -1.6352    0.1610 C   0  0  0  0  0  0  0  0  0  0  0  0
   -2.2335   -0.8036   -0.0413 O   0  0  0  0  0  0  0  0  0  0  0  0
    0.0157    3.2358    0.8328 H   0  0  0  0  0  0  0  0  0  0  0  0
    1.5900    3.2233   -0.0203 H   0  0  0  0  0  0  0  0  0  0  0  0
    1.5217    2.5591    1.6527 H   0  0  0  0  0  0  0  0  0  0  0  0
   -0.1831   -1.2088   -1.6641 H   0  0  0  0  0  0  0  0  0  0  0  0
    1.4630   -1.9377    0.5610 H   0  0  0  0  0  0  0  0  0  0  0  0
   -1.3491   -2.6888   -0.1633 H   0  0  0  0  0  0  0  0  0  0  0  0
   -0.9707   -1.6947    1.2599 H   0  0  0  0  0  0  0  0  0  0  0  0
   -1.9174    0.0041   -0.5211 H   0  0  0  0  0  0  0  0  0  0  0  0
  1  2  1  0
  2  3  3  0
  3  4  1  0
  4  5  1  0
  4  6  1  0
  6  7  1  0
  1  8  1  0
  1  9  1  0
  1 10  1  0
  4 11  1  0
  5 12  1  0
  6 13  1  0
  6 14  1  0
  7 15  1  0
M  END
