
     RDKit          3D

 19 19  0  0  0  0  0  0  0  0999 V2000
    3.8961   -0.5760    0.1971 C   0  0  0  0  0  0  0  0  0  0  0  0
    2.4386   -0.3280    0.1599 C   0  0  0  0  0  0  0  0  0  0  0  0
    1.2600   -0.1294    0.1472 C   0  0  0  0  0  0  0  0  0  0  0  0
   -0.1620    0.1317    0.1425 C   0  0  0  0  0  0  0  0  0  0  0  0
   -0.9697   -1.0259    0.7267 C   0  0  0  0  0  0  0  0  0  0  0  0
   -2.2716   -0.8667    0.2611 O   0  0  0  0  0  0  0  0  0  0  0  0
   -2.6143    0.4688    0.0849 C   0  0  0  0  0  0  0  0  0  0  0  0
   -1.7941    1.1253   -1.0197 C   0  0  0  0  0  0  0  0  0  0  0  0
   -0.6354    0.3303   -1.1627 O   0  0  0  0  0  0  0  0  0  0  0  0
    4.3455   -0.1129    1.1092 H   0  0  0  0  0  0  0  0  0  0  0  0
    4.3793   -0.1986   -0.7402 H   0  0  0  0  0  0  0  0  0  0  0  0
    4.0645   -1.6709    0.2280 H   0  0  0  0  0  0  0  0  0  0  0  0
   -0.4346    1.0192    0.7811 H   0  0  0  0  0  0  0  0  0  0  0  0
   -0.9285   -1.0203    1.8152 H   0  0  0  0  0  0  0  0  0  0  0  0
   -0.6149   -2.0077    0.3320 H   0  0  0  0  0  0  0  0  0  0  0  0
   -3.6846    0.4791   -0.2244 H   0  0  0  0  0  0  0  0  0  0  0  0
   -2.4929    1.0554    1.0197 H   0  0  0  0  0  0  0  0  0  0  0  0
   -1.4173    2.1242   -0.6833 H   0  0  0  0  0  0  0  0  0  0  0  0
   -2.3641    1.2022   -1.9526 H   0  0  0  0  0  0  0  0  0  0  0  0
  1  2  1  0
  2  3  3  0
  3  4  1  0
  4  5  1  0
  5  6  1  0
  6  7  1  0
  7  8  1  0
  8  9  1  0
  9  4  1  0
  1 10  1  0
  1 11  1  0
  1 12  1  0
  4 13  1  0
  5 14  1  0
  5 15  1  0
  7 16  1  0
  7 17  1  0
  8 18  1  0
  8 19  1  0
M  END
