
     RDKit          3D

 21 20  0  0  0  0  0  0  0  0999 V2000
    4.2000    0.6428    1.1783 C   0  0  0  0  0  0  0  0  0  0  0  0
    2.8440    0.0908    1.1439 C   0  0  0  0  0  0  0  0  0  0  0  0
    1.7170   -0.3818    1.1318 C   0  0  0  0  0  0  0  0  0  0  0  0
    0.3686   -0.9516    1.1424 C   0  0  0  0  0  0  0  0  0  0  0  0
   -0.4937   -0.1672    0.1525 C   0  0  0  0  0  0  0  0  0  0  0  0
   -1.8709   -0.7975    0.2053 C   0  0  0  0  0  0  0  0  0  0  0  0
   -2.8055   -0.1253   -0.7134 C   0  0  0  0  0  0  0  0  0  0  0  0
   -2.3987    1.0252   -1.5664 C   0  0  0  0  0  0  0  0  0  0  0  0
   -3.9568   -0.5557   -0.7523 O   0  0  0  0  0  0  0  0  0  0  0  0
    4.6065    0.4877    2.1786 H   0  0  0  0  0  0  0  0  0  0  0  0
    4.2258    1.6990    0.8376 H   0  0  0  0  0  0  0  0  0  0  0  0
    4.8830    0.0955    0.4663 H   0  0  0  0  0  0  0  0  0  0  0  0
   -0.0834   -0.9361    2.1553 H   0  0  0  0  0  0  0  0  0  0  0  0
    0.3744   -2.0264    0.8346 H   0  0  0  0  0  0  0  0  0  0  0  0
   -0.5151    0.8915    0.4483 H   0  0  0  0  0  0  0  0  0  0  0  0
   -0.0964   -0.3476   -0.8632 H   0  0  0  0  0  0  0  0  0  0  0  0
   -2.2004   -0.7383    1.2678 H   0  0  0  0  0  0  0  0  0  0  0  0
   -1.8037   -1.8551   -0.0570 H   0  0  0  0  0  0  0  0  0  0  0  0
   -3.3250    1.6169   -1.7510 H   0  0  0  0  0  0  0  0  0  0  0  0
   -2.0542    0.6821   -2.5854 H   0  0  0  0  0  0  0  0  0  0  0  0
   -1.6156    1.6509   -1.0919 H   0  0  0  0  0  0  0  0  0  0  0  0
  1  2  1  0
  2  3  3  0
  3  4  1  0
  4  5  1  0
  5  6  1  0
  6  7  1  0
  7  8  1  0
  7  9  2  0
  1 10  1  0
  1 11  1  0
  1 12  1  0
  4 13  1  0
  4 14  1  0
  5 15  1  0
  5 16  1  0
  6 17  1  0
  6 18  1  0
  8 19  1  0
  8 20  1  0
  8 21  1  0
M  END
