
     RDKit          3D

 20 19  0  0  0  0  0  0  0  0999 V2000
    2.5861   -0.0407    2.5375 C   0  0  0  0  0  0  0  0  0  0  0  0
    1.5514   -0.3471    1.5325 C   0  0  0  0  0  0  0  0  0  0  0  0
    0.7185   -0.6087    0.6991 C   0  0  0  0  0  0  0  0  0  0  0  0
   -0.2842   -0.9297   -0.3401 C   0  0  0  0  0  0  0  0  0  0  0  0
   -1.2290    0.2242   -0.4539 C   0  0  0  0  0  0  0  0  0  0  0  0
   -2.2507   -0.1415   -1.5359 C   0  0  0  0  0  0  0  0  0  0  0  0
   -0.4794    1.4522   -0.9562 C   0  0  0  0  0  0  0  0  0  0  0  0
    0.5238    1.7343   -0.0318 O   0  0  0  0  0  0  0  0  0  0  0  0
    2.9940   -0.9631    2.9911 H   0  0  0  0  0  0  0  0  0  0  0  0
    2.1176    0.6300    3.2992 H   0  0  0  0  0  0  0  0  0  0  0  0
    3.4478    0.4907    2.0726 H   0  0  0  0  0  0  0  0  0  0  0  0
    0.1894   -1.0930   -1.3213 H   0  0  0  0  0  0  0  0  0  0  0  0
   -0.7810   -1.8559   -0.0454 H   0  0  0  0  0  0  0  0  0  0  0  0
   -1.7622    0.4727    0.4674 H   0  0  0  0  0  0  0  0  0  0  0  0
   -3.0940   -0.6949   -1.0837 H   0  0  0  0  0  0  0  0  0  0  0  0
   -1.7403   -0.7433   -2.3227 H   0  0  0  0  0  0  0  0  0  0  0  0
   -2.6149    0.8044   -2.0095 H   0  0  0  0  0  0  0  0  0  0  0  0
   -0.0324    1.2591   -1.9506 H   0  0  0  0  0  0  0  0  0  0  0  0
   -1.1624    2.3208   -1.0628 H   0  0  0  0  0  0  0  0  0  0  0  0
    1.3019    2.1541   -0.4857 H   0  0  0  0  0  0  0  0  0  0  0  0
  1  2  1  0
  2  3  3  0
  3  4  1  0
  4  5  1  0
  5  6  1  0
  5  7  1  0
  7  8  1  0
  1  9  1  0
  1 10  1  0
  1 11  1  0
  4 12  1  0
  4 13  1  0
  5 14  1  0
  6 15  1  0
  6 16  1  0
  6 17  1  0
  7 18  1  0
  7 19  1  0
  8 20  1  0
M  END
