
     RDKit          3D

 19 19  0  0  0  0  0  0  0  0999 V2000
    3.2912    1.7069   -1.0608 C   0  0  0  0  0  0  0  0  0  0  0  0
    1.9292    1.3484   -0.9152 C   0  0  0  0  0  0  0  0  0  0  0  0
    0.6024    0.9763   -0.7665 C   0  0  0  0  0  0  0  0  0  0  0  0
   -0.7503    0.5808   -0.6338 C   0  0  0  0  0  0  0  0  0  0  0  0
   -0.6610   -0.8417   -0.0573 C   0  0  0  0  0  0  0  0  0  0  0  0
   -0.0011   -0.7649    1.2221 O   0  0  0  0  0  0  0  0  0  0  0  0
   -1.2381   -0.4310    1.7480 C   0  0  0  0  0  0  0  0  0  0  0  0
   -1.8807   -1.2499    0.6709 C   0  0  0  0  0  0  0  0  0  0  0  0
   -1.8492   -2.6083    0.9445 O   0  0  0  0  0  0  0  0  0  0  0  0
    3.3615    2.8157   -0.8257 H   0  0  0  0  0  0  0  0  0  0  0  0
    3.5362    1.4784   -2.0814 H   0  0  0  0  0  0  0  0  0  0  0  0
    3.8937    1.1500   -0.2846 H   0  0  0  0  0  0  0  0  0  0  0  0
   -1.3065    1.2749    0.0453 H   0  0  0  0  0  0  0  0  0  0  0  0
   -1.2131    0.5585   -1.6095 H   0  0  0  0  0  0  0  0  0  0  0  0
   -0.1017   -1.5704   -0.6156 H   0  0  0  0  0  0  0  0  0  0  0  0
   -1.4144   -1.0481    2.7162 H   0  0  0  0  0  0  0  0  0  0  0  0
   -1.4979    0.6170    1.8816 H   0  0  0  0  0  0  0  0  0  0  0  0
   -2.7908   -0.8601    0.2080 H   0  0  0  0  0  0  0  0  0  0  0  0
   -1.9093   -3.1327    0.1073 H   0  0  0  0  0  0  0  0  0  0  0  0
  1  2  1  0
  2  3  3  0
  3  4  1  0
  4  5  1  0
  5  6  1  0
  6  7  1  0
  7  8  1  0
  8  9  1  0
  8  5  1  0
  1 10  1  0
  1 11  1  0
  1 12  1  0
  4 13  1  0
  4 14  1  0
  5 15  1  0
  7 16  1  0
  7 17  1  0
  8 18  1  0
  9 19  1  0
M  END
