
     RDKit          3D

 18 19  0  0  0  0  0  0  0  0999 V2000
    2.9589    0.2945   -1.8502 C   0  0  0  0  0  0  0  0  0  0  0  0
    1.6532   -0.0415   -1.2705 C   0  0  0  0  0  0  0  0  0  0  0  0
    0.5586   -0.3164   -0.8074 C   0  0  0  0  0  0  0  0  0  0  0  0
   -0.7502   -0.6507   -0.2792 C   0  0  0  0  0  0  0  0  0  0  0  0
   -1.4799    0.5742    0.1842 C   0  0  0  0  0  0  0  0  0  0  0  0
   -2.2404   -0.3572    1.0920 C   0  0  0  0  0  0  0  0  0  0  0  0
   -0.8190   -0.8182    1.2097 C   0  0  0  0  0  0  0  0  0  0  0  0
   -0.4539    0.6461    1.2801 C   0  0  0  0  0  0  0  0  0  0  0  0
    3.6867   -0.5419   -1.7121 H   0  0  0  0  0  0  0  0  0  0  0  0
    3.3467    1.1729   -1.2677 H   0  0  0  0  0  0  0  0  0  0  0  0
    2.8820    0.6128   -2.8980 H   0  0  0  0  0  0  0  0  0  0  0  0
   -1.3234   -1.4146   -0.8048 H   0  0  0  0  0  0  0  0  0  0  0  0
   -1.8465    1.3219   -0.3648 H   0  0  0  0  0  0  0  0  0  0  0  0
   -2.6813    0.0983    1.9917 H   0  0  0  0  0  0  0  0  0  0  0  0
   -2.8554   -1.0848    0.5418 H   0  0  0  0  0  0  0  0  0  0  0  0
   -0.4502   -1.5583    1.7670 H   0  0  0  0  0  0  0  0  0  0  0  0
    0.5658    0.9018    0.9853 H   0  0  0  0  0  0  0  0  0  0  0  0
   -0.7514    1.1612    2.2029 H   0  0  0  0  0  0  0  0  0  0  0  0
  1  2  1  0
  2  3  3  0
  3  4  1  0
  4  5  1  0
  5  6  1  0
  6  7  1  0
  7  8  1  0
  7  4  1  0
  8  5  1  0
  1  9  1  0
  1 10  1  0
  1 11  1  0
  4 12  1  0
  5 13  1  0
  6 14  1  0
  6 15  1  0
  7 16  1  0
  8 17  1  0
  8 18  1  0
M  END
