
     RDKit          3D

 19 19  0  0  0  0  0  0  0  0999 V2000
   -3.5133   -0.3115    0.2678 C   0  0  0  0  0  0  0  0  0  0  0  0
   -2.1626    0.1805   -0.0701 C   0  0  0  0  0  0  0  0  0  0  0  0
   -1.0683    0.5971   -0.3579 C   0  0  0  0  0  0  0  0  0  0  0  0
    0.2645    1.1297   -0.7217 C   0  0  0  0  0  0  0  0  0  0  0  0
    0.8665    1.8806    0.2587 O   0  0  0  0  0  0  0  0  0  0  0  0
    2.0460    1.1869    0.1299 C   0  0  0  0  0  0  0  0  0  0  0  0
    1.2897    0.0712   -0.5524 C   0  0  0  0  0  0  0  0  0  0  0  0
    0.9829   -1.0429    0.3954 C   0  0  0  0  0  0  0  0  0  0  0  0
    2.0828   -1.9068    0.3874 O   0  0  0  0  0  0  0  0  0  0  0  0
   -4.1201    0.4566    0.7692 H   0  0  0  0  0  0  0  0  0  0  0  0
   -4.0441   -0.6075   -0.6806 H   0  0  0  0  0  0  0  0  0  0  0  0
   -3.3714   -1.2328    0.8585 H   0  0  0  0  0  0  0  0  0  0  0  0
    0.2817    1.6665   -1.6856 H   0  0  0  0  0  0  0  0  0  0  0  0
    2.7981    1.5981   -0.5717 H   0  0  0  0  0  0  0  0  0  0  0  0
    2.4286    0.8965    1.1294 H   0  0  0  0  0  0  0  0  0  0  0  0
    1.7398   -0.2966   -1.4944 H   0  0  0  0  0  0  0  0  0  0  0  0
    0.8317   -0.7151    1.4373 H   0  0  0  0  0  0  0  0  0  0  0  0
    0.1059   -1.6553    0.1111 H   0  0  0  0  0  0  0  0  0  0  0  0
    2.5617   -1.8953    1.2515 H   0  0  0  0  0  0  0  0  0  0  0  0
  1  2  1  0
  2  3  3  0
  3  4  1  0
  4  5  1  0
  5  6  1  0
  6  7  1  0
  7  8  1  0
  8  9  1  0
  7  4  1  0
  1 10  1  0
  1 11  1  0
  1 12  1  0
  4 13  1  0
  6 14  1  0
  6 15  1  0
  7 16  1  0
  8 17  1  0
  8 18  1  0
  9 19  1  0
M  END
