
     RDKit          3D

 19 19  0  0  0  0  0  0  0  0999 V2000
    2.8254    1.6870    0.5097 C   0  0  0  0  0  0  0  0  0  0  0  0
    1.5075    1.0573    0.2946 C   0  0  0  0  0  0  0  0  0  0  0  0
    0.4268    0.5399    0.1125 C   0  0  0  0  0  0  0  0  0  0  0  0
   -0.8761   -0.1098   -0.0996 C   0  0  0  0  0  0  0  0  0  0  0  0
   -1.2824   -0.0613   -1.4228 O   0  0  0  0  0  0  0  0  0  0  0  0
   -0.3782   -0.6984   -2.2683 C   0  0  0  0  0  0  0  0  0  0  0  0
   -2.0067    0.2516    0.8790 C   0  0  0  0  0  0  0  0  0  0  0  0
   -1.3763   -1.1200    0.8482 C   0  0  0  0  0  0  0  0  0  0  0  0
   -0.5158   -1.4054    1.9320 O   0  0  0  0  0  0  0  0  0  0  0  0
    3.0017    1.8743    1.5797 H   0  0  0  0  0  0  0  0  0  0  0  0
    3.6477    0.9815    0.1918 H   0  0  0  0  0  0  0  0  0  0  0  0
    2.9353    2.5876   -0.1271 H   0  0  0  0  0  0  0  0  0  0  0  0
    0.6297   -0.2458   -2.2305 H   0  0  0  0  0  0  0  0  0  0  0  0
   -0.3082   -1.7643   -1.9961 H   0  0  0  0  0  0  0  0  0  0  0  0
   -0.7280   -0.5732   -3.3224 H   0  0  0  0  0  0  0  0  0  0  0  0
   -3.0339    0.2770    0.5158 H   0  0  0  0  0  0  0  0  0  0  0  0
   -1.6790    0.9374    1.6919 H   0  0  0  0  0  0  0  0  0  0  0  0
   -1.9770   -1.9739    0.5182 H   0  0  0  0  0  0  0  0  0  0  0  0
   -0.8126   -2.2416    2.3934 H   0  0  0  0  0  0  0  0  0  0  0  0
  1  2  1  0
  2  3  3  0
  3  4  1  0
  4  5  1  0
  5  6  1  0
  4  7  1  0
  7  8  1  0
  8  9  1  0
  8  4  1  0
  1 10  1  0
  1 11  1  0
  1 12  1  0
  6 13  1  0
  6 14  1  0
  6 15  1  0
  7 16  1  0
  7 17  1  0
  8 18  1  0
  9 19  1  0
M  END
