
     RDKit          3D

 17 17  0  0  0  0  0  0  0  0999 V2000
    3.3531    3.2680    1.6330 C   0  0  0  0  0  0  0  0  0  0  0  0
    2.2796    2.2184    1.1140 C   0  0  0  0  0  0  0  0  0  0  0  0
    1.6542    1.6020    0.8085 C   0  0  0  0  0  0  0  0  0  0  0  0
    0.6063    0.5842    0.3082 C   0  0  0  0  0  0  0  0  0  0  0  0
   -0.2917   -0.2850   -0.1409 C   0  0  0  0  0  0  0  0  0  0  0  0
   -1.0994   -1.0506   -0.5590 C   0  0  0  0  0  0  0  0  0  0  0  0
   -2.1812   -1.2025   -1.4877 C   0  0  0  0  0  0  0  0  0  0  0  0
   -2.8041   -2.6173   -1.3768 C   0  0  0  0  0  0  0  0  0  0  0  0
   -3.4755   -1.4202   -1.1456 O   0  0  0  0  0  0  0  0  0  0  0  0
    4.3237    2.9349    1.2331 H   0  0  0  0  0  0  0  0  0  0  0  0
    3.4205    2.9839    2.8225 H   0  0  0  0  0  0  0  0  0  0  0  0
    3.1144    4.2121    1.4559 H   0  0  0  0  0  0  0  0  0  0  0  0
   -1.0894   -2.0880    0.1813 H   0  0  0  0  0  0  0  0  0  0  0  0
   -0.2849   -1.8874   -1.3452 H   0  0  0  0  0  0  0  0  0  0  0  0
   -2.0067   -0.8953   -2.5757 H   0  0  0  0  0  0  0  0  0  0  0  0
   -2.5664   -3.2316   -0.4612 H   0  0  0  0  0  0  0  0  0  0  0  0
   -2.9527   -3.1255   -2.3087 H   0  0  0  0  0  0  0  0  0  0  0  0
  1  2  1  0
  2  3  3  0
  3  4  1  0
  4  5  3  0
  5  6  1  0
  6  7  1  0
  7  8  1  0
  8  9  1  0
  9  7  1  0
  1 10  1  0
  1 11  1  0
  1 12  1  0
  6 13  1  0
  6 14  1  0
  7 15  1  0
  8 16  1  0
  8 17  1  0
M  END
