
     RDKit          3D

 13 12  0  0  0  0  0  0  0  0999 V2000
    3.1586    0.3674   -0.3196 C   0  0  0  0  0  0  0  0  0  0  0  0
    1.7333   -0.0334   -0.2596 C   0  0  0  0  0  0  0  0  0  0  0  0
    0.5694   -0.3504   -0.2218 C   0  0  0  0  0  0  0  0  0  0  0  0
   -0.8146   -0.7174   -0.1587 C   0  0  0  0  0  0  0  0  0  0  0  0
   -1.2305   -1.8471   -0.5121 O   0  0  0  0  0  0  0  0  0  0  0  0
   -1.7955    0.2515    0.3349 C   0  0  0  0  0  0  0  0  0  0  0  0
   -1.4396    1.4003    0.7038 O   0  0  0  0  0  0  0  0  0  0  0  0
   -3.2102   -0.0592    0.4229 C   0  0  0  0  0  0  0  0  0  0  0  0
   -3.6453   -1.1659    0.0807 O   0  0  0  0  0  0  0  0  0  0  0  0
    3.6705    0.0951    0.6015 H   0  0  0  0  0  0  0  0  0  0  0  0
    3.2444    1.4772   -0.4572 H   0  0  0  0  0  0  0  0  0  0  0  0
    3.6509   -0.1035   -1.1651 H   0  0  0  0  0  0  0  0  0  0  0  0
   -3.8915    0.6855    0.7920 H   0  0  0  0  0  0  0  0  0  0  0  0
  1  2  1  0
  2  3  3  0
  3  4  1  0
  4  5  2  0
  4  6  1  0
  6  7  2  0
  6  8  1  0
  8  9  2  0
  1 10  1  0
  1 11  1  0
  1 12  1  0
  8 13  1  0
M  END
