
     RDKit          3D

 16 17  0  0  0  0  0  0  0  0999 V2000
    1.9180    2.5390    0.4103 C   0  0  0  0  0  0  0  0  0  0  0  0
    1.1692    1.3036    0.2016 C   0  0  0  0  0  0  0  0  0  0  0  0
    0.5443    0.2815    0.0438 C   0  0  0  0  0  0  0  0  0  0  0  0
   -0.2127   -0.9119   -0.1508 C   0  0  0  0  0  0  0  0  0  0  0  0
   -0.7001   -1.7410    1.0102 C   0  0  0  0  0  0  0  0  0  0  0  0
   -1.9509   -1.1861    0.7959 O   0  0  0  0  0  0  0  0  0  0  0  0
   -1.7149   -0.6363   -0.4430 C   0  0  0  0  0  0  0  0  0  0  0  0
   -0.8329   -1.2847   -1.4464 C   0  0  0  0  0  0  0  0  0  0  0  0
    1.4635    3.1093    1.2803 H   0  0  0  0  0  0  0  0  0  0  0  0
    1.8794    3.1865   -0.4733 H   0  0  0  0  0  0  0  0  0  0  0  0
    2.9798    2.3643    0.6859 H   0  0  0  0  0  0  0  0  0  0  0  0
   -0.1803   -1.5025    1.9392 H   0  0  0  0  0  0  0  0  0  0  0  0
   -0.7662   -2.8299    0.7552 H   0  0  0  0  0  0  0  0  0  0  0  0
   -2.0158    0.3952   -0.6708 H   0  0  0  0  0  0  0  0  0  0  0  0
   -1.0619   -2.3584   -1.6160 H   0  0  0  0  0  0  0  0  0  0  0  0
   -0.5185   -0.7284   -2.3222 H   0  0  0  0  0  0  0  0  0  0  0  0
  1  2  1  0
  2  3  3  0
  3  4  1  0
  4  5  1  0
  5  6  1  0
  6  7  1  0
  7  8  1  0
  7  4  1  0
  8  4  1  0
  1  9  1  0
  1 10  1  0
  1 11  1  0
  5 12  1  0
  5 13  1  0
  7 14  1  0
  8 15  1  0
  8 16  1  0
M  END
