
     RDKit          3D

 16 15  0  0  0  0  0  0  0  0999 V2000
   -3.2625    0.1660   -0.8158 C   0  0  0  0  0  0  0  0  0  0  0  0
   -1.9060    0.0525   -0.2248 C   0  0  0  0  0  0  0  0  0  0  0  0
   -0.8205   -0.0386    0.2672 C   0  0  0  0  0  0  0  0  0  0  0  0
    0.5218   -0.1308    0.8802 C   0  0  0  0  0  0  0  0  0  0  0  0
    0.8018   -1.4276    1.3064 O   0  0  0  0  0  0  0  0  0  0  0  0
    1.5160    0.3503   -0.1163 C   0  0  0  0  0  0  0  0  0  0  0  0
    2.8708    0.2646    0.4820 C   0  0  0  0  0  0  0  0  0  0  0  0
    3.8393    0.6243   -0.2027 O   0  0  0  0  0  0  0  0  0  0  0  0
   -3.2789    0.9548   -1.6031 H   0  0  0  0  0  0  0  0  0  0  0  0
   -3.5059   -0.8145   -1.2666 H   0  0  0  0  0  0  0  0  0  0  0  0
   -3.9989    0.3540   -0.0087 H   0  0  0  0  0  0  0  0  0  0  0  0
    0.5749    0.5430    1.7618 H   0  0  0  0  0  0  0  0  0  0  0  0
    0.8325   -2.0146    0.4896 H   0  0  0  0  0  0  0  0  0  0  0  0
    1.3745    1.4317   -0.3822 H   0  0  0  0  0  0  0  0  0  0  0  0
    1.4722   -0.2105   -1.0884 H   0  0  0  0  0  0  0  0  0  0  0  0
    2.9690   -0.1047    1.4848 H   0  0  0  0  0  0  0  0  0  0  0  0
  1  2  1  0
  2  3  3  0
  3  4  1  0
  4  5  1  0
  4  6  1  0
  6  7  1  0
  7  8  2  0
  1  9  1  0
  1 10  1  0
  1 11  1  0
  4 12  1  0
  5 13  1  0
  6 14  1  0
  6 15  1  0
  7 16  1  0
M  END
