
     RDKit          3D

 21 20  0  0  0  0  0  0  0  0999 V2000
    1.9642   -0.4181   -2.9286 C   0  0  0  0  0  0  0  0  0  0  0  0
    1.5368    0.3020   -1.8035 C   0  0  0  0  0  0  0  0  0  0  0  0
    1.1557    0.9533   -0.8073 C   0  0  0  0  0  0  0  0  0  0  0  0
    0.7197    1.7112    0.3742 C   0  0  0  0  0  0  0  0  0  0  0  0
   -0.4967    1.3533    0.8671 O   0  0  0  0  0  0  0  0  0  0  0  0
   -0.6764    0.0648    1.2710 C   0  0  0  0  0  0  0  0  0  0  0  0
   -0.7204   -0.1727    2.7603 C   0  0  0  0  0  0  0  0  0  0  0  0
   -1.8093   -0.6875    0.6272 C   0  0  0  0  0  0  0  0  0  0  0  0
   -1.6032   -0.8465   -0.7275 O   0  0  0  0  0  0  0  0  0  0  0  0
    1.5070   -0.0014   -3.8643 H   0  0  0  0  0  0  0  0  0  0  0  0
    1.6396   -1.5045   -2.9486 H   0  0  0  0  0  0  0  0  0  0  0  0
    3.0807   -0.4853   -3.0477 H   0  0  0  0  0  0  0  0  0  0  0  0
    1.5111    1.7387    1.1728 H   0  0  0  0  0  0  0  0  0  0  0  0
    0.6651    2.7661    0.0273 H   0  0  0  0  0  0  0  0  0  0  0  0
    0.2869   -0.4728    0.9577 H   0  0  0  0  0  0  0  0  0  0  0  0
   -0.0159    0.4971    3.3065 H   0  0  0  0  0  0  0  0  0  0  0  0
   -1.7254   -0.1530    3.2038 H   0  0  0  0  0  0  0  0  0  0  0  0
   -0.3305   -1.1972    2.9428 H   0  0  0  0  0  0  0  0  0  0  0  0
   -1.9901   -1.6189    1.1926 H   0  0  0  0  0  0  0  0  0  0  0  0
   -2.7477   -0.0652    0.8099 H   0  0  0  0  0  0  0  0  0  0  0  0
   -1.9511   -1.7634   -0.9797 H   0  0  0  0  0  0  0  0  0  0  0  0
  1  2  1  0
  2  3  3  0
  3  4  1  0
  4  5  1  0
  5  6  1  0
  6  7  1  0
  6  8  1  0
  8  9  1  0
  1 10  1  0
  1 11  1  0
  1 12  1  0
  4 13  1  0
  4 14  1  0
  6 15  1  0
  7 16  1  0
  7 17  1  0
  7 18  1  0
  8 19  1  0
  8 20  1  0
  9 21  1  0
M  END
