
     RDKit          3D

 21 20  0  0  0  0  0  0  0  0999 V2000
    2.9145    0.4897   -1.9031 C   0  0  0  0  0  0  0  0  0  0  0  0
    1.7803   -0.1283   -1.2732 C   0  0  0  0  0  0  0  0  0  0  0  0
    0.7841   -0.6960   -0.7090 C   0  0  0  0  0  0  0  0  0  0  0  0
   -0.3116   -1.3482   -0.0875 C   0  0  0  0  0  0  0  0  0  0  0  0
   -0.7795   -0.6439    1.1390 C   0  0  0  0  0  0  0  0  0  0  0  0
   -1.9113   -1.4848    1.7168 C   0  0  0  0  0  0  0  0  0  0  0  0
   -2.5002   -2.2087    0.9529 O   0  0  0  0  0  0  0  0  0  0  0  0
   -1.3553    0.7345    0.9033 C   0  0  0  0  0  0  0  0  0  0  0  0
   -0.4050    1.7074    0.3030 C   0  0  0  0  0  0  0  0  0  0  0  0
    2.5466    1.3173   -2.5798 H   0  0  0  0  0  0  0  0  0  0  0  0
    3.4325   -0.2509   -2.6085 H   0  0  0  0  0  0  0  0  0  0  0  0
    3.6944    0.7918   -1.2105 H   0  0  0  0  0  0  0  0  0  0  0  0
   -0.0286   -2.3950    0.2707 H   0  0  0  0  0  0  0  0  0  0  0  0
   -1.2068   -1.4424   -0.7750 H   0  0  0  0  0  0  0  0  0  0  0  0
   -0.0085   -0.6511    1.9107 H   0  0  0  0  0  0  0  0  0  0  0  0
   -2.1241   -1.4055    2.7313 H   0  0  0  0  0  0  0  0  0  0  0  0
   -2.1892    0.6070    0.1429 H   0  0  0  0  0  0  0  0  0  0  0  0
   -1.8366    1.1381    1.7982 H   0  0  0  0  0  0  0  0  0  0  0  0
   -0.3580    1.5797   -0.7914 H   0  0  0  0  0  0  0  0  0  0  0  0
   -0.7386    2.7591    0.5114 H   0  0  0  0  0  0  0  0  0  0  0  0
    0.6007    1.5301    0.7275 H   0  0  0  0  0  0  0  0  0  0  0  0
  1  2  1  0
  2  3  3  0
  3  4  1  0
  4  5  1  0
  5  6  1  0
  6  7  2  0
  5  8  1  0
  8  9  1  0
  1 10  1  0
  1 11  1  0
  1 12  1  0
  4 13  1  0
  4 14  1  0
  5 15  1  0
  6 16  1  0
  8 17  1  0
  8 18  1  0
  9 19  1  0
  9 20  1  0
  9 21  1  0
M  END
