
     RDKit          3D

 19 20  0  0  0  0  0  0  0  0999 V2000
    3.2487   -0.5844   -1.6713 C   0  0  0  0  0  0  0  0  0  0  0  0
    2.0624   -0.2954   -0.8341 C   0  0  0  0  0  0  0  0  0  0  0  0
    1.0828   -0.0628   -0.1681 C   0  0  0  0  0  0  0  0  0  0  0  0
   -0.0700    0.2164    0.6365 C   0  0  0  0  0  0  0  0  0  0  0  0
   -1.3285    0.2178   -0.2604 C   0  0  0  0  0  0  0  0  0  0  0  0
   -1.9727   -1.1128   -0.3897 C   0  0  0  0  0  0  0  0  0  0  0  0
   -1.8312    1.0268    0.9367 C   0  0  0  0  0  0  0  0  0  0  0  0
   -1.4742    2.2448    1.2793 O   0  0  0  0  0  0  0  0  0  0  0  0
   -0.4391    1.6922    0.6791 C   0  0  0  0  0  0  0  0  0  0  0  0
    3.2552    0.0986   -2.5420 H   0  0  0  0  0  0  0  0  0  0  0  0
    3.2198   -1.6527   -1.9458 H   0  0  0  0  0  0  0  0  0  0  0  0
    4.1529   -0.4346   -1.0234 H   0  0  0  0  0  0  0  0  0  0  0  0
   -0.2106   -0.3336    1.5645 H   0  0  0  0  0  0  0  0  0  0  0  0
   -1.2114    0.8363   -1.1464 H   0  0  0  0  0  0  0  0  0  0  0  0
   -1.2142   -1.8899   -0.1312 H   0  0  0  0  0  0  0  0  0  0  0  0
   -2.3005   -1.2304   -1.4556 H   0  0  0  0  0  0  0  0  0  0  0  0
   -2.8362   -1.1524    0.3127 H   0  0  0  0  0  0  0  0  0  0  0  0
   -1.8341    0.3181    1.8266 H   0  0  0  0  0  0  0  0  0  0  0  0
   -0.2992    2.0980   -0.3745 H   0  0  0  0  0  0  0  0  0  0  0  0
  1  2  1  0
  2  3  3  0
  3  4  1  0
  4  5  1  0
  5  6  1  0
  5  7  1  0
  7  8  1  0
  8  9  1  0
  9  4  1  0
  9  7  1  0
  1 10  1  0
  1 11  1  0
  1 12  1  0
  4 13  1  0
  5 14  1  0
  6 15  1  0
  6 16  1  0
  6 17  1  0
  7 18  1  0
  9 19  1  0
M  END
