
     RDKit          3D

 17 18  0  0  0  0  0  0  0  0999 V2000
   -2.9382    0.0587    0.6154 C   0  0  0  0  0  0  0  0  0  0  0  0
   -1.7531    0.2243   -0.0970 C   0  0  0  0  0  0  0  0  0  0  0  0
   -1.1832    0.2999   -0.4266 C   0  0  0  0  0  0  0  0  0  0  0  0
    0.2882    0.4768   -1.2971 C   0  0  0  0  0  0  0  0  0  0  0  0
    0.8714    1.5993   -0.6449 O   0  0  0  0  0  0  0  0  0  0  0  0
    1.6433    0.8659    0.2729 C   0  0  0  0  0  0  0  0  0  0  0  0
    1.1952   -0.4400    0.8644 C   0  0  0  0  0  0  0  0  0  0  0  0
    1.3711   -0.3911   -0.5552 C   0  0  0  0  0  0  0  0  0  0  0  0
    2.4695   -0.9281   -1.2640 O   0  0  0  0  0  0  0  0  0  0  0  0
   -3.0351   -0.7187    1.3152 H   0  0  0  0  0  0  0  0  0  0  0  0
   -3.9139    0.0479   -0.0783 H   0  0  0  0  0  0  0  0  0  0  0  0
   -3.2964    1.0628    1.2653 H   0  0  0  0  0  0  0  0  0  0  0  0
    0.2378    0.5250   -2.3221 H   0  0  0  0  0  0  0  0  0  0  0  0
    2.5800    1.2350    0.5812 H   0  0  0  0  0  0  0  0  0  0  0  0
    0.1615   -0.4105    1.2778 H   0  0  0  0  0  0  0  0  0  0  0  0
    1.9983   -0.9344    1.4367 H   0  0  0  0  0  0  0  0  0  0  0  0
    3.3036   -0.4067   -0.9438 H   0  0  0  0  0  0  0  0  0  0  0  0
  1  2  1  0
  2  3  3  0
  3  4  1  0
  4  5  1  0
  5  6  1  0
  6  7  1  0
  7  8  1  0
  8  9  1  0
  8  4  1  0
  8  6  1  0
  1 10  1  0
  1 11  1  0
  1 12  1  0
  4 13  1  0
  6 14  1  0
  7 15  1  0
  7 16  1  0
  9 17  1  0
M  END
