
     RDKit          3D

 17 17  0  0  0  0  0  0  0  0999 V2000
    3.1071   -1.2740   -0.8506 C   0  0  0  0  0  0  0  0  0  0  0  0
    1.8701   -0.5936   -0.4098 C   0  0  0  0  0  0  0  0  0  0  0  0
    0.8849   -0.0544   -0.0376 C   0  0  0  0  0  0  0  0  0  0  0  0
   -0.3092    0.6136    0.4360 C   0  0  0  0  0  0  0  0  0  0  0  0
   -0.9187    1.5697   -0.5939 C   0  0  0  0  0  0  0  0  0  0  0  0
   -2.2397    1.0027   -0.2321 C   0  0  0  0  0  0  0  0  0  0  0  0
   -3.3862    1.3795   -0.2615 O   0  0  0  0  0  0  0  0  0  0  0  0
   -1.5427   -0.2363    0.1850 C   0  0  0  0  0  0  0  0  0  0  0  0
   -1.9923   -0.8221    1.3549 O   0  0  0  0  0  0  0  0  0  0  0  0
    3.9315   -0.5386   -0.7623 H   0  0  0  0  0  0  0  0  0  0  0  0
    3.3580   -2.1271   -0.2024 H   0  0  0  0  0  0  0  0  0  0  0  0
    2.9898   -1.5433   -1.9066 H   0  0  0  0  0  0  0  0  0  0  0  0
   -0.2469    1.0886    1.4180 H   0  0  0  0  0  0  0  0  0  0  0  0
   -0.7661    2.6314   -0.3517 H   0  0  0  0  0  0  0  0  0  0  0  0
   -0.6013    1.2552   -1.6173 H   0  0  0  0  0  0  0  0  0  0  0  0
   -1.3721   -0.9336   -0.6602 H   0  0  0  0  0  0  0  0  0  0  0  0
   -2.7663   -1.4179    1.1818 H   0  0  0  0  0  0  0  0  0  0  0  0
  1  2  1  0
  2  3  3  0
  3  4  1  0
  4  5  1  0
  5  6  1  0
  6  7  2  0
  6  8  1  0
  8  9  1  0
  8  4  1  0
  1 10  1  0
  1 11  1  0
  1 12  1  0
  4 13  1  0
  5 14  1  0
  5 15  1  0
  8 16  1  0
  9 17  1  0
M  END
