
     RDKit          3D

 17 17  0  0  0  0  0  0  0  0999 V2000
    3.5681    0.7656   -0.0915 C   0  0  0  0  0  0  0  0  0  0  0  0
    2.0945    0.8107    0.0288 C   0  0  0  0  0  0  0  0  0  0  0  0
    0.8922    0.8404    0.1469 C   0  0  0  0  0  0  0  0  0  0  0  0
   -0.5601    0.8828    0.3143 C   0  0  0  0  0  0  0  0  0  0  0  0
   -1.1105    0.2701    1.5185 C   0  0  0  0  0  0  0  0  0  0  0  0
   -1.2618   -0.4390    0.2248 C   0  0  0  0  0  0  0  0  0  0  0  0
   -2.4924   -0.5043   -0.4388 O   0  0  0  0  0  0  0  0  0  0  0  0
   -2.8487   -1.6126   -1.1868 C   0  0  0  0  0  0  0  0  0  0  0  0
   -2.0128   -2.5538   -1.2389 O   0  0  0  0  0  0  0  0  0  0  0  0
    3.9539    0.6868    0.9545 H   0  0  0  0  0  0  0  0  0  0  0  0
    3.9694    1.7051   -0.5199 H   0  0  0  0  0  0  0  0  0  0  0  0
    3.8858   -0.1197   -0.6807 H   0  0  0  0  0  0  0  0  0  0  0  0
   -1.1008    1.7977   -0.0577 H   0  0  0  0  0  0  0  0  0  0  0  0
   -2.0577    0.6852    1.9550 H   0  0  0  0  0  0  0  0  0  0  0  0
   -0.4785   -0.2003    2.2986 H   0  0  0  0  0  0  0  0  0  0  0  0
   -0.6270   -1.3364    0.0919 H   0  0  0  0  0  0  0  0  0  0  0  0
   -3.8136   -1.6782   -1.7144 H   0  0  0  0  0  0  0  0  0  0  0  0
  1  2  1  0
  2  3  3  0
  3  4  1  0
  4  5  1  0
  5  6  1  0
  6  7  1  0
  7  8  1  0
  8  9  2  0
  6  4  1  0
  1 10  1  0
  1 11  1  0
  1 12  1  0
  4 13  1  0
  5 14  1  0
  5 15  1  0
  6 16  1  0
  8 17  1  0
M  END
